0
                    3D
 Structure written by MMmdl.
158166  0  0  1  0            999 V2000
  -30.6127  -14.7839   20.4114 C   0  0  0  0  0  0
  -30.4352  -12.4728   19.4754 C   0  0  0  0  0  0
  -29.5166  -12.5107   18.2338 C   0  0  0  0  0  0
  -28.0444  -12.3245   18.6504 C   0  0  0  0  0  0
  -27.6425  -13.2370   19.8395 C   0  0  2  0  0  0
  -28.6898  -13.2026   20.9763 C   0  0  0  0  0  0
  -25.2525  -13.8201   20.5661 C   0  0  0  0  0  0
  -24.1824  -13.0447   20.9201 C   0  0  0  0  0  0
  -24.6425  -11.6926   20.8740 C   0  0  0  0  0  0
  -23.9102  -10.4292   21.0390 C   0  0  0  0  0  0
  -24.3645   -9.4208   21.9177 C   0  0  0  0  0  0
  -23.6313   -8.2241   22.0750 C   0  0  0  0  0  0
  -22.4301   -8.0279   21.3532 C   0  0  0  0  0  0
  -21.9928   -9.0267   20.4655 C   0  0  0  0  0  0
  -22.7263  -10.2142   20.3051 C   0  0  0  0  0  0
  -21.6862   -6.0738   22.5276 C   0  0  0  0  0  0
  -21.4019   -6.5640   23.8214 C   0  0  0  0  0  0
  -21.3655   -5.6783   24.9171 C   0  0  0  0  0  0
  -21.6038   -4.3046   24.7210 C   0  0  0  0  0  0
  -21.8822   -3.8145   23.4330 C   0  0  0  0  0  0
  -21.9193   -4.6963   22.3389 C   0  0  0  0  0  0
  -22.7841  -13.5227   21.1850 C   0  0  0  0  0  0
  -22.1662   -4.2153   21.0963 F   0  0  0  0  0  0
  -21.5631   -3.4544   25.7714 F   0  0  0  0  0  0
  -29.9895  -13.5525   20.3884 N   0  0  0  0  0  0
  -26.2962  -12.9423   20.3229 N   0  0  0  0  0  0
  -25.9360  -11.6574   20.5733 N   0  0  0  0  0  0
  -22.0466  -12.8228   22.0405 N   0  0  0  0  0  0
  -25.4206  -15.1908   20.4016 N   0  0  0  0  0  0
  -31.8239  -14.8321   20.1680 O   0  0  0  0  0  0
  -21.6643   -6.8888   21.4239 O   0  0  0  0  0  0
  -22.3524  -14.5528   20.6686 O   0  0  0  0  0  0
  -24.6334  -31.8545   23.1939 C   0  0  0  0  0  0
  -25.9143  -32.4760   23.8302 C   0  0  1  0  0  0
  -27.2173  -27.2442   20.1507 C   0  0  0  0  0  0
  -25.5934  -33.8570   24.2238 N   0  0  0  0  0  0
  -23.4313  -30.4757   21.5384 C   0  0  2  0  0  0
  -24.8784  -28.9128   20.1153 C   0  0  0  0  0  0
  -22.7506  -29.4616   22.4900 C   0  0  0  0  0  0
  -18.0295  -28.1382   22.8493 C   0  0  0  0  0  0
  -24.1494  -36.7290   23.2632 C   0  0  0  0  0  0
  -25.9775  -30.7645   21.3717 C   0  0  0  0  0  0
  -26.0502  -29.3817   20.7225 C   0  0  0  0  0  0
  -27.2266  -28.5634   20.7207 C   0  0  0  0  0  0
  -26.0254  -26.8381   19.5197 C   0  0  0  0  0  0
  -24.8733  -27.6519   19.4957 C   0  0  0  0  0  0
  -23.6494  -29.8030   20.1574 C   0  0  0  0  0  0
  -25.4121  -36.3080   24.0321 C   0  0  1  0  0  0
  -20.5898  -28.3715   23.1261 C   0  0  2  0  0  0
  -20.6785  -26.9430   22.5415 C   0  0  0  0  0  0
  -19.5759  -26.6379   21.5222 C   0  0  0  0  0  0
  -18.1936  -26.7922   22.1626 C   0  0  0  0  0  0
  -19.1548  -28.8862   23.2871 C   0  0  0  0  0  0
  -18.9467  -30.1460   23.8889 C   0  0  0  0  0  0
  -17.6465  -30.6585   24.0562 C   0  0  0  0  0  0
  -25.9064  -34.9455   23.5082 C   0  0  0  0  0  0
  -16.5356  -29.9089   23.6324 C   0  0  0  0  0  0
  -16.7280  -28.6504   23.0352 C   0  0  0  0  0  0
  -26.4493  -31.6593   25.0704 C   0  0  0  0  0  0
  -25.3696  -31.3768   26.1411 C   0  0  0  0  0  0
  -27.0327  -30.3006   24.6188 C   0  0  0  0  0  0
  -27.6045  -32.4332   25.7474 C   0  0  0  0  0  0
  -27.5586  -37.1793   24.8458 C   0  0  0  0  0  0
  -21.4206  -29.3052   22.3639 N   0  0  0  0  0  0
  -26.4287  -37.3786   23.9408 N   0  0  0  0  0  0
  -24.7004  -31.0506   22.0910 N   0  0  0  0  0  0
  -23.4200  -28.8147   23.3009 O   0  0  0  0  0  0
  -28.3114  -26.3495   20.1532 O   0  0  0  0  0  0
  -26.5652  -34.8930   22.4657 O   0  0  0  0  0  0
  -23.5478  -32.1365   23.7237 O   0  0  0  0  0  0
  -30.6605  -18.7167   18.1245 C   0  0  0  0  0  0
  -29.9925  -19.8362   18.6596 C   0  0  0  0  0  0
  -30.6406  -17.4708   18.7792 C   0  0  0  0  0  0
  -29.3682  -19.7279   19.9156 C   0  0  0  0  0  0
  -29.9697  -17.3253   20.0225 C   0  0  0  0  0  0
  -29.8756  -21.0933   17.8085 C   0  0  0  0  0  0
  -30.4652  -22.3199   21.2567 C   0  0  0  0  0  0
  -28.1653  -24.9698   20.7565 C   0  0  0  0  0  0
  -28.9818  -22.2357   20.8589 C   0  0  1  0  0  0
  -28.5013  -23.5512   20.0055 C   0  0  1  0  0  0
  -29.3548  -18.4798   20.5540 N   0  0  0  0  0  0
  -29.8405  -15.9381   20.5768 N   0  0  0  0  0  0
  -28.5725  -20.8469   20.3776 N   0  0  0  0  0  0
  -27.3208  -23.1331   19.3375 O   0  0  0  0  0  0
  -31.1983  -16.4180   18.1336 F   0  0  0  0  0  0
  -31.4782  -12.5876   19.1767 H   0  0  0  0  0  0
  -30.3717  -11.5022   19.9684 H   0  0  0  0  0  0
  -29.8088  -11.7346   17.5251 H   0  0  0  0  0  0
  -29.6377  -13.4606   17.7104 H   0  0  0  0  0  0
  -27.9128  -11.2784   18.9298 H   0  0  0  0  0  0
  -27.3845  -12.4937   17.7980 H   0  0  0  0  0  0
  -27.6275  -14.2510   19.4405 H   0  0  0  0  0  0
  -28.7314  -12.2189   21.4461 H   0  0  0  0  0  0
  -28.4228  -13.9072   21.7654 H   0  0  0  0  0  0
  -25.2796   -9.5688   22.4752 H   0  0  0  0  0  0
  -24.0023   -7.4635   22.7471 H   0  0  0  0  0  0
  -21.0844   -8.8795   19.8966 H   0  0  0  0  0  0
  -22.3721  -10.9685   19.6156 H   0  0  0  0  0  0
  -21.2029   -7.6157   23.9715 H   0  0  0  0  0  0
  -21.1474   -6.0512   25.9066 H   0  0  0  0  0  0
  -22.0612   -2.7611   23.2816 H   0  0  0  0  0  0
  -22.4075  -11.9916   22.4860 H   0  0  0  0  0  0
  -21.1082  -13.1268   22.2583 H   0  0  0  0  0  0
  -24.6462  -15.8392   20.4889 H   0  0  0  0  0  0
  -26.2594  -15.6244   20.0389 H   0  0  0  0  0  0
  -26.7219  -32.5419   23.1054 H   0  0  0  0  0  0
  -25.0070  -33.9711   25.0375 H   0  0  0  0  0  0
  -22.7294  -31.2993   21.3906 H   0  0  0  0  0  0
  -23.3765  -35.9608   23.3272 H   0  0  0  0  0  0
  -24.3581  -36.8938   22.2050 H   0  0  0  0  0  0
  -23.7237  -37.6476   23.6674 H   0  0  0  0  0  0
  -26.1117  -31.5178   20.5942 H   0  0  0  0  0  0
  -26.8568  -30.8233   22.0008 H   0  0  0  0  0  0
  -28.1275  -28.9250   21.1940 H   0  0  0  0  0  0
  -25.9787  -25.8669   19.0488 H   0  0  0  0  0  0
  -23.9792  -27.2917   19.0045 H   0  0  0  0  0  0
  -23.7716  -30.5754   19.3980 H   0  0  0  0  0  0
  -22.7674  -29.2345   19.8577 H   0  0  0  0  0  0
  -25.1303  -36.1907   25.0812 H   0  0  0  0  0  0
  -21.0016  -28.3308   24.1366 H   0  0  0  0  0  0
  -20.5685  -26.2338   23.3630 H   0  0  0  0  0  0
  -21.6653  -26.7441   22.1210 H   0  0  0  0  0  0
  -19.6923  -25.6286   21.1263 H   0  0  0  0  0  0
  -19.6678  -27.3179   20.6744 H   0  0  0  0  0  0
  -17.4209  -26.6680   21.4018 H   0  0  0  0  0  0
  -18.0316  -26.0059   22.9017 H   0  0  0  0  0  0
  -19.7945  -30.7277   24.2252 H   0  0  0  0  0  0
  -17.5022  -31.6260   24.5169 H   0  0  0  0  0  0
  -15.5361  -30.2988   23.7641 H   0  0  0  0  0  0
  -15.8680  -28.0818   22.7063 H   0  0  0  0  0  0
  -24.5855  -30.7143   25.7726 H   0  0  0  0  0  0
  -24.8904  -32.2959   26.4804 H   0  0  0  0  0  0
  -25.7983  -30.8946   27.0209 H   0  0  0  0  0  0
  -26.2909  -29.6763   24.1197 H   0  0  0  0  0  0
  -27.3989  -29.7258   25.4707 H   0  0  0  0  0  0
  -27.8797  -30.4270   23.9437 H   0  0  0  0  0  0
  -27.2649  -33.3632   26.2044 H   0  0  0  0  0  0
  -28.3851  -32.6901   25.0301 H   0  0  0  0  0  0
  -28.0718  -31.8464   26.5391 H   0  0  0  0  0  0
  -28.2597  -38.0102   24.7536 H   0  0  0  0  0  0
  -28.1091  -36.2637   24.6242 H   0  0  0  0  0  0
  -27.2311  -37.1397   25.8863 H   0  0  0  0  0  0
  -20.9388  -29.8776   21.6836 H   0  0  0  0  0  0
  -26.0165  -38.2850   24.1421 H   0  0  0  0  0  0
  -31.1366  -18.7839   17.1574 H   0  0  0  0  0  0
  -30.3246  -20.9562   16.8255 H   0  0  0  0  0  0
  -30.3643  -21.9426   18.2803 H   0  0  0  0  0  0
  -28.8247  -21.3436   17.6503 H   0  0  0  0  0  0
  -30.6554  -23.2296   21.8277 H   0  0  0  0  0  0
  -31.1242  -22.3363   20.3903 H   0  0  0  0  0  0
  -30.7630  -21.4796   21.8843 H   0  0  0  0  0  0
  -28.8608  -25.0049   21.5943 H   0  0  0  0  0  0
  -27.1897  -24.8876   21.2385 H   0  0  0  0  0  0
  -28.4339  -22.3094   21.7991 H   0  0  0  0  0  0
  -29.2581  -23.7563   19.2474 H   0  0  0  0  0  0
  -28.9403  -15.7593   20.9878 H   0  0  0  0  0  0
  -27.8371  -21.0537   19.7037 H   0  0  0  0  0  0
  -27.0216  -23.8703   18.8152 H   0  0  0  0  0  0
  1 25  1  0  0  0
  1 30  2  0  0  0
  1 82  1  0  0  0
  2  3  1  0  0  0
  2 25  1  0  0  0
  2 86  1  0  0  0
  2 87  1  0  0  0
  3  4  1  0  0  0
  3 88  1  0  0  0
  3 89  1  0  0  0
  4  5  1  0  0  0
  4 90  1  0  0  0
  4 91  1  0  0  0
  5  6  1  0  0  0
  5 26  1  0  0  0
  5 92  1  0  0  0
  6 25  1  0  0  0
  6 93  1  0  0  0
  6 94  1  0  0  0
  7  8  2  0  0  0
  7 26  1  0  0  0
  7 29  1  0  0  0
  8  9  1  0  0  0
  8 22  1  0  0  0
  9 10  1  0  0  0
  9 27  2  0  0  0
 10 11  2  0  0  0
 10 15  1  0  0  0
 11 12  1  0  0  0
 11 95  1  0  0  0
 12 13  2  0  0  0
 12 96  1  0  0  0
 13 14  1  0  0  0
 13 31  1  0  0  0
 14 15  2  0  0  0
 14 97  1  0  0  0
 15 98  1  0  0  0
 16 17  2  0  0  0
 16 21  1  0  0  0
 16 31  1  0  0  0
 17 18  1  0  0  0
 17 99  1  0  0  0
 18 19  2  0  0  0
 18100  1  0  0  0
 19 20  1  0  0  0
 19 24  1  0  0  0
 20 21  2  0  0  0
 20101  1  0  0  0
 21 23  1  0  0  0
 22 28  1  0  0  0
 22 32  2  0  0  0
 26 27  1  0  0  0
 28102  1  0  0  0
 28103  1  0  0  0
 29104  1  0  0  0
 29105  1  0  0  0
 33 34  1  0  0  0
 33 66  1  0  0  0
 33 70  2  0  0  0
 34 36  1  0  0  0
 34 59  1  0  0  0
 34106  1  0  0  0
 35 44  2  0  0  0
 35 45  1  0  0  0
 35 68  1  0  0  0
 36 56  1  0  0  0
 36107  1  0  0  0
 37 39  1  0  0  0
 37 47  1  0  0  0
 37 66  1  0  0  0
 37108  1  0  0  0
 38 43  2  0  0  0
 38 46  1  0  0  0
 38 47  1  0  0  0
 39 64  1  0  0  0
 39 67  2  0  0  0
 40 52  1  0  0  0
 40 53  2  0  0  0
 40 58  1  0  0  0
 41109  1  0  0  0
 41110  1  0  0  0
 41111  1  0  0  0
 41 48  1  0  0  0
 42 43  1  0  0  0
 42 66  1  0  0  0
 42112  1  0  0  0
 42113  1  0  0  0
 43 44  1  0  0  0
 44114  1  0  0  0
 45 46  2  0  0  0
 45115  1  0  0  0
 46116  1  0  0  0
 47117  1  0  0  0
 47118  1  0  0  0
 48 56  1  0  0  0
 48 65  1  0  0  0
 48119  1  0  0  0
 49 50  1  0  0  0
 49 53  1  0  0  0
 49 64  1  0  0  0
 49120  1  0  0  0
 50 51  1  0  0  0
 50121  1  0  0  0
 50122  1  0  0  0
 51 52  1  0  0  0
 51123  1  0  0  0
 51124  1  0  0  0
 52125  1  0  0  0
 52126  1  0  0  0
 53 54  1  0  0  0
 54 55  2  0  0  0
 54127  1  0  0  0
 55 57  1  0  0  0
 55128  1  0  0  0
 56 69  2  0  0  0
 57 58  2  0  0  0
 57129  1  0  0  0
 58130  1  0  0  0
 59 60  1  0  0  0
 59 61  1  0  0  0
 59 62  1  0  0  0
 60131  1  0  0  0
 60132  1  0  0  0
 60133  1  0  0  0
 61134  1  0  0  0
 61135  1  0  0  0
 61136  1  0  0  0
 62137  1  0  0  0
 62138  1  0  0  0
 62139  1  0  0  0
 63 65  1  0  0  0
 63140  1  0  0  0
 63141  1  0  0  0
 63142  1  0  0  0
 64143  1  0  0  0
 65144  1  0  0  0
 68 78  1  0  0  0
 71 72  2  0  0  0
 71 73  1  0  0  0
 71145  1  0  0  0
 72 74  1  0  0  0
 72 76  1  0  0  0
 73 75  2  0  0  0
 73 85  1  0  0  0
 74 81  2  0  0  0
 74 83  1  0  0  0
 75 81  1  0  0  0
 75 82  1  0  0  0
 76146  1  0  0  0
 76147  1  0  0  0
 76148  1  0  0  0
 77149  1  0  0  0
 77150  1  0  0  0
 77151  1  0  0  0
 77 79  1  0  0  0
 78 80  1  0  0  0
 78152  1  0  0  0
 78153  1  0  0  0
 79 80  1  0  0  0
 79 83  1  0  0  0
 79154  1  0  0  0
 80 84  1  0  0  0
 80155  1  0  0  0
 82156  1  0  0  0
 83157  1  0  0  0
 84158  1  0  0  0
M  ISO  4   1 100  68 101  78 101  82 100
M  END
> <chiral flag>
0

> <version>
0

> <s_m_source_file>
/data/baiqing/PycharmProjects/Reinvent-master-3.2/result/LINK_invent/BTK/process_docking_weight1_custom_product_contain_oxygen_bond_distance_aromatic_linkinvent_7_9_3/rearranged_h_0187.sdf

> <i_m_source_file_index>
1

> <r_mmod_Potential_Energy-OPLS-2005>
59.7772598266602

> <r_mmod_Stretch_Energy-OPLS-2005>
144.322738647461

> <r_mmod_Bend_Energy-OPLS-2005>
203.495086669922

> <r_mmod_Torsional_Energy-OPLS-2005>
323.109161376953

> <r_mmod_Improper_Torsional_Energy-OPLS-2005>
11.003794670105

> <r_mmod_Van_der_Waal_Energy-OPLS-2005>
138.447601318359

> <r_mmod_Electrostatic_Energy-OPLS-2005>
-619.0029296875

> <r_mmod_Solvation_Energy-OPLS-2005>
-240.968811035156

> <b_mmod_Minimization_Converged-OPLS-2005>
0

> <r_mmod_RMS_Derivative-OPLS-2005>
3.32855677604675

$$$$
1
                    3D
 Structure written by MMmdl.
163171  0  0  1  0            999 V2000
  -30.6095  -14.7493   20.4754 C   0  0  0  0  0  0
  -30.4207  -12.4500   19.5145 C   0  0  0  0  0  0
  -29.5194  -12.5082   18.2609 C   0  0  0  0  0  0
  -28.0405  -12.3363   18.6586 C   0  0  0  0  0  0
  -27.6360  -13.2381   19.8558 C   0  0  2  0  0  0
  -28.6681  -13.1937   21.0012 C   0  0  0  0  0  0
  -25.2428  -13.8219   20.5692 C   0  0  0  0  0  0
  -24.1738  -13.0442   20.9225 C   0  0  0  0  0  0
  -24.6348  -11.6922   20.8766 C   0  0  0  0  0  0
  -23.9056  -10.4292   21.0442 C   0  0  0  0  0  0
  -24.3589   -9.4201   21.9205 C   0  0  0  0  0  0
  -23.6261   -8.2249   22.0772 C   0  0  0  0  0  0
  -22.4250   -8.0288   21.3567 C   0  0  0  0  0  0
  -21.9884   -9.0267   20.4683 C   0  0  0  0  0  0
  -22.7229  -10.2128   20.3117 C   0  0  0  0  0  0
  -21.6848   -6.0734   22.5289 C   0  0  0  0  0  0
  -21.4002   -6.5635   23.8225 C   0  0  0  0  0  0
  -21.3654   -5.6794   24.9180 C   0  0  0  0  0  0
  -21.6053   -4.3070   24.7222 C   0  0  0  0  0  0
  -21.8795   -3.8146   23.4351 C   0  0  0  0  0  0
  -21.9163   -4.6954   22.3399 C   0  0  0  0  0  0
  -22.7748  -13.5219   21.1863 C   0  0  0  0  0  0
  -22.1634   -4.2148   21.0981 F   0  0  0  0  0  0
  -21.5638   -3.4543   25.7738 F   0  0  0  0  0  0
  -29.9753  -13.5309   20.4257 N   0  0  0  0  0  0
  -26.2858  -12.9434   20.3288 N   0  0  0  0  0  0
  -25.9273  -11.6563   20.5738 N   0  0  0  0  0  0
  -22.0396  -12.8251   22.0457 N   0  0  0  0  0  0
  -25.4077  -15.1949   20.4030 N   0  0  0  0  0  0
  -31.7957  -14.8293   20.1398 O   0  0  0  0  0  0
  -21.6642   -6.8874   21.4264 O   0  0  0  0  0  0
  -22.3433  -14.5521   20.6709 O   0  0  0  0  0  0
  -24.6312  -31.8510   23.2015 C   0  0  0  0  0  0
  -25.9154  -32.4737   23.8308 C   0  0  1  0  0  0
  -27.2274  -27.2434   20.1530 C   0  0  0  0  0  0
  -25.6005  -33.8545   24.2256 N   0  0  0  0  0  0
  -23.4280  -30.4695   21.5422 C   0  0  2  0  0  0
  -24.8712  -28.8946   20.1370 C   0  0  0  0  0  0
  -22.7513  -29.4563   22.4927 C   0  0  0  0  0  0
  -18.0316  -28.1353   22.8479 C   0  0  0  0  0  0
  -24.1491  -36.7266   23.2660 C   0  0  0  0  0  0
  -25.9721  -30.7595   21.3790 C   0  0  0  0  0  0
  -26.0417  -29.3712   20.7394 C   0  0  0  0  0  0
  -27.2206  -28.5633   20.7263 C   0  0  0  0  0  0
  -26.0298  -26.8230   19.5412 C   0  0  0  0  0  0
  -24.8695  -27.6248   19.5356 C   0  0  0  0  0  0
  -23.6477  -29.7892   20.1653 C   0  0  0  0  0  0
  -25.4121  -36.3061   24.0330 C   0  0  1  0  0  0
  -20.5893  -28.3661   23.1281 C   0  0  2  0  0  0
  -20.6789  -26.9399   22.5389 C   0  0  0  0  0  0
  -19.5785  -26.6389   21.5185 C   0  0  0  0  0  0
  -18.1958  -26.7900   22.1594 C   0  0  0  0  0  0
  -19.1545  -28.8840   23.2882 C   0  0  0  0  0  0
  -18.9454  -30.1419   23.8909 C   0  0  0  0  0  0
  -17.6452  -30.6568   24.0540 C   0  0  0  0  0  0
  -25.9042  -34.9426   23.5076 C   0  0  0  0  0  0
  -16.5346  -29.9030   23.6354 C   0  0  0  0  0  0
  -16.7291  -28.6444   23.0388 C   0  0  0  0  0  0
  -26.4575  -31.6595   25.0690 C   0  0  0  0  0  0
  -25.3859  -31.3741   26.1477 C   0  0  0  0  0  0
  -27.0549  -30.3057   24.6226 C   0  0  0  0  0  0
  -27.6156  -32.4382   25.7361 C   0  0  0  0  0  0
  -27.5584  -37.1769   24.8473 C   0  0  0  0  0  0
  -21.4213  -29.3004   22.3670 N   0  0  0  0  0  0
  -26.4323  -37.3748   23.9410 N   0  0  0  0  0  0
  -24.6972  -31.0446   22.0996 N   0  0  0  0  0  0
  -23.4201  -28.8142   23.3039 O   0  0  0  0  0  0
  -28.3751  -26.4510   19.9557 O   0  0  0  0  0  0
  -26.5560  -34.8911   22.4601 O   0  0  0  0  0  0
  -23.5458  -32.1346   23.7288 O   0  0  0  0  0  0
  -28.0751  -20.4897   21.1529 C   0  0  0  0  0  0
  -28.4156  -19.0707   21.2979 C   0  0  0  0  0  0
  -29.5627  -18.6768   20.6282 C   0  0  0  0  0  0
  -28.9751  -21.2774   20.4517 C   0  0  0  0  0  0
  -28.2152  -23.7488   20.3777 C   0  0  0  0  0  0
  -27.6028  -18.1582   22.1799 C   0  0  0  0  0  0
  -30.0316  -24.5849   24.4482 C   0  0  0  0  0  0
  -29.8368  -26.7621   22.4623 C   0  0  0  0  0  0
  -30.4081  -17.3319   20.5679 C   0  0  0  0  0  0
  -29.5981  -24.2952   23.0044 C   0  0  0  0  0  0
  -28.8157  -25.2151   20.6983 C   0  0  1  0  0  0
  -28.9838  -25.4961   22.2215 C   0  0  2  0  0  0
  -29.0912  -22.6704   20.2988 N   0  0  0  0  0  0
  -29.8714  -15.9069   20.7048 N   0  0  0  0  0  0
  -27.0002  -23.6017   20.2217 O   0  0  0  0  0  0
  -30.2202  -20.1517   19.8612 S   0  0  0  0  0  0
  -31.4738  -12.5456   19.2371 H   0  0  0  0  0  0
  -30.3215  -11.4823   20.0086 H   0  0  0  0  0  0
  -29.8105  -11.7326   17.5506 H   0  0  0  0  0  0
  -29.6639  -13.4632   17.7550 H   0  0  0  0  0  0
  -27.8928  -11.2880   18.9175 H   0  0  0  0  0  0
  -27.3873  -12.5311   17.8076 H   0  0  0  0  0  0
  -27.6242  -14.2567   19.4709 H   0  0  0  0  0  0
  -28.6879  -12.2105   21.4692 H   0  0  0  0  0  0
  -28.3936  -13.8976   21.7906 H   0  0  0  0  0  0
  -25.2729   -9.5645   22.4762 H   0  0  0  0  0  0
  -23.9953   -7.4635   22.7473 H   0  0  0  0  0  0
  -21.0815   -8.8812   19.8995 H   0  0  0  0  0  0
  -22.3705  -10.9669   19.6233 H   0  0  0  0  0  0
  -21.2040   -7.6151   23.9713 H   0  0  0  0  0  0
  -21.1502   -6.0544   25.9080 H   0  0  0  0  0  0
  -22.0575   -2.7614   23.2869 H   0  0  0  0  0  0
  -22.3947  -11.9914   22.4926 H   0  0  0  0  0  0
  -21.1032  -13.1358   22.2676 H   0  0  0  0  0  0
  -24.6337  -15.8389   20.5177 H   0  0  0  0  0  0
  -26.2368  -15.6364   20.0242 H   0  0  0  0  0  0
  -26.7214  -32.5414   23.1036 H   0  0  0  0  0  0
  -25.0288  -33.9695   25.0519 H   0  0  0  0  0  0
  -22.7272  -31.2910   21.3909 H   0  0  0  0  0  0
  -23.3748  -35.9609   23.3337 H   0  0  0  0  0  0
  -24.3584  -36.8890   22.2079 H   0  0  0  0  0  0
  -23.7264  -37.6479   23.6668 H   0  0  0  0  0  0
  -26.1001  -31.5151   20.6019 H   0  0  0  0  0  0
  -26.8540  -30.8153   22.0060 H   0  0  0  0  0  0
  -28.1238  -28.9651   21.1550 H   0  0  0  0  0  0
  -25.9997  -25.8583   19.0527 H   0  0  0  0  0  0
  -23.9720  -27.2528   19.0633 H   0  0  0  0  0  0
  -23.7872  -30.5582   19.4059 H   0  0  0  0  0  0
  -22.7637  -29.2245   19.8594 H   0  0  0  0  0  0
  -25.1317  -36.1891   25.0831 H   0  0  0  0  0  0
  -20.9972  -28.3230   24.1405 H   0  0  0  0  0  0
  -20.5701  -26.2285   23.3584 H   0  0  0  0  0  0
  -21.6657  -26.7438   22.1173 H   0  0  0  0  0  0
  -19.6942  -25.6314   21.1232 H   0  0  0  0  0  0
  -19.6713  -27.3182   20.6704 H   0  0  0  0  0  0
  -17.4227  -26.6683   21.3992 H   0  0  0  0  0  0
  -18.0320  -26.0006   22.8957 H   0  0  0  0  0  0
  -19.7939  -30.7230   24.2303 H   0  0  0  0  0  0
  -17.5016  -31.6267   24.5106 H   0  0  0  0  0  0
  -15.5352  -30.2930   23.7690 H   0  0  0  0  0  0
  -15.8698  -28.0770   22.7125 H   0  0  0  0  0  0
  -24.6144  -30.6932   25.7870 H   0  0  0  0  0  0
  -24.8955  -32.2886   26.4874 H   0  0  0  0  0  0
  -25.8212  -30.9026   27.0292 H   0  0  0  0  0  0
  -26.3171  -29.6702   24.1299 H   0  0  0  0  0  0
  -27.4477  -29.7475   25.4724 H   0  0  0  0  0  0
  -27.8934  -30.4398   23.9397 H   0  0  0  0  0  0
  -27.2798  -33.3609   26.2084 H   0  0  0  0  0  0
  -28.3812  -32.7114   25.0086 H   0  0  0  0  0  0
  -28.1013  -31.8511   26.5163 H   0  0  0  0  0  0
  -28.2599  -38.0068   24.7499 H   0  0  0  0  0  0
  -28.1069  -36.2578   24.6301 H   0  0  0  0  0  0
  -27.2272  -37.1400   25.8876 H   0  0  0  0  0  0
  -20.9417  -29.8756   21.6905 H   0  0  0  0  0  0
  -26.0173  -38.2829   24.1420 H   0  0  0  0  0  0
  -27.2105  -20.8982   21.6576 H   0  0  0  0  0  0
  -27.0452  -18.7315   22.9222 H   0  0  0  0  0  0
  -28.2326  -17.4643   22.7383 H   0  0  0  0  0  0
  -26.8669  -17.5799   21.6191 H   0  0  0  0  0  0
  -30.4595  -23.6940   24.9132 H   0  0  0  0  0  0
  -29.1897  -24.8948   25.0634 H   0  0  0  0  0  0
  -30.7963  -25.3609   24.5015 H   0  0  0  0  0  0
  -29.6167  -27.1903   23.4405 H   0  0  0  0  0  0
  -29.6552  -27.5500   21.7337 H   0  0  0  0  0  0
  -30.9053  -26.5427   22.4226 H   0  0  0  0  0  0
  -31.2056  -17.4256   21.3076 H   0  0  0  0  0  0
  -30.9480  -17.3517   19.6217 H   0  0  0  0  0  0
  -28.8882  -23.4664   23.0285 H   0  0  0  0  0  0
  -30.4692  -23.9200   22.4680 H   0  0  0  0  0  0
  -29.8312  -25.1199   20.3084 H   0  0  0  0  0  0
  -27.9839  -25.6902   22.6144 H   0  0  0  0  0  0
  -30.0527  -22.9702   20.2043 H   0  0  0  0  0  0
  -28.8973  -15.7899   20.9370 H   0  0  0  0  0  0
  1 25  1  0  0  0
  1 30  2  0  0  0
  1 84  1  0  0  0
  2  3  1  0  0  0
  2 25  1  0  0  0
  2 87  1  0  0  0
  2 88  1  0  0  0
  3  4  1  0  0  0
  3 89  1  0  0  0
  3 90  1  0  0  0
  4  5  1  0  0  0
  4 91  1  0  0  0
  4 92  1  0  0  0
  5  6  1  0  0  0
  5 26  1  0  0  0
  5 93  1  0  0  0
  6 25  1  0  0  0
  6 94  1  0  0  0
  6 95  1  0  0  0
  7  8  2  0  0  0
  7 26  1  0  0  0
  7 29  1  0  0  0
  8  9  1  0  0  0
  8 22  1  0  0  0
  9 10  1  0  0  0
  9 27  2  0  0  0
 10 11  2  0  0  0
 10 15  1  0  0  0
 11 12  1  0  0  0
 11 96  1  0  0  0
 12 13  2  0  0  0
 12 97  1  0  0  0
 13 14  1  0  0  0
 13 31  1  0  0  0
 14 15  2  0  0  0
 14 98  1  0  0  0
 15 99  1  0  0  0
 16 17  2  0  0  0
 16 21  1  0  0  0
 16 31  1  0  0  0
 17 18  1  0  0  0
 17100  1  0  0  0
 18 19  2  0  0  0
 18101  1  0  0  0
 19 20  1  0  0  0
 19 24  1  0  0  0
 20 21  2  0  0  0
 20102  1  0  0  0
 21 23  1  0  0  0
 22 28  1  0  0  0
 22 32  2  0  0  0
 26 27  1  0  0  0
 28103  1  0  0  0
 28104  1  0  0  0
 29105  1  0  0  0
 29106  1  0  0  0
 33 34  1  0  0  0
 33 66  1  0  0  0
 33 70  2  0  0  0
 34 36  1  0  0  0
 34 59  1  0  0  0
 34107  1  0  0  0
 35 44  2  0  0  0
 35 45  1  0  0  0
 35 68  1  0  0  0
 36 56  1  0  0  0
 36108  1  0  0  0
 37 39  1  0  0  0
 37 47  1  0  0  0
 37 66  1  0  0  0
 37109  1  0  0  0
 38 43  2  0  0  0
 38 46  1  0  0  0
 38 47  1  0  0  0
 39 64  1  0  0  0
 39 67  2  0  0  0
 40 52  1  0  0  0
 40 53  2  0  0  0
 40 58  1  0  0  0
 41110  1  0  0  0
 41111  1  0  0  0
 41112  1  0  0  0
 41 48  1  0  0  0
 42 43  1  0  0  0
 42 66  1  0  0  0
 42113  1  0  0  0
 42114  1  0  0  0
 43 44  1  0  0  0
 44115  1  0  0  0
 45 46  2  0  0  0
 45116  1  0  0  0
 46117  1  0  0  0
 47118  1  0  0  0
 47119  1  0  0  0
 48 56  1  0  0  0
 48 65  1  0  0  0
 48120  1  0  0  0
 49 50  1  0  0  0
 49 53  1  0  0  0
 49 64  1  0  0  0
 49121  1  0  0  0
 50 51  1  0  0  0
 50122  1  0  0  0
 50123  1  0  0  0
 51 52  1  0  0  0
 51124  1  0  0  0
 51125  1  0  0  0
 52126  1  0  0  0
 52127  1  0  0  0
 53 54  1  0  0  0
 54 55  2  0  0  0
 54128  1  0  0  0
 55 57  1  0  0  0
 55129  1  0  0  0
 56 69  2  0  0  0
 57 58  2  0  0  0
 57130  1  0  0  0
 58131  1  0  0  0
 59 60  1  0  0  0
 59 61  1  0  0  0
 59 62  1  0  0  0
 60132  1  0  0  0
 60133  1  0  0  0
 60134  1  0  0  0
 61135  1  0  0  0
 61136  1  0  0  0
 61137  1  0  0  0
 62138  1  0  0  0
 62139  1  0  0  0
 62140  1  0  0  0
 63 65  1  0  0  0
 63141  1  0  0  0
 63142  1  0  0  0
 63143  1  0  0  0
 64144  1  0  0  0
 65145  1  0  0  0
 68 81  1  0  0  0
 71 72  1  0  0  0
 71 74  2  0  0  0
 71146  1  0  0  0
 72 73  2  0  0  0
 72 76  1  0  0  0
 73 79  1  0  0  0
 73 86  1  0  0  0
 74 83  1  0  0  0
 74 86  1  0  0  0
 75 81  1  0  0  0
 75 83  1  0  0  0
 75 85  2  0  0  0
 76147  1  0  0  0
 76148  1  0  0  0
 76149  1  0  0  0
 77 80  1  0  0  0
 77150  1  0  0  0
 77151  1  0  0  0
 77152  1  0  0  0
 78153  1  0  0  0
 78154  1  0  0  0
 78155  1  0  0  0
 78 82  1  0  0  0
 79 84  1  0  0  0
 79156  1  0  0  0
 79157  1  0  0  0
 80 82  1  0  0  0
 80158  1  0  0  0
 80159  1  0  0  0
 81 82  1  0  0  0
 81160  1  0  0  0
 82161  1  0  0  0
 83162  1  0  0  0
 84163  1  0  0  0
M  ISO  4   1 100  68 101  81 101  84 100
M  END
> <chiral flag>
0

> <version>
0

> <s_m_source_file>
/data/baiqing/PycharmProjects/Reinvent-master-3.2/result/LINK_invent/BTK/process_docking_weight1_custom_product_contain_oxygen_bond_distance_aromatic_linkinvent_7_9_3/rearranged_h_0187.sdf

> <i_m_source_file_index>
2

> <r_mmod_Potential_Energy-OPLS-2005>
201.872100830078

> <r_mmod_Stretch_Energy-OPLS-2005>
117.955429077148

> <r_mmod_Bend_Energy-OPLS-2005>
232.691131591797

> <r_mmod_Torsional_Energy-OPLS-2005>
254.599578857422

> <r_mmod_Improper_Torsional_Energy-OPLS-2005>
7.02622318267822

> <r_mmod_Van_der_Waal_Energy-OPLS-2005>
108.678970336914

> <r_mmod_Electrostatic_Energy-OPLS-2005>
-378.485656738281

> <r_mmod_Solvation_Energy-OPLS-2005>
-223.500061035156

> <b_mmod_Minimization_Converged-OPLS-2005>
0

> <r_mmod_RMS_Derivative-OPLS-2005>
6.80891799926758

$$$$
2
                    3D
 Structure written by MMmdl.
152160  0  0  1  0            999 V2000
  -30.6180  -14.7236   20.4760 C   0  0  0  0  0  0
  -30.4276  -12.4350   19.4848 C   0  0  0  0  0  0
  -29.5132  -12.5116   18.2424 C   0  0  0  0  0  0
  -28.0366  -12.3391   18.6473 C   0  0  0  0  0  0
  -27.6432  -13.2335   19.8531 C   0  0  2  0  0  0
  -28.6825  -13.1551   20.9905 C   0  0  0  0  0  0
  -25.2517  -13.8205   20.5699 C   0  0  0  0  0  0
  -24.1799  -13.0447   20.9185 C   0  0  0  0  0  0
  -24.6389  -11.6923   20.8733 C   0  0  0  0  0  0
  -23.9067  -10.4298   21.0400 C   0  0  0  0  0  0
  -24.3616   -9.4215   21.9182 C   0  0  0  0  0  0
  -23.6291   -8.2250   22.0757 C   0  0  0  0  0  0
  -22.4276   -8.0283   21.3545 C   0  0  0  0  0  0
  -21.9912   -9.0255   20.4644 C   0  0  0  0  0  0
  -22.7240  -10.2135   20.3051 C   0  0  0  0  0  0
  -21.6855   -6.0737   22.5279 C   0  0  0  0  0  0
  -21.4016   -6.5640   23.8213 C   0  0  0  0  0  0
  -21.3661   -5.6794   24.9174 C   0  0  0  0  0  0
  -21.6043   -4.3055   24.7226 C   0  0  0  0  0  0
  -21.8820   -3.8147   23.4346 C   0  0  0  0  0  0
  -21.9193   -4.6963   22.3403 C   0  0  0  0  0  0
  -22.7822  -13.5225   21.1857 C   0  0  0  0  0  0
  -22.1660   -4.2150   21.0981 F   0  0  0  0  0  0
  -21.5628   -3.4537   25.7737 F   0  0  0  0  0  0
  -29.9938  -13.4958   20.4251 N   0  0  0  0  0  0
  -26.2940  -12.9413   20.3282 N   0  0  0  0  0  0
  -25.9319  -11.6550   20.5738 N   0  0  0  0  0  0
  -22.0475  -12.8206   22.0413 N   0  0  0  0  0  0
  -25.4235  -15.1931   20.4161 N   0  0  0  0  0  0
  -31.7860  -14.7925   20.0839 O   0  0  0  0  0  0
  -21.6640   -6.8879   21.4241 O   0  0  0  0  0  0
  -22.3498  -14.5533   20.6712 O   0  0  0  0  0  0
  -24.6306  -31.8549   23.1989 C   0  0  0  0  0  0
  -25.9136  -32.4747   23.8332 C   0  0  1  0  0  0
  -27.2177  -27.2641   20.1214 C   0  0  0  0  0  0
  -25.5934  -33.8550   24.2252 N   0  0  0  0  0  0
  -23.4261  -30.4784   21.5422 C   0  0  2  0  0  0
  -24.8705  -28.9250   20.1090 C   0  0  0  0  0  0
  -22.7492  -29.4604   22.4914 C   0  0  0  0  0  0
  -18.0285  -28.1390   22.8492 C   0  0  0  0  0  0
  -24.1488  -36.7279   23.2645 C   0  0  0  0  0  0
  -25.9714  -30.7687   21.3773 C   0  0  0  0  0  0
  -26.0411  -29.3921   20.7175 C   0  0  0  0  0  0
  -27.2128  -28.5726   20.7140 C   0  0  0  0  0  0
  -26.0181  -26.8582   19.4936 C   0  0  0  0  0  0
  -24.8642  -27.6664   19.4890 C   0  0  0  0  0  0
  -23.6431  -29.8132   20.1577 C   0  0  0  0  0  0
  -25.4114  -36.3061   24.0326 C   0  0  1  0  0  0
  -20.5890  -28.3703   23.1273 C   0  0  2  0  0  0
  -20.6769  -26.9421   22.5410 C   0  0  0  0  0  0
  -19.5744  -26.6389   21.5216 C   0  0  0  0  0  0
  -18.1924  -26.7935   22.1626 C   0  0  0  0  0  0
  -19.1539  -28.8864   23.2878 C   0  0  0  0  0  0
  -18.9463  -30.1463   23.8898 C   0  0  0  0  0  0
  -17.6462  -30.6595   24.0568 C   0  0  0  0  0  0
  -25.9055  -34.9433   23.5090 C   0  0  0  0  0  0
  -16.5351  -29.9093   23.6336 C   0  0  0  0  0  0
  -16.7272  -28.6507   23.0363 C   0  0  0  0  0  0
  -26.4511  -31.6575   25.0723 C   0  0  0  0  0  0
  -25.3737  -31.3714   26.1447 C   0  0  0  0  0  0
  -27.0389  -30.3002   24.6216 C   0  0  0  0  0  0
  -27.6054  -32.4334   25.7500 C   0  0  0  0  0  0
  -27.5572  -37.1794   24.8469 C   0  0  0  0  0  0
  -21.4199  -29.3048   22.3660 N   0  0  0  0  0  0
  -26.4285  -37.3765   23.9409 N   0  0  0  0  0  0
  -24.6951  -31.0522   22.0957 N   0  0  0  0  0  0
  -23.4194  -28.8139   23.3007 O   0  0  0  0  0  0
  -28.3422  -26.4127   20.2120 O   0  0  0  0  0  0
  -26.5632  -34.8910   22.4662 O   0  0  0  0  0  0
  -23.5458  -32.1367   23.7293 O   0  0  0  0  0  0
  -28.8043  -18.9897   21.5188 C   0  0  0  0  0  0
  -29.5544  -18.4445   20.4910 C   0  0  0  0  0  0
  -29.0381  -20.9965   20.3446 C   0  0  0  0  0  0
  -30.0944  -17.0367   20.2580 C   0  0  0  0  0  0
  -29.4392  -24.0173   21.8228 C   0  0  0  0  0  0
  -29.6938  -25.1141   18.7629 C   0  0  0  0  0  0
  -28.5277  -23.7234   20.6239 C   0  0  1  0  0  0
  -28.4421  -25.0237   19.6468 C   0  0  1  0  0  0
  -28.5414  -20.3948   21.4370 N   0  0  0  0  0  0
  -29.8327  -15.8773   20.8309 N   0  0  0  0  0  0
  -28.9332  -22.3987   20.0052 N   0  0  0  0  0  0
  -29.9025  -19.7725   19.3460 S   0  0  0  0  0  0
  -31.4726  -12.5345   19.1874 H   0  0  0  0  0  0
  -30.3497  -11.4553   19.9592 H   0  0  0  0  0  0
  -29.7944  -11.7465   17.5175 H   0  0  0  0  0  0
  -29.6485  -13.4729   17.7443 H   0  0  0  0  0  0
  -27.8864  -11.2895   18.9023 H   0  0  0  0  0  0
  -27.3838  -12.5413   17.7972 H   0  0  0  0  0  0
  -27.6454  -14.2597   19.4843 H   0  0  0  0  0  0
  -28.7047  -12.1564   21.4292 H   0  0  0  0  0  0
  -28.4157  -13.8371   21.7995 H   0  0  0  0  0  0
  -25.2759   -9.5697   22.4757 H   0  0  0  0  0  0
  -24.0001   -7.4648   22.7482 H   0  0  0  0  0  0
  -21.0844   -8.8770   19.8949 H   0  0  0  0  0  0
  -22.3694  -10.9670   19.6158 H   0  0  0  0  0  0
  -21.2009   -7.6149   23.9716 H   0  0  0  0  0  0
  -21.1480   -6.0522   25.9077 H   0  0  0  0  0  0
  -22.0597   -2.7607   23.2846 H   0  0  0  0  0  0
  -22.4091  -11.9857   22.4782 H   0  0  0  0  0  0
  -21.1096  -13.1228   22.2638 H   0  0  0  0  0  0
  -24.6681  -15.8575   20.5447 H   0  0  0  0  0  0
  -26.2976  -15.6288   20.1479 H   0  0  0  0  0  0
  -26.7196  -32.5397   23.1068 H   0  0  0  0  0  0
  -25.0080  -33.9685   25.0395 H   0  0  0  0  0  0
  -22.7227  -31.3008   21.3972 H   0  0  0  0  0  0
  -23.3749  -35.9614   23.3305 H   0  0  0  0  0  0
  -24.3575  -36.8913   22.2062 H   0  0  0  0  0  0
  -23.7243  -37.6474   23.6683 H   0  0  0  0  0  0
  -26.1099  -31.5299   20.6085 H   0  0  0  0  0  0
  -26.8494  -30.8162   22.0101 H   0  0  0  0  0  0
  -28.1097  -28.9249   21.2046 H   0  0  0  0  0  0
  -25.9167  -25.8941   19.0242 H   0  0  0  0  0  0
  -23.9636  -27.3003   19.0151 H   0  0  0  0  0  0
  -23.7712  -30.5901   19.4031 H   0  0  0  0  0  0
  -22.7608  -29.2488   19.8512 H   0  0  0  0  0  0
  -25.1297  -36.1903   25.0818 H   0  0  0  0  0  0
  -20.9983  -28.3287   24.1393 H   0  0  0  0  0  0
  -20.5674  -26.2314   23.3613 H   0  0  0  0  0  0
  -21.6635  -26.7446   22.1205 H   0  0  0  0  0  0
  -19.6905  -25.6299   21.1245 H   0  0  0  0  0  0
  -19.6677  -27.3199   20.6746 H   0  0  0  0  0  0
  -17.4193  -26.6695   21.4025 H   0  0  0  0  0  0
  -18.0313  -26.0074   22.9018 H   0  0  0  0  0  0
  -19.7939  -30.7281   24.2266 H   0  0  0  0  0  0
  -17.5018  -31.6273   24.5170 H   0  0  0  0  0  0
  -15.5350  -30.2998   23.7663 H   0  0  0  0  0  0
  -15.8668  -28.0826   22.7086 H   0  0  0  0  0  0
  -24.5930  -30.7037   25.7781 H   0  0  0  0  0  0
  -24.8902  -32.2875   26.4848 H   0  0  0  0  0  0
  -25.8062  -30.8919   27.0239 H   0  0  0  0  0  0
  -26.2993  -29.6712   24.1248 H   0  0  0  0  0  0
  -27.4099  -29.7293   25.4739 H   0  0  0  0  0  0
  -27.8848  -30.4293   23.9458 H   0  0  0  0  0  0
  -27.2658  -33.3657   26.2026 H   0  0  0  0  0  0
  -28.3888  -32.6856   25.0338 H   0  0  0  0  0  0
  -28.0698  -31.8493   26.5455 H   0  0  0  0  0  0
  -28.2589  -38.0093   24.7511 H   0  0  0  0  0  0
  -28.1069  -36.2618   24.6307 H   0  0  0  0  0  0
  -27.2289  -37.1459   25.8875 H   0  0  0  0  0  0
  -20.9383  -29.8772   21.6869 H   0  0  0  0  0  0
  -26.0159  -38.2835   24.1421 H   0  0  0  0  0  0
  -28.4339  -18.4518   22.3801 H   0  0  0  0  0  0
  -30.8441  -17.0467   19.4603 H   0  0  0  0  0  0
  -29.1242  -24.9255   22.3376 H   0  0  0  0  0  0
  -30.4761  -24.1538   21.5156 H   0  0  0  0  0  0
  -29.4114  -23.2069   22.5519 H   0  0  0  0  0  0
  -29.8298  -24.2177   18.1590 H   0  0  0  0  0  0
  -30.5931  -25.2563   19.3615 H   0  0  0  0  0  0
  -29.6203  -25.9563   18.0741 H   0  0  0  0  0  0
  -27.5235  -23.5724   21.0245 H   0  0  0  0  0  0
  -27.6314  -24.8284   18.9519 H   0  0  0  0  0  0
  -29.3216  -22.5551   19.0808 H   0  0  0  0  0  0
  1 25  1  0  0  0
  1 30  2  0  0  0
  1 80  1  0  0  0
  2  3  1  0  0  0
  2 25  1  0  0  0
  2 83  1  0  0  0
  2 84  1  0  0  0
  3  4  1  0  0  0
  3 85  1  0  0  0
  3 86  1  0  0  0
  4  5  1  0  0  0
  4 87  1  0  0  0
  4 88  1  0  0  0
  5  6  1  0  0  0
  5 26  1  0  0  0
  5 89  1  0  0  0
  6 25  1  0  0  0
  6 90  1  0  0  0
  6 91  1  0  0  0
  7  8  2  0  0  0
  7 26  1  0  0  0
  7 29  1  0  0  0
  8  9  1  0  0  0
  8 22  1  0  0  0
  9 10  1  0  0  0
  9 27  2  0  0  0
 10 11  2  0  0  0
 10 15  1  0  0  0
 11 12  1  0  0  0
 11 92  1  0  0  0
 12 13  2  0  0  0
 12 93  1  0  0  0
 13 14  1  0  0  0
 13 31  1  0  0  0
 14 15  2  0  0  0
 14 94  1  0  0  0
 15 95  1  0  0  0
 16 17  2  0  0  0
 16 21  1  0  0  0
 16 31  1  0  0  0
 17 18  1  0  0  0
 17 96  1  0  0  0
 18 19  2  0  0  0
 18 97  1  0  0  0
 19 20  1  0  0  0
 19 24  1  0  0  0
 20 21  2  0  0  0
 20 98  1  0  0  0
 21 23  1  0  0  0
 22 28  1  0  0  0
 22 32  2  0  0  0
 26 27  1  0  0  0
 28 99  1  0  0  0
 28100  1  0  0  0
 29101  1  0  0  0
 29102  1  0  0  0
 33 34  1  0  0  0
 33 66  1  0  0  0
 33 70  2  0  0  0
 34 36  1  0  0  0
 34 59  1  0  0  0
 34103  1  0  0  0
 35 44  2  0  0  0
 35 45  1  0  0  0
 35 68  1  0  0  0
 36 56  1  0  0  0
 36104  1  0  0  0
 37 39  1  0  0  0
 37 47  1  0  0  0
 37 66  1  0  0  0
 37105  1  0  0  0
 38 43  2  0  0  0
 38 46  1  0  0  0
 38 47  1  0  0  0
 39 64  1  0  0  0
 39 67  2  0  0  0
 40 52  1  0  0  0
 40 53  2  0  0  0
 40 58  1  0  0  0
 41106  1  0  0  0
 41107  1  0  0  0
 41108  1  0  0  0
 41 48  1  0  0  0
 42 43  1  0  0  0
 42 66  1  0  0  0
 42109  1  0  0  0
 42110  1  0  0  0
 43 44  1  0  0  0
 44111  1  0  0  0
 45 46  2  0  0  0
 45112  1  0  0  0
 46113  1  0  0  0
 47114  1  0  0  0
 47115  1  0  0  0
 48 56  1  0  0  0
 48 65  1  0  0  0
 48116  1  0  0  0
 49 50  1  0  0  0
 49 53  1  0  0  0
 49 64  1  0  0  0
 49117  1  0  0  0
 50 51  1  0  0  0
 50118  1  0  0  0
 50119  1  0  0  0
 51 52  1  0  0  0
 51120  1  0  0  0
 51121  1  0  0  0
 52122  1  0  0  0
 52123  1  0  0  0
 53 54  1  0  0  0
 54 55  2  0  0  0
 54124  1  0  0  0
 55 57  1  0  0  0
 55125  1  0  0  0
 56 69  2  0  0  0
 57 58  2  0  0  0
 57126  1  0  0  0
 58127  1  0  0  0
 59 60  1  0  0  0
 59 61  1  0  0  0
 59 62  1  0  0  0
 60128  1  0  0  0
 60129  1  0  0  0
 60130  1  0  0  0
 61131  1  0  0  0
 61132  1  0  0  0
 61133  1  0  0  0
 62134  1  0  0  0
 62135  1  0  0  0
 62136  1  0  0  0
 63 65  1  0  0  0
 63137  1  0  0  0
 63138  1  0  0  0
 63139  1  0  0  0
 64140  1  0  0  0
 65141  1  0  0  0
 68 78  1  0  0  0
 71 72  2  0  0  0
 71 79  1  0  0  0
 71142  1  0  0  0
 72 74  1  0  0  0
 72 82  1  0  0  0
 73 79  2  0  0  0
 73 81  1  0  0  0
 73 82  1  0  0  0
 74 80  2  0  0  0
 74143  1  0  0  0
 75144  1  0  0  0
 75145  1  0  0  0
 75146  1  0  0  0
 75 77  1  0  0  0
 76147  1  0  0  0
 76148  1  0  0  0
 76149  1  0  0  0
 76 78  1  0  0  0
 77 78  1  0  0  0
 77 81  1  0  0  0
 77150  1  0  0  0
 78151  1  0  0  0
 81152  1  0  0  0
M  ISO  4   1 100  68 101  78 101  80 100
M  END
> <chiral flag>
0

> <version>
0

> <s_m_source_file>
/data/baiqing/PycharmProjects/Reinvent-master-3.2/result/LINK_invent/BTK/process_docking_weight1_custom_product_contain_oxygen_bond_distance_aromatic_linkinvent_7_9_3/rearranged_h_0187.sdf

> <i_m_source_file_index>
3

> <r_mmod_Potential_Energy-OPLS-2005>
8.42271327972412

> <r_mmod_Stretch_Energy-OPLS-2005>
111.145706176758

> <r_mmod_Bend_Energy-OPLS-2005>
167.388031005859

> <r_mmod_Torsional_Energy-OPLS-2005>
166.705978393555

> <r_mmod_Improper_Torsional_Energy-OPLS-2005>
3.48786354064941

> <r_mmod_Van_der_Waal_Energy-OPLS-2005>
123.466491699219

> <r_mmod_Electrostatic_Energy-OPLS-2005>
-439.893493652344

> <r_mmod_Solvation_Energy-OPLS-2005>
-199.338989257812

> <b_mmod_Minimization_Converged-OPLS-2005>
0

> <r_mmod_RMS_Derivative-OPLS-2005>
0.682074964046478

$$$$
3
                    3D
 Structure written by MMmdl.
150158  0  0  1  0            999 V2000
  -30.5038  -14.9785   20.4098 C   0  0  0  0  0  0
  -30.4420  -12.5993   19.5121 C   0  0  0  0  0  0
  -29.5310  -12.5349   18.2625 C   0  0  0  0  0  0
  -28.0593  -12.3214   18.6682 C   0  0  0  0  0  0
  -27.6287  -13.2496   19.8359 C   0  0  2  0  0  0
  -28.6667  -13.2711   20.9786 C   0  0  0  0  0  0
  -25.2453  -13.8211   20.5668 C   0  0  0  0  0  0
  -24.1771  -13.0446   20.9213 C   0  0  0  0  0  0
  -24.6384  -11.6933   20.8744 C   0  0  0  0  0  0
  -23.9071  -10.4299   21.0377 C   0  0  0  0  0  0
  -24.3623   -9.4217   21.9148 C   0  0  0  0  0  0
  -23.6303   -8.2253   22.0731 C   0  0  0  0  0  0
  -22.4285   -8.0275   21.3536 C   0  0  0  0  0  0
  -21.9912   -9.0245   20.4642 C   0  0  0  0  0  0
  -22.7240  -10.2125   20.3041 C   0  0  0  0  0  0
  -21.6864   -6.0737   22.5273 C   0  0  0  0  0  0
  -21.4024   -6.5636   23.8216 C   0  0  0  0  0  0
  -21.3661   -5.6785   24.9180 C   0  0  0  0  0  0
  -21.6048   -4.3046   24.7213 C   0  0  0  0  0  0
  -21.8828   -3.8139   23.4336 C   0  0  0  0  0  0
  -21.9190   -4.6967   22.3401 C   0  0  0  0  0  0
  -22.7794  -13.5218   21.1861 C   0  0  0  0  0  0
  -22.1655   -4.2150   21.0983 F   0  0  0  0  0  0
  -21.5622   -3.4533   25.7724 F   0  0  0  0  0  0
  -29.9411  -13.6990   20.3896 N   0  0  0  0  0  0
  -26.2872  -12.9441   20.3203 N   0  0  0  0  0  0
  -25.9314  -11.6584   20.5695 N   0  0  0  0  0  0
  -22.0450  -12.8235   22.0453 N   0  0  0  0  0  0
  -25.4102  -15.1944   20.4096 N   0  0  0  0  0  0
  -31.7064  -15.0495   20.1222 O   0  0  0  0  0  0
  -21.6653   -6.8874   21.4232 O   0  0  0  0  0  0
  -22.3495  -14.5508   20.6675 O   0  0  0  0  0  0
  -24.6494  -31.8403   23.1837 C   0  0  0  0  0  0
  -25.9250  -32.4673   23.8243 C   0  0  1  0  0  0
  -27.2139  -27.0857   20.1596 C   0  0  0  0  0  0
  -25.5975  -33.8481   24.2166 N   0  0  0  0  0  0
  -23.4554  -30.4617   21.5292 C   0  0  2  0  0  0
  -24.9044  -28.8788   20.1102 C   0  0  0  0  0  0
  -22.7599  -29.4543   22.4812 C   0  0  0  0  0  0
  -18.0320  -28.1402   22.8465 C   0  0  0  0  0  0
  -24.1498  -36.7241   23.2639 C   0  0  0  0  0  0
  -26.0165  -30.6979   21.3900 C   0  0  0  0  0  0
  -26.0860  -29.3049   20.7319 C   0  0  0  0  0  0
  -27.2410  -28.4275   20.7355 C   0  0  0  0  0  0
  -26.0034  -26.7736   19.5020 C   0  0  0  0  0  0
  -24.8798  -27.6286   19.4762 C   0  0  0  0  0  0
  -23.6864  -29.7915   20.1487 C   0  0  0  0  0  0
  -25.4131  -36.3021   24.0316 C   0  0  1  0  0  0
  -20.5930  -28.3743   23.1199 C   0  0  2  0  0  0
  -20.6810  -26.9437   22.5391 C   0  0  0  0  0  0
  -19.5788  -26.6372   21.5208 C   0  0  0  0  0  0
  -18.1967  -26.7933   22.1615 C   0  0  0  0  0  0
  -19.1574  -28.8889   23.2825 C   0  0  0  0  0  0
  -18.9489  -30.1475   23.8868 C   0  0  0  0  0  0
  -17.6482  -30.6595   24.0557 C   0  0  0  0  0  0
  -25.9091  -34.9394   23.5054 C   0  0  0  0  0  0
  -16.5372  -29.9090   23.6325 C   0  0  0  0  0  0
  -16.7300  -28.6503   23.0353 C   0  0  0  0  0  0
  -26.4548  -31.6540   25.0693 C   0  0  0  0  0  0
  -25.3718  -31.3749   26.1375 C   0  0  0  0  0  0
  -27.0401  -30.2918   24.6313 C   0  0  0  0  0  0
  -27.6092  -32.4286   25.7484 C   0  0  0  0  0  0
  -27.5580  -37.1785   24.8465 C   0  0  0  0  0  0
  -21.4283  -29.3063   22.3566 N   0  0  0  0  0  0
  -26.4289  -37.3741   23.9420 N   0  0  0  0  0  0
  -24.7282  -31.0226   22.0892 N   0  0  0  0  0  0
  -23.4221  -28.8099   23.2983 O   0  0  0  0  0  0
  -28.2509  -26.0677   20.2198 O   0  0  0  0  0  0
  -26.5674  -34.8907   22.4629 O   0  0  0  0  0  0
  -23.5602  -32.1292   23.7031 O   0  0  0  0  0  0
  -30.6435  -20.0283   19.7736 C   0  0  0  0  0  0
  -29.3550  -20.1122   20.2562 C   0  0  0  0  0  0
  -29.8761  -17.6546   20.3611 C   0  0  0  0  0  0
  -29.9469  -23.3322   21.4264 C   0  0  0  0  0  0
  -27.9394  -24.5163   20.1791 C   0  0  0  0  0  0
  -28.4372  -21.5036   20.3311 C   0  0  1  0  0  0
  -28.9605  -23.1356   20.2680 C   0  0  2  0  0  0
  -28.9572  -18.7063   20.5599 N   0  0  0  0  0  0
  -29.6881  -16.1411   20.5803 N   0  0  0  0  0  0
  -27.5180  -21.3395   19.2682 O   0  0  0  0  0  0
  -31.3528  -18.3918   19.7368 S   0  0  0  0  0  0
  -31.4789  -12.7587   19.2115 H   0  0  0  0  0  0
  -30.4320  -11.6460   20.0441 H   0  0  0  0  0  0
  -29.8600  -11.7354   17.5978 H   0  0  0  0  0  0
  -29.6225  -13.4619   17.6947 H   0  0  0  0  0  0
  -27.9521  -11.2780   18.9676 H   0  0  0  0  0  0
  -27.4031  -12.4552   17.8058 H   0  0  0  0  0  0
  -27.5897  -14.2524   19.4101 H   0  0  0  0  0  0
  -28.7595  -12.2873   21.4397 H   0  0  0  0  0  0
  -28.3586  -13.9563   21.7693 H   0  0  0  0  0  0
  -25.2757   -9.5702   22.4727 H   0  0  0  0  0  0
  -24.0014   -7.4655   22.7462 H   0  0  0  0  0  0
  -21.0823   -8.8762   19.8973 H   0  0  0  0  0  0
  -22.3660  -10.9659   19.6163 H   0  0  0  0  0  0
  -21.2021   -7.6146   23.9722 H   0  0  0  0  0  0
  -21.1480   -6.0513   25.9087 H   0  0  0  0  0  0
  -22.0598   -2.7599   23.2839 H   0  0  0  0  0  0
  -22.4053  -11.9921   22.4899 H   0  0  0  0  0  0
  -21.1053  -13.1246   22.2613 H   0  0  0  0  0  0
  -24.6342  -15.8388   20.5102 H   0  0  0  0  0  0
  -26.2459  -15.6374   20.0491 H   0  0  0  0  0  0
  -26.7317  -32.5275   23.0972 H   0  0  0  0  0  0
  -25.0133  -33.9591   25.0320 H   0  0  0  0  0  0
  -22.7600  -31.2890   21.3713 H   0  0  0  0  0  0
  -23.3780  -35.9552   23.3280 H   0  0  0  0  0  0
  -24.3582  -36.8896   22.2057 H   0  0  0  0  0  0
  -23.7228  -37.6425   23.6682 H   0  0  0  0  0  0
  -26.1808  -31.4508   20.6172 H   0  0  0  0  0  0
  -26.8831  -30.7474   22.0377 H   0  0  0  0  0  0
  -28.1380  -28.7491   21.2466 H   0  0  0  0  0  0
  -25.8872  -25.8202   19.0130 H   0  0  0  0  0  0
  -23.9827  -27.2970   18.9724 H   0  0  0  0  0  0
  -23.8345  -30.5664   19.3954 H   0  0  0  0  0  0
  -22.7991  -29.2417   19.8302 H   0  0  0  0  0  0
  -25.1323  -36.1849   25.0809 H   0  0  0  0  0  0
  -21.0030  -28.3353   24.1319 H   0  0  0  0  0  0
  -20.5703  -26.2369   23.3631 H   0  0  0  0  0  0
  -21.6680  -26.7454   22.1193 H   0  0  0  0  0  0
  -19.6962  -25.6272   21.1275 H   0  0  0  0  0  0
  -19.6724  -27.3149   20.6718 H   0  0  0  0  0  0
  -17.4237  -26.6650   21.4025 H   0  0  0  0  0  0
  -18.0381  -26.0085   22.9022 H   0  0  0  0  0  0
  -19.7965  -30.7290   24.2229 H   0  0  0  0  0  0
  -17.5045  -31.6276   24.5160 H   0  0  0  0  0  0
  -15.5374  -30.2995   23.7671 H   0  0  0  0  0  0
  -15.8691  -28.0825   22.7085 H   0  0  0  0  0  0
  -24.5915  -30.7080   25.7693 H   0  0  0  0  0  0
  -24.8882  -32.2929   26.4718 H   0  0  0  0  0  0
  -25.7977  -30.8974   27.0205 H   0  0  0  0  0  0
  -26.3009  -29.6632   24.1330 H   0  0  0  0  0  0
  -27.3998  -29.7241   25.4909 H   0  0  0  0  0  0
  -27.8937  -30.4139   23.9641 H   0  0  0  0  0  0
  -27.2716  -33.3627   26.1993 H   0  0  0  0  0  0
  -28.3941  -32.6771   25.0322 H   0  0  0  0  0  0
  -28.0705  -31.8430   26.5451 H   0  0  0  0  0  0
  -28.2592  -38.0089   24.7522 H   0  0  0  0  0  0
  -28.1080  -36.2620   24.6276 H   0  0  0  0  0  0
  -27.2299  -37.1411   25.8867 H   0  0  0  0  0  0
  -20.9496  -29.8770   21.6731 H   0  0  0  0  0  0
  -26.0155  -38.2817   24.1410 H   0  0  0  0  0  0
  -31.2410  -20.8563   19.4158 H   0  0  0  0  0  0
  -29.4257  -23.3589   22.3820 H   0  0  0  0  0  0
  -30.5104  -24.2589   21.3218 H   0  0  0  0  0  0
  -30.6630  -22.5103   21.4706 H   0  0  0  0  0  0
  -27.1806  -24.3686   20.9479 H   0  0  0  0  0  0
  -27.4121  -24.3670   19.2387 H   0  0  0  0  0  0
  -27.8426  -21.4361   21.2442 H   0  0  0  0  0  0
  -29.5604  -23.1917   19.3596 H   0  0  0  0  0  0
  -28.7474  -15.9005   20.8486 H   0  0  0  0  0  0
  -28.0321  -21.1967   18.4798 H   0  0  0  0  0  0
  1 25  1  0  0  0
  1 30  2  0  0  0
  1 79  1  0  0  0
  2  3  1  0  0  0
  2 25  1  0  0  0
  2 82  1  0  0  0
  2 83  1  0  0  0
  3  4  1  0  0  0
  3 84  1  0  0  0
  3 85  1  0  0  0
  4  5  1  0  0  0
  4 86  1  0  0  0
  4 87  1  0  0  0
  5  6  1  0  0  0
  5 26  1  0  0  0
  5 88  1  0  0  0
  6 25  1  0  0  0
  6 89  1  0  0  0
  6 90  1  0  0  0
  7  8  2  0  0  0
  7 26  1  0  0  0
  7 29  1  0  0  0
  8  9  1  0  0  0
  8 22  1  0  0  0
  9 10  1  0  0  0
  9 27  2  0  0  0
 10 11  2  0  0  0
 10 15  1  0  0  0
 11 12  1  0  0  0
 11 91  1  0  0  0
 12 13  2  0  0  0
 12 92  1  0  0  0
 13 14  1  0  0  0
 13 31  1  0  0  0
 14 15  2  0  0  0
 14 93  1  0  0  0
 15 94  1  0  0  0
 16 17  2  0  0  0
 16 21  1  0  0  0
 16 31  1  0  0  0
 17 18  1  0  0  0
 17 95  1  0  0  0
 18 19  2  0  0  0
 18 96  1  0  0  0
 19 20  1  0  0  0
 19 24  1  0  0  0
 20 21  2  0  0  0
 20 97  1  0  0  0
 21 23  1  0  0  0
 22 28  1  0  0  0
 22 32  2  0  0  0
 26 27  1  0  0  0
 28 98  1  0  0  0
 28 99  1  0  0  0
 29100  1  0  0  0
 29101  1  0  0  0
 33 34  1  0  0  0
 33 66  1  0  0  0
 33 70  2  0  0  0
 34 36  1  0  0  0
 34 59  1  0  0  0
 34102  1  0  0  0
 35 44  2  0  0  0
 35 45  1  0  0  0
 35 68  1  0  0  0
 36 56  1  0  0  0
 36103  1  0  0  0
 37 39  1  0  0  0
 37 47  1  0  0  0
 37 66  1  0  0  0
 37104  1  0  0  0
 38 43  2  0  0  0
 38 46  1  0  0  0
 38 47  1  0  0  0
 39 64  1  0  0  0
 39 67  2  0  0  0
 40 52  1  0  0  0
 40 53  2  0  0  0
 40 58  1  0  0  0
 41105  1  0  0  0
 41106  1  0  0  0
 41107  1  0  0  0
 41 48  1  0  0  0
 42 43  1  0  0  0
 42 66  1  0  0  0
 42108  1  0  0  0
 42109  1  0  0  0
 43 44  1  0  0  0
 44110  1  0  0  0
 45 46  2  0  0  0
 45111  1  0  0  0
 46112  1  0  0  0
 47113  1  0  0  0
 47114  1  0  0  0
 48 56  1  0  0  0
 48 65  1  0  0  0
 48115  1  0  0  0
 49 50  1  0  0  0
 49 53  1  0  0  0
 49 64  1  0  0  0
 49116  1  0  0  0
 50 51  1  0  0  0
 50117  1  0  0  0
 50118  1  0  0  0
 51 52  1  0  0  0
 51119  1  0  0  0
 51120  1  0  0  0
 52121  1  0  0  0
 52122  1  0  0  0
 53 54  1  0  0  0
 54 55  2  0  0  0
 54123  1  0  0  0
 55 57  1  0  0  0
 55124  1  0  0  0
 56 69  2  0  0  0
 57 58  2  0  0  0
 57125  1  0  0  0
 58126  1  0  0  0
 59 60  1  0  0  0
 59 61  1  0  0  0
 59 62  1  0  0  0
 60127  1  0  0  0
 60128  1  0  0  0
 60129  1  0  0  0
 61130  1  0  0  0
 61131  1  0  0  0
 61132  1  0  0  0
 62133  1  0  0  0
 62134  1  0  0  0
 62135  1  0  0  0
 63 65  1  0  0  0
 63136  1  0  0  0
 63137  1  0  0  0
 63138  1  0  0  0
 64139  1  0  0  0
 65140  1  0  0  0
 68 75  1  0  0  0
 71 72  2  0  0  0
 71 81  1  0  0  0
 71141  1  0  0  0
 72 76  1  0  0  0
 72 78  1  0  0  0
 73 78  2  0  0  0
 73 79  1  0  0  0
 73 81  1  0  0  0
 74142  1  0  0  0
 74143  1  0  0  0
 74144  1  0  0  0
 74 77  1  0  0  0
 75 77  1  0  0  0
 75145  1  0  0  0
 75146  1  0  0  0
 76 77  1  0  0  0
 76 80  1  0  0  0
 76147  1  0  0  0
 77148  1  0  0  0
 79149  1  0  0  0
 80150  1  0  0  0
M  ISO  4   1 100  68 101  75 101  79 100
M  END
> <chiral flag>
0

> <version>
0

> <s_m_source_file>
/data/baiqing/PycharmProjects/Reinvent-master-3.2/result/LINK_invent/BTK/process_docking_weight1_custom_product_contain_oxygen_bond_distance_aromatic_linkinvent_7_9_3/rearranged_h_0187.sdf

> <i_m_source_file_index>
4

> <r_mmod_Potential_Energy-OPLS-2005>
454.296630859375

> <r_mmod_Stretch_Energy-OPLS-2005>
304.371520996094

> <r_mmod_Bend_Energy-OPLS-2005>
269.138458251953

> <r_mmod_Torsional_Energy-OPLS-2005>
216.681686401367

> <r_mmod_Improper_Torsional_Energy-OPLS-2005>
4.11070346832275

> <r_mmod_Van_der_Waal_Energy-OPLS-2005>
106.664520263672

> <r_mmod_Electrostatic_Energy-OPLS-2005>
-438.803497314453

> <r_mmod_Solvation_Energy-OPLS-2005>
-233.374237060547

> <b_mmod_Minimization_Converged-OPLS-2005>
0

> <r_mmod_RMS_Derivative-OPLS-2005>
3.05278062820435

$$$$
4
                    3D
 Structure written by MMmdl.
162170  0  0  1  0            999 V2000
  -30.6784  -14.5265   20.5979 C   0  0  0  0  0  0
  -30.4436  -12.3448   19.4761 C   0  0  0  0  0  0
  -29.5352  -12.5148   18.2398 C   0  0  0  0  0  0
  -28.0468  -12.3709   18.6219 C   0  0  0  0  0  0
  -27.6656  -13.2094   19.8735 C   0  0  2  0  0  0
  -28.6908  -13.0150   21.0128 C   0  0  0  0  0  0
  -25.2608  -13.8137   20.5626 C   0  0  0  0  0  0
  -24.1882  -13.0432   20.9139 C   0  0  0  0  0  0
  -24.6421  -11.6903   20.8671 C   0  0  0  0  0  0
  -23.9087  -10.4299   21.0355 C   0  0  0  0  0  0
  -24.3641   -9.4228   21.9150 C   0  0  0  0  0  0
  -23.6305   -8.2274   22.0751 C   0  0  0  0  0  0
  -22.4279   -8.0292   21.3539 C   0  0  0  0  0  0
  -21.9923   -9.0261   20.4633 C   0  0  0  0  0  0
  -22.7248  -10.2141   20.3004 C   0  0  0  0  0  0
  -21.6860   -6.0737   22.5274 C   0  0  0  0  0  0
  -21.4032   -6.5621   23.8222 C   0  0  0  0  0  0
  -21.3674   -5.6772   24.9179 C   0  0  0  0  0  0
  -21.6052   -4.3029   24.7206 C   0  0  0  0  0  0
  -21.8825   -3.8132   23.4323 C   0  0  0  0  0  0
  -21.9200   -4.6958   22.3394 C   0  0  0  0  0  0
  -22.7896  -13.5234   21.1804 C   0  0  0  0  0  0
  -22.1645   -4.2151   21.0962 F   0  0  0  0  0  0
  -21.5642   -3.4512   25.7714 F   0  0  0  0  0  0
  -30.0284  -13.3306   20.4881 N   0  0  0  0  0  0
  -26.3039  -12.9321   20.3270 N   0  0  0  0  0  0
  -25.9343  -11.6487   20.5668 N   0  0  0  0  0  0
  -22.0487  -12.8286   22.0343 N   0  0  0  0  0  0
  -25.4291  -15.1885   20.4068 N   0  0  0  0  0  0
  -31.7979  -14.7112   20.1058 O   0  0  0  0  0  0
  -21.6641   -6.8894   21.4245 O   0  0  0  0  0  0
  -22.3592  -14.5534   20.6604 O   0  0  0  0  0  0
  -24.6164  -31.8633   23.2065 C   0  0  0  0  0  0
  -25.9039  -32.4794   23.8342 C   0  0  1  0  0  0
  -27.2206  -27.3911   20.1012 C   0  0  0  0  0  0
  -25.5851  -33.8591   24.2224 N   0  0  0  0  0  0
  -23.4033  -30.4827   21.5497 C   0  0  2  0  0  0
  -24.8508  -28.9474   20.1108 C   0  0  0  0  0  0
  -22.7398  -29.4619   22.5015 C   0  0  0  0  0  0
  -18.0253  -28.1370   22.8487 C   0  0  0  0  0  0
  -24.1492  -36.7337   23.2624 C   0  0  0  0  0  0
  -25.9381  -30.8136   21.3697 C   0  0  0  0  0  0
  -26.0143  -29.4486   20.7103 C   0  0  0  0  0  0
  -27.2025  -28.6731   20.7090 C   0  0  0  0  0  0
  -26.0538  -26.9389   19.4496 C   0  0  0  0  0  0
  -24.8664  -27.6944   19.4781 C   0  0  0  0  0  0
  -23.6062  -29.8032   20.1677 C   0  0  0  0  0  0
  -25.4124  -36.3091   24.0293 C   0  0  1  0  0  0
  -20.5849  -28.3633   23.1344 C   0  0  2  0  0  0
  -20.6744  -26.9366   22.5438 C   0  0  0  0  0  0
  -19.5724  -26.6357   21.5229 C   0  0  0  0  0  0
  -18.1902  -26.7912   22.1619 C   0  0  0  0  0  0
  -19.1510  -28.8830   23.2904 C   0  0  0  0  0  0
  -18.9427  -30.1448   23.8907 C   0  0  0  0  0  0
  -17.6439  -30.6589   24.0566 C   0  0  0  0  0  0
  -25.9050  -34.9456   23.5068 C   0  0  0  0  0  0
  -16.5328  -29.9099   23.6321 C   0  0  0  0  0  0
  -16.7250  -28.6510   23.0340 C   0  0  0  0  0  0
  -26.4418  -31.6627   25.0725 C   0  0  0  0  0  0
  -25.3596  -31.3826   26.1408 C   0  0  0  0  0  0
  -27.0201  -30.3008   24.6238 C   0  0  0  0  0  0
  -27.5969  -32.4345   25.7544 C   0  0  0  0  0  0
  -27.5580  -37.1814   24.8426 C   0  0  0  0  0  0
  -21.4127  -29.3013   22.3770 N   0  0  0  0  0  0
  -26.4296  -37.3788   23.9348 N   0  0  0  0  0  0
  -24.6712  -31.0674   22.1006 N   0  0  0  0  0  0
  -23.4171  -28.8142   23.3031 O   0  0  0  0  0  0
  -28.3273  -26.5566   20.1623 O   0  0  0  0  0  0
  -26.5666  -34.8926   22.4661 O   0  0  0  0  0  0
  -23.5356  -32.1399   23.7475 O   0  0  0  0  0  0
  -29.3797  -18.7652   19.1105 C   0  0  0  0  0  0
  -29.2697  -19.0548   20.4630 C   0  0  0  0  0  0
  -29.8505  -16.8356   20.5997 C   0  0  0  0  0  0
  -29.4547  -21.5140   20.8544 C   0  0  0  0  0  0
  -29.9683  -20.6245   17.4319 C   0  0  0  0  0  0
  -27.5420  -20.0584   17.9315 C   0  0  0  0  0  0
  -26.9314  -25.1915   21.8098 C   0  0  0  0  0  0
  -28.7335  -22.7986   21.3350 C   0  0  0  0  0  0
  -28.7087  -24.0341   20.3568 C   0  0  0  0  0  0
  -28.9838  -19.5363   17.8785 C   0  0  0  0  0  0
  -28.2597  -25.3775   21.0375 C   0  0  1  0  0  0
  -29.4606  -17.9239   21.2940 N   0  0  0  0  0  0
  -28.8222  -20.3199   20.9702 N   0  0  0  0  0  0
  -30.0008  -15.5394   21.1863 N   0  0  0  0  0  0
  -30.6219  -21.6059   20.4674 O   0  0  0  0  0  0
  -29.9808  -17.1374   18.8738 S   0  0  0  0  0  0
  -31.4920  -12.4707   19.1996 H   0  0  0  0  0  0
  -30.3672  -11.3364   19.8855 H   0  0  0  0  0  0
  -29.8046  -11.7729   17.4867 H   0  0  0  0  0  0
  -29.7121  -13.4898   17.7793 H   0  0  0  0  0  0
  -27.8624  -11.3120   18.8082 H   0  0  0  0  0  0
  -27.4187  -12.6477   17.7734 H   0  0  0  0  0  0
  -27.7028  -14.2541   19.5671 H   0  0  0  0  0  0
  -28.6726  -11.9828   21.3673 H   0  0  0  0  0  0
  -28.4232  -13.6274   21.8755 H   0  0  0  0  0  0
  -25.2796   -9.5704   22.4730 H   0  0  0  0  0  0
  -24.0004   -7.4673   22.7487 H   0  0  0  0  0  0
  -21.0848   -8.8762   19.8945 H   0  0  0  0  0  0
  -22.3695  -10.9662   19.6098 H   0  0  0  0  0  0
  -21.2024   -7.6129   23.9724 H   0  0  0  0  0  0
  -21.1490   -6.0489   25.9094 H   0  0  0  0  0  0
  -22.0587   -2.7580   23.2802 H   0  0  0  0  0  0
  -22.4036  -11.9979   22.4852 H   0  0  0  0  0  0
  -21.1075  -13.1322   22.2400 H   0  0  0  0  0  0
  -24.6633  -15.8373   20.5542 H   0  0  0  0  0  0
  -26.2728  -15.6368   20.0744 H   0  0  0  0  0  0
  -26.7108  -32.5461   23.1095 H   0  0  0  0  0  0
  -24.9818  -33.9745   25.0240 H   0  0  0  0  0  0
  -22.6965  -31.3023   21.4085 H   0  0  0  0  0  0
  -23.3728  -35.9690   23.3284 H   0  0  0  0  0  0
  -24.3575  -36.8987   22.2035 H   0  0  0  0  0  0
  -23.7294  -37.6550   23.6686 H   0  0  0  0  0  0
  -26.0610  -31.5834   20.6085 H   0  0  0  0  0  0
  -26.8219  -30.8601   21.9943 H   0  0  0  0  0  0
  -28.0904  -29.0395   21.2041 H   0  0  0  0  0  0
  -26.0454  -25.9801   18.9506 H   0  0  0  0  0  0
  -23.9684  -27.3133   19.0110 H   0  0  0  0  0  0
  -23.6826  -30.5626   19.3905 H   0  0  0  0  0  0
  -22.7373  -29.1967   19.9005 H   0  0  0  0  0  0
  -25.1334  -36.1932   25.0796 H   0  0  0  0  0  0
  -20.9937  -28.3166   24.1467 H   0  0  0  0  0  0
  -20.5663  -26.2198   23.3592 H   0  0  0  0  0  0
  -21.6599  -26.7412   22.1197 H   0  0  0  0  0  0
  -19.6864  -25.6267   21.1244 H   0  0  0  0  0  0
  -19.6685  -27.3164   20.6757 H   0  0  0  0  0  0
  -17.4164  -26.6649   21.4042 H   0  0  0  0  0  0
  -18.0316  -26.0083   22.9041 H   0  0  0  0  0  0
  -19.7914  -30.7266   24.2251 H   0  0  0  0  0  0
  -17.4998  -31.6281   24.5141 H   0  0  0  0  0  0
  -15.5335  -30.3005   23.7677 H   0  0  0  0  0  0
  -15.8621  -28.0872   22.7032 H   0  0  0  0  0  0
  -24.5775  -30.7201   25.7686 H   0  0  0  0  0  0
  -24.8788  -32.3031   26.4743 H   0  0  0  0  0  0
  -25.7858  -30.9019   27.0215 H   0  0  0  0  0  0
  -26.2813  -29.6886   24.1070 H   0  0  0  0  0  0
  -27.3558  -29.7199   25.4833 H   0  0  0  0  0  0
  -27.8823  -30.4180   23.9673 H   0  0  0  0  0  0
  -27.2534  -33.3582   26.2213 H   0  0  0  0  0  0
  -28.3789  -32.7009   25.0423 H   0  0  0  0  0  0
  -28.0612  -31.8391   26.5415 H   0  0  0  0  0  0
  -28.2595  -38.0122   24.7495 H   0  0  0  0  0  0
  -28.1097  -36.2657   24.6246 H   0  0  0  0  0  0
  -27.2277  -37.1432   25.8825 H   0  0  0  0  0  0
  -20.9304  -29.8647   21.6917 H   0  0  0  0  0  0
  -26.0180  -38.2853   24.1377 H   0  0  0  0  0  0
  -30.9885  -20.2521   17.3478 H   0  0  0  0  0  0
  -29.9764  -21.4771   18.1044 H   0  0  0  0  0  0
  -29.6773  -21.0106   16.4551 H   0  0  0  0  0  0
  -26.8310  -19.2550   18.1182 H   0  0  0  0  0  0
  -27.2684  -20.5185   16.9830 H   0  0  0  0  0  0
  -27.4051  -20.8064   18.7102 H   0  0  0  0  0  0
  -27.0318  -24.4504   22.6034 H   0  0  0  0  0  0
  -26.1138  -24.8615   21.1690 H   0  0  0  0  0  0
  -26.6240  -26.1130   22.3049 H   0  0  0  0  0  0
  -29.2553  -23.0924   22.2447 H   0  0  0  0  0  0
  -27.7225  -22.5504   21.6515 H   0  0  0  0  0  0
  -28.0480  -23.8023   19.5171 H   0  0  0  0  0  0
  -29.6946  -24.1830   19.9139 H   0  0  0  0  0  0
  -28.9767  -18.8147   17.0563 H   0  0  0  0  0  0
  -28.9907  -25.5842   21.8199 H   0  0  0  0  0  0
  -27.9622  -20.3043   21.4992 H   0  0  0  0  0  0
  -29.2630  -15.2794   21.8200 H   0  0  0  0  0  0
  1 25  1  0  0  0
  1 30  2  0  0  0
  1 84  1  0  0  0
  2  3  1  0  0  0
  2 25  1  0  0  0
  2 87  1  0  0  0
  2 88  1  0  0  0
  3  4  1  0  0  0
  3 89  1  0  0  0
  3 90  1  0  0  0
  4  5  1  0  0  0
  4 91  1  0  0  0
  4 92  1  0  0  0
  5  6  1  0  0  0
  5 26  1  0  0  0
  5 93  1  0  0  0
  6 25  1  0  0  0
  6 94  1  0  0  0
  6 95  1  0  0  0
  7  8  2  0  0  0
  7 26  1  0  0  0
  7 29  1  0  0  0
  8  9  1  0  0  0
  8 22  1  0  0  0
  9 10  1  0  0  0
  9 27  2  0  0  0
 10 11  2  0  0  0
 10 15  1  0  0  0
 11 12  1  0  0  0
 11 96  1  0  0  0
 12 13  2  0  0  0
 12 97  1  0  0  0
 13 14  1  0  0  0
 13 31  1  0  0  0
 14 15  2  0  0  0
 14 98  1  0  0  0
 15 99  1  0  0  0
 16 17  2  0  0  0
 16 21  1  0  0  0
 16 31  1  0  0  0
 17 18  1  0  0  0
 17100  1  0  0  0
 18 19  2  0  0  0
 18101  1  0  0  0
 19 20  1  0  0  0
 19 24  1  0  0  0
 20 21  2  0  0  0
 20102  1  0  0  0
 21 23  1  0  0  0
 22 28  1  0  0  0
 22 32  2  0  0  0
 26 27  1  0  0  0
 28103  1  0  0  0
 28104  1  0  0  0
 29105  1  0  0  0
 29106  1  0  0  0
 33 34  1  0  0  0
 33 66  1  0  0  0
 33 70  2  0  0  0
 34 36  1  0  0  0
 34 59  1  0  0  0
 34107  1  0  0  0
 35 44  2  0  0  0
 35 45  1  0  0  0
 35 68  1  0  0  0
 36 56  1  0  0  0
 36108  1  0  0  0
 37 39  1  0  0  0
 37 47  1  0  0  0
 37 66  1  0  0  0
 37109  1  0  0  0
 38 43  2  0  0  0
 38 46  1  0  0  0
 38 47  1  0  0  0
 39 64  1  0  0  0
 39 67  2  0  0  0
 40 52  1  0  0  0
 40 53  2  0  0  0
 40 58  1  0  0  0
 41110  1  0  0  0
 41111  1  0  0  0
 41112  1  0  0  0
 41 48  1  0  0  0
 42 43  1  0  0  0
 42 66  1  0  0  0
 42113  1  0  0  0
 42114  1  0  0  0
 43 44  1  0  0  0
 44115  1  0  0  0
 45 46  2  0  0  0
 45116  1  0  0  0
 46117  1  0  0  0
 47118  1  0  0  0
 47119  1  0  0  0
 48 56  1  0  0  0
 48 65  1  0  0  0
 48120  1  0  0  0
 49 50  1  0  0  0
 49 53  1  0  0  0
 49 64  1  0  0  0
 49121  1  0  0  0
 50 51  1  0  0  0
 50122  1  0  0  0
 50123  1  0  0  0
 51 52  1  0  0  0
 51124  1  0  0  0
 51125  1  0  0  0
 52126  1  0  0  0
 52127  1  0  0  0
 53 54  1  0  0  0
 54 55  2  0  0  0
 54128  1  0  0  0
 55 57  1  0  0  0
 55129  1  0  0  0
 56 69  2  0  0  0
 57 58  2  0  0  0
 57130  1  0  0  0
 58131  1  0  0  0
 59 60  1  0  0  0
 59 61  1  0  0  0
 59 62  1  0  0  0
 60132  1  0  0  0
 60133  1  0  0  0
 60134  1  0  0  0
 61135  1  0  0  0
 61136  1  0  0  0
 61137  1  0  0  0
 62138  1  0  0  0
 62139  1  0  0  0
 62140  1  0  0  0
 63 65  1  0  0  0
 63141  1  0  0  0
 63142  1  0  0  0
 63143  1  0  0  0
 64144  1  0  0  0
 65145  1  0  0  0
 68 81  1  0  0  0
 71 72  2  0  0  0
 71 80  1  0  0  0
 71 86  1  0  0  0
 72 82  1  0  0  0
 72 83  1  0  0  0
 73 82  2  0  0  0
 73 84  1  0  0  0
 73 86  1  0  0  0
 74 78  1  0  0  0
 74 83  1  0  0  0
 74 85  2  0  0  0
 75146  1  0  0  0
 75147  1  0  0  0
 75148  1  0  0  0
 75 80  1  0  0  0
 76 80  1  0  0  0
 76149  1  0  0  0
 76150  1  0  0  0
 76151  1  0  0  0
 77152  1  0  0  0
 77153  1  0  0  0
 77154  1  0  0  0
 77 81  1  0  0  0
 78 79  1  0  0  0
 78155  1  0  0  0
 78156  1  0  0  0
 79 81  1  0  0  0
 79157  1  0  0  0
 79158  1  0  0  0
 80159  1  0  0  0
 81160  1  0  0  0
 83161  1  0  0  0
 84162  1  0  0  0
M  ISO  4   1 100  68 101  81 101  84 100
M  END
> <chiral flag>
0

> <version>
0

> <s_m_source_file>
/data/baiqing/PycharmProjects/Reinvent-master-3.2/result/LINK_invent/BTK/process_docking_weight1_custom_product_contain_oxygen_bond_distance_aromatic_linkinvent_7_9_3/rearranged_h_0187.sdf

> <i_m_source_file_index>
5

> <r_mmod_Potential_Energy-OPLS-2005>
-113.713371276855

> <r_mmod_Stretch_Energy-OPLS-2005>
49.7035903930664

> <r_mmod_Bend_Energy-OPLS-2005>
117.485931396484

> <r_mmod_Torsional_Energy-OPLS-2005>
275.201843261719

> <r_mmod_Improper_Torsional_Energy-OPLS-2005>
6.70122528076172

> <r_mmod_Van_der_Waal_Energy-OPLS-2005>
124.652534484863

> <r_mmod_Electrostatic_Energy-OPLS-2005>
-480.567077636719

> <r_mmod_Solvation_Energy-OPLS-2005>
-231.510955810547

> <b_mmod_Minimization_Converged-OPLS-2005>
0

> <r_mmod_RMS_Derivative-OPLS-2005>
5.51389265060425

$$$$
5
                    3D
 Structure written by MMmdl.
150158  0  0  1  0            999 V2000
  -30.7317  -14.4771   20.5143 C   0  0  0  0  0  0
  -30.4046  -12.2975   19.4319 C   0  0  0  0  0  0
  -29.4896  -12.4993   18.2087 C   0  0  0  0  0  0
  -28.0134  -12.3584   18.6218 C   0  0  0  0  0  0
  -27.6550  -13.2153   19.8662 C   0  0  2  0  0  0
  -28.6992  -13.0501   20.9935 C   0  0  0  0  0  0
  -25.2548  -13.8161   20.5636 C   0  0  0  0  0  0
  -24.1814  -13.0428   20.9170 C   0  0  0  0  0  0
  -24.6381  -11.6903   20.8730 C   0  0  0  0  0  0
  -23.9050  -10.4283   21.0400 C   0  0  0  0  0  0
  -24.3612   -9.4205   21.9176 C   0  0  0  0  0  0
  -23.6295   -8.2240   22.0750 C   0  0  0  0  0  0
  -22.4275   -8.0275   21.3546 C   0  0  0  0  0  0
  -21.9910   -9.0239   20.4636 C   0  0  0  0  0  0
  -22.7230  -10.2124   20.3042 C   0  0  0  0  0  0
  -21.6857   -6.0725   22.5276 C   0  0  0  0  0  0
  -21.4012   -6.5632   23.8205 C   0  0  0  0  0  0
  -21.3664   -5.6792   24.9171 C   0  0  0  0  0  0
  -21.6049   -4.3054   24.7232 C   0  0  0  0  0  0
  -21.8818   -3.8145   23.4353 C   0  0  0  0  0  0
  -21.9194   -4.6953   22.3405 C   0  0  0  0  0  0
  -22.7845  -13.5233   21.1854 C   0  0  0  0  0  0
  -22.1670   -4.2139   21.0986 F   0  0  0  0  0  0
  -21.5629   -3.4537   25.7744 F   0  0  0  0  0  0
  -30.0304  -13.3158   20.4264 N   0  0  0  0  0  0
  -26.2992  -12.9352   20.3338 N   0  0  0  0  0  0
  -25.9313  -11.6501   20.5758 N   0  0  0  0  0  0
  -22.0518  -12.8194   22.0409 N   0  0  0  0  0  0
  -25.4245  -15.1867   20.3958 N   0  0  0  0  0  0
  -31.8882  -14.5867   20.1006 O   0  0  0  0  0  0
  -21.6649   -6.8868   21.4240 O   0  0  0  0  0  0
  -22.3529  -14.5556   20.6747 O   0  0  0  0  0  0
  -24.6169  -31.8666   23.2107 C   0  0  0  0  0  0
  -25.9054  -32.4821   23.8406 C   0  0  1  0  0  0
  -27.2218  -27.4151   20.1031 C   0  0  0  0  0  0
  -25.5895  -33.8622   24.2328 N   0  0  0  0  0  0
  -23.4053  -30.4933   21.5507 C   0  0  2  0  0  0
  -24.8514  -28.9621   20.1095 C   0  0  0  0  0  0
  -22.7420  -29.4670   22.4984 C   0  0  0  0  0  0
  -18.0283  -28.1367   22.8491 C   0  0  0  0  0  0
  -24.1487  -36.7319   23.2641 C   0  0  0  0  0  0
  -25.9372  -30.8290   21.3672 C   0  0  0  0  0  0
  -26.0140  -29.4644   20.7085 C   0  0  0  0  0  0
  -27.2069  -28.7008   20.6977 C   0  0  0  0  0  0
  -26.0472  -26.9399   19.4809 C   0  0  0  0  0  0
  -24.8645  -27.7011   19.4895 C   0  0  0  0  0  0
  -23.6142  -29.8298   20.1636 C   0  0  0  0  0  0
  -25.4110  -36.3114   24.0342 C   0  0  1  0  0  0
  -20.5862  -28.3683   23.1307 C   0  0  2  0  0  0
  -20.6791  -26.9427   22.5397 C   0  0  0  0  0  0
  -19.5779  -26.6365   21.5214 C   0  0  0  0  0  0
  -18.1943  -26.7912   22.1617 C   0  0  0  0  0  0
  -19.1526  -28.8834   23.2903 C   0  0  0  0  0  0
  -18.9449  -30.1441   23.8908 C   0  0  0  0  0  0
  -17.6440  -30.6572   24.0545 C   0  0  0  0  0  0
  -25.9042  -34.9479   23.5138 C   0  0  0  0  0  0
  -16.5342  -29.9061   23.6316 C   0  0  0  0  0  0
  -16.7276  -28.6474   23.0356 C   0  0  0  0  0  0
  -26.4473  -31.6603   25.0735 C   0  0  0  0  0  0
  -25.3736  -31.3700   26.1477 C   0  0  0  0  0  0
  -27.0309  -30.3044   24.6129 C   0  0  0  0  0  0
  -27.6041  -32.4325   25.7497 C   0  0  0  0  0  0
  -27.5584  -37.1816   24.8468 C   0  0  0  0  0  0
  -21.4136  -29.3075   22.3750 N   0  0  0  0  0  0
  -26.4298  -37.3799   23.9403 N   0  0  0  0  0  0
  -24.6714  -31.0781   22.1002 N   0  0  0  0  0  0
  -23.4197  -28.8188   23.3005 O   0  0  0  0  0  0
  -28.3469  -26.6146   20.1380 O   0  0  0  0  0  0
  -26.5604  -34.8934   22.4703 O   0  0  0  0  0  0
  -23.5354  -32.1405   23.7499 O   0  0  0  0  0  0
  -29.6802  -18.0983   20.9777 C   0  0  0  0  0  0
  -28.5715  -18.1193   21.7875 C   0  0  0  0  0  0
  -29.0856  -20.3224   20.8744 C   0  0  0  0  0  0
  -28.6453  -22.7840   20.9259 C   0  0  0  0  0  0
  -30.5912  -16.9343   20.6482 C   0  0  0  0  0  0
  -28.1438  -25.3395   20.8024 C   0  0  0  0  0  0
  -28.8513  -24.1140   20.1514 C   0  0  2  0  0  0
  -29.9441  -19.3780   20.4434 N   0  0  0  0  0  0
  -29.2154  -21.6695   20.4167 N   0  0  0  0  0  0
  -30.0488  -15.5789   20.8681 N   0  0  0  0  0  0
  -28.0004  -22.7801   21.9797 O   0  0  0  0  0  0
  -28.0787  -17.0294   22.4262 F   0  0  0  0  0  0
  -28.3927  -23.9448   18.9080 F   0  0  0  0  0  0
  -27.8368  -19.6878   21.9567 S   0  0  0  0  0  0
  -31.4535  -12.3542   19.1378 H   0  0  0  0  0  0
  -30.2696  -11.2979   19.8493 H   0  0  0  0  0  0
  -29.7287  -11.7750   17.4306 H   0  0  0  0  0  0
  -29.6585  -13.4847   17.7718 H   0  0  0  0  0  0
  -27.8321  -11.3041   18.8327 H   0  0  0  0  0  0
  -27.3618  -12.6167   17.7866 H   0  0  0  0  0  0
  -27.6850  -14.2551   19.5426 H   0  0  0  0  0  0
  -28.6682  -12.0401   21.4034 H   0  0  0  0  0  0
  -28.4738  -13.7181   21.8262 H   0  0  0  0  0  0
  -25.2762   -9.5684   22.4741 H   0  0  0  0  0  0
  -24.0008   -7.4628   22.7464 H   0  0  0  0  0  0
  -21.0849   -8.8748   19.8931 H   0  0  0  0  0  0
  -22.3692  -10.9657   19.6144 H   0  0  0  0  0  0
  -21.2006   -7.6144   23.9701 H   0  0  0  0  0  0
  -21.1493   -6.0528   25.9069 H   0  0  0  0  0  0
  -22.0595   -2.7607   23.2857 H   0  0  0  0  0  0
  -22.4179  -11.9851   22.4752 H   0  0  0  0  0  0
  -21.1117  -13.1159   22.2632 H   0  0  0  0  0  0
  -24.6547  -15.8406   20.4844 H   0  0  0  0  0  0
  -26.2773  -15.6221   20.0702 H   0  0  0  0  0  0
  -26.7127  -32.5530   23.1176 H   0  0  0  0  0  0
  -25.0038  -33.9787   25.0467 H   0  0  0  0  0  0
  -22.6928  -31.3102   21.4157 H   0  0  0  0  0  0
  -23.3748  -35.9652   23.3314 H   0  0  0  0  0  0
  -24.3575  -36.8925   22.2051 H   0  0  0  0  0  0
  -23.7244  -37.6535   23.6642 H   0  0  0  0  0  0
  -26.0565  -31.5969   20.6024 H   0  0  0  0  0  0
  -26.8218  -30.8748   21.9914 H   0  0  0  0  0  0
  -28.1019  -29.0807   21.1715 H   0  0  0  0  0  0
  -26.0414  -25.9701   19.0028 H   0  0  0  0  0  0
  -23.9717  -27.3134   19.0180 H   0  0  0  0  0  0
  -23.7222  -30.6063   19.4065 H   0  0  0  0  0  0
  -22.7367  -29.2508   19.8692 H   0  0  0  0  0  0
  -25.1288  -36.1986   25.0835 H   0  0  0  0  0  0
  -20.9949  -28.3208   24.1423 H   0  0  0  0  0  0
  -21.6657  -26.7523   22.1157 H   0  0  0  0  0  0
  -20.5774  -26.2265   23.3564 H   0  0  0  0  0  0
  -19.6720  -27.3138   20.6720 H   0  0  0  0  0  0
  -19.6983  -25.6267   21.1275 H   0  0  0  0  0  0
  -17.4212  -26.6629   21.4028 H   0  0  0  0  0  0
  -18.0360  -26.0050   22.9006 H   0  0  0  0  0  0
  -19.7917  -30.7261   24.2286 H   0  0  0  0  0  0
  -17.4977  -31.6262   24.5115 H   0  0  0  0  0  0
  -15.5331  -30.2950   23.7629 H   0  0  0  0  0  0
  -15.8684  -28.0778   22.7075 H   0  0  0  0  0  0
  -24.5917  -30.7048   25.7811 H   0  0  0  0  0  0
  -24.8924  -32.2844   26.4942 H   0  0  0  0  0  0
  -25.8085  -30.8858   27.0227 H   0  0  0  0  0  0
  -26.2864  -29.6804   24.1177 H   0  0  0  0  0  0
  -27.4061  -29.7287   25.4599 H   0  0  0  0  0  0
  -27.8701  -30.4365   23.9300 H   0  0  0  0  0  0
  -27.2656  -33.3608   26.2112 H   0  0  0  0  0  0
  -28.3823  -32.6915   25.0308 H   0  0  0  0  0  0
  -28.0736  -31.8431   26.5384 H   0  0  0  0  0  0
  -28.2615  -38.0100   24.7503 H   0  0  0  0  0  0
  -28.1061  -36.2633   24.6301 H   0  0  0  0  0  0
  -27.2297  -37.1487   25.8871 H   0  0  0  0  0  0
  -20.9293  -29.8852   21.7030 H   0  0  0  0  0  0
  -26.0191  -38.2883   24.1395 H   0  0  0  0  0  0
  -31.5161  -17.0314   21.2198 H   0  0  0  0  0  0
  -30.8896  -17.0136   19.6009 H   0  0  0  0  0  0
  -28.5161  -25.4582   21.8208 H   0  0  0  0  0  0
  -27.0858  -25.0999   20.9235 H   0  0  0  0  0  0
  -29.9200  -24.3080   20.0696 H   0  0  0  0  0  0
  -29.7966  -21.8030   19.6011 H   0  0  0  0  0  0
  -29.0929  -15.4931   21.1792 H   0  0  0  0  0  0
  1 25  1  0  0  0
  1 30  2  0  0  0
  1 80  1  0  0  0
  2  3  1  0  0  0
  2 25  1  0  0  0
  2 85  1  0  0  0
  2 86  1  0  0  0
  3  4  1  0  0  0
  3 87  1  0  0  0
  3 88  1  0  0  0
  4  5  1  0  0  0
  4 89  1  0  0  0
  4 90  1  0  0  0
  5  6  1  0  0  0
  5 26  1  0  0  0
  5 91  1  0  0  0
  6 25  1  0  0  0
  6 92  1  0  0  0
  6 93  1  0  0  0
  7  8  2  0  0  0
  7 26  1  0  0  0
  7 29  1  0  0  0
  8  9  1  0  0  0
  8 22  1  0  0  0
  9 10  1  0  0  0
  9 27  2  0  0  0
 10 11  2  0  0  0
 10 15  1  0  0  0
 11 12  1  0  0  0
 11 94  1  0  0  0
 12 13  2  0  0  0
 12 95  1  0  0  0
 13 14  1  0  0  0
 13 31  1  0  0  0
 14 15  2  0  0  0
 14 96  1  0  0  0
 15 97  1  0  0  0
 16 17  2  0  0  0
 16 21  1  0  0  0
 16 31  1  0  0  0
 17 18  1  0  0  0
 17 98  1  0  0  0
 18 19  2  0  0  0
 18 99  1  0  0  0
 19 20  1  0  0  0
 19 24  1  0  0  0
 20 21  2  0  0  0
 20100  1  0  0  0
 21 23  1  0  0  0
 22 28  1  0  0  0
 22 32  2  0  0  0
 26 27  1  0  0  0
 28101  1  0  0  0
 28102  1  0  0  0
 29103  1  0  0  0
 29104  1  0  0  0
 33 34  1  0  0  0
 33 66  1  0  0  0
 33 70  2  0  0  0
 34 36  1  0  0  0
 34 59  1  0  0  0
 34105  1  0  0  0
 35 44  2  0  0  0
 35 45  1  0  0  0
 35 68  1  0  0  0
 36 56  1  0  0  0
 36106  1  0  0  0
 37 39  1  0  0  0
 37 47  1  0  0  0
 37 66  1  0  0  0
 37107  1  0  0  0
 38 43  2  0  0  0
 38 46  1  0  0  0
 38 47  1  0  0  0
 39 64  1  0  0  0
 39 67  2  0  0  0
 40 52  1  0  0  0
 40 53  2  0  0  0
 40 58  1  0  0  0
 41108  1  0  0  0
 41109  1  0  0  0
 41110  1  0  0  0
 41 48  1  0  0  0
 42 43  1  0  0  0
 42 66  1  0  0  0
 42111  1  0  0  0
 42112  1  0  0  0
 43 44  1  0  0  0
 44113  1  0  0  0
 45 46  2  0  0  0
 45114  1  0  0  0
 46115  1  0  0  0
 47116  1  0  0  0
 47117  1  0  0  0
 48 56  1  0  0  0
 48 65  1  0  0  0
 48118  1  0  0  0
 49 50  1  0  0  0
 49 53  1  0  0  0
 49 64  1  0  0  0
 49119  1  0  0  0
 50 51  1  0  0  0
 50120  1  0  0  0
 50121  1  0  0  0
 51 52  1  0  0  0
 51122  1  0  0  0
 51123  1  0  0  0
 52124  1  0  0  0
 52125  1  0  0  0
 53 54  1  0  0  0
 54 55  2  0  0  0
 54126  1  0  0  0
 55 57  1  0  0  0
 55127  1  0  0  0
 56 69  2  0  0  0
 57 58  2  0  0  0
 57128  1  0  0  0
 58129  1  0  0  0
 59 60  1  0  0  0
 59 61  1  0  0  0
 59 62  1  0  0  0
 60130  1  0  0  0
 60131  1  0  0  0
 60132  1  0  0  0
 61133  1  0  0  0
 61134  1  0  0  0
 61135  1  0  0  0
 62136  1  0  0  0
 62137  1  0  0  0
 62138  1  0  0  0
 63 65  1  0  0  0
 63139  1  0  0  0
 63140  1  0  0  0
 63141  1  0  0  0
 64142  1  0  0  0
 65143  1  0  0  0
 68 76  1  0  0  0
 71 72  2  0  0  0
 71 75  1  0  0  0
 71 78  1  0  0  0
 72 82  1  0  0  0
 72 84  1  0  0  0
 73 78  2  0  0  0
 73 79  1  0  0  0
 73 84  1  0  0  0
 74 77  1  0  0  0
 74 79  1  0  0  0
 74 81  2  0  0  0
 75 80  1  0  0  0
 75144  1  0  0  0
 75145  1  0  0  0
 76 77  1  0  0  0
 76146  1  0  0  0
 76147  1  0  0  0
 77 83  1  0  0  0
 77148  1  0  0  0
 79149  1  0  0  0
 80150  1  0  0  0
M  ISO  4   1 100  68 101  76 101  80 100
M  END
> <chiral flag>
0

> <version>
0

> <s_m_source_file>
/data/baiqing/PycharmProjects/Reinvent-master-3.2/result/LINK_invent/BTK/process_docking_weight1_custom_product_contain_oxygen_bond_distance_aromatic_linkinvent_7_9_3/rearranged_h_0187.sdf

> <i_m_source_file_index>
6

> <r_mmod_Potential_Energy-OPLS-2005>
-179.800003051758

> <r_mmod_Stretch_Energy-OPLS-2005>
38.2990226745605

> <r_mmod_Bend_Energy-OPLS-2005>
99.4941177368164

> <r_mmod_Torsional_Energy-OPLS-2005>
218.03791809082

> <r_mmod_Improper_Torsional_Energy-OPLS-2005>
5.144127368927

> <r_mmod_Van_der_Waal_Energy-OPLS-2005>
134.587432861328

> <r_mmod_Electrostatic_Energy-OPLS-2005>
-475.339141845703

> <r_mmod_Solvation_Energy-OPLS-2005>
-220.09602355957

> <b_mmod_Minimization_Converged-OPLS-2005>
0

> <r_mmod_RMS_Derivative-OPLS-2005>
2.18059396743774

$$$$
6
                    3D
 Structure written by MMmdl.
156163  0  0  1  0            999 V2000
  -30.4340  -15.2954   20.3615 C   0  0  0  0  0  0
  -30.4336  -12.8279   19.5339 C   0  0  0  0  0  0
  -29.5365  -12.5857   18.2937 C   0  0  0  0  0  0
  -28.0859  -12.3042   18.7191 C   0  0  0  0  0  0
  -27.6095  -13.2804   19.8232 C   0  0  2  0  0  0
  -28.6399  -13.4708   20.9579 C   0  0  0  0  0  0
  -25.2377  -13.8261   20.5751 C   0  0  0  0  0  0
  -24.1735  -13.0442   20.9261 C   0  0  0  0  0  0
  -24.6397  -11.6941   20.8760 C   0  0  0  0  0  0
  -23.9096  -10.4295   21.0402 C   0  0  0  0  0  0
  -24.3642   -9.4208   21.9181 C   0  0  0  0  0  0
  -23.6311   -8.2246   22.0751 C   0  0  0  0  0  0
  -22.4290   -8.0287   21.3544 C   0  0  0  0  0  0
  -21.9929   -9.0260   20.4643 C   0  0  0  0  0  0
  -22.7265  -10.2136   20.3052 C   0  0  0  0  0  0
  -21.6858   -6.0738   22.5280 C   0  0  0  0  0  0
  -21.4016   -6.5638   23.8214 C   0  0  0  0  0  0
  -21.3661   -5.6791   24.9176 C   0  0  0  0  0  0
  -21.6047   -4.3054   24.7225 C   0  0  0  0  0  0
  -21.8819   -3.8146   23.4345 C   0  0  0  0  0  0
  -21.9195   -4.6964   22.3403 C   0  0  0  0  0  0
  -22.7752  -13.5187   21.1909 C   0  0  0  0  0  0
  -22.1663   -4.2150   21.0981 F   0  0  0  0  0  0
  -21.5630   -3.4536   25.7737 F   0  0  0  0  0  0
  -29.8698  -13.9835   20.3320 N   0  0  0  0  0  0
  -26.2805  -12.9541   20.3219 N   0  0  0  0  0  0
  -25.9336  -11.6641   20.5721 N   0  0  0  0  0  0
  -22.0413  -12.8167   22.0462 N   0  0  0  0  0  0
  -25.4004  -15.1997   20.4189 N   0  0  0  0  0  0
  -31.6515  -15.2739   20.1277 O   0  0  0  0  0  0
  -21.6651   -6.8885   21.4243 O   0  0  0  0  0  0
  -22.3423  -14.5484   20.6746 O   0  0  0  0  0  0
  -24.6651  -31.8209   23.1683 C   0  0  0  0  0  0
  -25.9322  -32.4572   23.8156 C   0  0  1  0  0  0
  -27.2192  -26.8982   20.1773 C   0  0  0  0  0  0
  -25.5979  -33.8389   24.2056 N   0  0  0  0  0  0
  -23.4805  -30.4326   21.5179 C   0  0  2  0  0  0
  -24.9327  -28.8163   20.1086 C   0  0  0  0  0  0
  -22.7674  -29.4432   22.4768 C   0  0  0  0  0  0
  -18.0325  -28.1410   22.8468 C   0  0  0  0  0  0
  -24.1494  -36.7200   23.2648 C   0  0  0  0  0  0
  -26.0512  -30.6173   21.4037 C   0  0  0  0  0  0
  -26.1160  -29.2052   20.7457 C   0  0  0  0  0  0
  -27.2465  -28.2667   20.7576 C   0  0  0  0  0  0
  -26.0020  -26.6723   19.4925 C   0  0  0  0  0  0
  -24.9029  -27.5706   19.4632 C   0  0  0  0  0  0
  -23.7205  -29.7473   20.1441 C   0  0  0  0  0  0
  -25.4137  -36.2960   24.0296 C   0  0  1  0  0  0
  -20.5951  -28.3758   23.1182 C   0  0  2  0  0  0
  -20.6799  -26.9437   22.5402 C   0  0  0  0  0  0
  -19.5772  -26.6375   21.5216 C   0  0  0  0  0  0
  -18.1956  -26.7943   22.1624 C   0  0  0  0  0  0
  -19.1587  -28.8905   23.2811 C   0  0  0  0  0  0
  -18.9497  -30.1494   23.8850 C   0  0  0  0  0  0
  -17.6490  -30.6599   24.0555 C   0  0  0  0  0  0
  -25.9104  -34.9343   23.5000 C   0  0  0  0  0  0
  -16.5380  -29.9086   23.6344 C   0  0  0  0  0  0
  -16.7306  -28.6506   23.0366 C   0  0  0  0  0  0
  -26.4561  -31.6535   25.0701 C   0  0  0  0  0  0
  -25.3676  -31.3800   26.1349 C   0  0  0  0  0  0
  -27.0467  -30.2897   24.6469 C   0  0  0  0  0  0
  -27.6043  -32.4358   25.7508 C   0  0  0  0  0  0
  -27.5569  -37.1757   24.8465 C   0  0  0  0  0  0
  -21.4342  -29.3043   22.3522 N   0  0  0  0  0  0
  -26.4279  -37.3700   23.9406 N   0  0  0  0  0  0
  -24.7538  -30.9849   22.0831 N   0  0  0  0  0  0
  -23.4213  -28.8007   23.3021 O   0  0  0  0  0  0
  -28.2417  -25.8056   20.3196 O   0  0  0  0  0  0
  -26.5721  -34.8885   22.4601 O   0  0  0  0  0  0
  -23.5715  -32.1196   23.6759 O   0  0  0  0  0  0
  -28.9903  -19.6501   20.5623 C   0  0  0  0  0  0
  -31.3002  -18.5246   20.8909 C   0  0  0  0  0  0
  -30.1968  -18.3293   18.6564 C   0  0  0  0  0  0
  -29.9221  -24.3775   19.4259 C   0  0  0  0  0  0
  -27.6551  -24.0057   18.5373 C   0  0  0  0  0  0
  -28.4721  -22.5750   20.6215 C   0  0  0  0  0  0
  -29.9676  -18.2287   20.1758 C   0  0  0  0  0  0
  -28.4494  -24.2126   19.8343 C   0  0  0  0  0  0
  -29.1287  -21.0850   20.1801 N   0  0  0  0  0  0
  -29.6881  -16.5881   20.4497 N   0  0  0  0  0  0
  -28.0488  -19.3985   21.3138 O   0  0  0  0  0  0
  -31.4534  -13.0266   19.2022 H   0  0  0  0  0  0
  -30.5004  -11.9266   20.1457 H   0  0  0  0  0  0
  -29.9215  -11.7565   17.6988 H   0  0  0  0  0  0
  -29.5636  -13.4662   17.6496 H   0  0  0  0  0  0
  -28.0457  -11.2804   19.0933 H   0  0  0  0  0  0
  -27.4192  -12.3428   17.8567 H   0  0  0  0  0  0
  -27.5198  -14.2435   19.3194 H   0  0  0  0  0  0
  -28.8131  -12.5423   21.5039 H   0  0  0  0  0  0
  -28.2725  -14.1959   21.6859 H   0  0  0  0  0  0
  -25.2784   -9.5684   22.4762 H   0  0  0  0  0  0
  -24.0017   -7.4635   22.7468 H   0  0  0  0  0  0
  -21.0861   -8.8781   19.8947 H   0  0  0  0  0  0
  -22.3721  -10.9678   19.6164 H   0  0  0  0  0  0
  -21.2006   -7.6145   23.9717 H   0  0  0  0  0  0
  -21.1486   -6.0521   25.9080 H   0  0  0  0  0  0
  -22.0596   -2.7607   23.2847 H   0  0  0  0  0  0
  -22.4050  -11.9843   22.4862 H   0  0  0  0  0  0
  -21.1017  -13.1165   22.2655 H   0  0  0  0  0  0
  -24.6301  -15.8492   20.5356 H   0  0  0  0  0  0
  -26.2408  -15.6425   20.0719 H   0  0  0  0  0  0
  -26.7394  -32.5099   23.0869 H   0  0  0  0  0  0
  -25.0063  -33.9464   25.0164 H   0  0  0  0  0  0
  -22.7950  -31.2651   21.3457 H   0  0  0  0  0  0
  -23.3770  -35.9517   23.3281 H   0  0  0  0  0  0
  -24.3566  -36.8880   22.2069 H   0  0  0  0  0  0
  -23.7238  -37.6373   23.6727 H   0  0  0  0  0  0
  -26.2374  -31.3580   20.6248 H   0  0  0  0  0  0
  -26.9092  -30.6717   22.0617 H   0  0  0  0  0  0
  -28.1384  -28.5618   21.2925 H   0  0  0  0  0  0
  -25.8336  -25.7266   19.0109 H   0  0  0  0  0  0
  -24.0018  -27.2634   18.9506 H   0  0  0  0  0  0
  -23.8783  -30.5158   19.3864 H   0  0  0  0  0  0
  -22.8293  -29.2040   19.8252 H   0  0  0  0  0  0
  -25.1338  -36.1751   25.0787 H   0  0  0  0  0  0
  -21.0043  -28.3373   24.1303 H   0  0  0  0  0  0
  -20.5681  -26.2380   23.3648 H   0  0  0  0  0  0
  -21.6663  -26.7409   22.1209 H   0  0  0  0  0  0
  -19.6931  -25.6271   21.1283 H   0  0  0  0  0  0
  -19.6711  -27.3155   20.6724 H   0  0  0  0  0  0
  -17.4224  -26.6691   21.4027 H   0  0  0  0  0  0
  -18.0347  -26.0094   22.9030 H   0  0  0  0  0  0
  -19.7972  -30.7322   24.2201 H   0  0  0  0  0  0
  -17.5040  -31.6275   24.5163 H   0  0  0  0  0  0
  -15.5378  -30.2973   23.7691 H   0  0  0  0  0  0
  -15.8708  -28.0803   22.7113 H   0  0  0  0  0  0
  -24.5867  -30.7142   25.7655 H   0  0  0  0  0  0
  -24.8854  -32.3007   26.4643 H   0  0  0  0  0  0
  -25.7892  -30.9048   27.0215 H   0  0  0  0  0  0
  -26.3146  -29.6555   24.1459 H   0  0  0  0  0  0
  -27.3964  -29.7284   25.5145 H   0  0  0  0  0  0
  -27.9101  -30.4068   23.9917 H   0  0  0  0  0  0
  -27.2600  -33.3702   26.1954 H   0  0  0  0  0  0
  -28.3922  -32.6852   25.0389 H   0  0  0  0  0  0
  -28.0637  -31.8576   26.5535 H   0  0  0  0  0  0
  -28.2567  -38.0070   24.7512 H   0  0  0  0  0  0
  -28.1083  -36.2595   24.6295 H   0  0  0  0  0  0
  -27.2283  -37.1404   25.8867 H   0  0  0  0  0  0
  -20.9600  -29.8725   21.6641 H   0  0  0  0  0  0
  -26.0124  -38.2757   24.1413 H   0  0  0  0  0  0
  -31.6175  -19.5601   20.7568 H   0  0  0  0  0  0
  -32.1109  -17.8977   20.5202 H   0  0  0  0  0  0
  -31.2122  -18.3489   21.9635 H   0  0  0  0  0  0
  -30.4802  -19.3364   18.3484 H   0  0  0  0  0  0
  -29.2917  -18.0640   18.1093 H   0  0  0  0  0  0
  -30.9898  -17.6595   18.3226 H   0  0  0  0  0  0
  -30.0650  -25.2257   18.7553 H   0  0  0  0  0  0
  -30.3044  -23.4927   18.9162 H   0  0  0  0  0  0
  -30.5485  -24.5436   20.3028 H   0  0  0  0  0  0
  -27.6934  -24.8806   17.8884 H   0  0  0  0  0  0
  -26.6142  -23.7651   18.7494 H   0  0  0  0  0  0
  -28.0506  -23.1640   17.9673 H   0  0  0  0  0  0
  -28.9266  -22.7527   21.5964 H   0  0  0  0  0  0
  -27.4331  -22.3513   20.8650 H   0  0  0  0  0  0
  -29.8954  -21.2060   19.5315 H   0  0  0  0  0  0
  -28.7137  -16.4262   20.6614 H   0  0  0  0  0  0
  1 25  1  0  0  0
  1 30  2  0  0  0
  1 80  1  0  0  0
  2  3  1  0  0  0
  2 25  1  0  0  0
  2 82  1  0  0  0
  2 83  1  0  0  0
  3  4  1  0  0  0
  3 84  1  0  0  0
  3 85  1  0  0  0
  4  5  1  0  0  0
  4 86  1  0  0  0
  4 87  1  0  0  0
  5  6  1  0  0  0
  5 26  1  0  0  0
  5 88  1  0  0  0
  6 25  1  0  0  0
  6 89  1  0  0  0
  6 90  1  0  0  0
  7  8  2  0  0  0
  7 26  1  0  0  0
  7 29  1  0  0  0
  8  9  1  0  0  0
  8 22  1  0  0  0
  9 10  1  0  0  0
  9 27  2  0  0  0
 10 11  2  0  0  0
 10 15  1  0  0  0
 11 12  1  0  0  0
 11 91  1  0  0  0
 12 13  2  0  0  0
 12 92  1  0  0  0
 13 14  1  0  0  0
 13 31  1  0  0  0
 14 15  2  0  0  0
 14 93  1  0  0  0
 15 94  1  0  0  0
 16 17  2  0  0  0
 16 21  1  0  0  0
 16 31  1  0  0  0
 17 18  1  0  0  0
 17 95  1  0  0  0
 18 19  2  0  0  0
 18 96  1  0  0  0
 19 20  1  0  0  0
 19 24  1  0  0  0
 20 21  2  0  0  0
 20 97  1  0  0  0
 21 23  1  0  0  0
 22 28  1  0  0  0
 22 32  2  0  0  0
 26 27  1  0  0  0
 28 98  1  0  0  0
 28 99  1  0  0  0
 29100  1  0  0  0
 29101  1  0  0  0
 33 34  1  0  0  0
 33 66  1  0  0  0
 33 70  2  0  0  0
 34 36  1  0  0  0
 34 59  1  0  0  0
 34102  1  0  0  0
 35 44  2  0  0  0
 35 45  1  0  0  0
 35 68  1  0  0  0
 36 56  1  0  0  0
 36103  1  0  0  0
 37 39  1  0  0  0
 37 47  1  0  0  0
 37 66  1  0  0  0
 37104  1  0  0  0
 38 43  2  0  0  0
 38 46  1  0  0  0
 38 47  1  0  0  0
 39 64  1  0  0  0
 39 67  2  0  0  0
 40 52  1  0  0  0
 40 53  2  0  0  0
 40 58  1  0  0  0
 41105  1  0  0  0
 41106  1  0  0  0
 41107  1  0  0  0
 41 48  1  0  0  0
 42 43  1  0  0  0
 42 66  1  0  0  0
 42108  1  0  0  0
 42109  1  0  0  0
 43 44  1  0  0  0
 44110  1  0  0  0
 45 46  2  0  0  0
 45111  1  0  0  0
 46112  1  0  0  0
 47113  1  0  0  0
 47114  1  0  0  0
 48 56  1  0  0  0
 48 65  1  0  0  0
 48115  1  0  0  0
 49 50  1  0  0  0
 49 53  1  0  0  0
 49 64  1  0  0  0
 49116  1  0  0  0
 50 51  1  0  0  0
 50117  1  0  0  0
 50118  1  0  0  0
 51 52  1  0  0  0
 51119  1  0  0  0
 51120  1  0  0  0
 52121  1  0  0  0
 52122  1  0  0  0
 53 54  1  0  0  0
 54 55  2  0  0  0
 54123  1  0  0  0
 55 57  1  0  0  0
 55124  1  0  0  0
 56 69  2  0  0  0
 57 58  2  0  0  0
 57125  1  0  0  0
 58126  1  0  0  0
 59 60  1  0  0  0
 59 61  1  0  0  0
 59 62  1  0  0  0
 60127  1  0  0  0
 60128  1  0  0  0
 60129  1  0  0  0
 61130  1  0  0  0
 61131  1  0  0  0
 61132  1  0  0  0
 62133  1  0  0  0
 62134  1  0  0  0
 62135  1  0  0  0
 63 65  1  0  0  0
 63136  1  0  0  0
 63137  1  0  0  0
 63138  1  0  0  0
 64139  1  0  0  0
 65140  1  0  0  0
 68 78  1  0  0  0
 71 77  1  0  0  0
 71 79  1  0  0  0
 71 81  2  0  0  0
 72141  1  0  0  0
 72142  1  0  0  0
 72143  1  0  0  0
 72 77  1  0  0  0
 73 77  1  0  0  0
 73144  1  0  0  0
 73145  1  0  0  0
 73146  1  0  0  0
 74147  1  0  0  0
 74148  1  0  0  0
 74149  1  0  0  0
 74 78  1  0  0  0
 75 78  1  0  0  0
 75150  1  0  0  0
 75151  1  0  0  0
 75152  1  0  0  0
 76 78  1  0  0  0
 76 79  1  0  0  0
 76153  1  0  0  0
 76154  1  0  0  0
 77 80  1  0  0  0
 79155  1  0  0  0
 80156  1  0  0  0
M  ISO  4   1 100  68 101  78 101  80 100
M  END
> <chiral flag>
0

> <version>
0

> <s_m_source_file>
/data/baiqing/PycharmProjects/Reinvent-master-3.2/result/LINK_invent/BTK/process_docking_weight1_custom_product_contain_oxygen_bond_distance_aromatic_linkinvent_7_9_3/rearranged_h_0187.sdf

> <i_m_source_file_index>
7

> <r_mmod_Potential_Energy-OPLS-2005>
1223.69592285156

> <r_mmod_Stretch_Energy-OPLS-2005>
653.659240722656

> <r_mmod_Bend_Energy-OPLS-2005>
493.932952880859

> <r_mmod_Torsional_Energy-OPLS-2005>
226.308502197266

> <r_mmod_Improper_Torsional_Energy-OPLS-2005>
4.45892095565796

> <r_mmod_Van_der_Waal_Energy-OPLS-2005>
109.562377929688

> <r_mmod_Electrostatic_Energy-OPLS-2005>
-526.621398925781

> <r_mmod_Solvation_Energy-OPLS-2005>
-227.119918823242

> <b_mmod_Minimization_Converged-OPLS-2005>
0

> <r_mmod_RMS_Derivative-OPLS-2005>
0.571385383605957

$$$$
8
                    3D
 Structure written by MMmdl.
154162  0  0  1  0            999 V2000
  -30.6198  -14.7144   20.4748 C   0  0  0  0  0  0
  -30.4392  -12.4364   19.4781 C   0  0  0  0  0  0
  -29.5202  -12.5241   18.2395 C   0  0  0  0  0  0
  -28.0436  -12.3544   18.6407 C   0  0  0  0  0  0
  -27.6525  -13.2293   19.8638 C   0  0  2  0  0  0
  -28.6927  -13.1195   21.0001 C   0  0  0  0  0  0
  -25.2571  -13.8179   20.5684 C   0  0  0  0  0  0
  -24.1824  -13.0434   20.9182 C   0  0  0  0  0  0
  -24.6417  -11.6897   20.8688 C   0  0  0  0  0  0
  -23.9080  -10.4264   21.0329 C   0  0  0  0  0  0
  -24.3620   -9.4181   21.9121 C   0  0  0  0  0  0
  -23.6275   -8.2237   22.0730 C   0  0  0  0  0  0
  -22.4263   -8.0271   21.3528 C   0  0  0  0  0  0
  -21.9896   -9.0233   20.4633 C   0  0  0  0  0  0
  -22.7230  -10.2104   20.3004 C   0  0  0  0  0  0
  -21.6887   -6.0709   22.5260 C   0  0  0  0  0  0
  -21.4031   -6.5606   23.8191 C   0  0  0  0  0  0
  -21.3664   -5.6774   24.9162 C   0  0  0  0  0  0
  -21.6042   -4.3036   24.7214 C   0  0  0  0  0  0
  -21.8830   -3.8130   23.4342 C   0  0  0  0  0  0
  -21.9204   -4.6937   22.3395 C   0  0  0  0  0  0
  -22.7844  -13.5213   21.1820 C   0  0  0  0  0  0
  -22.1654   -4.2114   21.0958 F   0  0  0  0  0  0
  -21.5648   -3.4519   25.7731 F   0  0  0  0  0  0
  -30.0039  -13.4797   20.4411 N   0  0  0  0  0  0
  -26.3001  -12.9387   20.3310 N   0  0  0  0  0  0
  -25.9352  -11.6522   20.5740 N   0  0  0  0  0  0
  -22.0502  -12.8203   22.0399 N   0  0  0  0  0  0
  -25.4296  -15.1902   20.4144 N   0  0  0  0  0  0
  -31.7745  -14.8344   20.0517 O   0  0  0  0  0  0
  -21.6663   -6.8839   21.4217 O   0  0  0  0  0  0
  -22.3502  -14.5478   20.6631 O   0  0  0  0  0  0
  -24.6293  -31.8540   23.2021 C   0  0  0  0  0  0
  -25.9132  -32.4719   23.8355 C   0  0  1  0  0  0
  -27.2294  -27.2742   20.1182 C   0  0  0  0  0  0
  -25.5942  -33.8532   24.2265 N   0  0  0  0  0  0
  -23.4281  -30.4762   21.5425 C   0  0  2  0  0  0
  -24.8797  -28.9329   20.1045 C   0  0  0  0  0  0
  -22.7499  -29.4589   22.4910 C   0  0  0  0  0  0
  -18.0286  -28.1394   22.8473 C   0  0  0  0  0  0
  -24.1513  -36.7278   23.2627 C   0  0  0  0  0  0
  -25.9742  -30.7697   21.3830 C   0  0  0  0  0  0
  -26.0496  -29.3977   20.7160 C   0  0  0  0  0  0
  -27.2284  -28.5846   20.7068 C   0  0  0  0  0  0
  -26.0343  -26.8796   19.4726 C   0  0  0  0  0  0
  -24.8781  -27.6831   19.4692 C   0  0  0  0  0  0
  -23.6457  -29.8103   20.1580 C   0  0  0  0  0  0
  -25.4129  -36.3044   24.0316 C   0  0  1  0  0  0
  -20.5888  -28.3705   23.1281 C   0  0  2  0  0  0
  -20.6789  -26.9420   22.5419 C   0  0  0  0  0  0
  -19.5774  -26.6371   21.5228 C   0  0  0  0  0  0
  -18.1942  -26.7935   22.1612 C   0  0  0  0  0  0
  -19.1534  -28.8870   23.2865 C   0  0  0  0  0  0
  -18.9431  -30.1470   23.8873 C   0  0  0  0  0  0
  -17.6425  -30.6575   24.0567 C   0  0  0  0  0  0
  -25.9056  -34.9401   23.5093 C   0  0  0  0  0  0
  -16.5325  -29.9061   23.6330 C   0  0  0  0  0  0
  -16.7266  -28.6498   23.0319 C   0  0  0  0  0  0
  -26.4517  -31.6531   25.0738 C   0  0  0  0  0  0
  -25.3746  -31.3630   26.1446 C   0  0  0  0  0  0
  -27.0330  -30.2921   24.6233 C   0  0  0  0  0  0
  -27.6082  -32.4254   25.7493 C   0  0  0  0  0  0
  -27.5596  -37.1793   24.8444 C   0  0  0  0  0  0
  -21.4199  -29.3053   22.3681 N   0  0  0  0  0  0
  -26.4303  -37.3745   23.9393 N   0  0  0  0  0  0
  -24.6952  -31.0504   22.0981 N   0  0  0  0  0  0
  -23.4213  -28.8093   23.2978 O   0  0  0  0  0  0
  -28.3246  -26.3794   20.1876 O   0  0  0  0  0  0
  -26.5615  -34.8870   22.4651 O   0  0  0  0  0  0
  -23.5450  -32.1349   23.7337 O   0  0  0  0  0  0
  -29.7014  -19.5831   20.2667 C   0  0  0  0  0  0
  -29.8158  -19.2395   18.9380 C   0  0  0  0  0  0
  -29.9212  -17.1911   20.3386 C   0  0  0  0  0  0
  -29.1116  -23.8415   20.5060 C   0  0  0  0  0  0
  -31.4395  -20.7303   22.7840 C   0  0  0  0  0  0
  -29.1153  -22.3071   20.0000 C   0  0  0  0  0  0
  -28.0721  -24.9148   19.9384 C   0  0  0  0  0  0
  -31.1794  -21.3025   21.3729 C   0  0  0  0  0  0
  -29.7253  -21.0580   20.8700 C   0  0  2  0  0  0
  -29.7118  -18.3572   21.0444 N   0  0  0  0  0  0
  -29.9006  -15.8212   20.8881 N   0  0  0  0  0  0
  -29.9222  -24.2174   21.3571 O   0  0  0  0  0  0
  -29.8328  -20.1397   17.9241 F   0  0  0  0  0  0
  -30.0395  -17.5255   18.6102 S   0  0  0  0  0  0
  -31.4833  -12.5546   19.1817 H   0  0  0  0  0  0
  -30.3771  -11.4492   19.9374 H   0  0  0  0  0  0
  -29.8030  -11.7646   17.5100 H   0  0  0  0  0  0
  -29.6608  -13.4909   17.7533 H   0  0  0  0  0  0
  -27.8858  -11.3004   18.8697 H   0  0  0  0  0  0
  -27.3982  -12.5818   17.7919 H   0  0  0  0  0  0
  -27.6648  -14.2640   19.5221 H   0  0  0  0  0  0
  -28.7223  -12.0984   21.3860 H   0  0  0  0  0  0
  -28.4248  -13.7560   21.8449 H   0  0  0  0  0  0
  -25.2772   -9.5690   22.4681 H   0  0  0  0  0  0
  -24.0005   -7.4654   22.7453 H   0  0  0  0  0  0
  -21.0842   -8.8743   19.8939 H   0  0  0  0  0  0
  -22.3668  -10.9636   19.6115 H   0  0  0  0  0  0
  -21.2011   -7.6119   23.9682 H   0  0  0  0  0  0
  -21.1486   -6.0501   25.9060 H   0  0  0  0  0  0
  -22.0611   -2.7588   23.2867 H   0  0  0  0  0  0
  -22.4162  -11.9887   22.4800 H   0  0  0  0  0  0
  -21.1094  -13.1171   22.2552 H   0  0  0  0  0  0
  -24.6753  -15.8577   20.5345 H   0  0  0  0  0  0
  -26.2864  -15.6242   20.0960 H   0  0  0  0  0  0
  -26.7192  -32.5360   23.1086 H   0  0  0  0  0  0
  -25.0127  -33.9684   25.0437 H   0  0  0  0  0  0
  -22.7227  -31.2963   21.3964 H   0  0  0  0  0  0
  -23.3774  -35.9616   23.3261 H   0  0  0  0  0  0
  -24.3616  -36.8935   22.2051 H   0  0  0  0  0  0
  -23.7277  -37.6473   23.6671 H   0  0  0  0  0  0
  -26.1148  -31.5410   20.6245 H   0  0  0  0  0  0
  -26.8509  -30.8109   22.0173 H   0  0  0  0  0  0
  -28.1266  -28.9395   21.1928 H   0  0  0  0  0  0
  -25.9597  -25.9262   18.9680 H   0  0  0  0  0  0
  -23.9846  -27.3271   18.9745 H   0  0  0  0  0  0
  -23.7537  -30.5851   19.3994 H   0  0  0  0  0  0
  -22.7695  -29.2312   19.8626 H   0  0  0  0  0  0
  -25.1319  -36.1900   25.0816 H   0  0  0  0  0  0
  -20.9959  -28.3280   24.1409 H   0  0  0  0  0  0
  -20.5706  -26.2302   23.3617 H   0  0  0  0  0  0
  -21.6652  -26.7452   22.1195 H   0  0  0  0  0  0
  -19.6930  -25.6268   21.1285 H   0  0  0  0  0  0
  -19.6734  -27.3154   20.6746 H   0  0  0  0  0  0
  -17.4222  -26.6687   21.4001 H   0  0  0  0  0  0
  -18.0322  -26.0072   22.9005 H   0  0  0  0  0  0
  -19.7891  -30.7327   24.2217 H   0  0  0  0  0  0
  -17.4945  -31.6244   24.5180 H   0  0  0  0  0  0
  -15.5321  -30.2939   23.7652 H   0  0  0  0  0  0
  -15.8676  -28.0815   22.7010 H   0  0  0  0  0  0
  -24.6004  -30.6882   25.7780 H   0  0  0  0  0  0
  -24.8833  -32.2749   26.4837 H   0  0  0  0  0  0
  -25.8096  -30.8858   27.0235 H   0  0  0  0  0  0
  -26.2887  -29.6659   24.1289 H   0  0  0  0  0  0
  -27.3994  -29.7196   25.4769 H   0  0  0  0  0  0
  -27.8798  -30.4137   23.9467 H   0  0  0  0  0  0
  -27.2714  -33.3559   26.2057 H   0  0  0  0  0  0
  -28.3893  -32.6784   25.0318 H   0  0  0  0  0  0
  -28.0737  -31.8368   26.5402 H   0  0  0  0  0  0
  -28.2569  -38.0127   24.7503 H   0  0  0  0  0  0
  -28.1132  -36.2652   24.6249 H   0  0  0  0  0  0
  -27.2299  -37.1410   25.8838 H   0  0  0  0  0  0
  -20.9376  -29.8828   21.6923 H   0  0  0  0  0  0
  -26.0174  -38.2817   24.1399 H   0  0  0  0  0  0
  -32.4616  -20.9370   23.1105 H   0  0  0  0  0  0
  -31.2963  -19.6491   22.8154 H   0  0  0  0  0  0
  -30.7678  -21.1666   23.5252 H   0  0  0  0  0  0
  -29.6012  -22.3226   19.0242 H   0  0  0  0  0  0
  -28.0738  -22.0668   19.7866 H   0  0  0  0  0  0
  -27.1234  -24.6647   20.4106 H   0  0  0  0  0  0
  -27.9415  -24.7431   18.8696 H   0  0  0  0  0  0
  -31.8882  -20.8745   20.6607 H   0  0  0  0  0  0
  -31.4367  -22.3573   21.4180 H   0  0  0  0  0  0
  -29.0954  -21.0481   21.7565 H   0  0  0  0  0  0
  -29.0929  -15.6089   21.4529 H   0  0  0  0  0  0
  1 25  1  0  0  0
  1 30  2  0  0  0
  1 81  1  0  0  0
  2  3  1  0  0  0
  2 25  1  0  0  0
  2 85  1  0  0  0
  2 86  1  0  0  0
  3  4  1  0  0  0
  3 87  1  0  0  0
  3 88  1  0  0  0
  4  5  1  0  0  0
  4 89  1  0  0  0
  4 90  1  0  0  0
  5  6  1  0  0  0
  5 26  1  0  0  0
  5 91  1  0  0  0
  6 25  1  0  0  0
  6 92  1  0  0  0
  6 93  1  0  0  0
  7  8  2  0  0  0
  7 26  1  0  0  0
  7 29  1  0  0  0
  8  9  1  0  0  0
  8 22  1  0  0  0
  9 10  1  0  0  0
  9 27  2  0  0  0
 10 11  2  0  0  0
 10 15  1  0  0  0
 11 12  1  0  0  0
 11 94  1  0  0  0
 12 13  2  0  0  0
 12 95  1  0  0  0
 13 14  1  0  0  0
 13 31  1  0  0  0
 14 15  2  0  0  0
 14 96  1  0  0  0
 15 97  1  0  0  0
 16 17  2  0  0  0
 16 21  1  0  0  0
 16 31  1  0  0  0
 17 18  1  0  0  0
 17 98  1  0  0  0
 18 19  2  0  0  0
 18 99  1  0  0  0
 19 20  1  0  0  0
 19 24  1  0  0  0
 20 21  2  0  0  0
 20100  1  0  0  0
 21 23  1  0  0  0
 22 28  1  0  0  0
 22 32  2  0  0  0
 26 27  1  0  0  0
 28101  1  0  0  0
 28102  1  0  0  0
 29103  1  0  0  0
 29104  1  0  0  0
 33 34  1  0  0  0
 33 66  1  0  0  0
 33 70  2  0  0  0
 34 36  1  0  0  0
 34 59  1  0  0  0
 34105  1  0  0  0
 35 44  2  0  0  0
 35 45  1  0  0  0
 35 68  1  0  0  0
 36 56  1  0  0  0
 36106  1  0  0  0
 37 39  1  0  0  0
 37 47  1  0  0  0
 37 66  1  0  0  0
 37107  1  0  0  0
 38 43  2  0  0  0
 38 46  1  0  0  0
 38 47  1  0  0  0
 39 64  1  0  0  0
 39 67  2  0  0  0
 40 52  1  0  0  0
 40 53  2  0  0  0
 40 58  1  0  0  0
 41108  1  0  0  0
 41109  1  0  0  0
 41110  1  0  0  0
 41 48  1  0  0  0
 42 43  1  0  0  0
 42 66  1  0  0  0
 42111  1  0  0  0
 42112  1  0  0  0
 43 44  1  0  0  0
 44113  1  0  0  0
 45 46  2  0  0  0
 45114  1  0  0  0
 46115  1  0  0  0
 47116  1  0  0  0
 47117  1  0  0  0
 48 56  1  0  0  0
 48 65  1  0  0  0
 48118  1  0  0  0
 49 50  1  0  0  0
 49 53  1  0  0  0
 49 64  1  0  0  0
 49119  1  0  0  0
 50 51  1  0  0  0
 50120  1  0  0  0
 50121  1  0  0  0
 51 52  1  0  0  0
 51122  1  0  0  0
 51123  1  0  0  0
 52124  1  0  0  0
 52125  1  0  0  0
 53 54  1  0  0  0
 54 55  2  0  0  0
 54126  1  0  0  0
 55 57  1  0  0  0
 55127  1  0  0  0
 56 69  2  0  0  0
 57 58  2  0  0  0
 57128  1  0  0  0
 58129  1  0  0  0
 59 60  1  0  0  0
 59 61  1  0  0  0
 59 62  1  0  0  0
 60130  1  0  0  0
 60131  1  0  0  0
 60132  1  0  0  0
 61133  1  0  0  0
 61134  1  0  0  0
 61135  1  0  0  0
 62136  1  0  0  0
 62137  1  0  0  0
 62138  1  0  0  0
 63 65  1  0  0  0
 63139  1  0  0  0
 63140  1  0  0  0
 63141  1  0  0  0
 64142  1  0  0  0
 65143  1  0  0  0
 68 77  1  0  0  0
 71 72  2  0  0  0
 71 79  1  0  0  0
 71 80  1  0  0  0
 72 83  1  0  0  0
 72 84  1  0  0  0
 73 80  2  0  0  0
 73 81  1  0  0  0
 73 84  1  0  0  0
 74 76  1  0  0  0
 74 77  1  0  0  0
 74 82  2  0  0  0
 75 78  1  0  0  0
 75144  1  0  0  0
 75145  1  0  0  0
 75146  1  0  0  0
 76147  1  0  0  0
 76148  1  0  0  0
 76 79  1  0  0  0
 77149  1  0  0  0
 77150  1  0  0  0
 78 79  1  0  0  0
 78151  1  0  0  0
 78152  1  0  0  0
 79153  1  0  0  0
 81154  1  0  0  0
M  ISO  4   1 100  68 101  77 101  81 100
M  END
> <chiral flag>
0

> <version>
0

> <s_m_source_file>
/data/baiqing/PycharmProjects/Reinvent-master-3.2/result/LINK_invent/BTK/process_docking_weight1_custom_product_contain_oxygen_bond_distance_aromatic_linkinvent_7_9_3/rearranged_h_0187.sdf

> <i_m_source_file_index>
8

> <r_mmod_Potential_Energy-OPLS-2005>
104.269058227539

> <r_mmod_Stretch_Energy-OPLS-2005>
126.104591369629

> <r_mmod_Bend_Energy-OPLS-2005>
163.579559326172

> <r_mmod_Torsional_Energy-OPLS-2005>
220.20881652832

> <r_mmod_Improper_Torsional_Energy-OPLS-2005>
4.44611549377441

> <r_mmod_Van_der_Waal_Energy-OPLS-2005>
118.244247436523

> <r_mmod_Electrostatic_Energy-OPLS-2005>
-373.175903320312

> <r_mmod_Solvation_Energy-OPLS-2005>
-228.470031738281

> <b_mmod_Minimization_Converged-OPLS-2005>
0

> <r_mmod_RMS_Derivative-OPLS-2005>
4.81833457946777

$$$$
9
                    3D
 Structure written by MMmdl.
152160  0  0  1  0            999 V2000
  -30.5694  -14.7464   20.5116 C   0  0  0  0  0  0
  -30.4467  -12.4646   19.4590 C   0  0  0  0  0  0
  -29.5090  -12.5312   18.2287 C   0  0  0  0  0  0
  -28.0346  -12.3517   18.6398 C   0  0  0  0  0  0
  -27.6508  -13.2232   19.8637 C   0  0  2  0  0  0
  -28.6974  -13.1019   20.9962 C   0  0  0  0  0  0
  -25.2516  -13.8166   20.5649 C   0  0  0  0  0  0
  -24.1798  -13.0455   20.9138 C   0  0  0  0  0  0
  -24.6364  -11.6911   20.8712 C   0  0  0  0  0  0
  -23.9030  -10.4299   21.0373 C   0  0  0  0  0  0
  -24.3574   -9.4230   21.9176 C   0  0  0  0  0  0
  -23.6246   -8.2273   22.0796 C   0  0  0  0  0  0
  -22.4240   -8.0281   21.3558 C   0  0  0  0  0  0
  -21.9844   -9.0263   20.4678 C   0  0  0  0  0  0
  -22.7172  -10.2134   20.3071 C   0  0  0  0  0  0
  -21.6868   -6.0707   22.5247 C   0  0  0  0  0  0
  -21.4024   -6.5622   23.8172 C   0  0  0  0  0  0
  -21.3674   -5.6777   24.9136 C   0  0  0  0  0  0
  -21.6049   -4.3042   24.7188 C   0  0  0  0  0  0
  -21.8836   -3.8124   23.4313 C   0  0  0  0  0  0
  -21.9197   -4.6932   22.3363 C   0  0  0  0  0  0
  -22.7835  -13.5274   21.1788 C   0  0  0  0  0  0
  -22.1676   -4.2126   21.0942 F   0  0  0  0  0  0
  -21.5626   -3.4529   25.7702 F   0  0  0  0  0  0
  -29.9990  -13.4915   20.4304 N   0  0  0  0  0  0
  -26.2979  -12.9363   20.3312 N   0  0  0  0  0  0
  -25.9302  -11.6517   20.5766 N   0  0  0  0  0  0
  -22.0457  -12.8338   22.0352 N   0  0  0  0  0  0
  -25.4188  -15.1896   20.4056 N   0  0  0  0  0  0
  -31.7169  -14.9331   20.0875 O   0  0  0  0  0  0
  -21.6665   -6.8838   21.4214 O   0  0  0  0  0  0
  -22.3554  -14.5580   20.6585 O   0  0  0  0  0  0
  -24.6315  -31.8531   23.1984 C   0  0  0  0  0  0
  -25.9168  -32.4722   23.8303 C   0  0  1  0  0  0
  -27.2289  -27.2493   20.1364 C   0  0  0  0  0  0
  -25.6009  -33.8542   24.2220 N   0  0  0  0  0  0
  -23.4255  -30.4726   21.5414 C   0  0  2  0  0  0
  -24.8739  -28.9070   20.1158 C   0  0  0  0  0  0
  -22.7483  -29.4582   22.4931 C   0  0  0  0  0  0
  -18.0314  -28.1374   22.8498 C   0  0  0  0  0  0
  -24.1506  -36.7261   23.2618 C   0  0  0  0  0  0
  -25.9684  -30.7604   21.3750 C   0  0  0  0  0  0
  -26.0427  -29.3802   20.7225 C   0  0  0  0  0  0
  -27.2175  -28.5622   20.7206 C   0  0  0  0  0  0
  -26.0400  -26.8428   19.4929 C   0  0  0  0  0  0
  -24.8764  -27.6456   19.4928 C   0  0  0  0  0  0
  -23.6474  -29.8008   20.1577 C   0  0  0  0  0  0
  -25.4127  -36.3027   24.0284 C   0  0  1  0  0  0
  -20.5921  -28.3669   23.1284 C   0  0  2  0  0  0
  -20.6818  -26.9427   22.5319 C   0  0  0  0  0  0
  -19.5765  -26.6504   21.5113 C   0  0  0  0  0  0
  -18.1947  -26.7961   22.1543 C   0  0  0  0  0  0
  -19.1562  -28.8815   23.2931 C   0  0  0  0  0  0
  -18.9473  -30.1413   23.8972 C   0  0  0  0  0  0
  -17.6471  -30.6549   24.0611 C   0  0  0  0  0  0
  -25.9109  -34.9419   23.5041 C   0  0  0  0  0  0
  -16.5378  -29.9070   23.6309 C   0  0  0  0  0  0
  -16.7302  -28.6486   23.0313 C   0  0  0  0  0  0
  -26.4550  -31.6562   25.0697 C   0  0  0  0  0  0
  -25.3808  -31.3703   26.1445 C   0  0  0  0  0  0
  -27.0388  -30.2977   24.6166 C   0  0  0  0  0  0
  -27.6120  -32.4293   25.7477 C   0  0  0  0  0  0
  -27.5557  -37.1770   24.8449 C   0  0  0  0  0  0
  -21.4197  -29.3049   22.3691 N   0  0  0  0  0  0
  -26.4267  -37.3750   23.9414 N   0  0  0  0  0  0
  -24.6939  -31.0489   22.0941 N   0  0  0  0  0  0
  -23.4198  -28.8088   23.2991 O   0  0  0  0  0  0
  -28.3552  -26.3982   20.2346 O   0  0  0  0  0  0
  -26.5668  -34.8885   22.4597 O   0  0  0  0  0  0
  -23.5487  -32.1389   23.7313 O   0  0  0  0  0  0
  -29.1949  -19.8013   20.7684 C   0  0  0  0  0  0
  -29.3496  -19.2994   22.0590 C   0  0  0  0  0  0
  -29.7658  -17.2434   20.9914 C   0  0  0  0  0  0
  -28.6906  -21.1531   20.1663 C   0  0  0  0  0  0
  -26.5133  -23.3941   20.5491 C   0  0  0  0  0  0
  -28.4498  -24.9512   19.8025 C   0  0  0  0  0  0
  -28.0122  -23.6966   20.7352 C   0  0  2  0  0  0
  -29.6715  -17.9169   22.1556 N   0  0  0  0  0  0
  -29.1476  -19.9919   23.2609 N   0  0  0  0  0  0
  -29.7513  -15.7589   20.9849 N   0  0  0  0  0  0
  -28.8223  -22.3804   20.8006 N   0  0  0  0  0  0
  -28.1100  -21.1062   19.0812 O   0  0  0  0  0  0
  -29.4391  -18.4017   19.6469 S   0  0  0  0  0  0
  -31.4822  -12.6149   19.1478 H   0  0  0  0  0  0
  -30.4134  -11.4750   19.9155 H   0  0  0  0  0  0
  -29.7884  -11.7709   17.4961 H   0  0  0  0  0  0
  -29.6295  -13.4909   17.7281 H   0  0  0  0  0  0
  -27.8761  -11.2986   18.8735 H   0  0  0  0  0  0
  -27.3799  -12.5809   17.8006 H   0  0  0  0  0  0
  -27.6596  -14.2561   19.5123 H   0  0  0  0  0  0
  -28.7450  -12.0801   21.3752 H   0  0  0  0  0  0
  -28.4251  -13.7202   21.8518 H   0  0  0  0  0  0
  -25.2717   -9.5761   22.4717 H   0  0  0  0  0  0
  -23.9974   -7.4712   22.7546 H   0  0  0  0  0  0
  -21.0772   -8.8761   19.8994 H   0  0  0  0  0  0
  -22.3596  -10.9672   19.6189 H   0  0  0  0  0  0
  -21.2041   -7.6134   23.9663 H   0  0  0  0  0  0
  -21.1477   -6.0508   25.9033 H   0  0  0  0  0  0
  -22.0593   -2.7584   23.2809 H   0  0  0  0  0  0
  -22.4058  -12.0059   22.4831 H   0  0  0  0  0  0
  -21.1102  -13.1456   22.2544 H   0  0  0  0  0  0
  -24.6419  -15.8315   20.5090 H   0  0  0  0  0  0
  -26.2559  -15.6352   20.0545 H   0  0  0  0  0  0
  -26.7199  -32.5333   23.1015 H   0  0  0  0  0  0
  -25.0191  -33.9680   25.0391 H   0  0  0  0  0  0
  -22.7223  -31.2956   21.3960 H   0  0  0  0  0  0
  -23.3748  -35.9620   23.3289 H   0  0  0  0  0  0
  -24.3571  -36.8921   22.2032 H   0  0  0  0  0  0
  -23.7315  -37.6462   23.6686 H   0  0  0  0  0  0
  -26.1104  -31.5155   20.6005 H   0  0  0  0  0  0
  -26.8435  -30.8115   22.0109 H   0  0  0  0  0  0
  -28.1160  -28.9157   21.2078 H   0  0  0  0  0  0
  -25.9951  -25.8800   19.0099 H   0  0  0  0  0  0
  -23.9787  -27.2756   19.0167 H   0  0  0  0  0  0
  -23.7915  -30.5811   19.4088 H   0  0  0  0  0  0
  -22.7584  -29.2565   19.8311 H   0  0  0  0  0  0
  -25.1319  -36.1813   25.0769 H   0  0  0  0  0  0
  -21.0054  -28.3177   24.1396 H   0  0  0  0  0  0
  -20.5765  -26.2250   23.3466 H   0  0  0  0  0  0
  -21.6658  -26.7463   22.1039 H   0  0  0  0  0  0
  -19.6909  -25.6499   21.0939 H   0  0  0  0  0  0
  -19.6676  -27.3525   20.6781 H   0  0  0  0  0  0
  -17.4235  -26.6852   21.3891 H   0  0  0  0  0  0
  -18.0240  -25.9998   22.8802 H   0  0  0  0  0  0
  -19.7952  -30.7215   24.2374 H   0  0  0  0  0  0
  -17.5030  -31.6193   24.5275 H   0  0  0  0  0  0
  -15.5375  -30.2952   23.7666 H   0  0  0  0  0  0
  -15.8704  -28.0823   22.6979 H   0  0  0  0  0  0
  -24.6030  -30.6986   25.7778 H   0  0  0  0  0  0
  -24.8963  -32.2882   26.4774 H   0  0  0  0  0  0
  -25.8182  -30.8962   27.0257 H   0  0  0  0  0  0
  -26.2945  -29.6697   24.1261 H   0  0  0  0  0  0
  -27.4157  -29.7224   25.4627 H   0  0  0  0  0  0
  -27.8796  -30.4193   23.9345 H   0  0  0  0  0  0
  -27.2737  -33.3600   26.2013 H   0  0  0  0  0  0
  -28.3975  -32.6824   25.0355 H   0  0  0  0  0  0
  -28.0750  -31.8462   26.5436 H   0  0  0  0  0  0
  -28.2551  -38.0073   24.7495 H   0  0  0  0  0  0
  -28.1078  -36.2617   24.6288 H   0  0  0  0  0  0
  -27.2292  -37.1439   25.8849 H   0  0  0  0  0  0
  -20.9376  -29.8823   21.6957 H   0  0  0  0  0  0
  -26.0114  -38.2806   24.1461 H   0  0  0  0  0  0
  -25.9116  -24.2918   20.6843 H   0  0  0  0  0  0
  -26.1463  -22.6558   21.2620 H   0  0  0  0  0  0
  -26.3128  -23.0180   19.5474 H   0  0  0  0  0  0
  -28.0057  -24.8414   18.8132 H   0  0  0  0  0  0
  -29.5134  -24.8041   19.6107 H   0  0  0  0  0  0
  -28.1031  -24.0794   21.7518 H   0  0  0  0  0  0
  -28.5706  -20.8265   23.2564 H   0  0  0  0  0  0
  -29.0312  -19.4522   24.1134 H   0  0  0  0  0  0
  -28.9229  -15.3756   21.4116 H   0  0  0  0  0  0
  -29.4608  -22.3546   21.5850 H   0  0  0  0  0  0
  1 25  1  0  0  0
  1 30  2  0  0  0
  1 80  1  0  0  0
  2  3  1  0  0  0
  2 25  1  0  0  0
  2 84  1  0  0  0
  2 85  1  0  0  0
  3  4  1  0  0  0
  3 86  1  0  0  0
  3 87  1  0  0  0
  4  5  1  0  0  0
  4 88  1  0  0  0
  4 89  1  0  0  0
  5  6  1  0  0  0
  5 26  1  0  0  0
  5 90  1  0  0  0
  6 25  1  0  0  0
  6 91  1  0  0  0
  6 92  1  0  0  0
  7  8  2  0  0  0
  7 26  1  0  0  0
  7 29  1  0  0  0
  8  9  1  0  0  0
  8 22  1  0  0  0
  9 10  1  0  0  0
  9 27  2  0  0  0
 10 11  2  0  0  0
 10 15  1  0  0  0
 11 12  1  0  0  0
 11 93  1  0  0  0
 12 13  2  0  0  0
 12 94  1  0  0  0
 13 14  1  0  0  0
 13 31  1  0  0  0
 14 15  2  0  0  0
 14 95  1  0  0  0
 15 96  1  0  0  0
 16 17  2  0  0  0
 16 21  1  0  0  0
 16 31  1  0  0  0
 17 18  1  0  0  0
 17 97  1  0  0  0
 18 19  2  0  0  0
 18 98  1  0  0  0
 19 20  1  0  0  0
 19 24  1  0  0  0
 20 21  2  0  0  0
 20 99  1  0  0  0
 21 23  1  0  0  0
 22 28  1  0  0  0
 22 32  2  0  0  0
 26 27  1  0  0  0
 28100  1  0  0  0
 28101  1  0  0  0
 29102  1  0  0  0
 29103  1  0  0  0
 33 34  1  0  0  0
 33 66  1  0  0  0
 33 70  2  0  0  0
 34 36  1  0  0  0
 34 59  1  0  0  0
 34104  1  0  0  0
 35 44  2  0  0  0
 35 45  1  0  0  0
 35 68  1  0  0  0
 36 56  1  0  0  0
 36105  1  0  0  0
 37 39  1  0  0  0
 37 47  1  0  0  0
 37 66  1  0  0  0
 37106  1  0  0  0
 38 43  2  0  0  0
 38 46  1  0  0  0
 38 47  1  0  0  0
 39 64  1  0  0  0
 39 67  2  0  0  0
 40 52  1  0  0  0
 40 53  2  0  0  0
 40 58  1  0  0  0
 41107  1  0  0  0
 41108  1  0  0  0
 41109  1  0  0  0
 41 48  1  0  0  0
 42 43  1  0  0  0
 42 66  1  0  0  0
 42110  1  0  0  0
 42111  1  0  0  0
 43 44  1  0  0  0
 44112  1  0  0  0
 45 46  2  0  0  0
 45113  1  0  0  0
 46114  1  0  0  0
 47115  1  0  0  0
 47116  1  0  0  0
 48 56  1  0  0  0
 48 65  1  0  0  0
 48117  1  0  0  0
 49 50  1  0  0  0
 49 53  1  0  0  0
 49 64  1  0  0  0
 49118  1  0  0  0
 50 51  1  0  0  0
 50119  1  0  0  0
 50120  1  0  0  0
 51 52  1  0  0  0
 51121  1  0  0  0
 51122  1  0  0  0
 52123  1  0  0  0
 52124  1  0  0  0
 53 54  1  0  0  0
 54 55  2  0  0  0
 54125  1  0  0  0
 55 57  1  0  0  0
 55126  1  0  0  0
 56 69  2  0  0  0
 57 58  2  0  0  0
 57127  1  0  0  0
 58128  1  0  0  0
 59 60  1  0  0  0
 59 61  1  0  0  0
 59 62  1  0  0  0
 60129  1  0  0  0
 60130  1  0  0  0
 60131  1  0  0  0
 61132  1  0  0  0
 61133  1  0  0  0
 61134  1  0  0  0
 62135  1  0  0  0
 62136  1  0  0  0
 62137  1  0  0  0
 63 65  1  0  0  0
 63138  1  0  0  0
 63139  1  0  0  0
 63140  1  0  0  0
 64141  1  0  0  0
 65142  1  0  0  0
 68 76  1  0  0  0
 71 72  2  0  0  0
 71 74  1  0  0  0
 71 83  1  0  0  0
 72 78  1  0  0  0
 72 79  1  0  0  0
 73 78  2  0  0  0
 73 80  1  0  0  0
 73 83  1  0  0  0
 74 81  1  0  0  0
 74 82  2  0  0  0
 75143  1  0  0  0
 75144  1  0  0  0
 75145  1  0  0  0
 75 77  1  0  0  0
 76 77  1  0  0  0
 76146  1  0  0  0
 76147  1  0  0  0
 77 81  1  0  0  0
 77148  1  0  0  0
 79149  1  0  0  0
 79150  1  0  0  0
 80151  1  0  0  0
 81152  1  0  0  0
M  ISO  4   1 100  68 101  76 101  80 100
M  END
> <chiral flag>
0

> <version>
0

> <s_m_source_file>
/data/baiqing/PycharmProjects/Reinvent-master-3.2/result/LINK_invent/BTK/process_docking_weight1_custom_product_contain_oxygen_bond_distance_aromatic_linkinvent_7_9_3/rearranged_h_0187.sdf

> <i_m_source_file_index>
9

> <r_mmod_Potential_Energy-OPLS-2005>
84.1059417724609

> <r_mmod_Stretch_Energy-OPLS-2005>
125.59220123291

> <r_mmod_Bend_Energy-OPLS-2005>
214.673187255859

> <r_mmod_Torsional_Energy-OPLS-2005>
248.517959594727

> <r_mmod_Improper_Torsional_Energy-OPLS-2005>
10.3560819625854

> <r_mmod_Van_der_Waal_Energy-OPLS-2005>
108.987091064453

> <r_mmod_Electrostatic_Energy-OPLS-2005>
-461.377227783203

> <r_mmod_Solvation_Energy-OPLS-2005>
-248.179504394531

> <b_mmod_Minimization_Converged-OPLS-2005>
0

> <r_mmod_RMS_Derivative-OPLS-2005>
5.04541015625

$$$$
10
                    3D
 Structure written by MMmdl.
152160  0  0  1  0            999 V2000
  -30.6285  -14.7261   20.4444 C   0  0  0  0  0  0
  -30.4247  -12.4339   19.4908 C   0  0  0  0  0  0
  -29.5139  -12.5071   18.2450 C   0  0  0  0  0  0
  -28.0364  -12.3394   18.6473 C   0  0  0  0  0  0
  -27.6419  -13.2366   19.8512 C   0  0  2  0  0  0
  -28.6808  -13.1647   20.9897 C   0  0  0  0  0  0
  -25.2507  -13.8212   20.5697 C   0  0  0  0  0  0
  -24.1799  -13.0448   20.9198 C   0  0  0  0  0  0
  -24.6393  -11.6927   20.8732 C   0  0  0  0  0  0
  -23.9072  -10.4300   21.0396 C   0  0  0  0  0  0
  -24.3624   -9.4216   21.9175 C   0  0  0  0  0  0
  -23.6300   -8.2250   22.0749 C   0  0  0  0  0  0
  -22.4280   -8.0284   21.3542 C   0  0  0  0  0  0
  -21.9914   -9.0255   20.4643 C   0  0  0  0  0  0
  -22.7241  -10.2136   20.3049 C   0  0  0  0  0  0
  -21.6857   -6.0736   22.5277 C   0  0  0  0  0  0
  -21.4017   -6.5639   23.8210 C   0  0  0  0  0  0
  -21.3662   -5.6792   24.9173 C   0  0  0  0  0  0
  -21.6044   -4.3054   24.7223 C   0  0  0  0  0  0
  -21.8819   -3.8146   23.4345 C   0  0  0  0  0  0
  -21.9195   -4.6963   22.3401 C   0  0  0  0  0  0
  -22.7820  -13.5224   21.1864 C   0  0  0  0  0  0
  -22.1662   -4.2148   21.0979 F   0  0  0  0  0  0
  -21.5630   -3.4537   25.7736 F   0  0  0  0  0  0
  -29.9918  -13.5029   20.4235 N   0  0  0  0  0  0
  -26.2934  -12.9429   20.3270 N   0  0  0  0  0  0
  -25.9326  -11.6564   20.5735 N   0  0  0  0  0  0
  -22.0473  -12.8212   22.0424 N   0  0  0  0  0  0
  -25.4210  -15.1936   20.4144 N   0  0  0  0  0  0
  -31.8169  -14.7711   20.1115 O   0  0  0  0  0  0
  -21.6646   -6.8879   21.4239 O   0  0  0  0  0  0
  -22.3499  -14.5526   20.6710 O   0  0  0  0  0  0
  -24.6286  -31.8564   23.1995 C   0  0  0  0  0  0
  -25.9119  -32.4761   23.8336 C   0  0  1  0  0  0
  -27.2161  -27.2782   20.1407 C   0  0  0  0  0  0
  -25.5922  -33.8563   24.2262 N   0  0  0  0  0  0
  -23.4256  -30.4777   21.5416 C   0  0  2  0  0  0
  -24.8745  -28.9255   20.1103 C   0  0  0  0  0  0
  -22.7495  -29.4600   22.4915 C   0  0  0  0  0  0
  -18.0290  -28.1390   22.8483 C   0  0  0  0  0  0
  -24.1490  -36.7288   23.2640 C   0  0  0  0  0  0
  -25.9691  -30.7746   21.3778 C   0  0  0  0  0  0
  -26.0428  -29.3970   20.7238 C   0  0  0  0  0  0
  -27.2195  -28.5847   20.7289 C   0  0  0  0  0  0
  -26.0381  -26.8766   19.4800 C   0  0  0  0  0  0
  -24.8756  -27.6723   19.4763 C   0  0  0  0  0  0
  -23.6439  -29.8103   20.1578 C   0  0  0  0  0  0
  -25.4116  -36.3075   24.0327 C   0  0  1  0  0  0
  -20.5893  -28.3696   23.1276 C   0  0  2  0  0  0
  -20.6779  -26.9415   22.5412 C   0  0  0  0  0  0
  -19.5755  -26.6386   21.5216 C   0  0  0  0  0  0
  -18.1934  -26.7932   22.1625 C   0  0  0  0  0  0
  -19.1543  -28.8859   23.2874 C   0  0  0  0  0  0
  -18.9463  -30.1460   23.8894 C   0  0  0  0  0  0
  -17.6462  -30.6589   24.0563 C   0  0  0  0  0  0
  -25.9053  -34.9443   23.5099 C   0  0  0  0  0  0
  -16.5353  -29.9087   23.6331 C   0  0  0  0  0  0
  -16.7276  -28.6505   23.0349 C   0  0  0  0  0  0
  -26.4495  -31.6578   25.0718 C   0  0  0  0  0  0
  -25.3720  -31.3721   26.1439 C   0  0  0  0  0  0
  -27.0343  -30.2996   24.6197 C   0  0  0  0  0  0
  -27.6050  -32.4315   25.7491 C   0  0  0  0  0  0
  -27.5580  -37.1799   24.8464 C   0  0  0  0  0  0
  -21.4202  -29.3041   22.3663 N   0  0  0  0  0  0
  -26.4293  -37.3771   23.9406 N   0  0  0  0  0  0
  -24.6932  -31.0542   22.0963 N   0  0  0  0  0  0
  -23.4202  -28.8145   23.3012 O   0  0  0  0  0  0
  -28.3053  -26.3852   20.1667 O   0  0  0  0  0  0
  -26.5629  -34.8914   22.4669 O   0  0  0  0  0  0
  -23.5440  -32.1375   23.7301 O   0  0  0  0  0  0
  -29.8383  -18.6640   20.1029 C   0  0  0  0  0  0
  -30.1727  -19.5269   19.0661 C   0  0  0  0  0  0
  -29.1120  -21.1533   20.3455 C   0  0  0  0  0  0
  -30.2316  -17.2162   20.1460 C   0  0  0  0  0  0
  -29.8396  -15.9974   20.6828 C   0  0  0  0  0  0
  -28.6689  -23.7403   20.0955 C   0  0  0  0  0  0
  -30.9260  -19.1570   17.8231 C   0  0  0  0  0  0
  -26.8789  -24.8171   21.6383 C   0  0  0  0  0  0
  -28.2067  -25.0600   20.8842 C   0  0  2  0  0  0
  -29.7796  -20.8833   19.2155 N   0  0  0  0  0  0
  -28.6754  -22.5105   20.7403 N   0  0  0  0  0  0
  -29.0163  -23.8612   18.9172 O   0  0  0  0  0  0
  -28.9047  -19.6164   21.2937 S   0  0  0  0  0  0
  -31.4706  -12.5296   19.1951 H   0  0  0  0  0  0
  -30.3441  -11.4569   19.9701 H   0  0  0  0  0  0
  -29.7958  -11.7381   17.5245 H   0  0  0  0  0  0
  -29.6531  -13.4655   17.7420 H   0  0  0  0  0  0
  -27.8840  -11.2903   18.9032 H   0  0  0  0  0  0
  -27.3860  -12.5413   17.7954 H   0  0  0  0  0  0
  -27.6398  -14.2607   19.4775 H   0  0  0  0  0  0
  -28.7046  -12.1655   21.4270 H   0  0  0  0  0  0
  -28.4143  -13.8407   21.8026 H   0  0  0  0  0  0
  -25.2768   -9.5697   22.4751 H   0  0  0  0  0  0
  -24.0010   -7.4644   22.7470 H   0  0  0  0  0  0
  -21.0844   -8.8773   19.8952 H   0  0  0  0  0  0
  -22.3693  -10.9674   19.6159 H   0  0  0  0  0  0
  -21.2008   -7.6146   23.9715 H   0  0  0  0  0  0
  -21.1485   -6.0521   25.9077 H   0  0  0  0  0  0
  -22.0596   -2.7607   23.2844 H   0  0  0  0  0  0
  -22.4099  -11.9879   22.4817 H   0  0  0  0  0  0
  -21.1085  -13.1225   22.2624 H   0  0  0  0  0  0
  -24.6577  -15.8509   20.5328 H   0  0  0  0  0  0
  -26.2792  -15.6350   20.1081 H   0  0  0  0  0  0
  -26.7188  -32.5422   23.1082 H   0  0  0  0  0  0
  -25.0050  -33.9702   25.0395 H   0  0  0  0  0  0
  -22.7210  -31.2991   21.3953 H   0  0  0  0  0  0
  -23.3753  -35.9619   23.3301 H   0  0  0  0  0  0
  -24.3580  -36.8913   22.2055 H   0  0  0  0  0  0
  -23.7245  -37.6489   23.6665 H   0  0  0  0  0  0
  -26.1049  -31.5342   20.6069 H   0  0  0  0  0  0
  -26.8482  -30.8261   22.0087 H   0  0  0  0  0  0
  -28.1147  -28.9378   21.2209 H   0  0  0  0  0  0
  -26.0096  -25.9154   18.9864 H   0  0  0  0  0  0
  -23.9840  -27.3091   18.9839 H   0  0  0  0  0  0
  -23.7663  -30.5858   19.4009 H   0  0  0  0  0  0
  -22.7636  -29.2409   19.8540 H   0  0  0  0  0  0
  -25.1300  -36.1924   25.0820 H   0  0  0  0  0  0
  -20.9984  -28.3277   24.1397 H   0  0  0  0  0  0
  -20.5685  -26.2305   23.3614 H   0  0  0  0  0  0
  -21.6647  -26.7442   22.1201 H   0  0  0  0  0  0
  -19.6915  -25.6297   21.1244 H   0  0  0  0  0  0
  -19.6696  -27.3197   20.6747 H   0  0  0  0  0  0
  -17.4205  -26.6677   21.4028 H   0  0  0  0  0  0
  -18.0331  -26.0080   22.9027 H   0  0  0  0  0  0
  -19.7938  -30.7277   24.2263 H   0  0  0  0  0  0
  -17.5015  -31.6269   24.5165 H   0  0  0  0  0  0
  -15.5353  -30.2987   23.7656 H   0  0  0  0  0  0
  -15.8676  -28.0826   22.7060 H   0  0  0  0  0  0
  -24.5898  -30.7070   25.7765 H   0  0  0  0  0  0
  -24.8907  -32.2887   26.4857 H   0  0  0  0  0  0
  -25.8036  -30.8901   27.0219 H   0  0  0  0  0  0
  -26.2923  -29.6741   24.1222 H   0  0  0  0  0  0
  -27.4029  -29.7259   25.4711 H   0  0  0  0  0  0
  -27.8800  -30.4275   23.9438 H   0  0  0  0  0  0
  -27.2660  -33.3617   26.2060 H   0  0  0  0  0  0
  -28.3864  -32.6872   25.0322 H   0  0  0  0  0  0
  -28.0715  -31.8446   26.5414 H   0  0  0  0  0  0
  -28.2595  -38.0097   24.7509 H   0  0  0  0  0  0
  -28.1078  -36.2628   24.6293 H   0  0  0  0  0  0
  -27.2295  -37.1451   25.8866 H   0  0  0  0  0  0
  -20.9386  -29.8759   21.6865 H   0  0  0  0  0  0
  -26.0173  -38.2845   24.1407 H   0  0  0  0  0  0
  -31.1398  -17.1038   19.5697 H   0  0  0  0  0  0
  -28.9450  -15.9621   21.2851 H   0  0  0  0  0  0
  -30.5203  -18.2530   17.3684 H   0  0  0  0  0  0
  -31.9783  -18.9744   18.0400 H   0  0  0  0  0  0
  -30.8802  -19.9441   17.0699 H   0  0  0  0  0  0
  -26.0557  -24.6042   20.9572 H   0  0  0  0  0  0
  -26.6039  -25.6762   22.2504 H   0  0  0  0  0  0
  -26.9559  -23.9677   22.3165 H   0  0  0  0  0  0
  -28.9610  -25.1610   21.6654 H   0  0  0  0  0  0
  -28.3188  -22.5553   21.6837 H   0  0  0  0  0  0
  1 25  1  0  0  0
  1 30  2  0  0  0
  1 75  1  0  0  0
  2  3  1  0  0  0
  2 25  1  0  0  0
  2 84  1  0  0  0
  2 85  1  0  0  0
  3  4  1  0  0  0
  3 86  1  0  0  0
  3 87  1  0  0  0
  4  5  1  0  0  0
  4 88  1  0  0  0
  4 89  1  0  0  0
  5  6  1  0  0  0
  5 26  1  0  0  0
  5 90  1  0  0  0
  6 25  1  0  0  0
  6 91  1  0  0  0
  6 92  1  0  0  0
  7  8  2  0  0  0
  7 26  1  0  0  0
  7 29  1  0  0  0
  8  9  1  0  0  0
  8 22  1  0  0  0
  9 10  1  0  0  0
  9 27  2  0  0  0
 10 11  2  0  0  0
 10 15  1  0  0  0
 11 12  1  0  0  0
 11 93  1  0  0  0
 12 13  2  0  0  0
 12 94  1  0  0  0
 13 14  1  0  0  0
 13 31  1  0  0  0
 14 15  2  0  0  0
 14 95  1  0  0  0
 15 96  1  0  0  0
 16 17  2  0  0  0
 16 21  1  0  0  0
 16 31  1  0  0  0
 17 18  1  0  0  0
 17 97  1  0  0  0
 18 19  2  0  0  0
 18 98  1  0  0  0
 19 20  1  0  0  0
 19 24  1  0  0  0
 20 21  2  0  0  0
 20 99  1  0  0  0
 21 23  1  0  0  0
 22 28  1  0  0  0
 22 32  2  0  0  0
 26 27  1  0  0  0
 28100  1  0  0  0
 28101  1  0  0  0
 29102  1  0  0  0
 29103  1  0  0  0
 33 34  1  0  0  0
 33 66  1  0  0  0
 33 70  2  0  0  0
 34 36  1  0  0  0
 34 59  1  0  0  0
 34104  1  0  0  0
 35 44  2  0  0  0
 35 45  1  0  0  0
 35 68  1  0  0  0
 36 56  1  0  0  0
 36105  1  0  0  0
 37 39  1  0  0  0
 37 47  1  0  0  0
 37 66  1  0  0  0
 37106  1  0  0  0
 38 43  2  0  0  0
 38 46  1  0  0  0
 38 47  1  0  0  0
 39 64  1  0  0  0
 39 67  2  0  0  0
 40 52  1  0  0  0
 40 53  2  0  0  0
 40 58  1  0  0  0
 41107  1  0  0  0
 41108  1  0  0  0
 41109  1  0  0  0
 41 48  1  0  0  0
 42 43  1  0  0  0
 42 66  1  0  0  0
 42110  1  0  0  0
 42111  1  0  0  0
 43 44  1  0  0  0
 44112  1  0  0  0
 45 46  2  0  0  0
 45113  1  0  0  0
 46114  1  0  0  0
 47115  1  0  0  0
 47116  1  0  0  0
 48 56  1  0  0  0
 48 65  1  0  0  0
 48117  1  0  0  0
 49 50  1  0  0  0
 49 53  1  0  0  0
 49 64  1  0  0  0
 49118  1  0  0  0
 50 51  1  0  0  0
 50119  1  0  0  0
 50120  1  0  0  0
 51 52  1  0  0  0
 51121  1  0  0  0
 51122  1  0  0  0
 52123  1  0  0  0
 52124  1  0  0  0
 53 54  1  0  0  0
 54 55  2  0  0  0
 54125  1  0  0  0
 55 57  1  0  0  0
 55126  1  0  0  0
 56 69  2  0  0  0
 57 58  2  0  0  0
 57127  1  0  0  0
 58128  1  0  0  0
 59 60  1  0  0  0
 59 61  1  0  0  0
 59 62  1  0  0  0
 60129  1  0  0  0
 60130  1  0  0  0
 60131  1  0  0  0
 61132  1  0  0  0
 61133  1  0  0  0
 61134  1  0  0  0
 62135  1  0  0  0
 62136  1  0  0  0
 62137  1  0  0  0
 63 65  1  0  0  0
 63138  1  0  0  0
 63139  1  0  0  0
 63140  1  0  0  0
 64141  1  0  0  0
 65142  1  0  0  0
 68 79  1  0  0  0
 71 72  2  0  0  0
 71 74  1  0  0  0
 71 83  1  0  0  0
 72 77  1  0  0  0
 72 80  1  0  0  0
 73 80  2  0  0  0
 73 81  1  0  0  0
 73 83  1  0  0  0
 74 75  2  0  0  0
 74143  1  0  0  0
 75144  1  0  0  0
 76 79  1  0  0  0
 76 81  1  0  0  0
 76 82  2  0  0  0
 77145  1  0  0  0
 77146  1  0  0  0
 77147  1  0  0  0
 78148  1  0  0  0
 78149  1  0  0  0
 78150  1  0  0  0
 78 79  1  0  0  0
 79151  1  0  0  0
 81152  1  0  0  0
M  ISO  4   1 100  68 101  75 100  79 101
M  END
> <chiral flag>
0

> <version>
0

> <s_m_source_file>
/data/baiqing/PycharmProjects/Reinvent-master-3.2/result/LINK_invent/BTK/process_docking_weight1_custom_product_contain_oxygen_bond_distance_aromatic_linkinvent_7_9_3/rearranged_h_0187.sdf

> <i_m_source_file_index>
10

> <r_mmod_Potential_Energy-OPLS-2005>
107.85620880127

> <r_mmod_Stretch_Energy-OPLS-2005>
109.050018310547

> <r_mmod_Bend_Energy-OPLS-2005>
181.40412902832

> <r_mmod_Torsional_Energy-OPLS-2005>
221.886978149414

> <r_mmod_Improper_Torsional_Energy-OPLS-2005>
3.85767436027527

> <r_mmod_Van_der_Waal_Energy-OPLS-2005>
122.950843811035

> <r_mmod_Electrostatic_Energy-OPLS-2005>
-366.022308349609

> <r_mmod_Solvation_Energy-OPLS-2005>
-241.613906860352

> <b_mmod_Minimization_Converged-OPLS-2005>
0

> <r_mmod_RMS_Derivative-OPLS-2005>
0.4203080534935

$$$$
11
                    3D
 Structure written by MMmdl.
154162  0  0  1  0            999 V2000
  -28.7441  -16.6384   20.4043 C   0  0  0  0  0  0
  -29.9424  -14.1969   19.6467 C   0  0  0  0  0  0
  -29.4829  -13.1141   18.5613 C   0  0  0  0  0  0
  -28.2207  -12.3870   18.9877 C   0  0  0  0  0  0
  -27.3962  -13.3410   19.8325 C   0  0  2  0  0  0
  -28.1369  -14.0371   20.9958 C   0  0  0  0  0  0
  -25.1135  -13.8130   20.5756 C   0  0  0  0  0  0
  -24.0897  -13.0196   20.9370 C   0  0  0  0  0  0
  -24.5824  -11.6767   20.8837 C   0  0  0  0  0  0
  -23.8802  -10.4146   21.0504 C   0  0  0  0  0  0
  -24.3478   -9.4111   21.9259 C   0  0  0  0  0  0
  -23.6228   -8.2110   22.0773 C   0  0  0  0  0  0
  -22.4222   -8.0144   21.3555 C   0  0  0  0  0  0
  -21.9797   -9.0086   20.4613 C   0  0  0  0  0  0
  -22.7055  -10.1969   20.3067 C   0  0  0  0  0  0
  -21.6817   -6.0683   22.5307 C   0  0  0  0  0  0
  -21.3998   -6.5608   23.8232 C   0  0  0  0  0  0
  -21.3654   -5.6769   24.9199 C   0  0  0  0  0  0
  -21.6039   -4.3031   24.7254 C   0  0  0  0  0  0
  -21.8823   -3.8120   23.4372 C   0  0  0  0  0  0
  -21.9182   -4.6923   22.3432 C   0  0  0  0  0  0
  -22.6965  -13.4879   21.2166 C   0  0  0  0  0  0
  -22.1659   -4.2121   21.1002 F   0  0  0  0  0  0
  -21.5623   -3.4524   25.7766 F   0  0  0  0  0  0
  -28.8572  -15.2093   20.3253 N   0  0  0  0  0  0
  -26.1356  -12.9296   20.3031 N   0  0  0  0  0  0
  -25.8651  -11.6433   20.5556 N   0  0  0  0  0  0
  -21.9777  -12.7906   22.0730 N   0  0  0  0  0  0
  -25.2474  -15.1941   20.4030 N   0  0  0  0  0  0
  -30.0138  -16.7819   20.4496 O   0  0  0  0  0  0
  -21.6569   -6.8785   21.4254 O   0  0  0  0  0  0
  -22.2717  -14.5307   20.7047 O   0  0  0  0  0  0
  -24.5863  -31.8060   23.2717 C   0  0  0  0  0  0
  -25.8654  -32.4644   23.8581 C   0  0  1  0  0  0
  -27.3412  -27.6987   19.9804 C   0  0  0  0  0  0
  -25.6033  -33.8668   24.2786 N   0  0  0  0  0  0
  -23.3870  -30.4215   21.5831 C   0  0  2  0  0  0
  -24.9902  -29.0486   20.3956 C   0  0  0  0  0  0
  -22.5995  -29.2730   22.4724 C   0  0  0  0  0  0
  -17.7796  -28.0432   23.0836 C   0  0  0  0  0  0
  -24.1566  -36.7339   23.2538 C   0  0  0  0  0  0
  -25.9546  -30.9803   21.4622 C   0  0  0  0  0  0
  -26.1641  -29.7826   20.6003 C   0  0  0  0  0  0
  -27.3981  -29.0784   20.3230 C   0  0  0  0  0  0
  -26.2897  -27.0413   20.6105 C   0  0  0  0  0  0
  -25.0221  -27.7040   20.6823 C   0  0  0  0  0  0
  -23.7015  -29.8066   20.2503 C   0  0  0  0  0  0
  -25.4147  -36.3173   24.0266 C   0  0  1  0  0  0
  -20.4197  -27.9162   23.1584 C   0  0  2  0  0  0
  -20.4313  -26.4306   23.0842 C   0  0  0  0  0  0
  -19.1123  -26.1401   22.1601 C   0  0  0  0  0  0
  -17.7080  -26.5644   22.8810 C   0  0  0  0  0  0
  -19.0160  -28.6099   23.4027 C   0  0  0  0  0  0
  -18.9299  -29.9997   23.9402 C   0  0  0  0  0  0
  -17.7162  -30.6188   24.0701 C   0  0  0  0  0  0
  -25.9024  -34.9398   23.5241 C   0  0  0  0  0  0
  -16.5370  -30.0433   23.6789 C   0  0  0  0  0  0
  -16.5758  -28.7503   23.1723 C   0  0  0  0  0  0
  -26.4402  -31.6731   25.1079 C   0  0  0  0  0  0
  -25.3624  -31.3796   26.1878 C   0  0  0  0  0  0
  -27.0515  -30.3153   24.6762 C   0  0  0  0  0  0
  -27.5935  -32.4696   25.8032 C   0  0  0  0  0  0
  -27.5612  -37.1883   24.8423 C   0  0  0  0  0  0
  -21.4403  -28.7417   22.3744 N   0  0  0  0  0  0
  -26.4364  -37.3764   23.9312 N   0  0  0  0  0  0
  -24.6510  -30.9607   22.2161 N   0  0  0  0  0  0
  -23.2197  -28.7766   23.5044 O   0  0  0  0  0  0
  -27.8753  -27.1179   18.8507 O   0  0  0  0  0  0
  -26.5429  -34.8597   22.4674 O   0  0  0  0  0  0
  -23.5223  -32.1318   23.8367 O   0  0  0  0  0  0
  -23.6804  -21.8676   20.0778 C   0  0  0  0  0  0
  -23.2186  -23.3526   19.8288 C   0  0  0  0  0  0
  -25.0864  -21.0314   20.1120 C   0  0  0  0  0  0
  -24.3115  -24.2110   19.5625 C   0  0  0  0  0  0
  -24.5972  -26.2807   18.1207 C   0  0  0  0  0  0
  -26.6224  -19.7104   20.5015 C   0  0  0  0  0  0
  -26.8593  -27.1797   17.6872 C   0  0  0  0  0  0
  -25.8079  -26.0352   17.6347 C   0  0  2  0  0  0
  -22.0461  -24.4548   19.2819 C   0  0  0  0  0  0
  -24.1381  -25.5509   19.1433 N   0  0  0  0  0  0
  -27.4821  -17.8515   20.4108 N   0  0  0  0  0  0
  -23.8750  -27.3108   17.9109 O   0  0  0  0  0  0
  -25.5554  -25.6877   16.3611 F   0  0  0  0  0  0
  -20.6513  -24.4690   19.7745 F   0  0  0  0  0  0
  -21.8715  -25.4016   19.8483 F   0  0  0  0  0  0
  -21.8555  -24.7466   17.9988 F   0  0  0  0  0  0
  -25.6926  -22.7771   19.9623 S   0  0  0  0  0  0
  -30.5290  -14.9600   19.1007 H   0  0  0  0  0  0
  -30.5878  -13.8572   20.4790 H   0  0  0  0  0  0
  -30.3573  -12.5132   18.4092 H   0  0  0  0  0  0
  -29.3057  -13.7092   17.6717 H   0  0  0  0  0  0
  -28.5150  -11.5340   19.5770 H   0  0  0  0  0  0
  -27.6902  -12.0574   18.1187 H   0  0  0  0  0  0
  -27.1394  -14.1098   19.1105 H   0  0  0  0  0  0
  -28.7716  -13.3736   21.6172 H   0  0  0  0  0  0
  -27.4330  -14.4594   21.7312 H   0  0  0  0  0  0
  -25.2634   -9.5640   22.4812 H   0  0  0  0  0  0
  -23.9963   -7.4493   22.7493 H   0  0  0  0  0  0
  -21.0737   -8.8576   19.8905 H   0  0  0  0  0  0
  -22.3565  -10.9506   19.6137 H   0  0  0  0  0  0
  -21.1997   -7.6119   23.9732 H   0  0  0  0  0  0
  -21.1466   -6.0503   25.9100 H   0  0  0  0  0  0
  -22.0608   -2.7584   23.2883 H   0  0  0  0  0  0
  -22.3397  -11.9520   22.5095 H   0  0  0  0  0  0
  -21.0360  -13.0806   22.3049 H   0  0  0  0  0  0
  -24.4060  -15.7628   20.4336 H   0  0  0  0  0  0
  -25.9752  -15.5975   19.8344 H   0  0  0  0  0  0
  -26.7175  -32.5487   23.1742 H   0  0  0  0  0  0
  -25.0684  -34.0200   25.1400 H   0  0  0  0  0  0
  -22.5641  -31.1576   21.6576 H   0  0  0  0  0  0
  -23.3807  -35.9681   23.3172 H   0  0  0  0  0  0
  -24.3722  -36.8964   22.1980 H   0  0  0  0  0  0
  -23.7423  -37.6535   23.6605 H   0  0  0  0  0  0
  -26.0819  -31.9054   20.9280 H   0  0  0  0  0  0
  -26.8297  -30.8512   22.0662 H   0  0  0  0  0  0
  -28.4022  -29.5854   20.3070 H   0  0  0  0  0  0
  -26.3913  -26.0684   20.9242 H   0  0  0  0  0  0
  -24.3936  -27.4260   21.6021 H   0  0  0  0  0  0
  -23.7997  -30.7075   19.7176 H   0  0  0  0  0  0
  -22.8942  -29.1917   19.8969 H   0  0  0  0  0  0
  -25.1351  -36.1962   25.0748 H   0  0  0  0  0  0
  -20.8719  -28.0113   24.2784 H   0  0  0  0  0  0
  -20.3745  -26.1911   24.3522 H   0  0  0  0  0  0
  -21.3888  -25.7919   22.5497 H   0  0  0  0  0  0
  -18.5310  -25.2331   22.3767 H   0  0  0  0  0  0
  -18.9264  -26.5526   21.1677 H   0  0  0  0  0  0
  -16.5852  -26.4306   22.3854 H   0  0  0  0  0  0
  -17.3628  -26.1865   23.8375 H   0  0  0  0  0  0
  -20.0229  -30.3259   24.1593 H   0  0  0  0  0  0
  -17.8211  -31.5894   24.4162 H   0  0  0  0  0  0
  -15.6563  -30.4872   23.7488 H   0  0  0  0  0  0
  -15.5872  -28.2584   22.9038 H   0  0  0  0  0  0
  -24.5865  -30.7130   25.8126 H   0  0  0  0  0  0
  -24.8716  -32.3027   26.5024 H   0  0  0  0  0  0
  -25.7718  -30.9049   27.0848 H   0  0  0  0  0  0
  -26.3396  -29.6938   24.1359 H   0  0  0  0  0  0
  -27.3830  -29.7274   25.5349 H   0  0  0  0  0  0
  -27.9354  -30.4499   24.0507 H   0  0  0  0  0  0
  -27.2236  -33.3938   26.2537 H   0  0  0  0  0  0
  -28.3650  -32.7367   25.0803 H   0  0  0  0  0  0
  -28.0668  -31.8880   26.6049 H   0  0  0  0  0  0
  -28.2486  -38.0318   24.7559 H   0  0  0  0  0  0
  -28.1283  -36.2830   24.6206 H   0  0  0  0  0  0
  -27.2303  -37.1462   25.8811 H   0  0  0  0  0  0
  -21.0934  -29.0285   21.5031 H   0  0  0  0  0  0
  -26.0186  -38.2766   24.1315 H   0  0  0  0  0  0
  -22.7727  -22.0204   20.8365 H   0  0  0  0  0  0
  -26.2499  -19.9675   21.5532 H   0  0  0  0  0  0
  -27.3844  -20.5070   20.5837 H   0  0  0  0  0  0
  -26.2860  -28.1943   17.7715 H   0  0  0  0  0  0
  -27.1860  -27.3495   16.6612 H   0  0  0  0  0  0
  -26.2482  -25.1941   18.1150 H   0  0  0  0  0  0
  -23.9815  -26.2681   19.8033 H   0  0  0  0  0  0
  -26.5215  -17.3793   20.6200 H   0  0  0  0  0  0
  1 25  1  0  0  0
  1 30  2  0  0  0
  1 81  1  0  0  0
  2  3  1  0  0  0
  2 25  1  0  0  0
  2 88  1  0  0  0
  2 89  1  0  0  0
  3  4  1  0  0  0
  3 90  1  0  0  0
  3 91  1  0  0  0
  4  5  1  0  0  0
  4 92  1  0  0  0
  4 93  1  0  0  0
  5  6  1  0  0  0
  5 26  1  0  0  0
  5 94  1  0  0  0
  6 25  1  0  0  0
  6 95  1  0  0  0
  6 96  1  0  0  0
  7  8  2  0  0  0
  7 26  1  0  0  0
  7 29  1  0  0  0
  8  9  1  0  0  0
  8 22  1  0  0  0
  9 10  1  0  0  0
  9 27  2  0  0  0
 10 11  2  0  0  0
 10 15  1  0  0  0
 11 12  1  0  0  0
 11 97  1  0  0  0
 12 13  2  0  0  0
 12 98  1  0  0  0
 13 14  1  0  0  0
 13 31  1  0  0  0
 14 15  2  0  0  0
 14 99  1  0  0  0
 15100  1  0  0  0
 16 17  2  0  0  0
 16 21  1  0  0  0
 16 31  1  0  0  0
 17 18  1  0  0  0
 17101  1  0  0  0
 18 19  2  0  0  0
 18102  1  0  0  0
 19 20  1  0  0  0
 19 24  1  0  0  0
 20 21  2  0  0  0
 20103  1  0  0  0
 21 23  1  0  0  0
 22 28  1  0  0  0
 22 32  2  0  0  0
 26 27  1  0  0  0
 28104  1  0  0  0
 28105  1  0  0  0
 29106  1  0  0  0
 29107  1  0  0  0
 33 34  1  0  0  0
 33 66  1  0  0  0
 33 70  2  0  0  0
 34 36  1  0  0  0
 34 59  1  0  0  0
 34108  1  0  0  0
 35 44  2  0  0  0
 35 45  1  0  0  0
 35 68  1  0  0  0
 36 56  1  0  0  0
 36109  1  0  0  0
 37 39  1  0  0  0
 37 47  1  0  0  0
 37 66  1  0  0  0
 37110  1  0  0  0
 38 43  2  0  0  0
 38 46  1  0  0  0
 38 47  1  0  0  0
 39 64  1  0  0  0
 39 67  2  0  0  0
 40 52  1  0  0  0
 40 53  2  0  0  0
 40 58  1  0  0  0
 41111  1  0  0  0
 41112  1  0  0  0
 41113  1  0  0  0
 41 48  1  0  0  0
 42 43  1  0  0  0
 42 66  1  0  0  0
 42114  1  0  0  0
 42115  1  0  0  0
 43 44  1  0  0  0
 44116  1  0  0  0
 45 46  2  0  0  0
 45117  1  0  0  0
 46118  1  0  0  0
 47119  1  0  0  0
 47120  1  0  0  0
 48 56  1  0  0  0
 48 65  1  0  0  0
 48121  1  0  0  0
 49 50  1  0  0  0
 49 53  1  0  0  0
 49 64  1  0  0  0
 49122  1  0  0  0
 50 51  1  0  0  0
 50123  1  0  0  0
 50124  1  0  0  0
 51 52  1  0  0  0
 51125  1  0  0  0
 51126  1  0  0  0
 52127  1  0  0  0
 52128  1  0  0  0
 53 54  1  0  0  0
 54 55  2  0  0  0
 54129  1  0  0  0
 55 57  1  0  0  0
 55130  1  0  0  0
 56 69  2  0  0  0
 57 58  2  0  0  0
 57131  1  0  0  0
 58132  1  0  0  0
 59 60  1  0  0  0
 59 61  1  0  0  0
 59 62  1  0  0  0
 60133  1  0  0  0
 60134  1  0  0  0
 60135  1  0  0  0
 61136  1  0  0  0
 61137  1  0  0  0
 61138  1  0  0  0
 62139  1  0  0  0
 62140  1  0  0  0
 62141  1  0  0  0
 63 65  1  0  0  0
 63142  1  0  0  0
 63143  1  0  0  0
 63144  1  0  0  0
 64145  1  0  0  0
 65146  1  0  0  0
 68 77  1  0  0  0
 71 72  1  0  0  0
 71 73  2  0  0  0
 71147  1  0  0  0
 72 74  2  0  0  0
 72 79  1  0  0  0
 73 76  1  0  0  0
 73 87  1  0  0  0
 74 80  1  0  0  0
 74 87  1  0  0  0
 75 78  1  0  0  0
 75 80  1  0  0  0
 75 82  2  0  0  0
 76 81  1  0  0  0
 76148  1  0  0  0
 76149  1  0  0  0
 77 78  1  0  0  0
 77150  1  0  0  0
 77151  1  0  0  0
 78 83  1  0  0  0
 78152  1  0  0  0
 79 84  1  0  0  0
 79 85  1  0  0  0
 79 86  1  0  0  0
 80153  1  0  0  0
 81154  1  0  0  0
M  ISO  4   1 100  68 101  77 101  81 100
M  END
> <chiral flag>
0

> <version>
0

> <s_m_source_file>
/data/baiqing/PycharmProjects/Reinvent-master-3.2/result/LINK_invent/BTK/process_docking_weight1_custom_product_contain_oxygen_bond_distance_aromatic_linkinvent_7_9_3/rearranged_h_0187.sdf

> <i_m_source_file_index>
11

> <r_mmod_Potential_Energy-OPLS-2005>
8514.88671875

> <r_mmod_Stretch_Energy-OPLS-2005>
2309.45678710938

> <r_mmod_Bend_Energy-OPLS-2005>
2039.88208007812

> <r_mmod_Torsional_Energy-OPLS-2005>
682.813232421875

> <r_mmod_Improper_Torsional_Energy-OPLS-2005>
41.4825477600098

> <r_mmod_Van_der_Waal_Energy-OPLS-2005>
269.742218017578

> <r_mmod_Electrostatic_Energy-OPLS-2005>
-342.894439697266

> <r_mmod_Solvation_Energy-OPLS-2005>
-221.758911132812

> <b_mmod_Minimization_Converged-OPLS-2005>
0

> <r_mmod_RMS_Derivative-OPLS-2005>
99.9990005493164

$$$$
12
                    3D
 Structure written by MMmdl.
150158  0  0  1  0            999 V2000
  -30.5933  -14.7050   20.4806 C   0  0  0  0  0  0
  -30.4399  -12.4286   19.4663 C   0  0  0  0  0  0
  -29.5119  -12.5145   18.2328 C   0  0  0  0  0  0
  -28.0355  -12.3428   18.6420 C   0  0  0  0  0  0
  -27.6498  -13.2215   19.8609 C   0  0  2  0  0  0
  -28.6931  -13.1029   20.9948 C   0  0  0  0  0  0
  -25.2542  -13.8176   20.5682 C   0  0  0  0  0  0
  -24.1819  -13.0437   20.9194 C   0  0  0  0  0  0
  -24.6393  -11.6909   20.8739 C   0  0  0  0  0  0
  -23.9063  -10.4292   21.0407 C   0  0  0  0  0  0
  -24.3618   -9.4207   21.9182 C   0  0  0  0  0  0
  -23.6294   -8.2242   22.0755 C   0  0  0  0  0  0
  -22.4275   -8.0281   21.3545 C   0  0  0  0  0  0
  -21.9909   -9.0253   20.4647 C   0  0  0  0  0  0
  -22.7237  -10.2132   20.3055 C   0  0  0  0  0  0
  -21.6856   -6.0735   22.5279 C   0  0  0  0  0  0
  -21.4016   -6.5641   23.8211 C   0  0  0  0  0  0
  -21.3659   -5.6794   24.9174 C   0  0  0  0  0  0
  -21.6043   -4.3056   24.7225 C   0  0  0  0  0  0
  -21.8820   -3.8147   23.4348 C   0  0  0  0  0  0
  -21.9193   -4.6962   22.3403 C   0  0  0  0  0  0
  -22.7840  -13.5225   21.1857 C   0  0  0  0  0  0
  -22.1662   -4.2148   21.0980 F   0  0  0  0  0  0
  -21.5628   -3.4540   25.7738 F   0  0  0  0  0  0
  -30.0038  -13.4623   20.4314 N   0  0  0  0  0  0
  -26.2969  -12.9363   20.3301 N   0  0  0  0  0  0
  -25.9322  -11.6516   20.5751 N   0  0  0  0  0  0
  -22.0484  -12.8216   22.0414 N   0  0  0  0  0  0
  -25.4249  -15.1899   20.4092 N   0  0  0  0  0  0
  -31.7560  -14.8565   20.0892 O   0  0  0  0  0  0
  -21.6640   -6.8878   21.4241 O   0  0  0  0  0  0
  -22.3527  -14.5533   20.6708 O   0  0  0  0  0  0
  -24.6283  -31.8558   23.1978 C   0  0  0  0  0  0
  -25.9116  -32.4757   23.8323 C   0  0  1  0  0  0
  -27.2319  -27.2863   20.1186 C   0  0  0  0  0  0
  -25.5918  -33.8558   24.2249 N   0  0  0  0  0  0
  -23.4238  -30.4768   21.5408 C   0  0  2  0  0  0
  -24.8709  -28.9219   20.1098 C   0  0  0  0  0  0
  -22.7483  -29.4605   22.4922 C   0  0  0  0  0  0
  -18.0288  -28.1383   22.8488 C   0  0  0  0  0  0
  -24.1489  -36.7293   23.2640 C   0  0  0  0  0  0
  -25.9659  -30.7761   21.3723 C   0  0  0  0  0  0
  -26.0388  -29.3995   20.7152 C   0  0  0  0  0  0
  -27.2166  -28.5921   20.7100 C   0  0  0  0  0  0
  -26.0349  -26.8589   19.5008 C   0  0  0  0  0  0
  -24.8727  -27.6588   19.4949 C   0  0  0  0  0  0
  -23.6392  -29.8053   20.1579 C   0  0  0  0  0  0
  -25.4117  -36.3075   24.0324 C   0  0  1  0  0  0
  -20.5888  -28.3691   23.1279 C   0  0  2  0  0  0
  -20.6775  -26.9411   22.5412 C   0  0  0  0  0  0
  -19.5752  -26.6379   21.5214 C   0  0  0  0  0  0
  -18.1931  -26.7926   22.1624 C   0  0  0  0  0  0
  -19.1540  -28.8856   23.2877 C   0  0  0  0  0  0
  -18.9460  -30.1457   23.8893 C   0  0  0  0  0  0
  -17.6459  -30.6585   24.0563 C   0  0  0  0  0  0
  -25.9053  -34.9442   23.5091 C   0  0  0  0  0  0
  -16.5351  -29.9082   23.6332 C   0  0  0  0  0  0
  -16.7274  -28.6501   23.0354 C   0  0  0  0  0  0
  -26.4489  -31.6588   25.0715 C   0  0  0  0  0  0
  -25.3711  -31.3739   26.1437 C   0  0  0  0  0  0
  -27.0338  -30.3005   24.6202 C   0  0  0  0  0  0
  -27.6037  -32.4335   25.7492 C   0  0  0  0  0  0
  -27.5580  -37.1803   24.8462 C   0  0  0  0  0  0
  -21.4194  -29.3038   22.3667 N   0  0  0  0  0  0
  -26.4293  -37.3773   23.9403 N   0  0  0  0  0  0
  -24.6915  -31.0542   22.0937 N   0  0  0  0  0  0
  -23.4194  -28.8154   23.3019 O   0  0  0  0  0  0
  -28.3726  -26.4608   20.1959 O   0  0  0  0  0  0
  -26.5631  -34.8917   22.4664 O   0  0  0  0  0  0
  -23.5438  -32.1368   23.7292 O   0  0  0  0  0  0
  -29.8177  -17.2120   20.6330 C   0  0  0  0  0  0
  -29.3969  -19.7096   20.4598 C   0  0  0  0  0  0
  -28.3969  -22.1479   18.3896 C   0  0  0  0  0  0
  -28.4850  -23.7333   20.4400 C   0  0  0  0  0  0
  -28.4965  -25.1043   19.5816 C   0  0  0  0  0  0
  -29.0412  -22.3646   19.7668 C   0  0  1  0  0  0
  -30.5968  -17.8397   19.7257 N   0  0  0  0  0  0
  -30.3481  -19.2449   19.6214 N   0  0  0  0  0  0
  -29.7893  -15.7550   20.8689 N   0  0  0  0  0  0
  -28.9384  -21.0791   20.5540 N   0  0  0  0  0  0
  -28.7164  -18.3756   21.4505 S   0  0  0  0  0  0
  -31.4805  -12.5601   19.1647 H   0  0  0  0  0  0
  -30.3847  -11.4385   19.9216 H   0  0  0  0  0  0
  -29.7866  -11.7561   17.4984 H   0  0  0  0  0  0
  -29.6446  -13.4783   17.7392 H   0  0  0  0  0  0
  -27.8803  -11.2904   18.8820 H   0  0  0  0  0  0
  -27.3813  -12.5607   17.7970 H   0  0  0  0  0  0
  -27.6592  -14.2525   19.5074 H   0  0  0  0  0  0
  -28.7168  -12.0861   21.3897 H   0  0  0  0  0  0
  -28.4262  -13.7414   21.8380 H   0  0  0  0  0  0
  -25.2766   -9.5681   22.4752 H   0  0  0  0  0  0
  -24.0003   -7.4634   22.7473 H   0  0  0  0  0  0
  -21.0842   -8.8772   19.8951 H   0  0  0  0  0  0
  -22.3699  -10.9670   19.6162 H   0  0  0  0  0  0
  -21.2011   -7.6149   23.9714 H   0  0  0  0  0  0
  -21.1479   -6.0525   25.9077 H   0  0  0  0  0  0
  -22.0600   -2.7609   23.2849 H   0  0  0  0  0  0
  -22.4109  -11.9880   22.4799 H   0  0  0  0  0  0
  -21.1100  -13.1235   22.2619 H   0  0  0  0  0  0
  -24.6530  -15.8400   20.5102 H   0  0  0  0  0  0
  -26.2619  -15.6259   20.0451 H   0  0  0  0  0  0
  -26.7181  -32.5410   23.1065 H   0  0  0  0  0  0
  -25.0049  -33.9695   25.0383 H   0  0  0  0  0  0
  -22.7194  -31.2982   21.3942 H   0  0  0  0  0  0
  -23.3747  -35.9629   23.3302 H   0  0  0  0  0  0
  -24.3575  -36.8921   22.2054 H   0  0  0  0  0  0
  -23.7245  -37.6496   23.6667 H   0  0  0  0  0  0
  -26.1006  -31.5376   20.6028 H   0  0  0  0  0  0
  -26.8447  -30.8250   22.0042 H   0  0  0  0  0  0
  -28.1131  -28.9562   21.1918 H   0  0  0  0  0  0
  -25.9569  -25.8851   19.0433 H   0  0  0  0  0  0
  -23.9738  -27.2827   19.0260 H   0  0  0  0  0  0
  -23.7578  -30.5788   19.3980 H   0  0  0  0  0  0
  -22.7587  -29.2337   19.8590 H   0  0  0  0  0  0
  -25.1300  -36.1924   25.0817 H   0  0  0  0  0  0
  -20.9981  -28.3269   24.1398 H   0  0  0  0  0  0
  -20.5675  -26.2301   23.3614 H   0  0  0  0  0  0
  -21.6644  -26.7435   22.1206 H   0  0  0  0  0  0
  -19.6913  -25.6288   21.1250 H   0  0  0  0  0  0
  -19.6691  -27.3186   20.6740 H   0  0  0  0  0  0
  -17.4202  -26.6675   21.4024 H   0  0  0  0  0  0
  -18.0329  -26.0066   22.9018 H   0  0  0  0  0  0
  -19.7934  -30.7277   24.2258 H   0  0  0  0  0  0
  -17.5011  -31.6265   24.5163 H   0  0  0  0  0  0
  -15.5351  -30.2980   23.7658 H   0  0  0  0  0  0
  -15.8675  -28.0817   22.7070 H   0  0  0  0  0  0
  -24.5879  -30.7099   25.7763 H   0  0  0  0  0  0
  -24.8911  -32.2909   26.4859 H   0  0  0  0  0  0
  -25.8023  -30.8913   27.0216 H   0  0  0  0  0  0
  -26.2925  -29.6752   24.1213 H   0  0  0  0  0  0
  -27.4005  -29.7271   25.4726 H   0  0  0  0  0  0
  -27.8804  -30.4283   23.9453 H   0  0  0  0  0  0
  -27.2635  -33.3632   26.2066 H   0  0  0  0  0  0
  -28.3848  -32.6905   25.0325 H   0  0  0  0  0  0
  -28.0704  -31.8467   26.5415 H   0  0  0  0  0  0
  -28.2597  -38.0100   24.7506 H   0  0  0  0  0  0
  -28.1076  -36.2631   24.6292 H   0  0  0  0  0  0
  -27.2296  -37.1459   25.8864 H   0  0  0  0  0  0
  -20.9376  -29.8755   21.6871 H   0  0  0  0  0  0
  -26.0173  -38.2850   24.1393 H   0  0  0  0  0  0
  -28.5847  -22.9899   17.7234 H   0  0  0  0  0  0
  -27.3165  -22.0218   18.4691 H   0  0  0  0  0  0
  -28.7997  -21.2634   17.8951 H   0  0  0  0  0  0
  -27.4622  -23.5688   20.7802 H   0  0  0  0  0  0
  -29.0653  -23.9110   21.3457 H   0  0  0  0  0  0
  -27.8248  -25.0021   18.7325 H   0  0  0  0  0  0
  -29.4799  -25.1371   19.1120 H   0  0  0  0  0  0
  -30.1085  -22.5164   19.5947 H   0  0  0  0  0  0
  -28.9418  -15.4429   21.3143 H   0  0  0  0  0  0
  -28.2926  -21.1706   21.3320 H   0  0  0  0  0  0
  1 25  1  0  0  0
  1 30  2  0  0  0
  1 79  1  0  0  0
  2  3  1  0  0  0
  2 25  1  0  0  0
  2 82  1  0  0  0
  2 83  1  0  0  0
  3  4  1  0  0  0
  3 84  1  0  0  0
  3 85  1  0  0  0
  4  5  1  0  0  0
  4 86  1  0  0  0
  4 87  1  0  0  0
  5  6  1  0  0  0
  5 26  1  0  0  0
  5 88  1  0  0  0
  6 25  1  0  0  0
  6 89  1  0  0  0
  6 90  1  0  0  0
  7  8  2  0  0  0
  7 26  1  0  0  0
  7 29  1  0  0  0
  8  9  1  0  0  0
  8 22  1  0  0  0
  9 10  1  0  0  0
  9 27  2  0  0  0
 10 11  2  0  0  0
 10 15  1  0  0  0
 11 12  1  0  0  0
 11 91  1  0  0  0
 12 13  2  0  0  0
 12 92  1  0  0  0
 13 14  1  0  0  0
 13 31  1  0  0  0
 14 15  2  0  0  0
 14 93  1  0  0  0
 15 94  1  0  0  0
 16 17  2  0  0  0
 16 21  1  0  0  0
 16 31  1  0  0  0
 17 18  1  0  0  0
 17 95  1  0  0  0
 18 19  2  0  0  0
 18 96  1  0  0  0
 19 20  1  0  0  0
 19 24  1  0  0  0
 20 21  2  0  0  0
 20 97  1  0  0  0
 21 23  1  0  0  0
 22 28  1  0  0  0
 22 32  2  0  0  0
 26 27  1  0  0  0
 28 98  1  0  0  0
 28 99  1  0  0  0
 29100  1  0  0  0
 29101  1  0  0  0
 33 34  1  0  0  0
 33 66  1  0  0  0
 33 70  2  0  0  0
 34 36  1  0  0  0
 34 59  1  0  0  0
 34102  1  0  0  0
 35 44  2  0  0  0
 35 45  1  0  0  0
 35 68  1  0  0  0
 36 56  1  0  0  0
 36103  1  0  0  0
 37 39  1  0  0  0
 37 47  1  0  0  0
 37 66  1  0  0  0
 37104  1  0  0  0
 38 43  2  0  0  0
 38 46  1  0  0  0
 38 47  1  0  0  0
 39 64  1  0  0  0
 39 67  2  0  0  0
 40 52  1  0  0  0
 40 53  2  0  0  0
 40 58  1  0  0  0
 41105  1  0  0  0
 41106  1  0  0  0
 41107  1  0  0  0
 41 48  1  0  0  0
 42 43  1  0  0  0
 42 66  1  0  0  0
 42108  1  0  0  0
 42109  1  0  0  0
 43 44  1  0  0  0
 44110  1  0  0  0
 45 46  2  0  0  0
 45111  1  0  0  0
 46112  1  0  0  0
 47113  1  0  0  0
 47114  1  0  0  0
 48 56  1  0  0  0
 48 65  1  0  0  0
 48115  1  0  0  0
 49 50  1  0  0  0
 49 53  1  0  0  0
 49 64  1  0  0  0
 49116  1  0  0  0
 50 51  1  0  0  0
 50117  1  0  0  0
 50118  1  0  0  0
 51 52  1  0  0  0
 51119  1  0  0  0
 51120  1  0  0  0
 52121  1  0  0  0
 52122  1  0  0  0
 53 54  1  0  0  0
 54 55  2  0  0  0
 54123  1  0  0  0
 55 57  1  0  0  0
 55124  1  0  0  0
 56 69  2  0  0  0
 57 58  2  0  0  0
 57125  1  0  0  0
 58126  1  0  0  0
 59 60  1  0  0  0
 59 61  1  0  0  0
 59 62  1  0  0  0
 60127  1  0  0  0
 60128  1  0  0  0
 60129  1  0  0  0
 61130  1  0  0  0
 61131  1  0  0  0
 61132  1  0  0  0
 62133  1  0  0  0
 62134  1  0  0  0
 62135  1  0  0  0
 63 65  1  0  0  0
 63136  1  0  0  0
 63137  1  0  0  0
 63138  1  0  0  0
 64139  1  0  0  0
 65140  1  0  0  0
 68 75  1  0  0  0
 71 77  2  0  0  0
 71 79  1  0  0  0
 71 81  1  0  0  0
 72 78  2  0  0  0
 72 80  1  0  0  0
 72 81  1  0  0  0
 73141  1  0  0  0
 73142  1  0  0  0
 73143  1  0  0  0
 73 76  1  0  0  0
 74 75  1  0  0  0
 74 76  1  0  0  0
 74144  1  0  0  0
 74145  1  0  0  0
 75146  1  0  0  0
 75147  1  0  0  0
 76 80  1  0  0  0
 76148  1  0  0  0
 77 78  1  0  0  0
 79149  1  0  0  0
 80150  1  0  0  0
M  ISO  4   1 100  68 101  75 101  79 100
M  END
> <chiral flag>
0

> <version>
0

> <s_m_source_file>
/data/baiqing/PycharmProjects/Reinvent-master-3.2/result/LINK_invent/BTK/process_docking_weight1_custom_product_contain_oxygen_bond_distance_aromatic_linkinvent_7_9_3/rearranged_h_0187.sdf

> <i_m_source_file_index>
12

> <r_mmod_Potential_Energy-OPLS-2005>
8.14903545379639

> <r_mmod_Stretch_Energy-OPLS-2005>
100.618583679199

> <r_mmod_Bend_Energy-OPLS-2005>
170.551147460938

> <r_mmod_Torsional_Energy-OPLS-2005>
193.016647338867

> <r_mmod_Improper_Torsional_Energy-OPLS-2005>
3.61410427093506

> <r_mmod_Van_der_Waal_Energy-OPLS-2005>
115.214141845703

> <r_mmod_Electrostatic_Energy-OPLS-2005>
-390.158264160156

> <r_mmod_Solvation_Energy-OPLS-2005>
-250.447280883789

> <b_mmod_Minimization_Converged-OPLS-2005>
0

> <r_mmod_RMS_Derivative-OPLS-2005>
0.501936614513397

$$$$
13
                    3D
 Structure written by MMmdl.
163171  0  0  1  0            999 V2000
  -30.6631  -14.5191   20.5183 C   0  0  0  0  0  0
  -30.4328  -12.3042   19.4614 C   0  0  0  0  0  0
  -29.5244  -12.4798   18.2257 C   0  0  0  0  0  0
  -28.0338  -12.3639   18.6110 C   0  0  0  0  0  0
  -27.6633  -13.2072   19.8652 C   0  0  2  0  0  0
  -28.6983  -13.0080   20.9980 C   0  0  0  0  0  0
  -25.2599  -13.8116   20.5668 C   0  0  0  0  0  0
  -24.1846  -13.0397   20.9185 C   0  0  0  0  0  0
  -24.6400  -11.6848   20.8719 C   0  0  0  0  0  0
  -23.9037  -10.4250   21.0393 C   0  0  0  0  0  0
  -24.3578   -9.4164   21.9191 C   0  0  0  0  0  0
  -23.6256   -8.2191   22.0763 C   0  0  0  0  0  0
  -22.4259   -8.0234   21.3534 C   0  0  0  0  0  0
  -21.9886   -9.0203   20.4630 C   0  0  0  0  0  0
  -22.7198  -10.2090   20.3041 C   0  0  0  0  0  0
  -21.6826   -6.0703   22.5298 C   0  0  0  0  0  0
  -21.3974   -6.5629   23.8227 C   0  0  0  0  0  0
  -21.3687   -5.6788   24.9203 C   0  0  0  0  0  0
  -21.6052   -4.3047   24.7239 C   0  0  0  0  0  0
  -21.8820   -3.8126   23.4353 C   0  0  0  0  0  0
  -21.9189   -4.6935   22.3409 C   0  0  0  0  0  0
  -22.7869  -13.5226   21.1819 C   0  0  0  0  0  0
  -22.1652   -4.2105   21.0986 F   0  0  0  0  0  0
  -21.5645   -3.4545   25.7759 F   0  0  0  0  0  0
  -30.0319  -13.3118   20.4550 N   0  0  0  0  0  0
  -26.3025  -12.9312   20.3245 N   0  0  0  0  0  0
  -25.9327  -11.6457   20.5676 N   0  0  0  0  0  0
  -22.0417  -12.8273   22.0346 N   0  0  0  0  0  0
  -25.4314  -15.1834   20.4122 N   0  0  0  0  0  0
  -31.7981  -14.6962   20.0614 O   0  0  0  0  0  0
  -21.6601   -6.8840   21.4258 O   0  0  0  0  0  0
  -22.3601  -14.5554   20.6670 O   0  0  0  0  0  0
  -24.6175  -31.8652   23.2068 C   0  0  0  0  0  0
  -25.9052  -32.4796   23.8360 C   0  0  1  0  0  0
  -27.2337  -27.4161   20.1038 C   0  0  0  0  0  0
  -25.5904  -33.8598   24.2307 N   0  0  0  0  0  0
  -23.4031  -30.4864   21.5512 C   0  0  2  0  0  0
  -24.8472  -28.9413   20.1204 C   0  0  0  0  0  0
  -22.7411  -29.4635   22.5028 C   0  0  0  0  0  0
  -18.0265  -28.1374   22.8512 C   0  0  0  0  0  0
  -24.1472  -36.7296   23.2637 C   0  0  0  0  0  0
  -25.9286  -30.8289   21.3510 C   0  0  0  0  0  0
  -26.0082  -29.4558   20.7115 C   0  0  0  0  0  0
  -27.2083  -28.7031   20.6941 C   0  0  0  0  0  0
  -26.0565  -26.9126   19.5156 C   0  0  0  0  0  0
  -24.8663  -27.6693   19.5190 C   0  0  0  0  0  0
  -23.6067  -29.8100   20.1688 C   0  0  0  0  0  0
  -25.4093  -36.3091   24.0340 C   0  0  1  0  0  0
  -20.5854  -28.3631   23.1358 C   0  0  2  0  0  0
  -20.6746  -26.9371   22.5424 C   0  0  0  0  0  0
  -19.5727  -26.6377   21.5226 C   0  0  0  0  0  0
  -18.1907  -26.7918   22.1631 C   0  0  0  0  0  0
  -19.1516  -28.8829   23.2917 C   0  0  0  0  0  0
  -18.9439  -30.1449   23.8898 C   0  0  0  0  0  0
  -17.6440  -30.6582   24.0567 C   0  0  0  0  0  0
  -25.9035  -34.9470   23.5119 C   0  0  0  0  0  0
  -16.5331  -29.9073   23.6346 C   0  0  0  0  0  0
  -16.7249  -28.6494   23.0354 C   0  0  0  0  0  0
  -26.4490  -31.6570   25.0676 C   0  0  0  0  0  0
  -25.3785  -31.3626   26.1432 C   0  0  0  0  0  0
  -27.0320  -30.3038   24.5969 C   0  0  0  0  0  0
  -27.6036  -32.4293   25.7480 C   0  0  0  0  0  0
  -27.5568  -37.1810   24.8477 C   0  0  0  0  0  0
  -21.4128  -29.3010   22.3778 N   0  0  0  0  0  0
  -26.4281  -37.3781   23.9422 N   0  0  0  0  0  0
  -24.6684  -31.0746   22.0956 N   0  0  0  0  0  0
  -23.4188  -28.8204   23.3087 O   0  0  0  0  0  0
  -28.4007  -26.6840   20.0236 O   0  0  0  0  0  0
  -26.5582  -34.8940   22.4668 O   0  0  0  0  0  0
  -23.5362  -32.1393   23.7489 O   0  0  0  0  0  0
  -29.8032  -19.1296   20.2213 C   0  0  0  0  0  0
  -29.3636  -18.7803   18.9509 C   0  0  0  0  0  0
  -29.8199  -16.8160   20.3767 C   0  0  0  0  0  0
  -28.6012  -23.0665   22.6345 C   0  0  0  0  0  0
  -31.4402  -20.9810   19.9568 C   0  0  0  0  0  0
  -30.5888  -20.4576   22.2290 C   0  0  0  0  0  0
  -28.4914  -24.1653   20.3328 C   0  0  0  0  0  0
  -29.0121  -21.5908   20.5560 C   0  0  0  0  0  0
  -28.5602  -25.5977   20.9540 C   0  0  0  0  0  0
  -29.1523  -23.0286   21.1903 C   0  0  2  0  0  0
  -30.1828  -20.5375   20.7380 C   0  0  0  0  0  0
  -30.0312  -17.9770   21.0169 N   0  0  0  0  0  0
  -29.0603  -19.5908   17.8577 N   0  0  0  0  0  0
  -29.9449  -15.5472   21.0150 N   0  0  0  0  0  0
  -29.2618  -17.0426   18.7272 S   0  0  0  0  0  0
  -31.4855  -12.3944   19.1822 H   0  0  0  0  0  0
  -30.3258  -11.2990   19.8765 H   0  0  0  0  0  0
  -29.7813  -11.7308   17.4743 H   0  0  0  0  0  0
  -29.7197  -13.4471   17.7634 H   0  0  0  0  0  0
  -27.8202  -11.3113   18.7964 H   0  0  0  0  0  0
  -27.4091  -12.6508   17.7633 H   0  0  0  0  0  0
  -27.7036  -14.2516   19.5580 H   0  0  0  0  0  0
  -28.6728  -11.9801   21.3658 H   0  0  0  0  0  0
  -28.4523  -13.6305   21.8583 H   0  0  0  0  0  0
  -25.2699   -9.5631   22.4775 H   0  0  0  0  0  0
  -23.9907   -7.4581   22.7499 H   0  0  0  0  0  0
  -21.0801   -8.8697   19.8951 H   0  0  0  0  0  0
  -22.3631  -10.9600   19.6119 H   0  0  0  0  0  0
  -21.1915   -7.6139   23.9717 H   0  0  0  0  0  0
  -21.1556   -6.0518   25.9118 H   0  0  0  0  0  0
  -22.0585   -2.7580   23.2852 H   0  0  0  0  0  0
  -22.3928  -11.9937   22.4810 H   0  0  0  0  0  0
  -21.1036  -13.1380   22.2437 H   0  0  0  0  0  0
  -24.6598  -15.8304   20.5330 H   0  0  0  0  0  0
  -26.2630  -15.6227   20.0413 H   0  0  0  0  0  0
  -26.7123  -32.5503   23.1133 H   0  0  0  0  0  0
  -25.0150  -33.9753   25.0511 H   0  0  0  0  0  0
  -22.6915  -31.3028   21.4148 H   0  0  0  0  0  0
  -23.3748  -35.9615   23.3290 H   0  0  0  0  0  0
  -24.3589  -36.8915   22.2058 H   0  0  0  0  0  0
  -23.7212  -37.6498   23.6645 H   0  0  0  0  0  0
  -26.0193  -31.5833   20.5673 H   0  0  0  0  0  0
  -26.8266  -30.9011   21.9528 H   0  0  0  0  0  0
  -28.1115  -29.1098   21.1273 H   0  0  0  0  0  0
  -26.0601  -25.9408   19.0432 H   0  0  0  0  0  0
  -23.9738  -27.2723   19.0544 H   0  0  0  0  0  0
  -23.6989  -30.5790   19.4002 H   0  0  0  0  0  0
  -22.7300  -29.2230   19.8878 H   0  0  0  0  0  0
  -25.1265  -36.1948   25.0833 H   0  0  0  0  0  0
  -20.9937  -28.3154   24.1484 H   0  0  0  0  0  0
  -20.5670  -26.2217   23.3587 H   0  0  0  0  0  0
  -21.6609  -26.7425   22.1205 H   0  0  0  0  0  0
  -19.6862  -25.6291   21.1241 H   0  0  0  0  0  0
  -19.6676  -27.3210   20.6778 H   0  0  0  0  0  0
  -17.4176  -26.6710   21.4013 H   0  0  0  0  0  0
  -18.0275  -26.0049   22.9017 H   0  0  0  0  0  0
  -19.7924  -30.7279   24.2224 H   0  0  0  0  0  0
  -17.5002  -31.6263   24.5157 H   0  0  0  0  0  0
  -15.5328  -30.2967   23.7683 H   0  0  0  0  0  0
  -15.8656  -28.0827   22.7029 H   0  0  0  0  0  0
  -24.5970  -30.6947   25.7786 H   0  0  0  0  0  0
  -24.8962  -32.2757   26.4924 H   0  0  0  0  0  0
  -25.8184  -30.8788   27.0162 H   0  0  0  0  0  0
  -26.2814  -29.6805   24.1078 H   0  0  0  0  0  0
  -27.4227  -29.7234   25.4341 H   0  0  0  0  0  0
  -27.8585  -30.4417   23.8990 H   0  0  0  0  0  0
  -27.2617  -33.3603   26.2020 H   0  0  0  0  0  0
  -28.3888  -32.6834   25.0345 H   0  0  0  0  0  0
  -28.0642  -31.8434   26.5449 H   0  0  0  0  0  0
  -28.2576  -38.0116   24.7521 H   0  0  0  0  0  0
  -28.1064  -36.2645   24.6283 H   0  0  0  0  0  0
  -27.2294  -37.1434   25.8884 H   0  0  0  0  0  0
  -20.9274  -29.8736   21.7012 H   0  0  0  0  0  0
  -26.0157  -38.2852   24.1427 H   0  0  0  0  0  0
  -28.9040  -23.9768   23.1531 H   0  0  0  0  0  0
  -28.9523  -22.2428   23.2534 H   0  0  0  0  0  0
  -27.5115  -23.0285   22.6414 H   0  0  0  0  0  0
  -32.2526  -20.2628   20.0857 H   0  0  0  0  0  0
  -31.8119  -21.9533   20.2785 H   0  0  0  0  0  0
  -31.2465  -21.0451   18.8866 H   0  0  0  0  0  0
  -31.4033  -19.7498   22.3925 H   0  0  0  0  0  0
  -29.7504  -20.1452   22.8520 H   0  0  0  0  0  0
  -30.9521  -21.4112   22.6110 H   0  0  0  0  0  0
  -28.9809  -24.1869   19.3569 H   0  0  0  0  0  0
  -27.4453  -23.9152   20.1428 H   0  0  0  0  0  0
  -28.8404  -21.7158   19.4870 H   0  0  0  0  0  0
  -28.0851  -21.1470   20.9268 H   0  0  0  0  0  0
  -29.5457  -25.7367   21.4018 H   0  0  0  0  0  0
  -27.8427  -25.6870   21.7698 H   0  0  0  0  0  0
  -30.2136  -23.2690   21.2386 H   0  0  0  0  0  0
  -29.2584  -20.5857   17.8219 H   0  0  0  0  0  0
  -28.8573  -19.2140   16.9360 H   0  0  0  0  0  0
  -29.1328  -15.2756   21.5469 H   0  0  0  0  0  0
  1 25  1  0  0  0
  1 30  2  0  0  0
  1 84  1  0  0  0
  2  3  1  0  0  0
  2 25  1  0  0  0
  2 86  1  0  0  0
  2 87  1  0  0  0
  3  4  1  0  0  0
  3 88  1  0  0  0
  3 89  1  0  0  0
  4  5  1  0  0  0
  4 90  1  0  0  0
  4 91  1  0  0  0
  5  6  1  0  0  0
  5 26  1  0  0  0
  5 92  1  0  0  0
  6 25  1  0  0  0
  6 93  1  0  0  0
  6 94  1  0  0  0
  7  8  2  0  0  0
  7 26  1  0  0  0
  7 29  1  0  0  0
  8  9  1  0  0  0
  8 22  1  0  0  0
  9 10  1  0  0  0
  9 27  2  0  0  0
 10 11  2  0  0  0
 10 15  1  0  0  0
 11 12  1  0  0  0
 11 95  1  0  0  0
 12 13  2  0  0  0
 12 96  1  0  0  0
 13 14  1  0  0  0
 13 31  1  0  0  0
 14 15  2  0  0  0
 14 97  1  0  0  0
 15 98  1  0  0  0
 16 17  2  0  0  0
 16 21  1  0  0  0
 16 31  1  0  0  0
 17 18  1  0  0  0
 17 99  1  0  0  0
 18 19  2  0  0  0
 18100  1  0  0  0
 19 20  1  0  0  0
 19 24  1  0  0  0
 20 21  2  0  0  0
 20101  1  0  0  0
 21 23  1  0  0  0
 22 28  1  0  0  0
 22 32  2  0  0  0
 26 27  1  0  0  0
 28102  1  0  0  0
 28103  1  0  0  0
 29104  1  0  0  0
 29105  1  0  0  0
 33 34  1  0  0  0
 33 66  1  0  0  0
 33 70  2  0  0  0
 34 36  1  0  0  0
 34 59  1  0  0  0
 34106  1  0  0  0
 35 44  2  0  0  0
 35 45  1  0  0  0
 35 68  1  0  0  0
 36 56  1  0  0  0
 36107  1  0  0  0
 37 39  1  0  0  0
 37 47  1  0  0  0
 37 66  1  0  0  0
 37108  1  0  0  0
 38 43  2  0  0  0
 38 46  1  0  0  0
 38 47  1  0  0  0
 39 64  1  0  0  0
 39 67  2  0  0  0
 40 52  1  0  0  0
 40 53  2  0  0  0
 40 58  1  0  0  0
 41109  1  0  0  0
 41110  1  0  0  0
 41111  1  0  0  0
 41 48  1  0  0  0
 42 43  1  0  0  0
 42 66  1  0  0  0
 42112  1  0  0  0
 42113  1  0  0  0
 43 44  1  0  0  0
 44114  1  0  0  0
 45 46  2  0  0  0
 45115  1  0  0  0
 46116  1  0  0  0
 47117  1  0  0  0
 47118  1  0  0  0
 48 56  1  0  0  0
 48 65  1  0  0  0
 48119  1  0  0  0
 49 50  1  0  0  0
 49 53  1  0  0  0
 49 64  1  0  0  0
 49120  1  0  0  0
 50 51  1  0  0  0
 50121  1  0  0  0
 50122  1  0  0  0
 51 52  1  0  0  0
 51123  1  0  0  0
 51124  1  0  0  0
 52125  1  0  0  0
 52126  1  0  0  0
 53 54  1  0  0  0
 54 55  2  0  0  0
 54127  1  0  0  0
 55 57  1  0  0  0
 55128  1  0  0  0
 56 69  2  0  0  0
 57 58  2  0  0  0
 57129  1  0  0  0
 58130  1  0  0  0
 59 60  1  0  0  0
 59 61  1  0  0  0
 59 62  1  0  0  0
 60131  1  0  0  0
 60132  1  0  0  0
 60133  1  0  0  0
 61134  1  0  0  0
 61135  1  0  0  0
 61136  1  0  0  0
 62137  1  0  0  0
 62138  1  0  0  0
 62139  1  0  0  0
 63 65  1  0  0  0
 63140  1  0  0  0
 63141  1  0  0  0
 63142  1  0  0  0
 64143  1  0  0  0
 65144  1  0  0  0
 68 79  1  0  0  0
 71 72  2  0  0  0
 71 81  1  0  0  0
 71 82  1  0  0  0
 72 83  1  0  0  0
 72 85  1  0  0  0
 73 82  2  0  0  0
 73 84  1  0  0  0
 73 85  1  0  0  0
 74145  1  0  0  0
 74146  1  0  0  0
 74147  1  0  0  0
 74 80  1  0  0  0
 75148  1  0  0  0
 75149  1  0  0  0
 75150  1  0  0  0
 75 81  1  0  0  0
 76 81  1  0  0  0
 76151  1  0  0  0
 76152  1  0  0  0
 76153  1  0  0  0
 77 79  1  0  0  0
 77 80  1  0  0  0
 77154  1  0  0  0
 77155  1  0  0  0
 78 80  1  0  0  0
 78 81  1  0  0  0
 78156  1  0  0  0
 78157  1  0  0  0
 79158  1  0  0  0
 79159  1  0  0  0
 80160  1  0  0  0
 83161  1  0  0  0
 83162  1  0  0  0
 84163  1  0  0  0
M  ISO  4   1 100  68 101  79 101  84 100
M  END
> <chiral flag>
0

> <version>
0

> <s_m_source_file>
/data/baiqing/PycharmProjects/Reinvent-master-3.2/result/LINK_invent/BTK/process_docking_weight1_custom_product_contain_oxygen_bond_distance_aromatic_linkinvent_7_9_3/rearranged_h_0187.sdf

> <i_m_source_file_index>
13

> <r_mmod_Potential_Energy-OPLS-2005>
38.3886680603027

> <r_mmod_Stretch_Energy-OPLS-2005>
49.7843742370605

> <r_mmod_Bend_Energy-OPLS-2005>
115.189102172852

> <r_mmod_Torsional_Energy-OPLS-2005>
286.233215332031

> <r_mmod_Improper_Torsional_Energy-OPLS-2005>
6.86138391494751

> <r_mmod_Van_der_Waal_Energy-OPLS-2005>
122.109809875488

> <r_mmod_Electrostatic_Energy-OPLS-2005>
-349.471832275391

> <r_mmod_Solvation_Energy-OPLS-2005>
-209.192962646484

> <b_mmod_Minimization_Converged-OPLS-2005>
0

> <r_mmod_RMS_Derivative-OPLS-2005>
4.64012956619263

$$$$
14
                    3D
 Structure written by MMmdl.
150158  0  0  1  0            999 V2000
  -30.7318  -14.4771   20.5378 C   0  0  0  0  0  0
  -30.4072  -12.3018   19.4390 C   0  0  0  0  0  0
  -29.4924  -12.4963   18.2133 C   0  0  0  0  0  0
  -28.0170  -12.3500   18.6267 C   0  0  0  0  0  0
  -27.6555  -13.2115   19.8673 C   0  0  2  0  0  0
  -28.6977  -13.0450   20.9985 C   0  0  0  0  0  0
  -25.2561  -13.8172   20.5668 C   0  0  0  0  0  0
  -24.1820  -13.0449   20.9180 C   0  0  0  0  0  0
  -24.6378  -11.6917   20.8733 C   0  0  0  0  0  0
  -23.9063  -10.4298   21.0399 C   0  0  0  0  0  0
  -24.3624   -9.4212   21.9174 C   0  0  0  0  0  0
  -23.6294   -8.2247   22.0737 C   0  0  0  0  0  0
  -22.4276   -8.0283   21.3529 C   0  0  0  0  0  0
  -21.9917   -9.0261   20.4634 C   0  0  0  0  0  0
  -22.7242  -10.2140   20.3043 C   0  0  0  0  0  0
  -21.6860   -6.0734   22.5277 C   0  0  0  0  0  0
  -21.4020   -6.5634   23.8210 C   0  0  0  0  0  0
  -21.3655   -5.6790   24.9171 C   0  0  0  0  0  0
  -21.6045   -4.3053   24.7229 C   0  0  0  0  0  0
  -21.8824   -3.8142   23.4347 C   0  0  0  0  0  0
  -21.9200   -4.6959   22.3402 C   0  0  0  0  0  0
  -22.7842  -13.5230   21.1871 C   0  0  0  0  0  0
  -22.1668   -4.2137   21.0982 F   0  0  0  0  0  0
  -21.5636   -3.4539   25.7744 F   0  0  0  0  0  0
  -30.0287  -13.3172   20.4359 N   0  0  0  0  0  0
  -26.2987  -12.9350   20.3332 N   0  0  0  0  0  0
  -25.9305  -11.6506   20.5760 N   0  0  0  0  0  0
  -22.0500  -12.8193   22.0422 N   0  0  0  0  0  0
  -25.4311  -15.1890   20.4052 N   0  0  0  0  0  0
  -31.8785  -14.5946   20.1013 O   0  0  0  0  0  0
  -21.6639   -6.8875   21.4236 O   0  0  0  0  0  0
  -22.3512  -14.5537   20.6732 O   0  0  0  0  0  0
  -24.6173  -31.8682   23.2092 C   0  0  0  0  0  0
  -25.9055  -32.4821   23.8410 C   0  0  1  0  0  0
  -27.2234  -27.4025   20.1119 C   0  0  0  0  0  0
  -25.5881  -33.8622   24.2319 N   0  0  0  0  0  0
  -23.4076  -30.4925   21.5505 C   0  0  2  0  0  0
  -24.8550  -28.9583   20.1164 C   0  0  0  0  0  0
  -22.7422  -29.4695   22.4998 C   0  0  0  0  0  0
  -18.0291  -28.1384   22.8504 C   0  0  0  0  0  0
  -24.1474  -36.7315   23.2646 C   0  0  0  0  0  0
  -25.9423  -30.8249   21.3712 C   0  0  0  0  0  0
  -26.0190  -29.4594   20.7140 C   0  0  0  0  0  0
  -27.2105  -28.6911   20.7045 C   0  0  0  0  0  0
  -26.0447  -26.9368   19.4874 C   0  0  0  0  0  0
  -24.8635  -27.6976   19.4995 C   0  0  0  0  0  0
  -23.6178  -29.8252   20.1657 C   0  0  0  0  0  0
  -25.4096  -36.3114   24.0343 C   0  0  1  0  0  0
  -20.5868  -28.3700   23.1324 C   0  0  2  0  0  0
  -20.6785  -26.9431   22.5434 C   0  0  0  0  0  0
  -19.5773  -26.6347   21.5244 C   0  0  0  0  0  0
  -18.1947  -26.7922   22.1647 C   0  0  0  0  0  0
  -19.1532  -28.8856   23.2907 C   0  0  0  0  0  0
  -18.9446  -30.1466   23.8892 C   0  0  0  0  0  0
  -17.6437  -30.6598   24.0539 C   0  0  0  0  0  0
  -25.9029  -34.9481   23.5125 C   0  0  0  0  0  0
  -16.5338  -29.9084   23.6317 C   0  0  0  0  0  0
  -16.7278  -28.6496   23.0358 C   0  0  0  0  0  0
  -26.4450  -31.6633   25.0774 C   0  0  0  0  0  0
  -25.3677  -31.3788   26.1498 C   0  0  0  0  0  0
  -27.0298  -30.3061   24.6229 C   0  0  0  0  0  0
  -27.6016  -32.4381   25.7518 C   0  0  0  0  0  0
  -27.5575  -37.1814   24.8468 C   0  0  0  0  0  0
  -21.4139  -29.3086   22.3751 N   0  0  0  0  0  0
  -26.4288  -37.3792   23.9407 N   0  0  0  0  0  0
  -24.6737  -31.0758   22.1015 N   0  0  0  0  0  0
  -23.4179  -28.8238   23.3062 O   0  0  0  0  0  0
  -28.3468  -26.5957   20.1468 O   0  0  0  0  0  0
  -26.5611  -34.8933   22.4699 O   0  0  0  0  0  0
  -23.5354  -32.1461   23.7451 O   0  0  0  0  0  0
  -28.4130  -18.0579   21.5593 C   0  0  0  0  0  0
  -29.6797  -18.0771   21.0283 C   0  0  0  0  0  0
  -29.1599  -20.3145   20.8902 C   0  0  0  0  0  0
  -28.7501  -22.7757   20.9869 C   0  0  0  0  0  0
  -30.6394  -16.9214   20.8531 C   0  0  0  0  0  0
  -28.1225  -25.2919   20.7543 C   0  0  0  0  0  0
  -29.0909  -24.1456   20.3298 C   0  0  2  0  0  0
  -30.0778  -19.3704   20.6332 N   0  0  0  0  0  0
  -29.4073  -21.6783   20.5492 N   0  0  0  0  0  0
  -30.0675  -15.5659   20.9653 N   0  0  0  0  0  0
  -27.9225  -22.7266   21.9016 O   0  0  0  0  0  0
  -29.0398  -23.9926   19.0022 F   0  0  0  0  0  0
  -27.6871  -19.6491   21.6005 S   0  0  0  0  0  0
  -31.4566  -12.3644   19.1455 H   0  0  0  0  0  0
  -30.2780  -11.3023   19.8569 H   0  0  0  0  0  0
  -29.7377  -11.7710   17.4365 H   0  0  0  0  0  0
  -29.6589  -13.4823   17.7761 H   0  0  0  0  0  0
  -27.8433  -11.2952   18.8449 H   0  0  0  0  0  0
  -27.3615  -12.5967   17.7906 H   0  0  0  0  0  0
  -27.6872  -14.2508   19.5411 H   0  0  0  0  0  0
  -28.6664  -12.0321   21.4027 H   0  0  0  0  0  0
  -28.4650  -13.7059   21.8353 H   0  0  0  0  0  0
  -25.2777   -9.5680   22.4736 H   0  0  0  0  0  0
  -24.0015   -7.4627   22.7441 H   0  0  0  0  0  0
  -21.0852   -8.8772   19.8921 H   0  0  0  0  0  0
  -22.3706  -10.9677   19.6140 H   0  0  0  0  0  0
  -21.2001   -7.6144   23.9708 H   0  0  0  0  0  0
  -21.1476   -6.0519   25.9074 H   0  0  0  0  0  0
  -22.0603   -2.7603   23.2856 H   0  0  0  0  0  0
  -22.4159  -11.9850   22.4776 H   0  0  0  0  0  0
  -21.1104  -13.1162   22.2653 H   0  0  0  0  0  0
  -24.6653  -15.8468   20.4954 H   0  0  0  0  0  0
  -26.2750  -15.6151   20.0447 H   0  0  0  0  0  0
  -26.7142  -32.5514   23.1189 H   0  0  0  0  0  0
  -24.9968  -33.9785   25.0420 H   0  0  0  0  0  0
  -22.7002  -31.3133   21.4084 H   0  0  0  0  0  0
  -23.3728  -35.9657   23.3328 H   0  0  0  0  0  0
  -24.3582  -36.8903   22.2058 H   0  0  0  0  0  0
  -23.7226  -37.6527   23.6647 H   0  0  0  0  0  0
  -26.0674  -31.5933   20.6071 H   0  0  0  0  0  0
  -26.8250  -30.8693   21.9980 H   0  0  0  0  0  0
  -28.1074  -29.0707   21.1734 H   0  0  0  0  0  0
  -26.0272  -25.9717   19.0000 H   0  0  0  0  0  0
  -23.9681  -27.3085   19.0352 H   0  0  0  0  0  0
  -23.7284  -30.5990   19.4060 H   0  0  0  0  0  0
  -22.7420  -29.2435   19.8710 H   0  0  0  0  0  0
  -25.1272  -36.1987   25.0839 H   0  0  0  0  0  0
  -20.9970  -28.3263   24.1438 H   0  0  0  0  0  0
  -20.5712  -26.2310   23.3637 H   0  0  0  0  0  0
  -21.6670  -26.7509   22.1224 H   0  0  0  0  0  0
  -19.6960  -25.6233   21.1376 H   0  0  0  0  0  0
  -19.6707  -27.3071   20.6702 H   0  0  0  0  0  0
  -17.4237  -26.6679   21.4035 H   0  0  0  0  0  0
  -18.0333  -26.0097   22.9063 H   0  0  0  0  0  0
  -19.7919  -30.7295   24.2235 H   0  0  0  0  0  0
  -17.4984  -31.6301   24.5102 H   0  0  0  0  0  0
  -15.5334  -30.2978   23.7620 H   0  0  0  0  0  0
  -15.8679  -28.0809   22.7083 H   0  0  0  0  0  0
  -24.5819  -30.7180   25.7822 H   0  0  0  0  0  0
  -24.8903  -32.2969   26.4939 H   0  0  0  0  0  0
  -25.7984  -30.8942   27.0266 H   0  0  0  0  0  0
  -26.2899  -29.6827   24.1196 H   0  0  0  0  0  0
  -27.3926  -29.7316   25.4761 H   0  0  0  0  0  0
  -27.8789  -30.4354   23.9513 H   0  0  0  0  0  0
  -27.2618  -33.3660   26.2129 H   0  0  0  0  0  0
  -28.3783  -32.6983   25.0318 H   0  0  0  0  0  0
  -28.0734  -31.8500   26.5394 H   0  0  0  0  0  0
  -28.2605  -38.0097   24.7495 H   0  0  0  0  0  0
  -28.1055  -36.2632   24.6308 H   0  0  0  0  0  0
  -27.2314  -37.1485   25.8879 H   0  0  0  0  0  0
  -20.9289  -29.8876   21.7035 H   0  0  0  0  0  0
  -26.0181  -38.2876   24.1390 H   0  0  0  0  0  0
  -27.8614  -17.2117   21.9457 H   0  0  0  0  0  0
  -31.4511  -17.0074   21.5787 H   0  0  0  0  0  0
  -31.1116  -17.0218   19.8722 H   0  0  0  0  0  0
  -27.1100  -24.9242   20.5898 H   0  0  0  0  0  0
  -28.2006  -25.4352   21.8331 H   0  0  0  0  0  0
  -30.1179  -24.4110   20.5774 H   0  0  0  0  0  0
  -30.1478  -21.8424   19.8829 H   0  0  0  0  0  0
  -29.1184  -15.4657   21.2852 H   0  0  0  0  0  0
  1 25  1  0  0  0
  1 30  2  0  0  0
  1 80  1  0  0  0
  2  3  1  0  0  0
  2 25  1  0  0  0
  2 84  1  0  0  0
  2 85  1  0  0  0
  3  4  1  0  0  0
  3 86  1  0  0  0
  3 87  1  0  0  0
  4  5  1  0  0  0
  4 88  1  0  0  0
  4 89  1  0  0  0
  5  6  1  0  0  0
  5 26  1  0  0  0
  5 90  1  0  0  0
  6 25  1  0  0  0
  6 91  1  0  0  0
  6 92  1  0  0  0
  7  8  2  0  0  0
  7 26  1  0  0  0
  7 29  1  0  0  0
  8  9  1  0  0  0
  8 22  1  0  0  0
  9 10  1  0  0  0
  9 27  2  0  0  0
 10 11  2  0  0  0
 10 15  1  0  0  0
 11 12  1  0  0  0
 11 93  1  0  0  0
 12 13  2  0  0  0
 12 94  1  0  0  0
 13 14  1  0  0  0
 13 31  1  0  0  0
 14 15  2  0  0  0
 14 95  1  0  0  0
 15 96  1  0  0  0
 16 17  2  0  0  0
 16 21  1  0  0  0
 16 31  1  0  0  0
 17 18  1  0  0  0
 17 97  1  0  0  0
 18 19  2  0  0  0
 18 98  1  0  0  0
 19 20  1  0  0  0
 19 24  1  0  0  0
 20 21  2  0  0  0
 20 99  1  0  0  0
 21 23  1  0  0  0
 22 28  1  0  0  0
 22 32  2  0  0  0
 26 27  1  0  0  0
 28100  1  0  0  0
 28101  1  0  0  0
 29102  1  0  0  0
 29103  1  0  0  0
 33 34  1  0  0  0
 33 66  1  0  0  0
 33 70  2  0  0  0
 34 36  1  0  0  0
 34 59  1  0  0  0
 34104  1  0  0  0
 35 44  2  0  0  0
 35 45  1  0  0  0
 35 68  1  0  0  0
 36 56  1  0  0  0
 36105  1  0  0  0
 37 39  1  0  0  0
 37 47  1  0  0  0
 37 66  1  0  0  0
 37106  1  0  0  0
 38 43  2  0  0  0
 38 46  1  0  0  0
 38 47  1  0  0  0
 39 64  1  0  0  0
 39 67  2  0  0  0
 40 52  1  0  0  0
 40 53  2  0  0  0
 40 58  1  0  0  0
 41107  1  0  0  0
 41108  1  0  0  0
 41109  1  0  0  0
 41 48  1  0  0  0
 42 43  1  0  0  0
 42 66  1  0  0  0
 42110  1  0  0  0
 42111  1  0  0  0
 43 44  1  0  0  0
 44112  1  0  0  0
 45 46  2  0  0  0
 45113  1  0  0  0
 46114  1  0  0  0
 47115  1  0  0  0
 47116  1  0  0  0
 48 56  1  0  0  0
 48 65  1  0  0  0
 48117  1  0  0  0
 49 50  1  0  0  0
 49 53  1  0  0  0
 49 64  1  0  0  0
 49118  1  0  0  0
 50 51  1  0  0  0
 50119  1  0  0  0
 50120  1  0  0  0
 51 52  1  0  0  0
 51121  1  0  0  0
 51122  1  0  0  0
 52123  1  0  0  0
 52124  1  0  0  0
 53 54  1  0  0  0
 54 55  2  0  0  0
 54125  1  0  0  0
 55 57  1  0  0  0
 55126  1  0  0  0
 56 69  2  0  0  0
 57 58  2  0  0  0
 57127  1  0  0  0
 58128  1  0  0  0
 59 60  1  0  0  0
 59 61  1  0  0  0
 59 62  1  0  0  0
 60129  1  0  0  0
 60130  1  0  0  0
 60131  1  0  0  0
 61132  1  0  0  0
 61133  1  0  0  0
 61134  1  0  0  0
 62135  1  0  0  0
 62136  1  0  0  0
 62137  1  0  0  0
 63 65  1  0  0  0
 63138  1  0  0  0
 63139  1  0  0  0
 63140  1  0  0  0
 64141  1  0  0  0
 65142  1  0  0  0
 68 76  1  0  0  0
 71 72  2  0  0  0
 71 83  1  0  0  0
 71143  1  0  0  0
 72 75  1  0  0  0
 72 78  1  0  0  0
 73 78  2  0  0  0
 73 79  1  0  0  0
 73 83  1  0  0  0
 74 77  1  0  0  0
 74 79  1  0  0  0
 74 81  2  0  0  0
 75 80  1  0  0  0
 75144  1  0  0  0
 75145  1  0  0  0
 76 77  1  0  0  0
 76146  1  0  0  0
 76147  1  0  0  0
 77 82  1  0  0  0
 77148  1  0  0  0
 79149  1  0  0  0
 80150  1  0  0  0
M  ISO  4   1 100  68 101  76 101  80 100
M  END
> <chiral flag>
0

> <version>
0

> <s_m_source_file>
/data/baiqing/PycharmProjects/Reinvent-master-3.2/result/LINK_invent/BTK/process_docking_weight1_custom_product_contain_oxygen_bond_distance_aromatic_linkinvent_7_9_3/rearranged_h_0187.sdf

> <i_m_source_file_index>
14

> <r_mmod_Potential_Energy-OPLS-2005>
-250.619033813477

> <r_mmod_Stretch_Energy-OPLS-2005>
39.5181083679199

> <r_mmod_Bend_Energy-OPLS-2005>
97.230583190918

> <r_mmod_Torsional_Energy-OPLS-2005>
214.958877563477

> <r_mmod_Improper_Torsional_Energy-OPLS-2005>
4.36781215667725

> <r_mmod_Van_der_Waal_Energy-OPLS-2005>
136.789276123047

> <r_mmod_Electrostatic_Energy-OPLS-2005>
-530.487426757812

> <r_mmod_Solvation_Energy-OPLS-2005>
-233.697174072266

> <b_mmod_Minimization_Converged-OPLS-2005>
0

> <r_mmod_RMS_Derivative-OPLS-2005>
2.44287776947021

$$$$
15
                    3D
 Structure written by MMmdl.
155163  0  0  1  0            999 V2000
  -30.6236  -14.6809   20.4552 C   0  0  0  0  0  0
  -30.4355  -12.4029   19.4731 C   0  0  0  0  0  0
  -29.5091  -12.4868   18.2389 C   0  0  0  0  0  0
  -28.0377  -12.3176   18.6596 C   0  0  0  0  0  0
  -27.6539  -13.2222   19.8611 C   0  0  2  0  0  0
  -28.6975  -13.1161   20.9971 C   0  0  0  0  0  0
  -25.2570  -13.8190   20.5623 C   0  0  0  0  0  0
  -24.1854  -13.0472   20.9189 C   0  0  0  0  0  0
  -24.6423  -11.6950   20.8766 C   0  0  0  0  0  0
  -23.9085  -10.4328   21.0397 C   0  0  0  0  0  0
  -24.3633   -9.4243   21.9173 C   0  0  0  0  0  0
  -23.6305   -8.2279   22.0735 C   0  0  0  0  0  0
  -22.4285   -8.0318   21.3537 C   0  0  0  0  0  0
  -21.9934   -9.0295   20.4641 C   0  0  0  0  0  0
  -22.7252  -10.2180   20.3046 C   0  0  0  0  0  0
  -21.6864   -6.0776   22.5282 C   0  0  0  0  0  0
  -21.4019   -6.5670   23.8218 C   0  0  0  0  0  0
  -21.3649   -5.6812   24.9178 C   0  0  0  0  0  0
  -21.6033   -4.3072   24.7215 C   0  0  0  0  0  0
  -21.8819   -3.8182   23.4331 C   0  0  0  0  0  0
  -21.9199   -4.7007   22.3402 C   0  0  0  0  0  0
  -22.7892  -13.5252   21.1876 C   0  0  0  0  0  0
  -22.1673   -4.2206   21.0969 F   0  0  0  0  0  0
  -21.5624   -3.4538   25.7717 F   0  0  0  0  0  0
  -30.0125  -13.4514   20.4296 N   0  0  0  0  0  0
  -26.3011  -12.9389   20.3329 N   0  0  0  0  0  0
  -25.9355  -11.6552   20.5822 N   0  0  0  0  0  0
  -22.0559  -12.8208   22.0421 N   0  0  0  0  0  0
  -25.4315  -15.1888   20.3892 N   0  0  0  0  0  0
  -31.7826  -14.8172   20.0503 O   0  0  0  0  0  0
  -21.6646   -6.8918   21.4237 O   0  0  0  0  0  0
  -22.3550  -14.5551   20.6721 O   0  0  0  0  0  0
  -24.6281  -31.8605   23.2043 C   0  0  0  0  0  0
  -25.9129  -32.4781   23.8374 C   0  0  1  0  0  0
  -27.2047  -27.2931   20.1360 C   0  0  0  0  0  0
  -25.5921  -33.8584   24.2289 N   0  0  0  0  0  0
  -23.4216  -30.4873   21.5474 C   0  0  2  0  0  0
  -24.8687  -28.9495   20.1062 C   0  0  0  0  0  0
  -22.7506  -29.4632   22.4930 C   0  0  0  0  0  0
  -18.0292  -28.1433   22.8512 C   0  0  0  0  0  0
  -24.1489  -36.7298   23.2637 C   0  0  0  0  0  0
  -25.9663  -30.7824   21.3858 C   0  0  0  0  0  0
  -26.0360  -29.4077   20.7311 C   0  0  0  0  0  0
  -27.2074  -28.5891   20.7441 C   0  0  0  0  0  0
  -26.0408  -26.9336   19.4247 C   0  0  0  0  0  0
  -24.8740  -27.7161   19.4405 C   0  0  0  0  0  0
  -23.6380  -29.8328   20.1588 C   0  0  0  0  0  0
  -25.4114  -36.3085   24.0327 C   0  0  1  0  0  0
  -20.5895  -28.3739   23.1300 C   0  0  2  0  0  0
  -20.6799  -26.9434   22.5481 C   0  0  0  0  0  0
  -19.5782  -26.6399   21.5275 C   0  0  0  0  0  0
  -18.1966  -26.7951   22.1679 C   0  0  0  0  0  0
  -19.1537  -28.8910   23.2881 C   0  0  0  0  0  0
  -18.9453  -30.1541   23.8849 C   0  0  0  0  0  0
  -17.6449  -30.6644   24.0551 C   0  0  0  0  0  0
  -25.9057  -34.9453   23.5126 C   0  0  0  0  0  0
  -16.5341  -29.9102   23.6375 C   0  0  0  0  0  0
  -16.7280  -28.6532   23.0364 C   0  0  0  0  0  0
  -26.4529  -31.6567   25.0730 C   0  0  0  0  0  0
  -25.3767  -31.3688   26.1451 C   0  0  0  0  0  0
  -27.0366  -30.2978   24.6181 C   0  0  0  0  0  0
  -27.6080  -32.4316   25.7500 C   0  0  0  0  0  0
  -27.5577  -37.1801   24.8464 C   0  0  0  0  0  0
  -21.4213  -29.3048   22.3666 N   0  0  0  0  0  0
  -26.4279  -37.3785   23.9413 N   0  0  0  0  0  0
  -24.6895  -31.0601   22.1014 N   0  0  0  0  0  0
  -23.4231  -28.8175   23.3009 O   0  0  0  0  0  0
  -28.2927  -26.3979   20.1490 O   0  0  0  0  0  0
  -26.5631  -34.8922   22.4697 O   0  0  0  0  0  0
  -23.5445  -32.1372   23.7375 O   0  0  0  0  0  0
  -30.0358  -18.3810   20.9393 C   0  0  0  0  0  0
  -29.3639  -17.3323   18.9585 C   0  0  0  0  0  0
  -29.8085  -17.1168   20.2430 C   0  0  0  0  0  0
  -29.8253  -19.5292   20.1672 C   0  0  0  0  0  0
  -26.7493  -24.4178   20.7952 C   0  0  0  0  0  0
  -28.6523  -25.2048   22.1827 C   0  0  0  0  0  0
  -29.1157  -23.9193   20.0166 C   0  0  0  0  0  0
  -28.1808  -25.0119   20.7333 C   0  0  0  0  0  0
  -29.8680  -15.7681   20.8297 N   0  0  0  0  0  0
  -28.9018  -22.4475   20.3860 N   0  0  0  0  0  0
  -30.6603  -21.3403   21.9555 O   0  0  0  0  0  0
  -31.2217  -21.6960   19.5088 O   0  0  0  0  0  0
  -29.2581  -19.0514   18.5831 S   0  0  0  0  0  0
  -30.2487  -21.3031   20.5437 S   0  0  0  0  0  0
  -31.4794  -12.5089   19.1712 H   0  0  0  0  0  0
  -30.3633  -11.4175   19.9382 H   0  0  0  0  0  0
  -29.7756  -11.7131   17.5171 H   0  0  0  0  0  0
  -29.6464  -13.4419   17.7304 H   0  0  0  0  0  0
  -27.9001  -11.2711   18.9375 H   0  0  0  0  0  0
  -27.3716  -12.4926   17.8150 H   0  0  0  0  0  0
  -27.6678  -14.2481   19.4926 H   0  0  0  0  0  0
  -28.7181  -12.1040   21.4089 H   0  0  0  0  0  0
  -28.4374  -13.7782   21.8261 H   0  0  0  0  0  0
  -25.2756   -9.5742   22.4786 H   0  0  0  0  0  0
  -24.0025   -7.4670   22.7446 H   0  0  0  0  0  0
  -21.0871   -8.8809   19.8949 H   0  0  0  0  0  0
  -22.3659  -10.9739   19.6196 H   0  0  0  0  0  0
  -21.2007   -7.6181   23.9733 H   0  0  0  0  0  0
  -21.1454   -6.0544   25.9077 H   0  0  0  0  0  0
  -22.0589   -2.7648   23.2808 H   0  0  0  0  0  0
  -22.4170  -11.9841   22.4747 H   0  0  0  0  0  0
  -21.1173  -13.1233   22.2629 H   0  0  0  0  0  0
  -24.6655  -15.8514   20.4583 H   0  0  0  0  0  0
  -26.2699  -15.5983   19.9979 H   0  0  0  0  0  0
  -26.7192  -32.5463   23.1118 H   0  0  0  0  0  0
  -25.0014  -33.9726   25.0394 H   0  0  0  0  0  0
  -22.7171  -31.3087   21.4111 H   0  0  0  0  0  0
  -23.3742  -35.9642   23.3304 H   0  0  0  0  0  0
  -24.3574  -36.8914   22.2048 H   0  0  0  0  0  0
  -23.7244  -37.6502   23.6667 H   0  0  0  0  0  0
  -26.1026  -31.5404   20.6132 H   0  0  0  0  0  0
  -26.8462  -30.8294   22.0147 H   0  0  0  0  0  0
  -28.0977  -28.9337   21.2503 H   0  0  0  0  0  0
  -26.0184  -26.0171   18.8586 H   0  0  0  0  0  0
  -23.9923  -27.3707   18.9175 H   0  0  0  0  0  0
  -23.7650  -30.6200   19.4119 H   0  0  0  0  0  0
  -22.7559  -29.2697   19.8499 H   0  0  0  0  0  0
  -25.1302  -36.1934   25.0815 H   0  0  0  0  0  0
  -20.9989  -28.3397   24.1421 H   0  0  0  0  0  0
  -20.5669  -26.2389   23.3743 H   0  0  0  0  0  0
  -21.6661  -26.7458   22.1278 H   0  0  0  0  0  0
  -19.6970  -25.6289   21.1363 H   0  0  0  0  0  0
  -19.6760  -27.3175   20.6777 H   0  0  0  0  0  0
  -17.4219  -26.6615   21.4132 H   0  0  0  0  0  0
  -18.0430  -26.0114   22.9118 H   0  0  0  0  0  0
  -19.7912  -30.7398   24.2166 H   0  0  0  0  0  0
  -17.4968  -31.6325   24.5121 H   0  0  0  0  0  0
  -15.5340  -30.2959   23.7732 H   0  0  0  0  0  0
  -15.8675  -28.0854   22.7079 H   0  0  0  0  0  0
  -24.5931  -30.7060   25.7771 H   0  0  0  0  0  0
  -24.8983  -32.2856   26.4920 H   0  0  0  0  0  0
  -25.8097  -30.8819   27.0196 H   0  0  0  0  0  0
  -26.2944  -29.6704   24.1228 H   0  0  0  0  0  0
  -27.4075  -29.7247   25.4685 H   0  0  0  0  0  0
  -27.8824  -30.4235   23.9409 H   0  0  0  0  0  0
  -27.2675  -33.3598   26.2105 H   0  0  0  0  0  0
  -28.3883  -32.6899   25.0330 H   0  0  0  0  0  0
  -28.0770  -31.8420   26.5383 H   0  0  0  0  0  0
  -28.2610  -38.0079   24.7528 H   0  0  0  0  0  0
  -28.1051  -36.2624   24.6288 H   0  0  0  0  0  0
  -27.2305  -37.1469   25.8863 H   0  0  0  0  0  0
  -20.9379  -29.8748   21.6870 H   0  0  0  0  0  0
  -26.0155  -38.2857   24.1408 H   0  0  0  0  0  0
  -30.3878  -18.4227   21.9585 H   0  0  0  0  0  0
  -29.0680  -16.6132   18.2023 H   0  0  0  0  0  0
  -26.0345  -25.0901   21.2675 H   0  0  0  0  0  0
  -26.7200  -23.5116   21.3977 H   0  0  0  0  0  0
  -26.3789  -24.1355   19.8097 H   0  0  0  0  0  0
  -27.9626  -25.8402   22.7384 H   0  0  0  0  0  0
  -29.6319  -25.6799   22.2188 H   0  0  0  0  0  0
  -28.7251  -24.2559   22.7146 H   0  0  0  0  0  0
  -30.1609  -24.1754   20.1976 H   0  0  0  0  0  0
  -28.9913  -24.0057   18.9371 H   0  0  0  0  0  0
  -29.0499  -15.5161   21.3638 H   0  0  0  0  0  0
  -28.2526  -22.3244   21.1629 H   0  0  0  0  0  0
  1 25  1  0  0  0
  1 30  2  0  0  0
  1 79  1  0  0  0
  2  3  1  0  0  0
  2 25  1  0  0  0
  2 85  1  0  0  0
  2 86  1  0  0  0
  3  4  1  0  0  0
  3 87  1  0  0  0
  3 88  1  0  0  0
  4  5  1  0  0  0
  4 89  1  0  0  0
  4 90  1  0  0  0
  5  6  1  0  0  0
  5 26  1  0  0  0
  5 91  1  0  0  0
  6 25  1  0  0  0
  6 92  1  0  0  0
  6 93  1  0  0  0
  7  8  2  0  0  0
  7 26  1  0  0  0
  7 29  1  0  0  0
  8  9  1  0  0  0
  8 22  1  0  0  0
  9 10  1  0  0  0
  9 27  2  0  0  0
 10 11  2  0  0  0
 10 15  1  0  0  0
 11 12  1  0  0  0
 11 94  1  0  0  0
 12 13  2  0  0  0
 12 95  1  0  0  0
 13 14  1  0  0  0
 13 31  1  0  0  0
 14 15  2  0  0  0
 14 96  1  0  0  0
 15 97  1  0  0  0
 16 17  2  0  0  0
 16 21  1  0  0  0
 16 31  1  0  0  0
 17 18  1  0  0  0
 17 98  1  0  0  0
 18 19  2  0  0  0
 18 99  1  0  0  0
 19 20  1  0  0  0
 19 24  1  0  0  0
 20 21  2  0  0  0
 20100  1  0  0  0
 21 23  1  0  0  0
 22 28  1  0  0  0
 22 32  2  0  0  0
 26 27  1  0  0  0
 28101  1  0  0  0
 28102  1  0  0  0
 29103  1  0  0  0
 29104  1  0  0  0
 33 34  1  0  0  0
 33 66  1  0  0  0
 33 70  2  0  0  0
 34 36  1  0  0  0
 34 59  1  0  0  0
 34105  1  0  0  0
 35 44  2  0  0  0
 35 45  1  0  0  0
 35 68  1  0  0  0
 36 56  1  0  0  0
 36106  1  0  0  0
 37 39  1  0  0  0
 37 47  1  0  0  0
 37 66  1  0  0  0
 37107  1  0  0  0
 38 43  2  0  0  0
 38 46  1  0  0  0
 38 47  1  0  0  0
 39 64  1  0  0  0
 39 67  2  0  0  0
 40 52  1  0  0  0
 40 53  2  0  0  0
 40 58  1  0  0  0
 41108  1  0  0  0
 41109  1  0  0  0
 41110  1  0  0  0
 41 48  1  0  0  0
 42 43  1  0  0  0
 42 66  1  0  0  0
 42111  1  0  0  0
 42112  1  0  0  0
 43 44  1  0  0  0
 44113  1  0  0  0
 45 46  2  0  0  0
 45114  1  0  0  0
 46115  1  0  0  0
 47116  1  0  0  0
 47117  1  0  0  0
 48 56  1  0  0  0
 48 65  1  0  0  0
 48118  1  0  0  0
 49 50  1  0  0  0
 49 53  1  0  0  0
 49 64  1  0  0  0
 49119  1  0  0  0
 50 51  1  0  0  0
 50120  1  0  0  0
 50121  1  0  0  0
 51 52  1  0  0  0
 51122  1  0  0  0
 51123  1  0  0  0
 52124  1  0  0  0
 52125  1  0  0  0
 53 54  1  0  0  0
 54 55  2  0  0  0
 54126  1  0  0  0
 55 57  1  0  0  0
 55127  1  0  0  0
 56 69  2  0  0  0
 57 58  2  0  0  0
 57128  1  0  0  0
 58129  1  0  0  0
 59 60  1  0  0  0
 59 61  1  0  0  0
 59 62  1  0  0  0
 60130  1  0  0  0
 60131  1  0  0  0
 60132  1  0  0  0
 61133  1  0  0  0
 61134  1  0  0  0
 61135  1  0  0  0
 62136  1  0  0  0
 62137  1  0  0  0
 62138  1  0  0  0
 63 65  1  0  0  0
 63139  1  0  0  0
 63140  1  0  0  0
 63141  1  0  0  0
 64142  1  0  0  0
 65143  1  0  0  0
 68 78  1  0  0  0
 71 73  1  0  0  0
 71 74  2  0  0  0
 71144  1  0  0  0
 72 73  2  0  0  0
 72 83  1  0  0  0
 72145  1  0  0  0
 73 79  1  0  0  0
 74 83  1  0  0  0
 74 84  1  0  0  0
 75146  1  0  0  0
 75147  1  0  0  0
 75148  1  0  0  0
 75 78  1  0  0  0
 76 78  1  0  0  0
 76149  1  0  0  0
 76150  1  0  0  0
 76151  1  0  0  0
 77 78  1  0  0  0
 77 80  1  0  0  0
 77152  1  0  0  0
 77153  1  0  0  0
 79154  1  0  0  0
 80155  1  0  0  0
 80 84  1  0  0  0
 81 84  2  0  0  0
 82 84  2  0  0  0
M  ISO  4   1 100  68 101  78 101  79 100
M  END
> <chiral flag>
0

> <version>
0

> <s_m_source_file>
/data/baiqing/PycharmProjects/Reinvent-master-3.2/result/LINK_invent/BTK/process_docking_weight1_custom_product_contain_oxygen_bond_distance_aromatic_linkinvent_7_9_3/rearranged_h_0187.sdf

> <i_m_source_file_index>
15

> <r_mmod_Potential_Energy-OPLS-2005>
-19.5597229003906

> <r_mmod_Stretch_Energy-OPLS-2005>
91.9310073852539

> <r_mmod_Bend_Energy-OPLS-2005>
156.69709777832

> <r_mmod_Torsional_Energy-OPLS-2005>
296.145141601562

> <r_mmod_Improper_Torsional_Energy-OPLS-2005>
10.0497131347656

> <r_mmod_Van_der_Waal_Energy-OPLS-2005>
119.651786804199

> <r_mmod_Electrostatic_Energy-OPLS-2005>
-513.188354492188

> <r_mmod_Solvation_Energy-OPLS-2005>
-246.261322021484

> <b_mmod_Minimization_Converged-OPLS-2005>
0

> <r_mmod_RMS_Derivative-OPLS-2005>
3.75612473487854

$$$$
16
                    3D
 Structure written by MMmdl.
153161  0  0  1  0            999 V2000
  -30.6829  -14.4902   20.6244 C   0  0  0  0  0  0
  -30.4327  -12.3358   19.4124 C   0  0  0  0  0  0
  -29.4963  -12.5198   18.1993 C   0  0  0  0  0  0
  -28.0181  -12.3663   18.6140 C   0  0  0  0  0  0
  -27.6591  -13.2068   19.8684 C   0  0  2  0  0  0
  -28.6993  -12.9804   20.9871 C   0  0  0  0  0  0
  -25.2574  -13.8140   20.5654 C   0  0  0  0  0  0
  -24.1832  -13.0420   20.9163 C   0  0  0  0  0  0
  -24.6385  -11.6893   20.8709 C   0  0  0  0  0  0
  -23.9060  -10.4284   21.0392 C   0  0  0  0  0  0
  -24.3618   -9.4198   21.9174 C   0  0  0  0  0  0
  -23.6288   -8.2243   22.0748 C   0  0  0  0  0  0
  -22.4270   -8.0284   21.3541 C   0  0  0  0  0  0
  -21.9894   -9.0254   20.4649 C   0  0  0  0  0  0
  -22.7225  -10.2129   20.3047 C   0  0  0  0  0  0
  -21.6851   -6.0724   22.5274 C   0  0  0  0  0  0
  -21.4019   -6.5638   23.8207 C   0  0  0  0  0  0
  -21.3664   -5.6791   24.9178 C   0  0  0  0  0  0
  -21.6043   -4.3050   24.7224 C   0  0  0  0  0  0
  -21.8818   -3.8140   23.4346 C   0  0  0  0  0  0
  -21.9194   -4.6956   22.3403 C   0  0  0  0  0  0
  -22.7863  -13.5231   21.1842 C   0  0  0  0  0  0
  -22.1663   -4.2152   21.0974 F   0  0  0  0  0  0
  -21.5631   -3.4530   25.7733 F   0  0  0  0  0  0
  -30.0279  -13.3083   20.4403 N   0  0  0  0  0  0
  -26.3005  -12.9320   20.3303 N   0  0  0  0  0  0
  -25.9304  -11.6479   20.5711 N   0  0  0  0  0  0
  -22.0505  -12.8242   22.0412 N   0  0  0  0  0  0
  -25.4285  -15.1862   20.4077 N   0  0  0  0  0  0
  -31.7799  -14.7205   20.1050 O   0  0  0  0  0  0
  -21.6633   -6.8869   21.4238 O   0  0  0  0  0  0
  -22.3553  -14.5540   20.6693 O   0  0  0  0  0  0
  -24.6190  -31.8658   23.2045 C   0  0  0  0  0  0
  -25.9070  -32.4803   23.8361 C   0  0  1  0  0  0
  -27.2436  -27.4103   20.0852 C   0  0  0  0  0  0
  -25.5927  -33.8589   24.2323 N   0  0  0  0  0  0
  -23.4065  -30.4881   21.5481 C   0  0  2  0  0  0
  -24.8495  -28.9437   20.1197 C   0  0  0  0  0  0
  -22.7435  -29.4650   22.4986 C   0  0  0  0  0  0
  -18.0278  -28.1370   22.8492 C   0  0  0  0  0  0
  -24.1490  -36.7293   23.2635 C   0  0  0  0  0  0
  -25.9360  -30.8265   21.3528 C   0  0  0  0  0  0
  -26.0114  -29.4558   20.7043 C   0  0  0  0  0  0
  -27.2068  -28.6984   20.6797 C   0  0  0  0  0  0
  -26.0426  -26.8989   19.5454 C   0  0  0  0  0  0
  -24.8589  -27.6635   19.5416 C   0  0  0  0  0  0
  -23.6155  -29.8156   20.1647 C   0  0  0  0  0  0
  -25.4106  -36.3088   24.0348 C   0  0  1  0  0  0
  -20.5876  -28.3665   23.1307 C   0  0  2  0  0  0
  -20.6769  -26.9399   22.5407 C   0  0  0  0  0  0
  -19.5746  -26.6387   21.5208 C   0  0  0  0  0  0
  -18.1924  -26.7920   22.1624 C   0  0  0  0  0  0
  -19.1530  -28.8835   23.2902 C   0  0  0  0  0  0
  -18.9455  -30.1438   23.8920 C   0  0  0  0  0  0
  -17.6458  -30.6582   24.0564 C   0  0  0  0  0  0
  -25.9034  -34.9456   23.5135 C   0  0  0  0  0  0
  -16.5348  -29.9084   23.6318 C   0  0  0  0  0  0
  -16.7269  -28.6495   23.0350 C   0  0  0  0  0  0
  -26.4500  -31.6569   25.0674 C   0  0  0  0  0  0
  -25.3775  -31.3671   26.1437 C   0  0  0  0  0  0
  -27.0329  -30.3021   24.6012 C   0  0  0  0  0  0
  -27.6079  -32.4273   25.7442 C   0  0  0  0  0  0
  -27.5584  -37.1798   24.8476 C   0  0  0  0  0  0
  -21.4166  -29.3031   22.3723 N   0  0  0  0  0  0
  -26.4291  -37.3775   23.9420 N   0  0  0  0  0  0
  -24.6738  -31.0738   22.0949 N   0  0  0  0  0  0
  -23.4194  -28.8198   23.3039 O   0  0  0  0  0  0
  -28.4537  -26.7282   20.0761 O   0  0  0  0  0  0
  -26.5582  -34.8925   22.4681 O   0  0  0  0  0  0
  -23.5381  -32.1408   23.7430 O   0  0  0  0  0  0
  -29.4242  -19.8239   19.0405 C   0  0  0  0  0  0
  -29.3500  -20.4377   20.2710 C   0  0  0  0  0  0
  -30.0043  -18.3275   20.9167 C   0  0  0  0  0  0
  -28.9330  -22.8452   19.6405 C   0  0  0  0  0  0
  -28.3597  -25.5922   17.8468 C   0  0  0  0  0  0
  -28.2852  -24.1847   20.1081 C   0  0  0  0  0  0
  -28.7113  -25.4951   19.3533 C   0  0  2  0  0  0
  -29.6787  -19.5732   21.3310 N   0  0  0  0  0  0
  -28.9212  -21.7910   20.4958 N   0  0  0  0  0  0
  -30.0115  -15.4573   21.3837 N   0  0  0  0  0  0
  -29.4560  -22.7732   18.5270 O   0  0  0  0  0  0
  -32.0428  -17.0107   22.0028 O   0  0  0  0  0  0
  -29.8487  -17.1919   23.2734 O   0  0  0  0  0  0
  -29.9049  -18.1415   19.1704 S   0  0  0  0  0  0
  -30.5658  -16.9802   22.0011 S   0  0  0  0  0  0
  -31.4755  -12.4571   19.1107 H   0  0  0  0  0  0
  -30.3533  -11.3208   19.8048 H   0  0  0  0  0  0
  -29.7422  -11.7970   17.4208 H   0  0  0  0  0  0
  -29.6551  -13.5075   17.7617 H   0  0  0  0  0  0
  -27.8396  -11.3090   18.8160 H   0  0  0  0  0  0
  -27.3625  -12.6324   17.7835 H   0  0  0  0  0  0
  -27.7028  -14.2549   19.5722 H   0  0  0  0  0  0
  -28.6831  -11.9376   21.3050 H   0  0  0  0  0  0
  -28.4449  -13.5550   21.8793 H   0  0  0  0  0  0
  -25.2766   -9.5675   22.4745 H   0  0  0  0  0  0
  -24.0006   -7.4615   22.7458 H   0  0  0  0  0  0
  -21.0817   -8.8764   19.8951 H   0  0  0  0  0  0
  -22.3675  -10.9671   19.6156 H   0  0  0  0  0  0
  -21.2013   -7.6146   23.9716 H   0  0  0  0  0  0
  -21.1489   -6.0519   25.9081 H   0  0  0  0  0  0
  -22.0592   -2.7602   23.2836 H   0  0  0  0  0  0
  -22.4149  -11.9928   22.4835 H   0  0  0  0  0  0
  -21.1123  -13.1276   22.2620 H   0  0  0  0  0  0
  -24.6483  -15.8294   20.4864 H   0  0  0  0  0  0
  -26.2646  -15.6207   20.0380 H   0  0  0  0  0  0
  -26.7131  -32.5517   23.1114 H   0  0  0  0  0  0
  -25.0139  -33.9731   25.0519 H   0  0  0  0  0  0
  -22.6957  -31.3052   21.4048 H   0  0  0  0  0  0
  -23.3752  -35.9626   23.3294 H   0  0  0  0  0  0
  -24.3607  -36.8894   22.2052 H   0  0  0  0  0  0
  -23.7247  -37.6500   23.6644 H   0  0  0  0  0  0
  -26.0416  -31.5890   20.5788 H   0  0  0  0  0  0
  -26.8255  -30.8887   21.9687 H   0  0  0  0  0  0
  -28.1087  -29.1026   21.1156 H   0  0  0  0  0  0
  -25.9898  -25.9017   19.1437 H   0  0  0  0  0  0
  -23.9568  -27.2507   19.1109 H   0  0  0  0  0  0
  -23.7264  -30.5851   19.3998 H   0  0  0  0  0  0
  -22.7382  -29.2354   19.8718 H   0  0  0  0  0  0
  -25.1278  -36.1944   25.0844 H   0  0  0  0  0  0
  -20.9968  -28.3228   24.1424 H   0  0  0  0  0  0
  -20.5672  -26.2280   23.3599 H   0  0  0  0  0  0
  -21.6643  -26.7438   22.1199 H   0  0  0  0  0  0
  -19.6909  -25.6304   21.1218 H   0  0  0  0  0  0
  -19.6674  -27.3214   20.6751 H   0  0  0  0  0  0
  -17.4201  -26.6671   21.4024 H   0  0  0  0  0  0
  -18.0320  -26.0054   22.9008 H   0  0  0  0  0  0
  -19.7929  -30.7243   24.2313 H   0  0  0  0  0  0
  -17.5010  -31.6266   24.5157 H   0  0  0  0  0  0
  -15.5348  -30.2999   23.7620 H   0  0  0  0  0  0
  -15.8667  -28.0818   22.7060 H   0  0  0  0  0  0
  -24.5947  -30.7013   25.7786 H   0  0  0  0  0  0
  -24.8970  -32.2832   26.4887 H   0  0  0  0  0  0
  -25.8143  -30.8845   27.0192 H   0  0  0  0  0  0
  -26.2852  -29.6754   24.1136 H   0  0  0  0  0  0
  -27.4226  -29.7269   25.4417 H   0  0  0  0  0  0
  -27.8632  -30.4357   23.9064 H   0  0  0  0  0  0
  -27.2712  -33.3571   26.2042 H   0  0  0  0  0  0
  -28.3896  -32.6831   25.0268 H   0  0  0  0  0  0
  -28.0756  -31.8378   26.5340 H   0  0  0  0  0  0
  -28.2612  -38.0086   24.7523 H   0  0  0  0  0  0
  -28.1075  -36.2620   24.6303 H   0  0  0  0  0  0
  -27.2314  -37.1463   25.8883 H   0  0  0  0  0  0
  -20.9337  -29.8765   21.6949 H   0  0  0  0  0  0
  -26.0179  -38.2854   24.1407 H   0  0  0  0  0  0
  -29.2194  -20.2455   18.0645 H   0  0  0  0  0  0
  -28.9304  -24.8769   17.2568 H   0  0  0  0  0  0
  -28.6021  -26.5783   17.4512 H   0  0  0  0  0  0
  -27.3141  -25.3956   17.6245 H   0  0  0  0  0  0
  -28.5461  -24.3111   21.1587 H   0  0  0  0  0  0
  -27.2028  -24.0718   20.0776 H   0  0  0  0  0  0
  -29.8021  -25.4736   19.3636 H   0  0  0  0  0  0
  -28.5683  -21.9853   21.4230 H   0  0  0  0  0  0
  -29.0480  -15.3005   21.6594 H   0  0  0  0  0  0
  1 25  1  0  0  0
  1 30  2  0  0  0
  1 80  1  0  0  0
  2  3  1  0  0  0
  2 25  1  0  0  0
  2 86  1  0  0  0
  2 87  1  0  0  0
  3  4  1  0  0  0
  3 88  1  0  0  0
  3 89  1  0  0  0
  4  5  1  0  0  0
  4 90  1  0  0  0
  4 91  1  0  0  0
  5  6  1  0  0  0
  5 26  1  0  0  0
  5 92  1  0  0  0
  6 25  1  0  0  0
  6 93  1  0  0  0
  6 94  1  0  0  0
  7  8  2  0  0  0
  7 26  1  0  0  0
  7 29  1  0  0  0
  8  9  1  0  0  0
  8 22  1  0  0  0
  9 10  1  0  0  0
  9 27  2  0  0  0
 10 11  2  0  0  0
 10 15  1  0  0  0
 11 12  1  0  0  0
 11 95  1  0  0  0
 12 13  2  0  0  0
 12 96  1  0  0  0
 13 14  1  0  0  0
 13 31  1  0  0  0
 14 15  2  0  0  0
 14 97  1  0  0  0
 15 98  1  0  0  0
 16 17  2  0  0  0
 16 21  1  0  0  0
 16 31  1  0  0  0
 17 18  1  0  0  0
 17 99  1  0  0  0
 18 19  2  0  0  0
 18100  1  0  0  0
 19 20  1  0  0  0
 19 24  1  0  0  0
 20 21  2  0  0  0
 20101  1  0  0  0
 21 23  1  0  0  0
 22 28  1  0  0  0
 22 32  2  0  0  0
 26 27  1  0  0  0
 28102  1  0  0  0
 28103  1  0  0  0
 29104  1  0  0  0
 29105  1  0  0  0
 33 34  1  0  0  0
 33 66  1  0  0  0
 33 70  2  0  0  0
 34 36  1  0  0  0
 34 59  1  0  0  0
 34106  1  0  0  0
 35 44  2  0  0  0
 35 45  1  0  0  0
 35 68  1  0  0  0
 36 56  1  0  0  0
 36107  1  0  0  0
 37 39  1  0  0  0
 37 47  1  0  0  0
 37 66  1  0  0  0
 37108  1  0  0  0
 38 43  2  0  0  0
 38 46  1  0  0  0
 38 47  1  0  0  0
 39 64  1  0  0  0
 39 67  2  0  0  0
 40 52  1  0  0  0
 40 53  2  0  0  0
 40 58  1  0  0  0
 41109  1  0  0  0
 41110  1  0  0  0
 41111  1  0  0  0
 41 48  1  0  0  0
 42 43  1  0  0  0
 42 66  1  0  0  0
 42112  1  0  0  0
 42113  1  0  0  0
 43 44  1  0  0  0
 44114  1  0  0  0
 45 46  2  0  0  0
 45115  1  0  0  0
 46116  1  0  0  0
 47117  1  0  0  0
 47118  1  0  0  0
 48 56  1  0  0  0
 48 65  1  0  0  0
 48119  1  0  0  0
 49 50  1  0  0  0
 49 53  1  0  0  0
 49 64  1  0  0  0
 49120  1  0  0  0
 50 51  1  0  0  0
 50121  1  0  0  0
 50122  1  0  0  0
 51 52  1  0  0  0
 51123  1  0  0  0
 51124  1  0  0  0
 52125  1  0  0  0
 52126  1  0  0  0
 53 54  1  0  0  0
 54 55  2  0  0  0
 54127  1  0  0  0
 55 57  1  0  0  0
 55128  1  0  0  0
 56 69  2  0  0  0
 57 58  2  0  0  0
 57129  1  0  0  0
 58130  1  0  0  0
 59 60  1  0  0  0
 59 61  1  0  0  0
 59 62  1  0  0  0
 60131  1  0  0  0
 60132  1  0  0  0
 60133  1  0  0  0
 61134  1  0  0  0
 61135  1  0  0  0
 61136  1  0  0  0
 62137  1  0  0  0
 62138  1  0  0  0
 62139  1  0  0  0
 63 65  1  0  0  0
 63140  1  0  0  0
 63141  1  0  0  0
 63142  1  0  0  0
 64143  1  0  0  0
 65144  1  0  0  0
 68 77  1  0  0  0
 71 72  2  0  0  0
 71 84  1  0  0  0
 71145  1  0  0  0
 72 78  1  0  0  0
 72 79  1  0  0  0
 73 78  2  0  0  0
 73 84  1  0  0  0
 73 85  1  0  0  0
 74 76  1  0  0  0
 74 79  1  0  0  0
 74 81  2  0  0  0
 75146  1  0  0  0
 75147  1  0  0  0
 75148  1  0  0  0
 75 77  1  0  0  0
 76 77  1  0  0  0
 76149  1  0  0  0
 76150  1  0  0  0
 77151  1  0  0  0
 79152  1  0  0  0
 80153  1  0  0  0
 80 85  1  0  0  0
 82 85  2  0  0  0
 83 85  2  0  0  0
M  ISO  4   1 100  68 101  77 101  80 100
M  END
> <chiral flag>
0

> <version>
0

> <s_m_source_file>
/data/baiqing/PycharmProjects/Reinvent-master-3.2/result/LINK_invent/BTK/process_docking_weight1_custom_product_contain_oxygen_bond_distance_aromatic_linkinvent_7_9_3/rearranged_h_0187.sdf

> <i_m_source_file_index>
16

> <r_mmod_Potential_Energy-OPLS-2005>
-272.001007080078

> <r_mmod_Stretch_Energy-OPLS-2005>
44.8286399841309

> <r_mmod_Bend_Energy-OPLS-2005>
139.462631225586

> <r_mmod_Torsional_Energy-OPLS-2005>
162.748107910156

> <r_mmod_Improper_Torsional_Energy-OPLS-2005>
2.49135589599609

> <r_mmod_Van_der_Waal_Energy-OPLS-2005>
123.660865783691

> <r_mmod_Electrostatic_Energy-OPLS-2005>
-487.057373046875

> <r_mmod_Solvation_Energy-OPLS-2005>
-272.889984130859

> <b_mmod_Minimization_Converged-OPLS-2005>
0

> <r_mmod_RMS_Derivative-OPLS-2005>
2.591068983078

$$$$
17
                    3D
 Structure written by MMmdl.
150158  0  0  1  0            999 V2000
  -30.5997  -14.7822   20.4559 C   0  0  0  0  0  0
  -30.4329  -12.4800   19.4760 C   0  0  0  0  0  0
  -29.5123  -12.5114   18.2362 C   0  0  0  0  0  0
  -28.0388  -12.3301   18.6499 C   0  0  0  0  0  0
  -27.6385  -13.2362   19.8453 C   0  0  2  0  0  0
  -28.6830  -13.1899   20.9808 C   0  0  0  0  0  0
  -25.2500  -13.8206   20.5689 C   0  0  0  0  0  0
  -24.1800  -13.0450   20.9217 C   0  0  0  0  0  0
  -24.6396  -11.6928   20.8748 C   0  0  0  0  0  0
  -23.9071  -10.4304   21.0402 C   0  0  0  0  0  0
  -24.3623   -9.4219   21.9178 C   0  0  0  0  0  0
  -23.6300   -8.2254   22.0750 C   0  0  0  0  0  0
  -22.4284   -8.0283   21.3542 C   0  0  0  0  0  0
  -21.9918   -9.0256   20.4648 C   0  0  0  0  0  0
  -22.7243  -10.2137   20.3056 C   0  0  0  0  0  0
  -21.6864   -6.0735   22.5275 C   0  0  0  0  0  0
  -21.4019   -6.5637   23.8208 C   0  0  0  0  0  0
  -21.3661   -5.6789   24.9167 C   0  0  0  0  0  0
  -21.6049   -4.3054   24.7219 C   0  0  0  0  0  0
  -21.8818   -3.8144   23.4340 C   0  0  0  0  0  0
  -21.9194   -4.6961   22.3398 C   0  0  0  0  0  0
  -22.7822  -13.5224   21.1869 C   0  0  0  0  0  0
  -22.1664   -4.2147   21.0977 F   0  0  0  0  0  0
  -21.5632   -3.4535   25.7731 F   0  0  0  0  0  0
  -29.9771  -13.5524   20.3922 N   0  0  0  0  0  0
  -26.2925  -12.9423   20.3257 N   0  0  0  0  0  0
  -25.9326  -11.6564   20.5743 N   0  0  0  0  0  0
  -22.0468  -12.8216   22.0430 N   0  0  0  0  0  0
  -25.4162  -15.1941   20.4093 N   0  0  0  0  0  0
  -31.7958  -14.8666   20.1643 O   0  0  0  0  0  0
  -21.6649   -6.8881   21.4239 O   0  0  0  0  0  0
  -22.3501  -14.5520   20.6699 O   0  0  0  0  0  0
  -24.6331  -31.8527   23.1954 C   0  0  0  0  0  0
  -25.9149  -32.4743   23.8306 C   0  0  1  0  0  0
  -27.2188  -27.2409   20.1442 C   0  0  0  0  0  0
  -25.5932  -33.8544   24.2231 N   0  0  0  0  0  0
  -23.4312  -30.4731   21.5394 C   0  0  2  0  0  0
  -24.8779  -28.9089   20.1162 C   0  0  0  0  0  0
  -22.7514  -29.4590   22.4913 C   0  0  0  0  0  0
  -18.0297  -28.1401   22.8489 C   0  0  0  0  0  0
  -24.1487  -36.7276   23.2643 C   0  0  0  0  0  0
  -25.9773  -30.7604   21.3752 C   0  0  0  0  0  0
  -26.0504  -29.3780   20.7231 C   0  0  0  0  0  0
  -27.2263  -28.5582   20.7202 C   0  0  0  0  0  0
  -26.0273  -26.8375   19.5098 C   0  0  0  0  0  0
  -24.8712  -27.6464   19.4992 C   0  0  0  0  0  0
  -23.6507  -29.8017   20.1577 C   0  0  0  0  0  0
  -25.4117  -36.3063   24.0322 C   0  0  1  0  0  0
  -20.5900  -28.3707   23.1271 C   0  0  2  0  0  0
  -20.6788  -26.9426   22.5412 C   0  0  0  0  0  0
  -19.5757  -26.6394   21.5223 C   0  0  0  0  0  0
  -18.1936  -26.7945   22.1630 C   0  0  0  0  0  0
  -19.1551  -28.8873   23.2874 C   0  0  0  0  0  0
  -18.9472  -30.1472   23.8892 C   0  0  0  0  0  0
  -17.6470  -30.6598   24.0573 C   0  0  0  0  0  0
  -25.9058  -34.9437   23.5081 C   0  0  0  0  0  0
  -16.5361  -29.9098   23.6335 C   0  0  0  0  0  0
  -16.7284  -28.6519   23.0353 C   0  0  0  0  0  0
  -26.4513  -31.6576   25.0703 C   0  0  0  0  0  0
  -25.3731  -31.3738   26.1421 C   0  0  0  0  0  0
  -27.0354  -30.2987   24.6194 C   0  0  0  0  0  0
  -27.6057  -32.4327   25.7482 C   0  0  0  0  0  0
  -27.5575  -37.1796   24.8470 C   0  0  0  0  0  0
  -21.4222  -29.3042   22.3656 N   0  0  0  0  0  0
  -26.4292  -37.3765   23.9408 N   0  0  0  0  0  0
  -24.7001  -31.0476   22.0935 N   0  0  0  0  0  0
  -23.4207  -28.8147   23.3034 O   0  0  0  0  0  0
  -28.3199  -26.3504   20.1306 O   0  0  0  0  0  0
  -26.5644  -34.8922   22.4658 O   0  0  0  0  0  0
  -23.5473  -32.1353   23.7239 O   0  0  0  0  0  0
  -29.4353  -18.6676   20.3283 C   0  0  0  0  0  0
  -28.4356  -18.7213   19.3842 C   0  0  0  0  0  0
  -28.8788  -21.0304   20.2423 C   0  0  0  0  0  0
  -28.3393  -23.6188   20.0768 C   0  0  0  0  0  0
  -27.2521  -24.9911   21.9835 C   0  0  0  0  0  0
  -30.2992  -17.3966   20.7679 C   0  0  0  0  0  0
  -28.3248  -25.0262   20.8778 C   0  0  1  0  0  0
  -29.6478  -20.0281   20.8091 N   0  0  0  0  0  0
  -28.9117  -22.4713   20.6339 N   0  0  0  0  0  0
  -29.8380  -15.9309   20.6581 N   0  0  0  0  0  0
  -27.8233  -23.5894   18.9565 O   0  0  0  0  0  0
  -27.9829  -17.6315   18.7164 F   0  0  0  0  0  0
  -27.7867  -20.3260   19.0405 S   0  0  0  0  0  0
  -31.4736  -12.6086   19.1729 H   0  0  0  0  0  0
  -30.3830  -11.5082   19.9701 H   0  0  0  0  0  0
  -29.8026  -11.7316   17.5315 H   0  0  0  0  0  0
  -29.6327  -13.4612   17.7114 H   0  0  0  0  0  0
  -27.9017  -11.2823   18.9200 H   0  0  0  0  0  0
  -27.3810  -12.5122   17.7993 H   0  0  0  0  0  0
  -27.6261  -14.2541   19.4547 H   0  0  0  0  0  0
  -28.7296  -12.1980   21.4315 H   0  0  0  0  0  0
  -28.4119  -13.8785   21.7830 H   0  0  0  0  0  0
  -25.2772   -9.5699   22.4748 H   0  0  0  0  0  0
  -24.0012   -7.4651   22.7470 H   0  0  0  0  0  0
  -21.0845   -8.8771   19.8964 H   0  0  0  0  0  0
  -22.3690  -10.9670   19.6169 H   0  0  0  0  0  0
  -21.2011   -7.6145   23.9709 H   0  0  0  0  0  0
  -21.1494   -6.0518   25.9067 H   0  0  0  0  0  0
  -22.0596   -2.7604   23.2837 H   0  0  0  0  0  0
  -22.4089  -11.9888   22.4834 H   0  0  0  0  0  0
  -21.1081  -13.1234   22.2621 H   0  0  0  0  0  0
  -24.6391  -15.8380   20.5100 H   0  0  0  0  0  0
  -26.2454  -15.6353   20.0322 H   0  0  0  0  0  0
  -26.7217  -32.5391   23.1048 H   0  0  0  0  0  0
  -25.0072  -33.9669   25.0372 H   0  0  0  0  0  0
  -22.7293  -31.2959   21.3906 H   0  0  0  0  0  0
  -23.3749  -35.9609   23.3312 H   0  0  0  0  0  0
  -24.3572  -36.8895   22.2056 H   0  0  0  0  0  0
  -23.7244  -37.6479   23.6667 H   0  0  0  0  0  0
  -26.1140  -31.5172   20.6012 H   0  0  0  0  0  0
  -26.8562  -30.8150   22.0061 H   0  0  0  0  0  0
  -28.1299  -28.9167   21.1920 H   0  0  0  0  0  0
  -25.9861  -25.8675   19.0339 H   0  0  0  0  0  0
  -23.9733  -27.2816   19.0195 H   0  0  0  0  0  0
  -23.7834  -30.5759   19.4015 H   0  0  0  0  0  0
  -22.7678  -29.2383   19.8497 H   0  0  0  0  0  0
  -25.1304  -36.1905   25.0815 H   0  0  0  0  0  0
  -20.9987  -28.3293   24.1395 H   0  0  0  0  0  0
  -20.5701  -26.2321   23.3621 H   0  0  0  0  0  0
  -21.6657  -26.7464   22.1196 H   0  0  0  0  0  0
  -19.6920  -25.6305   21.1253 H   0  0  0  0  0  0
  -19.6694  -27.3209   20.6756 H   0  0  0  0  0  0
  -17.4211  -26.6699   21.4027 H   0  0  0  0  0  0
  -18.0329  -26.0091   22.9027 H   0  0  0  0  0  0
  -19.7947  -30.7294   24.2255 H   0  0  0  0  0  0
  -17.5026  -31.6274   24.5184 H   0  0  0  0  0  0
  -15.5361  -30.3004   23.7658 H   0  0  0  0  0  0
  -15.8685  -28.0840   22.7063 H   0  0  0  0  0  0
  -24.5906  -30.7086   25.7755 H   0  0  0  0  0  0
  -24.8925  -32.2913   26.4826 H   0  0  0  0  0  0
  -25.8040  -30.8932   27.0213 H   0  0  0  0  0  0
  -26.2929  -29.6733   24.1220 H   0  0  0  0  0  0
  -27.4036  -29.7253   25.4713 H   0  0  0  0  0  0
  -27.8811  -30.4259   23.9432 H   0  0  0  0  0  0
  -27.2652  -33.3633   26.2036 H   0  0  0  0  0  0
  -28.3877  -32.6878   25.0319 H   0  0  0  0  0  0
  -28.0716  -31.8471   26.5418 H   0  0  0  0  0  0
  -28.2605  -38.0081   24.7502 H   0  0  0  0  0  0
  -28.1056  -36.2611   24.6315 H   0  0  0  0  0  0
  -27.2292  -37.1474   25.8874 H   0  0  0  0  0  0
  -20.9422  -29.8749   21.6838 H   0  0  0  0  0  0
  -26.0164  -38.2835   24.1410 H   0  0  0  0  0  0
  -26.2454  -24.9706   21.5668 H   0  0  0  0  0  0
  -27.3306  -25.8596   22.6384 H   0  0  0  0  0  0
  -27.3590  -24.1052   22.6102 H   0  0  0  0  0  0
  -30.5816  -17.5304   21.8123 H   0  0  0  0  0  0
  -31.2473  -17.4576   20.2322 H   0  0  0  0  0  0
  -29.2853  -25.0399   21.3937 H   0  0  0  0  0  0
  -29.3992  -22.6459   21.5002 H   0  0  0  0  0  0
  -28.8540  -15.7753   20.8128 H   0  0  0  0  0  0
  1 25  1  0  0  0
  1 30  2  0  0  0
  1 80  1  0  0  0
  2  3  1  0  0  0
  2 25  1  0  0  0
  2 84  1  0  0  0
  2 85  1  0  0  0
  3  4  1  0  0  0
  3 86  1  0  0  0
  3 87  1  0  0  0
  4  5  1  0  0  0
  4 88  1  0  0  0
  4 89  1  0  0  0
  5  6  1  0  0  0
  5 26  1  0  0  0
  5 90  1  0  0  0
  6 25  1  0  0  0
  6 91  1  0  0  0
  6 92  1  0  0  0
  7  8  2  0  0  0
  7 26  1  0  0  0
  7 29  1  0  0  0
  8  9  1  0  0  0
  8 22  1  0  0  0
  9 10  1  0  0  0
  9 27  2  0  0  0
 10 11  2  0  0  0
 10 15  1  0  0  0
 11 12  1  0  0  0
 11 93  1  0  0  0
 12 13  2  0  0  0
 12 94  1  0  0  0
 13 14  1  0  0  0
 13 31  1  0  0  0
 14 15  2  0  0  0
 14 95  1  0  0  0
 15 96  1  0  0  0
 16 17  2  0  0  0
 16 21  1  0  0  0
 16 31  1  0  0  0
 17 18  1  0  0  0
 17 97  1  0  0  0
 18 19  2  0  0  0
 18 98  1  0  0  0
 19 20  1  0  0  0
 19 24  1  0  0  0
 20 21  2  0  0  0
 20 99  1  0  0  0
 21 23  1  0  0  0
 22 28  1  0  0  0
 22 32  2  0  0  0
 26 27  1  0  0  0
 28100  1  0  0  0
 28101  1  0  0  0
 29102  1  0  0  0
 29103  1  0  0  0
 33 34  1  0  0  0
 33 66  1  0  0  0
 33 70  2  0  0  0
 34 36  1  0  0  0
 34 59  1  0  0  0
 34104  1  0  0  0
 35 44  2  0  0  0
 35 45  1  0  0  0
 35 68  1  0  0  0
 36 56  1  0  0  0
 36105  1  0  0  0
 37 39  1  0  0  0
 37 47  1  0  0  0
 37 66  1  0  0  0
 37106  1  0  0  0
 38 43  2  0  0  0
 38 46  1  0  0  0
 38 47  1  0  0  0
 39 64  1  0  0  0
 39 67  2  0  0  0
 40 52  1  0  0  0
 40 53  2  0  0  0
 40 58  1  0  0  0
 41107  1  0  0  0
 41108  1  0  0  0
 41109  1  0  0  0
 41 48  1  0  0  0
 42 43  1  0  0  0
 42 66  1  0  0  0
 42110  1  0  0  0
 42111  1  0  0  0
 43 44  1  0  0  0
 44112  1  0  0  0
 45 46  2  0  0  0
 45113  1  0  0  0
 46114  1  0  0  0
 47115  1  0  0  0
 47116  1  0  0  0
 48 56  1  0  0  0
 48 65  1  0  0  0
 48117  1  0  0  0
 49 50  1  0  0  0
 49 53  1  0  0  0
 49 64  1  0  0  0
 49118  1  0  0  0
 50 51  1  0  0  0
 50119  1  0  0  0
 50120  1  0  0  0
 51 52  1  0  0  0
 51121  1  0  0  0
 51122  1  0  0  0
 52123  1  0  0  0
 52124  1  0  0  0
 53 54  1  0  0  0
 54 55  2  0  0  0
 54125  1  0  0  0
 55 57  1  0  0  0
 55126  1  0  0  0
 56 69  2  0  0  0
 57 58  2  0  0  0
 57127  1  0  0  0
 58128  1  0  0  0
 59 60  1  0  0  0
 59 61  1  0  0  0
 59 62  1  0  0  0
 60129  1  0  0  0
 60130  1  0  0  0
 60131  1  0  0  0
 61132  1  0  0  0
 61133  1  0  0  0
 61134  1  0  0  0
 62135  1  0  0  0
 62136  1  0  0  0
 62137  1  0  0  0
 63 65  1  0  0  0
 63138  1  0  0  0
 63139  1  0  0  0
 63140  1  0  0  0
 64141  1  0  0  0
 65142  1  0  0  0
 68 77  1  0  0  0
 71 72  2  0  0  0
 71 76  1  0  0  0
 71 78  1  0  0  0
 72 82  1  0  0  0
 72 83  1  0  0  0
 73 78  2  0  0  0
 73 79  1  0  0  0
 73 83  1  0  0  0
 74 77  1  0  0  0
 74 79  1  0  0  0
 74 81  2  0  0  0
 75143  1  0  0  0
 75144  1  0  0  0
 75145  1  0  0  0
 75 77  1  0  0  0
 76 80  1  0  0  0
 76146  1  0  0  0
 76147  1  0  0  0
 77148  1  0  0  0
 79149  1  0  0  0
 80150  1  0  0  0
M  ISO  4   1 100  68 101  77 101  80 100
M  END
> <chiral flag>
0

> <version>
0

> <s_m_source_file>
/data/baiqing/PycharmProjects/Reinvent-master-3.2/result/LINK_invent/BTK/process_docking_weight1_custom_product_contain_oxygen_bond_distance_aromatic_linkinvent_7_9_3/rearranged_h_0187.sdf

> <i_m_source_file_index>
17

> <r_mmod_Potential_Energy-OPLS-2005>
53.9338722229004

> <r_mmod_Stretch_Energy-OPLS-2005>
138.489837646484

> <r_mmod_Bend_Energy-OPLS-2005>
184.894424438477

> <r_mmod_Torsional_Energy-OPLS-2005>
230.918685913086

> <r_mmod_Improper_Torsional_Energy-OPLS-2005>
4.51932048797607

> <r_mmod_Van_der_Waal_Energy-OPLS-2005>
108.623390197754

> <r_mmod_Electrostatic_Energy-OPLS-2005>
-477.530670166016

> <r_mmod_Solvation_Energy-OPLS-2005>
-233.991638183594

> <b_mmod_Minimization_Converged-OPLS-2005>
0

> <r_mmod_RMS_Derivative-OPLS-2005>
1.13072454929352

$$$$
18
                    3D
 Structure written by MMmdl.
159167  0  0  1  0            999 V2000
  -30.6700  -14.5108   20.5604 C   0  0  0  0  0  0
  -30.4309  -12.3275   19.4230 C   0  0  0  0  0  0
  -29.4970  -12.5048   18.2066 C   0  0  0  0  0  0
  -28.0179  -12.3584   18.6198 C   0  0  0  0  0  0
  -27.6587  -13.2033   19.8709 C   0  0  2  0  0  0
  -28.7027  -12.9945   20.9918 C   0  0  0  0  0  0
  -25.2582  -13.8149   20.5665 C   0  0  0  0  0  0
  -24.1835  -13.0428   20.9178 C   0  0  0  0  0  0
  -24.6384  -11.6894   20.8736 C   0  0  0  0  0  0
  -23.9049  -10.4283   21.0405 C   0  0  0  0  0  0
  -24.3603   -9.4201   21.9181 C   0  0  0  0  0  0
  -23.6280   -8.2238   22.0754 C   0  0  0  0  0  0
  -22.4265   -8.0272   21.3541 C   0  0  0  0  0  0
  -21.9895   -9.0247   20.4647 C   0  0  0  0  0  0
  -22.7222  -10.2127   20.3055 C   0  0  0  0  0  0
  -21.6852   -6.0724   22.5271 C   0  0  0  0  0  0
  -21.4017   -6.5632   23.8204 C   0  0  0  0  0  0
  -21.3661   -5.6786   24.9168 C   0  0  0  0  0  0
  -21.6045   -4.3049   24.7222 C   0  0  0  0  0  0
  -21.8821   -3.8138   23.4345 C   0  0  0  0  0  0
  -21.9193   -4.6951   22.3398 C   0  0  0  0  0  0
  -22.7862  -13.5234   21.1838 C   0  0  0  0  0  0
  -22.1660   -4.2135   21.0976 F   0  0  0  0  0  0
  -21.5629   -3.4536   25.7739 F   0  0  0  0  0  0
  -30.0283  -13.3153   20.4357 N   0  0  0  0  0  0
  -26.3007  -12.9304   20.3343 N   0  0  0  0  0  0
  -25.9309  -11.6471   20.5766 N   0  0  0  0  0  0
  -22.0505  -12.8230   22.0401 N   0  0  0  0  0  0
  -25.4300  -15.1866   20.4043 N   0  0  0  0  0  0
  -31.8206  -14.6896   20.1466 O   0  0  0  0  0  0
  -21.6634   -6.8867   21.4234 O   0  0  0  0  0  0
  -22.3551  -14.5540   20.6687 O   0  0  0  0  0  0
  -24.6151  -31.8669   23.2087 C   0  0  0  0  0  0
  -25.9042  -32.4820   23.8389 C   0  0  1  0  0  0
  -27.2354  -27.4238   20.1049 C   0  0  0  0  0  0
  -25.5892  -33.8616   24.2320 N   0  0  0  0  0  0
  -23.4054  -30.4881   21.5500 C   0  0  2  0  0  0
  -24.8541  -28.9509   20.1167 C   0  0  0  0  0  0
  -22.7421  -29.4641   22.4995 C   0  0  0  0  0  0
  -18.0274  -28.1373   22.8487 C   0  0  0  0  0  0
  -24.1490  -36.7314   23.2641 C   0  0  0  0  0  0
  -25.9343  -30.8304   21.3629 C   0  0  0  0  0  0
  -26.0151  -29.4629   20.7114 C   0  0  0  0  0  0
  -27.2123  -28.7077   20.7000 C   0  0  0  0  0  0
  -26.0608  -26.9261   19.5062 C   0  0  0  0  0  0
  -24.8717  -27.6815   19.5101 C   0  0  0  0  0  0
  -23.6160  -29.8192   20.1652 C   0  0  0  0  0  0
  -25.4110  -36.3109   24.0339 C   0  0  1  0  0  0
  -20.5862  -28.3659   23.1320 C   0  0  2  0  0  0
  -20.6762  -26.9392   22.5422 C   0  0  0  0  0  0
  -19.5743  -26.6380   21.5212 C   0  0  0  0  0  0
  -18.1922  -26.7922   22.1620 C   0  0  0  0  0  0
  -19.1522  -28.8835   23.2897 C   0  0  0  0  0  0
  -18.9454  -30.1442   23.8908 C   0  0  0  0  0  0
  -17.6456  -30.6581   24.0562 C   0  0  0  0  0  0
  -25.9035  -34.9474   23.5128 C   0  0  0  0  0  0
  -16.5346  -29.9081   23.6324 C   0  0  0  0  0  0
  -16.7264  -28.6498   23.0342 C   0  0  0  0  0  0
  -26.4471  -31.6604   25.0721 C   0  0  0  0  0  0
  -25.3734  -31.3710   26.1468 C   0  0  0  0  0  0
  -27.0309  -30.3054   24.6089 C   0  0  0  0  0  0
  -27.6051  -32.4327   25.7477 C   0  0  0  0  0  0
  -27.5584  -37.1809   24.8463 C   0  0  0  0  0  0
  -21.4146  -29.3024   22.3735 N   0  0  0  0  0  0
  -26.4299  -37.3792   23.9407 N   0  0  0  0  0  0
  -24.6700  -31.0759   22.0994 N   0  0  0  0  0  0
  -23.4185  -28.8188   23.3049 O   0  0  0  0  0  0
  -28.3797  -26.6547   20.0918 O   0  0  0  0  0  0
  -26.5600  -34.8927   22.4691 O   0  0  0  0  0  0
  -23.5339  -32.1423   23.7472 O   0  0  0  0  0  0
  -31.2544  -18.7840   21.8303 C   0  0  0  0  0  0
  -30.1204  -19.4110   21.3435 C   0  0  0  0  0  0
  -30.1591  -16.9156   21.1004 C   0  0  0  0  0  0
  -28.9983  -21.5553   20.7881 C   0  0  0  0  0  0
  -33.7436  -19.1932   21.7846 C   0  0  0  0  0  0
  -32.5028  -19.0101   24.0014 C   0  0  0  0  0  0
  -28.7222  -24.1587   20.3158 C   0  0  0  0  0  0
  -28.3550  -25.5179   20.9788 C   0  0  0  0  0  0
  -32.4219  -19.4379   22.5283 C   0  0  0  0  0  0
  -28.8491  -22.9966   21.3490 C   0  0  2  0  0  0
  -31.2653  -17.3852   21.6796 N   0  0  0  0  0  0
  -29.8586  -20.7528   21.4501 N   0  0  0  0  0  0
  -29.8758  -15.5231   20.9725 N   0  0  0  0  0  0
  -28.3548  -21.1956   19.7986 O   0  0  0  0  0  0
  -29.8768  -23.2549   22.1665 F   0  0  0  0  0  0
  -29.0177  -18.2005   20.6826 S   0  0  0  0  0  0
  -31.4731  -12.4429   19.1203 H   0  0  0  0  0  0
  -30.3471  -11.3188   19.8306 H   0  0  0  0  0  0
  -29.7424  -11.7748   17.4340 H   0  0  0  0  0  0
  -29.6558  -13.4878   17.7599 H   0  0  0  0  0  0
  -27.8338  -11.3028   18.8235 H   0  0  0  0  0  0
  -27.3664  -12.6244   17.7864 H   0  0  0  0  0  0
  -27.6955  -14.2479   19.5623 H   0  0  0  0  0  0
  -28.6903  -11.9592   21.3356 H   0  0  0  0  0  0
  -28.4631  -13.5944   21.8712 H   0  0  0  0  0  0
  -25.2752   -9.5674   22.4750 H   0  0  0  0  0  0
  -23.9985   -7.4634   22.7479 H   0  0  0  0  0  0
  -21.0823   -8.8769   19.8959 H   0  0  0  0  0  0
  -22.3681  -10.9665   19.6163 H   0  0  0  0  0  0
  -21.2013   -7.6140   23.9701 H   0  0  0  0  0  0
  -21.1483   -6.0519   25.9069 H   0  0  0  0  0  0
  -22.0602   -2.7598   23.2849 H   0  0  0  0  0  0
  -22.4119  -11.9884   22.4777 H   0  0  0  0  0  0
  -21.1133  -13.1272   22.2630 H   0  0  0  0  0  0
  -24.6566  -15.8363   20.4983 H   0  0  0  0  0  0
  -26.2650  -15.6217   20.0340 H   0  0  0  0  0  0
  -26.7117  -32.5542   23.1160 H   0  0  0  0  0  0
  -25.0036  -33.9775   25.0465 H   0  0  0  0  0  0
  -22.6946  -31.3046   21.4087 H   0  0  0  0  0  0
  -23.3749  -35.9651   23.3314 H   0  0  0  0  0  0
  -24.3576  -36.8918   22.2052 H   0  0  0  0  0  0
  -23.7249  -37.6523   23.6651 H   0  0  0  0  0  0
  -26.0442  -31.5973   20.5946 H   0  0  0  0  0  0
  -26.8222  -30.8856   21.9816 H   0  0  0  0  0  0
  -28.1106  -29.0970   21.1595 H   0  0  0  0  0  0
  -26.0694  -25.9510   19.0398 H   0  0  0  0  0  0
  -23.9794  -27.2807   19.0486 H   0  0  0  0  0  0
  -23.7244  -30.5938   19.4051 H   0  0  0  0  0  0
  -22.7409  -29.2384   19.8692 H   0  0  0  0  0  0
  -25.1287  -36.1980   25.0831 H   0  0  0  0  0  0
  -20.9943  -28.3231   24.1443 H   0  0  0  0  0  0
  -20.5672  -26.2258   23.3607 H   0  0  0  0  0  0
  -21.6633  -26.7443   22.1208 H   0  0  0  0  0  0
  -19.6905  -25.6293   21.1234 H   0  0  0  0  0  0
  -19.6696  -27.3199   20.6750 H   0  0  0  0  0  0
  -17.4189  -26.6675   21.4020 H   0  0  0  0  0  0
  -18.0317  -26.0064   22.9017 H   0  0  0  0  0  0
  -19.7937  -30.7241   24.2290 H   0  0  0  0  0  0
  -17.5017  -31.6268   24.5154 H   0  0  0  0  0  0
  -15.5346  -30.2984   23.7645 H   0  0  0  0  0  0
  -15.8665  -28.0823   22.7045 H   0  0  0  0  0  0
  -24.5891  -30.7077   25.7798 H   0  0  0  0  0  0
  -24.8935  -32.2861   26.4945 H   0  0  0  0  0  0
  -25.8073  -30.8849   27.0214 H   0  0  0  0  0  0
  -26.2849  -29.6810   24.1156 H   0  0  0  0  0  0
  -27.4102  -29.7297   25.4543 H   0  0  0  0  0  0
  -27.8672  -30.4383   23.9222 H   0  0  0  0  0  0
  -27.2672  -33.3614   26.2087 H   0  0  0  0  0  0
  -28.3835  -32.6909   25.0285 H   0  0  0  0  0  0
  -28.0746  -31.8431   26.5363 H   0  0  0  0  0  0
  -28.2603  -38.0107   24.7501 H   0  0  0  0  0  0
  -28.1077  -36.2633   24.6298 H   0  0  0  0  0  0
  -27.2291  -37.1463   25.8864 H   0  0  0  0  0  0
  -20.9310  -29.8752   21.6958 H   0  0  0  0  0  0
  -26.0195  -38.2871   24.1412 H   0  0  0  0  0  0
  -33.6881  -19.5634   20.7603 H   0  0  0  0  0  0
  -33.9894  -18.1316   21.7428 H   0  0  0  0  0  0
  -34.5717  -19.7046   22.2758 H   0  0  0  0  0  0
  -31.5791  -19.2507   24.5294 H   0  0  0  0  0  0
  -33.3185  -19.5170   24.5174 H   0  0  0  0  0  0
  -32.6667  -17.9362   24.0948 H   0  0  0  0  0  0
  -29.6632  -24.2594   19.7745 H   0  0  0  0  0  0
  -27.9650  -23.9098   19.5716 H   0  0  0  0  0  0
  -29.0709  -25.7312   21.7732 H   0  0  0  0  0  0
  -27.3884  -25.4195   21.4777 H   0  0  0  0  0  0
  -32.2745  -20.5181   22.5317 H   0  0  0  0  0  0
  -27.9619  -22.9845   21.9832 H   0  0  0  0  0  0
  -30.3821  -21.2533   22.1573 H   0  0  0  0  0  0
  -28.9120  -15.2666   21.1090 H   0  0  0  0  0  0
  1 25  1  0  0  0
  1 30  2  0  0  0
  1 83  1  0  0  0
  2  3  1  0  0  0
  2 25  1  0  0  0
  2 87  1  0  0  0
  2 88  1  0  0  0
  3  4  1  0  0  0
  3 89  1  0  0  0
  3 90  1  0  0  0
  4  5  1  0  0  0
  4 91  1  0  0  0
  4 92  1  0  0  0
  5  6  1  0  0  0
  5 26  1  0  0  0
  5 93  1  0  0  0
  6 25  1  0  0  0
  6 94  1  0  0  0
  6 95  1  0  0  0
  7  8  2  0  0  0
  7 26  1  0  0  0
  7 29  1  0  0  0
  8  9  1  0  0  0
  8 22  1  0  0  0
  9 10  1  0  0  0
  9 27  2  0  0  0
 10 11  2  0  0  0
 10 15  1  0  0  0
 11 12  1  0  0  0
 11 96  1  0  0  0
 12 13  2  0  0  0
 12 97  1  0  0  0
 13 14  1  0  0  0
 13 31  1  0  0  0
 14 15  2  0  0  0
 14 98  1  0  0  0
 15 99  1  0  0  0
 16 17  2  0  0  0
 16 21  1  0  0  0
 16 31  1  0  0  0
 17 18  1  0  0  0
 17100  1  0  0  0
 18 19  2  0  0  0
 18101  1  0  0  0
 19 20  1  0  0  0
 19 24  1  0  0  0
 20 21  2  0  0  0
 20102  1  0  0  0
 21 23  1  0  0  0
 22 28  1  0  0  0
 22 32  2  0  0  0
 26 27  1  0  0  0
 28103  1  0  0  0
 28104  1  0  0  0
 29105  1  0  0  0
 29106  1  0  0  0
 33 34  1  0  0  0
 33 66  1  0  0  0
 33 70  2  0  0  0
 34 36  1  0  0  0
 34 59  1  0  0  0
 34107  1  0  0  0
 35 44  2  0  0  0
 35 45  1  0  0  0
 35 68  1  0  0  0
 36 56  1  0  0  0
 36108  1  0  0  0
 37 39  1  0  0  0
 37 47  1  0  0  0
 37 66  1  0  0  0
 37109  1  0  0  0
 38 43  2  0  0  0
 38 46  1  0  0  0
 38 47  1  0  0  0
 39 64  1  0  0  0
 39 67  2  0  0  0
 40 52  1  0  0  0
 40 53  2  0  0  0
 40 58  1  0  0  0
 41110  1  0  0  0
 41111  1  0  0  0
 41112  1  0  0  0
 41 48  1  0  0  0
 42 43  1  0  0  0
 42 66  1  0  0  0
 42113  1  0  0  0
 42114  1  0  0  0
 43 44  1  0  0  0
 44115  1  0  0  0
 45 46  2  0  0  0
 45116  1  0  0  0
 46117  1  0  0  0
 47118  1  0  0  0
 47119  1  0  0  0
 48 56  1  0  0  0
 48 65  1  0  0  0
 48120  1  0  0  0
 49 50  1  0  0  0
 49 53  1  0  0  0
 49 64  1  0  0  0
 49121  1  0  0  0
 50 51  1  0  0  0
 50122  1  0  0  0
 50123  1  0  0  0
 51 52  1  0  0  0
 51124  1  0  0  0
 51125  1  0  0  0
 52126  1  0  0  0
 52127  1  0  0  0
 53 54  1  0  0  0
 54 55  2  0  0  0
 54128  1  0  0  0
 55 57  1  0  0  0
 55129  1  0  0  0
 56 69  2  0  0  0
 57 58  2  0  0  0
 57130  1  0  0  0
 58131  1  0  0  0
 59 60  1  0  0  0
 59 61  1  0  0  0
 59 62  1  0  0  0
 60132  1  0  0  0
 60133  1  0  0  0
 60134  1  0  0  0
 61135  1  0  0  0
 61136  1  0  0  0
 61137  1  0  0  0
 62138  1  0  0  0
 62139  1  0  0  0
 62140  1  0  0  0
 63 65  1  0  0  0
 63141  1  0  0  0
 63142  1  0  0  0
 63143  1  0  0  0
 64144  1  0  0  0
 65145  1  0  0  0
 68 78  1  0  0  0
 71 72  2  0  0  0
 71 79  1  0  0  0
 71 81  1  0  0  0
 72 82  1  0  0  0
 72 86  1  0  0  0
 73 81  2  0  0  0
 73 83  1  0  0  0
 73 86  1  0  0  0
 74 80  1  0  0  0
 74 82  1  0  0  0
 74 84  2  0  0  0
 75146  1  0  0  0
 75147  1  0  0  0
 75148  1  0  0  0
 75 79  1  0  0  0
 76 79  1  0  0  0
 76149  1  0  0  0
 76150  1  0  0  0
 76151  1  0  0  0
 77 78  1  0  0  0
 77 80  1  0  0  0
 77152  1  0  0  0
 77153  1  0  0  0
 78154  1  0  0  0
 78155  1  0  0  0
 79156  1  0  0  0
 80 85  1  0  0  0
 80157  1  0  0  0
 82158  1  0  0  0
 83159  1  0  0  0
M  ISO  4   1 100  68 101  78 101  83 100
M  END
> <chiral flag>
0

> <version>
0

> <s_m_source_file>
/data/baiqing/PycharmProjects/Reinvent-master-3.2/result/LINK_invent/BTK/process_docking_weight1_custom_product_contain_oxygen_bond_distance_aromatic_linkinvent_7_9_3/rearranged_h_0187.sdf

> <i_m_source_file_index>
18

> <r_mmod_Potential_Energy-OPLS-2005>
-152.355056762695

> <r_mmod_Stretch_Energy-OPLS-2005>
39.4983520507812

> <r_mmod_Bend_Energy-OPLS-2005>
111.068374633789

> <r_mmod_Torsional_Energy-OPLS-2005>
230.221435546875

> <r_mmod_Improper_Torsional_Energy-OPLS-2005>
5.61417484283447

> <r_mmod_Van_der_Waal_Energy-OPLS-2005>
125.918846130371

> <r_mmod_Electrostatic_Energy-OPLS-2005>
-446.490234375

> <r_mmod_Solvation_Energy-OPLS-2005>
-234.60026550293

> <b_mmod_Minimization_Converged-OPLS-2005>
0

> <r_mmod_RMS_Derivative-OPLS-2005>
0.876210629940033

$$$$
19
                    3D
 Structure written by MMmdl.
161169  0  0  1  0            999 V2000
  -30.6347  -14.5798   20.5592 C   0  0  0  0  0  0
  -30.4478  -12.3724   19.4300 C   0  0  0  0  0  0
  -29.5069  -12.5201   18.2119 C   0  0  0  0  0  0
  -28.0292  -12.3602   18.6250 C   0  0  0  0  0  0
  -27.6631  -13.2046   19.8744 C   0  0  2  0  0  0
  -28.7083  -12.9982   20.9948 C   0  0  0  0  0  0
  -25.2586  -13.8128   20.5648 C   0  0  0  0  0  0
  -24.1843  -13.0423   20.9172 C   0  0  0  0  0  0
  -24.6392  -11.6883   20.8722 C   0  0  0  0  0  0
  -23.9054  -10.4282   21.0387 C   0  0  0  0  0  0
  -24.3616   -9.4209   21.9166 C   0  0  0  0  0  0
  -23.6292   -8.2244   22.0745 C   0  0  0  0  0  0
  -22.4268   -8.0278   21.3549 C   0  0  0  0  0  0
  -21.9903   -9.0240   20.4642 C   0  0  0  0  0  0
  -22.7222  -10.2123   20.3045 C   0  0  0  0  0  0
  -21.6855   -6.0730   22.5279 C   0  0  0  0  0  0
  -21.4011   -6.5634   23.8212 C   0  0  0  0  0  0
  -21.3665   -5.6787   24.9175 C   0  0  0  0  0  0
  -21.6049   -4.3054   24.7229 C   0  0  0  0  0  0
  -21.8820   -3.8145   23.4350 C   0  0  0  0  0  0
  -21.9196   -4.6959   22.3410 C   0  0  0  0  0  0
  -22.7872  -13.5244   21.1846 C   0  0  0  0  0  0
  -22.1659   -4.2150   21.0983 F   0  0  0  0  0  0
  -21.5643   -3.4533   25.7745 F   0  0  0  0  0  0
  -30.0341  -13.3537   20.4494 N   0  0  0  0  0  0
  -26.3031  -12.9296   20.3348 N   0  0  0  0  0  0
  -25.9330  -11.6465   20.5762 N   0  0  0  0  0  0
  -22.0509  -12.8244   22.0402 N   0  0  0  0  0  0
  -25.4278  -15.1838   20.4032 N   0  0  0  0  0  0
  -31.7451  -14.8142   20.0670 O   0  0  0  0  0  0
  -21.6647   -6.8866   21.4240 O   0  0  0  0  0  0
  -22.3575  -14.5559   20.6699 O   0  0  0  0  0  0
  -24.6198  -31.8640   23.2080 C   0  0  0  0  0  0
  -25.9076  -32.4803   23.8383 C   0  0  1  0  0  0
  -27.2379  -27.3755   20.1038 C   0  0  0  0  0  0
  -25.5906  -33.8599   24.2307 N   0  0  0  0  0  0
  -23.4122  -30.4883   21.5480 C   0  0  2  0  0  0
  -24.8608  -28.9483   20.1142 C   0  0  0  0  0  0
  -22.7437  -29.4644   22.4948 C   0  0  0  0  0  0
  -18.0277  -28.1382   22.8495 C   0  0  0  0  0  0
  -24.1486  -36.7295   23.2641 C   0  0  0  0  0  0
  -25.9487  -30.8087   21.3741 C   0  0  0  0  0  0
  -26.0236  -29.4398   20.7183 C   0  0  0  0  0  0
  -27.2103  -28.6603   20.7124 C   0  0  0  0  0  0
  -26.0538  -26.9258   19.4712 C   0  0  0  0  0  0
  -24.8733  -27.6915   19.4887 C   0  0  0  0  0  0
  -23.6265  -29.8221   20.1631 C   0  0  0  0  0  0
  -25.4114  -36.3101   24.0336 C   0  0  1  0  0  0
  -20.5874  -28.3679   23.1291 C   0  0  2  0  0  0
  -20.6764  -26.9402   22.5416 C   0  0  0  0  0  0
  -19.5741  -26.6382   21.5219 C   0  0  0  0  0  0
  -18.1920  -26.7927   22.1628 C   0  0  0  0  0  0
  -19.1532  -28.8849   23.2893 C   0  0  0  0  0  0
  -18.9461  -30.1455   23.8910 C   0  0  0  0  0  0
  -17.6464  -30.6590   24.0577 C   0  0  0  0  0  0
  -25.9042  -34.9465   23.5125 C   0  0  0  0  0  0
  -16.5354  -29.9094   23.6332 C   0  0  0  0  0  0
  -16.7266  -28.6510   23.0354 C   0  0  0  0  0  0
  -26.4481  -31.6602   25.0735 C   0  0  0  0  0  0
  -25.3737  -31.3739   26.1483 C   0  0  0  0  0  0
  -27.0324  -30.3033   24.6161 C   0  0  0  0  0  0
  -27.6047  -32.4344   25.7480 C   0  0  0  0  0  0
  -27.5584  -37.1810   24.8467 C   0  0  0  0  0  0
  -21.4157  -29.3047   22.3691 N   0  0  0  0  0  0
  -26.4299  -37.3791   23.9415 N   0  0  0  0  0  0
  -24.6785  -31.0695   22.1004 N   0  0  0  0  0  0
  -23.4172  -28.8176   23.3013 O   0  0  0  0  0  0
  -28.3919  -26.5931   20.1586 O   0  0  0  0  0  0
  -26.5602  -34.8922   22.4687 O   0  0  0  0  0  0
  -23.5368  -32.1415   23.7439 O   0  0  0  0  0  0
  -29.8261  -19.2017   20.6120 C   0  0  0  0  0  0
  -28.5320  -19.1414   21.1036 C   0  0  0  0  0  0
  -29.6172  -16.9070   21.0299 C   0  0  0  0  0  0
  -29.3840  -22.7580   19.8572 C   0  0  0  0  0  0
  -30.8157  -24.8197   20.2318 C   0  0  0  0  0  0
  -32.0052  -20.4261   20.8149 C   0  0  0  0  0  0
  -30.8546  -20.3760   18.6110 C   0  0  0  0  0  0
  -28.3238  -25.1848   19.7700 C   0  0  0  0  0  0
  -29.4036  -24.2301   20.4057 C   0  0  1  0  0  0
  -30.6210  -20.4545   20.1371 C   0  0  0  0  0  0
  -30.4133  -17.8917   20.5528 N   0  0  0  0  0  0
  -27.5925  -20.1520   21.2842 N   0  0  0  0  0  0
  -29.8936  -15.5016   21.2206 N   0  0  0  0  0  0
  -30.0790  -21.8017   20.5322 N   0  0  0  0  0  0
  -28.7716  -22.5096   18.8174 O   0  0  0  0  0  0
  -28.0582  -17.5213   21.5497 S   0  0  0  0  0  0
  -31.4855  -12.5149   19.1236 H   0  0  0  0  0  0
  -30.3962  -11.3628   19.8385 H   0  0  0  0  0  0
  -29.7615  -11.7853   17.4461 H   0  0  0  0  0  0
  -29.6538  -13.4997   17.7533 H   0  0  0  0  0  0
  -27.8580  -11.3027   18.8324 H   0  0  0  0  0  0
  -27.3754  -12.6145   17.7895 H   0  0  0  0  0  0
  -27.7000  -14.2511   19.5725 H   0  0  0  0  0  0
  -28.7134  -11.9576   21.3205 H   0  0  0  0  0  0
  -28.4428  -13.5715   21.8839 H   0  0  0  0  0  0
  -25.2759   -9.5711   22.4736 H   0  0  0  0  0  0
  -24.0017   -7.4649   22.7464 H   0  0  0  0  0  0
  -21.0836   -8.8748   19.8945 H   0  0  0  0  0  0
  -22.3662  -10.9662   19.6164 H   0  0  0  0  0  0
  -21.1983   -7.6137   23.9719 H   0  0  0  0  0  0
  -21.1491   -6.0513   25.9080 H   0  0  0  0  0  0
  -22.0595   -2.7610   23.2851 H   0  0  0  0  0  0
  -22.4127  -11.9920   22.4812 H   0  0  0  0  0  0
  -21.1118  -13.1257   22.2583 H   0  0  0  0  0  0
  -24.6533  -15.8310   20.5033 H   0  0  0  0  0  0
  -26.2716  -15.6254   20.0599 H   0  0  0  0  0  0
  -26.7138  -32.5506   23.1127 H   0  0  0  0  0  0
  -25.0078  -33.9732   25.0471 H   0  0  0  0  0  0
  -22.7061  -31.3089   21.4039 H   0  0  0  0  0  0
  -23.3757  -35.9617   23.3291 H   0  0  0  0  0  0
  -24.3581  -36.8919   22.2058 H   0  0  0  0  0  0
  -23.7219  -37.6488   23.6658 H   0  0  0  0  0  0
  -26.0780  -31.5724   20.6060 H   0  0  0  0  0  0
  -26.8301  -30.8562   22.0024 H   0  0  0  0  0  0
  -28.1017  -29.0322   21.1983 H   0  0  0  0  0  0
  -26.0096  -25.9783   18.9558 H   0  0  0  0  0  0
  -23.9801  -27.3077   19.0151 H   0  0  0  0  0  0
  -23.7457  -30.5980   19.4062 H   0  0  0  0  0  0
  -22.7490  -29.2479   19.8606 H   0  0  0  0  0  0
  -25.1297  -36.1957   25.0827 H   0  0  0  0  0  0
  -20.9990  -28.3254   24.1407 H   0  0  0  0  0  0
  -20.5668  -26.2290   23.3613 H   0  0  0  0  0  0
  -21.6628  -26.7435   22.1209 H   0  0  0  0  0  0
  -19.6897  -25.6299   21.1234 H   0  0  0  0  0  0
  -19.6675  -27.3207   20.6761 H   0  0  0  0  0  0
  -17.4194  -26.6685   21.4023 H   0  0  0  0  0  0
  -18.0314  -26.0059   22.9014 H   0  0  0  0  0  0
  -19.7940  -30.7269   24.2269 H   0  0  0  0  0  0
  -17.5024  -31.6273   24.5176 H   0  0  0  0  0  0
  -15.5357  -30.3016   23.7647 H   0  0  0  0  0  0
  -15.8655  -28.0841   22.7065 H   0  0  0  0  0  0
  -24.5871  -30.7120   25.7831 H   0  0  0  0  0  0
  -24.8972  -32.2911   26.4960 H   0  0  0  0  0  0
  -25.8078  -30.8881   27.0230 H   0  0  0  0  0  0
  -26.2888  -29.6781   24.1201 H   0  0  0  0  0  0
  -27.4051  -29.7290   25.4652 H   0  0  0  0  0  0
  -27.8737  -30.4323   23.9350 H   0  0  0  0  0  0
  -27.2654  -33.3647   26.2041 H   0  0  0  0  0  0
  -28.3847  -32.6907   25.0301 H   0  0  0  0  0  0
  -28.0714  -31.8486   26.5402 H   0  0  0  0  0  0
  -28.2617  -38.0101   24.7542 H   0  0  0  0  0  0
  -28.1071  -36.2639   24.6268 H   0  0  0  0  0  0
  -27.2302  -37.1436   25.8871 H   0  0  0  0  0  0
  -20.9323  -29.8783   21.6920 H   0  0  0  0  0  0
  -26.0176  -38.2861   24.1439 H   0  0  0  0  0  0
  -31.5609  -24.2413   20.7790 H   0  0  0  0  0  0
  -30.8673  -25.8409   20.6089 H   0  0  0  0  0  0
  -31.1118  -24.8363   19.1817 H   0  0  0  0  0  0
  -32.5734  -19.5401   20.5315 H   0  0  0  0  0  0
  -31.9156  -20.4170   21.9021 H   0  0  0  0  0  0
  -32.6093  -21.2901   20.5343 H   0  0  0  0  0  0
  -31.4374  -19.4939   18.3476 H   0  0  0  0  0  0
  -31.4006  -21.2452   18.2399 H   0  0  0  0  0  0
  -29.9147  -20.3097   18.0630 H   0  0  0  0  0  0
  -27.3601  -24.7576   20.0472 H   0  0  0  0  0  0
  -28.3878  -25.1474   18.6810 H   0  0  0  0  0  0
  -29.1915  -24.1773   21.4747 H   0  0  0  0  0  0
  -27.7267  -21.0309   20.7930 H   0  0  0  0  0  0
  -26.6083  -19.9362   21.4185 H   0  0  0  0  0  0
  -29.1412  -15.0419   21.7097 H   0  0  0  0  0  0
  -30.4462  -22.1233   21.4160 H   0  0  0  0  0  0
  1 25  1  0  0  0
  1 30  2  0  0  0
  1 83  1  0  0  0
  2  3  1  0  0  0
  2 25  1  0  0  0
  2 87  1  0  0  0
  2 88  1  0  0  0
  3  4  1  0  0  0
  3 89  1  0  0  0
  3 90  1  0  0  0
  4  5  1  0  0  0
  4 91  1  0  0  0
  4 92  1  0  0  0
  5  6  1  0  0  0
  5 26  1  0  0  0
  5 93  1  0  0  0
  6 25  1  0  0  0
  6 94  1  0  0  0
  6 95  1  0  0  0
  7  8  2  0  0  0
  7 26  1  0  0  0
  7 29  1  0  0  0
  8  9  1  0  0  0
  8 22  1  0  0  0
  9 10  1  0  0  0
  9 27  2  0  0  0
 10 11  2  0  0  0
 10 15  1  0  0  0
 11 12  1  0  0  0
 11 96  1  0  0  0
 12 13  2  0  0  0
 12 97  1  0  0  0
 13 14  1  0  0  0
 13 31  1  0  0  0
 14 15  2  0  0  0
 14 98  1  0  0  0
 15 99  1  0  0  0
 16 17  2  0  0  0
 16 21  1  0  0  0
 16 31  1  0  0  0
 17 18  1  0  0  0
 17100  1  0  0  0
 18 19  2  0  0  0
 18101  1  0  0  0
 19 20  1  0  0  0
 19 24  1  0  0  0
 20 21  2  0  0  0
 20102  1  0  0  0
 21 23  1  0  0  0
 22 28  1  0  0  0
 22 32  2  0  0  0
 26 27  1  0  0  0
 28103  1  0  0  0
 28104  1  0  0  0
 29105  1  0  0  0
 29106  1  0  0  0
 33 34  1  0  0  0
 33 66  1  0  0  0
 33 70  2  0  0  0
 34 36  1  0  0  0
 34 59  1  0  0  0
 34107  1  0  0  0
 35 44  2  0  0  0
 35 45  1  0  0  0
 35 68  1  0  0  0
 36 56  1  0  0  0
 36108  1  0  0  0
 37 39  1  0  0  0
 37 47  1  0  0  0
 37 66  1  0  0  0
 37109  1  0  0  0
 38 43  2  0  0  0
 38 46  1  0  0  0
 38 47  1  0  0  0
 39 64  1  0  0  0
 39 67  2  0  0  0
 40 52  1  0  0  0
 40 53  2  0  0  0
 40 58  1  0  0  0
 41110  1  0  0  0
 41111  1  0  0  0
 41112  1  0  0  0
 41 48  1  0  0  0
 42 43  1  0  0  0
 42 66  1  0  0  0
 42113  1  0  0  0
 42114  1  0  0  0
 43 44  1  0  0  0
 44115  1  0  0  0
 45 46  2  0  0  0
 45116  1  0  0  0
 46117  1  0  0  0
 47118  1  0  0  0
 47119  1  0  0  0
 48 56  1  0  0  0
 48 65  1  0  0  0
 48120  1  0  0  0
 49 50  1  0  0  0
 49 53  1  0  0  0
 49 64  1  0  0  0
 49121  1  0  0  0
 50 51  1  0  0  0
 50122  1  0  0  0
 50123  1  0  0  0
 51 52  1  0  0  0
 51124  1  0  0  0
 51125  1  0  0  0
 52126  1  0  0  0
 52127  1  0  0  0
 53 54  1  0  0  0
 54 55  2  0  0  0
 54128  1  0  0  0
 55 57  1  0  0  0
 55129  1  0  0  0
 56 69  2  0  0  0
 57 58  2  0  0  0
 57130  1  0  0  0
 58131  1  0  0  0
 59 60  1  0  0  0
 59 61  1  0  0  0
 59 62  1  0  0  0
 60132  1  0  0  0
 60133  1  0  0  0
 60134  1  0  0  0
 61135  1  0  0  0
 61136  1  0  0  0
 61137  1  0  0  0
 62138  1  0  0  0
 62139  1  0  0  0
 62140  1  0  0  0
 63 65  1  0  0  0
 63141  1  0  0  0
 63142  1  0  0  0
 63143  1  0  0  0
 64144  1  0  0  0
 65145  1  0  0  0
 68 78  1  0  0  0
 71 72  2  0  0  0
 71 80  1  0  0  0
 71 81  1  0  0  0
 72 82  1  0  0  0
 72 86  1  0  0  0
 73 81  2  0  0  0
 73 83  1  0  0  0
 73 86  1  0  0  0
 74 79  1  0  0  0
 74 84  1  0  0  0
 74 85  2  0  0  0
 75146  1  0  0  0
 75147  1  0  0  0
 75148  1  0  0  0
 75 79  1  0  0  0
 76149  1  0  0  0
 76150  1  0  0  0
 76151  1  0  0  0
 76 80  1  0  0  0
 77 80  1  0  0  0
 77152  1  0  0  0
 77153  1  0  0  0
 77154  1  0  0  0
 78 79  1  0  0  0
 78155  1  0  0  0
 78156  1  0  0  0
 79157  1  0  0  0
 80 84  1  0  0  0
 82158  1  0  0  0
 82159  1  0  0  0
 83160  1  0  0  0
 84161  1  0  0  0
M  ISO  4   1 100  68 101  78 101  83 100
M  END
> <chiral flag>
0

> <version>
0

> <s_m_source_file>
/data/baiqing/PycharmProjects/Reinvent-master-3.2/result/LINK_invent/BTK/process_docking_weight1_custom_product_contain_oxygen_bond_distance_aromatic_linkinvent_7_9_3/rearranged_h_0187.sdf

> <i_m_source_file_index>
19

> <r_mmod_Potential_Energy-OPLS-2005>
-50.2116470336914

> <r_mmod_Stretch_Energy-OPLS-2005>
63.3912010192871

> <r_mmod_Bend_Energy-OPLS-2005>
154.821411132812

> <r_mmod_Torsional_Energy-OPLS-2005>
204.098617553711

> <r_mmod_Improper_Torsional_Energy-OPLS-2005>
7.19537305831909

> <r_mmod_Van_der_Waal_Energy-OPLS-2005>
127.434364318848

> <r_mmod_Electrostatic_Energy-OPLS-2005>
-397.307922363281

> <r_mmod_Solvation_Energy-OPLS-2005>
-238.887741088867

> <b_mmod_Minimization_Converged-OPLS-2005>
0

> <r_mmod_RMS_Derivative-OPLS-2005>
1.85410177707672

$$$$
20
                    3D
 Structure written by MMmdl.
152160  0  0  1  0            999 V2000
  -30.5982  -14.6957   20.4589 C   0  0  0  0  0  0
  -30.4351  -12.4280   19.4437 C   0  0  0  0  0  0
  -29.5025  -12.5067   18.2148 C   0  0  0  0  0  0
  -28.0271  -12.3351   18.6319 C   0  0  0  0  0  0
  -27.6449  -13.2206   19.8492 C   0  0  2  0  0  0
  -28.6938  -13.1151   20.9799 C   0  0  0  0  0  0
  -25.2547  -13.8179   20.5675 C   0  0  0  0  0  0
  -24.1832  -13.0416   20.9193 C   0  0  0  0  0  0
  -24.6413  -11.6905   20.8737 C   0  0  0  0  0  0
  -23.9085  -10.4293   21.0408 C   0  0  0  0  0  0
  -24.3648   -9.4197   21.9172 C   0  0  0  0  0  0
  -23.6328   -8.2231   22.0743 C   0  0  0  0  0  0
  -22.4305   -8.0284   21.3534 C   0  0  0  0  0  0
  -21.9944   -9.0248   20.4633 C   0  0  0  0  0  0
  -22.7271  -10.2133   20.3049 C   0  0  0  0  0  0
  -21.6863   -6.0755   22.5288 C   0  0  0  0  0  0
  -21.4013   -6.5645   23.8222 C   0  0  0  0  0  0
  -21.3657   -5.6790   24.9174 C   0  0  0  0  0  0
  -21.6048   -4.3055   24.7237 C   0  0  0  0  0  0
  -21.8820   -3.8156   23.4344 C   0  0  0  0  0  0
  -21.9199   -4.6976   22.3404 C   0  0  0  0  0  0
  -22.7860  -13.5205   21.1850 C   0  0  0  0  0  0
  -22.1662   -4.2165   21.0981 F   0  0  0  0  0  0
  -21.5638   -3.4538   25.7742 F   0  0  0  0  0  0
  -29.9945  -13.4663   20.3985 N   0  0  0  0  0  0
  -26.2963  -12.9351   20.3262 N   0  0  0  0  0  0
  -25.9336  -11.6503   20.5736 N   0  0  0  0  0  0
  -22.0536  -12.8170   22.0425 N   0  0  0  0  0  0
  -25.4230  -15.1895   20.4111 N   0  0  0  0  0  0
  -31.7843  -14.8308   20.1469 O   0  0  0  0  0  0
  -21.6644   -6.8896   21.4253 O   0  0  0  0  0  0
  -22.3527  -14.5526   20.6734 O   0  0  0  0  0  0
  -24.6300  -31.8593   23.2067 C   0  0  0  0  0  0
  -25.9126  -32.4788   23.8384 C   0  0  1  0  0  0
  -27.2088  -27.2949   20.1111 C   0  0  0  0  0  0
  -25.5941  -33.8594   24.2288 N   0  0  0  0  0  0
  -23.4220  -30.4890   21.5503 C   0  0  2  0  0  0
  -24.8632  -28.9504   20.1061 C   0  0  0  0  0  0
  -22.7496  -29.4623   22.4932 C   0  0  0  0  0  0
  -18.0304  -28.1379   22.8499 C   0  0  0  0  0  0
  -24.1494  -36.7294   23.2633 C   0  0  0  0  0  0
  -25.9682  -30.7816   21.3820 C   0  0  0  0  0  0
  -26.0364  -29.4116   20.7160 C   0  0  0  0  0  0
  -27.2117  -28.5964   20.7125 C   0  0  0  0  0  0
  -26.0128  -26.9076   19.4568 C   0  0  0  0  0  0
  -24.8563  -27.7051   19.4644 C   0  0  0  0  0  0
  -23.6346  -29.8352   20.1622 C   0  0  0  0  0  0
  -25.4119  -36.3092   24.0330 C   0  0  1  0  0  0
  -20.5921  -28.3666   23.1282 C   0  0  2  0  0  0
  -20.6780  -26.9367   22.5415 C   0  0  0  0  0  0
  -19.5753  -26.6364   21.5228 C   0  0  0  0  0  0
  -18.1934  -26.7928   22.1635 C   0  0  0  0  0  0
  -19.1558  -28.8844   23.2891 C   0  0  0  0  0  0
  -18.9479  -30.1451   23.8885 C   0  0  0  0  0  0
  -17.6465  -30.6562   24.0569 C   0  0  0  0  0  0
  -25.9054  -34.9462   23.5100 C   0  0  0  0  0  0
  -16.5359  -29.9056   23.6345 C   0  0  0  0  0  0
  -16.7299  -28.6494   23.0343 C   0  0  0  0  0  0
  -26.4501  -31.6615   25.0764 C   0  0  0  0  0  0
  -25.3722  -31.3775   26.1489 C   0  0  0  0  0  0
  -27.0323  -30.3035   24.6220 C   0  0  0  0  0  0
  -27.6062  -32.4367   25.7524 C   0  0  0  0  0  0
  -27.5592  -37.1785   24.8451 C   0  0  0  0  0  0
  -21.4221  -29.3040   22.3673 N   0  0  0  0  0  0
  -26.4292  -37.3787   23.9423 N   0  0  0  0  0  0
  -24.6922  -31.0607   22.1014 N   0  0  0  0  0  0
  -23.4219  -28.8127   23.2977 O   0  0  0  0  0  0
  -28.2933  -26.3933   20.1822 O   0  0  0  0  0  0
  -26.5618  -34.8919   22.4659 O   0  0  0  0  0  0
  -23.5467  -32.1404   23.7391 O   0  0  0  0  0  0
  -29.2361  -18.2620   19.8811 C   0  0  0  0  0  0
  -28.9814  -19.6330   19.7839 C   0  0  0  0  0  0
  -28.9675  -23.8064   20.3677 C   0  0  0  0  0  0
  -30.0996  -17.2715   20.7412 C   0  0  0  0  0  0
  -28.6566  -22.3203   19.8961 C   0  0  0  0  0  0
  -27.9706  -24.9573   19.9217 C   0  0  0  0  0  0
  -29.3876  -20.9962   20.4813 C   0  0  2  0  0  0
  -29.7831  -15.7853   20.6750 N   0  0  0  0  0  0
  -30.8579  -21.1298   20.4773 N   0  3  0  0  0  0
  -29.9677  -24.0488   21.0497 O   0  0  0  0  0  0
  -28.1821  -17.6625   18.5892 S   0  0  0  0  0  0
  -27.8432  -19.6153   18.4223 S   0  0  0  0  0  0
  -31.4735  -12.5684   19.1350 H   0  0  0  0  0  0
  -30.3847  -11.4418   19.9078 H   0  0  0  0  0  0
  -29.7733  -11.7421   17.4835 H   0  0  0  0  0  0
  -29.6310  -13.4681   17.7129 H   0  0  0  0  0  0
  -27.8722  -11.2830   18.8738 H   0  0  0  0  0  0
  -27.3702  -12.5506   17.7889 H   0  0  0  0  0  0
  -27.6489  -14.2488   19.4854 H   0  0  0  0  0  0
  -28.7233  -12.1045   21.3879 H   0  0  0  0  0  0
  -28.4369  -13.7718   21.8124 H   0  0  0  0  0  0
  -25.2813   -9.5657   22.4713 H   0  0  0  0  0  0
  -24.0048   -7.4619   22.7450 H   0  0  0  0  0  0
  -21.0881   -8.8771   19.8931 H   0  0  0  0  0  0
  -22.3747  -10.9666   19.6145 H   0  0  0  0  0  0
  -21.1983   -7.6154   23.9731 H   0  0  0  0  0  0
  -21.1482   -6.0515   25.9078 H   0  0  0  0  0  0
  -22.0605   -2.7625   23.2842 H   0  0  0  0  0  0
  -22.4220  -11.9839   22.4777 H   0  0  0  0  0  0
  -21.1136  -13.1121   22.2648 H   0  0  0  0  0  0
  -24.6508  -15.8369   20.5270 H   0  0  0  0  0  0
  -26.2624  -15.6380   20.0681 H   0  0  0  0  0  0
  -26.7172  -32.5430   23.1119 H   0  0  0  0  0  0
  -25.0124  -33.9749   25.0457 H   0  0  0  0  0  0
  -22.7201  -31.3153   21.4160 H   0  0  0  0  0  0
  -23.3768  -35.9602   23.3269 H   0  0  0  0  0  0
  -24.3589  -36.8968   22.2050 H   0  0  0  0  0  0
  -23.7207  -37.6477   23.6688 H   0  0  0  0  0  0
  -26.1072  -31.5432   20.6142 H   0  0  0  0  0  0
  -26.8499  -30.8255   22.0109 H   0  0  0  0  0  0
  -28.1079  -28.9416   21.2108 H   0  0  0  0  0  0
  -25.9257  -25.9642   18.9413 H   0  0  0  0  0  0
  -23.9632  -27.3520   18.9690 H   0  0  0  0  0  0
  -23.7568  -30.6222   19.4160 H   0  0  0  0  0  0
  -22.7522  -29.2725   19.8533 H   0  0  0  0  0  0
  -25.1286  -36.1957   25.0818 H   0  0  0  0  0  0
  -21.0043  -28.3254   24.1401 H   0  0  0  0  0  0
  -20.5699  -26.2268   23.3626 H   0  0  0  0  0  0
  -21.6646  -26.7403   22.1186 H   0  0  0  0  0  0
  -19.6889  -25.6280   21.1250 H   0  0  0  0  0  0
  -19.6704  -27.3193   20.6773 H   0  0  0  0  0  0
  -17.4213  -26.6735   21.4014 H   0  0  0  0  0  0
  -18.0276  -26.0067   22.9022 H   0  0  0  0  0  0
  -19.7942  -30.7285   24.2247 H   0  0  0  0  0  0
  -17.5004  -31.6251   24.5141 H   0  0  0  0  0  0
  -15.5349  -30.2917   23.7666 H   0  0  0  0  0  0
  -15.8728  -28.0796   22.7025 H   0  0  0  0  0  0
  -24.5928  -30.7087   25.7843 H   0  0  0  0  0  0
  -24.8862  -32.2935   26.4868 H   0  0  0  0  0  0
  -25.8039  -30.9019   27.0298 H   0  0  0  0  0  0
  -26.2888  -29.6807   24.1235 H   0  0  0  0  0  0
  -27.4006  -29.7302   25.4728 H   0  0  0  0  0  0
  -27.8778  -30.4335   23.9453 H   0  0  0  0  0  0
  -27.2715  -33.3742   26.1989 H   0  0  0  0  0  0
  -28.3924  -32.6809   25.0367 H   0  0  0  0  0  0
  -28.0645  -31.8544   26.5531 H   0  0  0  0  0  0
  -28.2557  -38.0129   24.7568 H   0  0  0  0  0  0
  -28.1143  -36.2669   24.6201 H   0  0  0  0  0  0
  -27.2325  -37.1344   25.8851 H   0  0  0  0  0  0
  -20.9371  -29.8817   21.6949 H   0  0  0  0  0  0
  -26.0185  -38.2857   24.1465 H   0  0  0  0  0  0
  -29.9863  -17.5777   21.7819 H   0  0  0  0  0  0
  -31.1495  -17.4314   20.4958 H   0  0  0  0  0  0
  -28.8073  -22.3403   18.8171 H   0  0  0  0  0  0
  -27.5835  -22.1884   20.0374 H   0  0  0  0  0  0
  -27.0297  -24.7238   20.4210 H   0  0  0  0  0  0
  -27.8019  -24.8309   18.8531 H   0  0  0  0  0  0
  -29.0756  -20.8985   21.5209 H   0  0  0  0  0  0
  -28.8255  -15.5451   20.8818 H   0  0  0  0  0  0
  -31.1277  -21.9804   20.9425 H   0  0  0  0  0  0
  -31.2209  -21.1450   19.5401 H   0  0  0  0  0  0
  -31.2880  -20.3668   20.9713 H   0  0  0  0  0  0
  1 25  1  0  0  0
  1 30  2  0  0  0
  1 78  1  0  0  0
  2  3  1  0  0  0
  2 25  1  0  0  0
  2 83  1  0  0  0
  2 84  1  0  0  0
  3  4  1  0  0  0
  3 85  1  0  0  0
  3 86  1  0  0  0
  4  5  1  0  0  0
  4 87  1  0  0  0
  4 88  1  0  0  0
  5  6  1  0  0  0
  5 26  1  0  0  0
  5 89  1  0  0  0
  6 25  1  0  0  0
  6 90  1  0  0  0
  6 91  1  0  0  0
  7  8  2  0  0  0
  7 26  1  0  0  0
  7 29  1  0  0  0
  8  9  1  0  0  0
  8 22  1  0  0  0
  9 10  1  0  0  0
  9 27  2  0  0  0
 10 11  2  0  0  0
 10 15  1  0  0  0
 11 12  1  0  0  0
 11 92  1  0  0  0
 12 13  2  0  0  0
 12 93  1  0  0  0
 13 14  1  0  0  0
 13 31  1  0  0  0
 14 15  2  0  0  0
 14 94  1  0  0  0
 15 95  1  0  0  0
 16 17  2  0  0  0
 16 21  1  0  0  0
 16 31  1  0  0  0
 17 18  1  0  0  0
 17 96  1  0  0  0
 18 19  2  0  0  0
 18 97  1  0  0  0
 19 20  1  0  0  0
 19 24  1  0  0  0
 20 21  2  0  0  0
 20 98  1  0  0  0
 21 23  1  0  0  0
 22 28  1  0  0  0
 22 32  2  0  0  0
 26 27  1  0  0  0
 28 99  1  0  0  0
 28100  1  0  0  0
 29101  1  0  0  0
 29102  1  0  0  0
 33 34  1  0  0  0
 33 66  1  0  0  0
 33 70  2  0  0  0
 34 36  1  0  0  0
 34 59  1  0  0  0
 34103  1  0  0  0
 35 44  2  0  0  0
 35 45  1  0  0  0
 35 68  1  0  0  0
 36 56  1  0  0  0
 36104  1  0  0  0
 37 39  1  0  0  0
 37 47  1  0  0  0
 37 66  1  0  0  0
 37105  1  0  0  0
 38 43  2  0  0  0
 38 46  1  0  0  0
 38 47  1  0  0  0
 39 64  1  0  0  0
 39 67  2  0  0  0
 40 52  1  0  0  0
 40 53  2  0  0  0
 40 58  1  0  0  0
 41106  1  0  0  0
 41107  1  0  0  0
 41108  1  0  0  0
 41 48  1  0  0  0
 42 43  1  0  0  0
 42 66  1  0  0  0
 42109  1  0  0  0
 42110  1  0  0  0
 43 44  1  0  0  0
 44111  1  0  0  0
 45 46  2  0  0  0
 45112  1  0  0  0
 46113  1  0  0  0
 47114  1  0  0  0
 47115  1  0  0  0
 48 56  1  0  0  0
 48 65  1  0  0  0
 48116  1  0  0  0
 49 50  1  0  0  0
 49 53  1  0  0  0
 49 64  1  0  0  0
 49117  1  0  0  0
 50 51  1  0  0  0
 50118  1  0  0  0
 50119  1  0  0  0
 51 52  1  0  0  0
 51120  1  0  0  0
 51121  1  0  0  0
 52122  1  0  0  0
 52123  1  0  0  0
 53 54  1  0  0  0
 54 55  2  0  0  0
 54124  1  0  0  0
 55 57  1  0  0  0
 55125  1  0  0  0
 56 69  2  0  0  0
 57 58  2  0  0  0
 57126  1  0  0  0
 58127  1  0  0  0
 59 60  1  0  0  0
 59 61  1  0  0  0
 59 62  1  0  0  0
 60128  1  0  0  0
 60129  1  0  0  0
 60130  1  0  0  0
 61131  1  0  0  0
 61132  1  0  0  0
 61133  1  0  0  0
 62134  1  0  0  0
 62135  1  0  0  0
 62136  1  0  0  0
 63 65  1  0  0  0
 63137  1  0  0  0
 63138  1  0  0  0
 63139  1  0  0  0
 64140  1  0  0  0
 65141  1  0  0  0
 68 76  1  0  0  0
 71 72  2  0  0  0
 71 74  1  0  0  0
 71 81  1  0  0  0
 72 77  1  0  0  0
 72 82  1  0  0  0
 73 75  1  0  0  0
 73 76  1  0  0  0
 73 80  2  0  0  0
 74 78  1  0  0  0
 74142  1  0  0  0
 74143  1  0  0  0
 75 77  1  0  0  0
 75144  1  0  0  0
 75145  1  0  0  0
 76146  1  0  0  0
 76147  1  0  0  0
 77 79  1  0  0  0
 77148  1  0  0  0
 78149  1  0  0  0
 79150  1  0  0  0
 79151  1  0  0  0
 79152  1  0  0  0
 81 82  1  0  0  0
M  CHG  1  79   1
M  ISO  4   1 100  68 101  76 101  78 100
M  END
> <chiral flag>
0

> <version>
0

> <s_m_source_file>
/data/baiqing/PycharmProjects/Reinvent-master-3.2/result/LINK_invent/BTK/process_docking_weight1_custom_product_contain_oxygen_bond_distance_aromatic_linkinvent_7_9_3/rearranged_h_0187.sdf

> <i_m_source_file_index>
20

> <r_mmod_Potential_Energy-OPLS-2005>
-183.572525024414

> <r_mmod_Stretch_Energy-OPLS-2005>
103.379928588867

> <r_mmod_Bend_Energy-OPLS-2005>
201.507659912109

> <r_mmod_Torsional_Energy-OPLS-2005>
180.295608520508

> <r_mmod_Improper_Torsional_Energy-OPLS-2005>
4.66094350814819

> <r_mmod_Van_der_Waal_Energy-OPLS-2005>
118.804000854492

> <r_mmod_Electrostatic_Energy-OPLS-2005>
-348.050720214844

> <r_mmod_Solvation_Energy-OPLS-2005>
-514.16796875

> <b_mmod_Minimization_Converged-OPLS-2005>
0

> <r_mmod_RMS_Derivative-OPLS-2005>
3.78141903877258

$$$$
21
                    3D
 Structure written by MMmdl.
159167  0  0  1  0            999 V2000
  -30.6603  -14.6128   20.4450 C   0  0  0  0  0  0
  -30.4288  -12.3574   19.4501 C   0  0  0  0  0  0
  -29.5007  -12.4446   18.2194 C   0  0  0  0  0  0
  -28.0188  -12.3246   18.6349 C   0  0  0  0  0  0
  -27.6428  -13.2058   19.8579 C   0  0  2  0  0  0
  -28.6985  -13.1097   20.9813 C   0  0  0  0  0  0
  -25.2549  -13.8132   20.5727 C   0  0  0  0  0  0
  -24.1803  -13.0413   20.9205 C   0  0  0  0  0  0
  -24.6364  -11.6880   20.8763 C   0  0  0  0  0  0
  -23.9033  -10.4276   21.0417 C   0  0  0  0  0  0
  -24.3591   -9.4193   21.9188 C   0  0  0  0  0  0
  -23.6276   -8.2228   22.0755 C   0  0  0  0  0  0
  -22.4260   -8.0269   21.3544 C   0  0  0  0  0  0
  -21.9893   -9.0243   20.4647 C   0  0  0  0  0  0
  -22.7212  -10.2124   20.3061 C   0  0  0  0  0  0
  -21.6849   -6.0724   22.5275 C   0  0  0  0  0  0
  -21.4013   -6.5632   23.8207 C   0  0  0  0  0  0
  -21.3659   -5.6792   24.9173 C   0  0  0  0  0  0
  -21.6047   -4.3053   24.7227 C   0  0  0  0  0  0
  -21.8821   -3.8142   23.4348 C   0  0  0  0  0  0
  -21.9194   -4.6953   22.3401 C   0  0  0  0  0  0
  -22.7835  -13.5224   21.1864 C   0  0  0  0  0  0
  -22.1663   -4.2142   21.0978 F   0  0  0  0  0  0
  -21.5629   -3.4536   25.7740 F   0  0  0  0  0  0
  -30.0097  -13.4108   20.3895 N   0  0  0  0  0  0
  -26.2951  -12.9274   20.3375 N   0  0  0  0  0  0
  -25.9292  -11.6447   20.5821 N   0  0  0  0  0  0
  -22.0485  -12.8216   22.0422 N   0  0  0  0  0  0
  -25.4304  -15.1851   20.4155 N   0  0  0  0  0  0
  -31.8668  -14.7127   20.2092 O   0  0  0  0  0  0
  -21.6635   -6.8863   21.4233 O   0  0  0  0  0  0
  -22.3530  -14.5538   20.6722 O   0  0  0  0  0  0
  -24.6217  -31.8635   23.2068 C   0  0  0  0  0  0
  -25.9084  -32.4797   23.8381 C   0  0  1  0  0  0
  -27.2292  -27.3649   20.1047 C   0  0  0  0  0  0
  -25.5920  -33.8598   24.2312 N   0  0  0  0  0  0
  -23.4125  -30.4879   21.5489 C   0  0  2  0  0  0
  -24.8575  -28.9496   20.1125 C   0  0  0  0  0  0
  -22.7452  -29.4641   22.4965 C   0  0  0  0  0  0
  -18.0283  -28.1377   22.8491 C   0  0  0  0  0  0
  -24.1487  -36.7303   23.2638 C   0  0  0  0  0  0
  -25.9494  -30.8069   21.3722 C   0  0  0  0  0  0
  -26.0231  -29.4383   20.7142 C   0  0  0  0  0  0
  -27.2090  -28.6556   20.7043 C   0  0  0  0  0  0
  -26.0383  -26.9174   19.4829 C   0  0  0  0  0  0
  -24.8643  -27.6921   19.4911 C   0  0  0  0  0  0
  -23.6239  -29.8242   20.1630 C   0  0  0  0  0  0
  -25.4110  -36.3097   24.0335 C   0  0  1  0  0  0
  -20.5879  -28.3677   23.1299 C   0  0  2  0  0  0
  -20.6771  -26.9406   22.5413 C   0  0  0  0  0  0
  -19.5751  -26.6383   21.5210 C   0  0  0  0  0  0
  -18.1929  -26.7923   22.1620 C   0  0  0  0  0  0
  -19.1534  -28.8842   23.2890 C   0  0  0  0  0  0
  -18.9458  -30.1448   23.8903 C   0  0  0  0  0  0
  -17.6458  -30.6581   24.0565 C   0  0  0  0  0  0
  -25.9045  -34.9461   23.5121 C   0  0  0  0  0  0
  -16.5351  -29.9082   23.6326 C   0  0  0  0  0  0
  -16.7272  -28.6499   23.0349 C   0  0  0  0  0  0
  -26.4488  -31.6591   25.0731 C   0  0  0  0  0  0
  -25.3742  -31.3709   26.1473 C   0  0  0  0  0  0
  -27.0328  -30.3024   24.6153 C   0  0  0  0  0  0
  -27.6064  -32.4315   25.7489 C   0  0  0  0  0  0
  -27.5585  -37.1802   24.8463 C   0  0  0  0  0  0
  -21.4170  -29.3035   22.3701 N   0  0  0  0  0  0
  -26.4293  -37.3788   23.9413 N   0  0  0  0  0  0
  -24.6796  -31.0683   22.0998 N   0  0  0  0  0  0
  -23.4194  -28.8180   23.3028 O   0  0  0  0  0  0
  -28.3809  -26.5759   20.1598 O   0  0  0  0  0  0
  -26.5609  -34.8922   22.4684 O   0  0  0  0  0  0
  -23.5392  -32.1418   23.7422 O   0  0  0  0  0  0
  -31.3953  -18.5765   20.0390 C   0  0  0  0  0  0
  -30.3639  -18.2659   20.8909 C   0  0  0  0  0  0
  -30.2749  -20.6069   20.9341 C   0  0  0  0  0  0
  -29.3302  -24.2874   20.6458 C   0  0  0  0  0  0
  -29.5024  -21.9638   22.9615 C   0  0  0  0  0  0
  -28.5930  -24.9946   18.3217 C   0  0  0  0  0  0
  -29.3886  -16.1780   19.1005 C   0  0  0  0  0  0
  -29.9769  -16.8575   21.3958 C   0  0  0  0  0  0
  -30.0184  -22.0095   21.5121 C   0  0  2  0  0  0
  -28.3128  -25.1474   19.8262 C   0  0  2  0  0  0
  -29.7108  -19.4436   21.3475 N   0  0  0  0  0  0
  -29.2026  -22.9295   20.6736 N   0  0  0  0  0  0
  -29.8704  -15.7319   20.4164 N   0  0  0  0  0  0
  -30.2249  -24.8608   21.2735 O   0  0  0  0  0  0
  -31.5990  -20.2999   19.8133 S   0  0  0  0  0  0
  -31.4714  -12.4631   19.1467 H   0  0  0  0  0  0
  -30.3484  -11.3775   19.9245 H   0  0  0  0  0  0
  -29.7458  -11.6506   17.5129 H   0  0  0  0  0  0
  -29.6714  -13.3761   17.6818 H   0  0  0  0  0  0
  -27.8354  -11.2757   18.8703 H   0  0  0  0  0  0
  -27.3708  -12.5590   17.7895 H   0  0  0  0  0  0
  -27.6238  -14.2299   19.5025 H   0  0  0  0  0  0
  -28.7042  -12.1140   21.4266 H   0  0  0  0  0  0
  -28.4642  -13.8078   21.7868 H   0  0  0  0  0  0
  -25.2734   -9.5671   22.4761 H   0  0  0  0  0  0
  -23.9989   -7.4617   22.7470 H   0  0  0  0  0  0
  -21.0829   -8.8761   19.8944 H   0  0  0  0  0  0
  -22.3675  -10.9668   19.6173 H   0  0  0  0  0  0
  -21.2005   -7.6140   23.9705 H   0  0  0  0  0  0
  -21.1479   -6.0523   25.9074 H   0  0  0  0  0  0
  -22.0600   -2.7604   23.2855 H   0  0  0  0  0  0
  -22.4105  -11.9859   22.4776 H   0  0  0  0  0  0
  -21.1111  -13.1242   22.2663 H   0  0  0  0  0  0
  -24.6725  -15.8482   20.5338 H   0  0  0  0  0  0
  -26.2977  -15.6210   20.1281 H   0  0  0  0  0  0
  -26.7149  -32.5482   23.1133 H   0  0  0  0  0  0
  -25.0083  -33.9756   25.0465 H   0  0  0  0  0  0
  -22.7042  -31.3069   21.4087 H   0  0  0  0  0  0
  -23.3754  -35.9631   23.3297 H   0  0  0  0  0  0
  -24.3582  -36.8924   22.2053 H   0  0  0  0  0  0
  -23.7235  -37.6502   23.6658 H   0  0  0  0  0  0
  -26.0759  -31.5729   20.6057 H   0  0  0  0  0  0
  -26.8318  -30.8544   21.9986 H   0  0  0  0  0  0
  -28.1044  -29.0275   21.1822 H   0  0  0  0  0  0
  -25.9801  -25.9621   18.9847 H   0  0  0  0  0  0
  -23.9705  -27.3121   19.0159 H   0  0  0  0  0  0
  -23.7402  -30.6012   19.4064 H   0  0  0  0  0  0
  -22.7447  -29.2516   19.8621 H   0  0  0  0  0  0
  -25.1286  -36.1957   25.0827 H   0  0  0  0  0  0
  -20.9970  -28.3241   24.1419 H   0  0  0  0  0  0
  -20.5669  -26.2285   23.3606 H   0  0  0  0  0  0
  -21.6642  -26.7435   22.1212 H   0  0  0  0  0  0
  -19.6914  -25.6296   21.1234 H   0  0  0  0  0  0
  -19.6688  -27.3198   20.6745 H   0  0  0  0  0  0
  -17.4202  -26.6684   21.4015 H   0  0  0  0  0  0
  -18.0320  -26.0056   22.9003 H   0  0  0  0  0  0
  -19.7933  -30.7264   24.2273 H   0  0  0  0  0  0
  -17.5011  -31.6258   24.5169 H   0  0  0  0  0  0
  -15.5353  -30.2985   23.7639 H   0  0  0  0  0  0
  -15.8674  -28.0817   22.7060 H   0  0  0  0  0  0
  -24.5920  -30.7049   25.7809 H   0  0  0  0  0  0
  -24.8927  -32.2864   26.4918 H   0  0  0  0  0  0
  -25.8086  -30.8881   27.0236 H   0  0  0  0  0  0
  -26.2886  -29.6771   24.1206 H   0  0  0  0  0  0
  -27.4074  -29.7278   25.4635 H   0  0  0  0  0  0
  -27.8734  -30.4329   23.9335 H   0  0  0  0  0  0
  -27.2697  -33.3617   26.2080 H   0  0  0  0  0  0
  -28.3863  -32.6874   25.0302 H   0  0  0  0  0  0
  -28.0749  -31.8430   26.5389 H   0  0  0  0  0  0
  -28.2599  -38.0104   24.7524 H   0  0  0  0  0  0
  -28.1086  -36.2638   24.6269 H   0  0  0  0  0  0
  -27.2308  -37.1430   25.8867 H   0  0  0  0  0  0
  -20.9343  -29.8762   21.6919 H   0  0  0  0  0  0
  -26.0178  -38.2863   24.1422 H   0  0  0  0  0  0
  -32.0737  -17.8893   19.5494 H   0  0  0  0  0  0
  -30.1724  -21.3814   23.5942 H   0  0  0  0  0  0
  -28.5149  -21.5049   23.0145 H   0  0  0  0  0  0
  -29.4310  -22.9618   23.3938 H   0  0  0  0  0  0
  -28.5246  -23.9523   18.0099 H   0  0  0  0  0  0
  -29.5933  -25.3500   18.0726 H   0  0  0  0  0  0
  -27.8850  -25.5620   17.7194 H   0  0  0  0  0  0
  -28.5147  -16.8225   19.2033 H   0  0  0  0  0  0
  -29.1072  -15.3569   18.4472 H   0  0  0  0  0  0
  -30.1575  -16.7311   18.5623 H   0  0  0  0  0  0
  -29.0125  -16.9107   21.9024 H   0  0  0  0  0  0
  -30.6808  -16.5661   22.1777 H   0  0  0  0  0  0
  -31.0140  -22.4541   21.5697 H   0  0  0  0  0  0
  -27.3355  -24.7354   20.0776 H   0  0  0  0  0  0
  -28.4607  -22.5114   20.1292 H   0  0  0  0  0  0
  1 25  1  0  0  0
  1 30  2  0  0  0
  1 83  1  0  0  0
  2  3  1  0  0  0
  2 25  1  0  0  0
  2 86  1  0  0  0
  2 87  1  0  0  0
  3  4  1  0  0  0
  3 88  1  0  0  0
  3 89  1  0  0  0
  4  5  1  0  0  0
  4 90  1  0  0  0
  4 91  1  0  0  0
  5  6  1  0  0  0
  5 26  1  0  0  0
  5 92  1  0  0  0
  6 25  1  0  0  0
  6 93  1  0  0  0
  6 94  1  0  0  0
  7  8  2  0  0  0
  7 26  1  0  0  0
  7 29  1  0  0  0
  8  9  1  0  0  0
  8 22  1  0  0  0
  9 10  1  0  0  0
  9 27  2  0  0  0
 10 11  2  0  0  0
 10 15  1  0  0  0
 11 12  1  0  0  0
 11 95  1  0  0  0
 12 13  2  0  0  0
 12 96  1  0  0  0
 13 14  1  0  0  0
 13 31  1  0  0  0
 14 15  2  0  0  0
 14 97  1  0  0  0
 15 98  1  0  0  0
 16 17  2  0  0  0
 16 21  1  0  0  0
 16 31  1  0  0  0
 17 18  1  0  0  0
 17 99  1  0  0  0
 18 19  2  0  0  0
 18100  1  0  0  0
 19 20  1  0  0  0
 19 24  1  0  0  0
 20 21  2  0  0  0
 20101  1  0  0  0
 21 23  1  0  0  0
 22 28  1  0  0  0
 22 32  2  0  0  0
 26 27  1  0  0  0
 28102  1  0  0  0
 28103  1  0  0  0
 29104  1  0  0  0
 29105  1  0  0  0
 33 34  1  0  0  0
 33 66  1  0  0  0
 33 70  2  0  0  0
 34 36  1  0  0  0
 34 59  1  0  0  0
 34106  1  0  0  0
 35 44  2  0  0  0
 35 45  1  0  0  0
 35 68  1  0  0  0
 36 56  1  0  0  0
 36107  1  0  0  0
 37 39  1  0  0  0
 37 47  1  0  0  0
 37 66  1  0  0  0
 37108  1  0  0  0
 38 43  2  0  0  0
 38 46  1  0  0  0
 38 47  1  0  0  0
 39 64  1  0  0  0
 39 67  2  0  0  0
 40 52  1  0  0  0
 40 53  2  0  0  0
 40 58  1  0  0  0
 41109  1  0  0  0
 41110  1  0  0  0
 41111  1  0  0  0
 41 48  1  0  0  0
 42 43  1  0  0  0
 42 66  1  0  0  0
 42112  1  0  0  0
 42113  1  0  0  0
 43 44  1  0  0  0
 44114  1  0  0  0
 45 46  2  0  0  0
 45115  1  0  0  0
 46116  1  0  0  0
 47117  1  0  0  0
 47118  1  0  0  0
 48 56  1  0  0  0
 48 65  1  0  0  0
 48119  1  0  0  0
 49 50  1  0  0  0
 49 53  1  0  0  0
 49 64  1  0  0  0
 49120  1  0  0  0
 50 51  1  0  0  0
 50121  1  0  0  0
 50122  1  0  0  0
 51 52  1  0  0  0
 51123  1  0  0  0
 51124  1  0  0  0
 52125  1  0  0  0
 52126  1  0  0  0
 53 54  1  0  0  0
 54 55  2  0  0  0
 54127  1  0  0  0
 55 57  1  0  0  0
 55128  1  0  0  0
 56 69  2  0  0  0
 57 58  2  0  0  0
 57129  1  0  0  0
 58130  1  0  0  0
 59 60  1  0  0  0
 59 61  1  0  0  0
 59 62  1  0  0  0
 60131  1  0  0  0
 60132  1  0  0  0
 60133  1  0  0  0
 61134  1  0  0  0
 61135  1  0  0  0
 61136  1  0  0  0
 62137  1  0  0  0
 62138  1  0  0  0
 62139  1  0  0  0
 63 65  1  0  0  0
 63140  1  0  0  0
 63141  1  0  0  0
 63142  1  0  0  0
 64143  1  0  0  0
 65144  1  0  0  0
 68 80  1  0  0  0
 71 72  2  0  0  0
 71 85  1  0  0  0
 71145  1  0  0  0
 72 78  1  0  0  0
 72 81  1  0  0  0
 73 79  1  0  0  0
 73 81  2  0  0  0
 73 85  1  0  0  0
 74 80  1  0  0  0
 74 82  1  0  0  0
 74 84  2  0  0  0
 75146  1  0  0  0
 75147  1  0  0  0
 75148  1  0  0  0
 75 79  1  0  0  0
 76149  1  0  0  0
 76150  1  0  0  0
 76151  1  0  0  0
 76 80  1  0  0  0
 77 83  1  0  0  0
 77152  1  0  0  0
 77153  1  0  0  0
 77154  1  0  0  0
 78 83  1  0  0  0
 78155  1  0  0  0
 78156  1  0  0  0
 79 82  1  0  0  0
 79157  1  0  0  0
 80158  1  0  0  0
 82159  1  0  0  0
M  ISO  4   1 100  68 101  80 101  83 100
M  END
> <chiral flag>
0

> <version>
0

> <s_m_source_file>
/data/baiqing/PycharmProjects/Reinvent-master-3.2/result/LINK_invent/BTK/process_docking_weight1_custom_product_contain_oxygen_bond_distance_aromatic_linkinvent_7_9_3/rearranged_h_0187.sdf

> <i_m_source_file_index>
21

> <r_mmod_Potential_Energy-OPLS-2005>
2.28368258476257

> <r_mmod_Stretch_Energy-OPLS-2005>
59.9638061523438

> <r_mmod_Bend_Energy-OPLS-2005>
122.412292480469

> <r_mmod_Torsional_Energy-OPLS-2005>
287.528228759766

> <r_mmod_Improper_Torsional_Energy-OPLS-2005>
12.1676149368286

> <r_mmod_Van_der_Waal_Energy-OPLS-2005>
128.581497192383

> <r_mmod_Electrostatic_Energy-OPLS-2005>
-418.878753662109

> <r_mmod_Solvation_Energy-OPLS-2005>
-231.431701660156

> <b_mmod_Minimization_Converged-OPLS-2005>
0

> <r_mmod_RMS_Derivative-OPLS-2005>
0.824276864528656

$$$$
22
                    3D
 Structure written by MMmdl.
167175  0  0  1  0            999 V2000
  -30.6973  -14.5162   20.5461 C   0  0  0  0  0  0
  -30.4266  -12.3269   19.4281 C   0  0  0  0  0  0
  -29.4993  -12.5021   18.2076 C   0  0  0  0  0  0
  -28.0227  -12.3478   18.6226 C   0  0  0  0  0  0
  -27.6592  -13.2033   19.8660 C   0  0  2  0  0  0
  -28.7052  -13.0253   20.9914 C   0  0  0  0  0  0
  -25.2596  -13.8148   20.5648 C   0  0  0  0  0  0
  -24.1836  -13.0434   20.9142 C   0  0  0  0  0  0
  -24.6373  -11.6886   20.8690 C   0  0  0  0  0  0
  -23.9021  -10.4279   21.0369 C   0  0  0  0  0  0
  -24.3585   -9.4215   21.9166 C   0  0  0  0  0  0
  -23.6267   -8.2244   22.0749 C   0  0  0  0  0  0
  -22.4259   -8.0258   21.3526 C   0  0  0  0  0  0
  -21.9876   -9.0229   20.4645 C   0  0  0  0  0  0
  -22.7183  -10.2117   20.3038 C   0  0  0  0  0  0
  -21.6867   -6.0705   22.5248 C   0  0  0  0  0  0
  -21.4032   -6.5616   23.8183 C   0  0  0  0  0  0
  -21.3665   -5.6771   24.9148 C   0  0  0  0  0  0
  -21.6046   -4.3030   24.7208 C   0  0  0  0  0  0
  -21.8829   -3.8115   23.4330 C   0  0  0  0  0  0
  -21.9205   -4.6927   22.3381 C   0  0  0  0  0  0
  -22.7863  -13.5248   21.1793 C   0  0  0  0  0  0
  -22.1670   -4.2104   21.0959 F   0  0  0  0  0  0
  -21.5636   -3.4523   25.7731 F   0  0  0  0  0  0
  -30.0284  -13.3332   20.4259 N   0  0  0  0  0  0
  -26.3016  -12.9309   20.3320 N   0  0  0  0  0  0
  -25.9304  -11.6469   20.5726 N   0  0  0  0  0  0
  -22.0496  -12.8265   22.0362 N   0  0  0  0  0  0
  -25.4326  -15.1872   20.4053 N   0  0  0  0  0  0
  -31.8445  -14.6663   20.1200 O   0  0  0  0  0  0
  -21.6648   -6.8837   21.4206 O   0  0  0  0  0  0
  -22.3558  -14.5544   20.6618 O   0  0  0  0  0  0
  -24.6200  -31.8655   23.2080 C   0  0  0  0  0  0
  -25.9072  -32.4812   23.8383 C   0  0  1  0  0  0
  -27.2334  -27.4190   20.0813 C   0  0  0  0  0  0
  -25.5914  -33.8610   24.2322 N   0  0  0  0  0  0
  -23.4092  -30.4920   21.5485 C   0  0  2  0  0  0
  -24.8549  -28.9627   20.1061 C   0  0  0  0  0  0
  -22.7434  -29.4662   22.4953 C   0  0  0  0  0  0
  -18.0285  -28.1376   22.8495 C   0  0  0  0  0  0
  -24.1485  -36.7312   23.2638 C   0  0  0  0  0  0
  -25.9421  -30.8303   21.3596 C   0  0  0  0  0  0
  -26.0215  -29.4685   20.6944 C   0  0  0  0  0  0
  -27.2171  -28.7057   20.6752 C   0  0  0  0  0  0
  -26.0342  -26.9183   19.5381 C   0  0  0  0  0  0
  -24.8573  -27.6858   19.5230 C   0  0  0  0  0  0
  -23.6176  -29.8300   20.1612 C   0  0  0  0  0  0
  -25.4105  -36.3110   24.0340 C   0  0  1  0  0  0
  -20.5877  -28.3671   23.1295 C   0  0  2  0  0  0
  -20.6770  -26.9399   22.5404 C   0  0  0  0  0  0
  -19.5752  -26.6381   21.5202 C   0  0  0  0  0  0
  -18.1934  -26.7922   22.1617 C   0  0  0  0  0  0
  -19.1528  -28.8840   23.2900 C   0  0  0  0  0  0
  -18.9457  -30.1442   23.8910 C   0  0  0  0  0  0
  -17.6458  -30.6582   24.0556 C   0  0  0  0  0  0
  -25.9036  -34.9472   23.5129 C   0  0  0  0  0  0
  -16.5353  -29.9083   23.6323 C   0  0  0  0  0  0
  -16.7269  -28.6496   23.0360 C   0  0  0  0  0  0
  -26.4484  -31.6600   25.0721 C   0  0  0  0  0  0
  -25.3751  -31.3715   26.1476 C   0  0  0  0  0  0
  -27.0305  -30.3039   24.6106 C   0  0  0  0  0  0
  -27.6073  -32.4305   25.7479 C   0  0  0  0  0  0
  -27.5582  -37.1813   24.8463 C   0  0  0  0  0  0
  -21.4152  -29.3043   22.3696 N   0  0  0  0  0  0
  -26.4294  -37.3796   23.9411 N   0  0  0  0  0  0
  -24.6764  -31.0747   22.0985 N   0  0  0  0  0  0
  -23.4195  -28.8200   23.3000 O   0  0  0  0  0  0
  -28.3282  -26.5831   20.1888 O   0  0  0  0  0  0
  -26.5583  -34.8926   22.4683 O   0  0  0  0  0  0
  -23.5382  -32.1400   23.7467 O   0  0  0  0  0  0
  -31.8779  -18.5134   22.2660 C   0  0  0  0  0  0
  -30.3993  -16.9157   21.1870 C   0  0  0  0  0  0
  -31.5127  -17.1753   22.0168 C   0  0  0  0  0  0
  -29.6893  -18.0381   20.6710 C   0  0  0  0  0  0
  -30.1547  -19.3537   20.9674 C   0  0  0  0  0  0
  -27.7477  -25.5246   17.1124 C   0  0  0  0  0  0
  -30.5098  -22.2075   20.0217 C   0  0  0  0  0  0
  -26.6351  -27.0929   15.4073 C   0  0  0  0  0  0
  -27.9284  -26.7014   16.1430 C   0  0  0  0  0  0
  -29.1881  -26.3549   19.0664 C   0  0  0  0  0  0
  -28.9169  -25.1804   18.0579 C   0  0  1  0  0  0
  -28.9354  -23.6657   18.5551 C   0  0  1  0  0  0
  -28.8366  -22.6800   17.3398 C   0  0  0  0  0  0
  -31.2295  -19.5879   21.7574 N   0  0  0  0  0  0
  -31.7351  -22.0646   20.5388 N   0  0  0  0  0  0
  -29.9503  -15.5701   20.9475 N   0  0  0  0  0  0
  -30.1696  -23.3270   19.3159 N   0  3  0  0  0  0
  -26.6924  -24.8889   17.1304 O   0  0  0  0  0  0
  -32.2040  -16.1665   22.6032 F   0  0  0  0  0  0
  -28.5832  -17.8479   19.9093 F   0  0  0  0  0  0
  -27.5756  -22.4162   17.0103 F   0  0  0  0  0  0
  -29.4140  -21.5057   17.5840 F   0  0  0  0  0  0
  -29.4655  -23.1809   16.2748 F   0  0  0  0  0  0
  -29.3060  -20.8387   20.3673 S   0  0  0  0  0  0
  -31.4729  -12.4176   19.1302 H   0  0  0  0  0  0
  -30.3229  -11.3235   19.8449 H   0  0  0  0  0  0
  -29.7501  -11.7718   17.4372 H   0  0  0  0  0  0
  -29.6558  -13.4863   17.7622 H   0  0  0  0  0  0
  -27.8479  -11.2923   18.8371 H   0  0  0  0  0  0
  -27.3671  -12.5962   17.7876 H   0  0  0  0  0  0
  -27.6929  -14.2434   19.5440 H   0  0  0  0  0  0
  -28.6921  -12.0026   21.3719 H   0  0  0  0  0  0
  -28.4666  -13.6560   21.8491 H   0  0  0  0  0  0
  -25.2740   -9.5721   22.4717 H   0  0  0  0  0  0
  -23.9977   -7.4670   22.7496 H   0  0  0  0  0  0
  -21.0799   -8.8735   19.8974 H   0  0  0  0  0  0
  -22.3621  -10.9641   19.6136 H   0  0  0  0  0  0
  -21.2026   -7.6129   23.9668 H   0  0  0  0  0  0
  -21.1488   -6.0506   25.9050 H   0  0  0  0  0  0
  -22.0612   -2.7573   23.2843 H   0  0  0  0  0  0
  -22.4114  -11.9953   22.4794 H   0  0  0  0  0  0
  -21.1113  -13.1311   22.2515 H   0  0  0  0  0  0
  -24.6626  -15.8392   20.5087 H   0  0  0  0  0  0
  -26.2781  -15.6281   20.0664 H   0  0  0  0  0  0
  -26.7153  -32.5512   23.1154 H   0  0  0  0  0  0
  -25.0091  -33.9760   25.0486 H   0  0  0  0  0  0
  -22.7007  -31.3113   21.4121 H   0  0  0  0  0  0
  -23.3745  -35.9644   23.3296 H   0  0  0  0  0  0
  -24.3582  -36.8926   22.2053 H   0  0  0  0  0  0
  -23.7231  -37.6518   23.6644 H   0  0  0  0  0  0
  -26.0587  -31.6036   20.5981 H   0  0  0  0  0  0
  -26.8284  -30.8774   21.9809 H   0  0  0  0  0  0
  -28.1138  -29.0855   21.1448 H   0  0  0  0  0  0
  -25.9782  -25.9030   19.1830 H   0  0  0  0  0  0
  -23.9501  -27.2723   19.1039 H   0  0  0  0  0  0
  -23.7263  -30.6084   19.4051 H   0  0  0  0  0  0
  -22.7398  -29.2536   19.8639 H   0  0  0  0  0  0
  -25.1284  -36.1983   25.0831 H   0  0  0  0  0  0
  -20.9991  -28.3242   24.1408 H   0  0  0  0  0  0
  -20.5670  -26.2274   23.3599 H   0  0  0  0  0  0
  -21.6645  -26.7446   22.1199 H   0  0  0  0  0  0
  -19.6909  -25.6296   21.1230 H   0  0  0  0  0  0
  -19.6693  -27.3189   20.6736 H   0  0  0  0  0  0
  -17.4205  -26.6678   21.4021 H   0  0  0  0  0  0
  -18.0339  -26.0063   22.9014 H   0  0  0  0  0  0
  -19.7937  -30.7257   24.2286 H   0  0  0  0  0  0
  -17.5019  -31.6266   24.5155 H   0  0  0  0  0  0
  -15.5357  -30.2993   23.7638 H   0  0  0  0  0  0
  -15.8670  -28.0815   22.7078 H   0  0  0  0  0  0
  -24.5898  -30.7096   25.7812 H   0  0  0  0  0  0
  -24.8969  -32.2876   26.4956 H   0  0  0  0  0  0
  -25.8101  -30.8851   27.0217 H   0  0  0  0  0  0
  -26.2841  -29.6804   24.1170 H   0  0  0  0  0  0
  -27.4085  -29.7280   25.4564 H   0  0  0  0  0  0
  -27.8675  -30.4345   23.9242 H   0  0  0  0  0  0
  -27.2716  -33.3613   26.2062 H   0  0  0  0  0  0
  -28.3881  -32.6852   25.0300 H   0  0  0  0  0  0
  -28.0737  -31.8416   26.5389 H   0  0  0  0  0  0
  -28.2614  -38.0101   24.7518 H   0  0  0  0  0  0
  -28.1072  -36.2638   24.6287 H   0  0  0  0  0  0
  -27.2298  -37.1462   25.8866 H   0  0  0  0  0  0
  -20.9303  -29.8766   21.6924 H   0  0  0  0  0  0
  -26.0188  -38.2876   24.1414 H   0  0  0  0  0  0
  -32.7200  -18.7279   22.9071 H   0  0  0  0  0  0
  -26.8133  -27.9333   14.7364 H   0  0  0  0  0  0
  -25.8549  -27.3918   16.1098 H   0  0  0  0  0  0
  -26.2502  -26.2666   14.8086 H   0  0  0  0  0  0
  -28.6991  -26.4372   15.4199 H   0  0  0  0  0  0
  -28.2924  -27.5719   16.6855 H   0  0  0  0  0  0
  -29.3011  -27.2995   18.5344 H   0  0  0  0  0  0
  -30.1762  -26.1874   19.4963 H   0  0  0  0  0  0
  -29.7713  -25.2400   17.3834 H   0  0  0  0  0  0
  -28.0942  -23.4941   19.2284 H   0  0  0  0  0  0
  -32.4838  -22.7323   20.4338 H   0  0  0  0  0  0
  -31.9064  -21.2539   21.1310 H   0  0  0  0  0  0
  -28.9633  -15.4052   21.0464 H   0  0  0  0  0  0
  -30.9240  -23.9687   19.1369 H   0  0  0  0  0  0
  1 25  1  0  0  0
  1 30  2  0  0  0
  1 86  1  0  0  0
  2  3  1  0  0  0
  2 25  1  0  0  0
  2 95  1  0  0  0
  2 96  1  0  0  0
  3  4  1  0  0  0
  3 97  1  0  0  0
  3 98  1  0  0  0
  4  5  1  0  0  0
  4 99  1  0  0  0
  4100  1  0  0  0
  5  6  1  0  0  0
  5 26  1  0  0  0
  5101  1  0  0  0
  6 25  1  0  0  0
  6102  1  0  0  0
  6103  1  0  0  0
  7  8  2  0  0  0
  7 26  1  0  0  0
  7 29  1  0  0  0
  8  9  1  0  0  0
  8 22  1  0  0  0
  9 10  1  0  0  0
  9 27  2  0  0  0
 10 11  2  0  0  0
 10 15  1  0  0  0
 11 12  1  0  0  0
 11104  1  0  0  0
 12 13  2  0  0  0
 12105  1  0  0  0
 13 14  1  0  0  0
 13 31  1  0  0  0
 14 15  2  0  0  0
 14106  1  0  0  0
 15107  1  0  0  0
 16 17  2  0  0  0
 16 21  1  0  0  0
 16 31  1  0  0  0
 17 18  1  0  0  0
 17108  1  0  0  0
 18 19  2  0  0  0
 18109  1  0  0  0
 19 20  1  0  0  0
 19 24  1  0  0  0
 20 21  2  0  0  0
 20110  1  0  0  0
 21 23  1  0  0  0
 22 28  1  0  0  0
 22 32  2  0  0  0
 26 27  1  0  0  0
 28111  1  0  0  0
 28112  1  0  0  0
 29113  1  0  0  0
 29114  1  0  0  0
 33 34  1  0  0  0
 33 66  1  0  0  0
 33 70  2  0  0  0
 34 36  1  0  0  0
 34 59  1  0  0  0
 34115  1  0  0  0
 35 44  2  0  0  0
 35 45  1  0  0  0
 35 68  1  0  0  0
 36 56  1  0  0  0
 36116  1  0  0  0
 37 39  1  0  0  0
 37 47  1  0  0  0
 37 66  1  0  0  0
 37117  1  0  0  0
 38 43  2  0  0  0
 38 46  1  0  0  0
 38 47  1  0  0  0
 39 64  1  0  0  0
 39 67  2  0  0  0
 40 52  1  0  0  0
 40 53  2  0  0  0
 40 58  1  0  0  0
 41118  1  0  0  0
 41119  1  0  0  0
 41120  1  0  0  0
 41 48  1  0  0  0
 42 43  1  0  0  0
 42 66  1  0  0  0
 42121  1  0  0  0
 42122  1  0  0  0
 43 44  1  0  0  0
 44123  1  0  0  0
 45 46  2  0  0  0
 45124  1  0  0  0
 46125  1  0  0  0
 47126  1  0  0  0
 47127  1  0  0  0
 48 56  1  0  0  0
 48 65  1  0  0  0
 48128  1  0  0  0
 49 50  1  0  0  0
 49 53  1  0  0  0
 49 64  1  0  0  0
 49129  1  0  0  0
 50 51  1  0  0  0
 50130  1  0  0  0
 50131  1  0  0  0
 51 52  1  0  0  0
 51132  1  0  0  0
 51133  1  0  0  0
 52134  1  0  0  0
 52135  1  0  0  0
 53 54  1  0  0  0
 54 55  2  0  0  0
 54136  1  0  0  0
 55 57  1  0  0  0
 55137  1  0  0  0
 56 69  2  0  0  0
 57 58  2  0  0  0
 57138  1  0  0  0
 58139  1  0  0  0
 59 60  1  0  0  0
 59 61  1  0  0  0
 59 62  1  0  0  0
 60140  1  0  0  0
 60141  1  0  0  0
 60142  1  0  0  0
 61143  1  0  0  0
 61144  1  0  0  0
 61145  1  0  0  0
 62146  1  0  0  0
 62147  1  0  0  0
 62148  1  0  0  0
 63 65  1  0  0  0
 63149  1  0  0  0
 63150  1  0  0  0
 63151  1  0  0  0
 64152  1  0  0  0
 65153  1  0  0  0
 68 80  1  0  0  0
 71 73  2  0  0  0
 71 84  1  0  0  0
 71154  1  0  0  0
 72 73  1  0  0  0
 72 74  2  0  0  0
 72 86  1  0  0  0
 73 89  1  0  0  0
 74 75  1  0  0  0
 74 90  1  0  0  0
 75 84  2  0  0  0
 75 94  1  0  0  0
 76 79  1  0  0  0
 76 81  1  0  0  0
 76 88  2  0  0  0
 77 85  1  0  0  0
 77 87  2  0  0  0
 77 94  1  0  0  0
 78 79  1  0  0  0
 78155  1  0  0  0
 78156  1  0  0  0
 78157  1  0  0  0
 79158  1  0  0  0
 79159  1  0  0  0
 80160  1  0  0  0
 80161  1  0  0  0
 80 81  1  0  0  0
 81 82  1  0  0  0
 81162  1  0  0  0
 82 83  1  0  0  0
 82 87  1  0  0  0
 82163  1  0  0  0
 83 91  1  0  0  0
 83 92  1  0  0  0
 83 93  1  0  0  0
 85164  1  0  0  0
 85165  1  0  0  0
 86166  1  0  0  0
 87167  1  0  0  0
M  CHG  1  87   1
M  ISO  4   1 100  68 101  80 101  86 100
M  END
> <chiral flag>
0

> <version>
0

> <s_m_source_file>
/data/baiqing/PycharmProjects/Reinvent-master-3.2/result/LINK_invent/BTK/process_docking_weight1_custom_product_contain_oxygen_bond_distance_aromatic_linkinvent_7_9_3/rearranged_h_0187.sdf

> <i_m_source_file_index>
22

> <r_mmod_Potential_Energy-OPLS-2005>
-260.705993652344

> <r_mmod_Stretch_Energy-OPLS-2005>
56.5097923278809

> <r_mmod_Bend_Energy-OPLS-2005>
150.285827636719

> <r_mmod_Torsional_Energy-OPLS-2005>
268.914611816406

> <r_mmod_Improper_Torsional_Energy-OPLS-2005>
6.65271377563477

> <r_mmod_Van_der_Waal_Energy-OPLS-2005>
168.330764770508

> <r_mmod_Electrostatic_Energy-OPLS-2005>
-475.320404052734

> <r_mmod_Solvation_Energy-OPLS-2005>
-459.252380371094

> <b_mmod_Minimization_Converged-OPLS-2005>
0

> <r_mmod_RMS_Derivative-OPLS-2005>
2.0887885093689

$$$$
23
                    3D
 Structure written by MMmdl.
148156  0  0  1  0            999 V2000
  -30.2757  -15.5895   20.3406 C   0  0  0  0  0  0
  -30.4390  -13.0333   19.5588 C   0  0  0  0  0  0
  -29.5594  -12.6557   18.3274 C   0  0  0  0  0  0
  -28.1249  -12.3066   18.7553 C   0  0  0  0  0  0
  -27.6020  -13.3044   19.8144 C   0  0  2  0  0  0
  -28.6151  -13.5900   20.9444 C   0  0  0  0  0  0
  -25.2351  -13.8283   20.5783 C   0  0  0  0  0  0
  -24.1736  -13.0427   20.9274 C   0  0  0  0  0  0
  -24.6424  -11.6931   20.8750 C   0  0  0  0  0  0
  -23.9124  -10.4286   21.0407 C   0  0  0  0  0  0
  -24.3658   -9.4193   21.9181 C   0  0  0  0  0  0
  -23.6327   -8.2232   22.0747 C   0  0  0  0  0  0
  -22.4307   -8.0287   21.3545 C   0  0  0  0  0  0
  -21.9961   -9.0260   20.4629 C   0  0  0  0  0  0
  -22.7300  -10.2131   20.3042 C   0  0  0  0  0  0
  -21.6856   -6.0747   22.5281 C   0  0  0  0  0  0
  -21.4011   -6.5643   23.8222 C   0  0  0  0  0  0
  -21.3655   -5.6791   24.9175 C   0  0  0  0  0  0
  -21.6050   -4.3057   24.7225 C   0  0  0  0  0  0
  -21.8826   -3.8153   23.4349 C   0  0  0  0  0  0
  -21.9197   -4.6975   22.3404 C   0  0  0  0  0  0
  -22.7748  -13.5145   21.1927 C   0  0  0  0  0  0
  -22.1679   -4.2160   21.0986 F   0  0  0  0  0  0
  -21.5625   -3.4542   25.7745 F   0  0  0  0  0  0
  -29.8164  -14.2004   20.3287 N   0  0  0  0  0  0
  -26.2791  -12.9596   20.3181 N   0  0  0  0  0  0
  -25.9359  -11.6663   20.5637 N   0  0  0  0  0  0
  -22.0423  -12.8072   22.0445 N   0  0  0  0  0  0
  -25.3959  -15.2024   20.4273 N   0  0  0  0  0  0
  -31.5027  -15.5638   20.1183 O   0  0  0  0  0  0
  -21.6644   -6.8901   21.4254 O   0  0  0  0  0  0
  -22.3403  -14.5453   20.6787 O   0  0  0  0  0  0
  -24.6831  -31.7997   23.1503 C   0  0  0  0  0  0
  -25.9423  -32.4465   23.8037 C   0  0  1  0  0  0
  -27.2352  -26.7084   20.2298 C   0  0  0  0  0  0
  -25.6009  -33.8287   24.1945 N   0  0  0  0  0  0
  -23.5098  -30.3986   21.5051 C   0  0  2  0  0  0
  -24.9690  -28.7370   20.1230 C   0  0  0  0  0  0
  -22.7767  -29.4309   22.4728 C   0  0  0  0  0  0
  -18.0340  -28.1417   22.8468 C   0  0  0  0  0  0
  -24.1488  -36.7128   23.2655 C   0  0  0  0  0  0
  -26.0898  -30.5357   21.4141 C   0  0  0  0  0  0
  -26.1574  -29.0998   20.7682 C   0  0  0  0  0  0
  -27.2762  -28.1151   20.7843 C   0  0  0  0  0  0
  -26.0111  -26.5488   19.5307 C   0  0  0  0  0  0
  -24.9337  -27.4865   19.4812 C   0  0  0  0  0  0
  -23.7633  -29.6894   20.1424 C   0  0  0  0  0  0
  -25.4138  -36.2882   24.0280 C   0  0  1  0  0  0
  -20.5975  -28.3769   23.1160 C   0  0  2  0  0  0
  -20.6789  -26.9428   22.5408 C   0  0  0  0  0  0
  -19.5757  -26.6379   21.5216 C   0  0  0  0  0  0
  -18.1947  -26.7954   22.1626 C   0  0  0  0  0  0
  -19.1607  -28.8925   23.2791 C   0  0  0  0  0  0
  -18.9513  -30.1520   23.8816 C   0  0  0  0  0  0
  -17.6499  -30.6601   24.0565 C   0  0  0  0  0  0
  -25.9127  -34.9281   23.4944 C   0  0  0  0  0  0
  -16.5393  -29.9083   23.6366 C   0  0  0  0  0  0
  -16.7322  -28.6510   23.0378 C   0  0  0  0  0  0
  -26.4612  -31.6493   25.0654 C   0  0  0  0  0  0
  -25.3687  -31.3805   26.1275 C   0  0  0  0  0  0
  -27.0557  -30.2839   24.6539 C   0  0  0  0  0  0
  -27.6060  -32.4352   25.7472 C   0  0  0  0  0  0
  -27.5552  -37.1716   24.8474 C   0  0  0  0  0  0
  -21.4417  -29.3014   22.3480 N   0  0  0  0  0  0
  -26.4258  -37.3647   23.9421 N   0  0  0  0  0  0
  -24.7841  -30.9447   22.0758 N   0  0  0  0  0  0
  -23.4218  -28.7920   23.3075 O   0  0  0  0  0  0
  -28.2217  -25.5111   20.2923 O   0  0  0  0  0  0
  -26.5766  -34.8866   22.4560 O   0  0  0  0  0  0
  -23.5851  -32.1070   23.6459 O   0  0  0  0  0  0
  -31.2992  -22.3114   23.3125 C   0  0  0  0  0  0
  -32.2769  -22.8708   22.5312 C   0  0  0  0  0  0
  -30.2130  -22.3357   21.3022 C   0  0  0  0  0  0
  -29.6993  -19.0281   20.2905 C   0  0  0  0  0  0
  -29.3560  -17.2118   20.5033 C   0  0  0  0  0  0
  -28.0544  -23.7544   20.3025 C   0  0  0  0  0  0
  -29.1065  -22.1228   20.3109 C   0  0  2  0  0  0
  -30.1264  -22.0229   22.6037 N   0  0  0  0  0  0
  -28.8967  -20.3563   20.3951 N   0  0  0  0  0  0
  -30.8768  -19.2279   19.9917 O   0  0  0  0  0  0
  -31.7672  -23.0492   20.8745 S   0  0  0  0  0  0
  -31.4384  -13.2890   19.2044 H   0  0  0  0  0  0
  -30.5840  -12.1698   20.2103 H   0  0  0  0  0  0
  -30.0018  -11.8242   17.7767 H   0  0  0  0  0  0
  -29.5368  -13.4998   17.6355 H   0  0  0  0  0  0
  -28.1368  -11.3030   19.1795 H   0  0  0  0  0  0
  -27.4600  -12.2716   17.8915 H   0  0  0  0  0  0
  -27.4800  -14.2397   19.2673 H   0  0  0  0  0  0
  -28.8461  -12.6850   21.5092 H   0  0  0  0  0  0
  -28.1900  -14.2960   21.6588 H   0  0  0  0  0  0
  -25.2818   -9.5653   22.4740 H   0  0  0  0  0  0
  -24.0042   -7.4614   22.7449 H   0  0  0  0  0  0
  -21.0910   -8.8787   19.8917 H   0  0  0  0  0  0
  -22.3796  -10.9668   19.6134 H   0  0  0  0  0  0
  -21.2004   -7.6151   23.9728 H   0  0  0  0  0  0
  -21.1467   -6.0514   25.9076 H   0  0  0  0  0  0
  -22.0611   -2.7611   23.2838 H   0  0  0  0  0  0
  -22.4101  -11.9778   22.4865 H   0  0  0  0  0  0
  -21.1020  -13.1038   22.2649 H   0  0  0  0  0  0
  -24.6257  -15.8520   20.5481 H   0  0  0  0  0  0
  -26.2461  -15.6505   20.1112 H   0  0  0  0  0  0
  -26.7509  -32.4948   23.0748 H   0  0  0  0  0  0
  -25.0081  -33.9325   25.0050 H   0  0  0  0  0  0
  -22.8340  -31.2336   21.3112 H   0  0  0  0  0  0
  -23.3777  -35.9428   23.3271 H   0  0  0  0  0  0
  -24.3558  -36.8834   22.2078 H   0  0  0  0  0  0
  -23.7217  -37.6281   23.6764 H   0  0  0  0  0  0
  -26.2908  -31.2595   20.6228 H   0  0  0  0  0  0
  -26.9421  -30.6074   22.0773 H   0  0  0  0  0  0
  -28.1720  -28.4020   21.3172 H   0  0  0  0  0  0
  -25.8490  -25.5998   19.0380 H   0  0  0  0  0  0
  -24.0348  -27.1956   18.9554 H   0  0  0  0  0  0
  -23.9342  -30.4444   19.3739 H   0  0  0  0  0  0
  -22.8687  -29.1492   19.8265 H   0  0  0  0  0  0
  -25.1340  -36.1632   25.0765 H   0  0  0  0  0  0
  -21.0064  -28.3386   24.1284 H   0  0  0  0  0  0
  -20.5641  -26.2387   23.3661 H   0  0  0  0  0  0
  -21.6647  -26.7343   22.1234 H   0  0  0  0  0  0
  -19.6903  -25.6283   21.1262 H   0  0  0  0  0  0
  -19.6698  -27.3175   20.6734 H   0  0  0  0  0  0
  -17.4213  -26.6734   21.4034 H   0  0  0  0  0  0
  -18.0319  -26.0107   22.9023 H   0  0  0  0  0  0
  -19.7985  -30.7374   24.2132 H   0  0  0  0  0  0
  -17.5043  -31.6269   24.5177 H   0  0  0  0  0  0
  -15.5388  -30.2952   23.7734 H   0  0  0  0  0  0
  -15.8727  -28.0805   22.7124 H   0  0  0  0  0  0
  -24.5891  -30.7138   25.7577 H   0  0  0  0  0  0
  -24.8861  -32.3031   26.4507 H   0  0  0  0  0  0
  -25.7873  -30.9095   27.0177 H   0  0  0  0  0  0
  -26.3299  -29.6464   24.1483 H   0  0  0  0  0  0
  -27.3967  -29.7261   25.5272 H   0  0  0  0  0  0
  -27.9274  -30.3990   24.0090 H   0  0  0  0  0  0
  -27.2609  -33.3732   26.1820 H   0  0  0  0  0  0
  -28.3982  -32.6776   25.0380 H   0  0  0  0  0  0
  -28.0601  -31.8626   26.5567 H   0  0  0  0  0  0
  -28.2536  -38.0042   24.7521 H   0  0  0  0  0  0
  -28.1076  -36.2562   24.6295 H   0  0  0  0  0  0
  -27.2276  -37.1345   25.8880 H   0  0  0  0  0  0
  -20.9720  -29.8674   21.6549 H   0  0  0  0  0  0
  -26.0077  -38.2682   24.1466 H   0  0  0  0  0  0
  -31.3583  -22.0896   24.3705 H   0  0  0  0  0  0
  -33.2664  -23.1837   22.8371 H   0  0  0  0  0  0
  -28.4868  -17.0499   19.8670 H   0  0  0  0  0  0
  -28.9446  -17.1567   21.5112 H   0  0  0  0  0  0
  -27.4439  -23.6248   21.1963 H   0  0  0  0  0  0
  -27.3500  -23.5882   19.4885 H   0  0  0  0  0  0
  -29.5869  -22.1932   19.3363 H   0  0  0  0  0  0
  -27.9371  -20.1528   20.6405 H   0  0  0  0  0  0
  1 25  1  0  0  0
  1 30  2  0  0  0
  1 75  1  0  0  0
  2  3  1  0  0  0
  2 25  1  0  0  0
  2 82  1  0  0  0
  2 83  1  0  0  0
  3  4  1  0  0  0
  3 84  1  0  0  0
  3 85  1  0  0  0
  4  5  1  0  0  0
  4 86  1  0  0  0
  4 87  1  0  0  0
  5  6  1  0  0  0
  5 26  1  0  0  0
  5 88  1  0  0  0
  6 25  1  0  0  0
  6 89  1  0  0  0
  6 90  1  0  0  0
  7  8  2  0  0  0
  7 26  1  0  0  0
  7 29  1  0  0  0
  8  9  1  0  0  0
  8 22  1  0  0  0
  9 10  1  0  0  0
  9 27  2  0  0  0
 10 11  2  0  0  0
 10 15  1  0  0  0
 11 12  1  0  0  0
 11 91  1  0  0  0
 12 13  2  0  0  0
 12 92  1  0  0  0
 13 14  1  0  0  0
 13 31  1  0  0  0
 14 15  2  0  0  0
 14 93  1  0  0  0
 15 94  1  0  0  0
 16 17  2  0  0  0
 16 21  1  0  0  0
 16 31  1  0  0  0
 17 18  1  0  0  0
 17 95  1  0  0  0
 18 19  2  0  0  0
 18 96  1  0  0  0
 19 20  1  0  0  0
 19 24  1  0  0  0
 20 21  2  0  0  0
 20 97  1  0  0  0
 21 23  1  0  0  0
 22 28  1  0  0  0
 22 32  2  0  0  0
 26 27  1  0  0  0
 28 98  1  0  0  0
 28 99  1  0  0  0
 29100  1  0  0  0
 29101  1  0  0  0
 33 34  1  0  0  0
 33 66  1  0  0  0
 33 70  2  0  0  0
 34 36  1  0  0  0
 34 59  1  0  0  0
 34102  1  0  0  0
 35 44  2  0  0  0
 35 45  1  0  0  0
 35 68  1  0  0  0
 36 56  1  0  0  0
 36103  1  0  0  0
 37 39  1  0  0  0
 37 47  1  0  0  0
 37 66  1  0  0  0
 37104  1  0  0  0
 38 43  2  0  0  0
 38 46  1  0  0  0
 38 47  1  0  0  0
 39 64  1  0  0  0
 39 67  2  0  0  0
 40 52  1  0  0  0
 40 53  2  0  0  0
 40 58  1  0  0  0
 41105  1  0  0  0
 41106  1  0  0  0
 41107  1  0  0  0
 41 48  1  0  0  0
 42 43  1  0  0  0
 42 66  1  0  0  0
 42108  1  0  0  0
 42109  1  0  0  0
 43 44  1  0  0  0
 44110  1  0  0  0
 45 46  2  0  0  0
 45111  1  0  0  0
 46112  1  0  0  0
 47113  1  0  0  0
 47114  1  0  0  0
 48 56  1  0  0  0
 48 65  1  0  0  0
 48115  1  0  0  0
 49 50  1  0  0  0
 49 53  1  0  0  0
 49 64  1  0  0  0
 49116  1  0  0  0
 50 51  1  0  0  0
 50117  1  0  0  0
 50118  1  0  0  0
 51 52  1  0  0  0
 51119  1  0  0  0
 51120  1  0  0  0
 52121  1  0  0  0
 52122  1  0  0  0
 53 54  1  0  0  0
 54 55  2  0  0  0
 54123  1  0  0  0
 55 57  1  0  0  0
 55124  1  0  0  0
 56 69  2  0  0  0
 57 58  2  0  0  0
 57125  1  0  0  0
 58126  1  0  0  0
 59 60  1  0  0  0
 59 61  1  0  0  0
 59 62  1  0  0  0
 60127  1  0  0  0
 60128  1  0  0  0
 60129  1  0  0  0
 61130  1  0  0  0
 61131  1  0  0  0
 61132  1  0  0  0
 62133  1  0  0  0
 62134  1  0  0  0
 62135  1  0  0  0
 63 65  1  0  0  0
 63136  1  0  0  0
 63137  1  0  0  0
 63138  1  0  0  0
 64139  1  0  0  0
 65140  1  0  0  0
 68 76  1  0  0  0
 71 72  2  0  0  0
 71 78  1  0  0  0
 71141  1  0  0  0
 72 81  1  0  0  0
 72142  1  0  0  0
 73 77  1  0  0  0
 73 78  2  0  0  0
 73 81  1  0  0  0
 74 75  1  0  0  0
 74 79  1  0  0  0
 74 80  2  0  0  0
 75143  1  0  0  0
 75144  1  0  0  0
 76145  1  0  0  0
 76146  1  0  0  0
 76 77  1  0  0  0
 77 79  1  0  0  0
 77147  1  0  0  0
 79148  1  0  0  0
M  ISO  4   1 100  68 101  75 100  76 101
M  END
> <chiral flag>
0

> <version>
0

> <s_m_source_file>
/data/baiqing/PycharmProjects/Reinvent-master-3.2/result/LINK_invent/BTK/process_docking_weight1_custom_product_contain_oxygen_bond_distance_aromatic_linkinvent_7_9_3/rearranged_h_0187.sdf

> <i_m_source_file_index>
23

> <r_mmod_Potential_Energy-OPLS-2005>
2252.95092773438

> <r_mmod_Stretch_Energy-OPLS-2005>
1126.61511230469

> <r_mmod_Bend_Energy-OPLS-2005>
641.116577148438

> <r_mmod_Torsional_Energy-OPLS-2005>
157.266799926758

> <r_mmod_Improper_Torsional_Energy-OPLS-2005>
2.12740755081177

> <r_mmod_Van_der_Waal_Energy-OPLS-2005>
98.5966644287109

> <r_mmod_Electrostatic_Energy-OPLS-2005>
-349.484497070312

> <r_mmod_Solvation_Energy-OPLS-2005>
-274.642791748047

> <b_mmod_Minimization_Converged-OPLS-2005>
0

> <r_mmod_RMS_Derivative-OPLS-2005>
2.36870145797729

$$$$
24
                    3D
 Structure written by MMmdl.
174182  0  0  1  0            999 V2000
  -30.7440  -14.5130   20.5039 C   0  0  0  0  0  0
  -30.4015  -12.3197   19.4359 C   0  0  0  0  0  0
  -29.4833  -12.4789   18.2102 C   0  0  0  0  0  0
  -28.0053  -12.3535   18.6238 C   0  0  0  0  0  0
  -27.6403  -13.2152   19.8635 C   0  0  2  0  0  0
  -28.6966  -13.0945   20.9873 C   0  0  0  0  0  0
  -25.2399  -13.8090   20.5679 C   0  0  0  0  0  0
  -24.1721  -13.0351   20.9221 C   0  0  0  0  0  0
  -24.6353  -11.6855   20.8793 C   0  0  0  0  0  0
  -23.9038  -10.4253   21.0438 C   0  0  0  0  0  0
  -24.3589   -9.4163   21.9208 C   0  0  0  0  0  0
  -23.6254   -8.2207   22.0771 C   0  0  0  0  0  0
  -22.4243   -8.0267   21.3555 C   0  0  0  0  0  0
  -21.9888   -9.0237   20.4650 C   0  0  0  0  0  0
  -22.7224  -10.2107   20.3065 C   0  0  0  0  0  0
  -21.6846   -6.0717   22.5277 C   0  0  0  0  0  0
  -21.4018   -6.5619   23.8205 C   0  0  0  0  0  0
  -21.3655   -5.6775   24.9172 C   0  0  0  0  0  0
  -21.6036   -4.3036   24.7230 C   0  0  0  0  0  0
  -21.8827   -3.8128   23.4359 C   0  0  0  0  0  0
  -21.9195   -4.6943   22.3415 C   0  0  0  0  0  0
  -22.7752  -13.5150   21.1863 C   0  0  0  0  0  0
  -22.1663   -4.2135   21.0990 F   0  0  0  0  0  0
  -21.5626   -3.4522   25.7744 F   0  0  0  0  0  0
  -30.0176  -13.3629   20.4009 N   0  0  0  0  0  0
  -26.2917  -12.9326   20.3408 N   0  0  0  0  0  0
  -25.9296  -11.6476   20.5850 N   0  0  0  0  0  0
  -22.0420  -12.8148   22.0440 N   0  0  0  0  0  0
  -25.3809  -15.1783   20.4013 N   0  0  0  0  0  0
  -31.9392  -14.5479   20.2086 O   0  0  0  0  0  0
  -21.6617   -6.8862   21.4241 O   0  0  0  0  0  0
  -22.3436  -14.5460   20.6726 O   0  0  0  0  0  0
  -24.6130  -31.8675   23.2105 C   0  0  0  0  0  0
  -25.9015  -32.4831   23.8402 C   0  0  1  0  0  0
  -27.2451  -27.4447   20.1121 C   0  0  0  0  0  0
  -25.5875  -33.8627   24.2329 N   0  0  0  0  0  0
  -23.4042  -30.4886   21.5489 C   0  0  2  0  0  0
  -24.8573  -28.9521   20.1192 C   0  0  0  0  0  0
  -22.7410  -29.4653   22.4981 C   0  0  0  0  0  0
  -18.0273  -28.1376   22.8504 C   0  0  0  0  0  0
  -24.1489  -36.7320   23.2640 C   0  0  0  0  0  0
  -25.9313  -30.8342   21.3661 C   0  0  0  0  0  0
  -26.0130  -29.4661   20.7219 C   0  0  0  0  0  0
  -27.2114  -28.7159   20.7247 C   0  0  0  0  0  0
  -26.0820  -26.9436   19.4963 C   0  0  0  0  0  0
  -24.8853  -27.6880   19.5040 C   0  0  0  0  0  0
  -23.6160  -29.8165   20.1656 C   0  0  0  0  0  0
  -25.4109  -36.3119   24.0341 C   0  0  1  0  0  0
  -20.5864  -28.3668   23.1314 C   0  0  2  0  0  0
  -20.6761  -26.9401   22.5421 C   0  0  0  0  0  0
  -19.5740  -26.6386   21.5220 C   0  0  0  0  0  0
  -18.1916  -26.7932   22.1623 C   0  0  0  0  0  0
  -19.1522  -28.8840   23.2908 C   0  0  0  0  0  0
  -18.9451  -30.1456   23.8904 C   0  0  0  0  0  0
  -17.6445  -30.6590   24.0573 C   0  0  0  0  0  0
  -25.9034  -34.9485   23.5131 C   0  0  0  0  0  0
  -16.5344  -29.9094   23.6331 C   0  0  0  0  0  0
  -16.7261  -28.6516   23.0355 C   0  0  0  0  0  0
  -26.4452  -31.6615   25.0728 C   0  0  0  0  0  0
  -25.3710  -31.3704   26.1472 C   0  0  0  0  0  0
  -27.0305  -30.3068   24.6106 C   0  0  0  0  0  0
  -27.6031  -32.4341   25.7485 C   0  0  0  0  0  0
  -27.5599  -37.1796   24.8443 C   0  0  0  0  0  0
  -21.4133  -29.3033   22.3722 N   0  0  0  0  0  0
  -26.4290  -37.3806   23.9424 N   0  0  0  0  0  0
  -24.6670  -31.0785   22.1007 N   0  0  0  0  0  0
  -23.4179  -28.8189   23.3013 O   0  0  0  0  0  0
  -28.3932  -26.6873   20.0771 O   0  0  0  0  0  0
  -26.5602  -34.8931   22.4700 O   0  0  0  0  0  0
  -23.5312  -32.1414   23.7492 O   0  0  0  0  0  0
  -28.7642  -17.4415   23.1351 C   0  0  0  0  0  0
  -29.8657  -17.6537   22.3441 C   0  0  0  0  0  0
  -29.2067  -19.8115   22.6964 C   0  0  0  0  0  0
  -31.4495  -22.1476   22.3568 C   0  0  0  0  0  0
  -33.9135  -21.8592   21.6526 C   0  0  0  0  0  0
  -31.4811  -16.9291   18.1347 C   0  0  0  0  0  0
  -28.0309  -16.9170   19.9960 C   0  0  0  0  0  0
  -30.7486  -16.5898   21.7292 C   0  0  0  0  0  0
  -32.4758  -22.2079   21.2229 C   0  0  0  0  0  0
  -30.2366  -17.4377   18.8709 C   0  0  0  0  0  0
  -29.0651  -24.4962   20.9743 C   0  0  0  0  0  0
  -28.6776  -25.9638   21.2813 C   0  0  0  0  0  0
  -29.9599  -22.2312   21.9520 C   0  0  2  0  0  0
  -29.4110  -16.3547   19.6147 C   0  0  1  0  0  0
  -29.3745  -23.6542   22.2400 C   0  0  2  0  0  0
  -30.1125  -19.0193   22.1131 N   0  0  0  0  0  0
  -29.1748  -21.1966   22.6248 N   0  0  0  0  0  0
  -30.0859  -15.6774   20.7634 N   0  0  0  0  0  0
  -31.8179  -22.0358   23.5312 O   0  0  0  0  0  0
  -28.2496  -23.5496   22.9591 F   0  0  0  0  0  0
  -27.9809  -18.9291   23.5928 S   0  0  0  0  0  0
  -31.4454  -12.3950   19.1267 H   0  0  0  0  0  0
  -30.2902  -11.3299   19.8845 H   0  0  0  0  0  0
  -29.7234  -11.7264   17.4573 H   0  0  0  0  0  0
  -29.6599  -13.4458   17.7357 H   0  0  0  0  0  0
  -27.8151  -11.3016   18.8374 H   0  0  0  0  0  0
  -27.3574  -12.6131   17.7858 H   0  0  0  0  0  0
  -27.6336  -14.2435   19.5203 H   0  0  0  0  0  0
  -28.6801  -12.0964   21.4263 H   0  0  0  0  0  0
  -28.4758  -13.7890   21.8001 H   0  0  0  0  0  0
  -25.2750   -9.5639   22.4769 H   0  0  0  0  0  0
  -23.9965   -7.4606   22.7478 H   0  0  0  0  0  0
  -21.0830   -8.8753   19.8935 H   0  0  0  0  0  0
  -22.3696  -10.9654   19.6156 H   0  0  0  0  0  0
  -21.2008   -7.6127   23.9692 H   0  0  0  0  0  0
  -21.1463   -6.0525   25.9077 H   0  0  0  0  0  0
  -22.0607   -2.7592   23.2867 H   0  0  0  0  0  0
  -22.4075  -11.9805   22.4805 H   0  0  0  0  0  0
  -21.1053  -13.1185   22.2700 H   0  0  0  0  0  0
  -24.6023  -15.8165   20.5200 H   0  0  0  0  0  0
  -26.2335  -15.6389   20.1124 H   0  0  0  0  0  0
  -26.7093  -32.5572   23.1184 H   0  0  0  0  0  0
  -25.0028  -33.9795   25.0482 H   0  0  0  0  0  0
  -22.6917  -31.3037   21.4061 H   0  0  0  0  0  0
  -23.3760  -35.9632   23.3253 H   0  0  0  0  0  0
  -24.3596  -36.8986   22.2055 H   0  0  0  0  0  0
  -23.7206  -37.6499   23.6693 H   0  0  0  0  0  0
  -26.0396  -31.5959   20.5924 H   0  0  0  0  0  0
  -26.8214  -30.8949   21.9826 H   0  0  0  0  0  0
  -28.1047  -29.1091   21.1886 H   0  0  0  0  0  0
  -26.1048  -25.9732   19.0191 H   0  0  0  0  0  0
  -23.9991  -27.2835   19.0351 H   0  0  0  0  0  0
  -23.7242  -30.5890   19.4027 H   0  0  0  0  0  0
  -22.7421  -29.2315   19.8732 H   0  0  0  0  0  0
  -25.1267  -36.1987   25.0824 H   0  0  0  0  0  0
  -20.9973  -28.3249   24.1434 H   0  0  0  0  0  0
  -20.5692  -26.2259   23.3599 H   0  0  0  0  0  0
  -21.6627  -26.7453   22.1212 H   0  0  0  0  0  0
  -19.6899  -25.6306   21.1238 H   0  0  0  0  0  0
  -19.6692  -27.3208   20.6759 H   0  0  0  0  0  0
  -17.4195  -26.6712   21.4011 H   0  0  0  0  0  0
  -18.0293  -26.0074   22.9010 H   0  0  0  0  0  0
  -19.7917  -30.7283   24.2272 H   0  0  0  0  0  0
  -17.4994  -31.6266   24.5174 H   0  0  0  0  0  0
  -15.5344  -30.2994   23.7637 H   0  0  0  0  0  0
  -15.8666  -28.0838   22.7043 H   0  0  0  0  0  0
  -24.5890  -30.7062   25.7794 H   0  0  0  0  0  0
  -24.8903  -32.2850   26.4936 H   0  0  0  0  0  0
  -25.8048  -30.8853   27.0222 H   0  0  0  0  0  0
  -26.2869  -29.6819   24.1157 H   0  0  0  0  0  0
  -27.4082  -29.7311   25.4566 H   0  0  0  0  0  0
  -27.8687  -30.4410   23.9266 H   0  0  0  0  0  0
  -27.2656  -33.3625   26.2096 H   0  0  0  0  0  0
  -28.3807  -32.6920   25.0289 H   0  0  0  0  0  0
  -28.0739  -31.8451   26.5363 H   0  0  0  0  0  0
  -28.2551  -38.0163   24.7611 H   0  0  0  0  0  0
  -28.1171  -36.2701   24.6134 H   0  0  0  0  0  0
  -27.2329  -37.1280   25.8844 H   0  0  0  0  0  0
  -20.9287  -29.8749   21.6950 H   0  0  0  0  0  0
  -26.0178  -38.2870   24.1493 H   0  0  0  0  0  0
  -28.3458  -16.4987   23.4558 H   0  0  0  0  0  0
  -34.5893  -21.9034   20.7982 H   0  0  0  0  0  0
  -33.9765  -20.8516   22.0662 H   0  0  0  0  0  0
  -34.2897  -22.5522   22.4061 H   0  0  0  0  0  0
  -31.8994  -17.7180   17.5079 H   0  0  0  0  0  0
  -31.2452  -16.0834   17.4877 H   0  0  0  0  0  0
  -32.2652  -16.6250   18.8268 H   0  0  0  0  0  0
  -27.3541  -16.8994   19.1409 H   0  0  0  0  0  0
  -28.0883  -17.9556   20.3266 H   0  0  0  0  0  0
  -27.5890  -16.3493   20.8110 H   0  0  0  0  0  0
  -31.1691  -15.9923   22.5414 H   0  0  0  0  0  0
  -31.6130  -17.0500   21.2482 H   0  0  0  0  0  0
  -32.4513  -23.2102   20.7980 H   0  0  0  0  0  0
  -32.1542  -21.5196   20.4416 H   0  0  0  0  0  0
  -29.5887  -17.9028   18.1261 H   0  0  0  0  0  0
  -30.5169  -18.2502   19.5389 H   0  0  0  0  0  0
  -29.9297  -24.4897   20.3103 H   0  0  0  0  0  0
  -28.2547  -24.0166   20.4233 H   0  0  0  0  0  0
  -29.5028  -26.4636   21.7907 H   0  0  0  0  0  0
  -27.8294  -25.9810   21.9694 H   0  0  0  0  0  0
  -29.8894  -22.0327   20.8806 H   0  0  0  0  0  0
  -29.2101  -15.5932   18.8603 H   0  0  0  0  0  0
  -30.0604  -24.2204   22.8757 H   0  0  0  0  0  0
  -28.4412  -21.6167   23.1864 H   0  0  0  0  0  0
  1 25  1  0  0  0
  1 30  2  0  0  0
  1 88  1  0  0  0
  2  3  1  0  0  0
  2 25  1  0  0  0
  2 92  1  0  0  0
  2 93  1  0  0  0
  3  4  1  0  0  0
  3 94  1  0  0  0
  3 95  1  0  0  0
  4  5  1  0  0  0
  4 96  1  0  0  0
  4 97  1  0  0  0
  5  6  1  0  0  0
  5 26  1  0  0  0
  5 98  1  0  0  0
  6 25  1  0  0  0
  6 99  1  0  0  0
  6100  1  0  0  0
  7  8  2  0  0  0
  7 26  1  0  0  0
  7 29  1  0  0  0
  8  9  1  0  0  0
  8 22  1  0  0  0
  9 10  1  0  0  0
  9 27  2  0  0  0
 10 11  2  0  0  0
 10 15  1  0  0  0
 11 12  1  0  0  0
 11101  1  0  0  0
 12 13  2  0  0  0
 12102  1  0  0  0
 13 14  1  0  0  0
 13 31  1  0  0  0
 14 15  2  0  0  0
 14103  1  0  0  0
 15104  1  0  0  0
 16 17  2  0  0  0
 16 21  1  0  0  0
 16 31  1  0  0  0
 17 18  1  0  0  0
 17105  1  0  0  0
 18 19  2  0  0  0
 18106  1  0  0  0
 19 20  1  0  0  0
 19 24  1  0  0  0
 20 21  2  0  0  0
 20107  1  0  0  0
 21 23  1  0  0  0
 22 28  1  0  0  0
 22 32  2  0  0  0
 26 27  1  0  0  0
 28108  1  0  0  0
 28109  1  0  0  0
 29110  1  0  0  0
 29111  1  0  0  0
 33 34  1  0  0  0
 33 66  1  0  0  0
 33 70  2  0  0  0
 34 36  1  0  0  0
 34 59  1  0  0  0
 34112  1  0  0  0
 35 44  2  0  0  0
 35 45  1  0  0  0
 35 68  1  0  0  0
 36 56  1  0  0  0
 36113  1  0  0  0
 37 39  1  0  0  0
 37 47  1  0  0  0
 37 66  1  0  0  0
 37114  1  0  0  0
 38 43  2  0  0  0
 38 46  1  0  0  0
 38 47  1  0  0  0
 39 64  1  0  0  0
 39 67  2  0  0  0
 40 52  1  0  0  0
 40 53  2  0  0  0
 40 58  1  0  0  0
 41115  1  0  0  0
 41116  1  0  0  0
 41117  1  0  0  0
 41 48  1  0  0  0
 42 43  1  0  0  0
 42 66  1  0  0  0
 42118  1  0  0  0
 42119  1  0  0  0
 43 44  1  0  0  0
 44120  1  0  0  0
 45 46  2  0  0  0
 45121  1  0  0  0
 46122  1  0  0  0
 47123  1  0  0  0
 47124  1  0  0  0
 48 56  1  0  0  0
 48 65  1  0  0  0
 48125  1  0  0  0
 49 50  1  0  0  0
 49 53  1  0  0  0
 49 64  1  0  0  0
 49126  1  0  0  0
 50 51  1  0  0  0
 50127  1  0  0  0
 50128  1  0  0  0
 51 52  1  0  0  0
 51129  1  0  0  0
 51130  1  0  0  0
 52131  1  0  0  0
 52132  1  0  0  0
 53 54  1  0  0  0
 54 55  2  0  0  0
 54133  1  0  0  0
 55 57  1  0  0  0
 55134  1  0  0  0
 56 69  2  0  0  0
 57 58  2  0  0  0
 57135  1  0  0  0
 58136  1  0  0  0
 59 60  1  0  0  0
 59 61  1  0  0  0
 59 62  1  0  0  0
 60137  1  0  0  0
 60138  1  0  0  0
 60139  1  0  0  0
 61140  1  0  0  0
 61141  1  0  0  0
 61142  1  0  0  0
 62143  1  0  0  0
 62144  1  0  0  0
 62145  1  0  0  0
 63 65  1  0  0  0
 63146  1  0  0  0
 63147  1  0  0  0
 63148  1  0  0  0
 64149  1  0  0  0
 65150  1  0  0  0
 68 82  1  0  0  0
 71 72  2  0  0  0
 71 91  1  0  0  0
 71151  1  0  0  0
 72 78  1  0  0  0
 72 86  1  0  0  0
 73 86  2  0  0  0
 73 87  1  0  0  0
 73 91  1  0  0  0
 74 79  1  0  0  0
 74 83  1  0  0  0
 74 89  2  0  0  0
 75 79  1  0  0  0
 75152  1  0  0  0
 75153  1  0  0  0
 75154  1  0  0  0
 76 80  1  0  0  0
 76155  1  0  0  0
 76156  1  0  0  0
 76157  1  0  0  0
 77158  1  0  0  0
 77159  1  0  0  0
 77160  1  0  0  0
 77 84  1  0  0  0
 78 88  1  0  0  0
 78161  1  0  0  0
 78162  1  0  0  0
 79163  1  0  0  0
 79164  1  0  0  0
 80 84  1  0  0  0
 80165  1  0  0  0
 80166  1  0  0  0
 81 82  1  0  0  0
 81 85  1  0  0  0
 81167  1  0  0  0
 81168  1  0  0  0
 82169  1  0  0  0
 82170  1  0  0  0
 83 85  1  0  0  0
 83 87  1  0  0  0
 83171  1  0  0  0
 84 88  1  0  0  0
 84172  1  0  0  0
 85 90  1  0  0  0
 85173  1  0  0  0
 87174  1  0  0  0
M  ISO  4   1 100  68 101  82 101  88 100
M  END
> <chiral flag>
0

> <version>
0

> <s_m_source_file>
/data/baiqing/PycharmProjects/Reinvent-master-3.2/result/LINK_invent/BTK/process_docking_weight1_custom_product_contain_oxygen_bond_distance_aromatic_linkinvent_7_9_3/rearranged_h_0187.sdf

> <i_m_source_file_index>
24

> <r_mmod_Potential_Energy-OPLS-2005>
2.18344473838806

> <r_mmod_Stretch_Energy-OPLS-2005>
41.3772010803223

> <r_mmod_Bend_Energy-OPLS-2005>
108.637702941895

> <r_mmod_Torsional_Energy-OPLS-2005>
349.102111816406

> <r_mmod_Improper_Torsional_Energy-OPLS-2005>
7.00364255905151

> <r_mmod_Van_der_Waal_Energy-OPLS-2005>
124.353546142578

> <r_mmod_Electrostatic_Energy-OPLS-2005>
-444.954040527344

> <r_mmod_Solvation_Energy-OPLS-2005>
-208.204772949219

> <b_mmod_Minimization_Converged-OPLS-2005>
0

> <r_mmod_RMS_Derivative-OPLS-2005>
2.87213730812073

$$$$
25
                    3D
 Structure written by MMmdl.
167175  0  0  1  0            999 V2000
  -30.7438  -14.4381   20.5550 C   0  0  0  0  0  0
  -30.4140  -12.2615   19.4583 C   0  0  0  0  0  0
  -29.4936  -12.4710   18.2395 C   0  0  0  0  0  0
  -28.0184  -12.3393   18.6572 C   0  0  0  0  0  0
  -27.6659  -13.2058   19.8961 C   0  0  2  0  0  0
  -28.7087  -13.0034   21.0212 C   0  0  0  0  0  0
  -25.2550  -13.8173   20.5752 C   0  0  0  0  0  0
  -24.1775  -13.0429   20.9221 C   0  0  0  0  0  0
  -24.6345  -11.6908   20.8789 C   0  0  0  0  0  0
  -23.9045  -10.4257   21.0463 C   0  0  0  0  0  0
  -24.3589   -9.4168   21.9224 C   0  0  0  0  0  0
  -23.6253   -8.2204   22.0782 C   0  0  0  0  0  0
  -22.4252   -8.0222   21.3542 C   0  0  0  0  0  0
  -21.9877   -9.0219   20.4685 C   0  0  0  0  0  0
  -22.7233  -10.2097   20.3110 C   0  0  0  0  0  0
  -21.6809   -6.0688   22.5275 C   0  0  0  0  0  0
  -21.4011   -6.5619   23.8200 C   0  0  0  0  0  0
  -21.3679   -5.6808   24.9178 C   0  0  0  0  0  0
  -21.6056   -4.3054   24.7253 C   0  0  0  0  0  0
  -21.8809   -3.8122   23.4395 C   0  0  0  0  0  0
  -21.9179   -4.6914   22.3424 C   0  0  0  0  0  0
  -22.7798  -13.5241   21.1888 C   0  0  0  0  0  0
  -22.1643   -4.2082   21.1012 F   0  0  0  0  0  0
  -21.5653   -3.4558   25.7788 F   0  0  0  0  0  0
  -30.0474  -13.2688   20.4667 N   0  0  0  0  0  0
  -26.3022  -12.9345   20.3512 N   0  0  0  0  0  0
  -25.9284  -11.6517   20.5882 N   0  0  0  0  0  0
  -22.0431  -12.8228   22.0481 N   0  0  0  0  0  0
  -25.4251  -15.1863   20.4138 N   0  0  0  0  0  0
  -31.8577  -14.5878   20.0456 O   0  0  0  0  0  0
  -21.6635   -6.8816   21.4218 O   0  0  0  0  0  0
  -22.3483  -14.5537   20.6724 O   0  0  0  0  0  0
  -24.6177  -31.8650   23.2085 C   0  0  0  0  0  0
  -25.9055  -32.4802   23.8419 C   0  0  1  0  0  0
  -27.2509  -27.4158   20.1305 C   0  0  0  0  0  0
  -25.5894  -33.8595   24.2330 N   0  0  0  0  0  0
  -23.4097  -30.4857   21.5455 C   0  0  2  0  0  0
  -24.8622  -28.9450   20.1247 C   0  0  0  0  0  0
  -22.7448  -29.4638   22.4956 C   0  0  0  0  0  0
  -18.0279  -28.1377   22.8502 C   0  0  0  0  0  0
  -24.1494  -36.7298   23.2641 C   0  0  0  0  0  0
  -25.9394  -30.8341   21.3609 C   0  0  0  0  0  0
  -26.0220  -29.4628   20.7123 C   0  0  0  0  0  0
  -27.2176  -28.7099   20.7007 C   0  0  0  0  0  0
  -26.0695  -26.9136   19.5452 C   0  0  0  0  0  0
  -24.8801  -27.6704   19.5337 C   0  0  0  0  0  0
  -23.6245  -29.8102   20.1641 C   0  0  0  0  0  0
  -25.4109  -36.3093   24.0350 C   0  0  1  0  0  0
  -20.5881  -28.3658   23.1297 C   0  0  2  0  0  0
  -20.6750  -26.9379   22.5423 C   0  0  0  0  0  0
  -19.5733  -26.6369   21.5212 C   0  0  0  0  0  0
  -18.1907  -26.7927   22.1625 C   0  0  0  0  0  0
  -19.1538  -28.8828   23.2901 C   0  0  0  0  0  0
  -18.9472  -30.1432   23.8914 C   0  0  0  0  0  0
  -17.6477  -30.6583   24.0562 C   0  0  0  0  0  0
  -25.9046  -34.9454   23.5140 C   0  0  0  0  0  0
  -16.5363  -29.9099   23.6316 C   0  0  0  0  0  0
  -16.7271  -28.6513   23.0347 C   0  0  0  0  0  0
  -26.4483  -31.6601   25.0750 C   0  0  0  0  0  0
  -25.3747  -31.3716   26.1492 C   0  0  0  0  0  0
  -27.0347  -30.3051   24.6130 C   0  0  0  0  0  0
  -27.6063  -32.4318   25.7508 C   0  0  0  0  0  0
  -27.5580  -37.1804   24.8468 C   0  0  0  0  0  0
  -21.4162  -29.3038   22.3708 N   0  0  0  0  0  0
  -26.4293  -37.3779   23.9415 N   0  0  0  0  0  0
  -24.6727  -31.0798   22.0958 N   0  0  0  0  0  0
  -23.4199  -28.8126   23.2979 O   0  0  0  0  0  0
  -28.4342  -26.6975   20.1217 O   0  0  0  0  0  0
  -26.5631  -34.8908   22.4710 O   0  0  0  0  0  0
  -23.5357  -32.1383   23.7447 O   0  0  0  0  0  0
  -30.9268  -19.0194   21.0505 C   0  0  0  0  0  0
  -30.8284  -18.9759   19.6762 C   0  0  0  0  0  0
  -30.3611  -16.8180   20.7716 C   0  0  0  0  0  0
  -30.5561  -22.5461   21.4586 C   0  0  0  0  0  0
  -32.0133  -19.8111   23.2194 C   0  0  0  0  0  0
  -31.0163  -24.1177   23.3198 C   0  0  0  0  0  0
  -28.1992  -24.3340   19.4736 C   0  0  0  0  0  0
  -29.2540  -20.9529   22.8762 C   0  0  0  0  0  0
  -29.8079  -25.1088   21.3165 C   0  0  0  0  0  0
  -31.3871  -20.2170   21.8649 C   0  0  2  0  0  0
  -30.0068  -23.8131   22.1877 C   0  0  1  0  0  0
  -28.4369  -25.3367   20.6166 C   0  0  2  0  0  0
  -30.5617  -17.7997   21.6648 N   0  0  0  0  0  0
  -31.0466  -20.0059   18.7679 N   0  0  0  0  0  0
  -30.1340  -15.4695   21.1601 N   0  0  0  0  0  0
  -30.3938  -21.3120   22.0259 N   0  0  0  0  0  0
  -31.2496  -22.7117   20.4502 O   0  0  0  0  0  0
  -30.4271  -17.3787   19.0988 S   0  0  0  0  0  0
  -31.4612  -12.3227   19.1578 H   0  0  0  0  0  0
  -30.2916  -11.2574   19.8733 H   0  0  0  0  0  0
  -29.7286  -11.7368   17.4682 H   0  0  0  0  0  0
  -29.6662  -13.4546   17.8021 H   0  0  0  0  0  0
  -27.8368  -11.2865   18.8889 H   0  0  0  0  0  0
  -27.3595  -12.5810   17.8220 H   0  0  0  0  0  0
  -27.7124  -14.2495   19.5877 H   0  0  0  0  0  0
  -28.4778  -13.6355   21.8798 H   0  0  0  0  0  0
  -28.6639  -11.9766   21.3934 H   0  0  0  0  0  0
  -25.2685   -9.5618   22.4869 H   0  0  0  0  0  0
  -23.9944   -7.4570   22.7474 H   0  0  0  0  0  0
  -21.0839   -8.8758   19.8961 H   0  0  0  0  0  0
  -22.3683  -10.9667   19.6265 H   0  0  0  0  0  0
  -21.2001   -7.6128   23.9674 H   0  0  0  0  0  0
  -21.1542   -6.0563   25.9086 H   0  0  0  0  0  0
  -22.0575   -2.7577   23.2942 H   0  0  0  0  0  0
  -22.4013  -11.9882   22.4859 H   0  0  0  0  0  0
  -21.1052  -13.1238   22.2703 H   0  0  0  0  0  0
  -24.6631  -15.8481   20.5280 H   0  0  0  0  0  0
  -26.2803  -15.6161   20.0817 H   0  0  0  0  0  0
  -26.7140  -32.5503   23.1208 H   0  0  0  0  0  0
  -24.9995  -33.9764   25.0437 H   0  0  0  0  0  0
  -22.7009  -31.3012   21.3968 H   0  0  0  0  0  0
  -23.3754  -35.9642   23.3331 H   0  0  0  0  0  0
  -24.3584  -36.8876   22.2051 H   0  0  0  0  0  0
  -23.7258  -37.6509   23.6644 H   0  0  0  0  0  0
  -26.0583  -31.6007   20.5924 H   0  0  0  0  0  0
  -26.8266  -30.8905   21.9830 H   0  0  0  0  0  0
  -28.1108  -29.1179   21.1528 H   0  0  0  0  0  0
  -26.0548  -25.9427   19.0836 H   0  0  0  0  0  0
  -23.9871  -27.2654   19.0804 H   0  0  0  0  0  0
  -23.7400  -30.5805   19.4001 H   0  0  0  0  0  0
  -22.7518  -29.2254   19.8621 H   0  0  0  0  0  0
  -25.1291  -36.1964   25.0851 H   0  0  0  0  0  0
  -20.9994  -28.3228   24.1407 H   0  0  0  0  0  0
  -20.5574  -26.2278   23.3617 H   0  0  0  0  0  0
  -21.6618  -26.7358   22.1251 H   0  0  0  0  0  0
  -19.6874  -25.6273   21.1226 H   0  0  0  0  0  0
  -19.6667  -27.3182   20.6745 H   0  0  0  0  0  0
  -17.4165  -26.6663   21.4040 H   0  0  0  0  0  0
  -18.0327  -26.0074   22.9029 H   0  0  0  0  0  0
  -19.7942  -30.7237   24.2300 H   0  0  0  0  0  0
  -17.5029  -31.6262   24.5155 H   0  0  0  0  0  0
  -15.5349  -30.3008   23.7620 H   0  0  0  0  0  0
  -15.8672  -28.0817   22.7070 H   0  0  0  0  0  0
  -24.5893  -30.7099   25.7812 H   0  0  0  0  0  0
  -24.8972  -32.2894   26.4947 H   0  0  0  0  0  0
  -25.8068  -30.8861   27.0258 H   0  0  0  0  0  0
  -26.2920  -29.6774   24.1178 H   0  0  0  0  0  0
  -27.4158  -29.7286   25.4576 H   0  0  0  0  0  0
  -27.8735  -30.4393   23.9279 H   0  0  0  0  0  0
  -27.2694  -33.3593   26.2148 H   0  0  0  0  0  0
  -28.3851  -32.6905   25.0323 H   0  0  0  0  0  0
  -28.0798  -31.8425   26.5367 H   0  0  0  0  0  0
  -28.2609  -38.0086   24.7496 H   0  0  0  0  0  0
  -28.1069  -36.2616   24.6335 H   0  0  0  0  0  0
  -27.2305  -37.1512   25.8873 H   0  0  0  0  0  0
  -20.9305  -29.8810   21.6975 H   0  0  0  0  0  0
  -26.0183  -38.2859   24.1403 H   0  0  0  0  0  0
  -32.8460  -19.1225   23.0834 H   0  0  0  0  0  0
  -31.2884  -19.3205   23.8703 H   0  0  0  0  0  0
  -32.3931  -20.6810   23.7512 H   0  0  0  0  0  0
  -31.0565  -23.3049   24.0468 H   0  0  0  0  0  0
  -30.7736  -25.0337   23.8609 H   0  0  0  0  0  0
  -32.0280  -24.2508   22.9272 H   0  0  0  0  0  0
  -28.6203  -24.7015   18.5412 H   0  0  0  0  0  0
  -27.1386  -24.1381   19.3126 H   0  0  0  0  0  0
  -28.6531  -23.3674   19.6757 H   0  0  0  0  0  0
  -28.3921  -21.5983   22.7435 H   0  0  0  0  0  0
  -29.5458  -20.9842   23.9252 H   0  0  0  0  0  0
  -28.9030  -19.9435   22.6624 H   0  0  0  0  0  0
  -29.9290  -25.9670   21.9788 H   0  0  0  0  0  0
  -30.6095  -25.2164   20.5896 H   0  0  0  0  0  0
  -32.2407  -20.6265   21.3216 H   0  0  0  0  0  0
  -29.0473  -23.5977   22.6485 H   0  0  0  0  0  0
  -27.6544  -25.2279   21.3709 H   0  0  0  0  0  0
  -30.8692  -19.9332   17.7718 H   0  0  0  0  0  0
  -31.2696  -20.9559   19.0643 H   0  0  0  0  0  0
  -29.3082  -15.2742   21.7017 H   0  0  0  0  0  0
  1 25  1  0  0  0
  1 30  2  0  0  0
  1 85  1  0  0  0
  2  3  1  0  0  0
  2 25  1  0  0  0
  2 89  1  0  0  0
  2 90  1  0  0  0
  3  4  1  0  0  0
  3 91  1  0  0  0
  3 92  1  0  0  0
  4  5  1  0  0  0
  4 93  1  0  0  0
  4 94  1  0  0  0
  5  6  1  0  0  0
  5 26  1  0  0  0
  5 95  1  0  0  0
  6 25  1  0  0  0
  6 96  1  0  0  0
  6 97  1  0  0  0
  7  8  2  0  0  0
  7 26  1  0  0  0
  7 29  1  0  0  0
  8  9  1  0  0  0
  8 22  1  0  0  0
  9 10  1  0  0  0
  9 27  2  0  0  0
 10 11  2  0  0  0
 10 15  1  0  0  0
 11 12  1  0  0  0
 11 98  1  0  0  0
 12 13  2  0  0  0
 12 99  1  0  0  0
 13 14  1  0  0  0
 13 31  1  0  0  0
 14 15  2  0  0  0
 14100  1  0  0  0
 15101  1  0  0  0
 16 17  2  0  0  0
 16 21  1  0  0  0
 16 31  1  0  0  0
 17 18  1  0  0  0
 17102  1  0  0  0
 18 19  2  0  0  0
 18103  1  0  0  0
 19 20  1  0  0  0
 19 24  1  0  0  0
 20 21  2  0  0  0
 20104  1  0  0  0
 21 23  1  0  0  0
 22 28  1  0  0  0
 22 32  2  0  0  0
 26 27  1  0  0  0
 28105  1  0  0  0
 28106  1  0  0  0
 29107  1  0  0  0
 29108  1  0  0  0
 33 34  1  0  0  0
 33 66  1  0  0  0
 33 70  2  0  0  0
 34 36  1  0  0  0
 34 59  1  0  0  0
 34109  1  0  0  0
 35 44  2  0  0  0
 35 45  1  0  0  0
 35 68  1  0  0  0
 36 56  1  0  0  0
 36110  1  0  0  0
 37 39  1  0  0  0
 37 47  1  0  0  0
 37 66  1  0  0  0
 37111  1  0  0  0
 38 43  2  0  0  0
 38 46  1  0  0  0
 38 47  1  0  0  0
 39 64  1  0  0  0
 39 67  2  0  0  0
 40 52  1  0  0  0
 40 53  2  0  0  0
 40 58  1  0  0  0
 41112  1  0  0  0
 41113  1  0  0  0
 41114  1  0  0  0
 41 48  1  0  0  0
 42 43  1  0  0  0
 42 66  1  0  0  0
 42115  1  0  0  0
 42116  1  0  0  0
 43 44  1  0  0  0
 44117  1  0  0  0
 45 46  2  0  0  0
 45118  1  0  0  0
 46119  1  0  0  0
 47120  1  0  0  0
 47121  1  0  0  0
 48 56  1  0  0  0
 48 65  1  0  0  0
 48122  1  0  0  0
 49 50  1  0  0  0
 49 53  1  0  0  0
 49 64  1  0  0  0
 49123  1  0  0  0
 50 51  1  0  0  0
 50124  1  0  0  0
 50125  1  0  0  0
 51 52  1  0  0  0
 51126  1  0  0  0
 51127  1  0  0  0
 52128  1  0  0  0
 52129  1  0  0  0
 53 54  1  0  0  0
 54 55  2  0  0  0
 54130  1  0  0  0
 55 57  1  0  0  0
 55131  1  0  0  0
 56 69  2  0  0  0
 57 58  2  0  0  0
 57132  1  0  0  0
 58133  1  0  0  0
 59 60  1  0  0  0
 59 61  1  0  0  0
 59 62  1  0  0  0
 60134  1  0  0  0
 60135  1  0  0  0
 60136  1  0  0  0
 61137  1  0  0  0
 61138  1  0  0  0
 61139  1  0  0  0
 62140  1  0  0  0
 62141  1  0  0  0
 62142  1  0  0  0
 63 65  1  0  0  0
 63143  1  0  0  0
 63144  1  0  0  0
 63145  1  0  0  0
 64146  1  0  0  0
 65147  1  0  0  0
 68 82  1  0  0  0
 71 72  2  0  0  0
 71 80  1  0  0  0
 71 83  1  0  0  0
 72 84  1  0  0  0
 72 88  1  0  0  0
 73 83  2  0  0  0
 73 85  1  0  0  0
 73 88  1  0  0  0
 74 81  1  0  0  0
 74 86  1  0  0  0
 74 87  2  0  0  0
 75148  1  0  0  0
 75149  1  0  0  0
 75150  1  0  0  0
 75 80  1  0  0  0
 76151  1  0  0  0
 76152  1  0  0  0
 76153  1  0  0  0
 76 81  1  0  0  0
 77154  1  0  0  0
 77155  1  0  0  0
 77156  1  0  0  0
 77 82  1  0  0  0
 78 86  1  0  0  0
 78157  1  0  0  0
 78158  1  0  0  0
 78159  1  0  0  0
 79 81  1  0  0  0
 79 82  1  0  0  0
 79160  1  0  0  0
 79161  1  0  0  0
 80 86  1  0  0  0
 80162  1  0  0  0
 81163  1  0  0  0
 82164  1  0  0  0
 84165  1  0  0  0
 84166  1  0  0  0
 85167  1  0  0  0
M  ISO  4   1 100  68 101  82 101  85 100
M  END
> <chiral flag>
0

> <version>
0

> <s_m_source_file>
/data/baiqing/PycharmProjects/Reinvent-master-3.2/result/LINK_invent/BTK/process_docking_weight1_custom_product_contain_oxygen_bond_distance_aromatic_linkinvent_7_9_3/rearranged_h_0187.sdf

> <i_m_source_file_index>
25

> <r_mmod_Potential_Energy-OPLS-2005>
-15.3434782028198

> <r_mmod_Stretch_Energy-OPLS-2005>
46.2513465881348

> <r_mmod_Bend_Energy-OPLS-2005>
120.580497741699

> <r_mmod_Torsional_Energy-OPLS-2005>
295.629241943359

> <r_mmod_Improper_Torsional_Energy-OPLS-2005>
5.08164978027344

> <r_mmod_Van_der_Waal_Energy-OPLS-2005>
134.270858764648

> <r_mmod_Electrostatic_Energy-OPLS-2005>
-410.605316162109

> <r_mmod_Solvation_Energy-OPLS-2005>
-221.486694335938

> <b_mmod_Minimization_Converged-OPLS-2005>
0

> <r_mmod_RMS_Derivative-OPLS-2005>
5.39876174926758

$$$$
26
                    3D
 Structure written by MMmdl.
167175  0  0  1  0            999 V2000
  -30.6612  -14.5465   20.5643 C   0  0  0  0  0  0
  -30.4413  -12.3515   19.4233 C   0  0  0  0  0  0
  -29.5005  -12.5247   18.2100 C   0  0  0  0  0  0
  -28.0237  -12.3669   18.6247 C   0  0  0  0  0  0
  -27.6672  -13.2040   19.8812 C   0  0  2  0  0  0
  -28.7143  -12.9932   20.9997 C   0  0  0  0  0  0
  -25.2640  -13.8143   20.5693 C   0  0  0  0  0  0
  -24.1869  -13.0436   20.9153 C   0  0  0  0  0  0
  -24.6419  -11.6898   20.8715 C   0  0  0  0  0  0
  -23.9080  -10.4299   21.0402 C   0  0  0  0  0  0
  -24.3626   -9.4209   21.9191 C   0  0  0  0  0  0
  -23.6301   -8.2248   22.0771 C   0  0  0  0  0  0
  -22.4283   -8.0277   21.3559 C   0  0  0  0  0  0
  -21.9916   -9.0257   20.4674 C   0  0  0  0  0  0
  -22.7250  -10.2137   20.3063 C   0  0  0  0  0  0
  -21.6860   -6.0733   22.5284 C   0  0  0  0  0  0
  -21.4018   -6.5640   23.8209 C   0  0  0  0  0  0
  -21.3659   -5.6795   24.9177 C   0  0  0  0  0  0
  -21.6044   -4.3060   24.7236 C   0  0  0  0  0  0
  -21.8814   -3.8151   23.4356 C   0  0  0  0  0  0
  -21.9199   -4.6960   22.3410 C   0  0  0  0  0  0
  -22.7903  -13.5260   21.1809 C   0  0  0  0  0  0
  -22.1661   -4.2134   21.0990 F   0  0  0  0  0  0
  -21.5633   -3.4553   25.7756 F   0  0  0  0  0  0
  -30.0421  -13.3320   20.4485 N   0  0  0  0  0  0
  -26.3081  -12.9311   20.3414 N   0  0  0  0  0  0
  -25.9351  -11.6475   20.5795 N   0  0  0  0  0  0
  -22.0515  -12.8270   22.0353 N   0  0  0  0  0  0
  -25.4370  -15.1860   20.4100 N   0  0  0  0  0  0
  -31.7686  -14.7736   20.0720 O   0  0  0  0  0  0
  -21.6650   -6.8874   21.4246 O   0  0  0  0  0  0
  -22.3605  -14.5567   20.6655 O   0  0  0  0  0  0
  -24.6218  -31.8651   23.2090 C   0  0  0  0  0  0
  -25.9089  -32.4803   23.8389 C   0  0  1  0  0  0
  -27.2197  -27.3685   20.0970 C   0  0  0  0  0  0
  -25.5913  -33.8604   24.2326 N   0  0  0  0  0  0
  -23.4110  -30.4958   21.5496 C   0  0  2  0  0  0
  -24.8527  -28.9603   20.1136 C   0  0  0  0  0  0
  -22.7431  -29.4685   22.4944 C   0  0  0  0  0  0
  -18.0278  -28.1385   22.8478 C   0  0  0  0  0  0
  -24.1478  -36.7309   23.2640 C   0  0  0  0  0  0
  -25.9497  -30.8113   21.3721 C   0  0  0  0  0  0
  -26.0222  -29.4441   20.7120 C   0  0  0  0  0  0
  -27.2098  -28.6603   20.6950 C   0  0  0  0  0  0
  -26.0205  -26.9258   19.4851 C   0  0  0  0  0  0
  -24.8506  -27.7027   19.4951 C   0  0  0  0  0  0
  -23.6207  -29.8377   20.1626 C   0  0  0  0  0  0
  -25.4101  -36.3108   24.0342 C   0  0  1  0  0  0
  -20.5877  -28.3694   23.1268 C   0  0  2  0  0  0
  -20.6768  -26.9420   22.5394 C   0  0  0  0  0  0
  -19.5750  -26.6388   21.5190 C   0  0  0  0  0  0
  -18.1930  -26.7923   22.1611 C   0  0  0  0  0  0
  -19.1530  -28.8851   23.2876 C   0  0  0  0  0  0
  -18.9465  -30.1451   23.8902 C   0  0  0  0  0  0
  -17.6472  -30.6594   24.0560 C   0  0  0  0  0  0
  -25.9038  -34.9471   23.5138 C   0  0  0  0  0  0
  -16.5358  -29.9101   23.6322 C   0  0  0  0  0  0
  -16.7269  -28.6514   23.0349 C   0  0  0  0  0  0
  -26.4491  -31.6590   25.0734 C   0  0  0  0  0  0
  -25.3735  -31.3702   26.1467 C   0  0  0  0  0  0
  -27.0340  -30.3023   24.6159 C   0  0  0  0  0  0
  -27.6068  -32.4302   25.7499 C   0  0  0  0  0  0
  -27.5580  -37.1809   24.8468 C   0  0  0  0  0  0
  -21.4154  -29.3066   22.3669 N   0  0  0  0  0  0
  -26.4283  -37.3798   23.9416 N   0  0  0  0  0  0
  -24.6800  -31.0718   22.1013 N   0  0  0  0  0  0
  -23.4181  -28.8212   23.2995 O   0  0  0  0  0  0
  -28.3567  -26.5559   20.1232 O   0  0  0  0  0  0
  -26.5609  -34.8929   22.4703 O   0  0  0  0  0  0
  -23.5394  -32.1426   23.7453 O   0  0  0  0  0  0
  -28.9621  -17.6301   22.0300 C   0  0  0  0  0  0
  -29.9029  -16.9295   21.2302 C   0  0  0  0  0  0
  -30.6154  -17.9189   20.5781 C   0  0  0  0  0  0
  -30.4953  -21.7603   18.5304 C   0  0  0  0  0  0
  -31.7111  -17.8325   19.5659 C   0  0  0  0  0  0
  -30.3828  -23.1303   16.3679 C   0  0  0  0  0  0
  -30.2194  -24.4738   21.4560 C   0  0  0  0  0  0
  -29.6836  -22.1065   17.2777 C   0  0  0  0  0  0
  -28.8455  -22.6107   20.3334 C   0  0  0  0  0  0
  -30.5387  -20.5550   20.8360 C   0  0  0  0  0  0
  -28.1186  -25.1123   20.1317 C   0  0  0  0  0  0
  -29.6998  -21.3876   19.7918 C   0  0  2  0  0  0
  -29.3322  -24.1208   20.2543 C   0  0  1  0  0  0
  -29.0899  -18.9439   21.9187 N   0  0  0  0  0  0
  -30.1075  -19.1488   21.0485 N   0  0  0  0  0  0
  -29.9264  -15.4830   21.2094 N   0  0  0  0  0  0
  -31.7295  -21.7948   18.5158 O   0  0  0  0  0  0
  -31.4796  -12.4797   19.1147 H   0  0  0  0  0  0
  -30.3724  -11.3371   19.8242 H   0  0  0  0  0  0
  -29.7474  -11.8024   17.4316 H   0  0  0  0  0  0
  -29.6474  -13.5127   17.7681 H   0  0  0  0  0  0
  -27.8469  -11.3093   18.8225 H   0  0  0  0  0  0
  -27.3700  -12.6346   17.7941 H   0  0  0  0  0  0
  -27.7067  -14.2519   19.5855 H   0  0  0  0  0  0
  -28.7118  -11.9555   21.3356 H   0  0  0  0  0  0
  -28.4601  -13.5758   21.8873 H   0  0  0  0  0  0
  -25.2758   -9.5693   22.4776 H   0  0  0  0  0  0
  -24.0008   -7.4652   22.7501 H   0  0  0  0  0  0
  -21.0840   -8.8788   19.9000 H   0  0  0  0  0  0
  -22.3700  -10.9676   19.6182 H   0  0  0  0  0  0
  -21.1989   -7.6146   23.9705 H   0  0  0  0  0  0
  -21.1494   -6.0533   25.9075 H   0  0  0  0  0  0
  -22.0593   -2.7613   23.2864 H   0  0  0  0  0  0
  -22.4144  -11.9919   22.4711 H   0  0  0  0  0  0
  -21.1147  -13.1332   22.2568 H   0  0  0  0  0  0
  -24.6683  -15.8390   20.5129 H   0  0  0  0  0  0
  -26.2888  -15.6242   20.0830 H   0  0  0  0  0  0
  -26.7160  -32.5497   23.1144 H   0  0  0  0  0  0
  -25.0022  -33.9739   25.0443 H   0  0  0  0  0  0
  -22.7036  -31.3172   21.4133 H   0  0  0  0  0  0
  -23.3743  -35.9639   23.3303 H   0  0  0  0  0  0
  -24.3574  -36.8922   22.2055 H   0  0  0  0  0  0
  -23.7220  -37.6510   23.6650 H   0  0  0  0  0  0
  -26.0744  -31.5775   20.6059 H   0  0  0  0  0  0
  -26.8333  -30.8574   21.9977 H   0  0  0  0  0  0
  -28.1093  -29.0294   21.1666 H   0  0  0  0  0  0
  -25.9436  -25.9738   18.9855 H   0  0  0  0  0  0
  -23.9526  -27.3254   19.0252 H   0  0  0  0  0  0
  -23.7405  -30.6173   19.4092 H   0  0  0  0  0  0
  -22.7398  -29.2698   19.8596 H   0  0  0  0  0  0
  -25.1272  -36.1973   25.0832 H   0  0  0  0  0  0
  -20.9974  -28.3275   24.1384 H   0  0  0  0  0  0
  -20.5641  -26.2320   23.3598 H   0  0  0  0  0  0
  -21.6647  -26.7443   22.1207 H   0  0  0  0  0  0
  -19.6916  -25.6294   21.1235 H   0  0  0  0  0  0
  -19.6684  -27.3182   20.6705 H   0  0  0  0  0  0
  -17.4190  -26.6650   21.4029 H   0  0  0  0  0  0
  -18.0364  -26.0071   22.9017 H   0  0  0  0  0  0
  -19.7950  -30.7251   24.2282 H   0  0  0  0  0  0
  -17.5040  -31.6274   24.5160 H   0  0  0  0  0  0
  -15.5365  -30.3020   23.7639 H   0  0  0  0  0  0
  -15.8664  -28.0837   22.7073 H   0  0  0  0  0  0
  -24.5909  -30.7054   25.7795 H   0  0  0  0  0  0
  -24.8921  -32.2855   26.4915 H   0  0  0  0  0  0
  -25.8059  -30.8860   27.0231 H   0  0  0  0  0  0
  -26.2916  -29.6761   24.1196 H   0  0  0  0  0  0
  -27.4080  -29.7280   25.4647 H   0  0  0  0  0  0
  -27.8761  -30.4336   23.9360 H   0  0  0  0  0  0
  -27.2706  -33.3610   26.2081 H   0  0  0  0  0  0
  -28.3875  -32.6839   25.0315 H   0  0  0  0  0  0
  -28.0736  -31.8409   26.5403 H   0  0  0  0  0  0
  -28.2601  -38.0103   24.7519 H   0  0  0  0  0  0
  -28.1068  -36.2639   24.6279 H   0  0  0  0  0  0
  -27.2302  -37.1448   25.8870 H   0  0  0  0  0  0
  -20.9316  -29.8809   21.6906 H   0  0  0  0  0  0
  -26.0177  -38.2874   24.1415 H   0  0  0  0  0  0
  -28.2012  -17.2294   22.6832 H   0  0  0  0  0  0
  -31.3598  -17.3012   18.6814 H   0  0  0  0  0  0
  -32.5689  -17.2955   19.9680 H   0  0  0  0  0  0
  -32.0599  -18.8115   19.2426 H   0  0  0  0  0  0
  -29.7059  -23.4761   15.5867 H   0  0  0  0  0  0
  -31.2600  -22.6990   15.8838 H   0  0  0  0  0  0
  -30.7070  -24.0073   16.9306 H   0  0  0  0  0  0
  -31.1054  -23.8398   21.4914 H   0  0  0  0  0  0
  -29.6839  -24.3541   22.3982 H   0  0  0  0  0  0
  -30.5584  -25.5089   21.4014 H   0  0  0  0  0  0
  -28.7162  -22.4993   17.5860 H   0  0  0  0  0  0
  -29.4794  -21.1884   16.7277 H   0  0  0  0  0  0
  -28.5371  -22.3939   21.3564 H   0  0  0  0  0  0
  -27.9107  -22.5589   19.7727 H   0  0  0  0  0  0
  -30.5042  -21.0641   21.7992 H   0  0  0  0  0  0
  -31.6029  -20.5359   20.6030 H   0  0  0  0  0  0
  -27.4125  -24.8900   20.9330 H   0  0  0  0  0  0
  -27.6319  -24.8327   19.1987 H   0  0  0  0  0  0
  -28.9586  -20.6763   19.4255 H   0  0  0  0  0  0
  -29.9258  -24.2746   19.3541 H   0  0  0  0  0  0
  -29.1428  -15.0612   21.6843 H   0  0  0  0  0  0
  1 25  1  0  0  0
  1 30  2  0  0  0
  1 86  1  0  0  0
  2  3  1  0  0  0
  2 25  1  0  0  0
  2 88  1  0  0  0
  2 89  1  0  0  0
  3  4  1  0  0  0
  3 90  1  0  0  0
  3 91  1  0  0  0
  4  5  1  0  0  0
  4 92  1  0  0  0
  4 93  1  0  0  0
  5  6  1  0  0  0
  5 26  1  0  0  0
  5 94  1  0  0  0
  6 25  1  0  0  0
  6 95  1  0  0  0
  6 96  1  0  0  0
  7  8  2  0  0  0
  7 26  1  0  0  0
  7 29  1  0  0  0
  8  9  1  0  0  0
  8 22  1  0  0  0
  9 10  1  0  0  0
  9 27  2  0  0  0
 10 11  2  0  0  0
 10 15  1  0  0  0
 11 12  1  0  0  0
 11 97  1  0  0  0
 12 13  2  0  0  0
 12 98  1  0  0  0
 13 14  1  0  0  0
 13 31  1  0  0  0
 14 15  2  0  0  0
 14 99  1  0  0  0
 15100  1  0  0  0
 16 17  2  0  0  0
 16 21  1  0  0  0
 16 31  1  0  0  0
 17 18  1  0  0  0
 17101  1  0  0  0
 18 19  2  0  0  0
 18102  1  0  0  0
 19 20  1  0  0  0
 19 24  1  0  0  0
 20 21  2  0  0  0
 20103  1  0  0  0
 21 23  1  0  0  0
 22 28  1  0  0  0
 22 32  2  0  0  0
 26 27  1  0  0  0
 28104  1  0  0  0
 28105  1  0  0  0
 29106  1  0  0  0
 29107  1  0  0  0
 33 34  1  0  0  0
 33 66  1  0  0  0
 33 70  2  0  0  0
 34 36  1  0  0  0
 34 59  1  0  0  0
 34108  1  0  0  0
 35 44  2  0  0  0
 35 45  1  0  0  0
 35 68  1  0  0  0
 36 56  1  0  0  0
 36109  1  0  0  0
 37 39  1  0  0  0
 37 47  1  0  0  0
 37 66  1  0  0  0
 37110  1  0  0  0
 38 43  2  0  0  0
 38 46  1  0  0  0
 38 47  1  0  0  0
 39 64  1  0  0  0
 39 67  2  0  0  0
 40 52  1  0  0  0
 40 53  2  0  0  0
 40 58  1  0  0  0
 41111  1  0  0  0
 41112  1  0  0  0
 41113  1  0  0  0
 41 48  1  0  0  0
 42 43  1  0  0  0
 42 66  1  0  0  0
 42114  1  0  0  0
 42115  1  0  0  0
 43 44  1  0  0  0
 44116  1  0  0  0
 45 46  2  0  0  0
 45117  1  0  0  0
 46118  1  0  0  0
 47119  1  0  0  0
 47120  1  0  0  0
 48 56  1  0  0  0
 48 65  1  0  0  0
 48121  1  0  0  0
 49 50  1  0  0  0
 49 53  1  0  0  0
 49 64  1  0  0  0
 49122  1  0  0  0
 50 51  1  0  0  0
 50123  1  0  0  0
 50124  1  0  0  0
 51 52  1  0  0  0
 51125  1  0  0  0
 51126  1  0  0  0
 52127  1  0  0  0
 52128  1  0  0  0
 53 54  1  0  0  0
 54 55  2  0  0  0
 54129  1  0  0  0
 55 57  1  0  0  0
 55130  1  0  0  0
 56 69  2  0  0  0
 57 58  2  0  0  0
 57131  1  0  0  0
 58132  1  0  0  0
 59 60  1  0  0  0
 59 61  1  0  0  0
 59 62  1  0  0  0
 60133  1  0  0  0
 60134  1  0  0  0
 60135  1  0  0  0
 61136  1  0  0  0
 61137  1  0  0  0
 61138  1  0  0  0
 62139  1  0  0  0
 62140  1  0  0  0
 62141  1  0  0  0
 63 65  1  0  0  0
 63142  1  0  0  0
 63143  1  0  0  0
 63144  1  0  0  0
 64145  1  0  0  0
 65146  1  0  0  0
 68 81  1  0  0  0
 71 72  1  0  0  0
 71 84  2  0  0  0
 71147  1  0  0  0
 72 73  2  0  0  0
 72 86  1  0  0  0
 73 75  1  0  0  0
 73 85  1  0  0  0
 74 78  1  0  0  0
 74 82  1  0  0  0
 74 87  2  0  0  0
 75148  1  0  0  0
 75149  1  0  0  0
 75150  1  0  0  0
 76 78  1  0  0  0
 76151  1  0  0  0
 76152  1  0  0  0
 76153  1  0  0  0
 77154  1  0  0  0
 77155  1  0  0  0
 77156  1  0  0  0
 77 83  1  0  0  0
 78157  1  0  0  0
 78158  1  0  0  0
 79 83  1  0  0  0
 79159  1  0  0  0
 79160  1  0  0  0
 79 82  1  0  0  0
 80 82  1  0  0  0
 80 85  1  0  0  0
 80161  1  0  0  0
 80162  1  0  0  0
 81 83  1  0  0  0
 81163  1  0  0  0
 81164  1  0  0  0
 82165  1  0  0  0
 83166  1  0  0  0
 84 85  1  0  0  0
 86167  1  0  0  0
M  ISO  4   1 100  68 101  81 101  86 100
M  END
> <chiral flag>
0

> <version>
0

> <s_m_source_file>
/data/baiqing/PycharmProjects/Reinvent-master-3.2/result/LINK_invent/BTK/process_docking_weight1_custom_product_contain_oxygen_bond_distance_aromatic_linkinvent_7_9_3/rearranged_h_0187.sdf

> <i_m_source_file_index>
26

> <r_mmod_Potential_Energy-OPLS-2005>
-21.1132411956787

> <r_mmod_Stretch_Energy-OPLS-2005>
59.9582862854004

> <r_mmod_Bend_Energy-OPLS-2005>
161.126846313477

> <r_mmod_Torsional_Energy-OPLS-2005>
245.049331665039

> <r_mmod_Improper_Torsional_Energy-OPLS-2005>
2.74317455291748

> <r_mmod_Van_der_Waal_Energy-OPLS-2005>
126.233596801758

> <r_mmod_Electrostatic_Energy-OPLS-2005>
-421.695526123047

> <r_mmod_Solvation_Energy-OPLS-2005>
-220.191925048828

> <b_mmod_Minimization_Converged-OPLS-2005>
0

> <r_mmod_RMS_Derivative-OPLS-2005>
2.39900732040405

$$$$
27
                    3D
 Structure written by MMmdl.
151159  0  0  1  0            999 V2000
  -30.6025  -14.7510   20.4296 C   0  0  0  0  0  0
  -30.4336  -12.4502   19.4971 C   0  0  0  0  0  0
  -29.5180  -12.5002   18.2533 C   0  0  0  0  0  0
  -28.0443  -12.3172   18.6637 C   0  0  0  0  0  0
  -27.6397  -13.2279   19.8513 C   0  0  2  0  0  0
  -28.6789  -13.1840   20.9932 C   0  0  0  0  0  0
  -25.2492  -13.8181   20.5696 C   0  0  0  0  0  0
  -24.1757  -13.0448   20.9204 C   0  0  0  0  0  0
  -24.6322  -11.6916   20.8730 C   0  0  0  0  0  0
  -23.8986  -10.4297   21.0402 C   0  0  0  0  0  0
  -24.3558   -9.4233   21.9187 C   0  0  0  0  0  0
  -23.6254   -8.2262   22.0765 C   0  0  0  0  0  0
  -22.4244   -8.0277   21.3556 C   0  0  0  0  0  0
  -21.9852   -9.0235   20.4663 C   0  0  0  0  0  0
  -22.7155  -10.2134   20.3061 C   0  0  0  0  0  0
  -21.6852   -6.0712   22.5272 C   0  0  0  0  0  0
  -21.4014   -6.5627   23.8197 C   0  0  0  0  0  0
  -21.3667   -5.6790   24.9172 C   0  0  0  0  0  0
  -21.6050   -4.3050   24.7228 C   0  0  0  0  0  0
  -21.8818   -3.8132   23.4346 C   0  0  0  0  0  0
  -21.9184   -4.6937   22.3402 C   0  0  0  0  0  0
  -22.7788  -13.5261   21.1857 C   0  0  0  0  0  0
  -22.1664   -4.2119   21.0978 F   0  0  0  0  0  0
  -21.5625   -3.4542   25.7741 F   0  0  0  0  0  0
  -29.9873  -13.5203   20.4176 N   0  0  0  0  0  0
  -26.2898  -12.9372   20.3261 N   0  0  0  0  0  0
  -25.9255  -11.6524   20.5720 N   0  0  0  0  0  0
  -22.0416  -12.8281   22.0425 N   0  0  0  0  0  0
  -25.4195  -15.1899   20.4111 N   0  0  0  0  0  0
  -31.7888  -14.8441   20.1016 O   0  0  0  0  0  0
  -21.6654   -6.8856   21.4227 O   0  0  0  0  0  0
  -22.3498  -14.5589   20.6730 O   0  0  0  0  0  0
  -24.6309  -31.8539   23.2018 C   0  0  0  0  0  0
  -25.9126  -32.4755   23.8367 C   0  0  1  0  0  0
  -27.2167  -27.2570   20.1240 C   0  0  0  0  0  0
  -25.5920  -33.8555   24.2286 N   0  0  0  0  0  0
  -23.4278  -30.4772   21.5430 C   0  0  2  0  0  0
  -24.8756  -28.9266   20.1093 C   0  0  0  0  0  0
  -22.7487  -29.4589   22.4908 C   0  0  0  0  0  0
  -18.0271  -28.1397   22.8461 C   0  0  0  0  0  0
  -24.1474  -36.7293   23.2639 C   0  0  0  0  0  0
  -25.9730  -30.7692   21.3800 C   0  0  0  0  0  0
  -26.0465  -29.3906   20.7228 C   0  0  0  0  0  0
  -27.2188  -28.5651   20.7223 C   0  0  0  0  0  0
  -26.0253  -26.8746   19.4669 C   0  0  0  0  0  0
  -24.8704  -27.6784   19.4713 C   0  0  0  0  0  0
  -23.6460  -29.8122   20.1592 C   0  0  0  0  0  0
  -25.4095  -36.3070   24.0333 C   0  0  1  0  0  0
  -20.5874  -28.3700   23.1265 C   0  0  2  0  0  0
  -20.6757  -26.9414   22.5406 C   0  0  0  0  0  0
  -19.5751  -26.6383   21.5196 C   0  0  0  0  0  0
  -18.1926  -26.7927   22.1603 C   0  0  0  0  0  0
  -19.1524  -28.8864   23.2859 C   0  0  0  0  0  0
  -18.9444  -30.1462   23.8893 C   0  0  0  0  0  0
  -17.6449  -30.6595   24.0550 C   0  0  0  0  0  0
  -25.9027  -34.9433   23.5109 C   0  0  0  0  0  0
  -16.5340  -29.9090   23.6336 C   0  0  0  0  0  0
  -16.7258  -28.6501   23.0355 C   0  0  0  0  0  0
  -26.4495  -31.6580   25.0756 C   0  0  0  0  0  0
  -25.3734  -31.3747   26.1491 C   0  0  0  0  0  0
  -27.0342  -30.2988   24.6280 C   0  0  0  0  0  0
  -27.6053  -32.4316   25.7548 C   0  0  0  0  0  0
  -27.5569  -37.1800   24.8459 C   0  0  0  0  0  0
  -21.4189  -29.3033   22.3641 N   0  0  0  0  0  0
  -26.4269  -37.3765   23.9410 N   0  0  0  0  0  0
  -24.6970  -31.0506   22.0996 N   0  0  0  0  0  0
  -23.4185  -28.8129   23.2998 O   0  0  0  0  0  0
  -28.3095  -26.3544   20.2015 O   0  0  0  0  0  0
  -26.5586  -34.8902   22.4677 O   0  0  0  0  0  0
  -23.5459  -32.1348   23.7318 O   0  0  0  0  0  0
  -29.6286  -18.9210   21.8869 C   0  0  0  0  0  0
  -29.6522  -18.6231   20.5451 C   0  0  0  0  0  0
  -29.1755  -20.9758   20.5074 C   0  0  0  0  0  0
  -30.5491  -24.1222   20.3603 C   0  0  0  0  0  0
  -30.0467  -17.2424   19.8836 C   0  0  0  0  0  0
  -28.1317  -24.8930   19.8656 C   0  0  0  0  0  0
  -29.0729  -23.7335   20.5013 C   0  0  2  0  0  0
  -29.3642  -19.8241   19.7906 N   0  0  0  0  0  0
  -28.9111  -22.3050   20.0087 N   0  0  0  0  0  0
  -29.8151  -15.8847   20.5457 N   0  0  0  0  0  0
  -29.3135  -20.6265   22.2295 S   0  0  0  0  0  0
  -31.4791  -12.5604   19.2000 H   0  0  0  0  0  0
  -30.3656  -11.4819   19.9952 H   0  0  0  0  0  0
  -29.8097  -11.7251   17.5436 H   0  0  0  0  0  0
  -29.6388  -13.4533   17.7346 H   0  0  0  0  0  0
  -27.9117  -11.2728   18.9469 H   0  0  0  0  0  0
  -27.3880  -12.4895   17.8104 H   0  0  0  0  0  0
  -27.6301  -14.2426   19.4546 H   0  0  0  0  0  0
  -28.7047  -12.2001   21.4633 H   0  0  0  0  0  0
  -28.4057  -13.8888   21.7788 H   0  0  0  0  0  0
  -25.2683   -9.5753   22.4774 H   0  0  0  0  0  0
  -23.9974   -7.4662   22.7487 H   0  0  0  0  0  0
  -21.0779   -8.8722   19.8971 H   0  0  0  0  0  0
  -22.3552  -10.9674   19.6190 H   0  0  0  0  0  0
  -21.2020   -7.6140   23.9687 H   0  0  0  0  0  0
  -21.1495   -6.0535   25.9073 H   0  0  0  0  0  0
  -22.0582   -2.7585   23.2856 H   0  0  0  0  0  0
  -22.3969  -11.9930   22.4842 H   0  0  0  0  0  0
  -21.1059  -13.1385   22.2650 H   0  0  0  0  0  0
  -24.6522  -15.8455   20.5158 H   0  0  0  0  0  0
  -26.2625  -15.6241   20.0588 H   0  0  0  0  0  0
  -26.7196  -32.5418   23.1108 H   0  0  0  0  0  0
  -25.0093  -33.9703   25.0455 H   0  0  0  0  0  0
  -22.7242  -31.2994   21.3973 H   0  0  0  0  0  0
  -23.3728  -35.9634   23.3292 H   0  0  0  0  0  0
  -24.3557  -36.8924   22.2055 H   0  0  0  0  0  0
  -23.7236  -37.6501   23.6657 H   0  0  0  0  0  0
  -26.1023  -31.5293   20.6082 H   0  0  0  0  0  0
  -26.8548  -30.8283   22.0071 H   0  0  0  0  0  0
  -28.1118  -28.9094   21.2261 H   0  0  0  0  0  0
  -25.9511  -25.9288   18.9530 H   0  0  0  0  0  0
  -23.9738  -27.3249   18.9803 H   0  0  0  0  0  0
  -23.7639  -30.5877   19.4013 H   0  0  0  0  0  0
  -22.7661  -29.2393   19.8605 H   0  0  0  0  0  0
  -25.1270  -36.1921   25.0824 H   0  0  0  0  0  0
  -20.9961  -28.3282   24.1395 H   0  0  0  0  0  0
  -20.5624  -26.2321   23.3614 H   0  0  0  0  0  0
  -21.6632  -26.7413   22.1237 H   0  0  0  0  0  0
  -19.6913  -25.6287   21.1257 H   0  0  0  0  0  0
  -19.6712  -27.3166   20.6709 H   0  0  0  0  0  0
  -17.4191  -26.6650   21.4013 H   0  0  0  0  0  0
  -18.0333  -26.0083   22.9022 H   0  0  0  0  0  0
  -19.7921  -30.7258   24.2284 H   0  0  0  0  0  0
  -17.5005  -31.6278   24.5142 H   0  0  0  0  0  0
  -15.5342  -30.2994   23.7669 H   0  0  0  0  0  0
  -15.8645  -28.0822   22.7101 H   0  0  0  0  0  0
  -24.5952  -30.7015   25.7874 H   0  0  0  0  0  0
  -24.8870  -32.2917   26.4828 H   0  0  0  0  0  0
  -25.8081  -30.9042   27.0323 H   0  0  0  0  0  0
  -26.2951  -29.6745   24.1250 H   0  0  0  0  0  0
  -27.3925  -29.7239   25.4831 H   0  0  0  0  0  0
  -27.8864  -30.4223   23.9594 H   0  0  0  0  0  0
  -27.2667  -33.3638   26.2078 H   0  0  0  0  0  0
  -28.3915  -32.6835   25.0418 H   0  0  0  0  0  0
  -28.0658  -31.8465   26.5517 H   0  0  0  0  0  0
  -28.2579  -38.0101   24.7481 H   0  0  0  0  0  0
  -28.1066  -36.2629   24.6292 H   0  0  0  0  0  0
  -27.2285  -37.1466   25.8861 H   0  0  0  0  0  0
  -20.9368  -29.8777   21.6868 H   0  0  0  0  0  0
  -26.0153  -38.2842   24.1414 H   0  0  0  0  0  0
  -29.8248  -18.2409   22.7055 H   0  0  0  0  0  0
  -30.8570  -24.1274   19.3139 H   0  0  0  0  0  0
  -31.1939  -23.4217   20.8928 H   0  0  0  0  0  0
  -30.7385  -25.1181   20.7668 H   0  0  0  0  0  0
  -31.1012  -17.3014   19.6125 H   0  0  0  0  0  0
  -29.5421  -17.1746   18.9177 H   0  0  0  0  0  0
  -27.1181  -24.5911   20.1263 H   0  0  0  0  0  0
  -28.1936  -24.8214   18.7789 H   0  0  0  0  0  0
  -28.8542  -23.7044   21.5687 H   0  0  0  0  0  0
  -28.7668  -22.2827   19.0034 H   0  0  0  0  0  0
  -28.8617  -15.7131   20.8264 H   0  0  0  0  0  0
  1 25  1  0  0  0
  1 30  2  0  0  0
  1 80  1  0  0  0
  2  3  1  0  0  0
  2 25  1  0  0  0
  2 82  1  0  0  0
  2 83  1  0  0  0
  3  4  1  0  0  0
  3 84  1  0  0  0
  3 85  1  0  0  0
  4  5  1  0  0  0
  4 86  1  0  0  0
  4 87  1  0  0  0
  5  6  1  0  0  0
  5 26  1  0  0  0
  5 88  1  0  0  0
  6 25  1  0  0  0
  6 89  1  0  0  0
  6 90  1  0  0  0
  7  8  2  0  0  0
  7 26  1  0  0  0
  7 29  1  0  0  0
  8  9  1  0  0  0
  8 22  1  0  0  0
  9 10  1  0  0  0
  9 27  2  0  0  0
 10 11  2  0  0  0
 10 15  1  0  0  0
 11 12  1  0  0  0
 11 91  1  0  0  0
 12 13  2  0  0  0
 12 92  1  0  0  0
 13 14  1  0  0  0
 13 31  1  0  0  0
 14 15  2  0  0  0
 14 93  1  0  0  0
 15 94  1  0  0  0
 16 17  2  0  0  0
 16 21  1  0  0  0
 16 31  1  0  0  0
 17 18  1  0  0  0
 17 95  1  0  0  0
 18 19  2  0  0  0
 18 96  1  0  0  0
 19 20  1  0  0  0
 19 24  1  0  0  0
 20 21  2  0  0  0
 20 97  1  0  0  0
 21 23  1  0  0  0
 22 28  1  0  0  0
 22 32  2  0  0  0
 26 27  1  0  0  0
 28 98  1  0  0  0
 28 99  1  0  0  0
 29100  1  0  0  0
 29101  1  0  0  0
 33 34  1  0  0  0
 33 66  1  0  0  0
 33 70  2  0  0  0
 34 36  1  0  0  0
 34 59  1  0  0  0
 34102  1  0  0  0
 35 44  2  0  0  0
 35 45  1  0  0  0
 35 68  1  0  0  0
 36 56  1  0  0  0
 36103  1  0  0  0
 37 39  1  0  0  0
 37 47  1  0  0  0
 37 66  1  0  0  0
 37104  1  0  0  0
 38 43  2  0  0  0
 38 46  1  0  0  0
 38 47  1  0  0  0
 39 64  1  0  0  0
 39 67  2  0  0  0
 40 52  1  0  0  0
 40 53  2  0  0  0
 40 58  1  0  0  0
 41105  1  0  0  0
 41106  1  0  0  0
 41107  1  0  0  0
 41 48  1  0  0  0
 42 43  1  0  0  0
 42 66  1  0  0  0
 42108  1  0  0  0
 42109  1  0  0  0
 43 44  1  0  0  0
 44110  1  0  0  0
 45 46  2  0  0  0
 45111  1  0  0  0
 46112  1  0  0  0
 47113  1  0  0  0
 47114  1  0  0  0
 48 56  1  0  0  0
 48 65  1  0  0  0
 48115  1  0  0  0
 49 50  1  0  0  0
 49 53  1  0  0  0
 49 64  1  0  0  0
 49116  1  0  0  0
 50 51  1  0  0  0
 50117  1  0  0  0
 50118  1  0  0  0
 51 52  1  0  0  0
 51119  1  0  0  0
 51120  1  0  0  0
 52121  1  0  0  0
 52122  1  0  0  0
 53 54  1  0  0  0
 54 55  2  0  0  0
 54123  1  0  0  0
 55 57  1  0  0  0
 55124  1  0  0  0
 56 69  2  0  0  0
 57 58  2  0  0  0
 57125  1  0  0  0
 58126  1  0  0  0
 59 60  1  0  0  0
 59 61  1  0  0  0
 59 62  1  0  0  0
 60127  1  0  0  0
 60128  1  0  0  0
 60129  1  0  0  0
 61130  1  0  0  0
 61131  1  0  0  0
 61132  1  0  0  0
 62133  1  0  0  0
 62134  1  0  0  0
 62135  1  0  0  0
 63 65  1  0  0  0
 63136  1  0  0  0
 63137  1  0  0  0
 63138  1  0  0  0
 64139  1  0  0  0
 65140  1  0  0  0
 68 76  1  0  0  0
 71 72  2  0  0  0
 71 81  1  0  0  0
 71141  1  0  0  0
 72 75  1  0  0  0
 72 78  1  0  0  0
 73 78  2  0  0  0
 73 79  1  0  0  0
 73 81  1  0  0  0
 74142  1  0  0  0
 74143  1  0  0  0
 74144  1  0  0  0
 74 77  1  0  0  0
 75 80  1  0  0  0
 75145  1  0  0  0
 75146  1  0  0  0
 76 77  1  0  0  0
 76147  1  0  0  0
 76148  1  0  0  0
 77 79  1  0  0  0
 77149  1  0  0  0
 79150  1  0  0  0
 80151  1  0  0  0
M  ISO  4   1 100  68 101  76 101  80 100
M  END
> <chiral flag>
0

> <version>
0

> <s_m_source_file>
/data/baiqing/PycharmProjects/Reinvent-master-3.2/result/LINK_invent/BTK/process_docking_weight1_custom_product_contain_oxygen_bond_distance_aromatic_linkinvent_7_9_3/rearranged_h_0187.sdf

> <i_m_source_file_index>
27

> <r_mmod_Potential_Energy-OPLS-2005>
-63.6308898925781

> <r_mmod_Stretch_Energy-OPLS-2005>
112.845932006836

> <r_mmod_Bend_Energy-OPLS-2005>
154.699172973633

> <r_mmod_Torsional_Energy-OPLS-2005>
202.36003112793

> <r_mmod_Improper_Torsional_Energy-OPLS-2005>
8.60605049133301

> <r_mmod_Van_der_Waal_Energy-OPLS-2005>
117.511474609375

> <r_mmod_Electrostatic_Energy-OPLS-2005>
-522.124816894531

> <r_mmod_Solvation_Energy-OPLS-2005>
-228.599380493164

> <b_mmod_Minimization_Converged-OPLS-2005>
0

> <r_mmod_RMS_Derivative-OPLS-2005>
3.21932816505432

$$$$
28
                    3D
 Structure written by MMmdl.
160168  0  0  1  0            999 V2000
  -30.6834  -14.4749   20.5780 C   0  0  0  0  0  0
  -30.4330  -12.3110   19.4142 C   0  0  0  0  0  0
  -29.4974  -12.5095   18.2022 C   0  0  0  0  0  0
  -28.0178  -12.3676   18.6146 C   0  0  0  0  0  0
  -27.6647  -13.2006   19.8754 C   0  0  2  0  0  0
  -28.7067  -12.9610   20.9919 C   0  0  0  0  0  0
  -25.2609  -13.8145   20.5667 C   0  0  0  0  0  0
  -24.1854  -13.0436   20.9166 C   0  0  0  0  0  0
  -24.6392  -11.6896   20.8726 C   0  0  0  0  0  0
  -23.9053  -10.4289   21.0402 C   0  0  0  0  0  0
  -24.3610   -9.4209   21.9181 C   0  0  0  0  0  0
  -23.6292   -8.2241   22.0754 C   0  0  0  0  0  0
  -22.4273   -8.0278   21.3544 C   0  0  0  0  0  0
  -21.9904   -9.0250   20.4649 C   0  0  0  0  0  0
  -22.7225  -10.2131   20.3056 C   0  0  0  0  0  0
  -21.6853   -6.0732   22.5281 C   0  0  0  0  0  0
  -21.4009   -6.5638   23.8212 C   0  0  0  0  0  0
  -21.3659   -5.6794   24.9177 C   0  0  0  0  0  0
  -21.6049   -4.3057   24.7229 C   0  0  0  0  0  0
  -21.8822   -3.8145   23.4352 C   0  0  0  0  0  0
  -21.9193   -4.6961   22.3407 C   0  0  0  0  0  0
  -22.7878  -13.5245   21.1839 C   0  0  0  0  0  0
  -22.1665   -4.2151   21.0981 F   0  0  0  0  0  0
  -21.5634   -3.4539   25.7736 F   0  0  0  0  0  0
  -30.0393  -13.2815   20.4475 N   0  0  0  0  0  0
  -26.3039  -12.9300   20.3354 N   0  0  0  0  0  0
  -25.9317  -11.6468   20.5753 N   0  0  0  0  0  0
  -22.0511  -12.8241   22.0390 N   0  0  0  0  0  0
  -25.4339  -15.1864   20.4061 N   0  0  0  0  0  0
  -31.8059  -14.6762   20.1017 O   0  0  0  0  0  0
  -21.6638   -6.8874   21.4242 O   0  0  0  0  0  0
  -22.3568  -14.5555   20.6692 O   0  0  0  0  0  0
  -24.6134  -31.8672   23.2095 C   0  0  0  0  0  0
  -25.9027  -32.4824   23.8390 C   0  0  1  0  0  0
  -27.2379  -27.4432   20.0942 C   0  0  0  0  0  0
  -25.5880  -33.8622   24.2325 N   0  0  0  0  0  0
  -23.4026  -30.4885   21.5502 C   0  0  2  0  0  0
  -24.8511  -28.9534   20.1157 C   0  0  0  0  0  0
  -22.7410  -29.4644   22.5000 C   0  0  0  0  0  0
  -18.0265  -28.1367   22.8492 C   0  0  0  0  0  0
  -24.1485  -36.7322   23.2642 C   0  0  0  0  0  0
  -25.9301  -30.8353   21.3614 C   0  0  0  0  0  0
  -26.0105  -29.4690   20.7106 C   0  0  0  0  0  0
  -27.2099  -28.7203   20.6981 C   0  0  0  0  0  0
  -26.0663  -26.9382   19.4956 C   0  0  0  0  0  0
  -24.8729  -27.6860   19.5057 C   0  0  0  0  0  0
  -23.6111  -29.8184   20.1658 C   0  0  0  0  0  0
  -25.4106  -36.3118   24.0341 C   0  0  1  0  0  0
  -20.5858  -28.3650   23.1324 C   0  0  2  0  0  0
  -20.6755  -26.9385   22.5423 C   0  0  0  0  0  0
  -19.5737  -26.6380   21.5212 C   0  0  0  0  0  0
  -18.1913  -26.7916   22.1621 C   0  0  0  0  0  0
  -19.1514  -28.8824   23.2903 C   0  0  0  0  0  0
  -18.9448  -30.1432   23.8909 C   0  0  0  0  0  0
  -17.6452  -30.6578   24.0559 C   0  0  0  0  0  0
  -25.9028  -34.9479   23.5134 C   0  0  0  0  0  0
  -16.5340  -29.9083   23.6325 C   0  0  0  0  0  0
  -16.7256  -28.6497   23.0350 C   0  0  0  0  0  0
  -26.4455  -31.6604   25.0717 C   0  0  0  0  0  0
  -25.3730  -31.3710   26.1478 C   0  0  0  0  0  0
  -27.0286  -30.3052   24.6084 C   0  0  0  0  0  0
  -27.6031  -32.4325   25.7478 C   0  0  0  0  0  0
  -27.5581  -37.1812   24.8464 C   0  0  0  0  0  0
  -21.4138  -29.3021   22.3736 N   0  0  0  0  0  0
  -26.4296  -37.3800   23.9406 N   0  0  0  0  0  0
  -24.6669  -31.0776   22.0993 N   0  0  0  0  0  0
  -23.4179  -28.8187   23.3044 O   0  0  0  0  0  0
  -28.3822  -26.6783   20.0874 O   0  0  0  0  0  0
  -26.5602  -34.8929   22.4704 O   0  0  0  0  0  0
  -23.5328  -32.1419   23.7490 O   0  0  0  0  0  0
  -30.9538  -18.9289   20.7353 C   0  0  0  0  0  0
  -29.7155  -19.3258   21.2088 C   0  0  0  0  0  0
  -30.0579  -16.8567   21.1141 C   0  0  0  0  0  0
  -29.4467  -21.7384   20.8060 C   0  0  0  0  0  0
  -29.7565  -23.3598   22.6784 C   0  0  0  0  0  0
  -27.4156  -22.7457   21.9433 C   0  0  0  0  0  0
  -33.2580  -19.2328   20.2597 C   0  0  0  0  0  0
  -28.8567  -24.2499   20.4659 C   0  0  0  0  0  0
  -28.3668  -25.6084   21.0455 C   0  0  0  0  0  0
  -28.8617  -23.0312   21.4616 C   0  0  0  0  0  0
  -31.1225  -17.5317   20.6690 N   0  0  0  0  0  0
  -29.2251  -20.5755   21.4552 N   0  0  0  0  0  0
  -29.9488  -15.4352   21.1747 N   0  0  0  0  0  0
  -30.0578  -21.8006   19.7375 O   0  0  0  0  0  0
  -31.9531  -19.7823   20.3997 O   0  0  0  0  0  0
  -28.7604  -17.9197   21.6463 S   0  0  0  0  0  0
  -31.4752  -12.4254   19.1101 H   0  0  0  0  0  0
  -30.3491  -11.2953   19.8030 H   0  0  0  0  0  0
  -29.7375  -11.7881   17.4198 H   0  0  0  0  0  0
  -29.6636  -13.4963   17.7668 H   0  0  0  0  0  0
  -27.8266  -11.3106   18.8037 H   0  0  0  0  0  0
  -27.3683  -12.6481   17.7849 H   0  0  0  0  0  0
  -27.7133  -14.2507   19.5867 H   0  0  0  0  0  0
  -28.6852  -11.9163   21.3056 H   0  0  0  0  0  0
  -28.4618  -13.5309   21.8889 H   0  0  0  0  0  0
  -25.2757   -9.5690   22.4748 H   0  0  0  0  0  0
  -24.0013   -7.4630   22.7468 H   0  0  0  0  0  0
  -21.0840   -8.8761   19.8951 H   0  0  0  0  0  0
  -22.3685  -10.9667   19.6163 H   0  0  0  0  0  0
  -21.1990   -7.6144   23.9719 H   0  0  0  0  0  0
  -21.1483   -6.0519   25.9081 H   0  0  0  0  0  0
  -22.0601   -2.7607   23.2847 H   0  0  0  0  0  0
  -22.4119  -11.9905   22.4789 H   0  0  0  0  0  0
  -21.1127  -13.1271   22.2582 H   0  0  0  0  0  0
  -24.6628  -15.8384   20.5030 H   0  0  0  0  0  0
  -26.2793  -15.6234   20.0619 H   0  0  0  0  0  0
  -26.7103  -32.5540   23.1160 H   0  0  0  0  0  0
  -25.0007  -33.9787   25.0453 H   0  0  0  0  0  0
  -22.6905  -31.3043   21.4100 H   0  0  0  0  0  0
  -23.3740  -35.9662   23.3318 H   0  0  0  0  0  0
  -24.3574  -36.8924   22.2051 H   0  0  0  0  0  0
  -23.7241  -37.6536   23.6646 H   0  0  0  0  0  0
  -26.0388  -31.5999   20.5907 H   0  0  0  0  0  0
  -26.8185  -30.8915   21.9788 H   0  0  0  0  0  0
  -28.1057  -29.1113   21.1606 H   0  0  0  0  0  0
  -26.0795  -25.9636   19.0284 H   0  0  0  0  0  0
  -23.9818  -27.2812   19.0459 H   0  0  0  0  0  0
  -23.7160  -30.5914   19.4038 H   0  0  0  0  0  0
  -22.7354  -29.2359   19.8737 H   0  0  0  0  0  0
  -25.1280  -36.1988   25.0835 H   0  0  0  0  0  0
  -20.9938  -28.3210   24.1449 H   0  0  0  0  0  0
  -20.5652  -26.2251   23.3604 H   0  0  0  0  0  0
  -21.6626  -26.7430   22.1214 H   0  0  0  0  0  0
  -19.6900  -25.6297   21.1223 H   0  0  0  0  0  0
  -19.6682  -27.3204   20.6752 H   0  0  0  0  0  0
  -17.4184  -26.6661   21.4024 H   0  0  0  0  0  0
  -18.0313  -26.0056   22.9013 H   0  0  0  0  0  0
  -19.7928  -30.7235   24.2289 H   0  0  0  0  0  0
  -17.5014  -31.6263   24.5151 H   0  0  0  0  0  0
  -15.5342  -30.2986   23.7650 H   0  0  0  0  0  0
  -15.8654  -28.0821   22.7065 H   0  0  0  0  0  0
  -24.5890  -30.7069   25.7822 H   0  0  0  0  0  0
  -24.8934  -32.2865   26.4952 H   0  0  0  0  0  0
  -25.8091  -30.8863   27.0223 H   0  0  0  0  0  0
  -26.2829  -29.6817   24.1141 H   0  0  0  0  0  0
  -27.4064  -29.7281   25.4533 H   0  0  0  0  0  0
  -27.8656  -30.4378   23.9226 H   0  0  0  0  0  0
  -27.2650  -33.3614   26.2090 H   0  0  0  0  0  0
  -28.3823  -32.6911   25.0295 H   0  0  0  0  0  0
  -28.0722  -31.8431   26.5368 H   0  0  0  0  0  0
  -28.2608  -38.0100   24.7504 H   0  0  0  0  0  0
  -28.1064  -36.2630   24.6298 H   0  0  0  0  0  0
  -27.2294  -37.1477   25.8867 H   0  0  0  0  0  0
  -20.9288  -29.8757   21.6978 H   0  0  0  0  0  0
  -26.0188  -38.2883   24.1401 H   0  0  0  0  0  0
  -29.8838  -22.4996   23.3368 H   0  0  0  0  0  0
  -29.3365  -24.1570   23.2908 H   0  0  0  0  0  0
  -30.7528  -23.6755   22.3651 H   0  0  0  0  0  0
  -27.3654  -21.9260   22.6603 H   0  0  0  0  0  0
  -26.7622  -22.4926   21.1075 H   0  0  0  0  0  0
  -26.9750  -23.6003   22.4535 H   0  0  0  0  0  0
  -33.5827  -18.7447   21.1801 H   0  0  0  0  0  0
  -33.9660  -20.0325   20.0427 H   0  0  0  0  0  0
  -33.3089  -18.5142   19.4402 H   0  0  0  0  0  0
  -29.8635  -24.3992   20.0730 H   0  0  0  0  0  0
  -28.2400  -24.0015   19.6010 H   0  0  0  0  0  0
  -29.0092  -25.9184   21.8693 H   0  0  0  0  0  0
  -27.3703  -25.4919   21.4719 H   0  0  0  0  0  0
  -28.5819  -20.6472   22.2308 H   0  0  0  0  0  0
  -29.0823  -15.0967   21.5610 H   0  0  0  0  0  0
  1 25  1  0  0  0
  1 30  2  0  0  0
  1 83  1  0  0  0
  2  3  1  0  0  0
  2 25  1  0  0  0
  2 87  1  0  0  0
  2 88  1  0  0  0
  3  4  1  0  0  0
  3 89  1  0  0  0
  3 90  1  0  0  0
  4  5  1  0  0  0
  4 91  1  0  0  0
  4 92  1  0  0  0
  5  6  1  0  0  0
  5 26  1  0  0  0
  5 93  1  0  0  0
  6 25  1  0  0  0
  6 94  1  0  0  0
  6 95  1  0  0  0
  7  8  2  0  0  0
  7 26  1  0  0  0
  7 29  1  0  0  0
  8  9  1  0  0  0
  8 22  1  0  0  0
  9 10  1  0  0  0
  9 27  2  0  0  0
 10 11  2  0  0  0
 10 15  1  0  0  0
 11 12  1  0  0  0
 11 96  1  0  0  0
 12 13  2  0  0  0
 12 97  1  0  0  0
 13 14  1  0  0  0
 13 31  1  0  0  0
 14 15  2  0  0  0
 14 98  1  0  0  0
 15 99  1  0  0  0
 16 17  2  0  0  0
 16 21  1  0  0  0
 16 31  1  0  0  0
 17 18  1  0  0  0
 17100  1  0  0  0
 18 19  2  0  0  0
 18101  1  0  0  0
 19 20  1  0  0  0
 19 24  1  0  0  0
 20 21  2  0  0  0
 20102  1  0  0  0
 21 23  1  0  0  0
 22 28  1  0  0  0
 22 32  2  0  0  0
 26 27  1  0  0  0
 28103  1  0  0  0
 28104  1  0  0  0
 29105  1  0  0  0
 29106  1  0  0  0
 33 34  1  0  0  0
 33 66  1  0  0  0
 33 70  2  0  0  0
 34 36  1  0  0  0
 34 59  1  0  0  0
 34107  1  0  0  0
 35 44  2  0  0  0
 35 45  1  0  0  0
 35 68  1  0  0  0
 36 56  1  0  0  0
 36108  1  0  0  0
 37 39  1  0  0  0
 37 47  1  0  0  0
 37 66  1  0  0  0
 37109  1  0  0  0
 38 43  2  0  0  0
 38 46  1  0  0  0
 38 47  1  0  0  0
 39 64  1  0  0  0
 39 67  2  0  0  0
 40 52  1  0  0  0
 40 53  2  0  0  0
 40 58  1  0  0  0
 41110  1  0  0  0
 41111  1  0  0  0
 41112  1  0  0  0
 41 48  1  0  0  0
 42 43  1  0  0  0
 42 66  1  0  0  0
 42113  1  0  0  0
 42114  1  0  0  0
 43 44  1  0  0  0
 44115  1  0  0  0
 45 46  2  0  0  0
 45116  1  0  0  0
 46117  1  0  0  0
 47118  1  0  0  0
 47119  1  0  0  0
 48 56  1  0  0  0
 48 65  1  0  0  0
 48120  1  0  0  0
 49 50  1  0  0  0
 49 53  1  0  0  0
 49 64  1  0  0  0
 49121  1  0  0  0
 50 51  1  0  0  0
 50122  1  0  0  0
 50123  1  0  0  0
 51 52  1  0  0  0
 51124  1  0  0  0
 51125  1  0  0  0
 52126  1  0  0  0
 52127  1  0  0  0
 53 54  1  0  0  0
 54 55  2  0  0  0
 54128  1  0  0  0
 55 57  1  0  0  0
 55129  1  0  0  0
 56 69  2  0  0  0
 57 58  2  0  0  0
 57130  1  0  0  0
 58131  1  0  0  0
 59 60  1  0  0  0
 59 61  1  0  0  0
 59 62  1  0  0  0
 60132  1  0  0  0
 60133  1  0  0  0
 60134  1  0  0  0
 61135  1  0  0  0
 61136  1  0  0  0
 61137  1  0  0  0
 62138  1  0  0  0
 62139  1  0  0  0
 62140  1  0  0  0
 63 65  1  0  0  0
 63141  1  0  0  0
 63142  1  0  0  0
 63143  1  0  0  0
 64144  1  0  0  0
 65145  1  0  0  0
 68 79  1  0  0  0
 71 72  2  0  0  0
 71 81  1  0  0  0
 71 85  1  0  0  0
 72 82  1  0  0  0
 72 86  1  0  0  0
 73 81  2  0  0  0
 73 83  1  0  0  0
 73 86  1  0  0  0
 74 80  1  0  0  0
 74 82  1  0  0  0
 74 84  2  0  0  0
 75146  1  0  0  0
 75147  1  0  0  0
 75148  1  0  0  0
 75 80  1  0  0  0
 76 80  1  0  0  0
 76149  1  0  0  0
 76150  1  0  0  0
 76151  1  0  0  0
 77 85  1  0  0  0
 77152  1  0  0  0
 77153  1  0  0  0
 77154  1  0  0  0
 78 79  1  0  0  0
 78 80  1  0  0  0
 78155  1  0  0  0
 78156  1  0  0  0
 79157  1  0  0  0
 79158  1  0  0  0
 82159  1  0  0  0
 83160  1  0  0  0
M  ISO  4   1 100  68 101  79 101  83 100
M  END
> <chiral flag>
0

> <version>
0

> <s_m_source_file>
/data/baiqing/PycharmProjects/Reinvent-master-3.2/result/LINK_invent/BTK/process_docking_weight1_custom_product_contain_oxygen_bond_distance_aromatic_linkinvent_7_9_3/rearranged_h_0187.sdf

> <i_m_source_file_index>
28

> <r_mmod_Potential_Energy-OPLS-2005>
-135.887619018555

> <r_mmod_Stretch_Energy-OPLS-2005>
40.6836853027344

> <r_mmod_Bend_Energy-OPLS-2005>
111.05541229248

> <r_mmod_Torsional_Energy-OPLS-2005>
266.8828125

> <r_mmod_Improper_Torsional_Energy-OPLS-2005>
3.60550475120544

> <r_mmod_Van_der_Waal_Energy-OPLS-2005>
143.980987548828

> <r_mmod_Electrostatic_Energy-OPLS-2005>
-466.271728515625

> <r_mmod_Solvation_Energy-OPLS-2005>
-247.631729125977

> <b_mmod_Minimization_Converged-OPLS-2005>
0

> <r_mmod_RMS_Derivative-OPLS-2005>
0.944020628929138

$$$$
29
                    3D
 Structure written by MMmdl.
152160  0  0  1  0            999 V2000
  -30.7078  -14.4486   20.6172 C   0  0  0  0  0  0
  -30.4221  -12.3140   19.4014 C   0  0  0  0  0  0
  -29.4870  -12.5504   18.1958 C   0  0  0  0  0  0
  -28.0078  -12.3997   18.6058 C   0  0  0  0  0  0
  -27.6652  -13.2022   19.8880 C   0  0  2  0  0  0
  -28.7073  -12.9181   20.9903 C   0  0  0  0  0  0
  -25.2602  -13.8148   20.5697 C   0  0  0  0  0  0
  -24.1839  -13.0442   20.9177 C   0  0  0  0  0  0
  -24.6375  -11.6906   20.8744 C   0  0  0  0  0  0
  -23.9033  -10.4300   21.0417 C   0  0  0  0  0  0
  -24.3601   -9.4218   21.9190 C   0  0  0  0  0  0
  -23.6289   -8.2243   22.0752 C   0  0  0  0  0  0
  -22.4270   -8.0282   21.3538 C   0  0  0  0  0  0
  -21.9896   -9.0257   20.4636 C   0  0  0  0  0  0
  -22.7213  -10.2145   20.3056 C   0  0  0  0  0  0
  -21.6836   -6.0743   22.5287 C   0  0  0  0  0  0
  -21.4004   -6.5640   23.8224 C   0  0  0  0  0  0
  -21.3668   -5.6787   24.9188 C   0  0  0  0  0  0
  -21.6053   -4.3050   24.7224 C   0  0  0  0  0  0
  -21.8812   -3.8149   23.4340 C   0  0  0  0  0  0
  -21.9188   -4.6974   22.3400 C   0  0  0  0  0  0
  -22.7860  -13.5260   21.1844 C   0  0  0  0  0  0
  -22.1645   -4.2169   21.0976 F   0  0  0  0  0  0
  -21.5654   -3.4524   25.7726 F   0  0  0  0  0  0
  -30.0404  -13.2659   20.4604 N   0  0  0  0  0  0
  -26.3035  -12.9302   20.3431 N   0  0  0  0  0  0
  -25.9305  -11.6463   20.5787 N   0  0  0  0  0  0
  -22.0470  -12.8276   22.0400 N   0  0  0  0  0  0
  -25.4372  -15.1858   20.4113 N   0  0  0  0  0  0
  -31.7987  -14.6541   20.0731 O   0  0  0  0  0  0
  -21.6632   -6.8880   21.4240 O   0  0  0  0  0  0
  -22.3576  -14.5563   20.6678 O   0  0  0  0  0  0
  -24.6166  -31.8687   23.2100 C   0  0  0  0  0  0
  -25.9053  -32.4830   23.8411 C   0  0  1  0  0  0
  -27.2412  -27.4285   20.0921 C   0  0  0  0  0  0
  -25.5886  -33.8627   24.2326 N   0  0  0  0  0  0
  -23.4050  -30.4972   21.5484 C   0  0  2  0  0  0
  -24.8510  -28.9633   20.1142 C   0  0  0  0  0  0
  -22.7411  -29.4694   22.4944 C   0  0  0  0  0  0
  -18.0287  -28.1383   22.8498 C   0  0  0  0  0  0
  -24.1470  -36.7327   23.2643 C   0  0  0  0  0  0
  -25.9371  -30.8331   21.3643 C   0  0  0  0  0  0
  -26.0136  -29.4686   20.7079 C   0  0  0  0  0  0
  -27.2092  -28.7109   20.6913 C   0  0  0  0  0  0
  -26.0509  -26.9404   19.4962 C   0  0  0  0  0  0
  -24.8647  -27.6974   19.5080 C   0  0  0  0  0  0
  -23.6156  -29.8346   20.1618 C   0  0  0  0  0  0
  -25.4091  -36.3117   24.0342 C   0  0  1  0  0  0
  -20.5881  -28.3684   23.1290 C   0  0  2  0  0  0
  -20.6766  -26.9413   22.5410 C   0  0  0  0  0  0
  -19.5747  -26.6381   21.5208 C   0  0  0  0  0  0
  -18.1928  -26.7926   22.1626 C   0  0  0  0  0  0
  -19.1536  -28.8846   23.2901 C   0  0  0  0  0  0
  -18.9465  -30.1441   23.8927 C   0  0  0  0  0  0
  -17.6470  -30.6590   24.0564 C   0  0  0  0  0  0
  -25.9027  -34.9484   23.5134 C   0  0  0  0  0  0
  -16.5361  -29.9100   23.6307 C   0  0  0  0  0  0
  -16.7277  -28.6506   23.0351 C   0  0  0  0  0  0
  -26.4460  -31.6623   25.0758 C   0  0  0  0  0  0
  -25.3714  -31.3774   26.1509 C   0  0  0  0  0  0
  -27.0281  -30.3052   24.6163 C   0  0  0  0  0  0
  -27.6023  -32.4354   25.7525 C   0  0  0  0  0  0
  -27.5571  -37.1819   24.8460 C   0  0  0  0  0  0
  -21.4139  -29.3058   22.3681 N   0  0  0  0  0  0
  -26.4277  -37.3801   23.9414 N   0  0  0  0  0  0
  -24.6715  -31.0804   22.0991 N   0  0  0  0  0  0
  -23.4177  -28.8233   23.2988 O   0  0  0  0  0  0
  -28.4196  -26.6958   20.1155 O   0  0  0  0  0  0
  -26.5606  -34.8934   22.4705 O   0  0  0  0  0  0
  -23.5353  -32.1448   23.7483 O   0  0  0  0  0  0
  -28.5620  -18.7763   21.1264 C   0  0  0  0  0  0
  -29.8086  -18.1973   21.0008 C   0  0  0  0  0  0
  -29.7911  -20.6662   20.8131 C   0  0  0  0  0  0
  -30.1368  -16.7919   21.0321 C   0  0  0  0  0  0
  -30.0157  -15.4816   21.3875 C   0  0  0  0  0  0
  -29.3297  -22.9408   19.9586 C   0  0  0  0  0  0
  -30.8097  -24.8921   19.3044 C   0  0  0  0  0  0
  -28.3319  -25.2930   19.8017 C   0  0  0  0  0  0
  -29.5976  -24.4565   20.1482 C   0  0  1  0  0  0
  -28.5649  -20.1730   21.0225 N   0  0  0  0  0  0
  -30.0256  -22.0663   20.7126 N   0  0  0  0  0  0
  -28.5150  -22.5751   19.1051 O   0  0  0  0  0  0
  -31.0460  -19.4189   20.7718 S   0  0  0  0  0  0
  -31.4642  -12.4183   19.0973 H   0  0  0  0  0  0
  -30.3245  -11.2882   19.7603 H   0  0  0  0  0  0
  -29.7298  -11.8614   17.3858 H   0  0  0  0  0  0
  -29.6494  -13.5562   17.8024 H   0  0  0  0  0  0
  -27.8110  -11.3386   18.7647 H   0  0  0  0  0  0
  -27.3548  -12.7109   17.7883 H   0  0  0  0  0  0
  -27.7284  -14.2615   19.6388 H   0  0  0  0  0  0
  -28.6915  -11.8562   21.2410 H   0  0  0  0  0  0
  -28.4420  -13.4114   21.9214 H   0  0  0  0  0  0
  -25.2753   -9.5698   22.4761 H   0  0  0  0  0  0
  -24.0013   -7.4625   22.7464 H   0  0  0  0  0  0
  -21.0826   -8.8760   19.8935 H   0  0  0  0  0  0
  -22.3667  -10.9685   19.6164 H   0  0  0  0  0  0
  -21.1971   -7.6144   23.9734 H   0  0  0  0  0  0
  -21.1506   -6.0511   25.9091 H   0  0  0  0  0  0
  -22.0582   -2.7612   23.2825 H   0  0  0  0  0  0
  -22.4022  -11.9923   22.4811 H   0  0  0  0  0  0
  -21.1095  -13.1339   22.2574 H   0  0  0  0  0  0
  -24.6766  -15.8492   20.5150 H   0  0  0  0  0  0
  -26.3010  -15.6179   20.1087 H   0  0  0  0  0  0
  -26.7144  -32.5533   23.1191 H   0  0  0  0  0  0
  -24.9975  -33.9786   25.0429 H   0  0  0  0  0  0
  -22.6967  -31.3173   21.4098 H   0  0  0  0  0  0
  -23.3719  -35.9673   23.3307 H   0  0  0  0  0  0
  -24.3565  -36.8941   22.2059 H   0  0  0  0  0  0
  -23.7232  -37.6536   23.6655 H   0  0  0  0  0  0
  -26.0561  -31.6005   20.5981 H   0  0  0  0  0  0
  -26.8230  -30.8832   21.9863 H   0  0  0  0  0  0
  -28.1072  -29.1033   21.1492 H   0  0  0  0  0  0
  -26.0077  -25.9742   19.0156 H   0  0  0  0  0  0
  -23.9697  -27.2981   19.0507 H   0  0  0  0  0  0
  -23.7343  -30.6149   19.4089 H   0  0  0  0  0  0
  -22.7370  -29.2648   19.8553 H   0  0  0  0  0  0
  -25.1264  -36.1979   25.0834 H   0  0  0  0  0  0
  -21.0012  -28.3262   24.1396 H   0  0  0  0  0  0
  -20.5641  -26.2312   23.3616 H   0  0  0  0  0  0
  -21.6640  -26.7432   22.1222 H   0  0  0  0  0  0
  -19.6906  -25.6285   21.1249 H   0  0  0  0  0  0
  -19.6682  -27.3179   20.6726 H   0  0  0  0  0  0
  -17.4199  -26.6687   21.4024 H   0  0  0  0  0  0
  -18.0333  -26.0057   22.9014 H   0  0  0  0  0  0
  -19.7945  -30.7238   24.2319 H   0  0  0  0  0  0
  -17.5034  -31.6281   24.5150 H   0  0  0  0  0  0
  -15.5363  -30.3032   23.7585 H   0  0  0  0  0  0
  -15.8675  -28.0827   22.7066 H   0  0  0  0  0  0
  -24.5846  -30.7163   25.7863 H   0  0  0  0  0  0
  -24.8963  -32.2962   26.4960 H   0  0  0  0  0  0
  -25.8051  -30.8939   27.0272 H   0  0  0  0  0  0
  -26.2860  -29.6853   24.1123 H   0  0  0  0  0  0
  -27.3927  -29.7250   25.4649 H   0  0  0  0  0  0
  -27.8741  -30.4347   23.9410 H   0  0  0  0  0  0
  -27.2612  -33.3631   26.2133 H   0  0  0  0  0  0
  -28.3817  -32.6961   25.0354 H   0  0  0  0  0  0
  -28.0709  -31.8475   26.5427 H   0  0  0  0  0  0
  -28.2591  -38.0110   24.7487 H   0  0  0  0  0  0
  -28.1058  -36.2645   24.6281 H   0  0  0  0  0  0
  -27.2309  -37.1473   25.8869 H   0  0  0  0  0  0
  -20.9283  -29.8811   21.6940 H   0  0  0  0  0  0
  -26.0163  -38.2878   24.1409 H   0  0  0  0  0  0
  -27.6202  -18.2661   21.2739 H   0  0  0  0  0  0
  -29.6685  -16.9278   21.9963 H   0  0  0  0  0  0
  -29.4185  -15.1580   22.2322 H   0  0  0  0  0  0
  -31.6908  -24.2882   19.5291 H   0  0  0  0  0  0
  -31.0689  -25.9320   19.5055 H   0  0  0  0  0  0
  -30.6069  -24.8000   18.2367 H   0  0  0  0  0  0
  -27.4920  -24.8622   20.3505 H   0  0  0  0  0  0
  -28.1144  -25.1876   18.7374 H   0  0  0  0  0  0
  -29.8287  -24.6155   21.2026 H   0  0  0  0  0  0
  -30.8065  -22.4283   21.2421 H   0  0  0  0  0  0
  1 25  1  0  0  0
  1 30  2  0  0  0
  1 75  1  0  0  0
  2  3  1  0  0  0
  2 25  1  0  0  0
  2 84  1  0  0  0
  2 85  1  0  0  0
  3  4  1  0  0  0
  3 86  1  0  0  0
  3 87  1  0  0  0
  4  5  1  0  0  0
  4 88  1  0  0  0
  4 89  1  0  0  0
  5  6  1  0  0  0
  5 26  1  0  0  0
  5 90  1  0  0  0
  6 25  1  0  0  0
  6 91  1  0  0  0
  6 92  1  0  0  0
  7  8  2  0  0  0
  7 26  1  0  0  0
  7 29  1  0  0  0
  8  9  1  0  0  0
  8 22  1  0  0  0
  9 10  1  0  0  0
  9 27  2  0  0  0
 10 11  2  0  0  0
 10 15  1  0  0  0
 11 12  1  0  0  0
 11 93  1  0  0  0
 12 13  2  0  0  0
 12 94  1  0  0  0
 13 14  1  0  0  0
 13 31  1  0  0  0
 14 15  2  0  0  0
 14 95  1  0  0  0
 15 96  1  0  0  0
 16 17  2  0  0  0
 16 21  1  0  0  0
 16 31  1  0  0  0
 17 18  1  0  0  0
 17 97  1  0  0  0
 18 19  2  0  0  0
 18 98  1  0  0  0
 19 20  1  0  0  0
 19 24  1  0  0  0
 20 21  2  0  0  0
 20 99  1  0  0  0
 21 23  1  0  0  0
 22 28  1  0  0  0
 22 32  2  0  0  0
 26 27  1  0  0  0
 28100  1  0  0  0
 28101  1  0  0  0
 29102  1  0  0  0
 29103  1  0  0  0
 33 34  1  0  0  0
 33 66  1  0  0  0
 33 70  2  0  0  0
 34 36  1  0  0  0
 34 59  1  0  0  0
 34104  1  0  0  0
 35 44  2  0  0  0
 35 45  1  0  0  0
 35 68  1  0  0  0
 36 56  1  0  0  0
 36105  1  0  0  0
 37 39  1  0  0  0
 37 47  1  0  0  0
 37 66  1  0  0  0
 37106  1  0  0  0
 38 43  2  0  0  0
 38 46  1  0  0  0
 38 47  1  0  0  0
 39 64  1  0  0  0
 39 67  2  0  0  0
 40 52  1  0  0  0
 40 53  2  0  0  0
 40 58  1  0  0  0
 41107  1  0  0  0
 41108  1  0  0  0
 41109  1  0  0  0
 41 48  1  0  0  0
 42 43  1  0  0  0
 42 66  1  0  0  0
 42110  1  0  0  0
 42111  1  0  0  0
 43 44  1  0  0  0
 44112  1  0  0  0
 45 46  2  0  0  0
 45113  1  0  0  0
 46114  1  0  0  0
 47115  1  0  0  0
 47116  1  0  0  0
 48 56  1  0  0  0
 48 65  1  0  0  0
 48117  1  0  0  0
 49 50  1  0  0  0
 49 53  1  0  0  0
 49 64  1  0  0  0
 49118  1  0  0  0
 50 51  1  0  0  0
 50119  1  0  0  0
 50120  1  0  0  0
 51 52  1  0  0  0
 51121  1  0  0  0
 51122  1  0  0  0
 52123  1  0  0  0
 52124  1  0  0  0
 53 54  1  0  0  0
 54 55  2  0  0  0
 54125  1  0  0  0
 55 57  1  0  0  0
 55126  1  0  0  0
 56 69  2  0  0  0
 57 58  2  0  0  0
 57127  1  0  0  0
 58128  1  0  0  0
 59 60  1  0  0  0
 59 61  1  0  0  0
 59 62  1  0  0  0
 60129  1  0  0  0
 60130  1  0  0  0
 60131  1  0  0  0
 61132  1  0  0  0
 61133  1  0  0  0
 61134  1  0  0  0
 62135  1  0  0  0
 62136  1  0  0  0
 62137  1  0  0  0
 63 65  1  0  0  0
 63138  1  0  0  0
 63139  1  0  0  0
 63140  1  0  0  0
 64141  1  0  0  0
 65142  1  0  0  0
 68 78  1  0  0  0
 71 72  2  0  0  0
 71 80  1  0  0  0
 71143  1  0  0  0
 72 74  1  0  0  0
 72 83  1  0  0  0
 73 80  2  0  0  0
 73 81  1  0  0  0
 73 83  1  0  0  0
 74 75  2  0  0  0
 74144  1  0  0  0
 75145  1  0  0  0
 76 79  1  0  0  0
 76 81  1  0  0  0
 76 82  2  0  0  0
 77146  1  0  0  0
 77147  1  0  0  0
 77148  1  0  0  0
 77 79  1  0  0  0
 78 79  1  0  0  0
 78149  1  0  0  0
 78150  1  0  0  0
 79151  1  0  0  0
 81152  1  0  0  0
M  ISO  4   1 100  68 101  75 100  78 101
M  END
> <chiral flag>
0

> <version>
0

> <s_m_source_file>
/data/baiqing/PycharmProjects/Reinvent-master-3.2/result/LINK_invent/BTK/process_docking_weight1_custom_product_contain_oxygen_bond_distance_aromatic_linkinvent_7_9_3/rearranged_h_0187.sdf

> <i_m_source_file_index>
29

> <r_mmod_Potential_Energy-OPLS-2005>
136.98664855957

> <r_mmod_Stretch_Energy-OPLS-2005>
39.325611114502

> <r_mmod_Bend_Energy-OPLS-2005>
297.825744628906

> <r_mmod_Torsional_Energy-OPLS-2005>
220.029113769531

> <r_mmod_Improper_Torsional_Energy-OPLS-2005>
6.84711742401123

> <r_mmod_Van_der_Waal_Energy-OPLS-2005>
150.430725097656

> <r_mmod_Electrostatic_Energy-OPLS-2005>
-351.272857666016

> <r_mmod_Solvation_Energy-OPLS-2005>
-237.533905029297

> <b_mmod_Minimization_Converged-OPLS-2005>
0

> <r_mmod_RMS_Derivative-OPLS-2005>
2.10139417648315

$$$$
30
                    3D
 Structure written by MMmdl.
164172  0  0  1  0            999 V2000
  -30.5983  -14.7368   20.4566 C   0  0  0  0  0  0
  -30.4309  -12.4467   19.4911 C   0  0  0  0  0  0
  -29.5222  -12.5403   18.2453 C   0  0  0  0  0  0
  -28.0427  -12.3627   18.6400 C   0  0  0  0  0  0
  -27.6424  -13.2418   19.8575 C   0  0  2  0  0  0
  -28.6810  -13.1541   20.9997 C   0  0  0  0  0  0
  -25.2448  -13.8216   20.5654 C   0  0  0  0  0  0
  -24.1783  -13.0426   20.9219 C   0  0  0  0  0  0
  -24.6417  -11.6909   20.8760 C   0  0  0  0  0  0
  -23.9127  -10.4280   21.0375 C   0  0  0  0  0  0
  -24.3664   -9.4193   21.9147 C   0  0  0  0  0  0
  -23.6319   -8.2252   22.0733 C   0  0  0  0  0  0
  -22.4296   -8.0294   21.3549 C   0  0  0  0  0  0
  -21.9960   -9.0259   20.4636 C   0  0  0  0  0  0
  -22.7303  -10.2117   20.3025 C   0  0  0  0  0  0
  -21.6875   -6.0752   22.5294 C   0  0  0  0  0  0
  -21.4009   -6.5654   23.8224 C   0  0  0  0  0  0
  -21.3663   -5.6797   24.9188 C   0  0  0  0  0  0
  -21.6047   -4.3068   24.7242 C   0  0  0  0  0  0
  -21.8814   -3.8167   23.4373 C   0  0  0  0  0  0
  -21.9186   -4.6981   22.3415 C   0  0  0  0  0  0
  -22.7801  -13.5179   21.1897 C   0  0  0  0  0  0
  -22.1648   -4.2185   21.0993 F   0  0  0  0  0  0
  -21.5648   -3.4526   25.7748 F   0  0  0  0  0  0
  -29.9950  -13.4980   20.4392 N   0  0  0  0  0  0
  -26.2914  -12.9455   20.3266 N   0  0  0  0  0  0
  -25.9355  -11.6591   20.5770 N   0  0  0  0  0  0
  -22.0468  -12.8133   22.0453 N   0  0  0  0  0  0
  -25.4026  -15.1942   20.3995 N   0  0  0  0  0  0
  -31.7588  -14.8577   20.0504 O   0  0  0  0  0  0
  -21.6659   -6.8891   21.4260 O   0  0  0  0  0  0
  -22.3462  -14.5475   20.6753 O   0  0  0  0  0  0
  -24.6323  -31.8564   23.2073 C   0  0  0  0  0  0
  -25.9162  -32.4760   23.8388 C   0  0  1  0  0  0
  -27.2010  -27.2620   20.1158 C   0  0  0  0  0  0
  -25.5964  -33.8565   24.2286 N   0  0  0  0  0  0
  -23.4239  -30.4846   21.5528 C   0  0  2  0  0  0
  -24.8653  -28.9367   20.1128 C   0  0  0  0  0  0
  -22.7472  -29.4611   22.4975 C   0  0  0  0  0  0
  -18.0264  -28.1410   22.8491 C   0  0  0  0  0  0
  -24.1476  -36.7245   23.2641 C   0  0  0  0  0  0
  -25.9729  -30.7664   21.3890 C   0  0  0  0  0  0
  -26.0415  -29.3936   20.7211 C   0  0  0  0  0  0
  -27.2138  -28.5699   20.7127 C   0  0  0  0  0  0
  -25.9994  -26.8801   19.4767 C   0  0  0  0  0  0
  -24.8480  -27.6867   19.4832 C   0  0  0  0  0  0
  -23.6390  -29.8272   20.1656 C   0  0  0  0  0  0
  -25.4117  -36.3059   24.0316 C   0  0  1  0  0  0
  -20.5864  -28.3693   23.1297 C   0  0  2  0  0  0
  -20.6766  -26.9415   22.5421 C   0  0  0  0  0  0
  -19.5738  -26.6392   21.5232 C   0  0  0  0  0  0
  -18.1910  -26.7958   22.1614 C   0  0  0  0  0  0
  -19.1523  -28.8869   23.2882 C   0  0  0  0  0  0
  -18.9445  -30.1483   23.8880 C   0  0  0  0  0  0
  -17.6448  -30.6608   24.0572 C   0  0  0  0  0  0
  -25.9058  -34.9442   23.5098 C   0  0  0  0  0  0
  -16.5343  -29.9100   23.6361 C   0  0  0  0  0  0
  -16.7258  -28.6530   23.0372 C   0  0  0  0  0  0
  -26.4528  -31.6606   25.0784 C   0  0  0  0  0  0
  -25.3730  -31.3745   26.1480 C   0  0  0  0  0  0
  -27.0417  -30.3029   24.6317 C   0  0  0  0  0  0
  -27.6082  -32.4359   25.7538 C   0  0  0  0  0  0
  -27.5576  -37.1764   24.8459 C   0  0  0  0  0  0
  -21.4187  -29.3047   22.3695 N   0  0  0  0  0  0
  -26.4279  -37.3768   23.9420 N   0  0  0  0  0  0
  -24.6953  -31.0516   22.1062 N   0  0  0  0  0  0
  -23.4191  -28.8134   23.3045 O   0  0  0  0  0  0
  -28.2819  -26.3494   20.1628 O   0  0  0  0  0  0
  -26.5603  -34.8906   22.4649 O   0  0  0  0  0  0
  -23.5479  -32.1393   23.7372 O   0  0  0  0  0  0
  -29.5594  -19.4969   19.7654 C   0  0  0  0  0  0
  -29.1572  -18.9808   18.5413 C   0  0  0  0  0  0
  -29.7268  -17.1346   20.1413 C   0  0  0  0  0  0
  -32.8987  -20.9557   19.1998 C   0  0  0  0  0  0
  -33.4991  -20.8236   21.6377 C   0  0  0  0  0  0
  -31.0733  -21.2254   20.9976 C   0  0  0  0  0  0
  -28.7084  -22.1587   20.2636 C   0  0  0  0  0  0
  -27.9627  -24.8790   20.0906 C   0  0  0  0  0  0
  -29.8663  -21.0424   20.0345 C   0  0  2  0  0  0
  -32.4042  -20.5363   20.5957 C   0  0  0  0  0  0
  -29.0829  -23.7490   20.3476 C   0  0  1  0  0  0
  -29.7762  -18.3975   20.6906 N   0  0  0  0  0  0
  -28.7826  -19.6635   17.3870 N   0  0  0  0  0  0
  -29.8618  -15.8420   20.8409 N   0  0  0  0  0  0
  -29.5044  -23.9965   21.6770 O   0  0  0  0  0  0
  -29.2188  -17.2217   18.4605 S   0  0  0  0  0  0
  -31.4789  -12.5553   19.2070 H   0  0  0  0  0  0
  -30.3536  -11.4638   19.9585 H   0  0  0  0  0  0
  -29.8123  -11.7915   17.5086 H   0  0  0  0  0  0
  -29.6622  -13.5108   17.7646 H   0  0  0  0  0  0
  -27.8891  -11.3090   18.8707 H   0  0  0  0  0  0
  -27.3986  -12.5785   17.7881 H   0  0  0  0  0  0
  -27.6361  -14.2717   19.4994 H   0  0  0  0  0  0
  -28.7038  -12.1512   21.4275 H   0  0  0  0  0  0
  -28.4087  -13.8231   21.8171 H   0  0  0  0  0  0
  -25.2800   -9.5684   22.4729 H   0  0  0  0  0  0
  -24.0044   -7.4651   22.7439 H   0  0  0  0  0  0
  -21.0918   -8.8762   19.8927 H   0  0  0  0  0  0
  -22.3763  -10.9647   19.6130 H   0  0  0  0  0  0
  -21.1978   -7.6146   23.9762 H   0  0  0  0  0  0
  -21.1492   -6.0509   25.9091 H   0  0  0  0  0  0
  -22.0589   -2.7641   23.2864 H   0  0  0  0  0  0
  -22.4097  -11.9800   22.4848 H   0  0  0  0  0  0
  -21.1064  -13.1104   22.2624 H   0  0  0  0  0  0
  -24.6085  -15.8228   20.4571 H   0  0  0  0  0  0
  -26.2354  -15.6465   20.0460 H   0  0  0  0  0  0
  -26.7206  -32.5380   23.1108 H   0  0  0  0  0  0
  -25.0216  -33.9732   25.0505 H   0  0  0  0  0  0
  -22.7203  -31.3071   21.4140 H   0  0  0  0  0  0
  -23.3781  -35.9521   23.3269 H   0  0  0  0  0  0
  -24.3585  -36.8923   22.2064 H   0  0  0  0  0  0
  -23.7168  -37.6401   23.6712 H   0  0  0  0  0  0
  -26.1192  -31.5363   20.6324 H   0  0  0  0  0  0
  -26.8474  -30.8056   22.0268 H   0  0  0  0  0  0
  -28.1124  -28.9093   21.2074 H   0  0  0  0  0  0
  -25.9046  -25.9335   18.9698 H   0  0  0  0  0  0
  -23.9450  -27.3317   19.0067 H   0  0  0  0  0  0
  -23.7618  -30.6094   19.4153 H   0  0  0  0  0  0
  -22.7550  -29.2648   19.8611 H   0  0  0  0  0  0
  -25.1301  -36.1898   25.0799 H   0  0  0  0  0  0
  -20.9940  -28.3266   24.1430 H   0  0  0  0  0  0
  -20.5721  -26.2285   23.3606 H   0  0  0  0  0  0
  -21.6639  -26.7490   22.1184 H   0  0  0  0  0  0
  -19.6913  -25.6300   21.1275 H   0  0  0  0  0  0
  -19.6726  -27.3188   20.6750 H   0  0  0  0  0  0
  -17.4207  -26.6746   21.3992 H   0  0  0  0  0  0
  -18.0281  -26.0088   22.8987 H   0  0  0  0  0  0
  -19.7913  -30.7312   24.2243 H   0  0  0  0  0  0
  -17.4997  -31.6301   24.5143 H   0  0  0  0  0  0
  -15.5347  -30.3002   23.7706 H   0  0  0  0  0  0
  -15.8650  -28.0850   22.7115 H   0  0  0  0  0  0
  -24.5980  -30.7010   25.7810 H   0  0  0  0  0  0
  -24.8827  -32.2892   26.4814 H   0  0  0  0  0  0
  -25.8039  -30.9015   27.0311 H   0  0  0  0  0  0
  -26.3047  -29.6731   24.1323 H   0  0  0  0  0  0
  -27.4073  -29.7347   25.4884 H   0  0  0  0  0  0
  -27.8922  -30.4321   23.9621 H   0  0  0  0  0  0
  -27.2731  -33.3692   26.2055 H   0  0  0  0  0  0
  -28.3921  -32.6848   25.0384 H   0  0  0  0  0  0
  -28.0710  -31.8515   26.5498 H   0  0  0  0  0  0
  -28.2546  -38.0105   24.7594 H   0  0  0  0  0  0
  -28.1120  -36.2651   24.6189 H   0  0  0  0  0  0
  -27.2295  -37.1273   25.8852 H   0  0  0  0  0  0
  -20.9367  -29.8744   21.6885 H   0  0  0  0  0  0
  -26.0149  -38.2812   24.1515 H   0  0  0  0  0  0
  -33.8838  -20.5410   18.9857 H   0  0  0  0  0  0
  -32.9733  -22.0400   19.1123 H   0  0  0  0  0  0
  -32.2338  -20.6010   18.4106 H   0  0  0  0  0  0
  -34.4130  -20.2698   21.4168 H   0  0  0  0  0  0
  -33.1834  -20.5374   22.6412 H   0  0  0  0  0  0
  -33.7593  -21.8835   21.6630 H   0  0  0  0  0  0
  -30.7749  -20.8732   21.9855 H   0  0  0  0  0  0
  -31.2882  -22.2858   21.1132 H   0  0  0  0  0  0
  -28.1155  -21.8802   21.1367 H   0  0  0  0  0  0
  -28.0249  -22.0567   19.4186 H   0  0  0  0  0  0
  -27.1314  -24.6767   20.7693 H   0  0  0  0  0  0
  -27.5903  -24.6821   19.0848 H   0  0  0  0  0  0
  -30.2528  -21.3990   19.0787 H   0  0  0  0  0  0
  -32.2536  -19.4586   20.5863 H   0  0  0  0  0  0
  -29.9040  -23.9503   19.6591 H   0  0  0  0  0  0
  -28.7514  -20.6727   17.2926 H   0  0  0  0  0  0
  -28.4462  -19.1901   16.5528 H   0  0  0  0  0  0
  -29.0484  -15.6038   21.3847 H   0  0  0  0  0  0
  -29.6127  -24.9405   21.7595 H   0  0  0  0  0  0
  1 25  1  0  0  0
  1 30  2  0  0  0
  1 84  1  0  0  0
  2  3  1  0  0  0
  2 25  1  0  0  0
  2 87  1  0  0  0
  2 88  1  0  0  0
  3  4  1  0  0  0
  3 89  1  0  0  0
  3 90  1  0  0  0
  4  5  1  0  0  0
  4 91  1  0  0  0
  4 92  1  0  0  0
  5  6  1  0  0  0
  5 26  1  0  0  0
  5 93  1  0  0  0
  6 25  1  0  0  0
  6 94  1  0  0  0
  6 95  1  0  0  0
  7  8  2  0  0  0
  7 26  1  0  0  0
  7 29  1  0  0  0
  8  9  1  0  0  0
  8 22  1  0  0  0
  9 10  1  0  0  0
  9 27  2  0  0  0
 10 11  2  0  0  0
 10 15  1  0  0  0
 11 12  1  0  0  0
 11 96  1  0  0  0
 12 13  2  0  0  0
 12 97  1  0  0  0
 13 14  1  0  0  0
 13 31  1  0  0  0
 14 15  2  0  0  0
 14 98  1  0  0  0
 15 99  1  0  0  0
 16 17  2  0  0  0
 16 21  1  0  0  0
 16 31  1  0  0  0
 17 18  1  0  0  0
 17100  1  0  0  0
 18 19  2  0  0  0
 18101  1  0  0  0
 19 20  1  0  0  0
 19 24  1  0  0  0
 20 21  2  0  0  0
 20102  1  0  0  0
 21 23  1  0  0  0
 22 28  1  0  0  0
 22 32  2  0  0  0
 26 27  1  0  0  0
 28103  1  0  0  0
 28104  1  0  0  0
 29105  1  0  0  0
 29106  1  0  0  0
 33 34  1  0  0  0
 33 66  1  0  0  0
 33 70  2  0  0  0
 34 36  1  0  0  0
 34 59  1  0  0  0
 34107  1  0  0  0
 35 44  2  0  0  0
 35 45  1  0  0  0
 35 68  1  0  0  0
 36 56  1  0  0  0
 36108  1  0  0  0
 37 39  1  0  0  0
 37 47  1  0  0  0
 37 66  1  0  0  0
 37109  1  0  0  0
 38 43  2  0  0  0
 38 46  1  0  0  0
 38 47  1  0  0  0
 39 64  1  0  0  0
 39 67  2  0  0  0
 40 52  1  0  0  0
 40 53  2  0  0  0
 40 58  1  0  0  0
 41110  1  0  0  0
 41111  1  0  0  0
 41112  1  0  0  0
 41 48  1  0  0  0
 42 43  1  0  0  0
 42 66  1  0  0  0
 42113  1  0  0  0
 42114  1  0  0  0
 43 44  1  0  0  0
 44115  1  0  0  0
 45 46  2  0  0  0
 45116  1  0  0  0
 46117  1  0  0  0
 47118  1  0  0  0
 47119  1  0  0  0
 48 56  1  0  0  0
 48 65  1  0  0  0
 48120  1  0  0  0
 49 50  1  0  0  0
 49 53  1  0  0  0
 49 64  1  0  0  0
 49121  1  0  0  0
 50 51  1  0  0  0
 50122  1  0  0  0
 50123  1  0  0  0
 51 52  1  0  0  0
 51124  1  0  0  0
 51125  1  0  0  0
 52126  1  0  0  0
 52127  1  0  0  0
 53 54  1  0  0  0
 54 55  2  0  0  0
 54128  1  0  0  0
 55 57  1  0  0  0
 55129  1  0  0  0
 56 69  2  0  0  0
 57 58  2  0  0  0
 57130  1  0  0  0
 58131  1  0  0  0
 59 60  1  0  0  0
 59 61  1  0  0  0
 59 62  1  0  0  0
 60132  1  0  0  0
 60133  1  0  0  0
 60134  1  0  0  0
 61135  1  0  0  0
 61136  1  0  0  0
 61137  1  0  0  0
 62138  1  0  0  0
 62139  1  0  0  0
 62140  1  0  0  0
 63 65  1  0  0  0
 63141  1  0  0  0
 63142  1  0  0  0
 63143  1  0  0  0
 64144  1  0  0  0
 65145  1  0  0  0
 68 78  1  0  0  0
 71 72  2  0  0  0
 71 79  1  0  0  0
 71 82  1  0  0  0
 72 83  1  0  0  0
 72 86  1  0  0  0
 73 82  2  0  0  0
 73 84  1  0  0  0
 73 86  1  0  0  0
 74146  1  0  0  0
 74147  1  0  0  0
 74148  1  0  0  0
 74 80  1  0  0  0
 75 80  1  0  0  0
 75149  1  0  0  0
 75150  1  0  0  0
 75151  1  0  0  0
 76 80  1  0  0  0
 76152  1  0  0  0
 76153  1  0  0  0
 76 79  1  0  0  0
 77 79  1  0  0  0
 77 81  1  0  0  0
 77154  1  0  0  0
 77155  1  0  0  0
 78 81  1  0  0  0
 78156  1  0  0  0
 78157  1  0  0  0
 79158  1  0  0  0
 80159  1  0  0  0
 81 85  1  0  0  0
 81160  1  0  0  0
 83161  1  0  0  0
 83162  1  0  0  0
 84163  1  0  0  0
 85164  1  0  0  0
M  ISO  4   1 100  68 101  78 101  84 100
M  END
> <chiral flag>
0

> <version>
0

> <s_m_source_file>
/data/baiqing/PycharmProjects/Reinvent-master-3.2/result/LINK_invent/BTK/process_docking_weight1_custom_product_contain_oxygen_bond_distance_aromatic_linkinvent_7_9_3/rearranged_h_0187.sdf

> <i_m_source_file_index>
30

> <r_mmod_Potential_Energy-OPLS-2005>
183.324264526367

> <r_mmod_Stretch_Energy-OPLS-2005>
124.810012817383

> <r_mmod_Bend_Energy-OPLS-2005>
180.161178588867

> <r_mmod_Torsional_Energy-OPLS-2005>
267.309631347656

> <r_mmod_Improper_Torsional_Energy-OPLS-2005>
6.15650033950806

> <r_mmod_Van_der_Waal_Energy-OPLS-2005>
113.452133178711

> <r_mmod_Electrostatic_Energy-OPLS-2005>
-358.786254882812

> <r_mmod_Solvation_Energy-OPLS-2005>
-234.382247924805

> <b_mmod_Minimization_Converged-OPLS-2005>
0

> <r_mmod_RMS_Derivative-OPLS-2005>
3.98372888565063

$$$$
31
                    3D
 Structure written by MMmdl.
155163  0  0  1  0            999 V2000
  -30.5848  -14.7847   20.5034 C   0  0  0  0  0  0
  -30.4454  -12.4878   19.4895 C   0  0  0  0  0  0
  -29.5259  -12.5347   18.2468 C   0  0  0  0  0  0
  -28.0510  -12.3513   18.6482 C   0  0  0  0  0  0
  -27.6471  -13.2379   19.8575 C   0  0  2  0  0  0
  -28.6860  -13.1514   20.9983 C   0  0  0  0  0  0
  -25.2465  -13.8152   20.5640 C   0  0  0  0  0  0
  -24.1800  -13.0386   20.9188 C   0  0  0  0  0  0
  -24.6426  -11.6898   20.8730 C   0  0  0  0  0  0
  -23.9112  -10.4277   21.0380 C   0  0  0  0  0  0
  -24.3659   -9.4175   21.9138 C   0  0  0  0  0  0
  -23.6320   -8.2233   22.0725 C   0  0  0  0  0  0
  -22.4285   -8.0291   21.3542 C   0  0  0  0  0  0
  -21.9942   -9.0244   20.4612 C   0  0  0  0  0  0
  -22.7297  -10.2115   20.3007 C   0  0  0  0  0  0
  -21.6859   -6.0768   22.5292 C   0  0  0  0  0  0
  -21.4009   -6.5655   23.8228 C   0  0  0  0  0  0
  -21.3649   -5.6783   24.9179 C   0  0  0  0  0  0
  -21.6038   -4.3058   24.7218 C   0  0  0  0  0  0
  -21.8822   -3.8168   23.4331 C   0  0  0  0  0  0
  -21.9187   -4.6989   22.3399 C   0  0  0  0  0  0
  -22.7807  -13.5145   21.1855 C   0  0  0  0  0  0
  -22.1650   -4.2183   21.0974 F   0  0  0  0  0  0
  -21.5623   -3.4529   25.7725 F   0  0  0  0  0  0
  -29.9960  -13.5321   20.4455 N   0  0  0  0  0  0
  -26.2940  -12.9404   20.3255 N   0  0  0  0  0  0
  -25.9350  -11.6541   20.5727 N   0  0  0  0  0  0
  -22.0489  -12.8123   22.0443 N   0  0  0  0  0  0
  -25.3973  -15.1869   20.4007 N   0  0  0  0  0  0
  -31.7221  -14.9370   20.0439 O   0  0  0  0  0  0
  -21.6625   -6.8909   21.4270 O   0  0  0  0  0  0
  -22.3454  -14.5443   20.6713 O   0  0  0  0  0  0
  -24.6321  -31.8552   23.1972 C   0  0  0  0  0  0
  -25.9146  -32.4762   23.8319 C   0  0  1  0  0  0
  -27.2151  -27.2366   20.1589 C   0  0  0  0  0  0
  -25.5943  -33.8571   24.2247 N   0  0  0  0  0  0
  -23.4307  -30.4777   21.5382 C   0  0  2  0  0  0
  -24.8817  -28.9243   20.1107 C   0  0  0  0  0  0
  -22.7517  -29.4608   22.4892 C   0  0  0  0  0  0
  -18.0294  -28.1378   22.8491 C   0  0  0  0  0  0
  -24.1486  -36.7263   23.2648 C   0  0  0  0  0  0
  -25.9771  -30.7665   21.3791 C   0  0  0  0  0  0
  -26.0535  -29.3855   20.7243 C   0  0  0  0  0  0
  -27.2251  -28.5568   20.7344 C   0  0  0  0  0  0
  -26.0288  -26.8647   19.4888 C   0  0  0  0  0  0
  -24.8789  -27.6744   19.4757 C   0  0  0  0  0  0
  -23.6505  -29.8087   20.1571 C   0  0  0  0  0  0
  -25.4115  -36.3080   24.0335 C   0  0  1  0  0  0
  -20.5899  -28.3685   23.1255 C   0  0  2  0  0  0
  -20.6785  -26.9397   22.5407 C   0  0  0  0  0  0
  -19.5758  -26.6366   21.5216 C   0  0  0  0  0  0
  -18.1926  -26.7928   22.1622 C   0  0  0  0  0  0
  -19.1546  -28.8852   23.2869 C   0  0  0  0  0  0
  -18.9486  -30.1464   23.8866 C   0  0  0  0  0  0
  -17.6499  -30.6592   24.0562 C   0  0  0  0  0  0
  -25.9062  -34.9444   23.5090 C   0  0  0  0  0  0
  -16.5376  -29.9088   23.6340 C   0  0  0  0  0  0
  -16.7279  -28.6501   23.0365 C   0  0  0  0  0  0
  -26.4483  -31.6614   25.0731 C   0  0  0  0  0  0
  -25.3669  -31.3798   26.1432 C   0  0  0  0  0  0
  -27.0364  -30.3043   24.6252 C   0  0  0  0  0  0
  -27.6037  -32.4344   25.7496 C   0  0  0  0  0  0
  -27.5567  -37.1799   24.8465 C   0  0  0  0  0  0
  -21.4217  -29.3046   22.3642 N   0  0  0  0  0  0
  -26.4284  -37.3790   23.9413 N   0  0  0  0  0  0
  -24.6991  -31.0494   22.0956 N   0  0  0  0  0  0
  -23.4207  -28.8138   23.3002 O   0  0  0  0  0  0
  -28.2766  -26.2938   20.2434 O   0  0  0  0  0  0
  -26.5619  -34.8924   22.4660 O   0  0  0  0  0  0
  -23.5460  -32.1367   23.7250 O   0  0  0  0  0  0
  -29.2736  -19.6184   20.5110 C   0  0  0  0  0  0
  -27.9905  -19.2210   20.1786 C   0  0  0  0  0  0
  -29.4669  -17.1967   20.5951 C   0  0  0  0  0  0
  -29.0769  -23.7103   20.4036 C   0  0  0  0  0  0
  -30.7170  -21.2628   21.8204 C   0  0  0  0  0  0
  -27.5074  -24.8633   22.0965 C   0  0  0  0  0  0
  -29.8039  -21.1329   20.5892 C   0  0  2  0  0  0
  -27.9467  -24.8512   20.6165 C   0  0  1  0  0  0
  -30.0898  -18.4207   20.7444 N   0  0  0  0  0  0
  -26.8850  -20.0074   19.8650 N   0  0  0  0  0  0
  -29.8637  -15.8337   21.0624 N   0  0  0  0  0  0
  -28.8372  -22.3424   20.5892 N   0  0  0  0  0  0
  -30.2024  -24.0890   20.0726 O   0  0  0  0  0  0
  -27.7891  -17.4731   20.1346 S   0  0  0  0  0  0
  -31.4837  -12.6280   19.1875 H   0  0  0  0  0  0
  -30.4035  -11.4988   19.9519 H   0  0  0  0  0  0
  -29.8201  -11.7652   17.5313 H   0  0  0  0  0  0
  -29.6538  -13.4878   17.7336 H   0  0  0  0  0  0
  -27.9111  -11.3007   18.9013 H   0  0  0  0  0  0
  -27.3976  -12.5449   17.7969 H   0  0  0  0  0  0
  -27.6452  -14.2671   19.4959 H   0  0  0  0  0  0
  -28.7221  -12.1384   21.4037 H   0  0  0  0  0  0
  -28.3978  -13.7950   21.8288 H   0  0  0  0  0  0
  -25.2819   -9.5642   22.4685 H   0  0  0  0  0  0
  -24.0018   -7.4630   22.7442 H   0  0  0  0  0  0
  -21.0870   -8.8774   19.8918 H   0  0  0  0  0  0
  -22.3765  -10.9641   19.6097 H   0  0  0  0  0  0
  -21.2006   -7.6163   23.9752 H   0  0  0  0  0  0
  -21.1458   -6.0505   25.9083 H   0  0  0  0  0  0
  -22.0610   -2.7631   23.2814 H   0  0  0  0  0  0
  -22.4126  -11.9792   22.4847 H   0  0  0  0  0  0
  -21.1073  -13.1075   22.2624 H   0  0  0  0  0  0
  -24.6149  -15.8250   20.5026 H   0  0  0  0  0  0
  -26.2268  -15.6406   20.0421 H   0  0  0  0  0  0
  -26.7216  -32.5394   23.1057 H   0  0  0  0  0  0
  -25.0159  -33.9693   25.0436 H   0  0  0  0  0  0
  -22.7290  -31.3008   21.3897 H   0  0  0  0  0  0
  -23.3769  -35.9576   23.3331 H   0  0  0  0  0  0
  -24.3564  -36.8851   22.2058 H   0  0  0  0  0  0
  -23.7208  -37.6463   23.6639 H   0  0  0  0  0  0
  -26.1118  -31.5282   20.6096 H   0  0  0  0  0  0
  -26.8559  -30.8187   22.0104 H   0  0  0  0  0  0
  -28.1140  -28.9052   21.2412 H   0  0  0  0  0  0
  -25.9626  -25.9178   18.9762 H   0  0  0  0  0  0
  -23.9863  -27.3215   18.9755 H   0  0  0  0  0  0
  -23.7681  -30.5804   19.3969 H   0  0  0  0  0  0
  -22.7735  -29.2363   19.8543 H   0  0  0  0  0  0
  -25.1300  -36.1927   25.0827 H   0  0  0  0  0  0
  -20.9987  -28.3255   24.1383 H   0  0  0  0  0  0
  -20.5678  -26.2293   23.3615 H   0  0  0  0  0  0
  -21.6646  -26.7416   22.1206 H   0  0  0  0  0  0
  -19.6922  -25.6273   21.1250 H   0  0  0  0  0  0
  -19.6695  -27.3172   20.6745 H   0  0  0  0  0  0
  -17.4211  -26.6689   21.4016 H   0  0  0  0  0  0
  -18.0314  -26.0052   22.9001 H   0  0  0  0  0  0
  -19.7971  -30.7289   24.2185 H   0  0  0  0  0  0
  -17.5056  -31.6254   24.5193 H   0  0  0  0  0  0
  -15.5379  -30.3002   23.7678 H   0  0  0  0  0  0
  -15.8674  -28.0822   22.7100 H   0  0  0  0  0  0
  -24.5841  -30.7158   25.7731 H   0  0  0  0  0  0
  -24.8869  -32.3005   26.4781 H   0  0  0  0  0  0
  -25.7947  -30.9005   27.0254 H   0  0  0  0  0  0
  -26.3008  -29.6776   24.1212 H   0  0  0  0  0  0
  -27.4003  -29.7301   25.4782 H   0  0  0  0  0  0
  -27.8864  -30.4339   23.9549 H   0  0  0  0  0  0
  -27.2669  -33.3653   26.2064 H   0  0  0  0  0  0
  -28.3858  -32.6906   25.0332 H   0  0  0  0  0  0
  -28.0708  -31.8488   26.5425 H   0  0  0  0  0  0
  -28.2602  -38.0084   24.7524 H   0  0  0  0  0  0
  -28.1049  -36.2624   24.6287 H   0  0  0  0  0  0
  -27.2278  -37.1429   25.8865 H   0  0  0  0  0  0
  -20.9388  -29.8773   21.6853 H   0  0  0  0  0  0
  -26.0161  -38.2850   24.1469 H   0  0  0  0  0  0
  -31.5502  -20.5618   21.7574 H   0  0  0  0  0  0
  -30.1697  -21.0465   22.7372 H   0  0  0  0  0  0
  -31.1527  -22.2563   21.9101 H   0  0  0  0  0  0
  -27.2821  -23.8612   22.4655 H   0  0  0  0  0  0
  -26.6108  -25.4640   22.2487 H   0  0  0  0  0  0
  -28.2889  -25.2774   22.7341 H   0  0  0  0  0  0
  -30.4375  -21.2870   19.7139 H   0  0  0  0  0  0
  -27.1035  -24.5021   20.0244 H   0  0  0  0  0  0
  -27.0290  -20.8364   19.2973 H   0  0  0  0  0  0
  -26.0258  -19.5401   19.5918 H   0  0  0  0  0  0
  -29.1124  -15.4245   21.5950 H   0  0  0  0  0  0
  -27.8838  -22.0912   20.8149 H   0  0  0  0  0  0
  1 25  1  0  0  0
  1 30  2  0  0  0
  1 81  1  0  0  0
  2  3  1  0  0  0
  2 25  1  0  0  0
  2 85  1  0  0  0
  2 86  1  0  0  0
  3  4  1  0  0  0
  3 87  1  0  0  0
  3 88  1  0  0  0
  4  5  1  0  0  0
  4 89  1  0  0  0
  4 90  1  0  0  0
  5  6  1  0  0  0
  5 26  1  0  0  0
  5 91  1  0  0  0
  6 25  1  0  0  0
  6 92  1  0  0  0
  6 93  1  0  0  0
  7  8  2  0  0  0
  7 26  1  0  0  0
  7 29  1  0  0  0
  8  9  1  0  0  0
  8 22  1  0  0  0
  9 10  1  0  0  0
  9 27  2  0  0  0
 10 11  2  0  0  0
 10 15  1  0  0  0
 11 12  1  0  0  0
 11 94  1  0  0  0
 12 13  2  0  0  0
 12 95  1  0  0  0
 13 14  1  0  0  0
 13 31  1  0  0  0
 14 15  2  0  0  0
 14 96  1  0  0  0
 15 97  1  0  0  0
 16 17  2  0  0  0
 16 21  1  0  0  0
 16 31  1  0  0  0
 17 18  1  0  0  0
 17 98  1  0  0  0
 18 19  2  0  0  0
 18 99  1  0  0  0
 19 20  1  0  0  0
 19 24  1  0  0  0
 20 21  2  0  0  0
 20100  1  0  0  0
 21 23  1  0  0  0
 22 28  1  0  0  0
 22 32  2  0  0  0
 26 27  1  0  0  0
 28101  1  0  0  0
 28102  1  0  0  0
 29103  1  0  0  0
 29104  1  0  0  0
 33 34  1  0  0  0
 33 66  1  0  0  0
 33 70  2  0  0  0
 34 36  1  0  0  0
 34 59  1  0  0  0
 34105  1  0  0  0
 35 44  2  0  0  0
 35 45  1  0  0  0
 35 68  1  0  0  0
 36 56  1  0  0  0
 36106  1  0  0  0
 37 39  1  0  0  0
 37 47  1  0  0  0
 37 66  1  0  0  0
 37107  1  0  0  0
 38 43  2  0  0  0
 38 46  1  0  0  0
 38 47  1  0  0  0
 39 64  1  0  0  0
 39 67  2  0  0  0
 40 52  1  0  0  0
 40 53  2  0  0  0
 40 58  1  0  0  0
 41108  1  0  0  0
 41109  1  0  0  0
 41110  1  0  0  0
 41 48  1  0  0  0
 42 43  1  0  0  0
 42 66  1  0  0  0
 42111  1  0  0  0
 42112  1  0  0  0
 43 44  1  0  0  0
 44113  1  0  0  0
 45 46  2  0  0  0
 45114  1  0  0  0
 46115  1  0  0  0
 47116  1  0  0  0
 47117  1  0  0  0
 48 56  1  0  0  0
 48 65  1  0  0  0
 48118  1  0  0  0
 49 50  1  0  0  0
 49 53  1  0  0  0
 49 64  1  0  0  0
 49119  1  0  0  0
 50 51  1  0  0  0
 50120  1  0  0  0
 50121  1  0  0  0
 51 52  1  0  0  0
 51122  1  0  0  0
 51123  1  0  0  0
 52124  1  0  0  0
 52125  1  0  0  0
 53 54  1  0  0  0
 54 55  2  0  0  0
 54126  1  0  0  0
 55 57  1  0  0  0
 55127  1  0  0  0
 56 69  2  0  0  0
 57 58  2  0  0  0
 57128  1  0  0  0
 58129  1  0  0  0
 59 60  1  0  0  0
 59 61  1  0  0  0
 59 62  1  0  0  0
 60130  1  0  0  0
 60131  1  0  0  0
 60132  1  0  0  0
 61133  1  0  0  0
 61134  1  0  0  0
 61135  1  0  0  0
 62136  1  0  0  0
 62137  1  0  0  0
 62138  1  0  0  0
 63 65  1  0  0  0
 63139  1  0  0  0
 63140  1  0  0  0
 63141  1  0  0  0
 64142  1  0  0  0
 65143  1  0  0  0
 68 78  1  0  0  0
 71 72  2  0  0  0
 71 77  1  0  0  0
 71 79  1  0  0  0
 72 80  1  0  0  0
 72 84  1  0  0  0
 73 79  2  0  0  0
 73 81  1  0  0  0
 73 84  1  0  0  0
 74 78  1  0  0  0
 74 82  1  0  0  0
 74 83  2  0  0  0
 75144  1  0  0  0
 75145  1  0  0  0
 75146  1  0  0  0
 75 77  1  0  0  0
 76147  1  0  0  0
 76148  1  0  0  0
 76149  1  0  0  0
 76 78  1  0  0  0
 77 82  1  0  0  0
 77150  1  0  0  0
 78151  1  0  0  0
 80152  1  0  0  0
 80153  1  0  0  0
 81154  1  0  0  0
 82155  1  0  0  0
M  ISO  4   1 100  68 101  78 101  81 100
M  END
> <chiral flag>
0

> <version>
0

> <s_m_source_file>
/data/baiqing/PycharmProjects/Reinvent-master-3.2/result/LINK_invent/BTK/process_docking_weight1_custom_product_contain_oxygen_bond_distance_aromatic_linkinvent_7_9_3/rearranged_h_0187.sdf

> <i_m_source_file_index>
31

> <r_mmod_Potential_Energy-OPLS-2005>
175.032089233398

> <r_mmod_Stretch_Energy-OPLS-2005>
150.597076416016

> <r_mmod_Bend_Energy-OPLS-2005>
190.310089111328

> <r_mmod_Torsional_Energy-OPLS-2005>
253.537460327148

> <r_mmod_Improper_Torsional_Energy-OPLS-2005>
11.3113231658936

> <r_mmod_Van_der_Waal_Energy-OPLS-2005>
110.304656982422

> <r_mmod_Electrostatic_Energy-OPLS-2005>
-389.727600097656

> <r_mmod_Solvation_Energy-OPLS-2005>
-256.578491210938

> <b_mmod_Minimization_Converged-OPLS-2005>
0

> <r_mmod_RMS_Derivative-OPLS-2005>
3.724196434021

$$$$
32
                    3D
 Structure written by MMmdl.
159167  0  0  1  0            999 V2000
  -30.5718  -14.7589   20.5081 C   0  0  0  0  0  0
  -30.4647  -12.4868   19.4762 C   0  0  0  0  0  0
  -29.5407  -12.5341   18.2381 C   0  0  0  0  0  0
  -28.0600  -12.3471   18.6326 C   0  0  0  0  0  0
  -27.6502  -13.2276   19.8449 C   0  0  2  0  0  0
  -28.6863  -13.1362   20.9875 C   0  0  0  0  0  0
  -25.2552  -13.8187   20.5604 C   0  0  0  0  0  0
  -24.1849  -13.0474   20.9179 C   0  0  0  0  0  0
  -24.6378  -11.6913   20.8710 C   0  0  0  0  0  0
  -23.9028  -10.4321   21.0372 C   0  0  0  0  0  0
  -24.3565   -9.4275   21.9177 C   0  0  0  0  0  0
  -23.6288   -8.2296   22.0781 C   0  0  0  0  0  0
  -22.4276   -8.0303   21.3568 C   0  0  0  0  0  0
  -21.9889   -9.0267   20.4666 C   0  0  0  0  0  0
  -22.7196  -10.2171   20.3050 C   0  0  0  0  0  0
  -21.6872   -6.0731   22.5281 C   0  0  0  0  0  0
  -21.4010   -6.5644   23.8203 C   0  0  0  0  0  0
  -21.3629   -5.6787   24.9169 C   0  0  0  0  0  0
  -21.6038   -4.3061   24.7223 C   0  0  0  0  0  0
  -21.8806   -3.8154   23.4337 C   0  0  0  0  0  0
  -21.9200   -4.6952   22.3398 C   0  0  0  0  0  0
  -22.7849  -13.5312   21.1791 C   0  0  0  0  0  0
  -22.1676   -4.2146   21.0974 F   0  0  0  0  0  0
  -21.5629   -3.4535   25.7720 F   0  0  0  0  0  0
  -29.9845  -13.5152   20.4235 N   0  0  0  0  0  0
  -26.2956  -12.9360   20.3130 N   0  0  0  0  0  0
  -25.9304  -11.6507   20.5608 N   0  0  0  0  0  0
  -22.0337  -12.8413   22.0291 N   0  0  0  0  0  0
  -25.4341  -15.1897   20.3901 N   0  0  0  0  0  0
  -31.7586  -14.8923   20.1914 O   0  0  0  0  0  0
  -21.6668   -6.8897   21.4248 O   0  0  0  0  0  0
  -22.3583  -14.5612   20.6589 O   0  0  0  0  0  0
  -24.6335  -31.8524   23.2011 C   0  0  0  0  0  0
  -25.9146  -32.4731   23.8343 C   0  0  1  0  0  0
  -27.1666  -27.2140   20.1666 C   0  0  0  0  0  0
  -25.5907  -33.8520   24.2259 N   0  0  0  0  0  0
  -23.4284  -30.4826   21.5455 C   0  0  2  0  0  0
  -24.8664  -28.9321   20.1062 C   0  0  0  0  0  0
  -22.7501  -29.4590   22.4898 C   0  0  0  0  0  0
  -18.0265  -28.1382   22.8497 C   0  0  0  0  0  0
  -24.1489  -36.7284   23.2645 C   0  0  0  0  0  0
  -25.9758  -30.7569   21.3822 C   0  0  0  0  0  0
  -26.0394  -29.3741   20.7325 C   0  0  0  0  0  0
  -27.1976  -28.5275   20.7529 C   0  0  0  0  0  0
  -25.9931  -26.8649   19.4708 C   0  0  0  0  0  0
  -24.8527  -27.6904   19.4538 C   0  0  0  0  0  0
  -23.6456  -29.8329   20.1545 C   0  0  0  0  0  0
  -25.4110  -36.3049   24.0342 C   0  0  1  0  0  0
  -20.5888  -28.3697   23.1278 C   0  0  2  0  0  0
  -20.6756  -26.9426   22.5411 C   0  0  0  0  0  0
  -19.5735  -26.6400   21.5203 C   0  0  0  0  0  0
  -18.1911  -26.7927   22.1618 C   0  0  0  0  0  0
  -19.1525  -28.8849   23.2874 C   0  0  0  0  0  0
  -18.9444  -30.1440   23.8912 C   0  0  0  0  0  0
  -17.6451  -30.6604   24.0555 C   0  0  0  0  0  0
  -25.9039  -34.9422   23.5114 C   0  0  0  0  0  0
  -16.5340  -29.9116   23.6313 C   0  0  0  0  0  0
  -16.7252  -28.6509   23.0375 C   0  0  0  0  0  0
  -26.4474  -31.6522   25.0735 C   0  0  0  0  0  0
  -25.3677  -31.3673   26.1447 C   0  0  0  0  0  0
  -27.0287  -30.2942   24.6195 C   0  0  0  0  0  0
  -27.6049  -32.4219   25.7497 C   0  0  0  0  0  0
  -27.5572  -37.1813   24.8455 C   0  0  0  0  0  0
  -21.4194  -29.3053   22.3673 N   0  0  0  0  0  0
  -26.4270  -37.3776   23.9418 N   0  0  0  0  0  0
  -24.6996  -31.0479   22.0998 N   0  0  0  0  0  0
  -23.4200  -28.8079   23.2960 O   0  0  0  0  0  0
  -28.1950  -26.2418   20.2132 O   0  0  0  0  0  0
  -26.5666  -34.8909   22.4716 O   0  0  0  0  0  0
  -23.5473  -32.1328   23.7309 O   0  0  0  0  0  0
  -27.9943  -18.5348   21.5685 C   0  0  0  0  0  0
  -29.1717  -18.5545   20.8627 C   0  0  0  0  0  0
  -28.5957  -20.8949   20.8717 C   0  0  0  0  0  0
  -26.3835  -23.3126   19.9164 C   0  0  0  0  0  0
  -23.7936  -23.4454   19.8054 C   0  0  0  0  0  0
  -29.2203  -25.0158   22.0745 C   0  0  0  0  0  0
  -30.0921  -17.3344   20.4575 C   0  0  0  0  0  0
  -25.0756  -23.7472   20.5908 C   0  0  0  0  0  0
  -27.6429  -23.4632   20.7736 C   0  0  2  0  0  0
  -28.0308  -25.0308   21.1133 C   0  0  2  0  0  0
  -29.4839  -19.9233   20.4963 N   0  0  0  0  0  0
  -28.6395  -22.3244   20.5976 N   0  0  0  0  0  0
  -29.7598  -15.8643   20.7351 N   0  0  0  0  0  0
  -26.3937  -22.8297   18.7785 O   0  0  0  0  0  0
  -27.2750  -20.1392   21.7750 S   0  0  0  0  0  0
  -31.4965  -12.6619   19.1661 H   0  0  0  0  0  0
  -30.4558  -11.5006   19.9389 H   0  0  0  0  0  0
  -29.8487  -11.7783   17.5139 H   0  0  0  0  0  0
  -29.6627  -13.4963   17.7381 H   0  0  0  0  0  0
  -27.9137  -11.2960   18.8781 H   0  0  0  0  0  0
  -27.4148  -12.5516   17.7765 H   0  0  0  0  0  0
  -27.6564  -14.2550   19.4799 H   0  0  0  0  0  0
  -28.7276  -12.1267   21.3978 H   0  0  0  0  0  0
  -28.4022  -13.7899   21.8115 H   0  0  0  0  0  0
  -25.2654   -9.5844   22.4775 H   0  0  0  0  0  0
  -23.9998   -7.4723   22.7533 H   0  0  0  0  0  0
  -21.0812   -8.8767   19.8999 H   0  0  0  0  0  0
  -22.3589  -10.9694   19.6182 H   0  0  0  0  0  0
  -21.2012   -7.6146   23.9708 H   0  0  0  0  0  0
  -21.1456   -6.0520   25.9073 H   0  0  0  0  0  0
  -22.0614   -2.7614   23.2817 H   0  0  0  0  0  0
  -22.3756  -12.0110   22.4892 H   0  0  0  0  0  0
  -21.0940  -13.1613   22.2216 H   0  0  0  0  0  0
  -24.6692  -15.8506   20.4699 H   0  0  0  0  0  0
  -26.2370  -15.5799   19.9155 H   0  0  0  0  0  0
  -26.7205  -32.5361   23.1059 H   0  0  0  0  0  0
  -24.9891  -33.9616   25.0290 H   0  0  0  0  0  0
  -22.7251  -31.3079   21.4117 H   0  0  0  0  0  0
  -23.3733  -35.9625   23.3268 H   0  0  0  0  0  0
  -24.3587  -36.8942   22.2063 H   0  0  0  0  0  0
  -23.7240  -37.6491   23.6669 H   0  0  0  0  0  0
  -26.1098  -31.5132   20.6071 H   0  0  0  0  0  0
  -26.8574  -30.8110   22.0095 H   0  0  0  0  0  0
  -28.0904  -28.8582   21.2624 H   0  0  0  0  0  0
  -25.9405  -25.9165   18.9565 H   0  0  0  0  0  0
  -23.9617  -27.3667   18.9303 H   0  0  0  0  0  0
  -23.7846  -30.6223   19.4150 H   0  0  0  0  0  0
  -22.7541  -29.2926   19.8317 H   0  0  0  0  0  0
  -25.1276  -36.1907   25.0832 H   0  0  0  0  0  0
  -20.9962  -28.3265   24.1408 H   0  0  0  0  0  0
  -20.5660  -26.2313   23.3605 H   0  0  0  0  0  0
  -21.6611  -26.7446   22.1203 H   0  0  0  0  0  0
  -19.6905  -25.6307   21.1235 H   0  0  0  0  0  0
  -19.6666  -27.3198   20.6721 H   0  0  0  0  0  0
  -17.4183  -26.6680   21.4012 H   0  0  0  0  0  0
  -18.0309  -26.0057   22.9003 H   0  0  0  0  0  0
  -19.7915  -30.7227   24.2337 H   0  0  0  0  0  0
  -17.5015  -31.6300   24.5120 H   0  0  0  0  0  0
  -15.5353  -30.3052   23.7589 H   0  0  0  0  0  0
  -15.8641  -28.0827   22.7134 H   0  0  0  0  0  0
  -24.5879  -30.6998   25.7760 H   0  0  0  0  0  0
  -24.8824  -32.2829   26.4838 H   0  0  0  0  0  0
  -25.7988  -30.8867   27.0242 H   0  0  0  0  0  0
  -26.2851  -29.6738   24.1207 H   0  0  0  0  0  0
  -27.3934  -29.7176   25.4695 H   0  0  0  0  0  0
  -27.8736  -30.4203   23.9436 H   0  0  0  0  0  0
  -27.2688  -33.3527   26.2073 H   0  0  0  0  0  0
  -28.3858  -32.6759   25.0315 H   0  0  0  0  0  0
  -28.0708  -31.8330   26.5410 H   0  0  0  0  0  0
  -28.2573  -38.0128   24.7498 H   0  0  0  0  0  0
  -28.1079  -36.2661   24.6237 H   0  0  0  0  0  0
  -27.2299  -37.1406   25.8860 H   0  0  0  0  0  0
  -20.9370  -29.8846   21.6939 H   0  0  0  0  0  0
  -26.0139  -38.2854   24.1404 H   0  0  0  0  0  0
  -27.4886  -17.6651   21.9698 H   0  0  0  0  0  0
  -22.9313  -23.8053   20.3677 H   0  0  0  0  0  0
  -23.6673  -22.3728   19.6577 H   0  0  0  0  0  0
  -23.7815  -23.9331   18.8297 H   0  0  0  0  0  0
  -29.0617  -24.2754   22.8597 H   0  0  0  0  0  0
  -29.3580  -25.9811   22.5552 H   0  0  0  0  0  0
  -30.1402  -24.7547   21.5566 H   0  0  0  0  0  0
  -31.0864  -17.5305   20.8556 H   0  0  0  0  0  0
  -30.2088  -17.3881   19.3755 H   0  0  0  0  0  0
  -25.1328  -24.8165   20.7836 H   0  0  0  0  0  0
  -25.0229  -23.2634   21.5673 H   0  0  0  0  0  0
  -27.2800  -23.1540   21.7549 H   0  0  0  0  0  0
  -27.1943  -25.3270   21.7525 H   0  0  0  0  0  0
  -29.4294  -22.5961   20.0258 H   0  0  0  0  0  0
  -28.7943  -15.6638   20.9346 H   0  0  0  0  0  0
  1 25  1  0  0  0
  1 30  2  0  0  0
  1 83  1  0  0  0
  2  3  1  0  0  0
  2 25  1  0  0  0
  2 86  1  0  0  0
  2 87  1  0  0  0
  3  4  1  0  0  0
  3 88  1  0  0  0
  3 89  1  0  0  0
  4  5  1  0  0  0
  4 90  1  0  0  0
  4 91  1  0  0  0
  5  6  1  0  0  0
  5 26  1  0  0  0
  5 92  1  0  0  0
  6 25  1  0  0  0
  6 93  1  0  0  0
  6 94  1  0  0  0
  7  8  2  0  0  0
  7 26  1  0  0  0
  7 29  1  0  0  0
  8  9  1  0  0  0
  8 22  1  0  0  0
  9 10  1  0  0  0
  9 27  2  0  0  0
 10 11  2  0  0  0
 10 15  1  0  0  0
 11 12  1  0  0  0
 11 95  1  0  0  0
 12 13  2  0  0  0
 12 96  1  0  0  0
 13 14  1  0  0  0
 13 31  1  0  0  0
 14 15  2  0  0  0
 14 97  1  0  0  0
 15 98  1  0  0  0
 16 17  2  0  0  0
 16 21  1  0  0  0
 16 31  1  0  0  0
 17 18  1  0  0  0
 17 99  1  0  0  0
 18 19  2  0  0  0
 18100  1  0  0  0
 19 20  1  0  0  0
 19 24  1  0  0  0
 20 21  2  0  0  0
 20101  1  0  0  0
 21 23  1  0  0  0
 22 28  1  0  0  0
 22 32  2  0  0  0
 26 27  1  0  0  0
 28102  1  0  0  0
 28103  1  0  0  0
 29104  1  0  0  0
 29105  1  0  0  0
 33 34  1  0  0  0
 33 66  1  0  0  0
 33 70  2  0  0  0
 34 36  1  0  0  0
 34 59  1  0  0  0
 34106  1  0  0  0
 35 44  2  0  0  0
 35 45  1  0  0  0
 35 68  1  0  0  0
 36 56  1  0  0  0
 36107  1  0  0  0
 37 39  1  0  0  0
 37 47  1  0  0  0
 37 66  1  0  0  0
 37108  1  0  0  0
 38 43  2  0  0  0
 38 46  1  0  0  0
 38 47  1  0  0  0
 39 64  1  0  0  0
 39 67  2  0  0  0
 40 52  1  0  0  0
 40 53  2  0  0  0
 40 58  1  0  0  0
 41109  1  0  0  0
 41110  1  0  0  0
 41111  1  0  0  0
 41 48  1  0  0  0
 42 43  1  0  0  0
 42 66  1  0  0  0
 42112  1  0  0  0
 42113  1  0  0  0
 43 44  1  0  0  0
 44114  1  0  0  0
 45 46  2  0  0  0
 45115  1  0  0  0
 46116  1  0  0  0
 47117  1  0  0  0
 47118  1  0  0  0
 48 56  1  0  0  0
 48 65  1  0  0  0
 48119  1  0  0  0
 49 50  1  0  0  0
 49 53  1  0  0  0
 49 64  1  0  0  0
 49120  1  0  0  0
 50 51  1  0  0  0
 50121  1  0  0  0
 50122  1  0  0  0
 51 52  1  0  0  0
 51123  1  0  0  0
 51124  1  0  0  0
 52125  1  0  0  0
 52126  1  0  0  0
 53 54  1  0  0  0
 54 55  2  0  0  0
 54127  1  0  0  0
 55 57  1  0  0  0
 55128  1  0  0  0
 56 69  2  0  0  0
 57 58  2  0  0  0
 57129  1  0  0  0
 58130  1  0  0  0
 59 60  1  0  0  0
 59 61  1  0  0  0
 59 62  1  0  0  0
 60131  1  0  0  0
 60132  1  0  0  0
 60133  1  0  0  0
 61134  1  0  0  0
 61135  1  0  0  0
 61136  1  0  0  0
 62137  1  0  0  0
 62138  1  0  0  0
 62139  1  0  0  0
 63 65  1  0  0  0
 63140  1  0  0  0
 63141  1  0  0  0
 63142  1  0  0  0
 64143  1  0  0  0
 65144  1  0  0  0
 68 80  1  0  0  0
 71 72  2  0  0  0
 71 85  1  0  0  0
 71145  1  0  0  0
 72 77  1  0  0  0
 72 81  1  0  0  0
 73 81  2  0  0  0
 73 82  1  0  0  0
 73 85  1  0  0  0
 74 78  1  0  0  0
 74 79  1  0  0  0
 74 84  2  0  0  0
 75 78  1  0  0  0
 75146  1  0  0  0
 75147  1  0  0  0
 75148  1  0  0  0
 76149  1  0  0  0
 76150  1  0  0  0
 76151  1  0  0  0
 76 80  1  0  0  0
 77 83  1  0  0  0
 77152  1  0  0  0
 77153  1  0  0  0
 78154  1  0  0  0
 78155  1  0  0  0
 79 80  1  0  0  0
 79 82  1  0  0  0
 79156  1  0  0  0
 80157  1  0  0  0
 82158  1  0  0  0
 83159  1  0  0  0
M  ISO  4   1 100  68 101  80 101  83 100
M  END
> <chiral flag>
0

> <version>
0

> <s_m_source_file>
/data/baiqing/PycharmProjects/Reinvent-master-3.2/result/LINK_invent/BTK/process_docking_weight1_custom_product_contain_oxygen_bond_distance_aromatic_linkinvent_7_9_3/rearranged_h_0187.sdf

> <i_m_source_file_index>
32

> <r_mmod_Potential_Energy-OPLS-2005>
11.5167036056519

> <r_mmod_Stretch_Energy-OPLS-2005>
128.34358215332

> <r_mmod_Bend_Energy-OPLS-2005>
214.628280639648

> <r_mmod_Torsional_Energy-OPLS-2005>
233.173187255859

> <r_mmod_Improper_Torsional_Energy-OPLS-2005>
6.66104698181152

> <r_mmod_Van_der_Waal_Energy-OPLS-2005>
101.842590332031

> <r_mmod_Electrostatic_Energy-OPLS-2005>
-546.752014160156

> <r_mmod_Solvation_Energy-OPLS-2005>
-238.315567016602

> <b_mmod_Minimization_Converged-OPLS-2005>
0

> <r_mmod_RMS_Derivative-OPLS-2005>
6.96937084197998

$$$$
33
                    3D
 Structure written by MMmdl.
162170  0  0  1  0            999 V2000
  -30.6892  -14.5062   20.5555 C   0  0  0  0  0  0
  -30.4158  -12.3128   19.4413 C   0  0  0  0  0  0
  -29.5082  -12.5342   18.2143 C   0  0  0  0  0  0
  -28.0299  -12.3777   18.6155 C   0  0  0  0  0  0
  -27.6684  -13.2125   19.8743 C   0  0  2  0  0  0
  -28.7040  -13.0257   21.0063 C   0  0  0  0  0  0
  -25.2641  -13.8167   20.5604 C   0  0  0  0  0  0
  -24.1926  -13.0431   20.9075 C   0  0  0  0  0  0
  -24.6496  -11.6895   20.8656 C   0  0  0  0  0  0
  -23.9156  -10.4294   21.0333 C   0  0  0  0  0  0
  -24.3718   -9.4213   21.9131 C   0  0  0  0  0  0
  -23.6324   -8.2295   22.0761 C   0  0  0  0  0  0
  -22.4281   -8.0365   21.3571 C   0  0  0  0  0  0
  -21.9960   -9.0349   20.4654 C   0  0  0  0  0  0
  -22.7315  -10.2200   20.3006 C   0  0  0  0  0  0
  -21.6864   -6.0787   22.5296 C   0  0  0  0  0  0
  -21.4040   -6.5674   23.8229 C   0  0  0  0  0  0
  -21.3620   -5.6818   24.9187 C   0  0  0  0  0  0
  -21.6054   -4.3092   24.7226 C   0  0  0  0  0  0
  -21.8827   -3.8201   23.4331 C   0  0  0  0  0  0
  -21.9191   -4.7022   22.3393 C   0  0  0  0  0  0
  -22.7963  -13.5222   21.1722 C   0  0  0  0  0  0
  -22.1664   -4.2215   21.0963 F   0  0  0  0  0  0
  -21.5586   -3.4547   25.7706 F   0  0  0  0  0  0
  -30.0375  -13.3151   20.4542 N   0  0  0  0  0  0
  -26.3103  -12.9362   20.3327 N   0  0  0  0  0  0
  -25.9425  -11.6503   20.5732 N   0  0  0  0  0  0
  -22.0624  -12.8285   22.0321 N   0  0  0  0  0  0
  -25.4279  -15.1928   20.4120 N   0  0  0  0  0  0
  -31.8105  -14.6948   20.0760 O   0  0  0  0  0  0
  -21.6634   -6.8970   21.4266 O   0  0  0  0  0  0
  -22.3656  -14.5521   20.6516 O   0  0  0  0  0  0
  -24.6190  -31.8619   23.2055 C   0  0  0  0  0  0
  -25.9088  -32.4788   23.8418 C   0  0  1  0  0  0
  -27.2387  -27.4102   20.1422 C   0  0  0  0  0  0
  -25.5970  -33.8595   24.2341 N   0  0  0  0  0  0
  -23.4048  -30.4818   21.5458 C   0  0  2  0  0  0
  -24.8539  -28.9365   20.1107 C   0  0  0  0  0  0
  -22.7404  -29.4636   22.4993 C   0  0  0  0  0  0
  -18.0239  -28.1331   22.8525 C   0  0  0  0  0  0
  -24.1483  -36.7162   23.2624 C   0  0  0  0  0  0
  -25.9314  -30.8301   21.3488 C   0  0  0  0  0  0
  -26.0114  -29.4662   20.6922 C   0  0  0  0  0  0
  -27.2117  -28.7233   20.6710 C   0  0  0  0  0  0
  -26.0691  -26.8924   19.5505 C   0  0  0  0  0  0
  -24.8800  -27.6509   19.5297 C   0  0  0  0  0  0
  -23.6148  -29.8006   20.1634 C   0  0  0  0  0  0
  -25.4117  -36.3085   24.0365 C   0  0  1  0  0  0
  -20.5849  -28.3605   23.1286 C   0  0  2  0  0  0
  -20.6701  -26.9335   22.5396 C   0  0  0  0  0  0
  -19.5690  -26.6336   21.5177 C   0  0  0  0  0  0
  -18.1863  -26.7880   22.1603 C   0  0  0  0  0  0
  -19.1518  -28.8793   23.2917 C   0  0  0  0  0  0
  -18.9467  -30.1395   23.8932 C   0  0  0  0  0  0
  -17.6492  -30.6576   24.0528 C   0  0  0  0  0  0
  -25.9072  -34.9460   23.5141 C   0  0  0  0  0  0
  -16.5364  -29.9085   23.6310 C   0  0  0  0  0  0
  -16.7240  -28.6458   23.0410 C   0  0  0  0  0  0
  -26.4482  -31.6602   25.0775 C   0  0  0  0  0  0
  -25.3731  -31.3689   26.1502 C   0  0  0  0  0  0
  -27.0195  -30.3057   24.6063 C   0  0  0  0  0  0
  -27.6126  -32.4222   25.7525 C   0  0  0  0  0  0
  -27.5551  -37.1762   24.8482 C   0  0  0  0  0  0
  -21.4124  -29.3002   22.3750 N   0  0  0  0  0  0
  -26.4246  -37.3821   23.9478 N   0  0  0  0  0  0
  -24.6688  -31.0722   22.0936 N   0  0  0  0  0  0
  -23.4201  -28.8184   23.3035 O   0  0  0  0  0  0
  -28.4036  -26.6643   20.1875 O   0  0  0  0  0  0
  -26.5609  -34.8939   22.4687 O   0  0  0  0  0  0
  -23.5377  -32.1366   23.7445 O   0  0  0  0  0  0
  -29.3850  -19.9382   19.2747 C   0  0  0  0  0  0
  -29.2452  -19.3141   20.4999 C   0  0  0  0  0  0
  -29.2983  -21.7959   20.6137 C   0  0  0  0  0  0
  -28.5609  -24.1825   20.3837 C   0  0  0  0  0  0
  -27.8083  -24.4408   23.4187 C   0  0  0  0  0  0
  -27.6661  -26.9297   23.1761 C   0  0  0  0  0  0
  -29.0222  -17.8381   20.7657 C   0  0  0  0  0  0
  -30.2899  -16.9739   20.9847 C   0  0  0  0  0  0
  -28.5304  -25.5548   21.1361 C   0  0  2  0  0  0
  -27.5814  -25.5870   22.3974 C   0  0  0  0  0  0
  -29.4001  -19.2521   17.9257 C   0  0  0  0  0  0
  -29.4123  -21.3489   19.3579 N   0  0  0  0  0  0
  -29.2372  -23.1731   20.9751 N   0  0  0  0  0  0
  -29.9707  -15.5311   21.0693 N   0  0  0  0  0  0
  -28.0155  -24.0683   19.2838 O   0  0  0  0  0  0
  -29.9889  -20.0012   16.9932 F   0  0  0  0  0  0
  -30.0614  -18.0963   17.9640 F   0  0  0  0  0  0
  -28.1598  -18.9821   17.5148 F   0  0  0  0  0  0
  -29.2506  -20.4929   21.8006 S   0  0  0  0  0  0
  -31.4725  -12.3651   19.1662 H   0  0  0  0  0  0
  -30.2687  -11.3052   19.8369 H   0  0  0  0  0  0
  -29.7604  -11.8336   17.4181 H   0  0  0  0  0  0
  -29.6819  -13.5343   17.8156 H   0  0  0  0  0  0
  -27.8490  -11.3186   18.8133 H   0  0  0  0  0  0
  -27.3818  -12.6530   17.7804 H   0  0  0  0  0  0
  -27.7014  -14.2580   19.5658 H   0  0  0  0  0  0
  -28.6784  -12.0061   21.3938 H   0  0  0  0  0  0
  -28.4617  -13.6618   21.8575 H   0  0  0  0  0  0
  -25.2896   -9.5650   22.4683 H   0  0  0  0  0  0
  -23.9995   -7.4727   22.7557 H   0  0  0  0  0  0
  -21.0823   -8.8956   19.9035 H   0  0  0  0  0  0
  -22.3824  -10.9760   19.6114 H   0  0  0  0  0  0
  -21.2073   -7.6212   23.9735 H   0  0  0  0  0  0
  -21.1393   -6.0562   25.9070 H   0  0  0  0  0  0
  -22.0625   -2.7662   23.2829 H   0  0  0  0  0  0
  -22.4182  -11.9867   22.4623 H   0  0  0  0  0  0
  -21.1291  -13.1430   22.2517 H   0  0  0  0  0  0
  -24.6365  -15.8190   20.5172 H   0  0  0  0  0  0
  -26.2758  -15.6681   20.1325 H   0  0  0  0  0  0
  -26.7145  -32.5496   23.1182 H   0  0  0  0  0  0
  -25.0350  -33.9777   25.0643 H   0  0  0  0  0  0
  -22.6970  -31.2997   21.3978 H   0  0  0  0  0  0
  -23.3824  -35.9420   23.3345 H   0  0  0  0  0  0
  -24.3557  -36.8678   22.2012 H   0  0  0  0  0  0
  -23.7140  -37.6377   23.6533 H   0  0  0  0  0  0
  -26.0464  -31.6001   20.5840 H   0  0  0  0  0  0
  -26.8177  -30.8856   21.9675 H   0  0  0  0  0  0
  -28.1061  -29.1465   21.1075 H   0  0  0  0  0  0
  -26.0780  -25.8953   19.1299 H   0  0  0  0  0  0
  -23.9870  -27.2312   19.0807 H   0  0  0  0  0  0
  -23.7191  -30.5694   19.3978 H   0  0  0  0  0  0
  -22.7450  -29.2133   19.8651 H   0  0  0  0  0  0
  -25.1291  -36.1927   25.0858 H   0  0  0  0  0  0
  -20.9944  -28.3118   24.1406 H   0  0  0  0  0  0
  -20.5436  -26.2265   23.3616 H   0  0  0  0  0  0
  -21.6583  -26.7236   22.1303 H   0  0  0  0  0  0
  -19.6820  -25.6246   21.1207 H   0  0  0  0  0  0
  -19.6610  -27.3162   20.6719 H   0  0  0  0  0  0
  -17.4133  -26.6692   21.3987 H   0  0  0  0  0  0
  -18.0225  -25.9985   22.8938 H   0  0  0  0  0  0
  -19.7966  -30.7170   24.2339 H   0  0  0  0  0  0
  -17.5059  -31.6274   24.5112 H   0  0  0  0  0  0
  -15.5370  -30.3030   23.7591 H   0  0  0  0  0  0
  -15.8617  -28.0746   22.7208 H   0  0  0  0  0  0
  -24.6188  -30.6645   25.7949 H   0  0  0  0  0  0
  -24.8533  -32.2728   26.4666 H   0  0  0  0  0  0
  -25.8160  -30.9253   27.0414 H   0  0  0  0  0  0
  -26.2646  -29.6966   24.1060 H   0  0  0  0  0  0
  -27.3926  -29.7190   25.4467 H   0  0  0  0  0  0
  -27.8552  -30.4434   23.9216 H   0  0  0  0  0  0
  -27.2973  -33.3719   26.1870 H   0  0  0  0  0  0
  -28.4103  -32.6388   25.0394 H   0  0  0  0  0  0
  -28.0550  -31.8395   26.5621 H   0  0  0  0  0  0
  -28.2610  -38.0023   24.7622 H   0  0  0  0  0  0
  -28.1014  -36.2595   24.6195 H   0  0  0  0  0  0
  -27.2270  -37.1276   25.8880 H   0  0  0  0  0  0
  -20.9317  -29.8720   21.6948 H   0  0  0  0  0  0
  -26.0104  -38.2872   24.1596 H   0  0  0  0  0  0
  -27.5980  -23.4501   23.0141 H   0  0  0  0  0  0
  -27.1389  -24.5600   24.2715 H   0  0  0  0  0  0
  -28.8331  -24.4375   23.8048 H   0  0  0  0  0  0
  -27.8758  -26.8340   24.2394 H   0  0  0  0  0  0
  -26.7233  -27.4736   23.1038 H   0  0  0  0  0  0
  -28.4494  -27.5699   22.7771 H   0  0  0  0  0  0
  -28.4305  -17.4290   19.9473 H   0  0  0  0  0  0
  -28.3821  -17.7298   21.6433 H   0  0  0  0  0  0
  -30.7920  -17.2953   21.8960 H   0  0  0  0  0  0
  -30.9881  -17.1571   20.1644 H   0  0  0  0  0  0
  -29.5420  -25.6796   21.5282 H   0  0  0  0  0  0
  -26.5572  -25.4777   22.0364 H   0  0  0  0  0  0
  -29.5688  -23.3732   21.9082 H   0  0  0  0  0  0
  -29.0706  -15.2885   21.4552 H   0  0  0  0  0  0
  1 25  1  0  0  0
  1 30  2  0  0  0
  1 84  1  0  0  0
  2  3  1  0  0  0
  2 25  1  0  0  0
  2 90  1  0  0  0
  2 91  1  0  0  0
  3  4  1  0  0  0
  3 92  1  0  0  0
  3 93  1  0  0  0
  4  5  1  0  0  0
  4 94  1  0  0  0
  4 95  1  0  0  0
  5  6  1  0  0  0
  5 26  1  0  0  0
  5 96  1  0  0  0
  6 25  1  0  0  0
  6 97  1  0  0  0
  6 98  1  0  0  0
  7  8  2  0  0  0
  7 26  1  0  0  0
  7 29  1  0  0  0
  8  9  1  0  0  0
  8 22  1  0  0  0
  9 10  1  0  0  0
  9 27  2  0  0  0
 10 11  2  0  0  0
 10 15  1  0  0  0
 11 12  1  0  0  0
 11 99  1  0  0  0
 12 13  2  0  0  0
 12100  1  0  0  0
 13 14  1  0  0  0
 13 31  1  0  0  0
 14 15  2  0  0  0
 14101  1  0  0  0
 15102  1  0  0  0
 16 17  2  0  0  0
 16 21  1  0  0  0
 16 31  1  0  0  0
 17 18  1  0  0  0
 17103  1  0  0  0
 18 19  2  0  0  0
 18104  1  0  0  0
 19 20  1  0  0  0
 19 24  1  0  0  0
 20 21  2  0  0  0
 20105  1  0  0  0
 21 23  1  0  0  0
 22 28  1  0  0  0
 22 32  2  0  0  0
 26 27  1  0  0  0
 28106  1  0  0  0
 28107  1  0  0  0
 29108  1  0  0  0
 29109  1  0  0  0
 33 34  1  0  0  0
 33 66  1  0  0  0
 33 70  2  0  0  0
 34 36  1  0  0  0
 34 59  1  0  0  0
 34110  1  0  0  0
 35 44  2  0  0  0
 35 45  1  0  0  0
 35 68  1  0  0  0
 36 56  1  0  0  0
 36111  1  0  0  0
 37 39  1  0  0  0
 37 47  1  0  0  0
 37 66  1  0  0  0
 37112  1  0  0  0
 38 43  2  0  0  0
 38 46  1  0  0  0
 38 47  1  0  0  0
 39 64  1  0  0  0
 39 67  2  0  0  0
 40 52  1  0  0  0
 40 53  2  0  0  0
 40 58  1  0  0  0
 41113  1  0  0  0
 41114  1  0  0  0
 41115  1  0  0  0
 41 48  1  0  0  0
 42 43  1  0  0  0
 42 66  1  0  0  0
 42116  1  0  0  0
 42117  1  0  0  0
 43 44  1  0  0  0
 44118  1  0  0  0
 45 46  2  0  0  0
 45119  1  0  0  0
 46120  1  0  0  0
 47121  1  0  0  0
 47122  1  0  0  0
 48 56  1  0  0  0
 48 65  1  0  0  0
 48123  1  0  0  0
 49 50  1  0  0  0
 49 53  1  0  0  0
 49 64  1  0  0  0
 49124  1  0  0  0
 50 51  1  0  0  0
 50125  1  0  0  0
 50126  1  0  0  0
 51 52  1  0  0  0
 51127  1  0  0  0
 51128  1  0  0  0
 52129  1  0  0  0
 52130  1  0  0  0
 53 54  1  0  0  0
 54 55  2  0  0  0
 54131  1  0  0  0
 55 57  1  0  0  0
 55132  1  0  0  0
 56 69  2  0  0  0
 57 58  2  0  0  0
 57133  1  0  0  0
 58134  1  0  0  0
 59 60  1  0  0  0
 59 61  1  0  0  0
 59 62  1  0  0  0
 60135  1  0  0  0
 60136  1  0  0  0
 60137  1  0  0  0
 61138  1  0  0  0
 61139  1  0  0  0
 61140  1  0  0  0
 62141  1  0  0  0
 62142  1  0  0  0
 62143  1  0  0  0
 63 65  1  0  0  0
 63144  1  0  0  0
 63145  1  0  0  0
 63146  1  0  0  0
 64147  1  0  0  0
 65148  1  0  0  0
 68 79  1  0  0  0
 71 72  2  0  0  0
 71 81  1  0  0  0
 71 82  1  0  0  0
 72 77  1  0  0  0
 72 89  1  0  0  0
 73 82  2  0  0  0
 73 83  1  0  0  0
 73 89  1  0  0  0
 74 79  1  0  0  0
 74 83  1  0  0  0
 74 85  2  0  0  0
 75149  1  0  0  0
 75150  1  0  0  0
 75151  1  0  0  0
 75 80  1  0  0  0
 76 80  1  0  0  0
 76152  1  0  0  0
 76153  1  0  0  0
 76154  1  0  0  0
 77 78  1  0  0  0
 77155  1  0  0  0
 77156  1  0  0  0
 78 84  1  0  0  0
 78157  1  0  0  0
 78158  1  0  0  0
 79 80  1  0  0  0
 79159  1  0  0  0
 80160  1  0  0  0
 81 86  1  0  0  0
 81 87  1  0  0  0
 81 88  1  0  0  0
 83161  1  0  0  0
 84162  1  0  0  0
M  ISO  4   1 100  68 101  79 101  84 100
M  END
> <chiral flag>
0

> <version>
0

> <s_m_source_file>
/data/baiqing/PycharmProjects/Reinvent-master-3.2/result/LINK_invent/BTK/process_docking_weight1_custom_product_contain_oxygen_bond_distance_aromatic_linkinvent_7_9_3/rearranged_h_0187.sdf

> <i_m_source_file_index>
33

> <r_mmod_Potential_Energy-OPLS-2005>
-6.05562114715576

> <r_mmod_Stretch_Energy-OPLS-2005>
48.4874420166016

> <r_mmod_Bend_Energy-OPLS-2005>
118.775405883789

> <r_mmod_Torsional_Energy-OPLS-2005>
238.905181884766

> <r_mmod_Improper_Torsional_Energy-OPLS-2005>
4.86947441101074

> <r_mmod_Van_der_Waal_Energy-OPLS-2005>
120.333923339844

> <r_mmod_Electrostatic_Energy-OPLS-2005>
-314.504913330078

> <r_mmod_Solvation_Energy-OPLS-2005>
-241.912216186523

> <b_mmod_Minimization_Converged-OPLS-2005>
0

> <r_mmod_RMS_Derivative-OPLS-2005>
7.06906652450562

$$$$
34
                    3D
 Structure written by MMmdl.
150157  0  0  1  0            999 V2000
  -30.4303  -15.3374   20.3415 C   0  0  0  0  0  0
  -30.4289  -12.8506   19.5454 C   0  0  0  0  0  0
  -29.5386  -12.5939   18.3029 C   0  0  0  0  0  0
  -28.0903  -12.3051   18.7275 C   0  0  0  0  0  0
  -27.6074  -13.2866   19.8235 C   0  0  2  0  0  0
  -28.6349  -13.4990   20.9585 C   0  0  0  0  0  0
  -25.2360  -13.8269   20.5764 C   0  0  0  0  0  0
  -24.1729  -13.0441   20.9278 C   0  0  0  0  0  0
  -24.6401  -11.6943   20.8767 C   0  0  0  0  0  0
  -23.9101  -10.4296   21.0402 C   0  0  0  0  0  0
  -24.3643   -9.4210   21.9182 C   0  0  0  0  0  0
  -23.6310   -8.2247   22.0752 C   0  0  0  0  0  0
  -22.4291   -8.0286   21.3544 C   0  0  0  0  0  0
  -21.9933   -9.0261   20.4644 C   0  0  0  0  0  0
  -22.7270  -10.2137   20.3052 C   0  0  0  0  0  0
  -21.6858   -6.0739   22.5279 C   0  0  0  0  0  0
  -21.4021   -6.5642   23.8214 C   0  0  0  0  0  0
  -21.3664   -5.6793   24.9175 C   0  0  0  0  0  0
  -21.6044   -4.3055   24.7222 C   0  0  0  0  0  0
  -21.8817   -3.8148   23.4342 C   0  0  0  0  0  0
  -21.9193   -4.6967   22.3400 C   0  0  0  0  0  0
  -22.7742  -13.5183   21.1914 C   0  0  0  0  0  0
  -22.1660   -4.2154   21.0977 F   0  0  0  0  0  0
  -21.5630   -3.4536   25.7734 F   0  0  0  0  0  0
  -29.8637  -14.0185   20.3328 N   0  0  0  0  0  0
  -26.2796  -12.9568   20.3226 N   0  0  0  0  0  0
  -25.9341  -11.6660   20.5724 N   0  0  0  0  0  0
  -22.0400  -12.8164   22.0468 N   0  0  0  0  0  0
  -25.3967  -15.2006   20.4188 N   0  0  0  0  0  0
  -31.6516  -15.2691   20.1155 O   0  0  0  0  0  0
  -21.6648   -6.8885   21.4242 O   0  0  0  0  0  0
  -22.3420  -14.5480   20.6747 O   0  0  0  0  0  0
  -24.6667  -31.8183   23.1667 C   0  0  0  0  0  0
  -25.9329  -32.4560   23.8148 C   0  0  1  0  0  0
  -27.2202  -26.8827   20.1891 C   0  0  0  0  0  0
  -25.5981  -33.8379   24.2049 N   0  0  0  0  0  0
  -23.4839  -30.4280   21.5154 C   0  0  2  0  0  0
  -24.9390  -28.8062   20.1082 C   0  0  0  0  0  0
  -22.7684  -29.4412   22.4754 C   0  0  0  0  0  0
  -18.0327  -28.1409   22.8462 C   0  0  0  0  0  0
  -24.1495  -36.7196   23.2648 C   0  0  0  0  0  0
  -26.0546  -30.6089   21.4052 C   0  0  0  0  0  0
  -26.1208  -29.1943   20.7500 C   0  0  0  0  0  0
  -27.2504  -28.2525   20.7686 C   0  0  0  0  0  0
  -26.0138  -26.6618   19.4852 C   0  0  0  0  0  0
  -24.9137  -27.5621   19.4552 C   0  0  0  0  0  0
  -23.7269  -29.7399   20.1426 C   0  0  0  0  0  0
  -25.4138  -36.2953   24.0296 C   0  0  1  0  0  0
  -20.5954  -28.3759   23.1177 C   0  0  2  0  0  0
  -20.6802  -26.9435   22.5403 C   0  0  0  0  0  0
  -19.5778  -26.6373   21.5215 C   0  0  0  0  0  0
  -18.1960  -26.7940   22.1619 C   0  0  0  0  0  0
  -19.1589  -28.8906   23.2805 C   0  0  0  0  0  0
  -18.9498  -30.1494   23.8845 C   0  0  0  0  0  0
  -17.6489  -30.6596   24.0556 C   0  0  0  0  0  0
  -25.9104  -34.9336   23.4997 C   0  0  0  0  0  0
  -16.5380  -29.9082   23.6345 C   0  0  0  0  0  0
  -16.7309  -28.6504   23.0360 C   0  0  0  0  0  0
  -26.4569  -31.6525   25.0696 C   0  0  0  0  0  0
  -25.3684  -31.3786   26.1344 C   0  0  0  0  0  0
  -27.0478  -30.2886   24.6470 C   0  0  0  0  0  0
  -27.6050  -32.4347   25.7502 C   0  0  0  0  0  0
  -27.5569  -37.1759   24.8468 C   0  0  0  0  0  0
  -21.4349  -29.3040   22.3513 N   0  0  0  0  0  0
  -26.4280  -37.3693   23.9406 N   0  0  0  0  0  0
  -24.7566  -30.9802   22.0825 N   0  0  0  0  0  0
  -23.4208  -28.7989   23.3019 O   0  0  0  0  0  0
  -28.2137  -25.7597   20.3185 O   0  0  0  0  0  0
  -26.5720  -34.8881   22.4597 O   0  0  0  0  0  0
  -23.5727  -32.1177   23.6731 O   0  0  0  0  0  0
  -29.9649  -18.0880   20.1227 C   0  0  0  0  0  0
  -27.6500  -22.2268   21.7356 C   0  0  0  0  0  0
  -28.1123  -20.7695   18.6423 C   0  0  0  0  0  0
  -28.1506  -24.1380   19.9024 C   0  0  0  0  0  0
  -28.6416  -22.5087   20.6019 C   0  0  2  0  0  0
  -29.0251  -20.8730   19.8712 C   0  0  1  0  0  0
  -29.6925  -16.6534   20.4490 N   0  0  0  0  0  0
  -29.1290  -19.2752   20.4594 N   0  0  0  0  0  0
  -31.3244  -18.4639   19.2271 S   0  0  0  0  0  0
  -31.4511  -13.0377   19.2147 H   0  0  0  0  0  0
  -30.4912  -11.9550   20.1660 H   0  0  0  0  0  0
  -29.9319  -11.7634   17.7152 H   0  0  0  0  0  0
  -29.5620  -13.4702   17.6530 H   0  0  0  0  0  0
  -28.0565  -11.2847   19.1106 H   0  0  0  0  0  0
  -27.4239  -12.3310   17.8643 H   0  0  0  0  0  0
  -27.5109  -14.2446   19.3111 H   0  0  0  0  0  0
  -28.8137  -12.5778   21.5154 H   0  0  0  0  0  0
  -28.2581  -14.2269   21.6785 H   0  0  0  0  0  0
  -25.2783   -9.5687   22.4765 H   0  0  0  0  0  0
  -24.0016   -7.4638   22.7473 H   0  0  0  0  0  0
  -21.0865   -8.8785   19.8947 H   0  0  0  0  0  0
  -22.3727  -10.9678   19.6164 H   0  0  0  0  0  0
  -21.2015   -7.6150   23.9721 H   0  0  0  0  0  0
  -21.1492   -6.0520   25.9079 H   0  0  0  0  0  0
  -22.0590   -2.7610   23.2839 H   0  0  0  0  0  0
  -22.4036  -11.9841   22.4869 H   0  0  0  0  0  0
  -21.1006  -13.1168   22.2657 H   0  0  0  0  0  0
  -24.6195  -15.8440   20.5237 H   0  0  0  0  0  0
  -26.2244  -15.6408   20.0397 H   0  0  0  0  0  0
  -26.7397  -32.5082   23.0858 H   0  0  0  0  0  0
  -25.0080  -33.9449   25.0167 H   0  0  0  0  0  0
  -22.7999  -31.2612   21.3411 H   0  0  0  0  0  0
  -23.3770  -35.9515   23.3282 H   0  0  0  0  0  0
  -24.3565  -36.8872   22.2067 H   0  0  0  0  0  0
  -23.7243  -37.6371   23.6724 H   0  0  0  0  0  0
  -26.2409  -31.3473   20.6242 H   0  0  0  0  0  0
  -26.9124  -30.6667   22.0633 H   0  0  0  0  0  0
  -28.1391  -28.5445   21.3101 H   0  0  0  0  0  0
  -25.8775  -25.7155   18.9838 H   0  0  0  0  0  0
  -24.0175  -27.2601   18.9306 H   0  0  0  0  0  0
  -23.8870  -30.5079   19.3850 H   0  0  0  0  0  0
  -22.8356  -29.1976   19.8221 H   0  0  0  0  0  0
  -25.1340  -36.1745   25.0787 H   0  0  0  0  0  0
  -21.0046  -28.3374   24.1298 H   0  0  0  0  0  0
  -20.5677  -26.2378   23.3648 H   0  0  0  0  0  0
  -21.6664  -26.7401   22.1214 H   0  0  0  0  0  0
  -19.6935  -25.6269   21.1280 H   0  0  0  0  0  0
  -19.6719  -27.3152   20.6721 H   0  0  0  0  0  0
  -17.4229  -26.6685   21.4023 H   0  0  0  0  0  0
  -18.0353  -26.0093   22.9027 H   0  0  0  0  0  0
  -19.7973  -30.7326   24.2186 H   0  0  0  0  0  0
  -17.5040  -31.6270   24.5169 H   0  0  0  0  0  0
  -15.5377  -30.2967   23.7699 H   0  0  0  0  0  0
  -15.8710  -28.0806   22.7100 H   0  0  0  0  0  0
  -24.5882  -30.7120   25.7650 H   0  0  0  0  0  0
  -24.8856  -32.2990   26.4638 H   0  0  0  0  0  0
  -25.7906  -30.9037   27.0209 H   0  0  0  0  0  0
  -26.3157  -29.6538   24.1468 H   0  0  0  0  0  0
  -27.3983  -29.7279   25.5146 H   0  0  0  0  0  0
  -27.9109  -30.4055   23.9913 H   0  0  0  0  0  0
  -27.2611  -33.3694   26.1942 H   0  0  0  0  0  0
  -28.3934  -32.6834   25.0384 H   0  0  0  0  0  0
  -28.0641  -31.8567   26.5532 H   0  0  0  0  0  0
  -28.2574  -38.0066   24.7506 H   0  0  0  0  0  0
  -28.1080  -36.2592   24.6310 H   0  0  0  0  0  0
  -27.2282  -37.1417   25.8869 H   0  0  0  0  0  0
  -20.9609  -29.8717   21.6628 H   0  0  0  0  0  0
  -26.0127  -38.2752   24.1403 H   0  0  0  0  0  0
  -27.5235  -23.1007   22.3754 H   0  0  0  0  0  0
  -27.9915  -21.4044   22.3645 H   0  0  0  0  0  0
  -26.6709  -21.9592   21.3383 H   0  0  0  0  0  0
  -28.1546  -21.6793   18.0433 H   0  0  0  0  0  0
  -27.0739  -20.6133   18.9351 H   0  0  0  0  0  0
  -28.4065  -19.9432   17.9943 H   0  0  0  0  0  0
  -27.1130  -23.9839   19.6100 H   0  0  0  0  0  0
  -28.6765  -24.1545   18.9476 H   0  0  0  0  0  0
  -29.5821  -22.7499   21.0990 H   0  0  0  0  0  0
  -30.0223  -21.0428   19.4655 H   0  0  0  0  0  0
  -28.7599  -16.5016   20.7976 H   0  0  0  0  0  0
  -28.3647  -19.0591   21.0868 H   0  0  0  0  0  0
  1 25  1  0  0  0
  1 30  2  0  0  0
  1 77  1  0  0  0
  2  3  1  0  0  0
  2 25  1  0  0  0
  2 80  1  0  0  0
  2 81  1  0  0  0
  3  4  1  0  0  0
  3 82  1  0  0  0
  3 83  1  0  0  0
  4  5  1  0  0  0
  4 84  1  0  0  0
  4 85  1  0  0  0
  5  6  1  0  0  0
  5 26  1  0  0  0
  5 86  1  0  0  0
  6 25  1  0  0  0
  6 87  1  0  0  0
  6 88  1  0  0  0
  7  8  2  0  0  0
  7 26  1  0  0  0
  7 29  1  0  0  0
  8  9  1  0  0  0
  8 22  1  0  0  0
  9 10  1  0  0  0
  9 27  2  0  0  0
 10 11  2  0  0  0
 10 15  1  0  0  0
 11 12  1  0  0  0
 11 89  1  0  0  0
 12 13  2  0  0  0
 12 90  1  0  0  0
 13 14  1  0  0  0
 13 31  1  0  0  0
 14 15  2  0  0  0
 14 91  1  0  0  0
 15 92  1  0  0  0
 16 17  2  0  0  0
 16 21  1  0  0  0
 16 31  1  0  0  0
 17 18  1  0  0  0
 17 93  1  0  0  0
 18 19  2  0  0  0
 18 94  1  0  0  0
 19 20  1  0  0  0
 19 24  1  0  0  0
 20 21  2  0  0  0
 20 95  1  0  0  0
 21 23  1  0  0  0
 22 28  1  0  0  0
 22 32  2  0  0  0
 26 27  1  0  0  0
 28 96  1  0  0  0
 28 97  1  0  0  0
 29 98  1  0  0  0
 29 99  1  0  0  0
 33 34  1  0  0  0
 33 66  1  0  0  0
 33 70  2  0  0  0
 34 36  1  0  0  0
 34 59  1  0  0  0
 34100  1  0  0  0
 35 44  2  0  0  0
 35 45  1  0  0  0
 35 68  1  0  0  0
 36 56  1  0  0  0
 36101  1  0  0  0
 37 39  1  0  0  0
 37 47  1  0  0  0
 37 66  1  0  0  0
 37102  1  0  0  0
 38 43  2  0  0  0
 38 46  1  0  0  0
 38 47  1  0  0  0
 39 64  1  0  0  0
 39 67  2  0  0  0
 40 52  1  0  0  0
 40 53  2  0  0  0
 40 58  1  0  0  0
 41103  1  0  0  0
 41104  1  0  0  0
 41105  1  0  0  0
 41 48  1  0  0  0
 42 43  1  0  0  0
 42 66  1  0  0  0
 42106  1  0  0  0
 42107  1  0  0  0
 43 44  1  0  0  0
 44108  1  0  0  0
 45 46  2  0  0  0
 45109  1  0  0  0
 46110  1  0  0  0
 47111  1  0  0  0
 47112  1  0  0  0
 48 56  1  0  0  0
 48 65  1  0  0  0
 48113  1  0  0  0
 49 50  1  0  0  0
 49 53  1  0  0  0
 49 64  1  0  0  0
 49114  1  0  0  0
 50 51  1  0  0  0
 50115  1  0  0  0
 50116  1  0  0  0
 51 52  1  0  0  0
 51117  1  0  0  0
 51118  1  0  0  0
 52119  1  0  0  0
 52120  1  0  0  0
 53 54  1  0  0  0
 54 55  2  0  0  0
 54121  1  0  0  0
 55 57  1  0  0  0
 55122  1  0  0  0
 56 69  2  0  0  0
 57 58  2  0  0  0
 57123  1  0  0  0
 58124  1  0  0  0
 59 60  1  0  0  0
 59 61  1  0  0  0
 59 62  1  0  0  0
 60125  1  0  0  0
 60126  1  0  0  0
 60127  1  0  0  0
 61128  1  0  0  0
 61129  1  0  0  0
 61130  1  0  0  0
 62131  1  0  0  0
 62132  1  0  0  0
 62133  1  0  0  0
 63 65  1  0  0  0
 63134  1  0  0  0
 63135  1  0  0  0
 63136  1  0  0  0
 64137  1  0  0  0
 65138  1  0  0  0
 68 74  1  0  0  0
 71 77  1  0  0  0
 71 78  1  0  0  0
 71 79  2  0  0  0
 72139  1  0  0  0
 72140  1  0  0  0
 72141  1  0  0  0
 72 75  1  0  0  0
 73142  1  0  0  0
 73143  1  0  0  0
 73144  1  0  0  0
 73 76  1  0  0  0
 74 75  1  0  0  0
 74145  1  0  0  0
 74146  1  0  0  0
 75 76  1  0  0  0
 75147  1  0  0  0
 76 78  1  0  0  0
 76148  1  0  0  0
 77149  1  0  0  0
 78150  1  0  0  0
M  ISO  4   1 100  68 101  74 101  77 100
M  END
> <chiral flag>
0

> <version>
0

> <s_m_source_file>
/data/baiqing/PycharmProjects/Reinvent-master-3.2/result/LINK_invent/BTK/process_docking_weight1_custom_product_contain_oxygen_bond_distance_aromatic_linkinvent_7_9_3/rearranged_h_0187.sdf

> <i_m_source_file_index>
34

> <r_mmod_Potential_Energy-OPLS-2005>
1461.36303710938

> <r_mmod_Stretch_Energy-OPLS-2005>
694.600158691406

> <r_mmod_Bend_Energy-OPLS-2005>
492.864776611328

> <r_mmod_Torsional_Energy-OPLS-2005>
231.162857055664

> <r_mmod_Improper_Torsional_Energy-OPLS-2005>
3.55842590332031

> <r_mmod_Van_der_Waal_Energy-OPLS-2005>
114.977005004883

> <r_mmod_Electrostatic_Energy-OPLS-2005>
-351.247985839844

> <r_mmod_Solvation_Energy-OPLS-2005>
-251.982955932617

> <b_mmod_Minimization_Converged-OPLS-2005>
0

> <r_mmod_RMS_Derivative-OPLS-2005>
0.478058069944382

$$$$
35
                    3D
 Structure written by MMmdl.
162170  0  0  1  0            999 V2000
  -30.6650  -14.5332   20.5067 C   0  0  0  0  0  0
  -30.4111  -12.3225   19.4437 C   0  0  0  0  0  0
  -29.5055  -12.5387   18.2100 C   0  0  0  0  0  0
  -28.0157  -12.4197   18.5962 C   0  0  0  0  0  0
  -27.6562  -13.2281   19.8769 C   0  0  2  0  0  0
  -28.6990  -13.0234   21.0022 C   0  0  0  0  0  0
  -25.2587  -13.8170   20.5743 C   0  0  0  0  0  0
  -24.1884  -13.0365   20.9216 C   0  0  0  0  0  0
  -24.6471  -11.6870   20.8724 C   0  0  0  0  0  0
  -23.9117  -10.4257   21.0393 C   0  0  0  0  0  0
  -24.3652   -9.4181   21.9192 C   0  0  0  0  0  0
  -23.6310   -8.2242   22.0771 C   0  0  0  0  0  0
  -22.4297   -8.0296   21.3549 C   0  0  0  0  0  0
  -21.9932   -9.0261   20.4668 C   0  0  0  0  0  0
  -22.7273  -10.2138   20.3072 C   0  0  0  0  0  0
  -21.6871   -6.0774   22.5275 C   0  0  0  0  0  0
  -21.4010   -6.5663   23.8208 C   0  0  0  0  0  0
  -21.3681   -5.6810   24.9173 C   0  0  0  0  0  0
  -21.6061   -4.3063   24.7216 C   0  0  0  0  0  0
  -21.8808   -3.8172   23.4335 C   0  0  0  0  0  0
  -21.9177   -4.7010   22.3394 C   0  0  0  0  0  0
  -22.7907  -13.5184   21.1839 C   0  0  0  0  0  0
  -22.1660   -4.2201   21.0972 F   0  0  0  0  0  0
  -21.5628   -3.4540   25.7733 F   0  0  0  0  0  0
  -30.0224  -13.3321   20.4473 N   0  0  0  0  0  0
  -26.3032  -12.9360   20.3375 N   0  0  0  0  0  0
  -25.9395  -11.6496   20.5711 N   0  0  0  0  0  0
  -22.0521  -12.8200   22.0378 N   0  0  0  0  0  0
  -25.4137  -15.1898   20.4171 N   0  0  0  0  0  0
  -31.8390  -14.6560   20.1466 O   0  0  0  0  0  0
  -21.6649   -6.8925   21.4244 O   0  0  0  0  0  0
  -22.3627  -14.5491   20.6687 O   0  0  0  0  0  0
  -24.6241  -31.8607   23.2106 C   0  0  0  0  0  0
  -25.9139  -32.4759   23.8407 C   0  0  1  0  0  0
  -27.2454  -27.4060   20.1556 C   0  0  0  0  0  0
  -25.6011  -33.8592   24.2337 N   0  0  0  0  0  0
  -23.4095  -30.4862   21.5468 C   0  0  2  0  0  0
  -24.8548  -28.9426   20.1292 C   0  0  0  0  0  0
  -22.7441  -29.4659   22.4986 C   0  0  0  0  0  0
  -18.0300  -28.1394   22.8443 C   0  0  0  0  0  0
  -24.1469  -36.7338   23.2635 C   0  0  0  0  0  0
  -25.9371  -30.8259   21.3595 C   0  0  0  0  0  0
  -26.0121  -29.4509   20.7355 C   0  0  0  0  0  0
  -27.2110  -28.6924   20.7437 C   0  0  0  0  0  0
  -26.0744  -26.9177   19.5371 C   0  0  0  0  0  0
  -24.8858  -27.6723   19.5251 C   0  0  0  0  0  0
  -23.6201  -29.8165   20.1627 C   0  0  0  0  0  0
  -25.4095  -36.3078   24.0294 C   0  0  1  0  0  0
  -20.5885  -28.3694   23.1344 C   0  0  2  0  0  0
  -20.6745  -26.9437   22.5473 C   0  0  0  0  0  0
  -19.5780  -26.6419   21.5202 C   0  0  0  0  0  0
  -18.1907  -26.7953   22.1520 C   0  0  0  0  0  0
  -19.1535  -28.8860   23.2880 C   0  0  0  0  0  0
  -18.9458  -30.1454   23.8919 C   0  0  0  0  0  0
  -17.6451  -30.6551   24.0607 C   0  0  0  0  0  0
  -25.9052  -34.9458   23.5105 C   0  0  0  0  0  0
  -16.5356  -29.9036   23.6356 C   0  0  0  0  0  0
  -16.7282  -28.6507   23.0313 C   0  0  0  0  0  0
  -26.4568  -31.6536   25.0725 C   0  0  0  0  0  0
  -25.3843  -31.3669   26.1461 C   0  0  0  0  0  0
  -27.0360  -30.2946   24.6147 C   0  0  0  0  0  0
  -27.6102  -32.4280   25.7499 C   0  0  0  0  0  0
  -27.5541  -37.1796   24.8462 C   0  0  0  0  0  0
  -21.4162  -29.3057   22.3727 N   0  0  0  0  0  0
  -26.4276  -37.3767   23.9383 N   0  0  0  0  0  0
  -24.6751  -31.0722   22.0996 N   0  0  0  0  0  0
  -23.4175  -28.8213   23.3071 O   0  0  0  0  0  0
  -28.4245  -26.7027   19.9933 O   0  0  0  0  0  0
  -26.5577  -34.8917   22.4639 O   0  0  0  0  0  0
  -23.5450  -32.1383   23.7509 O   0  0  0  0  0  0
  -30.9097  -19.0383   21.0261 C   0  0  0  0  0  0
  -29.8795  -18.2483   20.5545 C   0  0  0  0  0  0
  -29.2208  -20.6085   21.1797 C   0  0  0  0  0  0
  -29.1232  -23.1424   21.1017 C   0  0  0  0  0  0
  -32.3518  -18.6330   21.1366 C   0  0  0  0  0  0
  -29.2199  -16.7930   18.5657 C   0  0  0  0  0  0
  -27.3495  -24.4654   22.5334 C   0  0  0  0  0  0
  -29.5038  -26.5572   22.2473 C   0  0  0  0  0  0
  -30.0343  -16.8803   19.8715 C   0  0  2  0  0  0
  -28.2236  -24.4394   21.2452 C   0  0  1  0  0  0
  -28.9761  -25.8193   21.0001 C   0  0  1  0  0  0
  -30.5294  -20.3560   21.3568 N   0  0  0  0  0  0
  -28.6115  -21.9104   21.3800 N   0  0  0  0  0  0
  -29.8739  -15.6330   20.6742 N   0  0  0  0  0  0
  -30.2688  -23.2579   20.6625 O   0  0  0  0  0  0
  -28.3542  -19.1424   20.6643 S   0  0  0  0  0  0
  -31.4613  -12.3973   19.1642 H   0  0  0  0  0  0
  -30.2761  -11.3164   19.8435 H   0  0  0  0  0  0
  -29.7469  -11.8128   17.4357 H   0  0  0  0  0  0
  -29.7035  -13.5172   17.7680 H   0  0  0  0  0  0
  -27.7877  -11.3618   18.7300 H   0  0  0  0  0  0
  -27.3942  -12.7675   17.7689 H   0  0  0  0  0  0
  -27.6816  -14.2807   19.5961 H   0  0  0  0  0  0
  -28.6787  -11.9902   21.3534 H   0  0  0  0  0  0
  -28.4790  -13.6428   21.8732 H   0  0  0  0  0  0
  -25.2761   -9.5687   22.4830 H   0  0  0  0  0  0
  -24.0008   -7.4644   22.7508 H   0  0  0  0  0  0
  -21.0873   -8.8750   19.8968 H   0  0  0  0  0  0
  -22.3680  -10.9691   19.6214 H   0  0  0  0  0  0
  -21.2005   -7.6173   23.9733 H   0  0  0  0  0  0
  -21.1524   -6.0547   25.9081 H   0  0  0  0  0  0
  -22.0589   -2.7638   23.2806 H   0  0  0  0  0  0
  -22.4022  -11.9804   22.4750 H   0  0  0  0  0  0
  -21.1167  -13.1315   22.2533 H   0  0  0  0  0  0
  -24.6224  -15.8169   20.5244 H   0  0  0  0  0  0
  -26.2446  -15.6551   20.0717 H   0  0  0  0  0  0
  -26.7203  -32.5445   23.1169 H   0  0  0  0  0  0
  -25.0129  -33.9797   25.0465 H   0  0  0  0  0  0
  -22.7059  -31.3083   21.4029 H   0  0  0  0  0  0
  -23.3680  -35.9724   23.3257 H   0  0  0  0  0  0
  -24.3615  -36.9024   22.2076 H   0  0  0  0  0  0
  -23.7245  -37.6547   23.6683 H   0  0  0  0  0  0
  -26.0418  -31.5725   20.5722 H   0  0  0  0  0  0
  -26.8362  -30.9019   21.9589 H   0  0  0  0  0  0
  -28.1076  -29.1043   21.1850 H   0  0  0  0  0  0
  -26.0933  -25.9568   19.0372 H   0  0  0  0  0  0
  -24.0070  -27.2777   19.0288 H   0  0  0  0  0  0
  -23.7322  -30.5899   19.3983 H   0  0  0  0  0  0
  -22.7455  -29.2353   19.8632 H   0  0  0  0  0  0
  -25.1250  -36.1902   25.0769 H   0  0  0  0  0  0
  -21.0046  -28.3195   24.1440 H   0  0  0  0  0  0
  -20.5539  -26.2364   23.3669 H   0  0  0  0  0  0
  -21.6636  -26.7441   22.1381 H   0  0  0  0  0  0
  -19.7029  -25.6346   21.1238 H   0  0  0  0  0  0
  -19.6691  -27.3242   20.6715 H   0  0  0  0  0  0
  -17.4234  -26.6830   21.3835 H   0  0  0  0  0  0
  -18.0144  -26.0057   22.8841 H   0  0  0  0  0  0
  -19.7948  -30.7239   24.2306 H   0  0  0  0  0  0
  -17.5009  -31.6210   24.5241 H   0  0  0  0  0  0
  -15.5356  -30.2896   23.7702 H   0  0  0  0  0  0
  -15.8689  -28.0853   22.6956 H   0  0  0  0  0  0
  -24.6065  -30.6939   25.7802 H   0  0  0  0  0  0
  -24.9035  -32.2873   26.4794 H   0  0  0  0  0  0
  -25.8286  -30.8921   27.0220 H   0  0  0  0  0  0
  -26.2882  -29.6662   24.1300 H   0  0  0  0  0  0
  -27.4144  -29.7216   25.4609 H   0  0  0  0  0  0
  -27.8718  -30.4155   23.9256 H   0  0  0  0  0  0
  -27.2686  -33.3583   26.2036 H   0  0  0  0  0  0
  -28.3982  -32.6839   25.0399 H   0  0  0  0  0  0
  -28.0682  -31.8415   26.5467 H   0  0  0  0  0  0
  -28.2552  -38.0080   24.7455 H   0  0  0  0  0  0
  -28.1013  -36.2620   24.6291 H   0  0  0  0  0  0
  -27.2301  -37.1464   25.8880 H   0  0  0  0  0  0
  -20.9318  -29.8727   21.6903 H   0  0  0  0  0  0
  -26.0108  -38.2809   24.1433 H   0  0  0  0  0  0
  -32.4548  -17.6921   21.6785 H   0  0  0  0  0  0
  -32.9369  -19.3800   21.6695 H   0  0  0  0  0  0
  -32.8172  -18.4868   20.1613 H   0  0  0  0  0  0
  -29.4976  -17.6157   17.9075 H   0  0  0  0  0  0
  -28.1433  -16.8651   18.7271 H   0  0  0  0  0  0
  -29.4184  -15.8713   18.0178 H   0  0  0  0  0  0
  -26.5149  -23.7691   22.4610 H   0  0  0  0  0  0
  -26.8975  -25.4461   22.7099 H   0  0  0  0  0  0
  -27.9282  -24.2206   23.4272 H   0  0  0  0  0  0
  -30.0520  -25.8785   22.9052 H   0  0  0  0  0  0
  -28.7137  -27.0191   22.8355 H   0  0  0  0  0  0
  -30.2034  -27.3424   21.9586 H   0  0  0  0  0  0
  -31.0592  -16.8674   19.4992 H   0  0  0  0  0  0
  -27.5226  -24.3539   20.4152 H   0  0  0  0  0  0
  -29.9093  -25.5836   20.4891 H   0  0  0  0  0  0
  -27.6427  -21.9065   21.6630 H   0  0  0  0  0  0
  -28.9686  -15.4712   21.0868 H   0  0  0  0  0  0
  1 25  1  0  0  0
  1 30  2  0  0  0
  1 84  1  0  0  0
  2  3  1  0  0  0
  2 25  1  0  0  0
  2 87  1  0  0  0
  2 88  1  0  0  0
  3  4  1  0  0  0
  3 89  1  0  0  0
  3 90  1  0  0  0
  4  5  1  0  0  0
  4 91  1  0  0  0
  4 92  1  0  0  0
  5  6  1  0  0  0
  5 26  1  0  0  0
  5 93  1  0  0  0
  6 25  1  0  0  0
  6 94  1  0  0  0
  6 95  1  0  0  0
  7  8  2  0  0  0
  7 26  1  0  0  0
  7 29  1  0  0  0
  8  9  1  0  0  0
  8 22  1  0  0  0
  9 10  1  0  0  0
  9 27  2  0  0  0
 10 11  2  0  0  0
 10 15  1  0  0  0
 11 12  1  0  0  0
 11 96  1  0  0  0
 12 13  2  0  0  0
 12 97  1  0  0  0
 13 14  1  0  0  0
 13 31  1  0  0  0
 14 15  2  0  0  0
 14 98  1  0  0  0
 15 99  1  0  0  0
 16 17  2  0  0  0
 16 21  1  0  0  0
 16 31  1  0  0  0
 17 18  1  0  0  0
 17100  1  0  0  0
 18 19  2  0  0  0
 18101  1  0  0  0
 19 20  1  0  0  0
 19 24  1  0  0  0
 20 21  2  0  0  0
 20102  1  0  0  0
 21 23  1  0  0  0
 22 28  1  0  0  0
 22 32  2  0  0  0
 26 27  1  0  0  0
 28103  1  0  0  0
 28104  1  0  0  0
 29105  1  0  0  0
 29106  1  0  0  0
 33 34  1  0  0  0
 33 66  1  0  0  0
 33 70  2  0  0  0
 34 36  1  0  0  0
 34 59  1  0  0  0
 34107  1  0  0  0
 35 44  2  0  0  0
 35 45  1  0  0  0
 35 68  1  0  0  0
 36 56  1  0  0  0
 36108  1  0  0  0
 37 39  1  0  0  0
 37 47  1  0  0  0
 37 66  1  0  0  0
 37109  1  0  0  0
 38 43  2  0  0  0
 38 46  1  0  0  0
 38 47  1  0  0  0
 39 64  1  0  0  0
 39 67  2  0  0  0
 40 52  1  0  0  0
 40 53  2  0  0  0
 40 58  1  0  0  0
 41110  1  0  0  0
 41111  1  0  0  0
 41112  1  0  0  0
 41 48  1  0  0  0
 42 43  1  0  0  0
 42 66  1  0  0  0
 42113  1  0  0  0
 42114  1  0  0  0
 43 44  1  0  0  0
 44115  1  0  0  0
 45 46  2  0  0  0
 45116  1  0  0  0
 46117  1  0  0  0
 47118  1  0  0  0
 47119  1  0  0  0
 48 56  1  0  0  0
 48 65  1  0  0  0
 48120  1  0  0  0
 49 50  1  0  0  0
 49 53  1  0  0  0
 49 64  1  0  0  0
 49121  1  0  0  0
 50 51  1  0  0  0
 50122  1  0  0  0
 50123  1  0  0  0
 51 52  1  0  0  0
 51124  1  0  0  0
 51125  1  0  0  0
 52126  1  0  0  0
 52127  1  0  0  0
 53 54  1  0  0  0
 54 55  2  0  0  0
 54128  1  0  0  0
 55 57  1  0  0  0
 55129  1  0  0  0
 56 69  2  0  0  0
 57 58  2  0  0  0
 57130  1  0  0  0
 58131  1  0  0  0
 59 60  1  0  0  0
 59 61  1  0  0  0
 59 62  1  0  0  0
 60132  1  0  0  0
 60133  1  0  0  0
 60134  1  0  0  0
 61135  1  0  0  0
 61136  1  0  0  0
 61137  1  0  0  0
 62138  1  0  0  0
 62139  1  0  0  0
 62140  1  0  0  0
 63 65  1  0  0  0
 63141  1  0  0  0
 63142  1  0  0  0
 63143  1  0  0  0
 64144  1  0  0  0
 65145  1  0  0  0
 68 81  1  0  0  0
 71 72  2  0  0  0
 71 75  1  0  0  0
 71 82  1  0  0  0
 72 79  1  0  0  0
 72 86  1  0  0  0
 73 82  2  0  0  0
 73 83  1  0  0  0
 73 86  1  0  0  0
 74 80  1  0  0  0
 74 83  1  0  0  0
 74 85  2  0  0  0
 75146  1  0  0  0
 75147  1  0  0  0
 75148  1  0  0  0
 76149  1  0  0  0
 76150  1  0  0  0
 76151  1  0  0  0
 76 79  1  0  0  0
 77152  1  0  0  0
 77153  1  0  0  0
 77154  1  0  0  0
 77 80  1  0  0  0
 78155  1  0  0  0
 78156  1  0  0  0
 78157  1  0  0  0
 78 81  1  0  0  0
 79 84  1  0  0  0
 79158  1  0  0  0
 80 81  1  0  0  0
 80159  1  0  0  0
 81160  1  0  0  0
 83161  1  0  0  0
 84162  1  0  0  0
M  ISO  4   1 100  68 101  81 101  84 100
M  END
> <chiral flag>
0

> <version>
0

> <s_m_source_file>
/data/baiqing/PycharmProjects/Reinvent-master-3.2/result/LINK_invent/BTK/process_docking_weight1_custom_product_contain_oxygen_bond_distance_aromatic_linkinvent_7_9_3/rearranged_h_0187.sdf

> <i_m_source_file_index>
35

> <r_mmod_Potential_Energy-OPLS-2005>
-66.1140975952148

> <r_mmod_Stretch_Energy-OPLS-2005>
58.0560569763184

> <r_mmod_Bend_Energy-OPLS-2005>
149.322723388672

> <r_mmod_Torsional_Energy-OPLS-2005>
257.88037109375

> <r_mmod_Improper_Torsional_Energy-OPLS-2005>
11.6323757171631

> <r_mmod_Van_der_Waal_Energy-OPLS-2005>
115.68431854248

> <r_mmod_Electrostatic_Energy-OPLS-2005>
-437.050659179688

> <r_mmod_Solvation_Energy-OPLS-2005>
-240.678558349609

> <b_mmod_Minimization_Converged-OPLS-2005>
0

> <r_mmod_RMS_Derivative-OPLS-2005>
7.73542976379395

$$$$
36
                    3D
 Structure written by MMmdl.
154162  0  0  1  0            999 V2000
  -30.7197  -14.5599   20.4561 C   0  0  0  0  0  0
  -30.4073  -12.3360   19.4581 C   0  0  0  0  0  0
  -29.5013  -12.5013   18.2210 C   0  0  0  0  0  0
  -28.0179  -12.3743   18.6150 C   0  0  0  0  0  0
  -27.6458  -13.2350   19.8535 C   0  0  2  0  0  0
  -28.6923  -13.1156   20.9853 C   0  0  0  0  0  0
  -25.2513  -13.8234   20.5684 C   0  0  0  0  0  0
  -24.1801  -13.0460   20.9189 C   0  0  0  0  0  0
  -24.6398  -11.6952   20.8705 C   0  0  0  0  0  0
  -23.9059  -10.4316   21.0334 C   0  0  0  0  0  0
  -24.3606   -9.4238   21.9138 C   0  0  0  0  0  0
  -23.6307   -8.2275   22.0715 C   0  0  0  0  0  0
  -22.4289   -8.0280   21.3515 C   0  0  0  0  0  0
  -21.9921   -9.0235   20.4604 C   0  0  0  0  0  0
  -22.7228  -10.2126   20.3009 C   0  0  0  0  0  0
  -21.6896   -6.0727   22.5277 C   0  0  0  0  0  0
  -21.4019   -6.5626   23.8195 C   0  0  0  0  0  0
  -21.3702   -5.6778   24.9165 C   0  0  0  0  0  0
  -21.6058   -4.3035   24.7213 C   0  0  0  0  0  0
  -21.8834   -3.8132   23.4337 C   0  0  0  0  0  0
  -21.9197   -4.6960   22.3385 C   0  0  0  0  0  0
  -22.7817  -13.5205   21.1863 C   0  0  0  0  0  0
  -22.1658   -4.2126   21.0970 F   0  0  0  0  0  0
  -21.5623   -3.4534   25.7737 F   0  0  0  0  0  0
  -30.0220  -13.3854   20.4193 N   0  0  0  0  0  0
  -26.2948  -12.9436   20.3297 N   0  0  0  0  0  0
  -25.9335  -11.6576   20.5766 N   0  0  0  0  0  0
  -22.0484  -12.8178   22.0404 N   0  0  0  0  0  0
  -25.4187  -15.1953   20.4041 N   0  0  0  0  0  0
  -31.9011  -14.5842   20.1025 O   0  0  0  0  0  0
  -21.6659   -6.8883   21.4233 O   0  0  0  0  0  0
  -22.3510  -14.5544   20.6756 O   0  0  0  0  0  0
  -24.6213  -31.8665   23.2158 C   0  0  0  0  0  0
  -25.9118  -32.4797   23.8451 C   0  0  1  0  0  0
  -27.2175  -27.3957   20.1046 C   0  0  0  0  0  0
  -25.5975  -33.8595   24.2377 N   0  0  0  0  0  0
  -23.4100  -30.4967   21.5507 C   0  0  2  0  0  0
  -24.8545  -28.9627   20.1146 C   0  0  0  0  0  0
  -22.7448  -29.4692   22.4966 C   0  0  0  0  0  0
  -18.0264  -28.1424   22.8458 C   0  0  0  0  0  0
  -24.1477  -36.7276   23.2647 C   0  0  0  0  0  0
  -25.9462  -30.8192   21.3763 C   0  0  0  0  0  0
  -26.0187  -29.4511   20.7232 C   0  0  0  0  0  0
  -27.2054  -28.6760   20.7163 C   0  0  0  0  0  0
  -26.0505  -26.9541   19.4450 C   0  0  0  0  0  0
  -24.8674  -27.7160   19.4671 C   0  0  0  0  0  0
  -23.6224  -29.8413   20.1611 C   0  0  0  0  0  0
  -25.4106  -36.3085   24.0342 C   0  0  1  0  0  0
  -20.5863  -28.3725   23.1280 C   0  0  2  0  0  0
  -20.6766  -26.9439   22.5409 C   0  0  0  0  0  0
  -19.5737  -26.6406   21.5217 C   0  0  0  0  0  0
  -18.1918  -26.7955   22.1605 C   0  0  0  0  0  0
  -19.1519  -28.8879   23.2870 C   0  0  0  0  0  0
  -18.9453  -30.1480   23.8899 C   0  0  0  0  0  0
  -17.6462  -30.6614   24.0583 C   0  0  0  0  0  0
  -25.9053  -34.9440   23.5146 C   0  0  0  0  0  0
  -16.5349  -29.9128   23.6337 C   0  0  0  0  0  0
  -16.7262  -28.6554   23.0339 C   0  0  0  0  0  0
  -26.4534  -31.6606   25.0796 C   0  0  0  0  0  0
  -25.3801  -31.3676   26.1547 C   0  0  0  0  0  0
  -27.0426  -30.3042   24.6245 C   0  0  0  0  0  0
  -27.6115  -32.4351   25.7513 C   0  0  0  0  0  0
  -27.5572  -37.1788   24.8486 C   0  0  0  0  0  0
  -21.4172  -29.3081   22.3686 N   0  0  0  0  0  0
  -26.4281  -37.3782   23.9433 N   0  0  0  0  0  0
  -24.6775  -31.0769   22.1052 N   0  0  0  0  0  0
  -23.4208  -28.8203   23.2997 O   0  0  0  0  0  0
  -28.3464  -26.5966   20.0894 O   0  0  0  0  0  0
  -26.5550  -34.8871   22.4665 O   0  0  0  0  0  0
  -23.5383  -32.1425   23.7524 O   0  0  0  0  0  0
  -29.6297  -18.1301   21.0416 C   0  0  0  0  0  0
  -29.1373  -18.2263   22.3338 C   0  0  0  0  0  0
  -28.8533  -20.3182   21.0201 C   0  0  0  0  0  0
  -30.4555  -16.9825   20.4803 C   0  0  0  0  0  0
  -28.3440  -22.7794   21.0925 C   0  0  0  0  0  0
  -28.3236  -25.3994   20.9254 C   0  0  0  0  0  0
  -27.8676  -24.0259   20.2884 C   0  0  2  0  0  0
  -29.4470  -19.3379   20.3165 N   0  0  0  0  0  0
  -29.2086  -17.3149   23.3889 N   0  0  0  0  0  0
  -28.6025  -21.6126   20.4433 N   0  0  0  0  0  0
  -30.0317  -15.7048   20.7214 N   0  0  0  0  0  0
  -26.3930  -23.9232   20.2316 N   0  3  0  0  0  0
  -31.4576  -17.2635   19.8050 O   0  0  0  0  0  0
  -28.4108  -22.8756   22.3182 O   0  0  0  0  0  0
  -28.4119  -19.7917   22.6464 S   0  0  0  0  0  0
  -31.4529  -12.3933   19.1548 H   0  0  0  0  0  0
  -30.2815  -11.3481   19.9046 H   0  0  0  0  0  0
  -29.7501  -11.7514   17.4708 H   0  0  0  0  0  0
  -29.6826  -13.4748   17.7613 H   0  0  0  0  0  0
  -27.8145  -11.3209   18.8166 H   0  0  0  0  0  0
  -27.3857  -12.6470   17.7680 H   0  0  0  0  0  0
  -27.6534  -14.2723   19.5219 H   0  0  0  0  0  0
  -28.6700  -12.1161   21.4198 H   0  0  0  0  0  0
  -28.4548  -13.8041   21.7967 H   0  0  0  0  0  0
  -25.2739   -9.5746   22.4712 H   0  0  0  0  0  0
  -24.0032   -7.4671   22.7444 H   0  0  0  0  0  0
  -21.0850   -8.8741   19.8907 H   0  0  0  0  0  0
  -22.3655  -10.9649   19.6120 H   0  0  0  0  0  0
  -21.2010   -7.6129   23.9707 H   0  0  0  0  0  0
  -21.1514   -6.0487   25.9066 H   0  0  0  0  0  0
  -22.0582   -2.7597   23.2829 H   0  0  0  0  0  0
  -22.4145  -11.9874   22.4823 H   0  0  0  0  0  0
  -21.1076  -13.1153   22.2580 H   0  0  0  0  0  0
  -24.6527  -15.8530   20.5142 H   0  0  0  0  0  0
  -26.2632  -15.6303   20.0575 H   0  0  0  0  0  0
  -26.7210  -32.5502   23.1231 H   0  0  0  0  0  0
  -25.0299  -33.9774   25.0631 H   0  0  0  0  0  0
  -22.7033  -31.3181   21.4156 H   0  0  0  0  0  0
  -23.3727  -35.9627   23.3339 H   0  0  0  0  0  0
  -24.3619  -36.8864   22.2072 H   0  0  0  0  0  0
  -23.7191  -37.6469   23.6647 H   0  0  0  0  0  0
  -26.0787  -31.5893   20.6141 H   0  0  0  0  0  0
  -26.8238  -30.8606   22.0088 H   0  0  0  0  0  0
  -28.1026  -29.0513   21.1850 H   0  0  0  0  0  0
  -26.0533  -26.0397   18.8747 H   0  0  0  0  0  0
  -23.9812  -27.3577   18.9619 H   0  0  0  0  0  0
  -23.7393  -30.6214   19.4081 H   0  0  0  0  0  0
  -22.7435  -29.2754   19.8524 H   0  0  0  0  0  0
  -25.1250  -36.1980   25.0826 H   0  0  0  0  0  0
  -20.9957  -28.3291   24.1412 H   0  0  0  0  0  0
  -20.5710  -26.2317   23.3613 H   0  0  0  0  0  0
  -21.6641  -26.7519   22.1178 H   0  0  0  0  0  0
  -19.6916  -25.6319   21.1263 H   0  0  0  0  0  0
  -19.6700  -27.3219   20.6738 H   0  0  0  0  0  0
  -17.4202  -26.6712   21.4007 H   0  0  0  0  0  0
  -18.0313  -26.0125   22.9008 H   0  0  0  0  0  0
  -19.7930  -30.7277   24.2306 H   0  0  0  0  0  0
  -17.5018  -31.6293   24.5183 H   0  0  0  0  0  0
  -15.5358  -30.3039   23.7673 H   0  0  0  0  0  0
  -15.8646  -28.0894   22.7055 H   0  0  0  0  0  0
  -24.5988  -30.7013   25.7876 H   0  0  0  0  0  0
  -24.8969  -32.2798   26.5048 H   0  0  0  0  0  0
  -25.8172  -30.8813   27.0279 H   0  0  0  0  0  0
  -26.3006  -29.6673   24.1414 H   0  0  0  0  0  0
  -27.4300  -29.7408   25.4751 H   0  0  0  0  0  0
  -27.8786  -30.4348   23.9368 H   0  0  0  0  0  0
  -27.2781  -33.3656   26.2099 H   0  0  0  0  0  0
  -28.3889  -32.6901   25.0313 H   0  0  0  0  0  0
  -28.0833  -31.8481   26.5413 H   0  0  0  0  0  0
  -28.2585  -38.0074   24.7532 H   0  0  0  0  0  0
  -28.1033  -36.2609   24.6300 H   0  0  0  0  0  0
  -27.2300  -37.1431   25.8882 H   0  0  0  0  0  0
  -20.9384  -29.8806   21.6886 H   0  0  0  0  0  0
  -26.0155  -38.2844   24.1469 H   0  0  0  0  0  0
  -29.3588  -25.2760   21.2494 H   0  0  0  0  0  0
  -27.7766  -25.6070   21.8465 H   0  0  0  0  0  0
  -28.2700  -23.9743   19.2758 H   0  0  0  0  0  0
  -29.9452  -16.6142   23.3779 H   0  0  0  0  0  0
  -29.0584  -17.6602   24.3338 H   0  0  0  0  0  0
  -28.6175  -21.6390   19.4343 H   0  0  0  0  0  0
  -29.1096  -15.6131   21.1132 H   0  0  0  0  0  0
  -26.0294  -23.7880   21.1618 H   0  0  0  0  0  0
  -26.1268  -23.1237   19.6831 H   0  0  0  0  0  0
  -25.9629  -24.7375   19.8274 H   0  0  0  0  0  0
  1 25  1  0  0  0
  1 30  2  0  0  0
  1 81  1  0  0  0
  2  3  1  0  0  0
  2 25  1  0  0  0
  2 86  1  0  0  0
  2 87  1  0  0  0
  3  4  1  0  0  0
  3 88  1  0  0  0
  3 89  1  0  0  0
  4  5  1  0  0  0
  4 90  1  0  0  0
  4 91  1  0  0  0
  5  6  1  0  0  0
  5 26  1  0  0  0
  5 92  1  0  0  0
  6 25  1  0  0  0
  6 93  1  0  0  0
  6 94  1  0  0  0
  7  8  2  0  0  0
  7 26  1  0  0  0
  7 29  1  0  0  0
  8  9  1  0  0  0
  8 22  1  0  0  0
  9 10  1  0  0  0
  9 27  2  0  0  0
 10 11  2  0  0  0
 10 15  1  0  0  0
 11 12  1  0  0  0
 11 95  1  0  0  0
 12 13  2  0  0  0
 12 96  1  0  0  0
 13 14  1  0  0  0
 13 31  1  0  0  0
 14 15  2  0  0  0
 14 97  1  0  0  0
 15 98  1  0  0  0
 16 17  2  0  0  0
 16 21  1  0  0  0
 16 31  1  0  0  0
 17 18  1  0  0  0
 17 99  1  0  0  0
 18 19  2  0  0  0
 18100  1  0  0  0
 19 20  1  0  0  0
 19 24  1  0  0  0
 20 21  2  0  0  0
 20101  1  0  0  0
 21 23  1  0  0  0
 22 28  1  0  0  0
 22 32  2  0  0  0
 26 27  1  0  0  0
 28102  1  0  0  0
 28103  1  0  0  0
 29104  1  0  0  0
 29105  1  0  0  0
 33 34  1  0  0  0
 33 66  1  0  0  0
 33 70  2  0  0  0
 34 36  1  0  0  0
 34 59  1  0  0  0
 34106  1  0  0  0
 35 44  2  0  0  0
 35 45  1  0  0  0
 35 68  1  0  0  0
 36 56  1  0  0  0
 36107  1  0  0  0
 37 39  1  0  0  0
 37 47  1  0  0  0
 37 66  1  0  0  0
 37108  1  0  0  0
 38 43  2  0  0  0
 38 46  1  0  0  0
 38 47  1  0  0  0
 39 64  1  0  0  0
 39 67  2  0  0  0
 40 52  1  0  0  0
 40 53  2  0  0  0
 40 58  1  0  0  0
 41109  1  0  0  0
 41110  1  0  0  0
 41111  1  0  0  0
 41 48  1  0  0  0
 42 43  1  0  0  0
 42 66  1  0  0  0
 42112  1  0  0  0
 42113  1  0  0  0
 43 44  1  0  0  0
 44114  1  0  0  0
 45 46  2  0  0  0
 45115  1  0  0  0
 46116  1  0  0  0
 47117  1  0  0  0
 47118  1  0  0  0
 48 56  1  0  0  0
 48 65  1  0  0  0
 48119  1  0  0  0
 49 50  1  0  0  0
 49 53  1  0  0  0
 49 64  1  0  0  0
 49120  1  0  0  0
 50 51  1  0  0  0
 50121  1  0  0  0
 50122  1  0  0  0
 51 52  1  0  0  0
 51123  1  0  0  0
 51124  1  0  0  0
 52125  1  0  0  0
 52126  1  0  0  0
 53 54  1  0  0  0
 54 55  2  0  0  0
 54127  1  0  0  0
 55 57  1  0  0  0
 55128  1  0  0  0
 56 69  2  0  0  0
 57 58  2  0  0  0
 57129  1  0  0  0
 58130  1  0  0  0
 59 60  1  0  0  0
 59 61  1  0  0  0
 59 62  1  0  0  0
 60131  1  0  0  0
 60132  1  0  0  0
 60133  1  0  0  0
 61134  1  0  0  0
 61135  1  0  0  0
 61136  1  0  0  0
 62137  1  0  0  0
 62138  1  0  0  0
 62139  1  0  0  0
 63 65  1  0  0  0
 63140  1  0  0  0
 63141  1  0  0  0
 63142  1  0  0  0
 64143  1  0  0  0
 65144  1  0  0  0
 68 76  1  0  0  0
 71 72  2  0  0  0
 71 74  1  0  0  0
 71 78  1  0  0  0
 72 79  1  0  0  0
 72 85  1  0  0  0
 73 78  2  0  0  0
 73 80  1  0  0  0
 73 85  1  0  0  0
 74 81  1  0  0  0
 74 83  2  0  0  0
 75 77  1  0  0  0
 75 80  1  0  0  0
 75 84  2  0  0  0
 76 77  1  0  0  0
 76145  1  0  0  0
 76146  1  0  0  0
 77 82  1  0  0  0
 77147  1  0  0  0
 79148  1  0  0  0
 79149  1  0  0  0
 80150  1  0  0  0
 81151  1  0  0  0
 82152  1  0  0  0
 82153  1  0  0  0
 82154  1  0  0  0
M  CHG  1  82   1
M  ISO  4   1 100  68 101  76 101  81 100
M  END
> <chiral flag>
0

> <version>
0

> <s_m_source_file>
/data/baiqing/PycharmProjects/Reinvent-master-3.2/result/LINK_invent/BTK/process_docking_weight1_custom_product_contain_oxygen_bond_distance_aromatic_linkinvent_7_9_3/rearranged_h_0187.sdf

> <i_m_source_file_index>
36

> <r_mmod_Potential_Energy-OPLS-2005>
-303.180541992188

> <r_mmod_Stretch_Energy-OPLS-2005>
52.3386878967285

> <r_mmod_Bend_Energy-OPLS-2005>
117.709426879883

> <r_mmod_Torsional_Energy-OPLS-2005>
270.190307617188

> <r_mmod_Improper_Torsional_Energy-OPLS-2005>
9.04263591766357

> <r_mmod_Van_der_Waal_Energy-OPLS-2005>
133.683532714844

> <r_mmod_Electrostatic_Energy-OPLS-2005>
-377.931823730469

> <r_mmod_Solvation_Energy-OPLS-2005>
-539.772155761719

> <b_mmod_Minimization_Converged-OPLS-2005>
0

> <r_mmod_RMS_Derivative-OPLS-2005>
5.63183546066284

$$$$
37
                    3D
 Structure written by MMmdl.
156164  0  0  1  0            999 V2000
  -30.6297  -14.5612   20.5287 C   0  0  0  0  0  0
  -30.4376  -12.3586   19.4146 C   0  0  0  0  0  0
  -29.4997  -12.5147   18.1982 C   0  0  0  0  0  0
  -28.0205  -12.3494   18.6107 C   0  0  0  0  0  0
  -27.6522  -13.2024   19.8552 C   0  0  2  0  0  0
  -28.6977  -13.0105   20.9768 C   0  0  0  0  0  0
  -25.2567  -13.8166   20.5651 C   0  0  0  0  0  0
  -24.1827  -13.0448   20.9184 C   0  0  0  0  0  0
  -24.6378  -11.6920   20.8731 C   0  0  0  0  0  0
  -23.9047  -10.4300   21.0393 C   0  0  0  0  0  0
  -24.3616   -9.4226   21.9171 C   0  0  0  0  0  0
  -23.6315   -8.2244   22.0761 C   0  0  0  0  0  0
  -22.4293   -8.0275   21.3575 C   0  0  0  0  0  0
  -21.9900   -9.0221   20.4654 C   0  0  0  0  0  0
  -22.7222  -10.2104   20.3051 C   0  0  0  0  0  0
  -21.6862   -6.0746   22.5305 C   0  0  0  0  0  0
  -21.4002   -6.5647   23.8242 C   0  0  0  0  0  0
  -21.3648   -5.6801   24.9199 C   0  0  0  0  0  0
  -21.6032   -4.3058   24.7253 C   0  0  0  0  0  0
  -21.8818   -3.8162   23.4373 C   0  0  0  0  0  0
  -21.9188   -4.6971   22.3435 C   0  0  0  0  0  0
  -22.7850  -13.5242   21.1833 C   0  0  0  0  0  0
  -22.1670   -4.2161   21.1004 F   0  0  0  0  0  0
  -21.5612   -3.4535   25.7764 F   0  0  0  0  0  0
  -30.0149  -13.3487   20.4177 N   0  0  0  0  0  0
  -26.2963  -12.9305   20.3244 N   0  0  0  0  0  0
  -25.9293  -11.6483   20.5717 N   0  0  0  0  0  0
  -22.0466  -12.8264   22.0383 N   0  0  0  0  0  0
  -25.4295  -15.1891   20.4096 N   0  0  0  0  0  0
  -31.7920  -14.7516   20.1632 O   0  0  0  0  0  0
  -21.6660   -6.8872   21.4267 O   0  0  0  0  0  0
  -22.3524  -14.5538   20.6650 O   0  0  0  0  0  0
  -24.6236  -31.8626   23.2053 C   0  0  0  0  0  0
  -25.9095  -32.4791   23.8380 C   0  0  1  0  0  0
  -27.2219  -27.3747   20.1036 C   0  0  0  0  0  0
  -25.5940  -33.8589   24.2305 N   0  0  0  0  0  0
  -23.4141  -30.4859   21.5482 C   0  0  2  0  0  0
  -24.8570  -28.9426   20.1135 C   0  0  0  0  0  0
  -22.7460  -29.4627   22.4976 C   0  0  0  0  0  0
  -18.0281  -28.1374   22.8501 C   0  0  0  0  0  0
  -24.1492  -36.7297   23.2631 C   0  0  0  0  0  0
  -25.9500  -30.8072   21.3681 C   0  0  0  0  0  0
  -26.0237  -29.4394   20.7108 C   0  0  0  0  0  0
  -27.2139  -28.6649   20.6963 C   0  0  0  0  0  0
  -26.0383  -26.9085   19.4936 C   0  0  0  0  0  0
  -24.8617  -27.6794   19.4990 C   0  0  0  0  0  0
  -23.6236  -29.8169   20.1632 C   0  0  0  0  0  0
  -25.4107  -36.3091   24.0331 C   0  0  1  0  0  0
  -20.5876  -28.3661   23.1302 C   0  0  2  0  0  0
  -20.6765  -26.9396   22.5399 C   0  0  0  0  0  0
  -19.5736  -26.6372   21.5215 C   0  0  0  0  0  0
  -18.1927  -26.7927   22.1629 C   0  0  0  0  0  0
  -19.1532  -28.8836   23.2894 C   0  0  0  0  0  0
  -18.9440  -30.1445   23.8888 C   0  0  0  0  0  0
  -17.6442  -30.6578   24.0551 C   0  0  0  0  0  0
  -25.9053  -34.9459   23.5114 C   0  0  0  0  0  0
  -16.5337  -29.9069   23.6335 C   0  0  0  0  0  0
  -16.7265  -28.6489   23.0359 C   0  0  0  0  0  0
  -26.4487  -31.6594   25.0747 C   0  0  0  0  0  0
  -25.3748  -31.3742   26.1518 C   0  0  0  0  0  0
  -27.0280  -30.3015   24.6157 C   0  0  0  0  0  0
  -27.6102  -32.4295   25.7469 C   0  0  0  0  0  0
  -27.5598  -37.1781   24.8437 C   0  0  0  0  0  0
  -21.4177  -29.3026   22.3715 N   0  0  0  0  0  0
  -26.4281  -37.3798   23.9436 N   0  0  0  0  0  0
  -24.6814  -31.0680   22.0974 N   0  0  0  0  0  0
  -23.4206  -28.8182   23.3045 O   0  0  0  0  0  0
  -28.3441  -26.5619   20.1120 O   0  0  0  0  0  0
  -26.5611  -34.8920   22.4675 O   0  0  0  0  0  0
  -23.5412  -32.1402   23.7411 O   0  0  0  0  0  0
  -29.7407  -17.8323   18.7758 C   0  0  0  0  0  0
  -29.7626  -18.0243   20.1348 C   0  0  0  0  0  0
  -29.2675  -20.1720   19.4201 C   0  0  0  0  0  0
  -28.5622  -24.0388   19.7743 C   0  0  0  0  0  0
  -25.9646  -22.2594   19.3746 C   0  0  0  0  0  0
  -30.1436  -16.9884   21.1921 C   0  0  0  0  0  0
  -28.1374  -25.2332   20.6863 C   0  0  0  0  0  0
  -26.9087  -22.2137   20.5942 C   0  0  0  0  0  0
  -28.3935  -22.5611   20.3132 C   0  0  1  0  0  0
  -29.4395  -19.3637   20.4852 N   0  0  0  0  0  0
  -28.9742  -21.5460   19.4137 N   0  0  0  0  0  0
  -29.8182  -15.5746   20.9063 N   0  0  0  0  0  0
  -29.0146  -24.2559   18.6441 O   0  0  0  0  0  0
  -29.4172  -19.3078   17.8960 S   0  0  0  0  0  0
  -31.4771  -12.4966   19.1129 H   0  0  0  0  0  0
  -30.3768  -11.3487   19.8248 H   0  0  0  0  0  0
  -29.7644  -11.7952   17.4226 H   0  0  0  0  0  0
  -29.6400  -13.5017   17.7547 H   0  0  0  0  0  0
  -27.8498  -11.2931   18.8219 H   0  0  0  0  0  0
  -27.3664  -12.5988   17.7738 H   0  0  0  0  0  0
  -27.6783  -14.2429   19.5323 H   0  0  0  0  0  0
  -28.7030  -11.9751   21.3220 H   0  0  0  0  0  0
  -28.4559  -13.6130   21.8541 H   0  0  0  0  0  0
  -25.2760   -9.5727   22.4740 H   0  0  0  0  0  0
  -24.0058   -7.4636   22.7471 H   0  0  0  0  0  0
  -21.0832   -8.8706   19.8967 H   0  0  0  0  0  0
  -22.3664  -10.9624   19.6148 H   0  0  0  0  0  0
  -21.2004   -7.6161   23.9760 H   0  0  0  0  0  0
  -21.1455   -6.0521   25.9097 H   0  0  0  0  0  0
  -22.0601   -2.7629   23.2877 H   0  0  0  0  0  0
  -22.4047  -11.9943   22.4853 H   0  0  0  0  0  0
  -21.1062  -13.1273   22.2501 H   0  0  0  0  0  0
  -24.6608  -15.8444   20.5135 H   0  0  0  0  0  0
  -26.2777  -15.6295   20.0769 H   0  0  0  0  0  0
  -26.7173  -32.5462   23.1143 H   0  0  0  0  0  0
  -25.0120  -33.9735   25.0472 H   0  0  0  0  0  0
  -22.7072  -31.3054   21.4076 H   0  0  0  0  0  0
  -23.3782  -35.9594   23.3205 H   0  0  0  0  0  0
  -24.3618  -36.8998   22.2061 H   0  0  0  0  0  0
  -23.7184  -37.6451   23.6693 H   0  0  0  0  0  0
  -26.0800  -31.5710   20.5993 H   0  0  0  0  0  0
  -26.8330  -30.8524   21.9945 H   0  0  0  0  0  0
  -28.1140  -29.0386   21.1640 H   0  0  0  0  0  0
  -26.0201  -25.9386   19.0162 H   0  0  0  0  0  0
  -23.9673  -27.2930   19.0299 H   0  0  0  0  0  0
  -23.7353  -30.5897   19.4017 H   0  0  0  0  0  0
  -22.7448  -29.2403   19.8707 H   0  0  0  0  0  0
  -25.1270  -36.1941   25.0823 H   0  0  0  0  0  0
  -20.9978  -28.3198   24.1412 H   0  0  0  0  0  0
  -20.5679  -26.2251   23.3572 H   0  0  0  0  0  0
  -21.6626  -26.7421   22.1176 H   0  0  0  0  0  0
  -19.6883  -25.6295   21.1220 H   0  0  0  0  0  0
  -19.6674  -27.3176   20.6748 H   0  0  0  0  0  0
  -17.4195  -26.6672   21.4040 H   0  0  0  0  0  0
  -18.0315  -26.0063   22.9010 H   0  0  0  0  0  0
  -19.7917  -30.7274   24.2233 H   0  0  0  0  0  0
  -17.4990  -31.6265   24.5145 H   0  0  0  0  0  0
  -15.5332  -30.2946   23.7678 H   0  0  0  0  0  0
  -15.8671  -28.0800   22.7066 H   0  0  0  0  0  0
  -24.5779  -30.7290   25.7809 H   0  0  0  0  0  0
  -24.9144  -32.2933   26.5154 H   0  0  0  0  0  0
  -25.8069  -30.8686   27.0163 H   0  0  0  0  0  0
  -26.2801  -29.6793   24.1239 H   0  0  0  0  0  0
  -27.4031  -29.7263   25.4628 H   0  0  0  0  0  0
  -27.8670  -30.4292   23.9316 H   0  0  0  0  0  0
  -27.2799  -33.3637   26.2014 H   0  0  0  0  0  0
  -28.3918  -32.6771   25.0274 H   0  0  0  0  0  0
  -28.0763  -31.8431   26.5392 H   0  0  0  0  0  0
  -28.2526  -38.0171   24.7625 H   0  0  0  0  0  0
  -28.1186  -36.2713   24.6072 H   0  0  0  0  0  0
  -27.2350  -37.1186   25.8843 H   0  0  0  0  0  0
  -20.9347  -29.8757   21.6941 H   0  0  0  0  0  0
  -26.0154  -38.2855   24.1509 H   0  0  0  0  0  0
  -29.9399  -16.9178   18.2334 H   0  0  0  0  0  0
  -24.9593  -21.9450   19.6582 H   0  0  0  0  0  0
  -26.2971  -21.5969   18.5749 H   0  0  0  0  0  0
  -25.8789  -23.2626   18.9587 H   0  0  0  0  0  0
  -29.6445  -17.2371   22.1314 H   0  0  0  0  0  0
  -31.2093  -17.0678   21.4082 H   0  0  0  0  0  0
  -28.7151  -25.1731   21.6083 H   0  0  0  0  0  0
  -27.0960  -25.0898   20.9766 H   0  0  0  0  0  0
  -26.8568  -21.2152   21.0308 H   0  0  0  0  0  0
  -26.5170  -22.8754   21.3686 H   0  0  0  0  0  0
  -28.9346  -22.4892   21.2574 H   0  0  0  0  0  0
  -29.1030  -21.9546   18.4913 H   0  0  0  0  0  0
  -28.8665  -15.3086   21.1009 H   0  0  0  0  0  0
  1 25  1  0  0  0
  1 30  2  0  0  0
  1 82  1  0  0  0
  2  3  1  0  0  0
  2 25  1  0  0  0
  2 85  1  0  0  0
  2 86  1  0  0  0
  3  4  1  0  0  0
  3 87  1  0  0  0
  3 88  1  0  0  0
  4  5  1  0  0  0
  4 89  1  0  0  0
  4 90  1  0  0  0
  5  6  1  0  0  0
  5 26  1  0  0  0
  5 91  1  0  0  0
  6 25  1  0  0  0
  6 92  1  0  0  0
  6 93  1  0  0  0
  7  8  2  0  0  0
  7 26  1  0  0  0
  7 29  1  0  0  0
  8  9  1  0  0  0
  8 22  1  0  0  0
  9 10  1  0  0  0
  9 27  2  0  0  0
 10 11  2  0  0  0
 10 15  1  0  0  0
 11 12  1  0  0  0
 11 94  1  0  0  0
 12 13  2  0  0  0
 12 95  1  0  0  0
 13 14  1  0  0  0
 13 31  1  0  0  0
 14 15  2  0  0  0
 14 96  1  0  0  0
 15 97  1  0  0  0
 16 17  2  0  0  0
 16 21  1  0  0  0
 16 31  1  0  0  0
 17 18  1  0  0  0
 17 98  1  0  0  0
 18 19  2  0  0  0
 18 99  1  0  0  0
 19 20  1  0  0  0
 19 24  1  0  0  0
 20 21  2  0  0  0
 20100  1  0  0  0
 21 23  1  0  0  0
 22 28  1  0  0  0
 22 32  2  0  0  0
 26 27  1  0  0  0
 28101  1  0  0  0
 28102  1  0  0  0
 29103  1  0  0  0
 29104  1  0  0  0
 33 34  1  0  0  0
 33 66  1  0  0  0
 33 70  2  0  0  0
 34 36  1  0  0  0
 34 59  1  0  0  0
 34105  1  0  0  0
 35 44  2  0  0  0
 35 45  1  0  0  0
 35 68  1  0  0  0
 36 56  1  0  0  0
 36106  1  0  0  0
 37 39  1  0  0  0
 37 47  1  0  0  0
 37 66  1  0  0  0
 37107  1  0  0  0
 38 43  2  0  0  0
 38 46  1  0  0  0
 38 47  1  0  0  0
 39 64  1  0  0  0
 39 67  2  0  0  0
 40 52  1  0  0  0
 40 53  2  0  0  0
 40 58  1  0  0  0
 41108  1  0  0  0
 41109  1  0  0  0
 41110  1  0  0  0
 41 48  1  0  0  0
 42 43  1  0  0  0
 42 66  1  0  0  0
 42111  1  0  0  0
 42112  1  0  0  0
 43 44  1  0  0  0
 44113  1  0  0  0
 45 46  2  0  0  0
 45114  1  0  0  0
 46115  1  0  0  0
 47116  1  0  0  0
 47117  1  0  0  0
 48 56  1  0  0  0
 48 65  1  0  0  0
 48118  1  0  0  0
 49 50  1  0  0  0
 49 53  1  0  0  0
 49 64  1  0  0  0
 49119  1  0  0  0
 50 51  1  0  0  0
 50120  1  0  0  0
 50121  1  0  0  0
 51 52  1  0  0  0
 51122  1  0  0  0
 51123  1  0  0  0
 52124  1  0  0  0
 52125  1  0  0  0
 53 54  1  0  0  0
 54 55  2  0  0  0
 54126  1  0  0  0
 55 57  1  0  0  0
 55127  1  0  0  0
 56 69  2  0  0  0
 57 58  2  0  0  0
 57128  1  0  0  0
 58129  1  0  0  0
 59 60  1  0  0  0
 59 61  1  0  0  0
 59 62  1  0  0  0
 60130  1  0  0  0
 60131  1  0  0  0
 60132  1  0  0  0
 61133  1  0  0  0
 61134  1  0  0  0
 61135  1  0  0  0
 62136  1  0  0  0
 62137  1  0  0  0
 62138  1  0  0  0
 63 65  1  0  0  0
 63139  1  0  0  0
 63140  1  0  0  0
 63141  1  0  0  0
 64142  1  0  0  0
 65143  1  0  0  0
 68 77  1  0  0  0
 71 72  2  0  0  0
 71 84  1  0  0  0
 71144  1  0  0  0
 72 76  1  0  0  0
 72 80  1  0  0  0
 73 80  2  0  0  0
 73 81  1  0  0  0
 73 84  1  0  0  0
 74 77  1  0  0  0
 74 79  1  0  0  0
 74 83  2  0  0  0
 75 78  1  0  0  0
 75145  1  0  0  0
 75146  1  0  0  0
 75147  1  0  0  0
 76 82  1  0  0  0
 76148  1  0  0  0
 76149  1  0  0  0
 77150  1  0  0  0
 77151  1  0  0  0
 78152  1  0  0  0
 78153  1  0  0  0
 78 79  1  0  0  0
 79 81  1  0  0  0
 79154  1  0  0  0
 81155  1  0  0  0
 82156  1  0  0  0
M  ISO  4   1 100  68 101  77 101  82 100
M  END
> <chiral flag>
0

> <version>
0

> <s_m_source_file>
/data/baiqing/PycharmProjects/Reinvent-master-3.2/result/LINK_invent/BTK/process_docking_weight1_custom_product_contain_oxygen_bond_distance_aromatic_linkinvent_7_9_3/rearranged_h_0187.sdf

> <i_m_source_file_index>
37

> <r_mmod_Potential_Energy-OPLS-2005>
-220.158706665039

> <r_mmod_Stretch_Energy-OPLS-2005>
49.2480659484863

> <r_mmod_Bend_Energy-OPLS-2005>
107.666442871094

> <r_mmod_Torsional_Energy-OPLS-2005>
208.048034667969

> <r_mmod_Improper_Torsional_Energy-OPLS-2005>
4.14592170715332

> <r_mmod_Van_der_Waal_Energy-OPLS-2005>
115.68293762207

> <r_mmod_Electrostatic_Energy-OPLS-2005>
-498.391357421875

> <r_mmod_Solvation_Energy-OPLS-2005>
-235.74382019043

> <b_mmod_Minimization_Converged-OPLS-2005>
0

> <r_mmod_RMS_Derivative-OPLS-2005>
3.16820621490479

$$$$
38
                    3D
 Structure written by MMmdl.
159167  0  0  1  0            999 V2000
  -30.7832  -14.4029   20.6019 C   0  0  0  0  0  0
  -30.3907  -12.2816   19.4108 C   0  0  0  0  0  0
  -29.4761  -12.5167   18.1962 C   0  0  0  0  0  0
  -27.9983  -12.3889   18.6075 C   0  0  0  0  0  0
  -27.6561  -13.2182   19.8740 C   0  0  2  0  0  0
  -28.7002  -13.0107   20.9961 C   0  0  0  0  0  0
  -25.2541  -13.8204   20.5685 C   0  0  0  0  0  0
  -24.1812  -13.0462   20.9181 C   0  0  0  0  0  0
  -24.6386  -11.6931   20.8741 C   0  0  0  0  0  0
  -23.9064  -10.4313   21.0397 C   0  0  0  0  0  0
  -24.3611   -9.4224   21.9172 C   0  0  0  0  0  0
  -23.6293   -8.2255   22.0752 C   0  0  0  0  0  0
  -22.4277   -8.0283   21.3540 C   0  0  0  0  0  0
  -21.9909   -9.0256   20.4636 C   0  0  0  0  0  0
  -22.7238  -10.2140   20.3046 C   0  0  0  0  0  0
  -21.6856   -6.0727   22.5277 C   0  0  0  0  0  0
  -21.4018   -6.5635   23.8207 C   0  0  0  0  0  0
  -21.3668   -5.6795   24.9173 C   0  0  0  0  0  0
  -21.6047   -4.3055   24.7231 C   0  0  0  0  0  0
  -21.8820   -3.8140   23.4354 C   0  0  0  0  0  0
  -21.9197   -4.6956   22.3405 C   0  0  0  0  0  0
  -22.7825  -13.5228   21.1855 C   0  0  0  0  0  0
  -22.1654   -4.2136   21.0984 F   0  0  0  0  0  0
  -21.5638   -3.4545   25.7745 F   0  0  0  0  0  0
  -30.0338  -13.2792   20.4332 N   0  0  0  0  0  0
  -26.2983  -12.9398   20.3376 N   0  0  0  0  0  0
  -25.9313  -11.6541   20.5776 N   0  0  0  0  0  0
  -22.0479  -12.8201   22.0402 N   0  0  0  0  0  0
  -25.4274  -15.1921   20.4081 N   0  0  0  0  0  0
  -31.8812  -14.5294   20.0522 O   0  0  0  0  0  0
  -21.6648   -6.8869   21.4236 O   0  0  0  0  0  0
  -22.3497  -14.5528   20.6716 O   0  0  0  0  0  0
  -24.6143  -31.8685   23.2106 C   0  0  0  0  0  0
  -25.9046  -32.4818   23.8389 C   0  0  1  0  0  0
  -27.2136  -27.4168   20.1011 C   0  0  0  0  0  0
  -25.5890  -33.8616   24.2310 N   0  0  0  0  0  0
  -23.4008  -30.4948   21.5527 C   0  0  2  0  0  0
  -24.8433  -28.9640   20.1081 C   0  0  0  0  0  0
  -22.7414  -29.4645   22.4982 C   0  0  0  0  0  0
  -18.0270  -28.1368   22.8470 C   0  0  0  0  0  0
  -24.1490  -36.7318   23.2632 C   0  0  0  0  0  0
  -25.9319  -30.8278   21.3667 C   0  0  0  0  0  0
  -26.0050  -29.4647   20.7097 C   0  0  0  0  0  0
  -27.1951  -28.6987   20.7001 C   0  0  0  0  0  0
  -26.0364  -26.9459   19.4740 C   0  0  0  0  0  0
  -24.8555  -27.7066   19.4836 C   0  0  0  0  0  0
  -23.6081  -29.8338   20.1636 C   0  0  0  0  0  0
  -25.4107  -36.3108   24.0320 C   0  0  1  0  0  0
  -20.5858  -28.3662   23.1298 C   0  0  2  0  0  0
  -20.6769  -26.9397   22.5405 C   0  0  0  0  0  0
  -19.5751  -26.6381   21.5197 C   0  0  0  0  0  0
  -18.1925  -26.7910   22.1600 C   0  0  0  0  0  0
  -19.1518  -28.8832   23.2876 C   0  0  0  0  0  0
  -18.9457  -30.1429   23.8901 C   0  0  0  0  0  0
  -17.6472  -30.6581   24.0557 C   0  0  0  0  0  0
  -25.9024  -34.9476   23.5116 C   0  0  0  0  0  0
  -16.5359  -29.9073   23.6334 C   0  0  0  0  0  0
  -16.7259  -28.6487   23.0338 C   0  0  0  0  0  0
  -26.4468  -31.6607   25.0730 C   0  0  0  0  0  0
  -25.3720  -31.3721   26.1467 C   0  0  0  0  0  0
  -27.0300  -30.3047   24.6107 C   0  0  0  0  0  0
  -27.6041  -32.4319   25.7502 C   0  0  0  0  0  0
  -27.5586  -37.1807   24.8458 C   0  0  0  0  0  0
  -21.4146  -29.3033   22.3732 N   0  0  0  0  0  0
  -26.4296  -37.3796   23.9403 N   0  0  0  0  0  0
  -24.6672  -31.0771   22.1010 N   0  0  0  0  0  0
  -23.4212  -28.8183   23.2995 O   0  0  0  0  0  0
  -28.3650  -26.6550   20.1649 O   0  0  0  0  0  0
  -26.5607  -34.8945   22.4688 O   0  0  0  0  0  0
  -23.5344  -32.1453   23.7514 O   0  0  0  0  0  0
  -29.2027  -19.5986   23.1335 C   0  0  0  0  0  0
  -29.9607  -18.3955   23.2718 C   0  0  0  0  0  0
  -29.9994  -17.6729   22.1055 C   0  0  0  0  0  0
  -28.6898  -19.8048   21.8722 C   0  0  0  0  0  0
  -30.8367  -16.5247   21.7100 C   0  0  0  0  0  0
  -28.1310  -22.1578   21.7359 C   0  0  0  0  0  0
  -30.6638  -17.9921   24.5353 C   0  0  0  0  0  0
  -25.7652  -22.8868   22.1162 C   0  0  0  0  0  0
  -27.4270  -24.6485   21.3414 C   0  0  0  0  0  0
  -28.2371  -25.2153   20.1422 C   0  0  0  0  0  0
  -27.0324  -23.1377   21.2702 C   0  0  1  0  0  0
  -27.9614  -20.8594   21.4167 N   0  0  0  0  0  0
  -30.2134  -15.4026   21.3006 N   0  0  0  0  0  0
  -32.0627  -16.6505   21.8163 O   0  0  0  0  0  0
  -29.1068  -22.5729   22.3660 O   0  0  0  0  0  0
  -29.0569  -18.4348   20.8471 S   0  0  0  0  0  0
  -31.4393  -12.3283   19.1107 H   0  0  0  0  0  0
  -30.2436  -11.2749   19.8044 H   0  0  0  0  0  0
  -29.7033  -11.8043   17.4027 H   0  0  0  0  0  0
  -29.6607  -13.5088   17.7784 H   0  0  0  0  0  0
  -27.7884  -11.3332   18.7798 H   0  0  0  0  0  0
  -27.3522  -12.6911   17.7821 H   0  0  0  0  0  0
  -27.6983  -14.2666   19.5778 H   0  0  0  0  0  0
  -28.6644  -11.9844   21.3664 H   0  0  0  0  0  0
  -28.4682  -13.6384   21.8576 H   0  0  0  0  0  0
  -25.2755   -9.5705   22.4743 H   0  0  0  0  0  0
  -24.0006   -7.4651   22.7474 H   0  0  0  0  0  0
  -21.0840   -8.8763   19.8937 H   0  0  0  0  0  0
  -22.3686  -10.9664   19.6149 H   0  0  0  0  0  0
  -21.2012   -7.6144   23.9705 H   0  0  0  0  0  0
  -21.1483   -6.0527   25.9073 H   0  0  0  0  0  0
  -22.0596   -2.7601   23.2865 H   0  0  0  0  0  0
  -22.4098  -11.9837   22.4752 H   0  0  0  0  0  0
  -21.1094  -13.1186   22.2630 H   0  0  0  0  0  0
  -24.6634  -15.8516   20.5115 H   0  0  0  0  0  0
  -26.2842  -15.6269   20.0898 H   0  0  0  0  0  0
  -26.7122  -32.5556   23.1151 H   0  0  0  0  0  0
  -25.0040  -33.9750   25.0469 H   0  0  0  0  0  0
  -22.6905  -31.3138   21.4199 H   0  0  0  0  0  0
  -23.3746  -35.9652   23.3298 H   0  0  0  0  0  0
  -24.3594  -36.8940   22.2045 H   0  0  0  0  0  0
  -23.7250  -37.6517   23.6674 H   0  0  0  0  0  0
  -26.0452  -31.5957   20.6002 H   0  0  0  0  0  0
  -26.8185  -30.8795   21.9851 H   0  0  0  0  0  0
  -28.0901  -29.0681   21.1825 H   0  0  0  0  0  0
  -26.0042  -25.9859   18.9821 H   0  0  0  0  0  0
  -23.9650  -27.3171   19.0078 H   0  0  0  0  0  0
  -23.7211  -30.6166   19.4126 H   0  0  0  0  0  0
  -22.7314  -29.2594   19.8619 H   0  0  0  0  0  0
  -25.1290  -36.1967   25.0810 H   0  0  0  0  0  0
  -20.9950  -28.3255   24.1408 H   0  0  0  0  0  0
  -20.5696  -26.2268   23.3596 H   0  0  0  0  0  0
  -21.6636  -26.7448   22.1188 H   0  0  0  0  0  0
  -19.6933  -25.6297   21.1204 H   0  0  0  0  0  0
  -19.6692  -27.3208   20.6751 H   0  0  0  0  0  0
  -17.4192  -26.6650   21.3996 H   0  0  0  0  0  0
  -18.0308  -26.0056   22.9001 H   0  0  0  0  0  0
  -19.7958  -30.7195   24.2299 H   0  0  0  0  0  0
  -17.5048  -31.6271   24.5130 H   0  0  0  0  0  0
  -15.5357  -30.2972   23.7675 H   0  0  0  0  0  0
  -15.8657  -28.0821   22.7040 H   0  0  0  0  0  0
  -24.5954  -30.6984   25.7842 H   0  0  0  0  0  0
  -24.8815  -32.2860   26.4847 H   0  0  0  0  0  0
  -25.8054  -30.9003   27.0291 H   0  0  0  0  0  0
  -26.2844  -29.6805   24.1167 H   0  0  0  0  0  0
  -27.4069  -29.7296   25.4569 H   0  0  0  0  0  0
  -27.8688  -30.4345   23.9259 H   0  0  0  0  0  0
  -27.2681  -33.3679   26.1988 H   0  0  0  0  0  0
  -28.3908  -32.6755   25.0352 H   0  0  0  0  0  0
  -28.0618  -31.8473   26.5495 H   0  0  0  0  0  0
  -28.2574  -38.0143   24.7531 H   0  0  0  0  0  0
  -28.1100  -36.2651   24.6237 H   0  0  0  0  0  0
  -27.2294  -37.1393   25.8864 H   0  0  0  0  0  0
  -20.9331  -29.8783   21.6968 H   0  0  0  0  0  0
  -26.0189  -38.2867   24.1446 H   0  0  0  0  0  0
  -29.0838  -20.2859   23.9591 H   0  0  0  0  0  0
  -30.4509  -18.6770   25.3560 H   0  0  0  0  0  0
  -31.7455  -17.9748   24.4001 H   0  0  0  0  0  0
  -30.3586  -16.9953   24.8578 H   0  0  0  0  0  0
  -25.4361  -21.8476   22.0610 H   0  0  0  0  0  0
  -24.9294  -23.4998   21.7797 H   0  0  0  0  0  0
  -25.9354  -23.1174   23.1681 H   0  0  0  0  0  0
  -26.5045  -25.2175   21.4393 H   0  0  0  0  0  0
  -27.9646  -24.8573   22.2657 H   0  0  0  0  0  0
  -27.8230  -24.8837   19.1893 H   0  0  0  0  0  0
  -29.2429  -24.7967   20.1670 H   0  0  0  0  0  0
  -26.7816  -22.8952   20.2362 H   0  0  0  0  0  0
  -27.2142  -20.6456   20.7678 H   0  0  0  0  0  0
  -29.2328  -15.3255   21.5067 H   0  0  0  0  0  0
  1 25  1  0  0  0
  1 30  2  0  0  0
  1 83  1  0  0  0
  2  3  1  0  0  0
  2 25  1  0  0  0
  2 87  1  0  0  0
  2 88  1  0  0  0
  3  4  1  0  0  0
  3 89  1  0  0  0
  3 90  1  0  0  0
  4  5  1  0  0  0
  4 91  1  0  0  0
  4 92  1  0  0  0
  5  6  1  0  0  0
  5 26  1  0  0  0
  5 93  1  0  0  0
  6 25  1  0  0  0
  6 94  1  0  0  0
  6 95  1  0  0  0
  7  8  2  0  0  0
  7 26  1  0  0  0
  7 29  1  0  0  0
  8  9  1  0  0  0
  8 22  1  0  0  0
  9 10  1  0  0  0
  9 27  2  0  0  0
 10 11  2  0  0  0
 10 15  1  0  0  0
 11 12  1  0  0  0
 11 96  1  0  0  0
 12 13  2  0  0  0
 12 97  1  0  0  0
 13 14  1  0  0  0
 13 31  1  0  0  0
 14 15  2  0  0  0
 14 98  1  0  0  0
 15 99  1  0  0  0
 16 17  2  0  0  0
 16 21  1  0  0  0
 16 31  1  0  0  0
 17 18  1  0  0  0
 17100  1  0  0  0
 18 19  2  0  0  0
 18101  1  0  0  0
 19 20  1  0  0  0
 19 24  1  0  0  0
 20 21  2  0  0  0
 20102  1  0  0  0
 21 23  1  0  0  0
 22 28  1  0  0  0
 22 32  2  0  0  0
 26 27  1  0  0  0
 28103  1  0  0  0
 28104  1  0  0  0
 29105  1  0  0  0
 29106  1  0  0  0
 33 34  1  0  0  0
 33 66  1  0  0  0
 33 70  2  0  0  0
 34 36  1  0  0  0
 34 59  1  0  0  0
 34107  1  0  0  0
 35 44  2  0  0  0
 35 45  1  0  0  0
 35 68  1  0  0  0
 36 56  1  0  0  0
 36108  1  0  0  0
 37 39  1  0  0  0
 37 47  1  0  0  0
 37 66  1  0  0  0
 37109  1  0  0  0
 38 43  2  0  0  0
 38 46  1  0  0  0
 38 47  1  0  0  0
 39 64  1  0  0  0
 39 67  2  0  0  0
 40 52  1  0  0  0
 40 53  2  0  0  0
 40 58  1  0  0  0
 41110  1  0  0  0
 41111  1  0  0  0
 41112  1  0  0  0
 41 48  1  0  0  0
 42 43  1  0  0  0
 42 66  1  0  0  0
 42113  1  0  0  0
 42114  1  0  0  0
 43 44  1  0  0  0
 44115  1  0  0  0
 45 46  2  0  0  0
 45116  1  0  0  0
 46117  1  0  0  0
 47118  1  0  0  0
 47119  1  0  0  0
 48 56  1  0  0  0
 48 65  1  0  0  0
 48120  1  0  0  0
 49 50  1  0  0  0
 49 53  1  0  0  0
 49 64  1  0  0  0
 49121  1  0  0  0
 50 51  1  0  0  0
 50122  1  0  0  0
 50123  1  0  0  0
 51 52  1  0  0  0
 51124  1  0  0  0
 51125  1  0  0  0
 52126  1  0  0  0
 52127  1  0  0  0
 53 54  1  0  0  0
 54 55  2  0  0  0
 54128  1  0  0  0
 55 57  1  0  0  0
 55129  1  0  0  0
 56 69  2  0  0  0
 57 58  2  0  0  0
 57130  1  0  0  0
 58131  1  0  0  0
 59 60  1  0  0  0
 59 61  1  0  0  0
 59 62  1  0  0  0
 60132  1  0  0  0
 60133  1  0  0  0
 60134  1  0  0  0
 61135  1  0  0  0
 61136  1  0  0  0
 61137  1  0  0  0
 62138  1  0  0  0
 62139  1  0  0  0
 62140  1  0  0  0
 63 65  1  0  0  0
 63141  1  0  0  0
 63142  1  0  0  0
 63143  1  0  0  0
 64144  1  0  0  0
 65145  1  0  0  0
 68 80  1  0  0  0
 71 72  1  0  0  0
 71 74  2  0  0  0
 71146  1  0  0  0
 72 73  2  0  0  0
 72 77  1  0  0  0
 73 75  1  0  0  0
 73 86  1  0  0  0
 74 82  1  0  0  0
 74 86  1  0  0  0
 75 83  1  0  0  0
 75 84  2  0  0  0
 76 81  1  0  0  0
 76 82  1  0  0  0
 76 85  2  0  0  0
 77147  1  0  0  0
 77148  1  0  0  0
 77149  1  0  0  0
 78150  1  0  0  0
 78151  1  0  0  0
 78152  1  0  0  0
 78 81  1  0  0  0
 79 80  1  0  0  0
 79 81  1  0  0  0
 79153  1  0  0  0
 79154  1  0  0  0
 80155  1  0  0  0
 80156  1  0  0  0
 81157  1  0  0  0
 82158  1  0  0  0
 83159  1  0  0  0
M  ISO  4   1 100  68 101  80 101  83 100
M  END
> <chiral flag>
0

> <version>
0

> <s_m_source_file>
/data/baiqing/PycharmProjects/Reinvent-master-3.2/result/LINK_invent/BTK/process_docking_weight1_custom_product_contain_oxygen_bond_distance_aromatic_linkinvent_7_9_3/rearranged_h_0187.sdf

> <i_m_source_file_index>
38

> <r_mmod_Potential_Energy-OPLS-2005>
-153.218368530273

> <r_mmod_Stretch_Energy-OPLS-2005>
36.4111366271973

> <r_mmod_Bend_Energy-OPLS-2005>
105.305145263672

> <r_mmod_Torsional_Energy-OPLS-2005>
261.536071777344

> <r_mmod_Improper_Torsional_Energy-OPLS-2005>
3.38873505592346

> <r_mmod_Van_der_Waal_Energy-OPLS-2005>
144.104873657227

> <r_mmod_Electrostatic_Energy-OPLS-2005>
-477.912139892578

> <r_mmod_Solvation_Energy-OPLS-2005>
-242.187042236328

> <b_mmod_Minimization_Converged-OPLS-2005>
0

> <r_mmod_RMS_Derivative-OPLS-2005>
3.00381946563721

$$$$
39
                    3D
 Structure written by MMmdl.
153161  0  0  1  0            999 V2000
  -30.6261  -14.7212   20.4574 C   0  0  0  0  0  0
  -30.4236  -12.4395   19.4726 C   0  0  0  0  0  0
  -29.5049  -12.5019   18.2334 C   0  0  0  0  0  0
  -28.0304  -12.3334   18.6468 C   0  0  0  0  0  0
  -27.6388  -13.2329   19.8501 C   0  0  2  0  0  0
  -28.6828  -13.1670   20.9852 C   0  0  0  0  0  0
  -25.2486  -13.8193   20.5685 C   0  0  0  0  0  0
  -24.1787  -13.0438   20.9211 C   0  0  0  0  0  0
  -24.6388  -11.6919   20.8761 C   0  0  0  0  0  0
  -23.9068  -10.4292   21.0413 C   0  0  0  0  0  0
  -24.3620   -9.4208   21.9188 C   0  0  0  0  0  0
  -23.6298   -8.2243   22.0756 C   0  0  0  0  0  0
  -22.4279   -8.0281   21.3548 C   0  0  0  0  0  0
  -21.9914   -9.0252   20.4647 C   0  0  0  0  0  0
  -22.7242  -10.2132   20.3058 C   0  0  0  0  0  0
  -21.6853   -6.0738   22.5281 C   0  0  0  0  0  0
  -21.4010   -6.5639   23.8218 C   0  0  0  0  0  0
  -21.3660   -5.6795   24.9177 C   0  0  0  0  0  0
  -21.6044   -4.3057   24.7227 C   0  0  0  0  0  0
  -21.8819   -3.8148   23.4351 C   0  0  0  0  0  0
  -21.9191   -4.6966   22.3403 C   0  0  0  0  0  0
  -22.7810  -13.5220   21.1871 C   0  0  0  0  0  0
  -22.1661   -4.2152   21.0981 F   0  0  0  0  0  0
  -21.5630   -3.4541   25.7737 F   0  0  0  0  0  0
  -29.9834  -13.5070   20.3994 N   0  0  0  0  0  0
  -26.2920  -12.9409   20.3288 N   0  0  0  0  0  0
  -25.9317  -11.6548   20.5766 N   0  0  0  0  0  0
  -22.0460  -12.8206   22.0427 N   0  0  0  0  0  0
  -25.4154  -15.1908   20.4068 N   0  0  0  0  0  0
  -31.8191  -14.7954   20.1512 O   0  0  0  0  0  0
  -21.6641   -6.8879   21.4241 O   0  0  0  0  0  0
  -22.3489  -14.5525   20.6724 O   0  0  0  0  0  0
  -24.6294  -31.8541   23.1959 C   0  0  0  0  0  0
  -25.9120  -32.4745   23.8307 C   0  0  1  0  0  0
  -27.2263  -27.2720   20.1165 C   0  0  0  0  0  0
  -25.5926  -33.8549   24.2233 N   0  0  0  0  0  0
  -23.4252  -30.4754   21.5393 C   0  0  2  0  0  0
  -24.8711  -28.9186   20.1070 C   0  0  0  0  0  0
  -22.7485  -29.4593   22.4905 C   0  0  0  0  0  0
  -18.0286  -28.1387   22.8492 C   0  0  0  0  0  0
  -24.1488  -36.7269   23.2639 C   0  0  0  0  0  0
  -25.9684  -30.7711   21.3706 C   0  0  0  0  0  0
  -26.0400  -29.3943   20.7109 C   0  0  0  0  0  0
  -27.2156  -28.5821   20.7037 C   0  0  0  0  0  0
  -26.0242  -26.8431   19.5173 C   0  0  0  0  0  0
  -24.8668  -27.6504   19.5018 C   0  0  0  0  0  0
  -23.6414  -29.8051   20.1561 C   0  0  0  0  0  0
  -25.4116  -36.3056   24.0323 C   0  0  1  0  0  0
  -20.5889  -28.3691   23.1272 C   0  0  2  0  0  0
  -20.6771  -26.9410   22.5405 C   0  0  0  0  0  0
  -19.5749  -26.6383   21.5209 C   0  0  0  0  0  0
  -18.1930  -26.7929   22.1628 C   0  0  0  0  0  0
  -19.1542  -28.8858   23.2879 C   0  0  0  0  0  0
  -18.9470  -30.1463   23.8893 C   0  0  0  0  0  0
  -17.6469  -30.6591   24.0569 C   0  0  0  0  0  0
  -25.9059  -34.9433   23.5081 C   0  0  0  0  0  0
  -16.5359  -29.9091   23.6333 C   0  0  0  0  0  0
  -16.7273  -28.6509   23.0352 C   0  0  0  0  0  0
  -26.4497  -31.6578   25.0703 C   0  0  0  0  0  0
  -25.3715  -31.3732   26.1423 C   0  0  0  0  0  0
  -27.0336  -30.2994   24.6176 C   0  0  0  0  0  0
  -27.6055  -32.4314   25.7480 C   0  0  0  0  0  0
  -27.5573  -37.1783   24.8464 C   0  0  0  0  0  0
  -21.4191  -29.3042   22.3660 N   0  0  0  0  0  0
  -26.4278  -37.3765   23.9421 N   0  0  0  0  0  0
  -24.6937  -31.0513   22.0925 N   0  0  0  0  0  0
  -23.4192  -28.8135   23.2999 O   0  0  0  0  0  0
  -28.3658  -26.4441   20.2058 O   0  0  0  0  0  0
  -26.5634  -34.8918   22.4651 O   0  0  0  0  0  0
  -23.5449  -32.1355   23.7264 O   0  0  0  0  0  0
  -28.4566  -19.1131   21.1110 C   0  0  0  0  0  0
  -29.6283  -18.6567   20.5041 C   0  0  0  0  0  0
  -29.0875  -21.1973   20.2224 C   0  0  0  0  0  0
  -28.2977  -23.7370   20.2089 C   0  0  0  0  0  0
  -28.3059  -25.1527   18.0001 C   0  0  0  0  0  0
  -30.4476  -17.2976   20.5368 C   0  0  0  0  0  0
  -28.6341  -25.1421   19.5052 C   0  0  1  0  0  0
  -27.5060  -18.3069   21.9704 C   0  0  0  0  0  0
  -28.1853  -20.5187   20.9505 N   0  0  0  0  0  0
  -29.0756  -22.6376   19.8835 N   0  0  0  0  0  0
  -29.8898  -15.8820   20.6437 N   0  0  0  0  0  0
  -27.3639  -23.6733   21.0125 O   0  0  0  0  0  0
  -27.6380  -16.9943   21.7782 F   0  0  0  0  0  0
  -27.7140  -18.5462   23.2657 F   0  0  0  0  0  0
  -26.2347  -18.6107   21.7038 F   0  0  0  0  0  0
  -30.3545  -20.0593   19.6689 S   0  0  0  0  0  0
  -31.4670  -12.5507   19.1727 H   0  0  0  0  0  0
  -30.3551  -11.4637   19.9559 H   0  0  0  0  0  0
  -29.7833  -11.7278   17.5167 H   0  0  0  0  0  0
  -29.6374  -13.4558   17.7206 H   0  0  0  0  0  0
  -27.8824  -11.2847   18.9075 H   0  0  0  0  0  0
  -27.3736  -12.5298   17.7982 H   0  0  0  0  0  0
  -27.6333  -14.2547   19.4705 H   0  0  0  0  0  0
  -28.7134  -12.1715   21.4307 H   0  0  0  0  0  0
  -28.4246  -13.8563   21.7909 H   0  0  0  0  0  0
  -25.2759   -9.5686   22.4767 H   0  0  0  0  0  0
  -24.0006   -7.4630   22.7470 H   0  0  0  0  0  0
  -21.0848   -8.8768   19.8947 H   0  0  0  0  0  0
  -22.3698  -10.9674   19.6170 H   0  0  0  0  0  0
  -21.2001   -7.6149   23.9719 H   0  0  0  0  0  0
  -21.1483   -6.0525   25.9080 H   0  0  0  0  0  0
  -22.0598   -2.7612   23.2846 H   0  0  0  0  0  0
  -22.4079  -11.9865   22.4806 H   0  0  0  0  0  0
  -21.1079  -13.1227   22.2637 H   0  0  0  0  0  0
  -24.6477  -15.8423   20.5230 H   0  0  0  0  0  0
  -26.2650  -15.6319   20.0840 H   0  0  0  0  0  0
  -26.7183  -32.5393   23.1043 H   0  0  0  0  0  0
  -25.0082  -33.9695   25.0384 H   0  0  0  0  0  0
  -22.7217  -31.2973   21.3909 H   0  0  0  0  0  0
  -23.3756  -35.9594   23.3299 H   0  0  0  0  0  0
  -24.3578  -36.8890   22.2054 H   0  0  0  0  0  0
  -23.7234  -37.6465   23.6667 H   0  0  0  0  0  0
  -26.1028  -31.5321   20.6011 H   0  0  0  0  0  0
  -26.8478  -30.8203   22.0011 H   0  0  0  0  0  0
  -28.1141  -28.9428   21.1843 H   0  0  0  0  0  0
  -25.9375  -25.8523   19.1047 H   0  0  0  0  0  0
  -23.9635  -27.2698   19.0457 H   0  0  0  0  0  0
  -23.7648  -30.5801   19.3989 H   0  0  0  0  0  0
  -22.7599  -29.2375   19.8527 H   0  0  0  0  0  0
  -25.1296  -36.1888   25.0813 H   0  0  0  0  0  0
  -20.9999  -28.3264   24.1384 H   0  0  0  0  0  0
  -20.5664  -26.2300   23.3607 H   0  0  0  0  0  0
  -21.6639  -26.7420   22.1206 H   0  0  0  0  0  0
  -19.6919  -25.6293   21.1241 H   0  0  0  0  0  0
  -19.6695  -27.3194   20.6745 H   0  0  0  0  0  0
  -17.4196  -26.6671   21.4037 H   0  0  0  0  0  0
  -18.0341  -26.0067   22.9026 H   0  0  0  0  0  0
  -19.7949  -30.7279   24.2257 H   0  0  0  0  0  0
  -17.5029  -31.6274   24.5166 H   0  0  0  0  0  0
  -15.5364  -30.3001   23.7662 H   0  0  0  0  0  0
  -15.8667  -28.0836   22.7068 H   0  0  0  0  0  0
  -24.5916  -30.7050   25.7756 H   0  0  0  0  0  0
  -24.8883  -32.2905   26.4801 H   0  0  0  0  0  0
  -25.8036  -30.8954   27.0226 H   0  0  0  0  0  0
  -26.2913  -29.6746   24.1196 H   0  0  0  0  0  0
  -27.4023  -29.7251   25.4684 H   0  0  0  0  0  0
  -27.8786  -30.4271   23.9403 H   0  0  0  0  0  0
  -27.2676  -33.3643   26.2003 H   0  0  0  0  0  0
  -28.3896  -32.6816   25.0321 H   0  0  0  0  0  0
  -28.0676  -31.8459   26.5438 H   0  0  0  0  0  0
  -28.2570  -38.0101   24.7529 H   0  0  0  0  0  0
  -28.1088  -36.2631   24.6259 H   0  0  0  0  0  0
  -27.2298  -37.1381   25.8867 H   0  0  0  0  0  0
  -20.9360  -29.8762   21.6873 H   0  0  0  0  0  0
  -26.0148  -38.2827   24.1457 H   0  0  0  0  0  0
  -28.8986  -24.4046   17.4725 H   0  0  0  0  0  0
  -28.5396  -26.1196   17.5555 H   0  0  0  0  0  0
  -27.2655  -24.9182   17.7875 H   0  0  0  0  0  0
  -31.1621  -17.3839   21.3565 H   0  0  0  0  0  0
  -31.0738  -17.2935   19.6428 H   0  0  0  0  0  0
  -29.7245  -25.1463   19.5293 H   0  0  0  0  0  0
  -29.8210  -22.8850   19.2491 H   0  0  0  0  0  0
  -28.9093  -15.7802   20.8606 H   0  0  0  0  0  0
  1 25  1  0  0  0
  1 30  2  0  0  0
  1 81  1  0  0  0
  2  3  1  0  0  0
  2 25  1  0  0  0
  2 87  1  0  0  0
  2 88  1  0  0  0
  3  4  1  0  0  0
  3 89  1  0  0  0
  3 90  1  0  0  0
  4  5  1  0  0  0
  4 91  1  0  0  0
  4 92  1  0  0  0
  5  6  1  0  0  0
  5 26  1  0  0  0
  5 93  1  0  0  0
  6 25  1  0  0  0
  6 94  1  0  0  0
  6 95  1  0  0  0
  7  8  2  0  0  0
  7 26  1  0  0  0
  7 29  1  0  0  0
  8  9  1  0  0  0
  8 22  1  0  0  0
  9 10  1  0  0  0
  9 27  2  0  0  0
 10 11  2  0  0  0
 10 15  1  0  0  0
 11 12  1  0  0  0
 11 96  1  0  0  0
 12 13  2  0  0  0
 12 97  1  0  0  0
 13 14  1  0  0  0
 13 31  1  0  0  0
 14 15  2  0  0  0
 14 98  1  0  0  0
 15 99  1  0  0  0
 16 17  2  0  0  0
 16 21  1  0  0  0
 16 31  1  0  0  0
 17 18  1  0  0  0
 17100  1  0  0  0
 18 19  2  0  0  0
 18101  1  0  0  0
 19 20  1  0  0  0
 19 24  1  0  0  0
 20 21  2  0  0  0
 20102  1  0  0  0
 21 23  1  0  0  0
 22 28  1  0  0  0
 22 32  2  0  0  0
 26 27  1  0  0  0
 28103  1  0  0  0
 28104  1  0  0  0
 29105  1  0  0  0
 29106  1  0  0  0
 33 34  1  0  0  0
 33 66  1  0  0  0
 33 70  2  0  0  0
 34 36  1  0  0  0
 34 59  1  0  0  0
 34107  1  0  0  0
 35 44  2  0  0  0
 35 45  1  0  0  0
 35 68  1  0  0  0
 36 56  1  0  0  0
 36108  1  0  0  0
 37 39  1  0  0  0
 37 47  1  0  0  0
 37 66  1  0  0  0
 37109  1  0  0  0
 38 43  2  0  0  0
 38 46  1  0  0  0
 38 47  1  0  0  0
 39 64  1  0  0  0
 39 67  2  0  0  0
 40 52  1  0  0  0
 40 53  2  0  0  0
 40 58  1  0  0  0
 41110  1  0  0  0
 41111  1  0  0  0
 41112  1  0  0  0
 41 48  1  0  0  0
 42 43  1  0  0  0
 42 66  1  0  0  0
 42113  1  0  0  0
 42114  1  0  0  0
 43 44  1  0  0  0
 44115  1  0  0  0
 45 46  2  0  0  0
 45116  1  0  0  0
 46117  1  0  0  0
 47118  1  0  0  0
 47119  1  0  0  0
 48 56  1  0  0  0
 48 65  1  0  0  0
 48120  1  0  0  0
 49 50  1  0  0  0
 49 53  1  0  0  0
 49 64  1  0  0  0
 49121  1  0  0  0
 50 51  1  0  0  0
 50122  1  0  0  0
 50123  1  0  0  0
 51 52  1  0  0  0
 51124  1  0  0  0
 51125  1  0  0  0
 52126  1  0  0  0
 52127  1  0  0  0
 53 54  1  0  0  0
 54 55  2  0  0  0
 54128  1  0  0  0
 55 57  1  0  0  0
 55129  1  0  0  0
 56 69  2  0  0  0
 57 58  2  0  0  0
 57130  1  0  0  0
 58131  1  0  0  0
 59 60  1  0  0  0
 59 61  1  0  0  0
 59 62  1  0  0  0
 60132  1  0  0  0
 60133  1  0  0  0
 60134  1  0  0  0
 61135  1  0  0  0
 61136  1  0  0  0
 61137  1  0  0  0
 62138  1  0  0  0
 62139  1  0  0  0
 62140  1  0  0  0
 63 65  1  0  0  0
 63141  1  0  0  0
 63142  1  0  0  0
 63143  1  0  0  0
 64144  1  0  0  0
 65145  1  0  0  0
 68 77  1  0  0  0
 71 72  2  0  0  0
 71 78  1  0  0  0
 71 79  1  0  0  0
 72 76  1  0  0  0
 72 86  1  0  0  0
 73 79  2  0  0  0
 73 80  1  0  0  0
 73 86  1  0  0  0
 74 77  1  0  0  0
 74 80  1  0  0  0
 74 82  2  0  0  0
 75146  1  0  0  0
 75147  1  0  0  0
 75148  1  0  0  0
 75 77  1  0  0  0
 76 81  1  0  0  0
 76149  1  0  0  0
 76150  1  0  0  0
 77151  1  0  0  0
 78 83  1  0  0  0
 78 84  1  0  0  0
 78 85  1  0  0  0
 80152  1  0  0  0
 81153  1  0  0  0
M  ISO  4   1 100  68 101  77 101  81 100
M  END
> <chiral flag>
0

> <version>
0

> <s_m_source_file>
/data/baiqing/PycharmProjects/Reinvent-master-3.2/result/LINK_invent/BTK/process_docking_weight1_custom_product_contain_oxygen_bond_distance_aromatic_linkinvent_7_9_3/rearranged_h_0187.sdf

> <i_m_source_file_index>
39

> <r_mmod_Potential_Energy-OPLS-2005>
102.144386291504

> <r_mmod_Stretch_Energy-OPLS-2005>
110.314468383789

> <r_mmod_Bend_Energy-OPLS-2005>
223.740097045898

> <r_mmod_Torsional_Energy-OPLS-2005>
202.622421264648

> <r_mmod_Improper_Torsional_Energy-OPLS-2005>
5.22371959686279

> <r_mmod_Van_der_Waal_Energy-OPLS-2005>
112.483734130859

> <r_mmod_Electrostatic_Energy-OPLS-2005>
-382.180541992188

> <r_mmod_Solvation_Energy-OPLS-2005>
-245.377029418945

> <b_mmod_Minimization_Converged-OPLS-2005>
0

> <r_mmod_RMS_Derivative-OPLS-2005>
1.04899430274963

$$$$
40
                    3D
 Structure written by MMmdl.
154162  0  0  1  0            999 V2000
  -30.6384  -14.7342   20.4920 C   0  0  0  0  0  0
  -30.4446  -12.4515   19.4670 C   0  0  0  0  0  0
  -29.5149  -12.4981   18.2357 C   0  0  0  0  0  0
  -28.0425  -12.3276   18.6556 C   0  0  0  0  0  0
  -27.6548  -13.2276   19.8599 C   0  0  2  0  0  0
  -28.7052  -13.1393   20.9905 C   0  0  0  0  0  0
  -25.2594  -13.8199   20.5726 C   0  0  0  0  0  0
  -24.1859  -13.0443   20.9200 C   0  0  0  0  0  0
  -24.6436  -11.6916   20.8759 C   0  0  0  0  0  0
  -23.9092  -10.4296   21.0405 C   0  0  0  0  0  0
  -24.3632   -9.4206   21.9186 C   0  0  0  0  0  0
  -23.6305   -8.2242   22.0757 C   0  0  0  0  0  0
  -22.4290   -8.0288   21.3542 C   0  0  0  0  0  0
  -21.9928   -9.0259   20.4640 C   0  0  0  0  0  0
  -22.7262  -10.2136   20.3048 C   0  0  0  0  0  0
  -21.6853   -6.0752   22.5284 C   0  0  0  0  0  0
  -21.4023   -6.5653   23.8218 C   0  0  0  0  0  0
  -21.3642   -5.6800   24.9179 C   0  0  0  0  0  0
  -21.6025   -4.3059   24.7229 C   0  0  0  0  0  0
  -21.8820   -3.8161   23.4352 C   0  0  0  0  0  0
  -21.9193   -4.6981   22.3412 C   0  0  0  0  0  0
  -22.7872  -13.5228   21.1846 C   0  0  0  0  0  0
  -22.1662   -4.2172   21.0984 F   0  0  0  0  0  0
  -21.5609   -3.4537   25.7736 F   0  0  0  0  0  0
  -30.0060  -13.5073   20.4128 N   0  0  0  0  0  0
  -26.3026  -12.9399   20.3337 N   0  0  0  0  0  0
  -25.9376  -11.6547   20.5793 N   0  0  0  0  0  0
  -22.0493  -12.8223   22.0385 N   0  0  0  0  0  0
  -25.4307  -15.1925   20.4180 N   0  0  0  0  0  0
  -31.7756  -14.8314   20.0179 O   0  0  0  0  0  0
  -21.6634   -6.8900   21.4247 O   0  0  0  0  0  0
  -22.3562  -14.5526   20.6681 O   0  0  0  0  0  0
  -24.6333  -31.8557   23.1953 C   0  0  0  0  0  0
  -25.9183  -32.4735   23.8282 C   0  0  1  0  0  0
  -27.2269  -27.2746   20.0998 C   0  0  0  0  0  0
  -25.5986  -33.8544   24.2206 N   0  0  0  0  0  0
  -23.4260  -30.4792   21.5436 C   0  0  2  0  0  0
  -24.8718  -28.9290   20.1043 C   0  0  0  0  0  0
  -22.7482  -29.4605   22.4915 C   0  0  0  0  0  0
  -18.0283  -28.1360   22.8474 C   0  0  0  0  0  0
  -24.1494  -36.7276   23.2632 C   0  0  0  0  0  0
  -25.9750  -30.7633   21.3816 C   0  0  0  0  0  0
  -26.0447  -29.3927   20.7116 C   0  0  0  0  0  0
  -27.2238  -28.5812   20.6961 C   0  0  0  0  0  0
  -26.0289  -26.8773   19.4619 C   0  0  0  0  0  0
  -24.8682  -27.6778   19.4697 C   0  0  0  0  0  0
  -23.6407  -29.8145   20.1598 C   0  0  0  0  0  0
  -25.4128  -36.3042   24.0293 C   0  0  1  0  0  0
  -20.5887  -28.3685   23.1258 C   0  0  2  0  0  0
  -20.6796  -26.9396   22.5400 C   0  0  0  0  0  0
  -19.5765  -26.6365   21.5201 C   0  0  0  0  0  0
  -18.1942  -26.7908   22.1601 C   0  0  0  0  0  0
  -19.1538  -28.8837   23.2865 C   0  0  0  0  0  0
  -18.9481  -30.1459   23.8856 C   0  0  0  0  0  0
  -17.6486  -30.6580   24.0560 C   0  0  0  0  0  0
  -25.9081  -34.9430   23.5039 C   0  0  0  0  0  0
  -16.5370  -29.9068   23.6349 C   0  0  0  0  0  0
  -16.7274  -28.6486   23.0350 C   0  0  0  0  0  0
  -26.4550  -31.6579   25.0696 C   0  0  0  0  0  0
  -25.3747  -31.3759   26.1403 C   0  0  0  0  0  0
  -27.0444  -30.2985   24.6265 C   0  0  0  0  0  0
  -27.6051  -32.4397   25.7479 C   0  0  0  0  0  0
  -27.5579  -37.1760   24.8442 C   0  0  0  0  0  0
  -21.4202  -29.3039   22.3642 N   0  0  0  0  0  0
  -26.4273  -37.3772   23.9421 N   0  0  0  0  0  0
  -24.6970  -31.0495   22.0957 N   0  0  0  0  0  0
  -23.4179  -28.8161   23.3028 O   0  0  0  0  0  0
  -28.3368  -26.3964   20.1688 O   0  0  0  0  0  0
  -26.5634  -34.8895   22.4595 O   0  0  0  0  0  0
  -23.5497  -32.1419   23.7260 O   0  0  0  0  0  0
  -29.7207  -19.3355   18.7494 C   0  0  0  0  0  0
  -29.5634  -19.7659   20.0484 C   0  0  0  0  0  0
  -29.9083  -17.4098   20.3809 C   0  0  0  0  0  0
  -29.1391  -22.3368   19.7328 C   0  0  0  0  0  0
  -30.9064  -16.3210   22.4212 C   0  0  0  0  0  0
  -30.6159  -24.3306   20.3556 C   0  0  0  0  0  0
  -28.1877  -24.9440   19.8076 C   0  0  0  0  0  0
  -30.0231  -16.0526   21.1887 C   0  0  2  0  0  0
  -29.1703  -23.8011   20.3994 C   0  0  1  0  0  0
  -29.6467  -18.6415   20.9399 N   0  0  0  0  0  0
  -29.3871  -21.1811   20.4601 N   0  0  0  0  0  0
  -28.8949  -22.2767   18.5251 O   0  0  0  0  0  0
  -30.0241  -17.5946   18.6256 S   0  0  0  0  0  0
  -31.4807  -12.5744   19.1477 H   0  0  0  0  0  0
  -30.4052  -11.4719   19.9452 H   0  0  0  0  0  0
  -29.7946  -11.7153   17.5289 H   0  0  0  0  0  0
  -29.6441  -13.4459   17.7102 H   0  0  0  0  0  0
  -27.9030  -11.2797   18.9252 H   0  0  0  0  0  0
  -27.3816  -12.5155   17.8086 H   0  0  0  0  0  0
  -27.6595  -14.2535   19.4920 H   0  0  0  0  0  0
  -28.7448  -12.1278   21.3991 H   0  0  0  0  0  0
  -28.4371  -13.7811   21.8282 H   0  0  0  0  0  0
  -25.2781   -9.5673   22.4762 H   0  0  0  0  0  0
  -24.0001   -7.4638   22.7480 H   0  0  0  0  0  0
  -21.0860   -8.8779   19.8954 H   0  0  0  0  0  0
  -22.3728  -10.9672   19.6149 H   0  0  0  0  0  0
  -21.2033   -7.6164   23.9737 H   0  0  0  0  0  0
  -21.1445   -6.0525   25.9077 H   0  0  0  0  0  0
  -22.0618   -2.7627   23.2840 H   0  0  0  0  0  0
  -22.4109  -11.9892   22.4798 H   0  0  0  0  0  0
  -21.1107  -13.1268   22.2565 H   0  0  0  0  0  0
  -24.6665  -15.8477   20.5410 H   0  0  0  0  0  0
  -26.2837  -15.6336   20.0967 H   0  0  0  0  0  0
  -26.7226  -32.5382   23.0992 H   0  0  0  0  0  0
  -25.0217  -33.9710   25.0404 H   0  0  0  0  0  0
  -22.7216  -31.3017   21.4002 H   0  0  0  0  0  0
  -23.3765  -35.9590   23.3260 H   0  0  0  0  0  0
  -24.3600  -36.8974   22.2057 H   0  0  0  0  0  0
  -23.7234  -37.6445   23.6721 H   0  0  0  0  0  0
  -26.1302  -31.5286   20.6207 H   0  0  0  0  0  0
  -26.8464  -30.7956   22.0231 H   0  0  0  0  0  0
  -28.1263  -28.9365   21.1725 H   0  0  0  0  0  0
  -25.9502  -25.9283   18.9544 H   0  0  0  0  0  0
  -23.9707  -27.3212   18.9828 H   0  0  0  0  0  0
  -23.7568  -30.5980   19.4089 H   0  0  0  0  0  0
  -22.7584  -29.2456   19.8578 H   0  0  0  0  0  0
  -25.1294  -36.1858   25.0780 H   0  0  0  0  0  0
  -20.9983  -28.3295   24.1368 H   0  0  0  0  0  0
  -20.5736  -26.2273   23.3602 H   0  0  0  0  0  0
  -21.6667  -26.7442   22.1148 H   0  0  0  0  0  0
  -19.6946  -25.6268   21.1252 H   0  0  0  0  0  0
  -19.6730  -27.3171   20.6731 H   0  0  0  0  0  0
  -17.4217  -26.6660   21.3994 H   0  0  0  0  0  0
  -18.0338  -26.0023   22.8971 H   0  0  0  0  0  0
  -19.7970  -30.7298   24.2162 H   0  0  0  0  0  0
  -17.5049  -31.6263   24.5160 H   0  0  0  0  0  0
  -15.5372  -30.2965   23.7719 H   0  0  0  0  0  0
  -15.8667  -28.0842   22.7025 H   0  0  0  0  0  0
  -24.5893  -30.7138   25.7745 H   0  0  0  0  0  0
  -24.8960  -32.2942   26.4810 H   0  0  0  0  0  0
  -25.8032  -30.8951   27.0203 H   0  0  0  0  0  0
  -26.3065  -29.6658   24.1328 H   0  0  0  0  0  0
  -27.4143  -29.7333   25.4836 H   0  0  0  0  0  0
  -27.8914  -30.4225   23.9507 H   0  0  0  0  0  0
  -27.2597  -33.3733   26.1942 H   0  0  0  0  0  0
  -28.3895  -32.6963   25.0333 H   0  0  0  0  0  0
  -28.0673  -31.8631   26.5499 H   0  0  0  0  0  0
  -28.2495  -38.0151   24.7629 H   0  0  0  0  0  0
  -28.1172  -36.2694   24.6101 H   0  0  0  0  0  0
  -27.2328  -37.1191   25.8843 H   0  0  0  0  0  0
  -20.9394  -29.8704   21.6802 H   0  0  0  0  0  0
  -26.0131  -38.2812   24.1538 H   0  0  0  0  0  0
  -29.7022  -19.9349   17.8475 H   0  0  0  0  0  0
  -30.4800  -17.1064   23.0442 H   0  0  0  0  0  0
  -31.9047  -16.6452   22.1216 H   0  0  0  0  0  0
  -31.0137  -15.4321   23.0431 H   0  0  0  0  0  0
  -31.3415  -23.5800   20.6709 H   0  0  0  0  0  0
  -30.7320  -25.1902   21.0184 H   0  0  0  0  0  0
  -30.8893  -24.6516   19.3494 H   0  0  0  0  0  0
  -27.1889  -24.6150   20.0901 H   0  0  0  0  0  0
  -28.2214  -24.8931   18.7179 H   0  0  0  0  0  0
  -29.0143  -15.8271   21.5237 H   0  0  0  0  0  0
  -28.9093  -23.6650   21.4494 H   0  0  0  0  0  0
  -29.5038  -21.3404   21.4507 H   0  0  0  0  0  0
  1 25  1  0  0  0
  1 30  2  0  0  0
  1 78  1  0  0  0
  2  3  1  0  0  0
  2 25  1  0  0  0
  2 84  1  0  0  0
  2 85  1  0  0  0
  3  4  1  0  0  0
  3 86  1  0  0  0
  3 87  1  0  0  0
  4  5  1  0  0  0
  4 88  1  0  0  0
  4 89  1  0  0  0
  5  6  1  0  0  0
  5 26  1  0  0  0
  5 90  1  0  0  0
  6 25  1  0  0  0
  6 91  1  0  0  0
  6 92  1  0  0  0
  7  8  2  0  0  0
  7 26  1  0  0  0
  7 29  1  0  0  0
  8  9  1  0  0  0
  8 22  1  0  0  0
  9 10  1  0  0  0
  9 27  2  0  0  0
 10 11  2  0  0  0
 10 15  1  0  0  0
 11 12  1  0  0  0
 11 93  1  0  0  0
 12 13  2  0  0  0
 12 94  1  0  0  0
 13 14  1  0  0  0
 13 31  1  0  0  0
 14 15  2  0  0  0
 14 95  1  0  0  0
 15 96  1  0  0  0
 16 17  2  0  0  0
 16 21  1  0  0  0
 16 31  1  0  0  0
 17 18  1  0  0  0
 17 97  1  0  0  0
 18 19  2  0  0  0
 18 98  1  0  0  0
 19 20  1  0  0  0
 19 24  1  0  0  0
 20 21  2  0  0  0
 20 99  1  0  0  0
 21 23  1  0  0  0
 22 28  1  0  0  0
 22 32  2  0  0  0
 26 27  1  0  0  0
 28100  1  0  0  0
 28101  1  0  0  0
 29102  1  0  0  0
 29103  1  0  0  0
 33 34  1  0  0  0
 33 66  1  0  0  0
 33 70  2  0  0  0
 34 36  1  0  0  0
 34 59  1  0  0  0
 34104  1  0  0  0
 35 44  2  0  0  0
 35 45  1  0  0  0
 35 68  1  0  0  0
 36 56  1  0  0  0
 36105  1  0  0  0
 37 39  1  0  0  0
 37 47  1  0  0  0
 37 66  1  0  0  0
 37106  1  0  0  0
 38 43  2  0  0  0
 38 46  1  0  0  0
 38 47  1  0  0  0
 39 64  1  0  0  0
 39 67  2  0  0  0
 40 52  1  0  0  0
 40 53  2  0  0  0
 40 58  1  0  0  0
 41107  1  0  0  0
 41108  1  0  0  0
 41109  1  0  0  0
 41 48  1  0  0  0
 42 43  1  0  0  0
 42 66  1  0  0  0
 42110  1  0  0  0
 42111  1  0  0  0
 43 44  1  0  0  0
 44112  1  0  0  0
 45 46  2  0  0  0
 45113  1  0  0  0
 46114  1  0  0  0
 47115  1  0  0  0
 47116  1  0  0  0
 48 56  1  0  0  0
 48 65  1  0  0  0
 48117  1  0  0  0
 49 50  1  0  0  0
 49 53  1  0  0  0
 49 64  1  0  0  0
 49118  1  0  0  0
 50 51  1  0  0  0
 50119  1  0  0  0
 50120  1  0  0  0
 51 52  1  0  0  0
 51121  1  0  0  0
 51122  1  0  0  0
 52123  1  0  0  0
 52124  1  0  0  0
 53 54  1  0  0  0
 54 55  2  0  0  0
 54125  1  0  0  0
 55 57  1  0  0  0
 55126  1  0  0  0
 56 69  2  0  0  0
 57 58  2  0  0  0
 57127  1  0  0  0
 58128  1  0  0  0
 59 60  1  0  0  0
 59 61  1  0  0  0
 59 62  1  0  0  0
 60129  1  0  0  0
 60130  1  0  0  0
 60131  1  0  0  0
 61132  1  0  0  0
 61133  1  0  0  0
 61134  1  0  0  0
 62135  1  0  0  0
 62136  1  0  0  0
 62137  1  0  0  0
 63 65  1  0  0  0
 63138  1  0  0  0
 63139  1  0  0  0
 63140  1  0  0  0
 64141  1  0  0  0
 65142  1  0  0  0
 68 77  1  0  0  0
 71 72  2  0  0  0
 71 83  1  0  0  0
 71143  1  0  0  0
 72 80  1  0  0  0
 72 81  1  0  0  0
 73 78  1  0  0  0
 73 80  2  0  0  0
 73 83  1  0  0  0
 74 79  1  0  0  0
 74 81  1  0  0  0
 74 82  2  0  0  0
 75144  1  0  0  0
 75145  1  0  0  0
 75146  1  0  0  0
 75 78  1  0  0  0
 76147  1  0  0  0
 76148  1  0  0  0
 76149  1  0  0  0
 76 79  1  0  0  0
 77 79  1  0  0  0
 77150  1  0  0  0
 77151  1  0  0  0
 78152  1  0  0  0
 79153  1  0  0  0
 81154  1  0  0  0
M  ISO  4   1 100  68 101  77 101  78 100
M  END
> <chiral flag>
0

> <version>
0

> <s_m_source_file>
/data/baiqing/PycharmProjects/Reinvent-master-3.2/result/LINK_invent/BTK/process_docking_weight1_custom_product_contain_oxygen_bond_distance_aromatic_linkinvent_7_9_3/rearranged_h_0187.sdf

> <i_m_source_file_index>
40

> <r_mmod_Potential_Energy-OPLS-2005>
100.100196838379

> <r_mmod_Stretch_Energy-OPLS-2005>
121.721664428711

> <r_mmod_Bend_Energy-OPLS-2005>
177.09895324707

> <r_mmod_Torsional_Energy-OPLS-2005>
183.821853637695

> <r_mmod_Improper_Torsional_Energy-OPLS-2005>
1.81352853775024

> <r_mmod_Van_der_Waal_Energy-OPLS-2005>
121.465873718262

> <r_mmod_Electrostatic_Energy-OPLS-2005>
-367.261077880859

> <r_mmod_Solvation_Energy-OPLS-2005>
-214.662567138672

> <b_mmod_Minimization_Converged-OPLS-2005>
0

> <r_mmod_RMS_Derivative-OPLS-2005>
3.46827697753906

$$$$
41
                    3D
 Structure written by MMmdl.
158166  0  0  1  0            999 V2000
  -30.6783  -14.4863   20.5563 C   0  0  0  0  0  0
  -30.4388  -12.3103   19.4177 C   0  0  0  0  0  0
  -29.5032  -12.4949   18.2027 C   0  0  0  0  0  0
  -28.0217  -12.3561   18.6133 C   0  0  0  0  0  0
  -27.6662  -13.1965   19.8693 C   0  0  2  0  0  0
  -28.7086  -12.9720   20.9895 C   0  0  0  0  0  0
  -25.2637  -13.8137   20.5623 C   0  0  0  0  0  0
  -24.1875  -13.0442   20.9136 C   0  0  0  0  0  0
  -24.6404  -11.6896   20.8703 C   0  0  0  0  0  0
  -23.9066  -10.4290   21.0397 C   0  0  0  0  0  0
  -24.3624   -9.4206   21.9172 C   0  0  0  0  0  0
  -23.6290   -8.2253   22.0755 C   0  0  0  0  0  0
  -22.4273   -8.0280   21.3549 C   0  0  0  0  0  0
  -21.9910   -9.0256   20.4658 C   0  0  0  0  0  0
  -22.7242  -10.2133   20.3048 C   0  0  0  0  0  0
  -21.6859   -6.0731   22.5274 C   0  0  0  0  0  0
  -21.4028   -6.5637   23.8206 C   0  0  0  0  0  0
  -21.3650   -5.6792   24.9162 C   0  0  0  0  0  0
  -21.6041   -4.3053   24.7223 C   0  0  0  0  0  0
  -21.8828   -3.8147   23.4345 C   0  0  0  0  0  0
  -21.9201   -4.6959   22.3401 C   0  0  0  0  0  0
  -22.7903  -13.5246   21.1812 C   0  0  0  0  0  0
  -22.1667   -4.2143   21.0977 F   0  0  0  0  0  0
  -21.5619   -3.4538   25.7736 F   0  0  0  0  0  0
  -30.0393  -13.2904   20.4387 N   0  0  0  0  0  0
  -26.3057  -12.9287   20.3307 N   0  0  0  0  0  0
  -25.9328  -11.6457   20.5740 N   0  0  0  0  0  0
  -22.0562  -12.8230   22.0373 N   0  0  0  0  0  0
  -25.4403  -15.1857   20.4012 N   0  0  0  0  0  0
  -31.8135  -14.6815   20.1059 O   0  0  0  0  0  0
  -21.6644   -6.8873   21.4237 O   0  0  0  0  0  0
  -22.3574  -14.5542   20.6654 O   0  0  0  0  0  0
  -24.6140  -31.8668   23.2077 C   0  0  0  0  0  0
  -25.9022  -32.4828   23.8390 C   0  0  1  0  0  0
  -27.2408  -27.4379   20.1139 C   0  0  0  0  0  0
  -25.5865  -33.8628   24.2324 N   0  0  0  0  0  0
  -23.4057  -30.4882   21.5451 C   0  0  2  0  0  0
  -24.8582  -28.9565   20.1136 C   0  0  0  0  0  0
  -22.7431  -29.4630   22.4942 C   0  0  0  0  0  0
  -18.0286  -28.1384   22.8481 C   0  0  0  0  0  0
  -24.1488  -36.7321   23.2641 C   0  0  0  0  0  0
  -25.9330  -30.8384   21.3604 C   0  0  0  0  0  0
  -26.0154  -29.4718   20.7108 C   0  0  0  0  0  0
  -27.2144  -28.7218   20.7046 C   0  0  0  0  0  0
  -26.0710  -26.9339   19.5068 C   0  0  0  0  0  0
  -24.8821  -27.6876   19.5041 C   0  0  0  0  0  0
  -23.6185  -29.8217   20.1596 C   0  0  0  0  0  0
  -25.4112  -36.3112   24.0335 C   0  0  1  0  0  0
  -20.5880  -28.3661   23.1308 C   0  0  2  0  0  0
  -20.6769  -26.9384   22.5430 C   0  0  0  0  0  0
  -19.5748  -26.6379   21.5211 C   0  0  0  0  0  0
  -18.1928  -26.7913   22.1632 C   0  0  0  0  0  0
  -19.1540  -28.8835   23.2884 C   0  0  0  0  0  0
  -18.9472  -30.1441   23.8887 C   0  0  0  0  0  0
  -17.6473  -30.6576   24.0567 C   0  0  0  0  0  0
  -25.9033  -34.9476   23.5128 C   0  0  0  0  0  0
  -16.5359  -29.9090   23.6318 C   0  0  0  0  0  0
  -16.7277  -28.6521   23.0304 C   0  0  0  0  0  0
  -26.4446  -31.6606   25.0712 C   0  0  0  0  0  0
  -25.3716  -31.3717   26.1465 C   0  0  0  0  0  0
  -27.0279  -30.3058   24.6076 C   0  0  0  0  0  0
  -27.6027  -32.4322   25.7479 C   0  0  0  0  0  0
  -27.5586  -37.1810   24.8471 C   0  0  0  0  0  0
  -21.4157  -29.3023   22.3713 N   0  0  0  0  0  0
  -26.4303  -37.3789   23.9410 N   0  0  0  0  0  0
  -24.6685  -31.0784   22.0968 N   0  0  0  0  0  0
  -23.4206  -28.8144   23.2953 O   0  0  0  0  0  0
  -28.3785  -26.6602   20.1361 O   0  0  0  0  0  0
  -26.5608  -34.8927   22.4703 O   0  0  0  0  0  0
  -23.5334  -32.1406   23.7468 O   0  0  0  0  0  0
  -30.9364  -18.9467   20.7457 C   0  0  0  0  0  0
  -29.6145  -19.3433   20.8356 C   0  0  0  0  0  0
  -30.0111  -16.8820   20.9351 C   0  0  0  0  0  0
  -30.3066  -21.5629   22.7519 C   0  0  0  0  0  0
  -29.0951  -26.1487   22.3663 C   0  0  0  0  0  0
  -28.9663  -24.2823   20.5908 C   0  0  0  0  0  0
  -29.6805  -21.8315   21.3653 C   0  0  2  0  0  0
  -28.3528  -25.6114   21.1257 C   0  0  2  0  0  0
  -28.6751  -23.0363   21.4802 C   0  0  2  0  0  0
  -31.1599  -17.5613   20.8119 N   0  0  0  0  0  0
  -29.0187  -20.6244   20.8427 N   0  0  0  0  0  0
  -29.9094  -15.4649   21.0702 N   0  0  0  0  0  0
  -27.3461  -22.5752   21.2638 O   0  0  0  0  0  0
  -31.9317  -19.7929   20.6035 F   0  0  0  0  0  0
  -28.5872  -17.9299   20.9739 S   0  0  0  0  0  0
  -31.4826  -12.4220   19.1143 H   0  0  0  0  0  0
  -30.3538  -11.2998   19.8206 H   0  0  0  0  0  0
  -29.7445  -11.7611   17.4323 H   0  0  0  0  0  0
  -29.6708  -13.4755   17.7539 H   0  0  0  0  0  0
  -27.8234  -11.2997   18.8028 H   0  0  0  0  0  0
  -27.3751  -12.6365   17.7810 H   0  0  0  0  0  0
  -27.7128  -14.2437   19.5681 H   0  0  0  0  0  0
  -28.6920  -11.9323   21.3214 H   0  0  0  0  0  0
  -28.4640  -13.5603   21.8758 H   0  0  0  0  0  0
  -25.2792   -9.5678   22.4706 H   0  0  0  0  0  0
  -24.0009   -7.4656   22.7469 H   0  0  0  0  0  0
  -21.0842   -8.8785   19.8961 H   0  0  0  0  0  0
  -22.3722  -10.9662   19.6131 H   0  0  0  0  0  0
  -21.2034   -7.6150   23.9704 H   0  0  0  0  0  0
  -21.1450   -6.0521   25.9059 H   0  0  0  0  0  0
  -22.0620   -2.7608   23.2855 H   0  0  0  0  0  0
  -22.4204  -11.9885   22.4738 H   0  0  0  0  0  0
  -21.1181  -13.1234   22.2600 H   0  0  0  0  0  0
  -24.6772  -15.8450   20.5040 H   0  0  0  0  0  0
  -26.2815  -15.6158   20.0412 H   0  0  0  0  0  0
  -26.7113  -32.5527   23.1184 H   0  0  0  0  0  0
  -24.9964  -33.9781   25.0438 H   0  0  0  0  0  0
  -22.6938  -31.3036   21.3990 H   0  0  0  0  0  0
  -23.3736  -35.9661   23.3320 H   0  0  0  0  0  0
  -24.3582  -36.8917   22.2051 H   0  0  0  0  0  0
  -23.7271  -37.6539   23.6660 H   0  0  0  0  0  0
  -26.0425  -31.6042   20.5901 H   0  0  0  0  0  0
  -26.8218  -30.8959   21.9759 H   0  0  0  0  0  0
  -28.1087  -29.1133   21.1696 H   0  0  0  0  0  0
  -26.0800  -25.9519   19.0524 H   0  0  0  0  0  0
  -23.9951  -27.2847   19.0361 H   0  0  0  0  0  0
  -23.7349  -30.6025   19.4053 H   0  0  0  0  0  0
  -22.7424  -29.2447   19.8562 H   0  0  0  0  0  0
  -25.1293  -36.1954   25.0824 H   0  0  0  0  0  0
  -20.9977  -28.3219   24.1429 H   0  0  0  0  0  0
  -20.5683  -26.2256   23.3623 H   0  0  0  0  0  0
  -21.6636  -26.7407   22.1209 H   0  0  0  0  0  0
  -19.6896  -25.6301   21.1227 H   0  0  0  0  0  0
  -19.6695  -27.3200   20.6750 H   0  0  0  0  0  0
  -17.4208  -26.6672   21.4026 H   0  0  0  0  0  0
  -18.0302  -26.0064   22.9041 H   0  0  0  0  0  0
  -19.7954  -30.7243   24.2262 H   0  0  0  0  0  0
  -17.5039  -31.6250   24.5178 H   0  0  0  0  0  0
  -15.5364  -30.2986   23.7652 H   0  0  0  0  0  0
  -15.8679  -28.0858   22.6966 H   0  0  0  0  0  0
  -24.5907  -30.7026   25.7831 H   0  0  0  0  0  0
  -24.8871  -32.2865   26.4877 H   0  0  0  0  0  0
  -25.8070  -30.8945   27.0254 H   0  0  0  0  0  0
  -26.2821  -29.6847   24.1098 H   0  0  0  0  0  0
  -27.4020  -29.7245   25.4513 H   0  0  0  0  0  0
  -27.8670  -30.4384   23.9230 H   0  0  0  0  0  0
  -27.2643  -33.3632   26.2058 H   0  0  0  0  0  0
  -28.3848  -32.6862   25.0306 H   0  0  0  0  0  0
  -28.0696  -31.8444   26.5389 H   0  0  0  0  0  0
  -28.2592  -38.0113   24.7501 H   0  0  0  0  0  0
  -28.1073  -36.2639   24.6300 H   0  0  0  0  0  0
  -27.2289  -37.1454   25.8867 H   0  0  0  0  0  0
  -20.9337  -29.8825   21.6995 H   0  0  0  0  0  0
  -26.0177  -38.2856   24.1421 H   0  0  0  0  0  0
  -30.7583  -22.4662   23.1644 H   0  0  0  0  0  0
  -31.0966  -20.8147   22.7287 H   0  0  0  0  0  0
  -29.5537  -21.2217   23.4656 H   0  0  0  0  0  0
  -28.6610  -27.0880   22.7096 H   0  0  0  0  0  0
  -29.0581  -25.4545   23.2067 H   0  0  0  0  0  0
  -30.1458  -26.3327   22.1408 H   0  0  0  0  0  0
  -30.0439  -24.4223   20.4971 H   0  0  0  0  0  0
  -28.6077  -24.0898   19.5798 H   0  0  0  0  0  0
  -30.4812  -22.1009   20.6714 H   0  0  0  0  0  0
  -27.3203  -25.3968   21.4084 H   0  0  0  0  0  0
  -28.6872  -23.3746   22.5165 H   0  0  0  0  0  0
  -28.0660  -20.7938   20.5227 H   0  0  0  0  0  0
  -29.0081  -15.1382   21.3806 H   0  0  0  0  0  0
  -27.2142  -21.8649   21.8837 H   0  0  0  0  0  0
  1 25  1  0  0  0
  1 30  2  0  0  0
  1 82  1  0  0  0
  2  3  1  0  0  0
  2 25  1  0  0  0
  2 86  1  0  0  0
  2 87  1  0  0  0
  3  4  1  0  0  0
  3 88  1  0  0  0
  3 89  1  0  0  0
  4  5  1  0  0  0
  4 90  1  0  0  0
  4 91  1  0  0  0
  5  6  1  0  0  0
  5 26  1  0  0  0
  5 92  1  0  0  0
  6 25  1  0  0  0
  6 93  1  0  0  0
  6 94  1  0  0  0
  7  8  2  0  0  0
  7 26  1  0  0  0
  7 29  1  0  0  0
  8  9  1  0  0  0
  8 22  1  0  0  0
  9 10  1  0  0  0
  9 27  2  0  0  0
 10 11  2  0  0  0
 10 15  1  0  0  0
 11 12  1  0  0  0
 11 95  1  0  0  0
 12 13  2  0  0  0
 12 96  1  0  0  0
 13 14  1  0  0  0
 13 31  1  0  0  0
 14 15  2  0  0  0
 14 97  1  0  0  0
 15 98  1  0  0  0
 16 17  2  0  0  0
 16 21  1  0  0  0
 16 31  1  0  0  0
 17 18  1  0  0  0
 17 99  1  0  0  0
 18 19  2  0  0  0
 18100  1  0  0  0
 19 20  1  0  0  0
 19 24  1  0  0  0
 20 21  2  0  0  0
 20101  1  0  0  0
 21 23  1  0  0  0
 22 28  1  0  0  0
 22 32  2  0  0  0
 26 27  1  0  0  0
 28102  1  0  0  0
 28103  1  0  0  0
 29104  1  0  0  0
 29105  1  0  0  0
 33 34  1  0  0  0
 33 66  1  0  0  0
 33 70  2  0  0  0
 34 36  1  0  0  0
 34 59  1  0  0  0
 34106  1  0  0  0
 35 44  2  0  0  0
 35 45  1  0  0  0
 35 68  1  0  0  0
 36 56  1  0  0  0
 36107  1  0  0  0
 37 39  1  0  0  0
 37 47  1  0  0  0
 37 66  1  0  0  0
 37108  1  0  0  0
 38 43  2  0  0  0
 38 46  1  0  0  0
 38 47  1  0  0  0
 39 64  1  0  0  0
 39 67  2  0  0  0
 40 52  1  0  0  0
 40 53  2  0  0  0
 40 58  1  0  0  0
 41109  1  0  0  0
 41110  1  0  0  0
 41111  1  0  0  0
 41 48  1  0  0  0
 42 43  1  0  0  0
 42 66  1  0  0  0
 42112  1  0  0  0
 42113  1  0  0  0
 43 44  1  0  0  0
 44114  1  0  0  0
 45 46  2  0  0  0
 45115  1  0  0  0
 46116  1  0  0  0
 47117  1  0  0  0
 47118  1  0  0  0
 48 56  1  0  0  0
 48 65  1  0  0  0
 48119  1  0  0  0
 49 50  1  0  0  0
 49 53  1  0  0  0
 49 64  1  0  0  0
 49120  1  0  0  0
 50 51  1  0  0  0
 50121  1  0  0  0
 50122  1  0  0  0
 51 52  1  0  0  0
 51123  1  0  0  0
 51124  1  0  0  0
 52125  1  0  0  0
 52126  1  0  0  0
 53 54  1  0  0  0
 54 55  2  0  0  0
 54127  1  0  0  0
 55 57  1  0  0  0
 55128  1  0  0  0
 56 69  2  0  0  0
 57 58  2  0  0  0
 57129  1  0  0  0
 58130  1  0  0  0
 59 60  1  0  0  0
 59 61  1  0  0  0
 59 62  1  0  0  0
 60131  1  0  0  0
 60132  1  0  0  0
 60133  1  0  0  0
 61134  1  0  0  0
 61135  1  0  0  0
 61136  1  0  0  0
 62137  1  0  0  0
 62138  1  0  0  0
 62139  1  0  0  0
 63 65  1  0  0  0
 63140  1  0  0  0
 63141  1  0  0  0
 63142  1  0  0  0
 64143  1  0  0  0
 65144  1  0  0  0
 68 78  1  0  0  0
 71 72  2  0  0  0
 71 80  1  0  0  0
 71 84  1  0  0  0
 72 81  1  0  0  0
 72 85  1  0  0  0
 73 80  2  0  0  0
 73 82  1  0  0  0
 73 85  1  0  0  0
 74145  1  0  0  0
 74146  1  0  0  0
 74147  1  0  0  0
 74 77  1  0  0  0
 75148  1  0  0  0
 75149  1  0  0  0
 75150  1  0  0  0
 75 78  1  0  0  0
 76 78  1  0  0  0
 76 79  1  0  0  0
 76151  1  0  0  0
 76152  1  0  0  0
 77 79  1  0  0  0
 77 81  1  0  0  0
 77153  1  0  0  0
 78154  1  0  0  0
 79 83  1  0  0  0
 79155  1  0  0  0
 81156  1  0  0  0
 82157  1  0  0  0
 83158  1  0  0  0
M  ISO  4   1 100  68 101  78 101  82 100
M  END
> <chiral flag>
0

> <version>
0

> <s_m_source_file>
/data/baiqing/PycharmProjects/Reinvent-master-3.2/result/LINK_invent/BTK/process_docking_weight1_custom_product_contain_oxygen_bond_distance_aromatic_linkinvent_7_9_3/rearranged_h_0187.sdf

> <i_m_source_file_index>
41

> <r_mmod_Potential_Energy-OPLS-2005>
-43.5736312866211

> <r_mmod_Stretch_Energy-OPLS-2005>
40.4159469604492

> <r_mmod_Bend_Energy-OPLS-2005>
108.251983642578

> <r_mmod_Torsional_Energy-OPLS-2005>
290.843780517578

> <r_mmod_Improper_Torsional_Energy-OPLS-2005>
4.29274272918701

> <r_mmod_Van_der_Waal_Energy-OPLS-2005>
136.881942749023

> <r_mmod_Electrostatic_Energy-OPLS-2005>
-400.856994628906

> <r_mmod_Solvation_Energy-OPLS-2005>
-237.855331420898

> <b_mmod_Minimization_Converged-OPLS-2005>
0

> <r_mmod_RMS_Derivative-OPLS-2005>
2.78292107582092

$$$$
42
                    3D
 Structure written by MMmdl.
163171  0  0  1  0            999 V2000
  -30.6763  -14.5471   20.4976 C   0  0  0  0  0  0
  -30.4151  -12.3291   19.4623 C   0  0  0  0  0  0
  -29.4970  -12.4885   18.2318 C   0  0  0  0  0  0
  -28.0192  -12.3441   18.6408 C   0  0  0  0  0  0
  -27.6509  -13.2194   19.8675 C   0  0  2  0  0  0
  -28.6864  -13.0724   21.0069 C   0  0  0  0  0  0
  -25.2516  -13.8215   20.5665 C   0  0  0  0  0  0
  -24.1773  -13.0446   20.9175 C   0  0  0  0  0  0
  -24.6358  -11.6933   20.8763 C   0  0  0  0  0  0
  -23.9046  -10.4298   21.0406 C   0  0  0  0  0  0
  -24.3623   -9.4226   21.9183 C   0  0  0  0  0  0
  -23.6309   -8.2255   22.0754 C   0  0  0  0  0  0
  -22.4293   -8.0280   21.3534 C   0  0  0  0  0  0
  -21.9906   -9.0251   20.4635 C   0  0  0  0  0  0
  -22.7232  -10.2125   20.3042 C   0  0  0  0  0  0
  -21.6855   -6.0743   22.5271 C   0  0  0  0  0  0
  -21.4025   -6.5642   23.8206 C   0  0  0  0  0  0
  -21.3654   -5.6793   24.9172 C   0  0  0  0  0  0
  -21.6010   -4.3044   24.7221 C   0  0  0  0  0  0
  -21.8827   -3.8148   23.4343 C   0  0  0  0  0  0
  -21.9196   -4.6970   22.3398 C   0  0  0  0  0  0
  -22.7810  -13.5237   21.1834 C   0  0  0  0  0  0
  -22.1676   -4.2158   21.0980 F   0  0  0  0  0  0
  -21.5614   -3.4527   25.7735 F   0  0  0  0  0  0
  -30.0207  -13.3520   20.4470 N   0  0  0  0  0  0
  -26.2935  -12.9399   20.3329 N   0  0  0  0  0  0
  -25.9296  -11.6553   20.5812 N   0  0  0  0  0  0
  -22.0451  -12.8239   22.0405 N   0  0  0  0  0  0
  -25.4261  -15.1944   20.4118 N   0  0  0  0  0  0
  -31.8325  -14.6759   20.0747 O   0  0  0  0  0  0
  -21.6641   -6.8896   21.4233 O   0  0  0  0  0  0
  -22.3493  -14.5526   20.6669 O   0  0  0  0  0  0
  -24.6216  -31.8650   23.2088 C   0  0  0  0  0  0
  -25.9085  -32.4807   23.8390 C   0  0  1  0  0  0
  -27.2193  -27.3746   20.0831 C   0  0  0  0  0  0
  -25.5940  -33.8629   24.2316 N   0  0  0  0  0  0
  -23.4106  -30.4945   21.5531 C   0  0  2  0  0  0
  -24.8479  -28.9626   20.1113 C   0  0  0  0  0  0
  -22.7461  -29.4657   22.4977 C   0  0  0  0  0  0
  -18.0303  -28.1359   22.8495 C   0  0  0  0  0  0
  -24.1489  -36.7310   23.2636 C   0  0  0  0  0  0
  -25.9503  -30.8127   21.3698 C   0  0  0  0  0  0
  -26.0178  -29.4477   20.7062 C   0  0  0  0  0  0
  -27.2028  -28.6648   20.6814 C   0  0  0  0  0  0
  -26.0164  -26.9274   19.4838 C   0  0  0  0  0  0
  -24.8452  -27.7030   19.5007 C   0  0  0  0  0  0
  -23.6146  -29.8340   20.1675 C   0  0  0  0  0  0
  -25.4117  -36.3133   24.0341 C   0  0  1  0  0  0
  -20.5898  -28.3649   23.1290 C   0  0  2  0  0  0
  -20.6785  -26.9368   22.5396 C   0  0  0  0  0  0
  -19.5755  -26.6353   21.5194 C   0  0  0  0  0  0
  -18.1941  -26.7921   22.1608 C   0  0  0  0  0  0
  -19.1557  -28.8818   23.2897 C   0  0  0  0  0  0
  -18.9472  -30.1434   23.8886 C   0  0  0  0  0  0
  -17.6472  -30.6564   24.0548 C   0  0  0  0  0  0
  -25.9042  -34.9491   23.5119 C   0  0  0  0  0  0
  -16.5365  -29.9053   23.6328 C   0  0  0  0  0  0
  -16.7291  -28.6471   23.0358 C   0  0  0  0  0  0
  -26.4482  -31.6643   25.0768 C   0  0  0  0  0  0
  -25.3747  -31.3766   26.1514 C   0  0  0  0  0  0
  -27.0300  -30.3074   24.6194 C   0  0  0  0  0  0
  -27.6033  -32.4384   25.7543 C   0  0  0  0  0  0
  -27.5591  -37.1810   24.8470 C   0  0  0  0  0  0
  -21.4176  -29.3040   22.3706 N   0  0  0  0  0  0
  -26.4291  -37.3837   23.9420 N   0  0  0  0  0  0
  -24.6817  -31.0728   22.1013 N   0  0  0  0  0  0
  -23.4225  -28.8170   23.3009 O   0  0  0  0  0  0
  -28.3895  -26.6118   20.1167 O   0  0  0  0  0  0
  -26.5587  -34.8949   22.4670 O   0  0  0  0  0  0
  -23.5385  -32.1421   23.7449 O   0  0  0  0  0  0
  -30.1716  -18.5506   18.7651 C   0  0  0  0  0  0
  -29.8020  -19.3868   19.7939 C   0  0  0  0  0  0
  -30.0120  -16.9571   20.4021 C   0  0  0  0  0  0
  -29.5979  -20.8752   19.7265 C   0  0  0  0  0  0
  -24.2573  -23.6842   21.4063 C   0  0  0  0  0  0
  -25.9733  -21.2055   20.8853 C   0  0  0  0  0  0
  -25.6376  -23.7442   20.7329 C   0  0  0  0  0  0
  -28.4324  -25.2403   19.6078 C   0  0  0  0  0  0
  -26.6206  -22.5995   21.0966 C   0  0  2  0  0  0
  -28.0043  -22.7260   20.3627 C   0  0  1  0  0  0
  -28.7961  -24.0789   20.6112 C   0  0  2  0  0  0
  -30.3032  -17.1963   19.1171 N   0  0  0  0  0  0
  -29.9607  -15.6154   20.9239 N   0  0  0  0  0  0
  -28.7941  -21.4917   20.6155 N   0  0  0  0  0  0
  -30.0782  -21.4977   18.7776 O   0  0  0  0  0  0
  -28.5825  -24.5280   21.9401 O   0  0  0  0  0  0
  -29.5750  -18.4531   21.2769 S   0  0  0  0  0  0
  -31.4652  -12.4085   19.1701 H   0  0  0  0  0  0
  -30.3139  -11.3358   19.8989 H   0  0  0  0  0  0
  -29.7437  -11.7500   17.4665 H   0  0  0  0  0  0
  -29.6582  -13.4695   17.7836 H   0  0  0  0  0  0
  -27.8512  -11.2926   18.8761 H   0  0  0  0  0  0
  -27.3619  -12.5776   17.8028 H   0  0  0  0  0  0
  -27.6738  -14.2540   19.5221 H   0  0  0  0  0  0
  -28.6493  -12.0732   21.4444 H   0  0  0  0  0  0
  -28.4420  -13.7477   21.8288 H   0  0  0  0  0  0
  -25.2749   -9.5715   22.4793 H   0  0  0  0  0  0
  -23.9998   -7.4645   22.7472 H   0  0  0  0  0  0
  -21.0843   -8.8766   19.8961 H   0  0  0  0  0  0
  -22.3673  -10.9680   19.6177 H   0  0  0  0  0  0
  -21.2043   -7.6166   23.9707 H   0  0  0  0  0  0
  -21.1462   -6.0545   25.9073 H   0  0  0  0  0  0
  -22.0610   -2.7620   23.2849 H   0  0  0  0  0  0
  -22.4064  -11.9899   22.4804 H   0  0  0  0  0  0
  -21.1078  -13.1278   22.2586 H   0  0  0  0  0  0
  -24.6550  -15.8461   20.5097 H   0  0  0  0  0  0
  -26.2787  -15.6366   20.0888 H   0  0  0  0  0  0
  -26.7170  -32.5461   23.1154 H   0  0  0  0  0  0
  -25.0208  -33.9764   25.0543 H   0  0  0  0  0  0
  -22.7054  -31.3169   21.4158 H   0  0  0  0  0  0
  -23.3776  -35.9619   23.3325 H   0  0  0  0  0  0
  -24.3583  -36.8866   22.2036 H   0  0  0  0  0  0
  -23.7184  -37.6499   23.6638 H   0  0  0  0  0  0
  -26.0830  -31.5819   20.6073 H   0  0  0  0  0  0
  -26.8339  -30.8494   21.9977 H   0  0  0  0  0  0
  -28.1105  -29.0430   21.1301 H   0  0  0  0  0  0
  -25.9078  -25.9768   18.9968 H   0  0  0  0  0  0
  -23.9410  -27.3170   19.0483 H   0  0  0  0  0  0
  -23.7186  -30.6076   19.4055 H   0  0  0  0  0  0
  -22.7375  -29.2544   19.8742 H   0  0  0  0  0  0
  -25.1297  -36.2000   25.0832 H   0  0  0  0  0  0
  -21.0020  -28.3184   24.1398 H   0  0  0  0  0  0
  -20.5640  -26.2257   23.3595 H   0  0  0  0  0  0
  -21.6656  -26.7362   22.1201 H   0  0  0  0  0  0
  -19.6888  -25.6258   21.1227 H   0  0  0  0  0  0
  -19.6684  -27.3160   20.6724 H   0  0  0  0  0  0
  -17.4213  -26.6704   21.4008 H   0  0  0  0  0  0
  -18.0298  -26.0046   22.8973 H   0  0  0  0  0  0
  -19.7942  -30.7258   24.2246 H   0  0  0  0  0  0
  -17.5019  -31.6253   24.5136 H   0  0  0  0  0  0
  -15.5360  -30.2935   23.7665 H   0  0  0  0  0  0
  -15.8707  -28.0774   22.7088 H   0  0  0  0  0  0
  -24.5903  -30.7132   25.7859 H   0  0  0  0  0  0
  -24.8975  -32.2933   26.4992 H   0  0  0  0  0  0
  -25.8077  -30.8896   27.0260 H   0  0  0  0  0  0
  -26.2826  -29.6855   24.1241 H   0  0  0  0  0  0
  -27.4031  -29.7311   25.4670 H   0  0  0  0  0  0
  -27.8731  -30.4388   23.9403 H   0  0  0  0  0  0
  -27.2621  -33.3665   26.2160 H   0  0  0  0  0  0
  -28.3836  -32.6954   25.0374 H   0  0  0  0  0  0
  -28.0766  -31.8501   26.5411 H   0  0  0  0  0  0
  -28.2633  -38.0094   24.7539 H   0  0  0  0  0  0
  -28.1048  -36.2615   24.6284 H   0  0  0  0  0  0
  -27.2307  -37.1457   25.8872 H   0  0  0  0  0  0
  -20.9330  -29.8786   21.6944 H   0  0  0  0  0  0
  -26.0188  -38.2916   24.1426 H   0  0  0  0  0  0
  -30.3412  -18.8361   17.7349 H   0  0  0  0  0  0
  -23.6642  -24.5684   21.1606 H   0  0  0  0  0  0
  -24.3514  -23.6325   22.4910 H   0  0  0  0  0  0
  -23.6887  -22.8147   21.0782 H   0  0  0  0  0  0
  -25.0209  -21.1045   21.4033 H   0  0  0  0  0  0
  -26.5907  -20.4048   21.2902 H   0  0  0  0  0  0
  -25.8052  -20.9878   19.8305 H   0  0  0  0  0  0
  -26.0749  -24.6944   21.0365 H   0  0  0  0  0  0
  -25.5047  -23.7924   19.6514 H   0  0  0  0  0  0
  -27.5829  -24.9482   19.0086 H   0  0  0  0  0  0
  -29.2148  -25.2454   18.8490 H   0  0  0  0  0  0
  -26.8091  -22.6744   22.1691 H   0  0  0  0  0  0
  -27.7884  -22.6990   19.2924 H   0  0  0  0  0  0
  -29.8649  -23.8862   20.5115 H   0  0  0  0  0  0
  -29.1450  -15.4026   21.4773 H   0  0  0  0  0  0
  -28.4862  -20.9300   21.3957 H   0  0  0  0  0  0
  -27.6737  -24.8002   22.0024 H   0  0  0  0  0  0
  1 25  1  0  0  0
  1 30  2  0  0  0
  1 83  1  0  0  0
  2  3  1  0  0  0
  2 25  1  0  0  0
  2 88  1  0  0  0
  2 89  1  0  0  0
  3  4  1  0  0  0
  3 90  1  0  0  0
  3 91  1  0  0  0
  4  5  1  0  0  0
  4 92  1  0  0  0
  4 93  1  0  0  0
  5  6  1  0  0  0
  5 26  1  0  0  0
  5 94  1  0  0  0
  6 25  1  0  0  0
  6 95  1  0  0  0
  6 96  1  0  0  0
  7  8  2  0  0  0
  7 26  1  0  0  0
  7 29  1  0  0  0
  8  9  1  0  0  0
  8 22  1  0  0  0
  9 10  1  0  0  0
  9 27  2  0  0  0
 10 11  2  0  0  0
 10 15  1  0  0  0
 11 12  1  0  0  0
 11 97  1  0  0  0
 12 13  2  0  0  0
 12 98  1  0  0  0
 13 14  1  0  0  0
 13 31  1  0  0  0
 14 15  2  0  0  0
 14 99  1  0  0  0
 15100  1  0  0  0
 16 17  2  0  0  0
 16 21  1  0  0  0
 16 31  1  0  0  0
 17 18  1  0  0  0
 17101  1  0  0  0
 18 19  2  0  0  0
 18102  1  0  0  0
 19 20  1  0  0  0
 19 24  1  0  0  0
 20 21  2  0  0  0
 20103  1  0  0  0
 21 23  1  0  0  0
 22 28  1  0  0  0
 22 32  2  0  0  0
 26 27  1  0  0  0
 28104  1  0  0  0
 28105  1  0  0  0
 29106  1  0  0  0
 29107  1  0  0  0
 33 34  1  0  0  0
 33 66  1  0  0  0
 33 70  2  0  0  0
 34 36  1  0  0  0
 34 59  1  0  0  0
 34108  1  0  0  0
 35 44  2  0  0  0
 35 45  1  0  0  0
 35 68  1  0  0  0
 36 56  1  0  0  0
 36109  1  0  0  0
 37 39  1  0  0  0
 37 47  1  0  0  0
 37 66  1  0  0  0
 37110  1  0  0  0
 38 43  2  0  0  0
 38 46  1  0  0  0
 38 47  1  0  0  0
 39 64  1  0  0  0
 39 67  2  0  0  0
 40 52  1  0  0  0
 40 53  2  0  0  0
 40 58  1  0  0  0
 41111  1  0  0  0
 41112  1  0  0  0
 41113  1  0  0  0
 41 48  1  0  0  0
 42 43  1  0  0  0
 42 66  1  0  0  0
 42114  1  0  0  0
 42115  1  0  0  0
 43 44  1  0  0  0
 44116  1  0  0  0
 45 46  2  0  0  0
 45117  1  0  0  0
 46118  1  0  0  0
 47119  1  0  0  0
 47120  1  0  0  0
 48 56  1  0  0  0
 48 65  1  0  0  0
 48121  1  0  0  0
 49 50  1  0  0  0
 49 53  1  0  0  0
 49 64  1  0  0  0
 49122  1  0  0  0
 50 51  1  0  0  0
 50123  1  0  0  0
 50124  1  0  0  0
 51 52  1  0  0  0
 51125  1  0  0  0
 51126  1  0  0  0
 52127  1  0  0  0
 52128  1  0  0  0
 53 54  1  0  0  0
 54 55  2  0  0  0
 54129  1  0  0  0
 55 57  1  0  0  0
 55130  1  0  0  0
 56 69  2  0  0  0
 57 58  2  0  0  0
 57131  1  0  0  0
 58132  1  0  0  0
 59 60  1  0  0  0
 59 61  1  0  0  0
 59 62  1  0  0  0
 60133  1  0  0  0
 60134  1  0  0  0
 60135  1  0  0  0
 61136  1  0  0  0
 61137  1  0  0  0
 61138  1  0  0  0
 62139  1  0  0  0
 62140  1  0  0  0
 62141  1  0  0  0
 63 65  1  0  0  0
 63142  1  0  0  0
 63143  1  0  0  0
 63144  1  0  0  0
 64145  1  0  0  0
 65146  1  0  0  0
 68 78  1  0  0  0
 71 72  2  0  0  0
 71 82  1  0  0  0
 71147  1  0  0  0
 72 74  1  0  0  0
 72 87  1  0  0  0
 73 82  2  0  0  0
 73 83  1  0  0  0
 73 87  1  0  0  0
 74 84  1  0  0  0
 74 85  2  0  0  0
 75 77  1  0  0  0
 75148  1  0  0  0
 75149  1  0  0  0
 75150  1  0  0  0
 76151  1  0  0  0
 76152  1  0  0  0
 76153  1  0  0  0
 76 79  1  0  0  0
 77 79  1  0  0  0
 77154  1  0  0  0
 77155  1  0  0  0
 78 81  1  0  0  0
 78156  1  0  0  0
 78157  1  0  0  0
 79 80  1  0  0  0
 79158  1  0  0  0
 80 81  1  0  0  0
 80 84  1  0  0  0
 80159  1  0  0  0
 81 86  1  0  0  0
 81160  1  0  0  0
 83161  1  0  0  0
 84162  1  0  0  0
 86163  1  0  0  0
M  ISO  4   1 100  68 101  78 101  83 100
M  END
> <chiral flag>
0

> <version>
0

> <s_m_source_file>
/data/baiqing/PycharmProjects/Reinvent-master-3.2/result/LINK_invent/BTK/process_docking_weight1_custom_product_contain_oxygen_bond_distance_aromatic_linkinvent_7_9_3/rearranged_h_0187.sdf

> <i_m_source_file_index>
42

> <r_mmod_Potential_Energy-OPLS-2005>
-83.6655120849609

> <r_mmod_Stretch_Energy-OPLS-2005>
56.3210830688477

> <r_mmod_Bend_Energy-OPLS-2005>
134.552474975586

> <r_mmod_Torsional_Energy-OPLS-2005>
308.3037109375

> <r_mmod_Improper_Torsional_Energy-OPLS-2005>
6.11283111572266

> <r_mmod_Van_der_Waal_Energy-OPLS-2005>
134.207382202148

> <r_mmod_Electrostatic_Energy-OPLS-2005>
-494.872711181641

> <r_mmod_Solvation_Energy-OPLS-2005>
-255.102111816406

> <b_mmod_Minimization_Converged-OPLS-2005>
0

> <r_mmod_RMS_Derivative-OPLS-2005>
4.88615703582764

$$$$
43
                    3D
 Structure written by MMmdl.
149156  0  0  1  0            999 V2000
  -30.1668  -16.0124   20.2925 C   0  0  0  0  0  0
  -30.3934  -13.3647   19.5571 C   0  0  0  0  0  0
  -29.5658  -12.7634   18.3723 C   0  0  0  0  0  0
  -28.1718  -12.3207   18.8297 C   0  0  0  0  0  0
  -27.5855  -13.3514   19.8139 C   0  0  2  0  0  0
  -28.5708  -13.8414   20.9135 C   0  0  0  0  0  0
  -25.2257  -13.8347   20.5842 C   0  0  0  0  0  0
  -24.1692  -13.0438   20.9304 C   0  0  0  0  0  0
  -24.6450  -11.6969   20.8752 C   0  0  0  0  0  0
  -23.9156  -10.4293   21.0369 C   0  0  0  0  0  0
  -24.3674   -9.4207   21.9167 C   0  0  0  0  0  0
  -23.6319   -8.2257   22.0753 C   0  0  0  0  0  0
  -22.4297   -8.0297   21.3548 C   0  0  0  0  0  0
  -21.9951   -9.0270   20.4642 C   0  0  0  0  0  0
  -22.7308  -10.2132   20.3034 C   0  0  0  0  0  0
  -21.6863   -6.0739   22.5277 C   0  0  0  0  0  0
  -21.4026   -6.5638   23.8210 C   0  0  0  0  0  0
  -21.3664   -5.6791   24.9174 C   0  0  0  0  0  0
  -21.6041   -4.3050   24.7222 C   0  0  0  0  0  0
  -21.8820   -3.8144   23.4343 C   0  0  0  0  0  0
  -21.9195   -4.6964   22.3401 C   0  0  0  0  0  0
  -22.7688  -13.5133   21.1917 C   0  0  0  0  0  0
  -22.1659   -4.2145   21.0978 F   0  0  0  0  0  0
  -21.5627   -3.4535   25.7737 F   0  0  0  0  0  0
  -29.6893  -14.5788   20.2447 N   0  0  0  0  0  0
  -26.2764  -12.9764   20.3297 N   0  0  0  0  0  0
  -25.9413  -11.6781   20.5673 N   0  0  0  0  0  0
  -22.0357  -12.8107   22.0471 N   0  0  0  0  0  0
  -25.3791  -15.2098   20.4309 N   0  0  0  0  0  0
  -31.4032  -15.8848   20.1225 O   0  0  0  0  0  0
  -21.6656   -6.8891   21.4243 O   0  0  0  0  0  0
  -22.3352  -14.5428   20.6748 O   0  0  0  0  0  0
  -24.7073  -31.7696   23.1277 C   0  0  0  0  0  0
  -25.9520  -32.4316   23.7936 C   0  0  1  0  0  0
  -27.2437  -26.4444   20.2348 C   0  0  0  0  0  0
  -25.5998  -33.8159   24.1795 N   0  0  0  0  0  0
  -23.5471  -30.3576   21.4874 C   0  0  2  0  0  0
  -25.0100  -28.6460   20.1167 C   0  0  0  0  0  0
  -22.7884  -29.4142   22.4628 C   0  0  0  0  0  0
  -18.0359  -28.1441   22.8427 C   0  0  0  0  0  0
  -24.1500  -36.7089   23.2666 C   0  0  0  0  0  0
  -26.1361  -30.4155   21.4337 C   0  0  0  0  0  0
  -26.1986  -28.9521   20.7870 C   0  0  0  0  0  0
  -27.2810  -27.8851   20.8140 C   0  0  0  0  0  0
  -26.0263  -26.4188   19.4863 C   0  0  0  0  0  0
  -24.9784  -27.4087   19.4422 C   0  0  0  0  0  0
  -23.8169  -29.6307   20.1322 C   0  0  0  0  0  0
  -25.4155  -36.2802   24.0271 C   0  0  1  0  0  0
  -20.6004  -28.3805   23.1097 C   0  0  2  0  0  0
  -20.6819  -26.9442   22.5408 C   0  0  0  0  0  0
  -19.5799  -26.6357   21.5225 C   0  0  0  0  0  0
  -18.1975  -26.7958   22.1607 C   0  0  0  0  0  0
  -19.1632  -28.8950   23.2735 C   0  0  0  0  0  0
  -18.9538  -30.1528   23.8794 C   0  0  0  0  0  0
  -17.6527  -30.6618   24.0544 C   0  0  0  0  0  0
  -25.9147  -34.9206   23.4892 C   0  0  0  0  0  0
  -16.5416  -29.9093   23.6361 C   0  0  0  0  0  0
  -16.7337  -28.6520   23.0365 C   0  0  0  0  0  0
  -26.4615  -31.6468   25.0675 C   0  0  0  0  0  0
  -25.3608  -31.3847   26.1235 C   0  0  0  0  0  0
  -27.0583  -30.2770   24.6761 C   0  0  0  0  0  0
  -27.6025  -32.4398   25.7477 C   0  0  0  0  0  0
  -27.5551  -37.1699   24.8472 C   0  0  0  0  0  0
  -21.4501  -29.3006   22.3391 N   0  0  0  0  0  0
  -26.4257  -37.3591   23.9413 N   0  0  0  0  0  0
  -24.8232  -30.8872   22.0684 N   0  0  0  0  0  0
  -23.4212  -28.7782   23.3093 O   0  0  0  0  0  0
  -28.1705  -25.1120   20.3826 O   0  0  0  0  0  0
  -26.5829  -34.8837   22.4533 O   0  0  0  0  0  0
  -23.6036  -32.0894   23.6055 O   0  0  0  0  0  0
  -29.2473  -19.3872   18.5128 C   0  0  0  0  0  0
  -30.9510  -19.6702   20.2955 C   0  0  0  0  0  0
  -28.3434  -23.2617   19.9712 C   0  0  0  0  0  0
  -28.6179  -21.2371   20.5207 C   0  0  1  0  0  0
  -29.4659  -19.3713   20.0322 C   0  0  0  0  0  0
  -29.4242  -17.4865   20.3545 N   0  0  0  0  0  0
  -28.7274  -21.2748   21.9892 N   0  3  0  0  0  0
  -31.3569  -13.6752   19.1516 H   0  0  0  0  0  0
  -30.6456  -12.5925   20.2851 H   0  0  0  0  0  0
  -30.0999  -11.9279   17.9175 H   0  0  0  0  0  0
  -29.4629  -13.5215   17.5946 H   0  0  0  0  0  0
  -28.2671  -11.3561   19.3302 H   0  0  0  0  0  0
  -27.5106  -12.1672   17.9755 H   0  0  0  0  0  0
  -27.3996  -14.2208   19.1809 H   0  0  0  0  0  0
  -28.9104  -13.0229   21.5503 H   0  0  0  0  0  0
  -28.0630  -14.5433   21.5763 H   0  0  0  0  0  0
  -25.2811   -9.5679   22.4749 H   0  0  0  0  0  0
  -24.0013   -7.4655   22.7488 H   0  0  0  0  0  0
  -21.0874   -8.8800   19.8951 H   0  0  0  0  0  0
  -22.3767  -10.9669   19.6139 H   0  0  0  0  0  0
  -21.2026   -7.6144   23.9713 H   0  0  0  0  0  0
  -21.1480   -6.0518   25.9074 H   0  0  0  0  0  0
  -22.0591   -2.7602   23.2845 H   0  0  0  0  0  0
  -22.4001  -11.9801   22.4905 H   0  0  0  0  0  0
  -21.0955  -13.1094   22.2645 H   0  0  0  0  0  0
  -24.6045  -15.8541   20.5449 H   0  0  0  0  0  0
  -26.2219  -15.6568   20.0955 H   0  0  0  0  0  0
  -26.7637  -32.4720   23.0678 H   0  0  0  0  0  0
  -25.0034  -33.9167   24.9877 H   0  0  0  0  0  0
  -22.8869  -31.2006   21.2741 H   0  0  0  0  0  0
  -23.3780  -35.9401   23.3263 H   0  0  0  0  0  0
  -24.3564  -36.8820   22.2095 H   0  0  0  0  0  0
  -23.7245  -37.6240   23.6802 H   0  0  0  0  0  0
  -26.3659  -31.1234   20.6358 H   0  0  0  0  0  0
  -26.9778  -30.4921   22.1086 H   0  0  0  0  0  0
  -28.1601  -28.1322   21.3927 H   0  0  0  0  0  0
  -25.8183  -25.4996   18.9569 H   0  0  0  0  0  0
  -24.0896  -27.1611   18.8772 H   0  0  0  0  0  0
  -24.0122  -30.3819   19.3661 H   0  0  0  0  0  0
  -22.9169  -29.1101   19.7999 H   0  0  0  0  0  0
  -25.1373  -36.1537   25.0763 H   0  0  0  0  0  0
  -21.0077  -28.3459   24.1226 H   0  0  0  0  0  0
  -20.5681  -26.2437   23.3690 H   0  0  0  0  0  0
  -21.6674  -26.7359   22.1231 H   0  0  0  0  0  0
  -19.6965  -25.6244   21.1316 H   0  0  0  0  0  0
  -19.6766  -27.3120   20.6719 H   0  0  0  0  0  0
  -17.4254  -26.6712   21.4003 H   0  0  0  0  0  0
  -18.0346  -26.0132   22.9025 H   0  0  0  0  0  0
  -19.8028  -30.7362   24.2126 H   0  0  0  0  0  0
  -17.5088  -31.6285   24.5169 H   0  0  0  0  0  0
  -15.5414  -30.2971   23.7742 H   0  0  0  0  0  0
  -15.8732  -28.0809   22.7135 H   0  0  0  0  0  0
  -24.5858  -30.7141   25.7502 H   0  0  0  0  0  0
  -24.8729  -32.3087   26.4367 H   0  0  0  0  0  0
  -25.7718  -30.9196   27.0201 H   0  0  0  0  0  0
  -26.3341  -29.6303   24.1799 H   0  0  0  0  0  0
  -27.3945  -29.7335   25.5596 H   0  0  0  0  0  0
  -27.9341  -30.3833   24.0358 H   0  0  0  0  0  0
  -27.2551  -33.3825   26.1724 H   0  0  0  0  0  0
  -28.3964  -32.6763   25.0381 H   0  0  0  0  0  0
  -28.0548  -31.8763   26.5648 H   0  0  0  0  0  0
  -28.2519  -38.0033   24.7494 H   0  0  0  0  0  0
  -28.1088  -36.2548   24.6319 H   0  0  0  0  0  0
  -27.2269  -37.1348   25.8875 H   0  0  0  0  0  0
  -20.9877  -29.8631   21.6379 H   0  0  0  0  0  0
  -26.0061  -38.2628   24.1421 H   0  0  0  0  0  0
  -29.4710  -20.3673   18.0907 H   0  0  0  0  0  0
  -28.2122  -19.1528   18.2651 H   0  0  0  0  0  0
  -29.8826  -18.6635   18.0002 H   0  0  0  0  0  0
  -31.2321  -20.6578   19.9291 H   0  0  0  0  0  0
  -31.6022  -18.9455   19.8058 H   0  0  0  0  0  0
  -31.1765  -19.6382   21.3622 H   0  0  0  0  0  0
  -27.5354  -23.1716   19.2456 H   0  0  0  0  0  0
  -29.2230  -23.3682   19.3367 H   0  0  0  0  0  0
  -27.5748  -20.9446   20.3866 H   0  0  0  0  0  0
  -28.4606  -17.2621   20.5645 H   0  0  0  0  0  0
  -29.6419  -21.5810   22.2699 H   0  0  0  0  0  0
  -28.5624  -20.3629   22.3767 H   0  0  0  0  0  0
  -28.0494  -21.9056   22.3805 H   0  0  0  0  0  0
  1 25  1  0  0  0
  1 30  2  0  0  0
  1 76  1  0  0  0
  2  3  1  0  0  0
  2 25  1  0  0  0
  2 78  1  0  0  0
  2 79  1  0  0  0
  3  4  1  0  0  0
  3 80  1  0  0  0
  3 81  1  0  0  0
  4  5  1  0  0  0
  4 82  1  0  0  0
  4 83  1  0  0  0
  5  6  1  0  0  0
  5 26  1  0  0  0
  5 84  1  0  0  0
  6 25  1  0  0  0
  6 85  1  0  0  0
  6 86  1  0  0  0
  7  8  2  0  0  0
  7 26  1  0  0  0
  7 29  1  0  0  0
  8  9  1  0  0  0
  8 22  1  0  0  0
  9 10  1  0  0  0
  9 27  2  0  0  0
 10 11  2  0  0  0
 10 15  1  0  0  0
 11 12  1  0  0  0
 11 87  1  0  0  0
 12 13  2  0  0  0
 12 88  1  0  0  0
 13 14  1  0  0  0
 13 31  1  0  0  0
 14 15  2  0  0  0
 14 89  1  0  0  0
 15 90  1  0  0  0
 16 17  2  0  0  0
 16 21  1  0  0  0
 16 31  1  0  0  0
 17 18  1  0  0  0
 17 91  1  0  0  0
 18 19  2  0  0  0
 18 92  1  0  0  0
 19 20  1  0  0  0
 19 24  1  0  0  0
 20 21  2  0  0  0
 20 93  1  0  0  0
 21 23  1  0  0  0
 22 28  1  0  0  0
 22 32  2  0  0  0
 26 27  1  0  0  0
 28 94  1  0  0  0
 28 95  1  0  0  0
 29 96  1  0  0  0
 29 97  1  0  0  0
 33 34  1  0  0  0
 33 66  1  0  0  0
 33 70  2  0  0  0
 34 36  1  0  0  0
 34 59  1  0  0  0
 34 98  1  0  0  0
 35 44  2  0  0  0
 35 45  1  0  0  0
 35 68  1  0  0  0
 36 56  1  0  0  0
 36 99  1  0  0  0
 37 39  1  0  0  0
 37 47  1  0  0  0
 37 66  1  0  0  0
 37100  1  0  0  0
 38 43  2  0  0  0
 38 46  1  0  0  0
 38 47  1  0  0  0
 39 64  1  0  0  0
 39 67  2  0  0  0
 40 52  1  0  0  0
 40 53  2  0  0  0
 40 58  1  0  0  0
 41101  1  0  0  0
 41102  1  0  0  0
 41103  1  0  0  0
 41 48  1  0  0  0
 42 43  1  0  0  0
 42 66  1  0  0  0
 42104  1  0  0  0
 42105  1  0  0  0
 43 44  1  0  0  0
 44106  1  0  0  0
 45 46  2  0  0  0
 45107  1  0  0  0
 46108  1  0  0  0
 47109  1  0  0  0
 47110  1  0  0  0
 48 56  1  0  0  0
 48 65  1  0  0  0
 48111  1  0  0  0
 49 50  1  0  0  0
 49 53  1  0  0  0
 49 64  1  0  0  0
 49112  1  0  0  0
 50 51  1  0  0  0
 50113  1  0  0  0
 50114  1  0  0  0
 51 52  1  0  0  0
 51115  1  0  0  0
 51116  1  0  0  0
 52117  1  0  0  0
 52118  1  0  0  0
 53 54  1  0  0  0
 54 55  2  0  0  0
 54119  1  0  0  0
 55 57  1  0  0  0
 55120  1  0  0  0
 56 69  2  0  0  0
 57 58  2  0  0  0
 57121  1  0  0  0
 58122  1  0  0  0
 59 60  1  0  0  0
 59 61  1  0  0  0
 59 62  1  0  0  0
 60123  1  0  0  0
 60124  1  0  0  0
 60125  1  0  0  0
 61126  1  0  0  0
 61127  1  0  0  0
 61128  1  0  0  0
 62129  1  0  0  0
 62130  1  0  0  0
 62131  1  0  0  0
 63 65  1  0  0  0
 63132  1  0  0  0
 63133  1  0  0  0
 63134  1  0  0  0
 64135  1  0  0  0
 65136  1  0  0  0
 68 73  1  0  0  0
 71137  1  0  0  0
 71138  1  0  0  0
 71139  1  0  0  0
 71 75  1  0  0  0
 72 75  1  0  0  0
 72140  1  0  0  0
 72141  1  0  0  0
 72142  1  0  0  0
 73 74  1  0  0  0
 73143  1  0  0  0
 73144  1  0  0  0
 74 75  1  0  0  0
 74 77  1  0  0  0
 74145  1  0  0  0
 75 76  1  0  0  0
 76146  1  0  0  0
 77147  1  0  0  0
 77148  1  0  0  0
 77149  1  0  0  0
M  CHG  1  77   1
M  ISO  4   1 100  68 101  73 101  76 100
M  END
> <chiral flag>
0

> <version>
0

> <s_m_source_file>
/data/baiqing/PycharmProjects/Reinvent-master-3.2/result/LINK_invent/BTK/process_docking_weight1_custom_product_contain_oxygen_bond_distance_aromatic_linkinvent_7_9_3/rearranged_h_0187.sdf

> <i_m_source_file_index>
43

> <r_mmod_Potential_Energy-OPLS-2005>
3987.0380859375

> <r_mmod_Stretch_Energy-OPLS-2005>
1949.68017578125

> <r_mmod_Bend_Energy-OPLS-2005>
907.249877929688

> <r_mmod_Torsional_Energy-OPLS-2005>
278.991455078125

> <r_mmod_Improper_Torsional_Energy-OPLS-2005>
4.06159591674805

> <r_mmod_Van_der_Waal_Energy-OPLS-2005>
109.81273651123

> <r_mmod_Electrostatic_Energy-OPLS-2005>
-295.884216308594

> <r_mmod_Solvation_Energy-OPLS-2005>
-514.589294433594

> <b_mmod_Minimization_Converged-OPLS-2005>
0

> <r_mmod_RMS_Derivative-OPLS-2005>
1.62877726554871

$$$$
44
                    3D
 Structure written by MMmdl.
158166  0  0  1  0            999 V2000
  -30.6886  -14.5085   20.4203 C   0  0  0  0  0  0
  -30.4080  -12.2851   19.4463 C   0  0  0  0  0  0
  -29.4935  -12.4638   18.2145 C   0  0  0  0  0  0
  -28.0116  -12.3443   18.6199 C   0  0  0  0  0  0
  -27.6519  -13.2076   19.8588 C   0  0  2  0  0  0
  -28.6975  -13.0547   20.9886 C   0  0  0  0  0  0
  -25.2560  -13.8168   20.5657 C   0  0  0  0  0  0
  -24.1813  -13.0440   20.9171 C   0  0  0  0  0  0
  -24.6384  -11.6908   20.8745 C   0  0  0  0  0  0
  -23.9048  -10.4303   21.0420 C   0  0  0  0  0  0
  -24.3622   -9.4221   21.9196 C   0  0  0  0  0  0
  -23.6307   -8.2249   22.0772 C   0  0  0  0  0  0
  -22.4291   -8.0272   21.3552 C   0  0  0  0  0  0
  -21.9909   -9.0248   20.4654 C   0  0  0  0  0  0
  -22.7213  -10.2148   20.3065 C   0  0  0  0  0  0
  -21.6854   -6.0722   22.5283 C   0  0  0  0  0  0
  -21.4012   -6.5637   23.8206 C   0  0  0  0  0  0
  -21.3670   -5.6797   24.9180 C   0  0  0  0  0  0
  -21.6051   -4.3058   24.7224 C   0  0  0  0  0  0
  -21.8811   -3.8140   23.4338 C   0  0  0  0  0  0
  -21.9204   -4.6967   22.3402 C   0  0  0  0  0  0
  -22.7862  -13.5260   21.1823 C   0  0  0  0  0  0
  -22.1662   -4.2137   21.0988 F   0  0  0  0  0  0
  -21.5650   -3.4543   25.7744 F   0  0  0  0  0  0
  -30.0243  -13.3217   20.4146 N   0  0  0  0  0  0
  -26.2984  -12.9336   20.3314 N   0  0  0  0  0  0
  -25.9304  -11.6500   20.5733 N   0  0  0  0  0  0
  -22.0521  -12.8211   22.0377 N   0  0  0  0  0  0
  -25.4290  -15.1892   20.4109 N   0  0  0  0  0  0
  -31.8933  -14.5810   20.1602 O   0  0  0  0  0  0
  -21.6644   -6.8888   21.4246 O   0  0  0  0  0  0
  -22.3529  -14.5560   20.6694 O   0  0  0  0  0  0
  -24.6206  -31.8630   23.2090 C   0  0  0  0  0  0
  -25.9095  -32.4776   23.8367 C   0  0  1  0  0  0
  -27.1992  -27.3774   20.0522 C   0  0  0  0  0  0
  -25.5932  -33.8585   24.2276 N   0  0  0  0  0  0
  -23.4087  -30.4920   21.5560 C   0  0  2  0  0  0
  -24.8405  -28.9614   20.1115 C   0  0  0  0  0  0
  -22.7430  -29.4624   22.4985 C   0  0  0  0  0  0
  -18.0287  -28.1369   22.8466 C   0  0  0  0  0  0
  -24.1503  -36.7307   23.2636 C   0  0  0  0  0  0
  -25.9483  -30.8024   21.3785 C   0  0  0  0  0  0
  -26.0121  -29.4376   20.7126 C   0  0  0  0  0  0
  -27.1945  -28.6510   20.6877 C   0  0  0  0  0  0
  -26.0085  -26.9577   19.4142 C   0  0  0  0  0  0
  -24.8330  -27.7196   19.4645 C   0  0  0  0  0  0
  -23.6148  -29.8387   20.1679 C   0  0  0  0  0  0
  -25.4125  -36.3084   24.0324 C   0  0  1  0  0  0
  -20.5867  -28.3653   23.1302 C   0  0  2  0  0  0
  -20.6786  -26.9393   22.5409 C   0  0  0  0  0  0
  -19.5771  -26.6374   21.5191 C   0  0  0  0  0  0
  -18.1936  -26.7919   22.1578 C   0  0  0  0  0  0
  -19.1532  -28.8838   23.2870 C   0  0  0  0  0  0
  -18.9460  -30.1445   23.8876 C   0  0  0  0  0  0
  -17.6460  -30.6581   24.0561 C   0  0  0  0  0  0
  -25.9062  -34.9455   23.5091 C   0  0  0  0  0  0
  -16.5350  -29.9078   23.6333 C   0  0  0  0  0  0
  -16.7268  -28.6501   23.0335 C   0  0  0  0  0  0
  -26.4493  -31.6578   25.0722 C   0  0  0  0  0  0
  -25.3752  -31.3737   26.1465 C   0  0  0  0  0  0
  -27.0330  -30.2998   24.6163 C   0  0  0  0  0  0
  -27.6045  -32.4310   25.7493 C   0  0  0  0  0  0
  -27.5588  -37.1809   24.8451 C   0  0  0  0  0  0
  -21.4152  -29.3015   22.3715 N   0  0  0  0  0  0
  -26.4298  -37.3776   23.9397 N   0  0  0  0  0  0
  -24.6788  -31.0685   22.1037 N   0  0  0  0  0  0
  -23.4178  -28.8160   23.3050 O   0  0  0  0  0  0
  -28.3292  -26.5647   20.0148 O   0  0  0  0  0  0
  -26.5605  -34.8902   22.4647 O   0  0  0  0  0  0
  -23.5392  -32.1435   23.7431 O   0  0  0  0  0  0
  -29.8365  -19.0611   19.2442 C   0  0  0  0  0  0
  -30.9330  -18.8081   18.4427 C   0  0  0  0  0  0
  -30.1942  -16.8570   19.8011 C   0  0  0  0  0  0
  -29.0825  -20.3372   19.3954 C   0  0  0  0  0  0
  -29.2131  -21.5593   18.8123 C   0  0  0  0  0  0
  -27.0616  -22.6952   18.1930 C   0  0  0  0  0  0
  -28.4153  -24.7981   21.6515 C   0  0  0  0  0  0
  -28.9021  -24.1742   19.2151 C   0  0  0  0  0  0
  -28.2713  -22.7344   19.1387 C   0  0  2  0  0  0
  -28.1179  -25.1257   20.1841 C   0  0  1  0  0  0
  -29.4196  -17.9374   19.9908 N   0  0  0  0  0  0
  -31.6120  -19.6449   17.5674 N   0  0  0  0  0  0
  -29.9165  -15.6150   20.4660 N   0  0  0  0  0  0
  -31.4804  -17.1554   18.6209 S   0  0  0  0  0  0
  -31.4568  -12.3484   19.1520 H   0  0  0  0  0  0
  -30.2800  -11.2946   19.8890 H   0  0  0  0  0  0
  -29.7285  -11.7197   17.4520 H   0  0  0  0  0  0
  -29.6731  -13.4368   17.7568 H   0  0  0  0  0  0
  -27.8098  -11.2922   18.8261 H   0  0  0  0  0  0
  -27.3764  -12.6163   17.7778 H   0  0  0  0  0  0
  -27.6698  -14.2405   19.5175 H   0  0  0  0  0  0
  -28.6732  -12.0456   21.4053 H   0  0  0  0  0  0
  -28.4771  -13.7282   21.8177 H   0  0  0  0  0  0
  -25.2809   -9.5667   22.4737 H   0  0  0  0  0  0
  -24.0014   -7.4629   22.7480 H   0  0  0  0  0  0
  -21.0860   -8.8767   19.8947 H   0  0  0  0  0  0
  -22.3708  -10.9686   19.6153 H   0  0  0  0  0  0
  -21.1969   -7.6138   23.9696 H   0  0  0  0  0  0
  -21.1518   -6.0540   25.9087 H   0  0  0  0  0  0
  -22.0584   -2.7595   23.2855 H   0  0  0  0  0  0
  -22.4209  -11.9899   22.4726 H   0  0  0  0  0  0
  -21.1154  -13.1224   22.2642 H   0  0  0  0  0  0
  -24.6609  -15.8409   20.5286 H   0  0  0  0  0  0
  -26.2713  -15.6389   20.0754 H   0  0  0  0  0  0
  -26.7156  -32.5441   23.1106 H   0  0  0  0  0  0
  -25.0153  -33.9758   25.0463 H   0  0  0  0  0  0
  -22.6995  -31.3117   21.4200 H   0  0  0  0  0  0
  -23.3740  -35.9668   23.3305 H   0  0  0  0  0  0
  -24.3601  -36.8913   22.2053 H   0  0  0  0  0  0
  -23.7282  -37.6521   23.6654 H   0  0  0  0  0  0
  -26.0816  -31.5742   20.6189 H   0  0  0  0  0  0
  -26.8321  -30.8399   22.0062 H   0  0  0  0  0  0
  -28.1008  -29.0095   21.1550 H   0  0  0  0  0  0
  -25.9710  -26.0490   18.8325 H   0  0  0  0  0  0
  -23.9391  -27.3600   18.9731 H   0  0  0  0  0  0
  -23.7371  -30.6193   19.4167 H   0  0  0  0  0  0
  -22.7357  -29.2708   19.8613 H   0  0  0  0  0  0
  -25.1302  -36.1934   25.0818 H   0  0  0  0  0  0
  -20.9936  -28.3224   24.1423 H   0  0  0  0  0  0
  -20.5680  -26.2259   23.3593 H   0  0  0  0  0  0
  -21.6668  -26.7444   22.1213 H   0  0  0  0  0  0
  -19.6952  -25.6278   21.1241 H   0  0  0  0  0  0
  -19.6725  -27.3180   20.6720 H   0  0  0  0  0  0
  -17.4210  -26.6636   21.3981 H   0  0  0  0  0  0
  -18.0333  -26.0062   22.8979 H   0  0  0  0  0  0
  -19.7947  -30.7273   24.2198 H   0  0  0  0  0  0
  -17.5026  -31.6256   24.5178 H   0  0  0  0  0  0
  -15.5355  -30.2976   23.7695 H   0  0  0  0  0  0
  -15.8653  -28.0846   22.7020 H   0  0  0  0  0  0
  -24.5914  -30.7076   25.7812 H   0  0  0  0  0  0
  -24.8977  -32.2942   26.4856 H   0  0  0  0  0  0
  -25.8127  -30.8947   27.0239 H   0  0  0  0  0  0
  -26.2913  -29.6727   24.1201 H   0  0  0  0  0  0
  -27.4042  -29.7245   25.4647 H   0  0  0  0  0  0
  -27.8768  -30.4255   23.9372 H   0  0  0  0  0  0
  -27.2628  -33.3575   26.2109 H   0  0  0  0  0  0
  -28.3855  -32.6915   25.0343 H   0  0  0  0  0  0
  -28.0713  -31.8414   26.5384 H   0  0  0  0  0  0
  -28.2587  -38.0115   24.7499 H   0  0  0  0  0  0
  -28.1089  -36.2648   24.6273 H   0  0  0  0  0  0
  -27.2307  -37.1467   25.8848 H   0  0  0  0  0  0
  -20.9295  -29.8755   21.6955 H   0  0  0  0  0  0
  -26.0159  -38.2835   24.1409 H   0  0  0  0  0  0
  -28.2793  -20.2475   20.1095 H   0  0  0  0  0  0
  -29.9815  -21.7505   18.0774 H   0  0  0  0  0  0
  -26.5122  -21.7569   18.3007 H   0  0  0  0  0  0
  -27.3785  -22.7907   17.1553 H   0  0  0  0  0  0
  -26.3531  -23.4928   18.4078 H   0  0  0  0  0  0
  -29.3801  -25.2058   21.9501 H   0  0  0  0  0  0
  -28.4335  -23.7216   21.8281 H   0  0  0  0  0  0
  -27.6439  -25.2114   22.3035 H   0  0  0  0  0  0
  -28.9335  -24.6050   18.2123 H   0  0  0  0  0  0
  -29.9412  -24.1201   19.5446 H   0  0  0  0  0  0
  -27.8711  -22.5047   20.1233 H   0  0  0  0  0  0
  -27.0753  -24.8508   20.0603 H   0  0  0  0  0  0
  -31.3409  -20.6027   17.3753 H   0  0  0  0  0  0
  -32.3766  -19.3229   16.9824 H   0  0  0  0  0  0
  -28.9640  -15.4889   20.7725 H   0  0  0  0  0  0
  1 25  1  0  0  0
  1 30  2  0  0  0
  1 83  1  0  0  0
  2  3  1  0  0  0
  2 25  1  0  0  0
  2 85  1  0  0  0
  2 86  1  0  0  0
  3  4  1  0  0  0
  3 87  1  0  0  0
  3 88  1  0  0  0
  4  5  1  0  0  0
  4 89  1  0  0  0
  4 90  1  0  0  0
  5  6  1  0  0  0
  5 26  1  0  0  0
  5 91  1  0  0  0
  6 25  1  0  0  0
  6 92  1  0  0  0
  6 93  1  0  0  0
  7  8  2  0  0  0
  7 26  1  0  0  0
  7 29  1  0  0  0
  8  9  1  0  0  0
  8 22  1  0  0  0
  9 10  1  0  0  0
  9 27  2  0  0  0
 10 11  2  0  0  0
 10 15  1  0  0  0
 11 12  1  0  0  0
 11 94  1  0  0  0
 12 13  2  0  0  0
 12 95  1  0  0  0
 13 14  1  0  0  0
 13 31  1  0  0  0
 14 15  2  0  0  0
 14 96  1  0  0  0
 15 97  1  0  0  0
 16 17  2  0  0  0
 16 21  1  0  0  0
 16 31  1  0  0  0
 17 18  1  0  0  0
 17 98  1  0  0  0
 18 19  2  0  0  0
 18 99  1  0  0  0
 19 20  1  0  0  0
 19 24  1  0  0  0
 20 21  2  0  0  0
 20100  1  0  0  0
 21 23  1  0  0  0
 22 28  1  0  0  0
 22 32  2  0  0  0
 26 27  1  0  0  0
 28101  1  0  0  0
 28102  1  0  0  0
 29103  1  0  0  0
 29104  1  0  0  0
 33 34  1  0  0  0
 33 66  1  0  0  0
 33 70  2  0  0  0
 34 36  1  0  0  0
 34 59  1  0  0  0
 34105  1  0  0  0
 35 44  2  0  0  0
 35 45  1  0  0  0
 35 68  1  0  0  0
 36 56  1  0  0  0
 36106  1  0  0  0
 37 39  1  0  0  0
 37 47  1  0  0  0
 37 66  1  0  0  0
 37107  1  0  0  0
 38 43  2  0  0  0
 38 46  1  0  0  0
 38 47  1  0  0  0
 39 64  1  0  0  0
 39 67  2  0  0  0
 40 52  1  0  0  0
 40 53  2  0  0  0
 40 58  1  0  0  0
 41108  1  0  0  0
 41109  1  0  0  0
 41110  1  0  0  0
 41 48  1  0  0  0
 42 43  1  0  0  0
 42 66  1  0  0  0
 42111  1  0  0  0
 42112  1  0  0  0
 43 44  1  0  0  0
 44113  1  0  0  0
 45 46  2  0  0  0
 45114  1  0  0  0
 46115  1  0  0  0
 47116  1  0  0  0
 47117  1  0  0  0
 48 56  1  0  0  0
 48 65  1  0  0  0
 48118  1  0  0  0
 49 50  1  0  0  0
 49 53  1  0  0  0
 49 64  1  0  0  0
 49119  1  0  0  0
 50 51  1  0  0  0
 50120  1  0  0  0
 50121  1  0  0  0
 51 52  1  0  0  0
 51122  1  0  0  0
 51123  1  0  0  0
 52124  1  0  0  0
 52125  1  0  0  0
 53 54  1  0  0  0
 54 55  2  0  0  0
 54126  1  0  0  0
 55 57  1  0  0  0
 55127  1  0  0  0
 56 69  2  0  0  0
 57 58  2  0  0  0
 57128  1  0  0  0
 58129  1  0  0  0
 59 60  1  0  0  0
 59 61  1  0  0  0
 59 62  1  0  0  0
 60130  1  0  0  0
 60131  1  0  0  0
 60132  1  0  0  0
 61133  1  0  0  0
 61134  1  0  0  0
 61135  1  0  0  0
 62136  1  0  0  0
 62137  1  0  0  0
 62138  1  0  0  0
 63 65  1  0  0  0
 63139  1  0  0  0
 63140  1  0  0  0
 63141  1  0  0  0
 64142  1  0  0  0
 65143  1  0  0  0
 68 80  1  0  0  0
 71 72  2  0  0  0
 71 74  1  0  0  0
 71 81  1  0  0  0
 72 82  1  0  0  0
 72 84  1  0  0  0
 73 81  2  0  0  0
 73 83  1  0  0  0
 73 84  1  0  0  0
 74 75  2  0  0  0
 74144  1  0  0  0
 75 79  1  0  0  0
 75145  1  0  0  0
 76146  1  0  0  0
 76147  1  0  0  0
 76148  1  0  0  0
 76 79  1  0  0  0
 77149  1  0  0  0
 77150  1  0  0  0
 77151  1  0  0  0
 77 80  1  0  0  0
 78 79  1  0  0  0
 78 80  1  0  0  0
 78152  1  0  0  0
 78153  1  0  0  0
 79154  1  0  0  0
 80155  1  0  0  0
 82156  1  0  0  0
 82157  1  0  0  0
 83158  1  0  0  0
M  ISO  4   1 100  68 101  80 101  83 100
M  END
> <chiral flag>
0

> <version>
0

> <s_m_source_file>
/data/baiqing/PycharmProjects/Reinvent-master-3.2/result/LINK_invent/BTK/process_docking_weight1_custom_product_contain_oxygen_bond_distance_aromatic_linkinvent_7_9_3/rearranged_h_0187.sdf

> <i_m_source_file_index>
44

> <r_mmod_Potential_Energy-OPLS-2005>
10.4813232421875

> <r_mmod_Stretch_Energy-OPLS-2005>
45.9559898376465

> <r_mmod_Bend_Energy-OPLS-2005>
123.213188171387

> <r_mmod_Torsional_Energy-OPLS-2005>
234.242568969727

> <r_mmod_Improper_Torsional_Energy-OPLS-2005>
7.17582416534424

> <r_mmod_Van_der_Waal_Energy-OPLS-2005>
138.125823974609

> <r_mmod_Electrostatic_Energy-OPLS-2005>
-364.559844970703

> <r_mmod_Solvation_Energy-OPLS-2005>
-206.288726806641

> <b_mmod_Minimization_Converged-OPLS-2005>
0

> <r_mmod_RMS_Derivative-OPLS-2005>
5.85952997207642

$$$$
45
                    3D
 Structure written by MMmdl.
168176  0  0  1  0            999 V2000
  -30.6411  -14.5187   20.5859 C   0  0  0  0  0  0
  -30.4308  -12.3320   19.4318 C   0  0  0  0  0  0
  -29.5030  -12.5219   18.2108 C   0  0  0  0  0  0
  -28.0219  -12.3750   18.6168 C   0  0  0  0  0  0
  -27.6647  -13.2016   19.8811 C   0  0  2  0  0  0
  -28.7004  -12.9581   21.0023 C   0  0  0  0  0  0
  -25.2654  -13.8149   20.5668 C   0  0  0  0  0  0
  -24.1864  -13.0429   20.9145 C   0  0  0  0  0  0
  -24.6397  -11.6912   20.8718 C   0  0  0  0  0  0
  -23.9075  -10.4277   21.0423 C   0  0  0  0  0  0
  -24.3634   -9.4206   21.9211 C   0  0  0  0  0  0
  -23.6295   -8.2251   22.0766 C   0  0  0  0  0  0
  -22.4281   -8.0288   21.3556 C   0  0  0  0  0  0
  -21.9919   -9.0274   20.4680 C   0  0  0  0  0  0
  -22.7245  -10.2136   20.3085 C   0  0  0  0  0  0
  -21.6831   -6.0756   22.5293 C   0  0  0  0  0  0
  -21.4003   -6.5665   23.8233 C   0  0  0  0  0  0
  -21.3636   -5.6832   24.9195 C   0  0  0  0  0  0
  -21.6041   -4.3094   24.7253 C   0  0  0  0  0  0
  -21.8818   -3.8171   23.4370 C   0  0  0  0  0  0
  -21.9195   -4.6978   22.3426 C   0  0  0  0  0  0
  -22.7907  -13.5246   21.1844 C   0  0  0  0  0  0
  -22.1675   -4.2164   21.1010 F   0  0  0  0  0  0
  -21.5616   -3.4575   25.7751 F   0  0  0  0  0  0
  -30.0319  -13.3001   20.4653 N   0  0  0  0  0  0
  -26.3037  -12.9279   20.3357 N   0  0  0  0  0  0
  -25.9292  -11.6440   20.5723 N   0  0  0  0  0  0
  -22.0593  -12.8201   22.0410 N   0  0  0  0  0  0
  -25.4527  -15.1851   20.4106 N   0  0  0  0  0  0
  -31.7327  -14.7667   20.0641 O   0  0  0  0  0  0
  -21.6646   -6.8879   21.4232 O   0  0  0  0  0  0
  -22.3584  -14.5554   20.6717 O   0  0  0  0  0  0
  -24.6169  -31.8674   23.2121 C   0  0  0  0  0  0
  -25.9050  -32.4828   23.8431 C   0  0  1  0  0  0
  -27.2378  -27.4053   20.0619 C   0  0  0  0  0  0
  -25.5926  -33.8640   24.2376 N   0  0  0  0  0  0
  -23.4064  -30.4875   21.5558 C   0  0  2  0  0  0
  -24.8552  -28.9639   20.1101 C   0  0  0  0  0  0
  -22.7376  -29.4630   22.5025 C   0  0  0  0  0  0
  -18.0225  -28.1357   22.8788 C   0  0  0  0  0  0
  -24.1489  -36.7302   23.2635 C   0  0  0  0  0  0
  -25.9444  -30.8091   21.3842 C   0  0  0  0  0  0
  -26.0144  -29.4429   20.7296 C   0  0  0  0  0  0
  -27.2017  -28.6656   20.7162 C   0  0  0  0  0  0
  -26.0551  -26.9718   19.4115 C   0  0  0  0  0  0
  -24.8742  -27.7280   19.4508 C   0  0  0  0  0  0
  -23.6189  -29.8327   20.1664 C   0  0  0  0  0  0
  -25.4113  -36.3144   24.0352 C   0  0  1  0  0  0
  -20.5836  -28.3647   23.1533 C   0  0  2  0  0  0
  -20.6600  -26.9372   22.5641 C   0  0  0  0  0  0
  -19.5593  -26.6708   21.5337 C   0  0  0  0  0  0
  -18.1910  -26.7832   22.2066 C   0  0  0  0  0  0
  -19.1500  -28.8864   23.3157 C   0  0  0  0  0  0
  -18.9395  -30.1499   23.9106 C   0  0  0  0  0  0
  -17.6383  -30.6679   24.0582 C   0  0  0  0  0  0
  -25.9057  -34.9492   23.5184 C   0  0  0  0  0  0
  -16.5292  -29.9195   23.6268 C   0  0  0  0  0  0
  -16.7215  -28.6500   23.0509 C   0  0  0  0  0  0
  -26.4464  -31.6570   25.0751 C   0  0  0  0  0  0
  -25.3709  -31.3621   26.1477 C   0  0  0  0  0  0
  -27.0292  -30.3010   24.6117 C   0  0  0  0  0  0
  -27.6102  -32.4216   25.7478 C   0  0  0  0  0  0
  -27.5585  -37.1808   24.8481 C   0  0  0  0  0  0
  -21.4087  -29.2914   22.3727 N   0  0  0  0  0  0
  -26.4300  -37.3823   23.9440 N   0  0  0  0  0  0
  -24.6728  -31.0701   22.1075 N   0  0  0  0  0  0
  -23.4110  -28.8256   23.3164 O   0  0  0  0  0  0
  -28.3915  -26.6221   20.0760 O   0  0  0  0  0  0
  -26.5590  -34.8908   22.4724 O   0  0  0  0  0  0
  -23.5335  -32.1449   23.7469 O   0  0  0  0  0  0
  -29.1519  -18.9297   21.8634 C   0  0  0  0  0  0
  -29.8243  -19.3243   20.7212 C   0  0  0  0  0  0
  -29.8795  -16.8561   21.1817 C   0  0  0  0  0  0
  -28.8557  -22.8482   20.6153 C   0  0  0  0  0  0
  -28.4852  -19.8037   22.8876 C   0  0  0  0  0  0
  -26.8546  -22.2690   17.5613 C   0  0  0  0  0  0
  -25.4224  -20.3892   18.3407 C   0  0  0  0  0  0
  -25.5672  -22.3573   19.7731 C   0  0  0  0  0  0
  -29.3655  -24.2322   20.1056 C   0  0  0  0  0  0
  -27.6089  -20.8020   19.5123 C   0  0  0  0  0  0
  -28.2481  -25.2321   19.6722 C   0  0  0  0  0  0
  -28.9734  -21.5496   19.7357 C   0  0  2  0  0  0
  -26.3991  -21.4883   18.8087 C   0  0  0  0  0  0
  -29.1694  -17.5387   22.0867 N   0  0  0  0  0  0
  -30.0465  -20.6229   20.1933 N   0  0  0  0  0  0
  -29.9369  -15.4293   21.2910 N   0  0  0  0  0  0
  -28.3887  -22.7973   21.7544 O   0  0  0  0  0  0
  -30.5582  -17.9169   19.9358 S   0  0  0  0  0  0
  -31.4766  -12.4403   19.1429 H   0  0  0  0  0  0
  -30.3345  -11.3165   19.8215 H   0  0  0  0  0  0
  -29.7444  -11.8010   17.4255 H   0  0  0  0  0  0
  -29.6691  -13.5128   17.7854 H   0  0  0  0  0  0
  -27.8334  -11.3144   18.7982 H   0  0  0  0  0  0
  -27.3732  -12.6615   17.7866 H   0  0  0  0  0  0
  -27.7169  -14.2533   19.5995 H   0  0  0  0  0  0
  -28.6841  -11.9131   21.3146 H   0  0  0  0  0  0
  -28.4324  -13.5132   21.9015 H   0  0  0  0  0  0
  -25.2780   -9.5664   22.4782 H   0  0  0  0  0  0
  -24.0016   -7.4638   22.7470 H   0  0  0  0  0  0
  -21.0866   -8.8818   19.8990 H   0  0  0  0  0  0
  -22.3748  -10.9700   19.6213 H   0  0  0  0  0  0
  -21.1991   -7.6182   23.9711 H   0  0  0  0  0  0
  -21.1448   -6.0595   25.9102 H   0  0  0  0  0  0
  -22.0602   -2.7630   23.2904 H   0  0  0  0  0  0
  -22.4181  -11.9777   22.4696 H   0  0  0  0  0  0
  -21.1268  -13.1260   22.2740 H   0  0  0  0  0  0
  -24.7102  -15.8657   20.5220 H   0  0  0  0  0  0
  -26.3187  -15.6045   20.0936 H   0  0  0  0  0  0
  -26.7096  -32.5495   23.1169 H   0  0  0  0  0  0
  -25.0134  -33.9839   25.0559 H   0  0  0  0  0  0
  -22.6935  -31.3055   21.4224 H   0  0  0  0  0  0
  -23.3790  -35.9604   23.3326 H   0  0  0  0  0  0
  -24.3608  -36.8878   22.2053 H   0  0  0  0  0  0
  -23.7171  -37.6487   23.6612 H   0  0  0  0  0  0
  -26.0664  -31.5696   20.6110 H   0  0  0  0  0  0
  -26.8325  -30.8633   22.0043 H   0  0  0  0  0  0
  -28.0827  -29.0353   21.2238 H   0  0  0  0  0  0
  -26.0155  -26.0538   18.8394 H   0  0  0  0  0  0
  -23.9914  -27.3672   18.9419 H   0  0  0  0  0  0
  -23.7369  -30.6181   19.4210 H   0  0  0  0  0  0
  -22.7421  -29.2627   19.8556 H   0  0  0  0  0  0
  -25.1274  -36.2058   25.0838 H   0  0  0  0  0  0
  -20.9984  -28.3244   24.1641 H   0  0  0  0  0  0
  -20.5151  -26.2276   23.3806 H   0  0  0  0  0  0
  -21.6526  -26.7131   22.1737 H   0  0  0  0  0  0
  -19.6828  -25.6932   21.0701 H   0  0  0  0  0  0
  -19.6242  -27.4148   20.7403 H   0  0  0  0  0  0
  -17.3996  -26.6286   21.4709 H   0  0  0  0  0  0
  -18.0695  -26.0016   22.9604 H   0  0  0  0  0  0
  -19.7805  -30.7318   24.2645 H   0  0  0  0  0  0
  -17.4908  -31.6427   24.4963 H   0  0  0  0  0  0
  -15.5289  -30.3191   23.7397 H   0  0  0  0  0  0
  -15.8653  -28.0706   22.7269 H   0  0  0  0  0  0
  -24.5984  -30.6858   25.7778 H   0  0  0  0  0  0
  -24.8742  -32.2708   26.4858 H   0  0  0  0  0  0
  -25.8049  -30.8839   27.0272 H   0  0  0  0  0  0
  -26.2836  -29.6768   24.1167 H   0  0  0  0  0  0
  -27.4073  -29.7226   25.4560 H   0  0  0  0  0  0
  -27.8680  -30.4348   23.9292 H   0  0  0  0  0  0
  -27.2873  -33.3586   26.2034 H   0  0  0  0  0  0
  -28.3927  -32.6623   25.0268 H   0  0  0  0  0  0
  -28.0753  -31.8306   26.5378 H   0  0  0  0  0  0
  -28.2623  -38.0086   24.7567 H   0  0  0  0  0  0
  -28.1068  -36.2628   24.6301 H   0  0  0  0  0  0
  -27.2330  -37.1455   25.8887 H   0  0  0  0  0  0
  -20.9298  -29.8174   21.6556 H   0  0  0  0  0  0
  -26.0218  -38.2929   24.1400 H   0  0  0  0  0  0
  -29.0955  -20.6770   23.1083 H   0  0  0  0  0  0
  -28.3325  -19.2762   23.8257 H   0  0  0  0  0  0
  -27.5095  -20.1628   22.5689 H   0  0  0  0  0  0
  -26.0113  -22.7204   17.0372 H   0  0  0  0  0  0
  -27.3551  -21.5930   16.8647 H   0  0  0  0  0  0
  -27.5496  -23.0732   17.7923 H   0  0  0  0  0  0
  -24.5523  -20.8140   17.8352 H   0  0  0  0  0  0
  -25.0502  -19.8103   19.1880 H   0  0  0  0  0  0
  -25.8900  -19.6905   17.6466 H   0  0  0  0  0  0
  -24.7047  -22.8005   19.2636 H   0  0  0  0  0  0
  -26.1246  -23.1633   20.2290 H   0  0  0  0  0  0
  -25.1805  -21.7468   20.5919 H   0  0  0  0  0  0
  -30.1101  -24.1102   19.3186 H   0  0  0  0  0  0
  -29.8948  -24.6864   20.9446 H   0  0  0  0  0  0
  -27.2426  -20.4187   20.4605 H   0  0  0  0  0  0
  -27.8483  -19.9202   18.9178 H   0  0  0  0  0  0
  -27.3259  -24.8716   20.1178 H   0  0  0  0  0  0
  -28.1215  -25.1914   18.5877 H   0  0  0  0  0  0
  -29.3166  -21.8744   18.7523 H   0  0  0  0  0  0
  -30.8987  -20.7101   19.6456 H   0  0  0  0  0  0
  -29.1917  -15.0303   21.8395 H   0  0  0  0  0  0
  1 25  1  0  0  0
  1 30  2  0  0  0
  1 86  1  0  0  0
  2  3  1  0  0  0
  2 25  1  0  0  0
  2 89  1  0  0  0
  2 90  1  0  0  0
  3  4  1  0  0  0
  3 91  1  0  0  0
  3 92  1  0  0  0
  4  5  1  0  0  0
  4 93  1  0  0  0
  4 94  1  0  0  0
  5  6  1  0  0  0
  5 26  1  0  0  0
  5 95  1  0  0  0
  6 25  1  0  0  0
  6 96  1  0  0  0
  6 97  1  0  0  0
  7  8  2  0  0  0
  7 26  1  0  0  0
  7 29  1  0  0  0
  8  9  1  0  0  0
  8 22  1  0  0  0
  9 10  1  0  0  0
  9 27  2  0  0  0
 10 11  2  0  0  0
 10 15  1  0  0  0
 11 12  1  0  0  0
 11 98  1  0  0  0
 12 13  2  0  0  0
 12 99  1  0  0  0
 13 14  1  0  0  0
 13 31  1  0  0  0
 14 15  2  0  0  0
 14100  1  0  0  0
 15101  1  0  0  0
 16 17  2  0  0  0
 16 21  1  0  0  0
 16 31  1  0  0  0
 17 18  1  0  0  0
 17102  1  0  0  0
 18 19  2  0  0  0
 18103  1  0  0  0
 19 20  1  0  0  0
 19 24  1  0  0  0
 20 21  2  0  0  0
 20104  1  0  0  0
 21 23  1  0  0  0
 22 28  1  0  0  0
 22 32  2  0  0  0
 26 27  1  0  0  0
 28105  1  0  0  0
 28106  1  0  0  0
 29107  1  0  0  0
 29108  1  0  0  0
 33 34  1  0  0  0
 33 66  1  0  0  0
 33 70  2  0  0  0
 34 36  1  0  0  0
 34 59  1  0  0  0
 34109  1  0  0  0
 35 44  2  0  0  0
 35 45  1  0  0  0
 35 68  1  0  0  0
 36 56  1  0  0  0
 36110  1  0  0  0
 37 39  1  0  0  0
 37 47  1  0  0  0
 37 66  1  0  0  0
 37111  1  0  0  0
 38 43  2  0  0  0
 38 46  1  0  0  0
 38 47  1  0  0  0
 39 64  1  0  0  0
 39 67  2  0  0  0
 40 52  1  0  0  0
 40 53  2  0  0  0
 40 58  1  0  0  0
 41112  1  0  0  0
 41113  1  0  0  0
 41114  1  0  0  0
 41 48  1  0  0  0
 42 43  1  0  0  0
 42 66  1  0  0  0
 42115  1  0  0  0
 42116  1  0  0  0
 43 44  1  0  0  0
 44117  1  0  0  0
 45 46  2  0  0  0
 45118  1  0  0  0
 46119  1  0  0  0
 47120  1  0  0  0
 47121  1  0  0  0
 48 56  1  0  0  0
 48 65  1  0  0  0
 48122  1  0  0  0
 49 50  1  0  0  0
 49 53  1  0  0  0
 49 64  1  0  0  0
 49123  1  0  0  0
 50 51  1  0  0  0
 50124  1  0  0  0
 50125  1  0  0  0
 51 52  1  0  0  0
 51126  1  0  0  0
 51127  1  0  0  0
 52128  1  0  0  0
 52129  1  0  0  0
 53 54  1  0  0  0
 54 55  2  0  0  0
 54130  1  0  0  0
 55 57  1  0  0  0
 55131  1  0  0  0
 56 69  2  0  0  0
 57 58  2  0  0  0
 57132  1  0  0  0
 58133  1  0  0  0
 59 60  1  0  0  0
 59 61  1  0  0  0
 59 62  1  0  0  0
 60134  1  0  0  0
 60135  1  0  0  0
 60136  1  0  0  0
 61137  1  0  0  0
 61138  1  0  0  0
 61139  1  0  0  0
 62140  1  0  0  0
 62141  1  0  0  0
 62142  1  0  0  0
 63 65  1  0  0  0
 63143  1  0  0  0
 63144  1  0  0  0
 63145  1  0  0  0
 64146  1  0  0  0
 65147  1  0  0  0
 68 81  1  0  0  0
 71 72  2  0  0  0
 71 75  1  0  0  0
 71 84  1  0  0  0
 72 85  1  0  0  0
 72 88  1  0  0  0
 73 84  2  0  0  0
 73 86  1  0  0  0
 73 88  1  0  0  0
 74 79  1  0  0  0
 74 82  1  0  0  0
 74 87  2  0  0  0
 75148  1  0  0  0
 75149  1  0  0  0
 75150  1  0  0  0
 76151  1  0  0  0
 76152  1  0  0  0
 76153  1  0  0  0
 76 83  1  0  0  0
 77 83  1  0  0  0
 77154  1  0  0  0
 77155  1  0  0  0
 77156  1  0  0  0
 78 83  1  0  0  0
 78157  1  0  0  0
 78158  1  0  0  0
 78159  1  0  0  0
 79 81  1  0  0  0
 79160  1  0  0  0
 79161  1  0  0  0
 80 83  1  0  0  0
 80162  1  0  0  0
 80163  1  0  0  0
 80 82  1  0  0  0
 81164  1  0  0  0
 81165  1  0  0  0
 82 85  1  0  0  0
 82166  1  0  0  0
 85167  1  0  0  0
 86168  1  0  0  0
M  ISO  4   1 100  68 101  81 101  86 100
M  END
> <chiral flag>
0

> <version>
0

> <s_m_source_file>
/data/baiqing/PycharmProjects/Reinvent-master-3.2/result/LINK_invent/BTK/process_docking_weight1_custom_product_contain_oxygen_bond_distance_aromatic_linkinvent_7_9_3/rearranged_h_0187.sdf

> <i_m_source_file_index>
45

> <r_mmod_Potential_Energy-OPLS-2005>
-29.3820934295654

> <r_mmod_Stretch_Energy-OPLS-2005>
54.7928085327148

> <r_mmod_Bend_Energy-OPLS-2005>
142.295303344727

> <r_mmod_Torsional_Energy-OPLS-2005>
232.922119140625

> <r_mmod_Improper_Torsional_Energy-OPLS-2005>
5.80670881271362

> <r_mmod_Van_der_Waal_Energy-OPLS-2005>
130.005249023438

> <r_mmod_Electrostatic_Energy-OPLS-2005>
-392.188018798828

> <r_mmod_Solvation_Energy-OPLS-2005>
-224.117858886719

> <b_mmod_Minimization_Converged-OPLS-2005>
0

> <r_mmod_RMS_Derivative-OPLS-2005>
6.69560384750366

$$$$
47
                    3D
 Structure written by MMmdl.
157165  0  0  1  0            999 V2000
  -30.6370  -14.7206   20.4742 C   0  0  0  0  0  0
  -30.4329  -12.4454   19.4633 C   0  0  0  0  0  0
  -29.5002  -12.4541   18.2322 C   0  0  0  0  0  0
  -28.0265  -12.3169   18.6563 C   0  0  0  0  0  0
  -27.6429  -13.2310   19.8496 C   0  0  2  0  0  0
  -28.6902  -13.1637   20.9804 C   0  0  0  0  0  0
  -25.2522  -13.8198   20.5719 C   0  0  0  0  0  0
  -24.1798  -13.0445   20.9208 C   0  0  0  0  0  0
  -24.6395  -11.6930   20.8763 C   0  0  0  0  0  0
  -23.9079  -10.4303   21.0423 C   0  0  0  0  0  0
  -24.3628   -9.4210   21.9198 C   0  0  0  0  0  0
  -23.6307   -8.2239   22.0748 C   0  0  0  0  0  0
  -22.4292   -8.0283   21.3532 C   0  0  0  0  0  0
  -21.9934   -9.0264   20.4634 C   0  0  0  0  0  0
  -22.7259  -10.2147   20.3060 C   0  0  0  0  0  0
  -21.6863   -6.0759   22.5283 C   0  0  0  0  0  0
  -21.4021   -6.5655   23.8219 C   0  0  0  0  0  0
  -21.3652   -5.6791   24.9168 C   0  0  0  0  0  0
  -21.6040   -4.3058   24.7211 C   0  0  0  0  0  0
  -21.8821   -3.8166   23.4325 C   0  0  0  0  0  0
  -21.9195   -4.6990   22.3390 C   0  0  0  0  0  0
  -22.7823  -13.5241   21.1848 C   0  0  0  0  0  0
  -22.1659   -4.2187   21.0963 F   0  0  0  0  0  0
  -21.5622   -3.4523   25.7715 F   0  0  0  0  0  0
  -29.9870  -13.5113   20.3888 N   0  0  0  0  0  0
  -26.2963  -12.9417   20.3327 N   0  0  0  0  0  0
  -25.9336  -11.6563   20.5803 N   0  0  0  0  0  0
  -22.0459  -12.8264   22.0413 N   0  0  0  0  0  0
  -25.4201  -15.1912   20.4141 N   0  0  0  0  0  0
  -31.8191  -14.8050   20.1408 O   0  0  0  0  0  0
  -21.6642   -6.8896   21.4246 O   0  0  0  0  0  0
  -22.3526  -14.5554   20.6694 O   0  0  0  0  0  0
  -24.6282  -31.8582   23.2028 C   0  0  0  0  0  0
  -25.9125  -32.4765   23.8355 C   0  0  1  0  0  0
  -27.2111  -27.2839   20.1126 C   0  0  0  0  0  0
  -25.5932  -33.8574   24.2267 N   0  0  0  0  0  0
  -23.4222  -30.4857   21.5459 C   0  0  2  0  0  0
  -24.8656  -28.9415   20.1059 C   0  0  0  0  0  0
  -22.7476  -29.4634   22.4917 C   0  0  0  0  0  0
  -18.0292  -28.1382   22.8493 C   0  0  0  0  0  0
  -24.1478  -36.7281   23.2637 C   0  0  0  0  0  0
  -25.9676  -30.7756   21.3812 C   0  0  0  0  0  0
  -26.0355  -29.4020   20.7204 C   0  0  0  0  0  0
  -27.2067  -28.5826   20.7188 C   0  0  0  0  0  0
  -26.0214  -26.8987   19.4498 C   0  0  0  0  0  0
  -24.8627  -27.6974   19.4621 C   0  0  0  0  0  0
  -23.6368  -29.8265   20.1586 C   0  0  0  0  0  0
  -25.4109  -36.3080   24.0320 C   0  0  1  0  0  0
  -20.5892  -28.3692   23.1257 C   0  0  2  0  0  0
  -20.6779  -26.9407   22.5400 C   0  0  0  0  0  0
  -19.5753  -26.6379   21.5206 C   0  0  0  0  0  0
  -18.1935  -26.7926   22.1628 C   0  0  0  0  0  0
  -19.1546  -28.8851   23.2873 C   0  0  0  0  0  0
  -18.9476  -30.1454   23.8884 C   0  0  0  0  0  0
  -17.6479  -30.6589   24.0564 C   0  0  0  0  0  0
  -25.9049  -34.9448   23.5094 C   0  0  0  0  0  0
  -16.5365  -29.9097   23.6331 C   0  0  0  0  0  0
  -16.7280  -28.6512   23.0354 C   0  0  0  0  0  0
  -26.4505  -31.6591   25.0734 C   0  0  0  0  0  0
  -25.3730  -31.3740   26.1456 C   0  0  0  0  0  0
  -27.0346  -30.3004   24.6222 C   0  0  0  0  0  0
  -27.6061  -32.4339   25.7498 C   0  0  0  0  0  0
  -27.5569  -37.1796   24.8467 C   0  0  0  0  0  0
  -21.4189  -29.3051   22.3650 N   0  0  0  0  0  0
  -26.4281  -37.3780   23.9412 N   0  0  0  0  0  0
  -24.6916  -31.0576   22.0994 N   0  0  0  0  0  0
  -23.4192  -28.8148   23.2982 O   0  0  0  0  0  0
  -28.3241  -26.4188   20.2112 O   0  0  0  0  0  0
  -26.5623  -34.8918   22.4664 O   0  0  0  0  0  0
  -23.5437  -32.1407   23.7335 O   0  0  0  0  0  0
  -28.6355  -19.0464   21.3725 C   0  0  0  0  0  0
  -29.3780  -18.4931   20.3382 C   0  0  0  0  0  0
  -29.1768  -21.0868   20.3761 C   0  0  0  0  0  0
  -27.8469  -18.2807   22.3921 C   0  0  0  0  0  0
  -29.0360  -25.0679   18.3723 C   0  0  0  0  0  0
  -28.8865  -23.8371   20.6703 C   0  0  0  0  0  0
  -29.4796  -16.9863   19.8451 C   0  0  1  0  0  0
  -28.3072  -25.0050   19.7234 C   0  0  1  0  0  0
  -30.0687  -16.8668   18.4058 C   0  0  0  0  0  0
  -28.5521  -20.4735   21.3912 N   0  0  0  0  0  0
  -29.1685  -22.4876   20.0545 N   0  0  0  0  0  0
  -29.9245  -15.8637   20.7833 N   0  0  0  0  0  0
  -31.3680  -17.1627   18.3891 F   0  0  0  0  0  0
  -29.8923  -15.6534   17.8979 F   0  0  0  0  0  0
  -29.4300  -17.6889   17.5730 F   0  0  0  0  0  0
  -30.0477  -19.8655   19.4050 S   0  0  0  0  0  0
  -31.4686  -12.5768   19.1461 H   0  0  0  0  0  0
  -30.3970  -11.4768   19.9618 H   0  0  0  0  0  0
  -29.7646  -11.6346   17.5628 H   0  0  0  0  0  0
  -29.6375  -13.3587   17.6460 H   0  0  0  0  0  0
  -27.8721  -11.2753   18.9361 H   0  0  0  0  0  0
  -27.3670  -12.5011   17.8066 H   0  0  0  0  0  0
  -27.6419  -14.2513   19.4669 H   0  0  0  0  0  0
  -28.7251  -12.1652   21.4178 H   0  0  0  0  0  0
  -28.4310  -13.8473   21.7898 H   0  0  0  0  0  0
  -25.2755   -9.5708   22.4799 H   0  0  0  0  0  0
  -24.0015   -7.4646   22.7485 H   0  0  0  0  0  0
  -21.0856   -8.8804   19.8952 H   0  0  0  0  0  0
  -22.3712  -10.9702   19.6192 H   0  0  0  0  0  0
  -21.2025   -7.6167   23.9738 H   0  0  0  0  0  0
  -21.1461   -6.0508   25.9067 H   0  0  0  0  0  0
  -22.0607   -2.7635   23.2811 H   0  0  0  0  0  0
  -22.4054  -11.9925   22.4814 H   0  0  0  0  0  0
  -21.1100  -13.1346   22.2632 H   0  0  0  0  0  0
  -24.6461  -15.8397   20.5069 H   0  0  0  0  0  0
  -26.2779  -15.6331   20.1146 H   0  0  0  0  0  0
  -26.7184  -32.5414   23.1091 H   0  0  0  0  0  0
  -25.0094  -33.9731   25.0417 H   0  0  0  0  0  0
  -22.7186  -31.3086   21.4051 H   0  0  0  0  0  0
  -23.3748  -35.9607   23.3307 H   0  0  0  0  0  0
  -24.3558  -36.8895   22.2048 H   0  0  0  0  0  0
  -23.7218  -37.6477   23.6659 H   0  0  0  0  0  0
  -26.1062  -31.5375   20.6127 H   0  0  0  0  0  0
  -26.8455  -30.8213   22.0124 H   0  0  0  0  0  0
  -28.1001  -28.9278   21.2198 H   0  0  0  0  0  0
  -25.9311  -25.9716   18.9096 H   0  0  0  0  0  0
  -23.9689  -27.3473   18.9648 H   0  0  0  0  0  0
  -23.7593  -30.6078   19.4074 H   0  0  0  0  0  0
  -22.7532  -29.2625   19.8526 H   0  0  0  0  0  0
  -25.1286  -36.1932   25.0809 H   0  0  0  0  0  0
  -21.0004  -28.3281   24.1366 H   0  0  0  0  0  0
  -20.5664  -26.2309   23.3611 H   0  0  0  0  0  0
  -21.6648  -26.7421   22.1189 H   0  0  0  0  0  0
  -19.6908  -25.6284   21.1244 H   0  0  0  0  0  0
  -19.6679  -27.3182   20.6726 H   0  0  0  0  0  0
  -17.4195  -26.6660   21.4040 H   0  0  0  0  0  0
  -18.0341  -26.0060   22.9016 H   0  0  0  0  0  0
  -19.7949  -30.7281   24.2229 H   0  0  0  0  0  0
  -17.5036  -31.6265   24.5175 H   0  0  0  0  0  0
  -15.5367  -30.3008   23.7653 H   0  0  0  0  0  0
  -15.8675  -28.0840   22.7065 H   0  0  0  0  0  0
  -24.5926  -30.7057   25.7799 H   0  0  0  0  0  0
  -24.8897  -32.2907   26.4846 H   0  0  0  0  0  0
  -25.8050  -30.8960   27.0254 H   0  0  0  0  0  0
  -26.2927  -29.6754   24.1239 H   0  0  0  0  0  0
  -27.4010  -29.7270   25.4745 H   0  0  0  0  0  0
  -27.8816  -30.4262   23.9471 H   0  0  0  0  0  0
  -27.2669  -33.3659   26.2037 H   0  0  0  0  0  0
  -28.3890  -32.6871   25.0333 H   0  0  0  0  0  0
  -28.0711  -31.8493   26.5443 H   0  0  0  0  0  0
  -28.2598  -38.0086   24.7522 H   0  0  0  0  0  0
  -28.1056  -36.2616   24.6294 H   0  0  0  0  0  0
  -27.2288  -37.1455   25.8872 H   0  0  0  0  0  0
  -20.9362  -29.8790   21.6874 H   0  0  0  0  0  0
  -26.0159  -38.2846   24.1452 H   0  0  0  0  0  0
  -28.3861  -17.4023   22.7458 H   0  0  0  0  0  0
  -26.8993  -17.9353   21.9778 H   0  0  0  0  0  0
  -27.6166  -18.8936   23.2640 H   0  0  0  0  0  0
  -28.9955  -24.1169   17.8426 H   0  0  0  0  0  0
  -30.0834  -25.3429   18.5018 H   0  0  0  0  0  0
  -28.5777  -25.8162   17.7238 H   0  0  0  0  0  0
  -28.2095  -23.6968   21.5136 H   0  0  0  0  0  0
  -29.8243  -24.1900   21.1008 H   0  0  0  0  0  0
  -28.4368  -16.7096   19.6930 H   0  0  0  0  0  0
  -27.2974  -24.6622   19.5303 H   0  0  0  0  0  0
  -29.6139  -22.6229   19.1520 H   0  0  0  0  0  0
  -30.3242  -16.2849   21.6065 H   0  0  0  0  0  0
  1 25  1  0  0  0
  1 30  2  0  0  0
  1 82  1  0  0  0
  2  3  1  0  0  0
  2 25  1  0  0  0
  2 87  1  0  0  0
  2 88  1  0  0  0
  3  4  1  0  0  0
  3 89  1  0  0  0
  3 90  1  0  0  0
  4  5  1  0  0  0
  4 91  1  0  0  0
  4 92  1  0  0  0
  5  6  1  0  0  0
  5 26  1  0  0  0
  5 93  1  0  0  0
  6 25  1  0  0  0
  6 94  1  0  0  0
  6 95  1  0  0  0
  7  8  2  0  0  0
  7 26  1  0  0  0
  7 29  1  0  0  0
  8  9  1  0  0  0
  8 22  1  0  0  0
  9 10  1  0  0  0
  9 27  2  0  0  0
 10 11  2  0  0  0
 10 15  1  0  0  0
 11 12  1  0  0  0
 11 96  1  0  0  0
 12 13  2  0  0  0
 12 97  1  0  0  0
 13 14  1  0  0  0
 13 31  1  0  0  0
 14 15  2  0  0  0
 14 98  1  0  0  0
 15 99  1  0  0  0
 16 17  2  0  0  0
 16 21  1  0  0  0
 16 31  1  0  0  0
 17 18  1  0  0  0
 17100  1  0  0  0
 18 19  2  0  0  0
 18101  1  0  0  0
 19 20  1  0  0  0
 19 24  1  0  0  0
 20 21  2  0  0  0
 20102  1  0  0  0
 21 23  1  0  0  0
 22 28  1  0  0  0
 22 32  2  0  0  0
 26 27  1  0  0  0
 28103  1  0  0  0
 28104  1  0  0  0
 29105  1  0  0  0
 29106  1  0  0  0
 33 34  1  0  0  0
 33 66  1  0  0  0
 33 70  2  0  0  0
 34 36  1  0  0  0
 34 59  1  0  0  0
 34107  1  0  0  0
 35 44  2  0  0  0
 35 45  1  0  0  0
 35 68  1  0  0  0
 36 56  1  0  0  0
 36108  1  0  0  0
 37 39  1  0  0  0
 37 47  1  0  0  0
 37 66  1  0  0  0
 37109  1  0  0  0
 38 43  2  0  0  0
 38 46  1  0  0  0
 38 47  1  0  0  0
 39 64  1  0  0  0
 39 67  2  0  0  0
 40 52  1  0  0  0
 40 53  2  0  0  0
 40 58  1  0  0  0
 41110  1  0  0  0
 41111  1  0  0  0
 41112  1  0  0  0
 41 48  1  0  0  0
 42 43  1  0  0  0
 42 66  1  0  0  0
 42113  1  0  0  0
 42114  1  0  0  0
 43 44  1  0  0  0
 44115  1  0  0  0
 45 46  2  0  0  0
 45116  1  0  0  0
 46117  1  0  0  0
 47118  1  0  0  0
 47119  1  0  0  0
 48 56  1  0  0  0
 48 65  1  0  0  0
 48120  1  0  0  0
 49 50  1  0  0  0
 49 53  1  0  0  0
 49 64  1  0  0  0
 49121  1  0  0  0
 50 51  1  0  0  0
 50122  1  0  0  0
 50123  1  0  0  0
 51 52  1  0  0  0
 51124  1  0  0  0
 51125  1  0  0  0
 52126  1  0  0  0
 52127  1  0  0  0
 53 54  1  0  0  0
 54 55  2  0  0  0
 54128  1  0  0  0
 55 57  1  0  0  0
 55129  1  0  0  0
 56 69  2  0  0  0
 57 58  2  0  0  0
 57130  1  0  0  0
 58131  1  0  0  0
 59 60  1  0  0  0
 59 61  1  0  0  0
 59 62  1  0  0  0
 60132  1  0  0  0
 60133  1  0  0  0
 60134  1  0  0  0
 61135  1  0  0  0
 61136  1  0  0  0
 61137  1  0  0  0
 62138  1  0  0  0
 62139  1  0  0  0
 62140  1  0  0  0
 63 65  1  0  0  0
 63141  1  0  0  0
 63142  1  0  0  0
 63143  1  0  0  0
 64144  1  0  0  0
 65145  1  0  0  0
 68 78  1  0  0  0
 71 72  2  0  0  0
 71 74  1  0  0  0
 71 80  1  0  0  0
 72 77  1  0  0  0
 72 86  1  0  0  0
 73 80  2  0  0  0
 73 81  1  0  0  0
 73 86  1  0  0  0
 74146  1  0  0  0
 74147  1  0  0  0
 74148  1  0  0  0
 75149  1  0  0  0
 75150  1  0  0  0
 75151  1  0  0  0
 75 78  1  0  0  0
 76 78  1  0  0  0
 76 81  1  0  0  0
 76152  1  0  0  0
 76153  1  0  0  0
 77 79  1  0  0  0
 77 82  1  0  0  0
 77154  1  0  0  0
 78155  1  0  0  0
 79 83  1  0  0  0
 79 84  1  0  0  0
 79 85  1  0  0  0
 81156  1  0  0  0
 82157  1  0  0  0
M  ISO  4   1 100  68 101  78 101  82 100
M  END
> <chiral flag>
0

> <version>
0

> <s_m_source_file>
/data/baiqing/PycharmProjects/Reinvent-master-3.2/result/LINK_invent/BTK/process_docking_weight1_custom_product_contain_oxygen_bond_distance_aromatic_linkinvent_7_9_3/rearranged_h_0187.sdf

> <i_m_source_file_index>
46

> <r_mmod_Potential_Energy-OPLS-2005>
8.60097789764404

> <r_mmod_Stretch_Energy-OPLS-2005>
101.618370056152

> <r_mmod_Bend_Energy-OPLS-2005>
181.235763549805

> <r_mmod_Torsional_Energy-OPLS-2005>
274.902526855469

> <r_mmod_Improper_Torsional_Energy-OPLS-2005>
8.77173328399658

> <r_mmod_Van_der_Waal_Energy-OPLS-2005>
124.493751525879

> <r_mmod_Electrostatic_Energy-OPLS-2005>
-535.086730957031

> <r_mmod_Solvation_Energy-OPLS-2005>
-223.229949951172

> <b_mmod_Minimization_Converged-OPLS-2005>
0

> <r_mmod_RMS_Derivative-OPLS-2005>
2.16663479804993

$$$$
48
                    3D
 Structure written by MMmdl.
153161  0  0  1  0            999 V2000
  -30.6191  -14.7082   20.4492 C   0  0  0  0  0  0
  -30.4317  -12.4242   19.4755 C   0  0  0  0  0  0
  -29.5117  -12.4971   18.2358 C   0  0  0  0  0  0
  -28.0352  -12.3217   18.6428 C   0  0  0  0  0  0
  -27.6404  -13.2209   19.8433 C   0  0  2  0  0  0
  -28.6826  -13.1463   20.9797 C   0  0  0  0  0  0
  -25.2522  -13.8170   20.5675 C   0  0  0  0  0  0
  -24.1805  -13.0431   20.9199 C   0  0  0  0  0  0
  -24.6382  -11.6904   20.8740 C   0  0  0  0  0  0
  -23.9058  -10.4287   21.0408 C   0  0  0  0  0  0
  -24.3613   -9.4204   21.9184 C   0  0  0  0  0  0
  -23.6290   -8.2239   22.0754 C   0  0  0  0  0  0
  -22.4273   -8.0275   21.3544 C   0  0  0  0  0  0
  -21.9905   -9.0248   20.4647 C   0  0  0  0  0  0
  -22.7231  -10.2127   20.3057 C   0  0  0  0  0  0
  -21.6852   -6.0732   22.5279 C   0  0  0  0  0  0
  -21.4014   -6.5638   23.8211 C   0  0  0  0  0  0
  -21.3660   -5.6792   24.9175 C   0  0  0  0  0  0
  -21.6045   -4.3054   24.7227 C   0  0  0  0  0  0
  -21.8820   -3.8145   23.4348 C   0  0  0  0  0  0
  -21.9192   -4.6960   22.3403 C   0  0  0  0  0  0
  -22.7829  -13.5221   21.1868 C   0  0  0  0  0  0
  -22.1660   -4.2146   21.0980 F   0  0  0  0  0  0
  -21.5630   -3.4539   25.7740 F   0  0  0  0  0  0
  -29.9947  -13.4821   20.4133 N   0  0  0  0  0  0
  -26.2925  -12.9352   20.3231 N   0  0  0  0  0  0
  -25.9302  -11.6507   20.5725 N   0  0  0  0  0  0
  -22.0476  -12.8212   22.0426 N   0  0  0  0  0  0
  -25.4238  -15.1892   20.4103 N   0  0  0  0  0  0
  -31.8197  -14.7786   20.1705 O   0  0  0  0  0  0
  -21.6639   -6.8872   21.4239 O   0  0  0  0  0  0
  -22.3514  -14.5527   20.6716 O   0  0  0  0  0  0
  -24.6276  -31.8578   23.1998 C   0  0  0  0  0  0
  -25.9116  -32.4768   23.8336 C   0  0  1  0  0  0
  -27.2237  -27.3009   20.1340 C   0  0  0  0  0  0
  -25.5926  -33.8569   24.2267 N   0  0  0  0  0  0
  -23.4223  -30.4794   21.5428 C   0  0  2  0  0  0
  -24.8699  -28.9252   20.1169 C   0  0  0  0  0  0
  -22.7479  -29.4617   22.4934 C   0  0  0  0  0  0
  -18.0287  -28.1384   22.8487 C   0  0  0  0  0  0
  -24.1491  -36.7288   23.2639 C   0  0  0  0  0  0
  -25.9637  -30.7850   21.3711 C   0  0  0  0  0  0
  -26.0397  -29.4084   20.7182 C   0  0  0  0  0  0
  -27.2237  -28.6103   20.7099 C   0  0  0  0  0  0
  -26.0322  -26.8658   19.5192 C   0  0  0  0  0  0
  -24.8684  -27.6597   19.5075 C   0  0  0  0  0  0
  -23.6388  -29.8087   20.1604 C   0  0  0  0  0  0
  -25.4116  -36.3077   24.0327 C   0  0  1  0  0  0
  -20.5887  -28.3691   23.1281 C   0  0  2  0  0  0
  -20.6776  -26.9413   22.5410 C   0  0  0  0  0  0
  -19.5752  -26.6384   21.5212 C   0  0  0  0  0  0
  -18.1932  -26.7928   22.1624 C   0  0  0  0  0  0
  -19.1539  -28.8854   23.2879 C   0  0  0  0  0  0
  -18.9462  -30.1456   23.8896 C   0  0  0  0  0  0
  -17.6462  -30.6587   24.0563 C   0  0  0  0  0  0
  -25.9053  -34.9447   23.5099 C   0  0  0  0  0  0
  -16.5354  -29.9085   23.6331 C   0  0  0  0  0  0
  -16.7275  -28.6502   23.0354 C   0  0  0  0  0  0
  -26.4498  -31.6579   25.0710 C   0  0  0  0  0  0
  -25.3732  -31.3719   26.1437 C   0  0  0  0  0  0
  -27.0341  -30.3002   24.6165 C   0  0  0  0  0  0
  -27.6055  -32.4313   25.7484 C   0  0  0  0  0  0
  -27.5581  -37.1799   24.8464 C   0  0  0  0  0  0
  -21.4191  -29.3042   22.3675 N   0  0  0  0  0  0
  -26.4293  -37.3774   23.9409 N   0  0  0  0  0  0
  -24.6902  -31.0578   22.0951 N   0  0  0  0  0  0
  -23.4192  -28.8165   23.3029 O   0  0  0  0  0  0
  -28.3403  -26.4506   20.1170 O   0  0  0  0  0  0
  -26.5624  -34.8919   22.4668 O   0  0  0  0  0  0
  -23.5436  -32.1381   23.7320 O   0  0  0  0  0  0
  -28.3761  -18.9767   19.9907 C   0  0  0  0  0  0
  -29.6177  -18.5916   20.4643 C   0  0  0  0  0  0
  -29.1122  -21.1310   20.4789 C   0  0  0  0  0  0
  -30.2409  -17.2407   20.5379 C   0  0  0  0  0  0
  -29.7609  -15.9438   20.5541 C   0  0  0  0  0  0
  -27.6668  -23.4807   18.7808 C   0  0  0  0  0  0
  -29.0404  -25.2176   22.0249 C   0  0  0  0  0  0
  -28.6998  -23.8097   19.8657 C   0  0  1  0  0  0
  -28.2322  -25.0954   20.7250 C   0  0  2  0  0  0
  -28.1311  -20.3809   19.9558 N   0  0  0  0  0  0
  -29.1165  -22.5640   20.6144 N   0  0  0  0  0  0
  -30.4607  -20.0648   21.0078 S   0  0  0  0  0  0
  -31.4747  -12.5374   19.1756 H   0  0  0  0  0  0
  -30.3632  -11.4444   19.9506 H   0  0  0  0  0  0
  -29.7928  -11.7314   17.5117 H   0  0  0  0  0  0
  -29.6443  -13.4568   17.7339 H   0  0  0  0  0  0
  -27.8884  -11.2729   18.9030 H   0  0  0  0  0  0
  -27.3815  -12.5174   17.7920 H   0  0  0  0  0  0
  -27.6329  -14.2380   19.4549 H   0  0  0  0  0  0
  -28.7056  -12.1473   21.4176 H   0  0  0  0  0  0
  -28.4218  -13.8260   21.7923 H   0  0  0  0  0  0
  -25.2758   -9.5680   22.4758 H   0  0  0  0  0  0
  -24.0002   -7.4629   22.7470 H   0  0  0  0  0  0
  -21.0838   -8.8762   19.8952 H   0  0  0  0  0  0
  -22.3688  -10.9665   19.6166 H   0  0  0  0  0  0
  -21.2005   -7.6146   23.9714 H   0  0  0  0  0  0
  -21.1483   -6.0523   25.9077 H   0  0  0  0  0  0
  -22.0599   -2.7607   23.2851 H   0  0  0  0  0  0
  -22.4096  -11.9875   22.4814 H   0  0  0  0  0  0
  -21.1093  -13.1234   22.2636 H   0  0  0  0  0  0
  -24.6585  -15.8448   20.5251 H   0  0  0  0  0  0
  -26.2743  -15.6269   20.0811 H   0  0  0  0  0  0
  -26.7184  -32.5438   23.1083 H   0  0  0  0  0  0
  -25.0073  -33.9710   25.0412 H   0  0  0  0  0  0
  -22.7172  -31.3001   21.3961 H   0  0  0  0  0  0
  -23.3755  -35.9618   23.3298 H   0  0  0  0  0  0
  -24.3582  -36.8913   22.2054 H   0  0  0  0  0  0
  -23.7242  -37.6488   23.6665 H   0  0  0  0  0  0
  -26.0938  -31.5460   20.6004 H   0  0  0  0  0  0
  -26.8443  -30.8376   21.9997 H   0  0  0  0  0  0
  -28.1266  -28.9810   21.1747 H   0  0  0  0  0  0
  -25.9949  -25.8937   19.0509 H   0  0  0  0  0  0
  -23.9717  -27.2825   19.0357 H   0  0  0  0  0  0
  -23.7607  -30.5821   19.4011 H   0  0  0  0  0  0
  -22.7585  -29.2386   19.8585 H   0  0  0  0  0  0
  -25.1299  -36.1926   25.0820 H   0  0  0  0  0  0
  -20.9981  -28.3266   24.1400 H   0  0  0  0  0  0
  -20.5676  -26.2301   23.3610 H   0  0  0  0  0  0
  -21.6645  -26.7442   22.1204 H   0  0  0  0  0  0
  -19.6915  -25.6295   21.1243 H   0  0  0  0  0  0
  -19.6690  -27.3194   20.6741 H   0  0  0  0  0  0
  -17.4202  -26.6675   21.4027 H   0  0  0  0  0  0
  -18.0334  -26.0069   22.9021 H   0  0  0  0  0  0
  -19.7937  -30.7274   24.2265 H   0  0  0  0  0  0
  -17.5016  -31.6268   24.5163 H   0  0  0  0  0  0
  -15.5355  -30.2987   23.7653 H   0  0  0  0  0  0
  -15.8675  -28.0820   22.7070 H   0  0  0  0  0  0
  -24.5904  -30.7072   25.7765 H   0  0  0  0  0  0
  -24.8929  -32.2887   26.4866 H   0  0  0  0  0  0
  -25.8057  -30.8891   27.0210 H   0  0  0  0  0  0
  -26.2913  -29.6749   24.1197 H   0  0  0  0  0  0
  -27.4047  -29.7260   25.4667 H   0  0  0  0  0  0
  -27.8778  -30.4286   23.9381 H   0  0  0  0  0  0
  -27.2665  -33.3612   26.2062 H   0  0  0  0  0  0
  -28.3869  -32.6874   25.0316 H   0  0  0  0  0  0
  -28.0721  -31.8437   26.5402 H   0  0  0  0  0  0
  -28.2595  -38.0099   24.7516 H   0  0  0  0  0  0
  -28.1082  -36.2631   24.6285 H   0  0  0  0  0  0
  -27.2300  -37.1440   25.8867 H   0  0  0  0  0  0
  -20.9373  -29.8756   21.6875 H   0  0  0  0  0  0
  -26.0173  -38.2847   24.1413 H   0  0  0  0  0  0
  -27.6160  -18.3184   19.5943 H   0  0  0  0  0  0
  -31.3204  -17.3088   20.5193 H   0  0  0  0  0  0
  -28.6909  -15.8255   20.5985 H   0  0  0  0  0  0
  -27.4702  -24.3523   18.1563 H   0  0  0  0  0  0
  -26.7197  -23.1596   19.2151 H   0  0  0  0  0  0
  -28.0199  -22.6887   18.1199 H   0  0  0  0  0  0
  -28.9229  -24.3362   22.6551 H   0  0  0  0  0  0
  -28.7084  -26.0750   22.6108 H   0  0  0  0  0  0
  -30.1027  -25.3475   21.8176 H   0  0  0  0  0  0
  -29.6088  -24.1199   19.3480 H   0  0  0  0  0  0
  -27.1973  -24.9230   21.0262 H   0  0  0  0  0  0
  -29.8492  -22.8184   21.2699 H   0  0  0  0  0  0
  1 25  1  0  0  0
  1 30  2  0  0  0
  1 75  1  0  0  0
  2  3  1  0  0  0
  2 25  1  0  0  0
  2 83  1  0  0  0
  2 84  1  0  0  0
  3  4  1  0  0  0
  3 85  1  0  0  0
  3 86  1  0  0  0
  4  5  1  0  0  0
  4 87  1  0  0  0
  4 88  1  0  0  0
  5  6  1  0  0  0
  5 26  1  0  0  0
  5 89  1  0  0  0
  6 25  1  0  0  0
  6 90  1  0  0  0
  6 91  1  0  0  0
  7  8  2  0  0  0
  7 26  1  0  0  0
  7 29  1  0  0  0
  8  9  1  0  0  0
  8 22  1  0  0  0
  9 10  1  0  0  0
  9 27  2  0  0  0
 10 11  2  0  0  0
 10 15  1  0  0  0
 11 12  1  0  0  0
 11 92  1  0  0  0
 12 13  2  0  0  0
 12 93  1  0  0  0
 13 14  1  0  0  0
 13 31  1  0  0  0
 14 15  2  0  0  0
 14 94  1  0  0  0
 15 95  1  0  0  0
 16 17  2  0  0  0
 16 21  1  0  0  0
 16 31  1  0  0  0
 17 18  1  0  0  0
 17 96  1  0  0  0
 18 19  2  0  0  0
 18 97  1  0  0  0
 19 20  1  0  0  0
 19 24  1  0  0  0
 20 21  2  0  0  0
 20 98  1  0  0  0
 21 23  1  0  0  0
 22 28  1  0  0  0
 22 32  2  0  0  0
 26 27  1  0  0  0
 28 99  1  0  0  0
 28100  1  0  0  0
 29101  1  0  0  0
 29102  1  0  0  0
 33 34  1  0  0  0
 33 66  1  0  0  0
 33 70  2  0  0  0
 34 36  1  0  0  0
 34 59  1  0  0  0
 34103  1  0  0  0
 35 44  2  0  0  0
 35 45  1  0  0  0
 35 68  1  0  0  0
 36 56  1  0  0  0
 36104  1  0  0  0
 37 39  1  0  0  0
 37 47  1  0  0  0
 37 66  1  0  0  0
 37105  1  0  0  0
 38 43  2  0  0  0
 38 46  1  0  0  0
 38 47  1  0  0  0
 39 64  1  0  0  0
 39 67  2  0  0  0
 40 52  1  0  0  0
 40 53  2  0  0  0
 40 58  1  0  0  0
 41106  1  0  0  0
 41107  1  0  0  0
 41108  1  0  0  0
 41 48  1  0  0  0
 42 43  1  0  0  0
 42 66  1  0  0  0
 42109  1  0  0  0
 42110  1  0  0  0
 43 44  1  0  0  0
 44111  1  0  0  0
 45 46  2  0  0  0
 45112  1  0  0  0
 46113  1  0  0  0
 47114  1  0  0  0
 47115  1  0  0  0
 48 56  1  0  0  0
 48 65  1  0  0  0
 48116  1  0  0  0
 49 50  1  0  0  0
 49 53  1  0  0  0
 49 64  1  0  0  0
 49117  1  0  0  0
 50 51  1  0  0  0
 50118  1  0  0  0
 50119  1  0  0  0
 51 52  1  0  0  0
 51120  1  0  0  0
 51121  1  0  0  0
 52122  1  0  0  0
 52123  1  0  0  0
 53 54  1  0  0  0
 54 55  2  0  0  0
 54124  1  0  0  0
 55 57  1  0  0  0
 55125  1  0  0  0
 56 69  2  0  0  0
 57 58  2  0  0  0
 57126  1  0  0  0
 58127  1  0  0  0
 59 60  1  0  0  0
 59 61  1  0  0  0
 59 62  1  0  0  0
 60128  1  0  0  0
 60129  1  0  0  0
 60130  1  0  0  0
 61131  1  0  0  0
 61132  1  0  0  0
 61133  1  0  0  0
 62134  1  0  0  0
 62135  1  0  0  0
 62136  1  0  0  0
 63 65  1  0  0  0
 63137  1  0  0  0
 63138  1  0  0  0
 63139  1  0  0  0
 64140  1  0  0  0
 65141  1  0  0  0
 68 79  1  0  0  0
 71 72  2  0  0  0
 71 80  1  0  0  0
 71142  1  0  0  0
 72 74  1  0  0  0
 72 82  1  0  0  0
 73 80  2  0  0  0
 73 81  1  0  0  0
 73 82  1  0  0  0
 74 75  2  0  0  0
 74143  1  0  0  0
 75144  1  0  0  0
 76145  1  0  0  0
 76146  1  0  0  0
 76147  1  0  0  0
 76 78  1  0  0  0
 77148  1  0  0  0
 77149  1  0  0  0
 77150  1  0  0  0
 77 79  1  0  0  0
 78 79  1  0  0  0
 78 81  1  0  0  0
 78151  1  0  0  0
 79152  1  0  0  0
 81153  1  0  0  0
M  ISO  4   1 100  68 101  75 100  79 101
M  END
> <chiral flag>
0

> <version>
0

> <s_m_source_file>
/data/baiqing/PycharmProjects/Reinvent-master-3.2/result/LINK_invent/BTK/process_docking_weight1_custom_product_contain_oxygen_bond_distance_aromatic_linkinvent_7_9_3/rearranged_h_0187.sdf

> <i_m_source_file_index>
47

> <r_mmod_Potential_Energy-OPLS-2005>
49.7128829956055

> <r_mmod_Stretch_Energy-OPLS-2005>
90.3666152954102

> <r_mmod_Bend_Energy-OPLS-2005>
142.061386108398

> <r_mmod_Torsional_Energy-OPLS-2005>
221.075836181641

> <r_mmod_Improper_Torsional_Energy-OPLS-2005>
8.02090263366699

> <r_mmod_Van_der_Waal_Energy-OPLS-2005>
114.399642944336

> <r_mmod_Electrostatic_Energy-OPLS-2005>
-380.818450927734

> <r_mmod_Solvation_Energy-OPLS-2005>
-210.819244384766

> <b_mmod_Minimization_Converged-OPLS-2005>
0

> <r_mmod_RMS_Derivative-OPLS-2005>
0.253312259912491

$$$$
49
                    3D
 Structure written by MMmdl.
162170  0  0  1  0            999 V2000
  -30.6345  -14.7472   20.4678 C   0  0  0  0  0  0
  -30.4240  -12.4590   19.4792 C   0  0  0  0  0  0
  -29.5047  -12.5061   18.2388 C   0  0  0  0  0  0
  -28.0351  -12.3200   18.6560 C   0  0  0  0  0  0
  -27.6398  -13.2304   19.8497 C   0  0  2  0  0  0
  -28.6841  -13.1878   20.9880 C   0  0  0  0  0  0
  -25.2527  -13.8202   20.5709 C   0  0  0  0  0  0
  -24.1802  -13.0445   20.9199 C   0  0  0  0  0  0
  -24.6387  -11.6919   20.8749 C   0  0  0  0  0  0
  -23.9057  -10.4294   21.0407 C   0  0  0  0  0  0
  -24.3611   -9.4211   21.9191 C   0  0  0  0  0  0
  -23.6293   -8.2241   22.0757 C   0  0  0  0  0  0
  -22.4272   -8.0288   21.3554 C   0  0  0  0  0  0
  -21.9909   -9.0251   20.4652 C   0  0  0  0  0  0
  -22.7226  -10.2133   20.3063 C   0  0  0  0  0  0
  -21.6851   -6.0737   22.5280 C   0  0  0  0  0  0
  -21.4010   -6.5644   23.8214 C   0  0  0  0  0  0
  -21.3653   -5.6800   24.9182 C   0  0  0  0  0  0
  -21.6040   -4.3060   24.7234 C   0  0  0  0  0  0
  -21.8823   -3.8149   23.4356 C   0  0  0  0  0  0
  -21.9197   -4.6964   22.3409 C   0  0  0  0  0  0
  -22.7843  -13.5257   21.1853 C   0  0  0  0  0  0
  -22.1671   -4.2146   21.0985 F   0  0  0  0  0  0
  -21.5625   -3.4550   25.7748 F   0  0  0  0  0  0
  -29.9846  -13.5338   20.4026 N   0  0  0  0  0  0
  -26.2931  -12.9384   20.3297 N   0  0  0  0  0  0
  -25.9314  -11.6522   20.5755 N   0  0  0  0  0  0
  -22.0498  -12.8233   22.0409 N   0  0  0  0  0  0
  -25.4252  -15.1916   20.4111 N   0  0  0  0  0  0
  -31.8217  -14.8181   20.1369 O   0  0  0  0  0  0
  -21.6649   -6.8874   21.4238 O   0  0  0  0  0  0
  -22.3529  -14.5557   20.6697 O   0  0  0  0  0  0
  -24.6287  -31.8549   23.1976 C   0  0  0  0  0  0
  -25.9098  -32.4774   23.8326 C   0  0  1  0  0  0
  -27.2330  -27.2714   20.1656 C   0  0  0  0  0  0
  -25.5895  -33.8576   24.2227 N   0  0  0  0  0  0
  -23.4290  -30.4709   21.5413 C   0  0  2  0  0  0
  -24.8813  -28.9139   20.1171 C   0  0  0  0  0  0
  -22.7499  -29.4559   22.4928 C   0  0  0  0  0  0
  -18.0292  -28.1369   22.8487 C   0  0  0  0  0  0
  -24.1479  -36.7290   23.2642 C   0  0  0  0  0  0
  -25.9685  -30.7798   21.3708 C   0  0  0  0  0  0
  -26.0501  -29.3998   20.7176 C   0  0  0  0  0  0
  -27.2345  -28.5978   20.7124 C   0  0  0  0  0  0
  -26.0448  -26.8440   19.5388 C   0  0  0  0  0  0
  -24.8825  -27.6456   19.5120 C   0  0  0  0  0  0
  -23.6475  -29.7970   20.1600 C   0  0  0  0  0  0
  -25.4111  -36.3075   24.0318 C   0  0  1  0  0  0
  -20.5897  -28.3678   23.1280 C   0  0  2  0  0  0
  -20.6776  -26.9394   22.5423 C   0  0  0  0  0  0
  -19.5753  -26.6369   21.5218 C   0  0  0  0  0  0
  -18.1932  -26.7914   22.1621 C   0  0  0  0  0  0
  -19.1547  -28.8840   23.2879 C   0  0  0  0  0  0
  -18.9472  -30.1449   23.8878 C   0  0  0  0  0  0
  -17.6472  -30.6580   24.0547 C   0  0  0  0  0  0
  -25.9040  -34.9446   23.5073 C   0  0  0  0  0  0
  -16.5361  -29.9068   23.6329 C   0  0  0  0  0  0
  -16.7284  -28.6487   23.0350 C   0  0  0  0  0  0
  -26.4450  -31.6645   25.0736 C   0  0  0  0  0  0
  -25.3648  -31.3796   26.1436 C   0  0  0  0  0  0
  -27.0304  -30.3073   24.6247 C   0  0  0  0  0  0
  -27.5990  -32.4410   25.7519 C   0  0  0  0  0  0
  -27.5582  -37.1776   24.8456 C   0  0  0  0  0  0
  -21.4208  -29.3036   22.3679 N   0  0  0  0  0  0
  -26.4282  -37.3773   23.9411 N   0  0  0  0  0  0
  -24.6947  -31.0511   22.0944 N   0  0  0  0  0  0
  -23.4182  -28.8099   23.3042 O   0  0  0  0  0  0
  -28.3320  -26.3861   20.1859 O   0  0  0  0  0  0
  -26.5640  -34.8933   22.4663 O   0  0  0  0  0  0
  -23.5432  -32.1368   23.7272 O   0  0  0  0  0  0
  -28.5280  -18.9108   21.5924 C   0  0  0  0  0  0
  -29.5899  -18.6682   20.7396 C   0  0  0  0  0  0
  -28.7337  -21.1422   20.8696 C   0  0  0  0  0  0
  -28.7878  -23.7685   20.4080 C   0  0  0  0  0  0
  -27.8691  -17.8970   22.4756 C   0  0  0  0  0  0
  -29.5380  -27.5861   23.8685 C   0  0  0  0  0  0
  -29.7051  -24.3765   23.1809 C   0  0  0  0  0  0
  -30.4354  -17.3467   20.4993 C   0  0  0  0  0  0
  -28.5344  -26.5840   23.2676 C   0  0  0  0  0  0
  -28.2935  -25.1647   21.0671 C   0  0  1  0  0  0
  -29.1880  -25.5496   22.3090 C   0  0  2  0  0  0
  -28.0736  -20.2599   21.6433 N   0  0  0  0  0  0
  -28.3461  -22.5723   20.9487 N   0  0  0  0  0  0
  -29.9127  -15.9170   20.6850 N   0  0  0  0  0  0
  -29.5663  -23.7943   19.4514 O   0  0  0  0  0  0
  -30.0182  -20.2524   19.9773 S   0  0  0  0  0  0
  -31.4669  -12.5681   19.1802 H   0  0  0  0  0  0
  -30.3560  -11.4879   19.9713 H   0  0  0  0  0  0
  -29.7928  -11.7336   17.5253 H   0  0  0  0  0  0
  -29.6234  -13.4605   17.7224 H   0  0  0  0  0  0
  -27.9039  -11.2727   18.9323 H   0  0  0  0  0  0
  -27.3729  -12.4961   17.8080 H   0  0  0  0  0  0
  -27.6282  -14.2468   19.4546 H   0  0  0  0  0  0
  -28.7212  -12.1984   21.4459 H   0  0  0  0  0  0
  -28.4146  -13.8841   21.7826 H   0  0  0  0  0  0
  -25.2752   -9.5707   22.4769 H   0  0  0  0  0  0
  -24.0013   -7.4645   22.7481 H   0  0  0  0  0  0
  -21.0844   -8.8757   19.8964 H   0  0  0  0  0  0
  -22.3674  -10.9669   19.6181 H   0  0  0  0  0  0
  -21.1991   -7.6156   23.9714 H   0  0  0  0  0  0
  -21.1470   -6.0537   25.9085 H   0  0  0  0  0  0
  -22.0600   -2.7611   23.2861 H   0  0  0  0  0  0
  -22.4137  -11.9905   22.4782 H   0  0  0  0  0  0
  -21.1135  -13.1267   22.2647 H   0  0  0  0  0  0
  -24.6500  -15.8410   20.4871 H   0  0  0  0  0  0
  -26.2729  -15.6225   20.0669 H   0  0  0  0  0  0
  -26.7183  -32.5418   23.1087 H   0  0  0  0  0  0
  -24.9979  -33.9701   25.0330 H   0  0  0  0  0  0
  -22.7271  -31.2927   21.3922 H   0  0  0  0  0  0
  -23.3749  -35.9616   23.3285 H   0  0  0  0  0  0
  -24.3549  -36.8952   22.2061 H   0  0  0  0  0  0
  -23.7234  -37.6474   23.6693 H   0  0  0  0  0  0
  -26.0975  -31.5410   20.6004 H   0  0  0  0  0  0
  -26.8455  -30.8327   22.0042 H   0  0  0  0  0  0
  -28.1375  -28.9667   21.1804 H   0  0  0  0  0  0
  -26.0101  -25.8655   19.0818 H   0  0  0  0  0  0
  -23.9869  -27.2662   19.0397 H   0  0  0  0  0  0
  -23.7636  -30.5659   19.3952 H   0  0  0  0  0  0
  -22.7673  -29.2236   19.8635 H   0  0  0  0  0  0
  -25.1303  -36.1911   25.0810 H   0  0  0  0  0  0
  -21.0000  -28.3261   24.1394 H   0  0  0  0  0  0
  -20.5681  -26.2280   23.3638 H   0  0  0  0  0  0
  -21.6641  -26.7413   22.1216 H   0  0  0  0  0  0
  -19.6894  -25.6272   21.1270 H   0  0  0  0  0  0
  -19.6682  -27.3155   20.6732 H   0  0  0  0  0  0
  -17.4207  -26.6688   21.4023 H   0  0  0  0  0  0
  -18.0293  -26.0065   22.9017 H   0  0  0  0  0  0
  -19.7955  -30.7271   24.2250 H   0  0  0  0  0  0
  -17.5024  -31.6259   24.5148 H   0  0  0  0  0  0
  -15.5354  -30.2944   23.7684 H   0  0  0  0  0  0
  -15.8692  -28.0798   22.7056 H   0  0  0  0  0  0
  -24.5831  -30.7150   25.7734 H   0  0  0  0  0  0
  -24.8808  -32.2954   26.4833 H   0  0  0  0  0  0
  -25.7927  -30.8975   27.0235 H   0  0  0  0  0  0
  -26.2879  -29.6774   24.1320 H   0  0  0  0  0  0
  -27.3986  -29.7425   25.4818 H   0  0  0  0  0  0
  -27.8747  -30.4344   23.9473 H   0  0  0  0  0  0
  -27.2581  -33.3738   26.2026 H   0  0  0  0  0  0
  -28.3816  -32.6941   25.0357 H   0  0  0  0  0  0
  -28.0619  -31.8584   26.5486 H   0  0  0  0  0  0
  -28.2567  -38.0112   24.7559 H   0  0  0  0  0  0
  -28.1115  -36.2635   24.6223 H   0  0  0  0  0  0
  -27.2281  -37.1354   25.8853 H   0  0  0  0  0  0
  -20.9402  -29.8767   21.6886 H   0  0  0  0  0  0
  -26.0165  -38.2837   24.1460 H   0  0  0  0  0  0
  -28.5983  -17.1991   22.8873 H   0  0  0  0  0  0
  -27.1326  -17.3159   21.9226 H   0  0  0  0  0  0
  -27.3567  -18.3585   23.3200 H   0  0  0  0  0  0
  -29.0647  -28.2252   24.6145 H   0  0  0  0  0  0
  -29.9488  -28.2417   23.0993 H   0  0  0  0  0  0
  -30.3728  -27.0849   24.3612 H   0  0  0  0  0  0
  -30.3676  -24.7345   23.9688 H   0  0  0  0  0  0
  -30.2886  -23.6509   22.6186 H   0  0  0  0  0  0
  -28.8857  -23.8441   23.6653 H   0  0  0  0  0  0
  -31.3165  -17.4194   21.1410 H   0  0  0  0  0  0
  -30.8417  -17.3976   19.4882 H   0  0  0  0  0  0
  -27.7466  -27.1432   22.7755 H   0  0  0  0  0  0
  -28.0222  -26.0682   24.0813 H   0  0  0  0  0  0
  -27.2672  -25.0027   21.4059 H   0  0  0  0  0  0
  -30.0788  -26.0171   21.8881 H   0  0  0  0  0  0
  -27.6286  -22.7287   21.6403 H   0  0  0  0  0  0
  -28.9328  -15.8094   20.8959 H   0  0  0  0  0  0
  1 25  1  0  0  0
  1 30  2  0  0  0
  1 84  1  0  0  0
  2  3  1  0  0  0
  2 25  1  0  0  0
  2 87  1  0  0  0
  2 88  1  0  0  0
  3  4  1  0  0  0
  3 89  1  0  0  0
  3 90  1  0  0  0
  4  5  1  0  0  0
  4 91  1  0  0  0
  4 92  1  0  0  0
  5  6  1  0  0  0
  5 26  1  0  0  0
  5 93  1  0  0  0
  6 25  1  0  0  0
  6 94  1  0  0  0
  6 95  1  0  0  0
  7  8  2  0  0  0
  7 26  1  0  0  0
  7 29  1  0  0  0
  8  9  1  0  0  0
  8 22  1  0  0  0
  9 10  1  0  0  0
  9 27  2  0  0  0
 10 11  2  0  0  0
 10 15  1  0  0  0
 11 12  1  0  0  0
 11 96  1  0  0  0
 12 13  2  0  0  0
 12 97  1  0  0  0
 13 14  1  0  0  0
 13 31  1  0  0  0
 14 15  2  0  0  0
 14 98  1  0  0  0
 15 99  1  0  0  0
 16 17  2  0  0  0
 16 21  1  0  0  0
 16 31  1  0  0  0
 17 18  1  0  0  0
 17100  1  0  0  0
 18 19  2  0  0  0
 18101  1  0  0  0
 19 20  1  0  0  0
 19 24  1  0  0  0
 20 21  2  0  0  0
 20102  1  0  0  0
 21 23  1  0  0  0
 22 28  1  0  0  0
 22 32  2  0  0  0
 26 27  1  0  0  0
 28103  1  0  0  0
 28104  1  0  0  0
 29105  1  0  0  0
 29106  1  0  0  0
 33 34  1  0  0  0
 33 66  1  0  0  0
 33 70  2  0  0  0
 34 36  1  0  0  0
 34 59  1  0  0  0
 34107  1  0  0  0
 35 44  2  0  0  0
 35 45  1  0  0  0
 35 68  1  0  0  0
 36 56  1  0  0  0
 36108  1  0  0  0
 37 39  1  0  0  0
 37 47  1  0  0  0
 37 66  1  0  0  0
 37109  1  0  0  0
 38 43  2  0  0  0
 38 46  1  0  0  0
 38 47  1  0  0  0
 39 64  1  0  0  0
 39 67  2  0  0  0
 40 52  1  0  0  0
 40 53  2  0  0  0
 40 58  1  0  0  0
 41110  1  0  0  0
 41111  1  0  0  0
 41112  1  0  0  0
 41 48  1  0  0  0
 42 43  1  0  0  0
 42 66  1  0  0  0
 42113  1  0  0  0
 42114  1  0  0  0
 43 44  1  0  0  0
 44115  1  0  0  0
 45 46  2  0  0  0
 45116  1  0  0  0
 46117  1  0  0  0
 47118  1  0  0  0
 47119  1  0  0  0
 48 56  1  0  0  0
 48 65  1  0  0  0
 48120  1  0  0  0
 49 50  1  0  0  0
 49 53  1  0  0  0
 49 64  1  0  0  0
 49121  1  0  0  0
 50 51  1  0  0  0
 50122  1  0  0  0
 50123  1  0  0  0
 51 52  1  0  0  0
 51124  1  0  0  0
 51125  1  0  0  0
 52126  1  0  0  0
 52127  1  0  0  0
 53 54  1  0  0  0
 54 55  2  0  0  0
 54128  1  0  0  0
 55 57  1  0  0  0
 55129  1  0  0  0
 56 69  2  0  0  0
 57 58  2  0  0  0
 57130  1  0  0  0
 58131  1  0  0  0
 59 60  1  0  0  0
 59 61  1  0  0  0
 59 62  1  0  0  0
 60132  1  0  0  0
 60133  1  0  0  0
 60134  1  0  0  0
 61135  1  0  0  0
 61136  1  0  0  0
 61137  1  0  0  0
 62138  1  0  0  0
 62139  1  0  0  0
 62140  1  0  0  0
 63 65  1  0  0  0
 63141  1  0  0  0
 63142  1  0  0  0
 63143  1  0  0  0
 64144  1  0  0  0
 65145  1  0  0  0
 68 80  1  0  0  0
 71 72  2  0  0  0
 71 75  1  0  0  0
 71 82  1  0  0  0
 72 78  1  0  0  0
 72 86  1  0  0  0
 73 82  2  0  0  0
 73 83  1  0  0  0
 73 86  1  0  0  0
 74 80  1  0  0  0
 74 83  1  0  0  0
 74 85  2  0  0  0
 75146  1  0  0  0
 75147  1  0  0  0
 75148  1  0  0  0
 76 79  1  0  0  0
 76149  1  0  0  0
 76150  1  0  0  0
 76151  1  0  0  0
 77152  1  0  0  0
 77153  1  0  0  0
 77154  1  0  0  0
 77 81  1  0  0  0
 78 84  1  0  0  0
 78155  1  0  0  0
 78156  1  0  0  0
 79 81  1  0  0  0
 79157  1  0  0  0
 79158  1  0  0  0
 80 81  1  0  0  0
 80159  1  0  0  0
 81160  1  0  0  0
 83161  1  0  0  0
 84162  1  0  0  0
M  ISO  4   1 100  68 101  80 101  84 100
M  END
> <chiral flag>
0

> <version>
0

> <s_m_source_file>
/data/baiqing/PycharmProjects/Reinvent-master-3.2/result/LINK_invent/BTK/process_docking_weight1_custom_product_contain_oxygen_bond_distance_aromatic_linkinvent_7_9_3/rearranged_h_0187.sdf

> <i_m_source_file_index>
48

> <r_mmod_Potential_Energy-OPLS-2005>
93.8598175048828

> <r_mmod_Stretch_Energy-OPLS-2005>
122.657638549805

> <r_mmod_Bend_Energy-OPLS-2005>
190.049423217773

> <r_mmod_Torsional_Energy-OPLS-2005>
237.337356567383

> <r_mmod_Improper_Torsional_Energy-OPLS-2005>
5.52880048751831

> <r_mmod_Van_der_Waal_Energy-OPLS-2005>
105.521057128906

> <r_mmod_Electrostatic_Energy-OPLS-2005>
-416.932006835938

> <r_mmod_Solvation_Energy-OPLS-2005>
-233.877838134766

> <b_mmod_Minimization_Converged-OPLS-2005>
0

> <r_mmod_RMS_Derivative-OPLS-2005>
3.24308180809021

$$$$
50
                    3D
 Structure written by MMmdl.
159167  0  0  1  0            999 V2000
  -30.6611  -14.5432   20.5705 C   0  0  0  0  0  0
  -30.4326  -12.3532   19.4282 C   0  0  0  0  0  0
  -29.4989  -12.5132   18.2090 C   0  0  0  0  0  0
  -28.0222  -12.3564   18.6232 C   0  0  0  0  0  0
  -27.6545  -13.2075   19.8679 C   0  0  2  0  0  0
  -28.6985  -13.0121   20.9908 C   0  0  0  0  0  0
  -25.2562  -13.8142   20.5682 C   0  0  0  0  0  0
  -24.1825  -13.0423   20.9178 C   0  0  0  0  0  0
  -24.6390  -11.6894   20.8734 C   0  0  0  0  0  0
  -23.9057  -10.4276   21.0409 C   0  0  0  0  0  0
  -24.3616   -9.4201   21.9187 C   0  0  0  0  0  0
  -23.6294   -8.2229   22.0754 C   0  0  0  0  0  0
  -22.4277   -8.0273   21.3546 C   0  0  0  0  0  0
  -21.9914   -9.0241   20.4640 C   0  0  0  0  0  0
  -22.7233  -10.2115   20.3055 C   0  0  0  0  0  0
  -21.6845   -6.0741   22.5286 C   0  0  0  0  0  0
  -21.4000   -6.5640   23.8220 C   0  0  0  0  0  0
  -21.3668   -5.6790   24.9177 C   0  0  0  0  0  0
  -21.6043   -4.3051   24.7228 C   0  0  0  0  0  0
  -21.8817   -3.8147   23.4349 C   0  0  0  0  0  0
  -21.9190   -4.6968   22.3402 C   0  0  0  0  0  0
  -22.7852  -13.5238   21.1875 C   0  0  0  0  0  0
  -22.1659   -4.2161   21.0982 F   0  0  0  0  0  0
  -21.5648   -3.4532   25.7737 F   0  0  0  0  0  0
  -30.0172  -13.3462   20.4337 N   0  0  0  0  0  0
  -26.2984  -12.9309   20.3315 N   0  0  0  0  0  0
  -25.9311  -11.6476   20.5730 N   0  0  0  0  0  0
  -22.0497  -12.8210   22.0404 N   0  0  0  0  0  0
  -25.4248  -15.1867   20.4132 N   0  0  0  0  0  0
  -31.8157  -14.7138   20.1661 O   0  0  0  0  0  0
  -21.6639   -6.8887   21.4252 O   0  0  0  0  0  0
  -22.3534  -14.5569   20.6762 O   0  0  0  0  0  0
  -24.6193  -31.8645   23.2002 C   0  0  0  0  0  0
  -25.9047  -32.4808   23.8380 C   0  0  1  0  0  0
  -27.2362  -27.3841   20.1248 C   0  0  0  0  0  0
  -25.5902  -33.8597   24.2304 N   0  0  0  0  0  0
  -23.4127  -30.4828   21.5417 C   0  0  2  0  0  0
  -24.8644  -28.9402   20.1145 C   0  0  0  0  0  0
  -22.7470  -29.4607   22.4934 C   0  0  0  0  0  0
  -18.0296  -28.1398   22.8484 C   0  0  0  0  0  0
  -24.1473  -36.7275   23.2657 C   0  0  0  0  0  0
  -25.9429  -30.8175   21.3598 C   0  0  0  0  0  0
  -26.0247  -29.4456   20.7125 C   0  0  0  0  0  0
  -27.2178  -28.6791   20.7073 C   0  0  0  0  0  0
  -26.0601  -26.9028   19.5160 C   0  0  0  0  0  0
  -24.8799  -27.6733   19.5041 C   0  0  0  0  0  0
  -23.6281  -29.8110   20.1589 C   0  0  0  0  0  0
  -25.4091  -36.3077   24.0362 C   0  0  1  0  0  0
  -20.5881  -28.3674   23.1296 C   0  0  2  0  0  0
  -20.6776  -26.9412   22.5386 C   0  0  0  0  0  0
  -19.5733  -26.6367   21.5211 C   0  0  0  0  0  0
  -18.1912  -26.7931   22.1626 C   0  0  0  0  0  0
  -19.1557  -28.8851   23.2867 C   0  0  0  0  0  0
  -18.9481  -30.1463   23.8880 C   0  0  0  0  0  0
  -17.6497  -30.6597   24.0569 C   0  0  0  0  0  0
  -25.9041  -34.9460   23.5114 C   0  0  0  0  0  0
  -16.5374  -29.9092   23.6355 C   0  0  0  0  0  0
  -16.7294  -28.6537   23.0328 C   0  0  0  0  0  0
  -26.4443  -31.6631   25.0755 C   0  0  0  0  0  0
  -25.3653  -31.3779   26.1472 C   0  0  0  0  0  0
  -27.0313  -30.3102   24.6101 C   0  0  0  0  0  0
  -27.6036  -32.4364   25.7482 C   0  0  0  0  0  0
  -27.5562  -37.1779   24.8486 C   0  0  0  0  0  0
  -21.4185  -29.3052   22.3723 N   0  0  0  0  0  0
  -26.4274  -37.3772   23.9429 N   0  0  0  0  0  0
  -24.6776  -31.0684   22.0935 N   0  0  0  0  0  0
  -23.4241  -28.8137   23.2980 O   0  0  0  0  0  0
  -28.3752  -26.5944   20.1304 O   0  0  0  0  0  0
  -26.5568  -34.8946   22.4659 O   0  0  0  0  0  0
  -23.5374  -32.1387   23.7352 O   0  0  0  0  0  0
  -31.2586  -18.8713   22.5231 C   0  0  0  0  0  0
  -30.0632  -19.1600   21.8742 C   0  0  0  0  0  0
  -30.2978  -16.9000   21.3693 C   0  0  0  0  0  0
  -32.1609  -19.6476   23.3958 C   0  0  0  0  0  0
  -31.9882  -21.1515   23.5815 C   0  0  0  0  0  0
  -30.8318  -21.6059   20.2975 C   0  0  0  0  0  0
  -28.7748  -24.0606   20.3796 C   0  0  0  0  0  0
  -28.8594  -22.8452   21.3843 C   0  0  0  0  0  0
  -28.3388  -25.4330   21.0072 C   0  0  0  0  0  0
  -29.4037  -21.4563   20.8503 C   0  0  2  0  0  0
  -29.5304  -18.0077   21.2367 N   0  0  0  0  0  0
  -29.3509  -20.4057   21.8956 N   0  0  0  0  0  0
  -29.8797  -15.5892   20.9509 N   0  0  0  0  0  0
  -33.0986  -19.1103   23.9954 O   0  0  0  0  0  0
  -31.7805  -17.2160   22.2473 S   0  0  0  0  0  0
  -31.4750  -12.4727   19.1296 H   0  0  0  0  0  0
  -30.3623  -11.3447   19.8394 H   0  0  0  0  0  0
  -29.7529  -11.7840   17.4397 H   0  0  0  0  0  0
  -29.6485  -13.4943   17.7573 H   0  0  0  0  0  0
  -27.8563  -11.3001   18.8372 H   0  0  0  0  0  0
  -27.3689  -12.6060   17.7880 H   0  0  0  0  0  0
  -27.6858  -14.2506   19.5530 H   0  0  0  0  0  0
  -28.6901  -11.9742   21.3327 H   0  0  0  0  0  0
  -28.4575  -13.6121   21.8702 H   0  0  0  0  0  0
  -25.2764   -9.5687   22.4751 H   0  0  0  0  0  0
  -24.0013   -7.4628   22.7473 H   0  0  0  0  0  0
  -21.0849   -8.8758   19.8939 H   0  0  0  0  0  0
  -22.3706  -10.9666   19.6156 H   0  0  0  0  0  0
  -21.1973   -7.6142   23.9731 H   0  0  0  0  0  0
  -21.1498   -6.0514   25.9087 H   0  0  0  0  0  0
  -22.0591   -2.7618   23.2836 H   0  0  0  0  0  0
  -22.4091  -11.9834   22.4739 H   0  0  0  0  0  0
  -21.1130  -13.1257   22.2675 H   0  0  0  0  0  0
  -24.6554  -15.8393   20.5327 H   0  0  0  0  0  0
  -26.2707  -15.6353   20.0857 H   0  0  0  0  0  0
  -26.7122  -32.5472   23.1151 H   0  0  0  0  0  0
  -25.0140  -33.9800   25.0501 H   0  0  0  0  0  0
  -22.7033  -31.3018   21.3914 H   0  0  0  0  0  0
  -23.3772  -35.9586   23.3337 H   0  0  0  0  0  0
  -24.3577  -36.8818   22.2069 H   0  0  0  0  0  0
  -23.7191  -37.6485   23.6641 H   0  0  0  0  0  0
  -26.0489  -31.5785   20.5830 H   0  0  0  0  0  0
  -26.8328  -30.8748   21.9735 H   0  0  0  0  0  0
  -28.1162  -29.0636   21.1698 H   0  0  0  0  0  0
  -26.0519  -25.9211   19.0630 H   0  0  0  0  0  0
  -23.9889  -27.2849   19.0307 H   0  0  0  0  0  0
  -23.7420  -30.5850   19.3991 H   0  0  0  0  0  0
  -22.7524  -29.2334   19.8601 H   0  0  0  0  0  0
  -25.1255  -36.1991   25.0868 H   0  0  0  0  0  0
  -20.9967  -28.3226   24.1413 H   0  0  0  0  0  0
  -20.5664  -26.2298   23.3569 H   0  0  0  0  0  0
  -21.6624  -26.7382   22.1163 H   0  0  0  0  0  0
  -19.6869  -25.6255   21.1271 H   0  0  0  0  0  0
  -19.6710  -27.3165   20.6731 H   0  0  0  0  0  0
  -17.4173  -26.6710   21.4038 H   0  0  0  0  0  0
  -18.0306  -26.0073   22.9024 H   0  0  0  0  0  0
  -19.7993  -30.7286   24.2200 H   0  0  0  0  0  0
  -17.5088  -31.6288   24.5146 H   0  0  0  0  0  0
  -15.5399  -30.3015   23.7706 H   0  0  0  0  0  0
  -15.8679  -28.0890   22.7000 H   0  0  0  0  0  0
  -24.5883  -30.7060   25.7788 H   0  0  0  0  0  0
  -24.8781  -32.2960   26.4815 H   0  0  0  0  0  0
  -25.7953  -30.9059   27.0297 H   0  0  0  0  0  0
  -26.2899  -29.6854   24.1111 H   0  0  0  0  0  0
  -27.4135  -29.7345   25.4532 H   0  0  0  0  0  0
  -27.8673  -30.4527   23.9232 H   0  0  0  0  0  0
  -27.2697  -33.3713   26.1977 H   0  0  0  0  0  0
  -28.3835  -32.6782   25.0254 H   0  0  0  0  0  0
  -28.0669  -31.8519   26.5425 H   0  0  0  0  0  0
  -28.2561  -38.0078   24.7517 H   0  0  0  0  0  0
  -28.1057  -36.2616   24.6323 H   0  0  0  0  0  0
  -27.2306  -37.1401   25.8892 H   0  0  0  0  0  0
  -20.9384  -29.8867   21.6994 H   0  0  0  0  0  0
  -26.0184  -38.2859   24.1462 H   0  0  0  0  0  0
  -32.6148  -21.6754   22.8603 H   0  0  0  0  0  0
  -32.3156  -21.4452   24.5785 H   0  0  0  0  0  0
  -30.9575  -21.4725   23.4682 H   0  0  0  0  0  0
  -30.8765  -22.3278   19.4825 H   0  0  0  0  0  0
  -31.2237  -20.6690   19.8997 H   0  0  0  0  0  0
  -31.5256  -21.9565   21.0560 H   0  0  0  0  0  0
  -28.0870  -23.8043   19.5729 H   0  0  0  0  0  0
  -29.7442  -24.2128   19.9067 H   0  0  0  0  0  0
  -27.8589  -22.6928   21.7929 H   0  0  0  0  0  0
  -29.4656  -23.1585   22.2374 H   0  0  0  0  0  0
  -29.0204  -25.6546   21.8321 H   0  0  0  0  0  0
  -27.3563  -25.3238   21.4685 H   0  0  0  0  0  0
  -28.7552  -21.1310   20.0344 H   0  0  0  0  0  0
  -29.3697  -20.8286   22.8167 H   0  0  0  0  0  0
  -28.8962  -15.3933   21.0458 H   0  0  0  0  0  0
  1 25  1  0  0  0
  1 30  2  0  0  0
  1 83  1  0  0  0
  2  3  1  0  0  0
  2 25  1  0  0  0
  2 86  1  0  0  0
  2 87  1  0  0  0
  3  4  1  0  0  0
  3 88  1  0  0  0
  3 89  1  0  0  0
  4  5  1  0  0  0
  4 90  1  0  0  0
  4 91  1  0  0  0
  5  6  1  0  0  0
  5 26  1  0  0  0
  5 92  1  0  0  0
  6 25  1  0  0  0
  6 93  1  0  0  0
  6 94  1  0  0  0
  7  8  2  0  0  0
  7 26  1  0  0  0
  7 29  1  0  0  0
  8  9  1  0  0  0
  8 22  1  0  0  0
  9 10  1  0  0  0
  9 27  2  0  0  0
 10 11  2  0  0  0
 10 15  1  0  0  0
 11 12  1  0  0  0
 11 95  1  0  0  0
 12 13  2  0  0  0
 12 96  1  0  0  0
 13 14  1  0  0  0
 13 31  1  0  0  0
 14 15  2  0  0  0
 14 97  1  0  0  0
 15 98  1  0  0  0
 16 17  2  0  0  0
 16 21  1  0  0  0
 16 31  1  0  0  0
 17 18  1  0  0  0
 17 99  1  0  0  0
 18 19  2  0  0  0
 18100  1  0  0  0
 19 20  1  0  0  0
 19 24  1  0  0  0
 20 21  2  0  0  0
 20101  1  0  0  0
 21 23  1  0  0  0
 22 28  1  0  0  0
 22 32  2  0  0  0
 26 27  1  0  0  0
 28102  1  0  0  0
 28103  1  0  0  0
 29104  1  0  0  0
 29105  1  0  0  0
 33 34  1  0  0  0
 33 66  1  0  0  0
 33 70  2  0  0  0
 34 36  1  0  0  0
 34 59  1  0  0  0
 34106  1  0  0  0
 35 44  2  0  0  0
 35 45  1  0  0  0
 35 68  1  0  0  0
 36 56  1  0  0  0
 36107  1  0  0  0
 37 39  1  0  0  0
 37 47  1  0  0  0
 37 66  1  0  0  0
 37108  1  0  0  0
 38 43  2  0  0  0
 38 46  1  0  0  0
 38 47  1  0  0  0
 39 64  1  0  0  0
 39 67  2  0  0  0
 40 52  1  0  0  0
 40 53  2  0  0  0
 40 58  1  0  0  0
 41109  1  0  0  0
 41110  1  0  0  0
 41111  1  0  0  0
 41 48  1  0  0  0
 42 43  1  0  0  0
 42 66  1  0  0  0
 42112  1  0  0  0
 42113  1  0  0  0
 43 44  1  0  0  0
 44114  1  0  0  0
 45 46  2  0  0  0
 45115  1  0  0  0
 46116  1  0  0  0
 47117  1  0  0  0
 47118  1  0  0  0
 48 56  1  0  0  0
 48 65  1  0  0  0
 48119  1  0  0  0
 49 50  1  0  0  0
 49 53  1  0  0  0
 49 64  1  0  0  0
 49120  1  0  0  0
 50 51  1  0  0  0
 50121  1  0  0  0
 50122  1  0  0  0
 51 52  1  0  0  0
 51123  1  0  0  0
 51124  1  0  0  0
 52125  1  0  0  0
 52126  1  0  0  0
 53 54  1  0  0  0
 54 55  2  0  0  0
 54127  1  0  0  0
 55 57  1  0  0  0
 55128  1  0  0  0
 56 69  2  0  0  0
 57 58  2  0  0  0
 57129  1  0  0  0
 58130  1  0  0  0
 59 60  1  0  0  0
 59 61  1  0  0  0
 59 62  1  0  0  0
 60131  1  0  0  0
 60132  1  0  0  0
 60133  1  0  0  0
 61134  1  0  0  0
 61135  1  0  0  0
 61136  1  0  0  0
 62137  1  0  0  0
 62138  1  0  0  0
 62139  1  0  0  0
 63 65  1  0  0  0
 63140  1  0  0  0
 63141  1  0  0  0
 63142  1  0  0  0
 64143  1  0  0  0
 65144  1  0  0  0
 68 79  1  0  0  0
 71 72  2  0  0  0
 71 74  1  0  0  0
 71 85  1  0  0  0
 72 81  1  0  0  0
 72 82  1  0  0  0
 73 81  2  0  0  0
 73 83  1  0  0  0
 73 85  1  0  0  0
 74 75  1  0  0  0
 74 84  2  0  0  0
 75145  1  0  0  0
 75146  1  0  0  0
 75147  1  0  0  0
 76148  1  0  0  0
 76149  1  0  0  0
 76150  1  0  0  0
 76 80  1  0  0  0
 77 78  1  0  0  0
 77 79  1  0  0  0
 77151  1  0  0  0
 77152  1  0  0  0
 78 80  1  0  0  0
 78153  1  0  0  0
 78154  1  0  0  0
 79155  1  0  0  0
 79156  1  0  0  0
 80 82  1  0  0  0
 80157  1  0  0  0
 82158  1  0  0  0
 83159  1  0  0  0
M  ISO  4   1 100  68 101  79 101  83 100
M  END
> <chiral flag>
0

> <version>
0

> <s_m_source_file>
/data/baiqing/PycharmProjects/Reinvent-master-3.2/result/LINK_invent/BTK/process_docking_weight1_custom_product_contain_oxygen_bond_distance_aromatic_linkinvent_7_9_3/rearranged_h_0187.sdf

> <i_m_source_file_index>
49

> <r_mmod_Potential_Energy-OPLS-2005>
-84.5799179077148

> <r_mmod_Stretch_Energy-OPLS-2005>
54.414722442627

> <r_mmod_Bend_Energy-OPLS-2005>
113.21174621582

> <r_mmod_Torsional_Energy-OPLS-2005>
280.791748046875

> <r_mmod_Improper_Torsional_Energy-OPLS-2005>
9.67118644714355

> <r_mmod_Van_der_Waal_Energy-OPLS-2005>
123.936256408691

> <r_mmod_Electrostatic_Energy-OPLS-2005>
-460.313781738281

> <r_mmod_Solvation_Energy-OPLS-2005>
-230.405609130859

> <b_mmod_Minimization_Converged-OPLS-2005>
0

> <r_mmod_RMS_Derivative-OPLS-2005>
4.96092462539673

$$$$
51
                    3D
 Structure written by MMmdl.
158166  0  0  1  0            999 V2000
  -30.6452  -14.5778   20.5499 C   0  0  0  0  0  0
  -30.4327  -12.3682   19.4338 C   0  0  0  0  0  0
  -29.4975  -12.5005   18.2108 C   0  0  0  0  0  0
  -28.0189  -12.3467   18.6252 C   0  0  0  0  0  0
  -27.6504  -13.2117   19.8602 C   0  0  2  0  0  0
  -28.6950  -13.0422   20.9846 C   0  0  0  0  0  0
  -25.2516  -13.8166   20.5630 C   0  0  0  0  0  0
  -24.1792  -13.0419   20.9140 C   0  0  0  0  0  0
  -24.6363  -11.6892   20.8720 C   0  0  0  0  0  0
  -23.9034  -10.4267   21.0389 C   0  0  0  0  0  0
  -24.3601   -9.4185   21.9168 C   0  0  0  0  0  0
  -23.6261   -8.2232   22.0777 C   0  0  0  0  0  0
  -22.4254   -8.0251   21.3551 C   0  0  0  0  0  0
  -21.9876   -9.0220   20.4663 C   0  0  0  0  0  0
  -22.7208  -10.2096   20.3043 C   0  0  0  0  0  0
  -21.6855   -6.0694   22.5256 C   0  0  0  0  0  0
  -21.4017   -6.5610   23.8181 C   0  0  0  0  0  0
  -21.3658   -5.6774   24.9149 C   0  0  0  0  0  0
  -21.6061   -4.3037   24.7218 C   0  0  0  0  0  0
  -21.8815   -3.8112   23.4338 C   0  0  0  0  0  0
  -21.9189   -4.6918   22.3388 C   0  0  0  0  0  0
  -22.7809  -13.5191   21.1806 C   0  0  0  0  0  0
  -22.1650   -4.2087   21.0972 F   0  0  0  0  0  0
  -21.5638   -3.4542   25.7742 F   0  0  0  0  0  0
  -30.0125  -13.3760   20.4232 N   0  0  0  0  0  0
  -26.2953  -12.9352   20.3288 N   0  0  0  0  0  0
  -25.9301  -11.6494   20.5755 N   0  0  0  0  0  0
  -22.0479  -12.8198   22.0398 N   0  0  0  0  0  0
  -25.4181  -15.1891   20.3980 N   0  0  0  0  0  0
  -31.8187  -14.7393   20.1983 O   0  0  0  0  0  0
  -21.6634   -6.8844   21.4223 O   0  0  0  0  0  0
  -22.3463  -14.5473   20.6632 O   0  0  0  0  0  0
  -24.6221  -31.8612   23.2027 C   0  0  0  0  0  0
  -25.9057  -32.4828   23.8341 C   0  0  1  0  0  0
  -27.2348  -27.3432   20.1012 C   0  0  0  0  0  0
  -25.5856  -33.8616   24.2267 N   0  0  0  0  0  0
  -23.4191  -30.4833   21.5460 C   0  0  2  0  0  0
  -24.8622  -28.9395   20.1100 C   0  0  0  0  0  0
  -22.7489  -29.4602   22.4945 C   0  0  0  0  0  0
  -18.0287  -28.1432   22.8541 C   0  0  0  0  0  0
  -24.1474  -36.7266   23.2660 C   0  0  0  0  0  0
  -25.9566  -30.7992   21.3654 C   0  0  0  0  0  0
  -26.0290  -29.4263   20.7097 C   0  0  0  0  0  0
  -27.2122  -28.6362   20.6970 C   0  0  0  0  0  0
  -26.0337  -26.8885   19.5030 C   0  0  0  0  0  0
  -24.8650  -27.6743   19.5011 C   0  0  0  0  0  0
  -23.6310  -29.8220   20.1592 C   0  0  0  0  0  0
  -25.4121  -36.3112   24.0354 C   0  0  1  0  0  0
  -20.5907  -28.3664   23.1339 C   0  0  2  0  0  0
  -20.6759  -26.9393   22.5447 C   0  0  0  0  0  0
  -19.5723  -26.6419   21.5255 C   0  0  0  0  0  0
  -18.1904  -26.8001   22.1670 C   0  0  0  0  0  0
  -19.1561  -28.8880   23.2938 C   0  0  0  0  0  0
  -18.9478  -30.1487   23.8957 C   0  0  0  0  0  0
  -17.6473  -30.6634   24.0596 C   0  0  0  0  0  0
  -25.9044  -34.9484   23.5119 C   0  0  0  0  0  0
  -16.5354  -29.9145   23.6347 C   0  0  0  0  0  0
  -16.7281  -28.6563   23.0380 C   0  0  0  0  0  0
  -26.4458  -31.6655   25.0700 C   0  0  0  0  0  0
  -25.3723  -31.3763   26.1449 C   0  0  0  0  0  0
  -27.0258  -30.3120   24.6056 C   0  0  0  0  0  0
  -27.6031  -32.4382   25.7454 C   0  0  0  0  0  0
  -27.5578  -37.1796   24.8493 C   0  0  0  0  0  0
  -21.4206  -29.3025   22.3741 N   0  0  0  0  0  0
  -26.4295  -37.3812   23.9429 N   0  0  0  0  0  0
  -24.6847  -31.0631   22.0958 N   0  0  0  0  0  0
  -23.4225  -28.8115   23.2974 O   0  0  0  0  0  0
  -28.3975  -26.5651   20.1569 O   0  0  0  0  0  0
  -26.5644  -34.8929   22.4709 O   0  0  0  0  0  0
  -23.5371  -32.1347   23.7387 O   0  0  0  0  0  0
  -29.8444  -19.3224   21.0472 C   0  0  0  0  0  0
  -30.9820  -19.2249   21.8400 C   0  0  0  0  0  0
  -30.1569  -17.0038   21.0936 C   0  0  0  0  0  0
  -29.4704  -23.2071   20.9862 C   0  0  0  0  0  0
  -29.0907  -20.5805   19.0024 C   0  0  0  0  0  0
  -29.9300  -25.3343   18.7927 C   0  0  0  0  0  0
  -28.2832  -23.9060   20.2365 C   0  0  0  0  0  0
  -29.1015  -20.5979   20.5444 C   0  0  2  0  0  0
  -28.5426  -25.2809   19.4573 C   0  0  2  0  0  0
  -29.3619  -18.0256   20.7038 N   0  0  0  0  0  0
  -31.7306  -20.2287   22.4601 N   0  0  0  0  0  0
  -29.8269  -15.6274   20.8354 N   0  0  0  0  0  0
  -29.6958  -21.8612   21.0596 N   0  0  0  0  0  0
  -30.2566  -23.9332   21.5929 O   0  0  0  0  0  0
  -31.5306  -17.5640   22.0320 S   0  0  0  0  0  0
  -31.4725  -12.4937   19.1277 H   0  0  0  0  0  0
  -30.3640  -11.3659   19.8625 H   0  0  0  0  0  0
  -29.7494  -11.7493   17.4604 H   0  0  0  0  0  0
  -29.6473  -13.4706   17.7316 H   0  0  0  0  0  0
  -27.8474  -11.2962   18.8507 H   0  0  0  0  0  0
  -27.3643  -12.5884   17.7873 H   0  0  0  0  0  0
  -27.6726  -14.2493   19.5252 H   0  0  0  0  0  0
  -28.6992  -12.0154   21.3522 H   0  0  0  0  0  0
  -28.4502  -13.6677   21.8445 H   0  0  0  0  0  0
  -25.2766   -9.5645   22.4720 H   0  0  0  0  0  0
  -23.9958   -7.4635   22.7530 H   0  0  0  0  0  0
  -21.0792   -8.8719   19.8993 H   0  0  0  0  0  0
  -22.3658  -10.9610   19.6127 H   0  0  0  0  0  0
  -21.2019   -7.6122   23.9644 H   0  0  0  0  0  0
  -21.1496   -6.0532   25.9045 H   0  0  0  0  0  0
  -22.0611   -2.7571   23.2858 H   0  0  0  0  0  0
  -22.4124  -11.9868   22.4781 H   0  0  0  0  0  0
  -21.1093  -13.1230   22.2642 H   0  0  0  0  0  0
  -24.6453  -15.8389   20.4949 H   0  0  0  0  0  0
  -26.2543  -15.6298   20.0393 H   0  0  0  0  0  0
  -26.7124  -32.5513   23.1079 H   0  0  0  0  0  0
  -24.9942  -33.9744   25.0369 H   0  0  0  0  0  0
  -22.7095  -31.3037   21.4070 H   0  0  0  0  0  0
  -23.3743  -35.9583   23.3377 H   0  0  0  0  0  0
  -24.3520  -36.8819   22.2050 H   0  0  0  0  0  0
  -23.7174  -37.6480   23.6637 H   0  0  0  0  0  0
  -26.0800  -31.5575   20.5932 H   0  0  0  0  0  0
  -26.8411  -30.8544   21.9886 H   0  0  0  0  0  0
  -28.1128  -29.0063   21.1645 H   0  0  0  0  0  0
  -25.9605  -25.9083   19.0572 H   0  0  0  0  0  0
  -23.9646  -27.2956   19.0392 H   0  0  0  0  0  0
  -23.7617  -30.5995   19.4050 H   0  0  0  0  0  0
  -22.7484  -29.2632   19.8418 H   0  0  0  0  0  0
  -25.1287  -36.1969   25.0845 H   0  0  0  0  0  0
  -21.0031  -28.3219   24.1451 H   0  0  0  0  0  0
  -20.5686  -26.2235   23.3626 H   0  0  0  0  0  0
  -21.6610  -26.7422   22.1214 H   0  0  0  0  0  0
  -19.6827  -25.6350   21.1260 H   0  0  0  0  0  0
  -19.6688  -27.3264   20.6828 H   0  0  0  0  0  0
  -17.4171  -26.6810   21.4059 H   0  0  0  0  0  0
  -18.0249  -26.0166   22.9082 H   0  0  0  0  0  0
  -19.7931  -30.7322   24.2354 H   0  0  0  0  0  0
  -17.5005  -31.6332   24.5186 H   0  0  0  0  0  0
  -15.5357  -30.3056   23.7657 H   0  0  0  0  0  0
  -15.8679  -28.0889   22.7062 H   0  0  0  0  0  0
  -24.5904  -30.7095   25.7808 H   0  0  0  0  0  0
  -24.8871  -32.2891   26.4931 H   0  0  0  0  0  0
  -25.8077  -30.8944   27.0209 H   0  0  0  0  0  0
  -26.2742  -29.6950   24.1123 H   0  0  0  0  0  0
  -27.4050  -29.7308   25.4465 H   0  0  0  0  0  0
  -27.8594  -30.4457   23.9164 H   0  0  0  0  0  0
  -27.2648  -33.3686   26.2027 H   0  0  0  0  0  0
  -28.3836  -32.6943   25.0284 H   0  0  0  0  0  0
  -28.0716  -31.8522   26.5364 H   0  0  0  0  0  0
  -28.2668  -38.0046   24.7522 H   0  0  0  0  0  0
  -28.1000  -36.2560   24.6362 H   0  0  0  0  0  0
  -27.2273  -37.1511   25.8901 H   0  0  0  0  0  0
  -20.9370  -29.8792   21.7028 H   0  0  0  0  0  0
  -26.0189  -38.2891   24.1453 H   0  0  0  0  0  0
  -28.6061  -19.6749   18.6342 H   0  0  0  0  0  0
  -30.1013  -20.5886   18.5971 H   0  0  0  0  0  0
  -28.5520  -21.4154   18.5644 H   0  0  0  0  0  0
  -30.0014  -26.1566   18.0827 H   0  0  0  0  0  0
  -30.1543  -24.4118   18.2508 H   0  0  0  0  0  0
  -30.7132  -25.4906   19.5350 H   0  0  0  0  0  0
  -27.4755  -24.0436   20.9528 H   0  0  0  0  0  0
  -27.8795  -23.1962   19.5191 H   0  0  0  0  0  0
  -28.0713  -20.5714   20.9034 H   0  0  0  0  0  0
  -27.8733  -25.2725   18.5989 H   0  0  0  0  0  0
  -32.4258  -19.8817   23.1165 H   0  0  0  0  0  0
  -32.1877  -20.9238   21.8759 H   0  0  0  0  0  0
  -28.8459  -15.4041   20.8586 H   0  0  0  0  0  0
  -30.4701  -21.6294   21.6776 H   0  0  0  0  0  0
  1 25  1  0  0  0
  1 30  2  0  0  0
  1 82  1  0  0  0
  2  3  1  0  0  0
  2 25  1  0  0  0
  2 86  1  0  0  0
  2 87  1  0  0  0
  3  4  1  0  0  0
  3 88  1  0  0  0
  3 89  1  0  0  0
  4  5  1  0  0  0
  4 90  1  0  0  0
  4 91  1  0  0  0
  5  6  1  0  0  0
  5 26  1  0  0  0
  5 92  1  0  0  0
  6 25  1  0  0  0
  6 93  1  0  0  0
  6 94  1  0  0  0
  7  8  2  0  0  0
  7 26  1  0  0  0
  7 29  1  0  0  0
  8  9  1  0  0  0
  8 22  1  0  0  0
  9 10  1  0  0  0
  9 27  2  0  0  0
 10 11  2  0  0  0
 10 15  1  0  0  0
 11 12  1  0  0  0
 11 95  1  0  0  0
 12 13  2  0  0  0
 12 96  1  0  0  0
 13 14  1  0  0  0
 13 31  1  0  0  0
 14 15  2  0  0  0
 14 97  1  0  0  0
 15 98  1  0  0  0
 16 17  2  0  0  0
 16 21  1  0  0  0
 16 31  1  0  0  0
 17 18  1  0  0  0
 17 99  1  0  0  0
 18 19  2  0  0  0
 18100  1  0  0  0
 19 20  1  0  0  0
 19 24  1  0  0  0
 20 21  2  0  0  0
 20101  1  0  0  0
 21 23  1  0  0  0
 22 28  1  0  0  0
 22 32  2  0  0  0
 26 27  1  0  0  0
 28102  1  0  0  0
 28103  1  0  0  0
 29104  1  0  0  0
 29105  1  0  0  0
 33 34  1  0  0  0
 33 66  1  0  0  0
 33 70  2  0  0  0
 34 36  1  0  0  0
 34 59  1  0  0  0
 34106  1  0  0  0
 35 44  2  0  0  0
 35 45  1  0  0  0
 35 68  1  0  0  0
 36 56  1  0  0  0
 36107  1  0  0  0
 37 39  1  0  0  0
 37 47  1  0  0  0
 37 66  1  0  0  0
 37108  1  0  0  0
 38 43  2  0  0  0
 38 46  1  0  0  0
 38 47  1  0  0  0
 39 64  1  0  0  0
 39 67  2  0  0  0
 40 52  1  0  0  0
 40 53  2  0  0  0
 40 58  1  0  0  0
 41109  1  0  0  0
 41110  1  0  0  0
 41111  1  0  0  0
 41 48  1  0  0  0
 42 43  1  0  0  0
 42 66  1  0  0  0
 42112  1  0  0  0
 42113  1  0  0  0
 43 44  1  0  0  0
 44114  1  0  0  0
 45 46  2  0  0  0
 45115  1  0  0  0
 46116  1  0  0  0
 47117  1  0  0  0
 47118  1  0  0  0
 48 56  1  0  0  0
 48 65  1  0  0  0
 48119  1  0  0  0
 49 50  1  0  0  0
 49 53  1  0  0  0
 49 64  1  0  0  0
 49120  1  0  0  0
 50 51  1  0  0  0
 50121  1  0  0  0
 50122  1  0  0  0
 51 52  1  0  0  0
 51123  1  0  0  0
 51124  1  0  0  0
 52125  1  0  0  0
 52126  1  0  0  0
 53 54  1  0  0  0
 54 55  2  0  0  0
 54127  1  0  0  0
 55 57  1  0  0  0
 55128  1  0  0  0
 56 69  2  0  0  0
 57 58  2  0  0  0
 57129  1  0  0  0
 58130  1  0  0  0
 59 60  1  0  0  0
 59 61  1  0  0  0
 59 62  1  0  0  0
 60131  1  0  0  0
 60132  1  0  0  0
 60133  1  0  0  0
 61134  1  0  0  0
 61135  1  0  0  0
 61136  1  0  0  0
 62137  1  0  0  0
 62138  1  0  0  0
 62139  1  0  0  0
 63 65  1  0  0  0
 63140  1  0  0  0
 63141  1  0  0  0
 63142  1  0  0  0
 64143  1  0  0  0
 65144  1  0  0  0
 68 79  1  0  0  0
 71 72  2  0  0  0
 71 78  1  0  0  0
 71 80  1  0  0  0
 72 81  1  0  0  0
 72 85  1  0  0  0
 73 80  2  0  0  0
 73 82  1  0  0  0
 73 85  1  0  0  0
 74 77  1  0  0  0
 74 83  1  0  0  0
 74 84  2  0  0  0
 75145  1  0  0  0
 75146  1  0  0  0
 75147  1  0  0  0
 75 78  1  0  0  0
 76148  1  0  0  0
 76149  1  0  0  0
 76150  1  0  0  0
 76 79  1  0  0  0
 77 79  1  0  0  0
 77151  1  0  0  0
 77152  1  0  0  0
 78 83  1  0  0  0
 78153  1  0  0  0
 79154  1  0  0  0
 81155  1  0  0  0
 81156  1  0  0  0
 82157  1  0  0  0
 83158  1  0  0  0
M  ISO  4   1 100  68 101  79 101  82 100
M  END
> <chiral flag>
0

> <version>
0

> <s_m_source_file>
/data/baiqing/PycharmProjects/Reinvent-master-3.2/result/LINK_invent/BTK/process_docking_weight1_custom_product_contain_oxygen_bond_distance_aromatic_linkinvent_7_9_3/rearranged_h_0187.sdf

> <i_m_source_file_index>
50

> <r_mmod_Potential_Energy-OPLS-2005>
-41.0569953918457

> <r_mmod_Stretch_Energy-OPLS-2005>
65.5448837280273

> <r_mmod_Bend_Energy-OPLS-2005>
165.973129272461

> <r_mmod_Torsional_Energy-OPLS-2005>
206.417251586914

> <r_mmod_Improper_Torsional_Energy-OPLS-2005>
11.5485668182373

> <r_mmod_Van_der_Waal_Energy-OPLS-2005>
124.789253234863

> <r_mmod_Electrostatic_Energy-OPLS-2005>
-410.520202636719

> <r_mmod_Solvation_Energy-OPLS-2005>
-239.578552246094

> <b_mmod_Minimization_Converged-OPLS-2005>
0

> <r_mmod_RMS_Derivative-OPLS-2005>
4.74483346939087

$$$$
52
                    3D
 Structure written by MMmdl.
160168  0  0  1  0            999 V2000
  -30.4860  -15.0047   20.4018 C   0  0  0  0  0  0
  -30.4471  -12.6184   19.5076 C   0  0  0  0  0  0
  -29.5275  -12.5378   18.2652 C   0  0  0  0  0  0
  -28.0629  -12.3088   18.6827 C   0  0  0  0  0  0
  -27.6307  -13.2445   19.8409 C   0  0  2  0  0  0
  -28.6696  -13.2744   20.9812 C   0  0  0  0  0  0
  -25.2466  -13.8194   20.5723 C   0  0  0  0  0  0
  -24.1776  -13.0431   20.9245 C   0  0  0  0  0  0
  -24.6385  -11.6923   20.8753 C   0  0  0  0  0  0
  -23.9078  -10.4295   21.0405 C   0  0  0  0  0  0
  -24.3623   -9.4214   21.9183 C   0  0  0  0  0  0
  -23.6299   -8.2249   22.0753 C   0  0  0  0  0  0
  -22.4289   -8.0275   21.3544 C   0  0  0  0  0  0
  -21.9927   -9.0253   20.4652 C   0  0  0  0  0  0
  -22.7248  -10.2135   20.3060 C   0  0  0  0  0  0
  -21.6863   -6.0747   22.5288 C   0  0  0  0  0  0
  -21.4009   -6.5648   23.8220 C   0  0  0  0  0  0
  -21.3660   -5.6795   24.9176 C   0  0  0  0  0  0
  -21.6048   -4.3057   24.7228 C   0  0  0  0  0  0
  -21.8810   -3.8161   23.4342 C   0  0  0  0  0  0
  -21.9193   -4.6980   22.3406 C   0  0  0  0  0  0
  -22.7802  -13.5206   21.1911 C   0  0  0  0  0  0
  -22.1666   -4.2175   21.0983 F   0  0  0  0  0  0
  -21.5628   -3.4534   25.7735 F   0  0  0  0  0  0
  -29.9431  -13.7136   20.3911 N   0  0  0  0  0  0
  -26.2886  -12.9422   20.3233 N   0  0  0  0  0  0
  -25.9317  -11.6563   20.5725 N   0  0  0  0  0  0
  -22.0450  -12.8196   22.0452 N   0  0  0  0  0  0
  -25.4124  -15.1922   20.4185 N   0  0  0  0  0  0
  -31.6793  -15.1089   20.0943 O   0  0  0  0  0  0
  -21.6634   -6.8889   21.4252 O   0  0  0  0  0  0
  -22.3502  -14.5524   20.6768 O   0  0  0  0  0  0
  -24.6450  -31.8423   23.1849 C   0  0  0  0  0  0
  -25.9202  -32.4692   23.8256 C   0  0  1  0  0  0
  -27.2220  -27.1060   20.1657 C   0  0  0  0  0  0
  -25.5959  -33.8498   24.2188 N   0  0  0  0  0  0
  -23.4519  -30.4579   21.5319 C   0  0  2  0  0  0
  -24.9027  -28.8675   20.1236 C   0  0  0  0  0  0
  -22.7571  -29.4534   22.4866 C   0  0  0  0  0  0
  -18.0305  -28.1394   22.8482 C   0  0  0  0  0  0
  -24.1487  -36.7242   23.2643 C   0  0  0  0  0  0
  -26.0092  -30.7045   21.3887 C   0  0  0  0  0  0
  -26.0817  -29.3083   20.7393 C   0  0  0  0  0  0
  -27.2460  -28.4464   20.7351 C   0  0  0  0  0  0
  -26.0147  -26.7630   19.5267 C   0  0  0  0  0  0
  -24.8815  -27.6080   19.5040 C   0  0  0  0  0  0
  -23.6825  -29.7767   20.1572 C   0  0  0  0  0  0
  -25.4126  -36.3042   24.0320 C   0  0  1  0  0  0
  -20.5918  -28.3725   23.1234 C   0  0  2  0  0  0
  -20.6787  -26.9429   22.5402 C   0  0  0  0  0  0
  -19.5762  -26.6384   21.5211 C   0  0  0  0  0  0
  -18.1947  -26.7939   22.1623 C   0  0  0  0  0  0
  -19.1562  -28.8878   23.2858 C   0  0  0  0  0  0
  -18.9472  -30.1469   23.8896 C   0  0  0  0  0  0
  -17.6470  -30.6601   24.0554 C   0  0  0  0  0  0
  -25.9071  -34.9411   23.5069 C   0  0  0  0  0  0
  -16.5362  -29.9084   23.6333 C   0  0  0  0  0  0
  -16.7289  -28.6491   23.0377 C   0  0  0  0  0  0
  -26.4534  -31.6569   25.0707 C   0  0  0  0  0  0
  -25.3692  -31.3760   26.1376 C   0  0  0  0  0  0
  -27.0400  -30.2965   24.6290 C   0  0  0  0  0  0
  -27.6070  -32.4330   25.7488 C   0  0  0  0  0  0
  -27.5585  -37.1786   24.8477 C   0  0  0  0  0  0
  -21.4262  -29.3051   22.3603 N   0  0  0  0  0  0
  -26.4302  -37.3746   23.9410 N   0  0  0  0  0  0
  -24.7226  -31.0240   22.0904 N   0  0  0  0  0  0
  -23.4186  -28.8095   23.3046 O   0  0  0  0  0  0
  -28.2852  -26.1279   20.1193 O   0  0  0  0  0  0
  -26.5655  -34.8913   22.4640 O   0  0  0  0  0  0
  -23.5563  -32.1309   23.7053 O   0  0  0  0  0  0
  -28.7376  -18.1835   19.3726 C   0  0  0  0  0  0
  -29.5677  -17.5579   20.3141 C   0  0  0  0  0  0
  -29.2722  -20.3405   20.3144 C   0  0  0  0  0  0
  -28.4482  -23.2347   19.9772 C   0  0  0  0  0  0
  -27.8928  -17.4445   18.3789 C   0  0  0  0  0  0
  -30.9616  -21.6386   17.7790 C   0  0  0  0  0  0
  -32.7321  -23.1829   18.6715 C   0  0  0  0  0  0
  -28.1908  -24.6966   20.7543 C   0  0  0  0  0  0
  -30.8895  -22.4058   20.2493 C   0  0  0  0  0  0
  -29.4195  -21.9934   20.5525 C   0  0  2  0  0  0
  -31.2598  -22.7635   18.7814 C   0  0  0  0  0  0
  -28.6167  -19.6312   19.3639 N   0  0  0  0  0  0
  -29.6366  -16.1364   20.6290 N   0  0  0  0  0  0
  -27.8782  -23.0713   18.8928 O   0  0  0  0  0  0
  -30.1757  -19.0061   21.2558 S   0  0  0  0  0  0
  -31.4782  -12.7926   19.1958 H   0  0  0  0  0  0
  -30.4549  -11.6643   20.0374 H   0  0  0  0  0  0
  -29.8570  -11.7391   17.5999 H   0  0  0  0  0  0
  -29.6038  -13.4631   17.6923 H   0  0  0  0  0  0
  -27.9742  -11.2687   18.9996 H   0  0  0  0  0  0
  -27.3985  -12.4225   17.8255 H   0  0  0  0  0  0
  -27.5925  -14.2455   19.4121 H   0  0  0  0  0  0
  -28.7681  -12.2910   21.4447 H   0  0  0  0  0  0
  -28.3535  -13.9556   21.7729 H   0  0  0  0  0  0
  -25.2764   -9.5688   22.4753 H   0  0  0  0  0  0
  -24.0024   -7.4631   22.7449 H   0  0  0  0  0  0
  -21.0874   -8.8765   19.8941 H   0  0  0  0  0  0
  -22.3704  -10.9677   19.6168 H   0  0  0  0  0  0
  -21.1988   -7.6155   23.9741 H   0  0  0  0  0  0
  -21.1500   -6.0516   25.9086 H   0  0  0  0  0  0
  -22.0590   -2.7629   23.2831 H   0  0  0  0  0  0
  -22.4092  -11.9855   22.4823 H   0  0  0  0  0  0
  -21.1058  -13.1205   22.2657 H   0  0  0  0  0  0
  -24.6346  -15.8344   20.5296 H   0  0  0  0  0  0
  -26.2482  -15.6417   20.0732 H   0  0  0  0  0  0
  -26.7259  -32.5306   23.0975 H   0  0  0  0  0  0
  -25.0125  -33.9605   25.0354 H   0  0  0  0  0  0
  -22.7558  -31.2847   21.3698 H   0  0  0  0  0  0
  -23.3774  -35.9552   23.3307 H   0  0  0  0  0  0
  -24.3576  -36.8862   22.2062 H   0  0  0  0  0  0
  -23.7208  -37.6423   23.6666 H   0  0  0  0  0  0
  -26.1663  -31.4533   20.6126 H   0  0  0  0  0  0
  -26.8775  -30.7627   22.0329 H   0  0  0  0  0  0
  -28.1526  -28.7877   21.2145 H   0  0  0  0  0  0
  -25.9428  -25.7977   19.0472 H   0  0  0  0  0  0
  -23.9808  -27.2613   19.0169 H   0  0  0  0  0  0
  -23.8284  -30.5448   19.3974 H   0  0  0  0  0  0
  -22.7965  -29.2214   19.8445 H   0  0  0  0  0  0
  -25.1313  -36.1886   25.0815 H   0  0  0  0  0  0
  -21.0013  -28.3323   24.1356 H   0  0  0  0  0  0
  -20.5680  -26.2346   23.3622 H   0  0  0  0  0  0
  -21.6653  -26.7441   22.1210 H   0  0  0  0  0  0
  -19.6928  -25.6284   21.1271 H   0  0  0  0  0  0
  -19.6709  -27.3166   20.6721 H   0  0  0  0  0  0
  -17.4219  -26.6694   21.4025 H   0  0  0  0  0  0
  -18.0348  -26.0076   22.9015 H   0  0  0  0  0  0
  -19.7943  -30.7285   24.2280 H   0  0  0  0  0  0
  -17.5018  -31.6286   24.5141 H   0  0  0  0  0  0
  -15.5358  -30.2986   23.7657 H   0  0  0  0  0  0
  -15.8689  -28.0793   22.7125 H   0  0  0  0  0  0
  -24.5896  -30.7091   25.7676 H   0  0  0  0  0  0
  -24.8849  -32.2943   26.4715 H   0  0  0  0  0  0
  -25.7954  -30.8986   27.0206 H   0  0  0  0  0  0
  -26.3024  -29.6683   24.1280 H   0  0  0  0  0  0
  -27.3999  -29.7275   25.4874 H   0  0  0  0  0  0
  -27.8943  -30.4213   23.9623 H   0  0  0  0  0  0
  -27.2684  -33.3664   26.1992 H   0  0  0  0  0  0
  -28.3915  -32.6828   25.0332 H   0  0  0  0  0  0
  -28.0687  -31.8491   26.5451 H   0  0  0  0  0  0
  -28.2611  -38.0076   24.7517 H   0  0  0  0  0  0
  -28.1078  -36.2610   24.6325 H   0  0  0  0  0  0
  -27.2307  -37.1458   25.8880 H   0  0  0  0  0  0
  -20.9474  -29.8746   21.6765 H   0  0  0  0  0  0
  -26.0183  -38.2824   24.1386 H   0  0  0  0  0  0
  -26.8494  -17.4193   18.6926 H   0  0  0  0  0  0
  -28.2179  -16.4123   18.2571 H   0  0  0  0  0  0
  -27.9318  -17.9103   17.3947 H   0  0  0  0  0  0
  -31.2747  -21.9192   16.7733 H   0  0  0  0  0  0
  -29.8935  -21.4309   17.7225 H   0  0  0  0  0  0
  -31.4782  -20.7146   18.0431 H   0  0  0  0  0  0
  -32.9668  -23.5087   17.6570 H   0  0  0  0  0  0
  -33.4081  -22.3631   18.9160 H   0  0  0  0  0  0
  -32.9598  -24.0171   19.3365 H   0  0  0  0  0  0
  -27.1998  -24.6194   21.2037 H   0  0  0  0  0  0
  -28.8741  -24.7055   21.6026 H   0  0  0  0  0  0
  -31.5658  -21.6394   20.6292 H   0  0  0  0  0  0
  -31.1045  -23.2877   20.8546 H   0  0  0  0  0  0
  -29.3047  -22.0928   21.6322 H   0  0  0  0  0  0
  -30.6802  -23.6346   18.4761 H   0  0  0  0  0  0
  -28.7356  -15.7915   20.9218 H   0  0  0  0  0  0
  1 25  1  0  0  0
  1 30  2  0  0  0
  1 83  1  0  0  0
  2  3  1  0  0  0
  2 25  1  0  0  0
  2 86  1  0  0  0
  2 87  1  0  0  0
  3  4  1  0  0  0
  3 88  1  0  0  0
  3 89  1  0  0  0
  4  5  1  0  0  0
  4 90  1  0  0  0
  4 91  1  0  0  0
  5  6  1  0  0  0
  5 26  1  0  0  0
  5 92  1  0  0  0
  6 25  1  0  0  0
  6 93  1  0  0  0
  6 94  1  0  0  0
  7  8  2  0  0  0
  7 26  1  0  0  0
  7 29  1  0  0  0
  8  9  1  0  0  0
  8 22  1  0  0  0
  9 10  1  0  0  0
  9 27  2  0  0  0
 10 11  2  0  0  0
 10 15  1  0  0  0
 11 12  1  0  0  0
 11 95  1  0  0  0
 12 13  2  0  0  0
 12 96  1  0  0  0
 13 14  1  0  0  0
 13 31  1  0  0  0
 14 15  2  0  0  0
 14 97  1  0  0  0
 15 98  1  0  0  0
 16 17  2  0  0  0
 16 21  1  0  0  0
 16 31  1  0  0  0
 17 18  1  0  0  0
 17 99  1  0  0  0
 18 19  2  0  0  0
 18100  1  0  0  0
 19 20  1  0  0  0
 19 24  1  0  0  0
 20 21  2  0  0  0
 20101  1  0  0  0
 21 23  1  0  0  0
 22 28  1  0  0  0
 22 32  2  0  0  0
 26 27  1  0  0  0
 28102  1  0  0  0
 28103  1  0  0  0
 29104  1  0  0  0
 29105  1  0  0  0
 33 34  1  0  0  0
 33 66  1  0  0  0
 33 70  2  0  0  0
 34 36  1  0  0  0
 34 59  1  0  0  0
 34106  1  0  0  0
 35 44  2  0  0  0
 35 45  1  0  0  0
 35 68  1  0  0  0
 36 56  1  0  0  0
 36107  1  0  0  0
 37 39  1  0  0  0
 37 47  1  0  0  0
 37 66  1  0  0  0
 37108  1  0  0  0
 38 43  2  0  0  0
 38 46  1  0  0  0
 38 47  1  0  0  0
 39 64  1  0  0  0
 39 67  2  0  0  0
 40 52  1  0  0  0
 40 53  2  0  0  0
 40 58  1  0  0  0
 41109  1  0  0  0
 41110  1  0  0  0
 41111  1  0  0  0
 41 48  1  0  0  0
 42 43  1  0  0  0
 42 66  1  0  0  0
 42112  1  0  0  0
 42113  1  0  0  0
 43 44  1  0  0  0
 44114  1  0  0  0
 45 46  2  0  0  0
 45115  1  0  0  0
 46116  1  0  0  0
 47117  1  0  0  0
 47118  1  0  0  0
 48 56  1  0  0  0
 48 65  1  0  0  0
 48119  1  0  0  0
 49 50  1  0  0  0
 49 53  1  0  0  0
 49 64  1  0  0  0
 49120  1  0  0  0
 50 51  1  0  0  0
 50121  1  0  0  0
 50122  1  0  0  0
 51 52  1  0  0  0
 51123  1  0  0  0
 51124  1  0  0  0
 52125  1  0  0  0
 52126  1  0  0  0
 53 54  1  0  0  0
 54 55  2  0  0  0
 54127  1  0  0  0
 55 57  1  0  0  0
 55128  1  0  0  0
 56 69  2  0  0  0
 57 58  2  0  0  0
 57129  1  0  0  0
 58130  1  0  0  0
 59 60  1  0  0  0
 59 61  1  0  0  0
 59 62  1  0  0  0
 60131  1  0  0  0
 60132  1  0  0  0
 60133  1  0  0  0
 61134  1  0  0  0
 61135  1  0  0  0
 61136  1  0  0  0
 62137  1  0  0  0
 62138  1  0  0  0
 62139  1  0  0  0
 63 65  1  0  0  0
 63140  1  0  0  0
 63141  1  0  0  0
 63142  1  0  0  0
 64143  1  0  0  0
 65144  1  0  0  0
 68 78  1  0  0  0
 71 72  2  0  0  0
 71 75  1  0  0  0
 71 82  1  0  0  0
 72 83  1  0  0  0
 72 85  1  0  0  0
 73 80  1  0  0  0
 73 82  2  0  0  0
 73 85  1  0  0  0
 74 78  1  0  0  0
 74 80  1  0  0  0
 74 84  2  0  0  0
 75145  1  0  0  0
 75146  1  0  0  0
 75147  1  0  0  0
 76148  1  0  0  0
 76149  1  0  0  0
 76150  1  0  0  0
 76 81  1  0  0  0
 77 81  1  0  0  0
 77151  1  0  0  0
 77152  1  0  0  0
 77153  1  0  0  0
 78154  1  0  0  0
 78155  1  0  0  0
 79 81  1  0  0  0
 79156  1  0  0  0
 79157  1  0  0  0
 79 80  1  0  0  0
 80158  1  0  0  0
 81159  1  0  0  0
 83160  1  0  0  0
M  ISO  4   1 100  68 101  78 101  83 100
M  END
> <chiral flag>
0

> <version>
0

> <s_m_source_file>
/data/baiqing/PycharmProjects/Reinvent-master-3.2/result/LINK_invent/BTK/process_docking_weight1_custom_product_contain_oxygen_bond_distance_aromatic_linkinvent_7_9_3/rearranged_h_0187.sdf

> <i_m_source_file_index>
51

> <r_mmod_Potential_Energy-OPLS-2005>
622.654479980469

> <r_mmod_Stretch_Energy-OPLS-2005>
282.54052734375

> <r_mmod_Bend_Energy-OPLS-2005>
335.139373779297

> <r_mmod_Torsional_Energy-OPLS-2005>
257.461151123047

> <r_mmod_Improper_Torsional_Energy-OPLS-2005>
5.9719033241272

> <r_mmod_Van_der_Waal_Energy-OPLS-2005>
94.9543685913086

> <r_mmod_Electrostatic_Energy-OPLS-2005>
-340.585540771484

> <r_mmod_Solvation_Energy-OPLS-2005>
-236.047668457031

> <b_mmod_Minimization_Converged-OPLS-2005>
0

> <r_mmod_RMS_Derivative-OPLS-2005>
2.41634726524353

$$$$
53
                    3D
 Structure written by MMmdl.
151159  0  0  1  0            999 V2000
  -30.6191  -14.7521   20.4515 C   0  0  0  0  0  0
  -30.4401  -12.4552   19.4959 C   0  0  0  0  0  0
  -29.5237  -12.5273   18.2512 C   0  0  0  0  0  0
  -28.0444  -12.3511   18.6448 C   0  0  0  0  0  0
  -27.6465  -13.2420   19.8517 C   0  0  2  0  0  0
  -28.6861  -13.1819   20.9888 C   0  0  0  0  0  0
  -25.2540  -13.8194   20.5702 C   0  0  0  0  0  0
  -24.1837  -13.0437   20.9219 C   0  0  0  0  0  0
  -24.6413  -11.6908   20.8716 C   0  0  0  0  0  0
  -23.9090  -10.4296   21.0379 C   0  0  0  0  0  0
  -24.3624   -9.4230   21.9184 C   0  0  0  0  0  0
  -23.6322   -8.2256   22.0721 C   0  0  0  0  0  0
  -22.4296   -8.0271   21.3527 C   0  0  0  0  0  0
  -21.9940   -9.0234   20.4633 C   0  0  0  0  0  0
  -22.7240  -10.2139   20.3053 C   0  0  0  0  0  0
  -21.6870   -6.0765   22.5289 C   0  0  0  0  0  0
  -21.4021   -6.5648   23.8232 C   0  0  0  0  0  0
  -21.3657   -5.6790   24.9179 C   0  0  0  0  0  0
  -21.6053   -4.3060   24.7228 C   0  0  0  0  0  0
  -21.8810   -3.8159   23.4343 C   0  0  0  0  0  0
  -21.9196   -4.6994   22.3402 C   0  0  0  0  0  0
  -22.7858  -13.5212   21.1882 C   0  0  0  0  0  0
  -22.1674   -4.2155   21.0986 F   0  0  0  0  0  0
  -21.5626   -3.4551   25.7739 F   0  0  0  0  0  0
  -30.0008  -13.5191   20.4274 N   0  0  0  0  0  0
  -26.2977  -12.9447   20.3273 N   0  0  0  0  0  0
  -25.9347  -11.6571   20.5722 N   0  0  0  0  0  0
  -22.0524  -12.8202   22.0461 N   0  0  0  0  0  0
  -25.4296  -15.1900   20.4135 N   0  0  0  0  0  0
  -31.8227  -14.8024   20.1906 O   0  0  0  0  0  0
  -21.6645   -6.8870   21.4224 O   0  0  0  0  0  0
  -22.3537  -14.5526   20.6740 O   0  0  0  0  0  0
  -24.6375  -31.8559   23.1985 C   0  0  0  0  0  0
  -25.9218  -32.4741   23.8324 C   0  0  1  0  0  0
  -27.2262  -27.2518   20.1629 C   0  0  0  0  0  0
  -25.6037  -33.8547   24.2277 N   0  0  0  0  0  0
  -23.4316  -30.4772   21.5434 C   0  0  2  0  0  0
  -24.8821  -28.9170   20.1113 C   0  0  0  0  0  0
  -22.7518  -29.4620   22.4928 C   0  0  0  0  0  0
  -18.0279  -28.1401   22.8481 C   0  0  0  0  0  0
  -24.1469  -36.7201   23.2639 C   0  0  0  0  0  0
  -25.9756  -30.7670   21.3801 C   0  0  0  0  0  0
  -26.0494  -29.3850   20.7283 C   0  0  0  0  0  0
  -27.2235  -28.5646   20.7431 C   0  0  0  0  0  0
  -26.0460  -26.8530   19.5040 C   0  0  0  0  0  0
  -24.8869  -27.6592   19.4848 C   0  0  0  0  0  0
  -23.6514  -29.8060   20.1610 C   0  0  0  0  0  0
  -25.4110  -36.3036   24.0340 C   0  0  1  0  0  0
  -20.5905  -28.3720   23.1256 C   0  0  2  0  0  0
  -20.6783  -26.9432   22.5403 C   0  0  0  0  0  0
  -19.5758  -26.6386   21.5219 C   0  0  0  0  0  0
  -18.1932  -26.7945   22.1617 C   0  0  0  0  0  0
  -19.1551  -28.8879   23.2851 C   0  0  0  0  0  0
  -18.9471  -30.1480   23.8873 C   0  0  0  0  0  0
  -17.6474  -30.6607   24.0569 C   0  0  0  0  0  0
  -25.9070  -34.9438   23.5075 C   0  0  0  0  0  0
  -16.5360  -29.9107   23.6338 C   0  0  0  0  0  0
  -16.7266  -28.6520   23.0355 C   0  0  0  0  0  0
  -26.4575  -31.6560   25.0722 C   0  0  0  0  0  0
  -25.3777  -31.3764   26.1434 C   0  0  0  0  0  0
  -27.0413  -30.2952   24.6237 C   0  0  0  0  0  0
  -27.6101  -32.4317   25.7509 C   0  0  0  0  0  0
  -27.5547  -37.1753   24.8484 C   0  0  0  0  0  0
  -21.4218  -29.3047   22.3652 N   0  0  0  0  0  0
  -26.4259  -37.3758   23.9447 N   0  0  0  0  0  0
  -24.6997  -31.0523   22.0960 N   0  0  0  0  0  0
  -23.4200  -28.8205   23.3090 O   0  0  0  0  0  0
  -28.3254  -26.3594   20.1692 O   0  0  0  0  0  0
  -26.5584  -34.8933   22.4617 O   0  0  0  0  0  0
  -23.5525  -32.1415   23.7273 O   0  0  0  0  0  0
  -29.6995  -18.5261   20.5399 C   0  0  0  0  0  0
  -28.7121  -19.0033   19.6826 C   0  0  0  0  0  0
  -29.2420  -21.1117   20.5985 C   0  0  0  0  0  0
  -30.2961  -17.1247   20.7119 C   0  0  0  0  0  0
  -28.5296  -23.6488   20.2324 C   0  0  0  0  0  0
  -27.1323  -24.9696   21.9485 C   0  0  0  0  0  0
  -28.3318  -25.0734   20.9780 C   0  0  2  0  0  0
  -27.9226  -18.1625   18.7082 C   0  0  0  0  0  0
  -28.4891  -20.4251   19.7203 N   0  0  0  0  0  0
  -29.7766  -15.9206   20.5647 N   0  0  0  0  0  0
  -29.1273  -22.5715   20.8835 N   0  0  0  0  0  0
  -28.1300  -23.5499   19.0684 O   0  0  0  0  0  0
  -28.7140  -17.6101   17.7831 F   0  0  0  0  0  0
  -27.2647  -17.1785   19.3259 F   0  0  0  0  0  0
  -27.0119  -18.8901   18.0565 F   0  0  0  0  0  0
  -30.3300  -19.9404   21.4437 S   0  0  0  0  0  0
  -31.4829  -12.5662   19.1950 H   0  0  0  0  0  0
  -30.3734  -11.4801   19.9834 H   0  0  0  0  0  0
  -29.8092  -11.7626   17.5291 H   0  0  0  0  0  0
  -29.6505  -13.4930   17.7607 H   0  0  0  0  0  0
  -27.8848  -11.3007   18.8860 H   0  0  0  0  0  0
  -27.3948  -12.5622   17.7949 H   0  0  0  0  0  0
  -27.6445  -14.2685   19.4814 H   0  0  0  0  0  0
  -28.7123  -12.1903   21.4385 H   0  0  0  0  0  0
  -28.4150  -13.8765   21.7877 H   0  0  0  0  0  0
  -25.2760   -9.5707   22.4757 H   0  0  0  0  0  0
  -24.0034   -7.4640   22.7430 H   0  0  0  0  0  0
  -21.0866   -8.8720   19.8944 H   0  0  0  0  0  0
  -22.3664  -10.9649   19.6146 H   0  0  0  0  0  0
  -21.2007   -7.6156   23.9722 H   0  0  0  0  0  0
  -21.1500   -6.0535   25.9072 H   0  0  0  0  0  0
  -22.0596   -2.7620   23.2844 H   0  0  0  0  0  0
  -22.4141  -11.9831   22.4801 H   0  0  0  0  0  0
  -21.1102  -13.1130   22.2645 H   0  0  0  0  0  0
  -24.6700  -15.8479   20.5182 H   0  0  0  0  0  0
  -26.2992  -15.6202   20.1133 H   0  0  0  0  0  0
  -26.7305  -32.5385   23.1073 H   0  0  0  0  0  0
  -25.0395  -33.9691   25.0572 H   0  0  0  0  0  0
  -22.7293  -31.3009   21.3963 H   0  0  0  0  0  0
  -23.3754  -35.9494   23.3321 H   0  0  0  0  0  0
  -24.3545  -36.8786   22.2032 H   0  0  0  0  0  0
  -23.7174  -37.6404   23.6637 H   0  0  0  0  0  0
  -26.1202  -31.5242   20.6088 H   0  0  0  0  0  0
  -26.8518  -30.8117   22.0155 H   0  0  0  0  0  0
  -28.1154  -28.9249   21.2380 H   0  0  0  0  0  0
  -26.0154  -25.8873   19.0183 H   0  0  0  0  0  0
  -23.9980  -27.3009   18.9822 H   0  0  0  0  0  0
  -23.7738  -30.5841   19.4075 H   0  0  0  0  0  0
  -22.7668  -29.2431   19.8541 H   0  0  0  0  0  0
  -25.1262  -36.1855   25.0816 H   0  0  0  0  0  0
  -20.9954  -28.3301   24.1398 H   0  0  0  0  0  0
  -20.5714  -26.2327   23.3626 H   0  0  0  0  0  0
  -21.6650  -26.7492   22.1197 H   0  0  0  0  0  0
  -19.6944  -25.6292   21.1272 H   0  0  0  0  0  0
  -19.6704  -27.3174   20.6753 H   0  0  0  0  0  0
  -17.4212  -26.6700   21.3992 H   0  0  0  0  0  0
  -18.0310  -26.0076   22.9005 H   0  0  0  0  0  0
  -19.7952  -30.7294   24.2218 H   0  0  0  0  0  0
  -17.5043  -31.6275   24.5171 H   0  0  0  0  0  0
  -15.5369  -30.3018   23.7672 H   0  0  0  0  0  0
  -15.8667  -28.0845   22.7093 H   0  0  0  0  0  0
  -24.5995  -30.7046   25.7798 H   0  0  0  0  0  0
  -24.8937  -32.2941   26.4752 H   0  0  0  0  0  0
  -25.8090  -30.9045   27.0262 H   0  0  0  0  0  0
  -26.2977  -29.6669   24.1320 H   0  0  0  0  0  0
  -27.4105  -29.7264   25.4787 H   0  0  0  0  0  0
  -27.8860  -30.4168   23.9463 H   0  0  0  0  0  0
  -27.2706  -33.3657   26.1992 H   0  0  0  0  0  0
  -28.3979  -32.6807   25.0389 H   0  0  0  0  0  0
  -28.0702  -31.8506   26.5506 H   0  0  0  0  0  0
  -28.2588  -38.0027   24.7518 H   0  0  0  0  0  0
  -28.0994  -36.2554   24.6294 H   0  0  0  0  0  0
  -27.2267  -37.1396   25.8891 H   0  0  0  0  0  0
  -20.9464  -29.8689   21.6752 H   0  0  0  0  0  0
  -26.0107  -38.2806   24.1497 H   0  0  0  0  0  0
  -31.3534  -17.1861   20.9976 H   0  0  0  0  0  0
  -27.1737  -24.0506   22.5340 H   0  0  0  0  0  0
  -26.1775  -24.9535   21.4283 H   0  0  0  0  0  0
  -27.1198  -25.7952   22.6574 H   0  0  0  0  0  0
  -29.2185  -25.1787   21.5998 H   0  0  0  0  0  0
  -29.5579  -22.8292   21.7621 H   0  0  0  0  0  0
  1 25  1  0  0  0
  1 30  2  0  0  0
  1 80  1  0  0  0
  2  3  1  0  0  0
  2 25  1  0  0  0
  2 87  1  0  0  0
  2 88  1  0  0  0
  3  4  1  0  0  0
  3 89  1  0  0  0
  3 90  1  0  0  0
  4  5  1  0  0  0
  4 91  1  0  0  0
  4 92  1  0  0  0
  5  6  1  0  0  0
  5 26  1  0  0  0
  5 93  1  0  0  0
  6 25  1  0  0  0
  6 94  1  0  0  0
  6 95  1  0  0  0
  7  8  2  0  0  0
  7 26  1  0  0  0
  7 29  1  0  0  0
  8  9  1  0  0  0
  8 22  1  0  0  0
  9 10  1  0  0  0
  9 27  2  0  0  0
 10 11  2  0  0  0
 10 15  1  0  0  0
 11 12  1  0  0  0
 11 96  1  0  0  0
 12 13  2  0  0  0
 12 97  1  0  0  0
 13 14  1  0  0  0
 13 31  1  0  0  0
 14 15  2  0  0  0
 14 98  1  0  0  0
 15 99  1  0  0  0
 16 17  2  0  0  0
 16 21  1  0  0  0
 16 31  1  0  0  0
 17 18  1  0  0  0
 17100  1  0  0  0
 18 19  2  0  0  0
 18101  1  0  0  0
 19 20  1  0  0  0
 19 24  1  0  0  0
 20 21  2  0  0  0
 20102  1  0  0  0
 21 23  1  0  0  0
 22 28  1  0  0  0
 22 32  2  0  0  0
 26 27  1  0  0  0
 28103  1  0  0  0
 28104  1  0  0  0
 29105  1  0  0  0
 29106  1  0  0  0
 33 34  1  0  0  0
 33 66  1  0  0  0
 33 70  2  0  0  0
 34 36  1  0  0  0
 34 59  1  0  0  0
 34107  1  0  0  0
 35 44  2  0  0  0
 35 45  1  0  0  0
 35 68  1  0  0  0
 36 56  1  0  0  0
 36108  1  0  0  0
 37 39  1  0  0  0
 37 47  1  0  0  0
 37 66  1  0  0  0
 37109  1  0  0  0
 38 43  2  0  0  0
 38 46  1  0  0  0
 38 47  1  0  0  0
 39 64  1  0  0  0
 39 67  2  0  0  0
 40 52  1  0  0  0
 40 53  2  0  0  0
 40 58  1  0  0  0
 41110  1  0  0  0
 41111  1  0  0  0
 41112  1  0  0  0
 41 48  1  0  0  0
 42 43  1  0  0  0
 42 66  1  0  0  0
 42113  1  0  0  0
 42114  1  0  0  0
 43 44  1  0  0  0
 44115  1  0  0  0
 45 46  2  0  0  0
 45116  1  0  0  0
 46117  1  0  0  0
 47118  1  0  0  0
 47119  1  0  0  0
 48 56  1  0  0  0
 48 65  1  0  0  0
 48120  1  0  0  0
 49 50  1  0  0  0
 49 53  1  0  0  0
 49 64  1  0  0  0
 49121  1  0  0  0
 50 51  1  0  0  0
 50122  1  0  0  0
 50123  1  0  0  0
 51 52  1  0  0  0
 51124  1  0  0  0
 51125  1  0  0  0
 52126  1  0  0  0
 52127  1  0  0  0
 53 54  1  0  0  0
 54 55  2  0  0  0
 54128  1  0  0  0
 55 57  1  0  0  0
 55129  1  0  0  0
 56 69  2  0  0  0
 57 58  2  0  0  0
 57130  1  0  0  0
 58131  1  0  0  0
 59 60  1  0  0  0
 59 61  1  0  0  0
 59 62  1  0  0  0
 60132  1  0  0  0
 60133  1  0  0  0
 60134  1  0  0  0
 61135  1  0  0  0
 61136  1  0  0  0
 61137  1  0  0  0
 62138  1  0  0  0
 62139  1  0  0  0
 62140  1  0  0  0
 63 65  1  0  0  0
 63141  1  0  0  0
 63142  1  0  0  0
 63143  1  0  0  0
 64144  1  0  0  0
 65145  1  0  0  0
 68 77  1  0  0  0
 71 72  2  0  0  0
 71 74  1  0  0  0
 71 86  1  0  0  0
 72 78  1  0  0  0
 72 79  1  0  0  0
 73 79  2  0  0  0
 73 81  1  0  0  0
 73 86  1  0  0  0
 74 80  2  0  0  0
 74146  1  0  0  0
 75 77  1  0  0  0
 75 81  1  0  0  0
 75 82  2  0  0  0
 76147  1  0  0  0
 76148  1  0  0  0
 76149  1  0  0  0
 76 77  1  0  0  0
 77150  1  0  0  0
 78 83  1  0  0  0
 78 84  1  0  0  0
 78 85  1  0  0  0
 81151  1  0  0  0
M  ISO  4   1 100  68 101  77 101  80 100
M  END
> <chiral flag>
0

> <version>
0

> <s_m_source_file>
/data/baiqing/PycharmProjects/Reinvent-master-3.2/result/LINK_invent/BTK/process_docking_weight1_custom_product_contain_oxygen_bond_distance_aromatic_linkinvent_7_9_3/rearranged_h_0187.sdf

> <i_m_source_file_index>
52

> <r_mmod_Potential_Energy-OPLS-2005>
126.592666625977

> <r_mmod_Stretch_Energy-OPLS-2005>
129.048919677734

> <r_mmod_Bend_Energy-OPLS-2005>
177.572830200195

> <r_mmod_Torsional_Energy-OPLS-2005>
226.779251098633

> <r_mmod_Improper_Torsional_Energy-OPLS-2005>
5.23137235641479

> <r_mmod_Van_der_Waal_Energy-OPLS-2005>
115.19750213623

> <r_mmod_Electrostatic_Energy-OPLS-2005>
-395.954406738281

> <r_mmod_Solvation_Energy-OPLS-2005>
-219.864776611328

> <b_mmod_Minimization_Converged-OPLS-2005>
0

> <r_mmod_RMS_Derivative-OPLS-2005>
6.04384994506836

$$$$
54
                    3D
 Structure written by MMmdl.
152160  0  0  1  0            999 V2000
  -30.7292  -14.4330   20.5956 C   0  0  0  0  0  0
  -30.4155  -12.2877   19.4259 C   0  0  0  0  0  0
  -29.4938  -12.5059   18.2076 C   0  0  0  0  0  0
  -28.0141  -12.3723   18.6137 C   0  0  0  0  0  0
  -27.6617  -13.2070   19.8748 C   0  0  2  0  0  0
  -28.6997  -12.9819   20.9969 C   0  0  0  0  0  0
  -25.2576  -13.8170   20.5660 C   0  0  0  0  0  0
  -24.1821  -13.0454   20.9164 C   0  0  0  0  0  0
  -24.6372  -11.6915   20.8711 C   0  0  0  0  0  0
  -23.9043  -10.4300   21.0400 C   0  0  0  0  0  0
  -24.3604   -9.4216   21.9180 C   0  0  0  0  0  0
  -23.6275   -8.2252   22.0755 C   0  0  0  0  0  0
  -22.4256   -8.0293   21.3543 C   0  0  0  0  0  0
  -21.9886   -9.0265   20.4646 C   0  0  0  0  0  0
  -22.7219  -10.2142   20.3050 C   0  0  0  0  0  0
  -21.6852   -6.0734   22.5272 C   0  0  0  0  0  0
  -21.4023   -6.5629   23.8209 C   0  0  0  0  0  0
  -21.3664   -5.6780   24.9164 C   0  0  0  0  0  0
  -21.6051   -4.3045   24.7212 C   0  0  0  0  0  0
  -21.8825   -3.8139   23.4332 C   0  0  0  0  0  0
  -21.9193   -4.6958   22.3392 C   0  0  0  0  0  0
  -22.7848  -13.5267   21.1817 C   0  0  0  0  0  0
  -22.1659   -4.2151   21.0962 F   0  0  0  0  0  0
  -21.5630   -3.4526   25.7720 F   0  0  0  0  0  0
  -30.0375  -13.2696   20.4536 N   0  0  0  0  0  0
  -26.3006  -12.9338   20.3344 N   0  0  0  0  0  0
  -25.9292  -11.6494   20.5728 N   0  0  0  0  0  0
  -22.0472  -12.8282   22.0381 N   0  0  0  0  0  0
  -25.4315  -15.1891   20.4053 N   0  0  0  0  0  0
  -31.8560  -14.5838   20.1001 O   0  0  0  0  0  0
  -21.6629   -6.8884   21.4241 O   0  0  0  0  0  0
  -22.3546  -14.5585   20.6676 O   0  0  0  0  0  0
  -24.6119  -31.8699   23.2097 C   0  0  0  0  0  0
  -25.9029  -32.4827   23.8381 C   0  0  1  0  0  0
  -27.2327  -27.4641   20.0970 C   0  0  0  0  0  0
  -25.5902  -33.8618   24.2333 N   0  0  0  0  0  0
  -23.3968  -30.4931   21.5505 C   0  0  2  0  0  0
  -24.8444  -28.9611   20.1135 C   0  0  0  0  0  0
  -22.7405  -29.4671   22.5012 C   0  0  0  0  0  0
  -18.0291  -28.1384   22.8482 C   0  0  0  0  0  0
  -24.1488  -36.7320   23.2637 C   0  0  0  0  0  0
  -25.9215  -30.8443   21.3578 C   0  0  0  0  0  0
  -26.0022  -29.4816   20.7062 C   0  0  0  0  0  0
  -27.2041  -28.7416   20.6927 C   0  0  0  0  0  0
  -26.0657  -26.9493   19.4953 C   0  0  0  0  0  0
  -24.8704  -27.6934   19.5036 C   0  0  0  0  0  0
  -23.6022  -29.8223   20.1650 C   0  0  0  0  0  0
  -25.4107  -36.3114   24.0342 C   0  0  1  0  0  0
  -20.5871  -28.3666   23.1336 C   0  0  2  0  0  0
  -20.6792  -26.9420   22.5430 C   0  0  0  0  0  0
  -19.5784  -26.6413   21.5217 C   0  0  0  0  0  0
  -18.1948  -26.7942   22.1595 C   0  0  0  0  0  0
  -19.1534  -28.8837   23.2895 C   0  0  0  0  0  0
  -18.9461  -30.1435   23.8909 C   0  0  0  0  0  0
  -17.6467  -30.6579   24.0587 C   0  0  0  0  0  0
  -25.9030  -34.9477   23.5134 C   0  0  0  0  0  0
  -16.5362  -29.9083   23.6340 C   0  0  0  0  0  0
  -16.7280  -28.6509   23.0337 C   0  0  0  0  0  0
  -26.4475  -31.6596   25.0700 C   0  0  0  0  0  0
  -25.3748  -31.3701   26.1451 C   0  0  0  0  0  0
  -27.0292  -30.3028   24.6045 C   0  0  0  0  0  0
  -27.6057  -32.4308   25.7469 C   0  0  0  0  0  0
  -27.5589  -37.1816   24.8464 C   0  0  0  0  0  0
  -21.4134  -29.3034   22.3750 N   0  0  0  0  0  0
  -26.4297  -37.3803   23.9416 N   0  0  0  0  0  0
  -24.6615  -31.0827   22.0985 N   0  0  0  0  0  0
  -23.4194  -28.8217   23.3043 O   0  0  0  0  0  0
  -28.3834  -26.7169   20.1163 O   0  0  0  0  0  0
  -26.5587  -34.8932   22.4687 O   0  0  0  0  0  0
  -23.5316  -32.1458   23.7504 O   0  0  0  0  0  0
  -28.5068  -20.1449   22.4809 C   0  0  0  0  0  0
  -28.6958  -18.7322   22.6301 C   0  0  0  0  0  0
  -29.3987  -18.1727   21.5828 C   0  0  0  0  0  0
  -29.0526  -20.6629   21.3247 C   0  0  0  0  0  0
  -29.8110  -16.8325   21.2483 C   0  0  0  0  0  0
  -30.0265  -15.5061   21.3026 C   0  0  0  0  0  0
  -28.5443  -23.0608   21.3111 C   0  0  0  0  0  0
  -28.3462  -25.6334   21.0560 C   0  0  0  0  0  0
  -28.5831  -24.2760   20.3620 C   0  0  2  0  0  0
  -28.1794  -18.0573   23.7485 N   0  0  0  0  0  0
  -29.0458  -21.9201   20.8045 N   0  0  0  0  0  0
  -28.0718  -23.1516   22.4485 O   0  0  0  0  0  0
  -27.6592  -24.0860   19.4147 F   0  0  0  0  0  0
  -29.8274  -19.3930   20.4161 S   0  0  0  0  0  0
  -31.4625  -12.3641   19.1267 H   0  0  0  0  0  0
  -30.2950  -11.2773   19.8191 H   0  0  0  0  0  0
  -29.7291  -11.7867   17.4219 H   0  0  0  0  0  0
  -29.6763  -13.4948   17.7853 H   0  0  0  0  0  0
  -27.8185  -11.3156   18.8017 H   0  0  0  0  0  0
  -27.3680  -12.6596   17.7836 H   0  0  0  0  0  0
  -27.7105  -14.2564   19.5833 H   0  0  0  0  0  0
  -28.6644  -11.9471   21.3424 H   0  0  0  0  0  0
  -28.4566  -13.5883   21.8694 H   0  0  0  0  0  0
  -25.2763   -9.5698   22.4742 H   0  0  0  0  0  0
  -23.9991   -7.4653   22.7477 H   0  0  0  0  0  0
  -21.0827   -8.8797   19.8945 H   0  0  0  0  0  0
  -22.3698  -10.9680   19.6156 H   0  0  0  0  0  0
  -21.2022   -7.6136   23.9718 H   0  0  0  0  0  0
  -21.1480   -6.0494   25.9073 H   0  0  0  0  0  0
  -22.0596   -2.7600   23.2820 H   0  0  0  0  0  0
  -22.4054  -11.9941   22.4776 H   0  0  0  0  0  0
  -21.1103  -13.1347   22.2576 H   0  0  0  0  0  0
  -24.6755  -15.8537   20.5329 H   0  0  0  0  0  0
  -26.2958  -15.6230   20.1074 H   0  0  0  0  0  0
  -26.7105  -32.5566   23.1163 H   0  0  0  0  0  0
  -25.0078  -33.9784   25.0491 H   0  0  0  0  0  0
  -22.6819  -31.3069   21.4142 H   0  0  0  0  0  0
  -23.3739  -35.9668   23.3304 H   0  0  0  0  0  0
  -24.3574  -36.8910   22.2048 H   0  0  0  0  0  0
  -23.7247  -37.6535   23.6630 H   0  0  0  0  0  0
  -26.0289  -31.6131   20.5900 H   0  0  0  0  0  0
  -26.8117  -30.8964   21.9738 H   0  0  0  0  0  0
  -28.0983  -29.1403   21.1518 H   0  0  0  0  0  0
  -26.0790  -25.9769   19.0259 H   0  0  0  0  0  0
  -23.9826  -27.2880   19.0409 H   0  0  0  0  0  0
  -23.7064  -30.5986   19.4056 H   0  0  0  0  0  0
  -22.7282  -29.2395   19.8719 H   0  0  0  0  0  0
  -25.1278  -36.1997   25.0837 H   0  0  0  0  0  0
  -20.9949  -28.3217   24.1465 H   0  0  0  0  0  0
  -20.5707  -26.2285   23.3604 H   0  0  0  0  0  0
  -21.6659  -26.7472   22.1195 H   0  0  0  0  0  0
  -19.6971  -25.6338   21.1198 H   0  0  0  0  0  0
  -19.6753  -27.3271   20.6786 H   0  0  0  0  0  0
  -17.4250  -26.6749   21.3962 H   0  0  0  0  0  0
  -18.0281  -26.0063   22.8960 H   0  0  0  0  0  0
  -19.7932  -30.7241   24.2285 H   0  0  0  0  0  0
  -17.5024  -31.6251   24.5194 H   0  0  0  0  0  0
  -15.5365  -30.3001   23.7636 H   0  0  0  0  0  0
  -15.8685  -28.0848   22.7013 H   0  0  0  0  0  0
  -24.5926  -30.7043   25.7787 H   0  0  0  0  0  0
  -24.8951  -32.2862   26.4904 H   0  0  0  0  0  0
  -25.8111  -30.8877   27.0200 H   0  0  0  0  0  0
  -26.2822  -29.6791   24.1101 H   0  0  0  0  0  0
  -27.4065  -29.7258   25.4501 H   0  0  0  0  0  0
  -27.8662  -30.4330   23.9166 H   0  0  0  0  0  0
  -27.2663  -33.3580   26.2097 H   0  0  0  0  0  0
  -28.3839  -32.6903   25.0281 H   0  0  0  0  0  0
  -28.0743  -31.8401   26.5348 H   0  0  0  0  0  0
  -28.2615  -38.0109   24.7505 H   0  0  0  0  0  0
  -28.1076  -36.2637   24.6289 H   0  0  0  0  0  0
  -27.2297  -37.1455   25.8865 H   0  0  0  0  0  0
  -20.9277  -29.8780   21.6998 H   0  0  0  0  0  0
  -26.0186  -38.2884   24.1399 H   0  0  0  0  0  0
  -27.9641  -20.7238   23.2137 H   0  0  0  0  0  0
  -29.4594  -16.5596   22.2311 H   0  0  0  0  0  0
  -30.2137  -15.9006   20.3127 H   0  0  0  0  0  0
  -29.1389  -25.8077   21.7852 H   0  0  0  0  0  0
  -27.4154  -25.6112   21.6277 H   0  0  0  0  0  0
  -29.5457  -24.3043   19.8519 H   0  0  0  0  0  0
  -27.4415  -18.5059   24.2823 H   0  0  0  0  0  0
  -28.0539  -17.0522   23.6772 H   0  0  0  0  0  0
  -29.4418  -22.0090   19.8778 H   0  0  0  0  0  0
  1 25  1  0  0  0
  1 30  2  0  0  0
  1 76  1  0  0  0
  2  3  1  0  0  0
  2 25  1  0  0  0
  2 85  1  0  0  0
  2 86  1  0  0  0
  3  4  1  0  0  0
  3 87  1  0  0  0
  3 88  1  0  0  0
  4  5  1  0  0  0
  4 89  1  0  0  0
  4 90  1  0  0  0
  5  6  1  0  0  0
  5 26  1  0  0  0
  5 91  1  0  0  0
  6 25  1  0  0  0
  6 92  1  0  0  0
  6 93  1  0  0  0
  7  8  2  0  0  0
  7 26  1  0  0  0
  7 29  1  0  0  0
  8  9  1  0  0  0
  8 22  1  0  0  0
  9 10  1  0  0  0
  9 27  2  0  0  0
 10 11  2  0  0  0
 10 15  1  0  0  0
 11 12  1  0  0  0
 11 94  1  0  0  0
 12 13  2  0  0  0
 12 95  1  0  0  0
 13 14  1  0  0  0
 13 31  1  0  0  0
 14 15  2  0  0  0
 14 96  1  0  0  0
 15 97  1  0  0  0
 16 17  2  0  0  0
 16 21  1  0  0  0
 16 31  1  0  0  0
 17 18  1  0  0  0
 17 98  1  0  0  0
 18 19  2  0  0  0
 18 99  1  0  0  0
 19 20  1  0  0  0
 19 24  1  0  0  0
 20 21  2  0  0  0
 20100  1  0  0  0
 21 23  1  0  0  0
 22 28  1  0  0  0
 22 32  2  0  0  0
 26 27  1  0  0  0
 28101  1  0  0  0
 28102  1  0  0  0
 29103  1  0  0  0
 29104  1  0  0  0
 33 34  1  0  0  0
 33 66  1  0  0  0
 33 70  2  0  0  0
 34 36  1  0  0  0
 34 59  1  0  0  0
 34105  1  0  0  0
 35 44  2  0  0  0
 35 45  1  0  0  0
 35 68  1  0  0  0
 36 56  1  0  0  0
 36106  1  0  0  0
 37 39  1  0  0  0
 37 47  1  0  0  0
 37 66  1  0  0  0
 37107  1  0  0  0
 38 43  2  0  0  0
 38 46  1  0  0  0
 38 47  1  0  0  0
 39 64  1  0  0  0
 39 67  2  0  0  0
 40 52  1  0  0  0
 40 53  2  0  0  0
 40 58  1  0  0  0
 41108  1  0  0  0
 41109  1  0  0  0
 41110  1  0  0  0
 41 48  1  0  0  0
 42 43  1  0  0  0
 42 66  1  0  0  0
 42111  1  0  0  0
 42112  1  0  0  0
 43 44  1  0  0  0
 44113  1  0  0  0
 45 46  2  0  0  0
 45114  1  0  0  0
 46115  1  0  0  0
 47116  1  0  0  0
 47117  1  0  0  0
 48 56  1  0  0  0
 48 65  1  0  0  0
 48118  1  0  0  0
 49 50  1  0  0  0
 49 53  1  0  0  0
 49 64  1  0  0  0
 49119  1  0  0  0
 50 51  1  0  0  0
 50120  1  0  0  0
 50121  1  0  0  0
 51 52  1  0  0  0
 51122  1  0  0  0
 51123  1  0  0  0
 52124  1  0  0  0
 52125  1  0  0  0
 53 54  1  0  0  0
 54 55  2  0  0  0
 54126  1  0  0  0
 55 57  1  0  0  0
 55127  1  0  0  0
 56 69  2  0  0  0
 57 58  2  0  0  0
 57128  1  0  0  0
 58129  1  0  0  0
 59 60  1  0  0  0
 59 61  1  0  0  0
 59 62  1  0  0  0
 60130  1  0  0  0
 60131  1  0  0  0
 60132  1  0  0  0
 61133  1  0  0  0
 61134  1  0  0  0
 61135  1  0  0  0
 62136  1  0  0  0
 62137  1  0  0  0
 62138  1  0  0  0
 63 65  1  0  0  0
 63139  1  0  0  0
 63140  1  0  0  0
 63141  1  0  0  0
 64142  1  0  0  0
 65143  1  0  0  0
 68 78  1  0  0  0
 71 72  1  0  0  0
 71 74  2  0  0  0
 71144  1  0  0  0
 72 73  2  0  0  0
 72 80  1  0  0  0
 73 75  1  0  0  0
 73 84  1  0  0  0
 74 81  1  0  0  0
 74 84  1  0  0  0
 75 76  2  0  0  0
 75145  1  0  0  0
 76146  1  0  0  0
 77 79  1  0  0  0
 77 81  1  0  0  0
 77 82  2  0  0  0
 78 79  1  0  0  0
 78147  1  0  0  0
 78148  1  0  0  0
 79 83  1  0  0  0
 79149  1  0  0  0
 80150  1  0  0  0
 80151  1  0  0  0
 81152  1  0  0  0
M  ISO  4   1 100  68 101  76 100  78 101
M  END
> <chiral flag>
0

> <version>
0

> <s_m_source_file>
/data/baiqing/PycharmProjects/Reinvent-master-3.2/result/LINK_invent/BTK/process_docking_weight1_custom_product_contain_oxygen_bond_distance_aromatic_linkinvent_7_9_3/rearranged_h_0187.sdf

> <i_m_source_file_index>
53

> <r_mmod_Potential_Energy-OPLS-2005>
443.749847412109

> <r_mmod_Stretch_Energy-OPLS-2005>
33.2135314941406

> <r_mmod_Bend_Energy-OPLS-2005>
571.316650390625

> <r_mmod_Torsional_Energy-OPLS-2005>
226.860748291016

> <r_mmod_Improper_Torsional_Energy-OPLS-2005>
12.0135374069214

> <r_mmod_Van_der_Waal_Energy-OPLS-2005>
143.233520507812

> <r_mmod_Electrostatic_Energy-OPLS-2005>
-333.665313720703

> <r_mmod_Solvation_Energy-OPLS-2005>
-220.059783935547

> <b_mmod_Minimization_Converged-OPLS-2005>
0

> <r_mmod_RMS_Derivative-OPLS-2005>
2.82712841033936

$$$$
55
                    3D
 Structure written by MMmdl.
164172  0  0  1  0            999 V2000
  -30.6680  -14.4967   20.5923 C   0  0  0  0  0  0
  -30.4325  -12.3247   19.4331 C   0  0  0  0  0  0
  -29.5103  -12.5371   18.2139 C   0  0  0  0  0  0
  -28.0257  -12.3971   18.6121 C   0  0  0  0  0  0
  -27.6669  -13.2116   19.8838 C   0  0  2  0  0  0
  -28.7019  -12.9681   21.0045 C   0  0  0  0  0  0
  -25.2597  -13.8156   20.5639 C   0  0  0  0  0  0
  -24.1839  -13.0436   20.9140 C   0  0  0  0  0  0
  -24.6389  -11.6904   20.8679 C   0  0  0  0  0  0
  -23.9049  -10.4296   21.0383 C   0  0  0  0  0  0
  -24.3615   -9.4224   21.9166 C   0  0  0  0  0  0
  -23.6289   -8.2263   22.0744 C   0  0  0  0  0  0
  -22.4271   -8.0285   21.3543 C   0  0  0  0  0  0
  -21.9899   -9.0254   20.4652 C   0  0  0  0  0  0
  -22.7216  -10.2138   20.3044 C   0  0  0  0  0  0
  -21.6843   -6.0751   22.5273 C   0  0  0  0  0  0
  -21.4021   -6.5651   23.8213 C   0  0  0  0  0  0
  -21.3655   -5.6789   24.9164 C   0  0  0  0  0  0
  -21.6050   -4.3053   24.7203 C   0  0  0  0  0  0
  -21.8821   -3.8156   23.4314 C   0  0  0  0  0  0
  -21.9194   -4.6984   22.3380 C   0  0  0  0  0  0
  -22.7871  -13.5257   21.1797 C   0  0  0  0  0  0
  -22.1669   -4.2172   21.0957 F   0  0  0  0  0  0
  -21.5620   -3.4528   25.7712 F   0  0  0  0  0  0
  -30.0399  -13.2920   20.4710 N   0  0  0  0  0  0
  -26.3043  -12.9338   20.3338 N   0  0  0  0  0  0
  -25.9318  -11.6488   20.5709 N   0  0  0  0  0  0
  -22.0494  -12.8274   22.0364 N   0  0  0  0  0  0
  -25.4354  -15.1876   20.4093 N   0  0  0  0  0  0
  -31.7624  -14.7302   20.0636 O   0  0  0  0  0  0
  -21.6640   -6.8884   21.4228 O   0  0  0  0  0  0
  -22.3571  -14.5572   20.6644 O   0  0  0  0  0  0
  -24.6175  -31.8632   23.2075 C   0  0  0  0  0  0
  -25.9053  -32.4799   23.8383 C   0  0  1  0  0  0
  -27.2425  -27.4180   20.0992 C   0  0  0  0  0  0
  -25.5888  -33.8591   24.2346 N   0  0  0  0  0  0
  -23.4042  -30.4857   21.5485 C   0  0  2  0  0  0
  -24.8508  -28.9426   20.1184 C   0  0  0  0  0  0
  -22.7407  -29.4645   22.5016 C   0  0  0  0  0  0
  -18.0254  -28.1351   22.8488 C   0  0  0  0  0  0
  -24.1467  -36.7314   23.2650 C   0  0  0  0  0  0
  -25.9317  -30.8296   21.3535 C   0  0  0  0  0  0
  -26.0114  -29.4610   20.7043 C   0  0  0  0  0  0
  -27.2095  -28.7070   20.6838 C   0  0  0  0  0  0
  -26.0586  -26.9150   19.5133 C   0  0  0  0  0  0
  -24.8696  -27.6731   19.5144 C   0  0  0  0  0  0
  -23.6123  -29.8103   20.1660 C   0  0  0  0  0  0
  -25.4077  -36.3130   24.0380 C   0  0  1  0  0  0
  -20.5854  -28.3633   23.1331 C   0  0  2  0  0  0
  -20.6746  -26.9372   22.5420 C   0  0  0  0  0  0
  -19.5734  -26.6378   21.5191 C   0  0  0  0  0  0
  -18.1906  -26.7905   22.1605 C   0  0  0  0  0  0
  -19.1505  -28.8806   23.2911 C   0  0  0  0  0  0
  -18.9443  -30.1409   23.8922 C   0  0  0  0  0  0
  -17.6456  -30.6574   24.0544 C   0  0  0  0  0  0
  -25.8993  -34.9472   23.5165 C   0  0  0  0  0  0
  -16.5345  -29.9072   23.6319 C   0  0  0  0  0  0
  -16.7246  -28.6477   23.0361 C   0  0  0  0  0  0
  -26.4502  -31.6561   25.0687 C   0  0  0  0  0  0
  -25.3818  -31.3586   26.1468 C   0  0  0  0  0  0
  -27.0330  -30.3044   24.5963 C   0  0  0  0  0  0
  -27.6107  -32.4250   25.7431 C   0  0  0  0  0  0
  -27.5574  -37.1797   24.8470 C   0  0  0  0  0  0
  -21.4136  -29.3021   22.3760 N   0  0  0  0  0  0
  -26.4266  -37.3823   23.9441 N   0  0  0  0  0  0
  -24.6704  -31.0736   22.0963 N   0  0  0  0  0  0
  -23.4176  -28.8216   23.3080 O   0  0  0  0  0  0
  -28.4323  -26.7098   20.0996 O   0  0  0  0  0  0
  -26.5556  -34.8939   22.4723 O   0  0  0  0  0  0
  -23.5366  -32.1368   23.7486 O   0  0  0  0  0  0
  -29.2465  -17.6834   21.8967 C   0  0  0  0  0  0
  -29.2403  -19.0466   21.4402 C   0  0  0  0  0  0
  -29.8954  -16.7838   21.0820 C   0  0  0  0  0  0
  -29.8923  -19.1928   20.2342 C   0  0  0  0  0  0
  -28.5985  -20.1487   22.2317 C   0  0  0  0  0  0
  -30.4439  -25.1576   16.9016 C   0  0  0  0  0  0
  -27.9536  -25.3494   16.6051 C   0  0  0  0  0  0
  -29.8580  -23.3335   19.1028 C   0  0  0  0  0  0
  -28.4217  -25.2637   20.1668 C   0  0  0  0  0  0
  -29.0990  -25.3891   17.6297 C   0  0  0  0  0  0
  -28.7811  -24.4578   18.8668 C   0  0  1  0  0  0
  -29.9940  -15.4308   21.2981 N   0  0  0  0  0  0
  -29.4188  -22.0805   19.7799 N   0  0  0  0  0  0
  -31.6817  -20.9159   19.3608 O   0  0  0  0  0  0
  -29.7014  -20.3676   17.8741 O   0  0  0  0  0  0
  -30.5152  -17.6447   19.6828 S   0  0  0  0  0  0
  -30.2412  -20.6492   19.2142 S   0  0  0  0  0  0
  -31.4791  -12.4362   19.1441 H   0  0  0  0  0  0
  -30.3380  -11.3075   19.8160 H   0  0  0  0  0  0
  -29.7602  -11.8292   17.4212 H   0  0  0  0  0  0
  -29.6808  -13.5322   17.7998 H   0  0  0  0  0  0
  -27.8187  -11.3409   18.7762 H   0  0  0  0  0  0
  -27.3899  -12.7059   17.7821 H   0  0  0  0  0  0
  -27.7197  -14.2663   19.6087 H   0  0  0  0  0  0
  -28.6745  -11.9265   21.3264 H   0  0  0  0  0  0
  -28.4499  -13.5459   21.8944 H   0  0  0  0  0  0
  -25.2762   -9.5718   22.4729 H   0  0  0  0  0  0
  -24.0012   -7.4661   22.7459 H   0  0  0  0  0  0
  -21.0825   -8.8767   19.8966 H   0  0  0  0  0  0
  -22.3655  -10.9678   19.6159 H   0  0  0  0  0  0
  -21.2030   -7.6160   23.9722 H   0  0  0  0  0  0
  -21.1471   -6.0517   25.9073 H   0  0  0  0  0  0
  -22.0605   -2.7617   23.2791 H   0  0  0  0  0  0
  -22.4085  -11.9976   22.4831 H   0  0  0  0  0  0
  -21.1112  -13.1355   22.2518 H   0  0  0  0  0  0
  -24.6691  -15.8446   20.5108 H   0  0  0  0  0  0
  -26.2963  -15.6240   20.1023 H   0  0  0  0  0  0
  -26.7127  -32.5529   23.1155 H   0  0  0  0  0  0
  -25.0106  -33.9692   25.0548 H   0  0  0  0  0  0
  -22.6966  -31.3052   21.4025 H   0  0  0  0  0  0
  -23.3739  -35.9638   23.3300 H   0  0  0  0  0  0
  -24.3590  -36.8901   22.2069 H   0  0  0  0  0  0
  -23.7175  -37.6508   23.6632 H   0  0  0  0  0  0
  -26.0281  -31.5926   20.5806 H   0  0  0  0  0  0
  -26.8276  -30.9029   21.9571 H   0  0  0  0  0  0
  -28.1100  -29.0983   21.1367 H   0  0  0  0  0  0
  -26.0492  -25.9425   19.0480 H   0  0  0  0  0  0
  -23.9754  -27.2692   19.0576 H   0  0  0  0  0  0
  -23.7232  -30.5773   19.3987 H   0  0  0  0  0  0
  -22.7362  -29.2321   19.8690 H   0  0  0  0  0  0
  -25.1250  -36.2022   25.0881 H   0  0  0  0  0  0
  -20.9922  -28.3173   24.1463 H   0  0  0  0  0  0
  -20.5590  -26.2246   23.3597 H   0  0  0  0  0  0
  -21.6628  -26.7391   22.1252 H   0  0  0  0  0  0
  -19.6905  -25.6296   21.1192 H   0  0  0  0  0  0
  -19.6676  -27.3208   20.6730 H   0  0  0  0  0  0
  -17.4182  -26.6645   21.4004 H   0  0  0  0  0  0
  -18.0309  -26.0026   22.8984 H   0  0  0  0  0  0
  -19.7922  -30.7179   24.2342 H   0  0  0  0  0  0
  -17.5017  -31.6251   24.5140 H   0  0  0  0  0  0
  -15.5346  -30.2989   23.7613 H   0  0  0  0  0  0
  -15.8639  -28.0775   22.7120 H   0  0  0  0  0  0
  -24.6027  -30.6881   25.7830 H   0  0  0  0  0  0
  -24.8966  -32.2684   26.5002 H   0  0  0  0  0  0
  -25.8263  -30.8731   27.0166 H   0  0  0  0  0  0
  -26.2812  -29.6756   24.1171 H   0  0  0  0  0  0
  -27.4349  -29.7319   25.4328 H   0  0  0  0  0  0
  -27.8550  -30.4439   23.8937 H   0  0  0  0  0  0
  -27.2781  -33.3559   26.2038 H   0  0  0  0  0  0
  -28.3907  -32.6751   25.0228 H   0  0  0  0  0  0
  -28.0786  -31.8322   26.5293 H   0  0  0  0  0  0
  -28.2613  -38.0080   24.7549 H   0  0  0  0  0  0
  -28.1047  -36.2613   24.6264 H   0  0  0  0  0  0
  -27.2300  -37.1435   25.8875 H   0  0  0  0  0  0
  -20.9297  -29.8777   21.7014 H   0  0  0  0  0  0
  -26.0169  -38.2915   24.1448 H   0  0  0  0  0  0
  -28.7628  -17.4177   22.8275 H   0  0  0  0  0  0
  -28.0969  -19.7572   23.1190 H   0  0  0  0  0  0
  -27.8457  -20.6806   21.6497 H   0  0  0  0  0  0
  -29.3371  -20.8704   22.5820 H   0  0  0  0  0  0
  -30.6676  -25.9722   16.2103 H   0  0  0  0  0  0
  -30.4170  -24.2472   16.3017 H   0  0  0  0  0  0
  -31.2861  -25.0962   17.5924 H   0  0  0  0  0  0
  -28.1431  -26.0055   15.7551 H   0  0  0  0  0  0
  -27.0150  -25.6716   17.0498 H   0  0  0  0  0  0
  -27.8035  -24.3412   16.2203 H   0  0  0  0  0  0
  -30.7184  -23.7389   19.6355 H   0  0  0  0  0  0
  -30.2467  -23.0110   18.1395 H   0  0  0  0  0  0
  -29.1603  -25.0096   20.9300 H   0  0  0  0  0  0
  -27.4814  -24.8989   20.5844 H   0  0  0  0  0  0
  -29.1646  -26.4253   17.9508 H   0  0  0  0  0  0
  -27.8683  -23.9179   18.6125 H   0  0  0  0  0  0
  -29.2952  -15.0434   21.9164 H   0  0  0  0  0  0
  -29.5990  -22.1642   20.7803 H   0  0  0  0  0  0
  1 25  1  0  0  0
  1 30  2  0  0  0
  1 82  1  0  0  0
  2  3  1  0  0  0
  2 25  1  0  0  0
  2 88  1  0  0  0
  2 89  1  0  0  0
  3  4  1  0  0  0
  3 90  1  0  0  0
  3 91  1  0  0  0
  4  5  1  0  0  0
  4 92  1  0  0  0
  4 93  1  0  0  0
  5  6  1  0  0  0
  5 26  1  0  0  0
  5 94  1  0  0  0
  6 25  1  0  0  0
  6 95  1  0  0  0
  6 96  1  0  0  0
  7  8  2  0  0  0
  7 26  1  0  0  0
  7 29  1  0  0  0
  8  9  1  0  0  0
  8 22  1  0  0  0
  9 10  1  0  0  0
  9 27  2  0  0  0
 10 11  2  0  0  0
 10 15  1  0  0  0
 11 12  1  0  0  0
 11 97  1  0  0  0
 12 13  2  0  0  0
 12 98  1  0  0  0
 13 14  1  0  0  0
 13 31  1  0  0  0
 14 15  2  0  0  0
 14 99  1  0  0  0
 15100  1  0  0  0
 16 17  2  0  0  0
 16 21  1  0  0  0
 16 31  1  0  0  0
 17 18  1  0  0  0
 17101  1  0  0  0
 18 19  2  0  0  0
 18102  1  0  0  0
 19 20  1  0  0  0
 19 24  1  0  0  0
 20 21  2  0  0  0
 20103  1  0  0  0
 21 23  1  0  0  0
 22 28  1  0  0  0
 22 32  2  0  0  0
 26 27  1  0  0  0
 28104  1  0  0  0
 28105  1  0  0  0
 29106  1  0  0  0
 29107  1  0  0  0
 33 34  1  0  0  0
 33 66  1  0  0  0
 33 70  2  0  0  0
 34 36  1  0  0  0
 34 59  1  0  0  0
 34108  1  0  0  0
 35 44  2  0  0  0
 35 45  1  0  0  0
 35 68  1  0  0  0
 36 56  1  0  0  0
 36109  1  0  0  0
 37 39  1  0  0  0
 37 47  1  0  0  0
 37 66  1  0  0  0
 37110  1  0  0  0
 38 43  2  0  0  0
 38 46  1  0  0  0
 38 47  1  0  0  0
 39 64  1  0  0  0
 39 67  2  0  0  0
 40 52  1  0  0  0
 40 53  2  0  0  0
 40 58  1  0  0  0
 41111  1  0  0  0
 41112  1  0  0  0
 41113  1  0  0  0
 41 48  1  0  0  0
 42 43  1  0  0  0
 42 66  1  0  0  0
 42114  1  0  0  0
 42115  1  0  0  0
 43 44  1  0  0  0
 44116  1  0  0  0
 45 46  2  0  0  0
 45117  1  0  0  0
 46118  1  0  0  0
 47119  1  0  0  0
 47120  1  0  0  0
 48 56  1  0  0  0
 48 65  1  0  0  0
 48121  1  0  0  0
 49 50  1  0  0  0
 49 53  1  0  0  0
 49 64  1  0  0  0
 49122  1  0  0  0
 50 51  1  0  0  0
 50123  1  0  0  0
 50124  1  0  0  0
 51 52  1  0  0  0
 51125  1  0  0  0
 51126  1  0  0  0
 52127  1  0  0  0
 52128  1  0  0  0
 53 54  1  0  0  0
 54 55  2  0  0  0
 54129  1  0  0  0
 55 57  1  0  0  0
 55130  1  0  0  0
 56 69  2  0  0  0
 57 58  2  0  0  0
 57131  1  0  0  0
 58132  1  0  0  0
 59 60  1  0  0  0
 59 61  1  0  0  0
 59 62  1  0  0  0
 60133  1  0  0  0
 60134  1  0  0  0
 60135  1  0  0  0
 61136  1  0  0  0
 61137  1  0  0  0
 61138  1  0  0  0
 62139  1  0  0  0
 62140  1  0  0  0
 62141  1  0  0  0
 63 65  1  0  0  0
 63142  1  0  0  0
 63143  1  0  0  0
 63144  1  0  0  0
 64145  1  0  0  0
 65146  1  0  0  0
 68 79  1  0  0  0
 71 72  1  0  0  0
 71 73  2  0  0  0
 71147  1  0  0  0
 72 74  2  0  0  0
 72 75  1  0  0  0
 73 82  1  0  0  0
 73 86  1  0  0  0
 74 86  1  0  0  0
 74 87  1  0  0  0
 75148  1  0  0  0
 75149  1  0  0  0
 75150  1  0  0  0
 76151  1  0  0  0
 76152  1  0  0  0
 76153  1  0  0  0
 76 80  1  0  0  0
 77 80  1  0  0  0
 77154  1  0  0  0
 77155  1  0  0  0
 77156  1  0  0  0
 78 83  1  0  0  0
 78157  1  0  0  0
 78158  1  0  0  0
 78 81  1  0  0  0
 79 81  1  0  0  0
 79159  1  0  0  0
 79160  1  0  0  0
 80 81  1  0  0  0
 80161  1  0  0  0
 81162  1  0  0  0
 82163  1  0  0  0
 83164  1  0  0  0
 83 87  1  0  0  0
 84 87  2  0  0  0
 85 87  2  0  0  0
M  ISO  4   1 100  68 101  79 101  82 100
M  END
> <chiral flag>
0

> <version>
0

> <s_m_source_file>
/data/baiqing/PycharmProjects/Reinvent-master-3.2/result/LINK_invent/BTK/process_docking_weight1_custom_product_contain_oxygen_bond_distance_aromatic_linkinvent_7_9_3/rearranged_h_0187.sdf

> <i_m_source_file_index>
54

> <r_mmod_Potential_Energy-OPLS-2005>
-23.1696815490723

> <r_mmod_Stretch_Energy-OPLS-2005>
47.9363059997559

> <r_mmod_Bend_Energy-OPLS-2005>
145.825317382812

> <r_mmod_Torsional_Energy-OPLS-2005>
271.089782714844

> <r_mmod_Improper_Torsional_Energy-OPLS-2005>
9.2656421661377

> <r_mmod_Van_der_Waal_Energy-OPLS-2005>
129.98518371582

> <r_mmod_Electrostatic_Energy-OPLS-2005>
-398.880950927734

> <r_mmod_Solvation_Energy-OPLS-2005>
-242.439636230469

> <b_mmod_Minimization_Converged-OPLS-2005>
0

> <r_mmod_RMS_Derivative-OPLS-2005>
3.88069653511047

$$$$
56
                    3D
 Structure written by MMmdl.
158166  0  0  1  0            999 V2000
  -30.5953  -14.7660   20.4588 C   0  0  0  0  0  0
  -30.4321  -12.4647   19.4880 C   0  0  0  0  0  0
  -29.5138  -12.5212   18.2450 C   0  0  0  0  0  0
  -28.0378  -12.3414   18.6505 C   0  0  0  0  0  0
  -27.6421  -13.2346   19.8571 C   0  0  2  0  0  0
  -28.6828  -13.1610   20.9974 C   0  0  0  0  0  0
  -25.2492  -13.8203   20.5699 C   0  0  0  0  0  0
  -24.1785  -13.0442   20.9223 C   0  0  0  0  0  0
  -24.6367  -11.6927   20.8718 C   0  0  0  0  0  0
  -23.9045  -10.4295   21.0361 C   0  0  0  0  0  0
  -24.3601   -9.4225   21.9155 C   0  0  0  0  0  0
  -23.6302   -8.2252   22.0728 C   0  0  0  0  0  0
  -22.4274   -8.0274   21.3545 C   0  0  0  0  0  0
  -21.9900   -9.0227   20.4633 C   0  0  0  0  0  0
  -22.7197  -10.2126   20.3037 C   0  0  0  0  0  0
  -21.6861   -6.0723   22.5273 C   0  0  0  0  0  0
  -21.4006   -6.5626   23.8200 C   0  0  0  0  0  0
  -21.3676   -5.6786   24.9165 C   0  0  0  0  0  0
  -21.6051   -4.3048   24.7223 C   0  0  0  0  0  0
  -21.8820   -3.8145   23.4342 C   0  0  0  0  0  0
  -21.9191   -4.6954   22.3398 C   0  0  0  0  0  0
  -22.7806  -13.5231   21.1881 C   0  0  0  0  0  0
  -22.1658   -4.2135   21.0979 F   0  0  0  0  0  0
  -21.5650   -3.4541   25.7741 F   0  0  0  0  0  0
  -29.9901  -13.5225   20.4307 N   0  0  0  0  0  0
  -26.2921  -12.9415   20.3292 N   0  0  0  0  0  0
  -25.9303  -11.6556   20.5755 N   0  0  0  0  0  0
  -22.0445  -12.8227   22.0436 N   0  0  0  0  0  0
  -25.4200  -15.1929   20.4147 N   0  0  0  0  0  0
  -31.7506  -14.8836   20.0390 O   0  0  0  0  0  0
  -21.6653   -6.8859   21.4235 O   0  0  0  0  0  0
  -22.3496  -14.5541   20.6724 O   0  0  0  0  0  0
  -24.6333  -31.8503   23.1936 C   0  0  0  0  0  0
  -25.9132  -32.4741   23.8281 C   0  0  1  0  0  0
  -27.2205  -27.2213   20.1128 C   0  0  0  0  0  0
  -25.5908  -33.8558   24.2200 N   0  0  0  0  0  0
  -23.4322  -30.4714   21.5402 C   0  0  2  0  0  0
  -24.8787  -28.9143   20.1074 C   0  0  0  0  0  0
  -22.7504  -29.4576   22.4910 C   0  0  0  0  0  0
  -18.0289  -28.1387   22.8489 C   0  0  0  0  0  0
  -24.1483  -36.7263   23.2644 C   0  0  0  0  0  0
  -25.9815  -30.7461   21.3824 C   0  0  0  0  0  0
  -26.0526  -29.3660   20.7229 C   0  0  0  0  0  0
  -27.2205  -28.5284   20.7219 C   0  0  0  0  0  0
  -26.0249  -26.8631   19.4472 C   0  0  0  0  0  0
  -24.8731  -27.6736   19.4571 C   0  0  0  0  0  0
  -23.6506  -29.8047   20.1580 C   0  0  0  0  0  0
  -25.4117  -36.3053   24.0310 C   0  0  1  0  0  0
  -20.5896  -28.3700   23.1267 C   0  0  2  0  0  0
  -20.6775  -26.9413   22.5411 C   0  0  0  0  0  0
  -19.5764  -26.6384   21.5210 C   0  0  0  0  0  0
  -18.1941  -26.7928   22.1617 C   0  0  0  0  0  0
  -19.1548  -28.8857   23.2879 C   0  0  0  0  0  0
  -18.9478  -30.1467   23.8899 C   0  0  0  0  0  0
  -17.6477  -30.6602   24.0571 C   0  0  0  0  0  0
  -25.9060  -34.9438   23.5059 C   0  0  0  0  0  0
  -16.5367  -29.9099   23.6337 C   0  0  0  0  0  0
  -16.7278  -28.6514   23.0354 C   0  0  0  0  0  0
  -26.4483  -31.6601   25.0704 C   0  0  0  0  0  0
  -25.3692  -31.3785   26.1424 C   0  0  0  0  0  0
  -27.0316  -30.3006   24.6217 C   0  0  0  0  0  0
  -27.6061  -32.4339   25.7448 C   0  0  0  0  0  0
  -27.5573  -37.1767   24.8473 C   0  0  0  0  0  0
  -21.4208  -29.3048   22.3661 N   0  0  0  0  0  0
  -26.4273  -37.3762   23.9419 N   0  0  0  0  0  0
  -24.7021  -31.0407   22.0963 N   0  0  0  0  0  0
  -23.4195  -28.8110   23.3011 O   0  0  0  0  0  0
  -28.3021  -26.2937   20.1969 O   0  0  0  0  0  0
  -26.5663  -34.8923   22.4653 O   0  0  0  0  0  0
  -23.5455  -32.1355   23.7189 O   0  0  0  0  0  0
  -29.4647  -19.6174   20.1003 C   0  0  0  0  0  0
  -28.8757  -19.1759   18.9240 C   0  0  0  0  0  0
  -29.7084  -17.2108   20.2742 C   0  0  0  0  0  0
  -28.9929  -23.6855   20.4664 C   0  0  0  0  0  0
  -32.3405  -20.4448   20.5010 C   0  0  0  0  0  0
  -28.6109  -24.8811   18.2273 C   0  0  0  0  0  0
  -31.2607  -21.4687   20.1115 C   0  0  0  0  0  0
  -29.7979  -21.1361   20.5267 C   0  0  1  0  0  0
  -28.1773  -24.8554   19.7036 C   0  0  2  0  0  0
  -29.8688  -18.4436   20.8706 N   0  0  0  0  0  0
  -28.2711  -19.9134   17.9096 N   0  0  0  0  0  0
  -29.8722  -15.8685   20.8922 N   0  0  0  0  0  0
  -28.9427  -22.3401   20.0737 N   0  0  0  0  0  0
  -29.6904  -24.0150   21.4280 O   0  0  0  0  0  0
  -28.9450  -17.4221   18.7062 S   0  0  0  0  0  0
  -31.4736  -12.5854   19.1853 H   0  0  0  0  0  0
  -30.3761  -11.4848   19.9657 H   0  0  0  0  0  0
  -29.8017  -11.7443   17.5333 H   0  0  0  0  0  0
  -29.6404  -13.4744   17.7272 H   0  0  0  0  0  0
  -27.8949  -11.2903   18.9057 H   0  0  0  0  0  0
  -27.3848  -12.5377   17.7991 H   0  0  0  0  0  0
  -27.6371  -14.2602   19.4871 H   0  0  0  0  0  0
  -28.7179  -12.1564   21.4239 H   0  0  0  0  0  0
  -28.4051  -13.8274   21.8150 H   0  0  0  0  0  0
  -25.2734   -9.5742   22.4736 H   0  0  0  0  0  0
  -24.0024   -7.4652   22.7446 H   0  0  0  0  0  0
  -21.0836   -8.8713   19.8950 H   0  0  0  0  0  0
  -22.3609  -10.9649   19.6164 H   0  0  0  0  0  0
  -21.1977   -7.6122   23.9703 H   0  0  0  0  0  0
  -21.1512   -6.0510   25.9067 H   0  0  0  0  0  0
  -22.0589   -2.7606   23.2845 H   0  0  0  0  0  0
  -22.4083  -11.9918   22.4870 H   0  0  0  0  0  0
  -21.1048  -13.1236   22.2597 H   0  0  0  0  0  0
  -24.6540  -15.8478   20.5266 H   0  0  0  0  0  0
  -26.2696  -15.6337   20.0903 H   0  0  0  0  0  0
  -26.7190  -32.5367   23.1006 H   0  0  0  0  0  0
  -25.0014  -33.9701   25.0309 H   0  0  0  0  0  0
  -22.7318  -31.2963   21.3918 H   0  0  0  0  0  0
  -23.3758  -35.9582   23.3303 H   0  0  0  0  0  0
  -24.3574  -36.8884   22.2062 H   0  0  0  0  0  0
  -23.7206  -37.6444   23.6681 H   0  0  0  0  0  0
  -26.1228  -31.5010   20.6071 H   0  0  0  0  0  0
  -26.8586  -30.7975   22.0155 H   0  0  0  0  0  0
  -28.1144  -28.8596   21.2306 H   0  0  0  0  0  0
  -25.9354  -25.9337   18.9095 H   0  0  0  0  0  0
  -23.9778  -27.3265   18.9579 H   0  0  0  0  0  0
  -23.7740  -30.5813   19.4017 H   0  0  0  0  0  0
  -22.7664  -29.2393   19.8539 H   0  0  0  0  0  0
  -25.1292  -36.1877   25.0790 H   0  0  0  0  0  0
  -21.0004  -28.3261   24.1376 H   0  0  0  0  0  0
  -20.5655  -26.2303   23.3608 H   0  0  0  0  0  0
  -21.6642  -26.7411   22.1223 H   0  0  0  0  0  0
  -19.6933  -25.6291   21.1248 H   0  0  0  0  0  0
  -19.6710  -27.3190   20.6747 H   0  0  0  0  0  0
  -17.4202  -26.6674   21.4029 H   0  0  0  0  0  0
  -18.0353  -26.0059   22.9011 H   0  0  0  0  0  0
  -19.7958  -30.7289   24.2245 H   0  0  0  0  0  0
  -17.5042  -31.6290   24.5165 H   0  0  0  0  0  0
  -15.5374  -30.3016   23.7681 H   0  0  0  0  0  0
  -15.8663  -28.0855   22.7066 H   0  0  0  0  0  0
  -24.5872  -30.7124   25.7752 H   0  0  0  0  0  0
  -24.8890  -32.2973   26.4802 H   0  0  0  0  0  0
  -25.7989  -30.8992   27.0227 H   0  0  0  0  0  0
  -26.2894  -29.6766   24.1224 H   0  0  0  0  0  0
  -27.3958  -29.7259   25.4735 H   0  0  0  0  0  0
  -27.8784  -30.4262   23.9471 H   0  0  0  0  0  0
  -27.2705  -33.3667   26.1980 H   0  0  0  0  0  0
  -28.3870  -32.6844   25.0263 H   0  0  0  0  0  0
  -28.0722  -31.8490   26.5370 H   0  0  0  0  0  0
  -28.2589  -38.0072   24.7518 H   0  0  0  0  0  0
  -28.1050  -36.2592   24.6271 H   0  0  0  0  0  0
  -27.2301  -37.1392   25.8881 H   0  0  0  0  0  0
  -20.9387  -29.8766   21.6869 H   0  0  0  0  0  0
  -26.0141  -38.2808   24.1495 H   0  0  0  0  0  0
  -33.3364  -20.8555   20.3366 H   0  0  0  0  0  0
  -32.2654  -19.5371   19.9000 H   0  0  0  0  0  0
  -32.2700  -20.1642   21.5520 H   0  0  0  0  0  0
  -28.5502  -23.8944   17.7659 H   0  0  0  0  0  0
  -29.6437  -25.2190   18.1414 H   0  0  0  0  0  0
  -27.9920  -25.5574   17.6396 H   0  0  0  0  0  0
  -31.2954  -21.5933   19.0276 H   0  0  0  0  0  0
  -31.5561  -22.4332   20.5257 H   0  0  0  0  0  0
  -29.7618  -21.1702   21.6160 H   0  0  0  0  0  0
  -27.1462  -24.5152   19.7799 H   0  0  0  0  0  0
  -27.6461  -20.6647   18.1773 H   0  0  0  0  0  0
  -27.8327  -19.3673   17.1733 H   0  0  0  0  0  0
  -29.0664  -15.5907   21.4301 H   0  0  0  0  0  0
  -28.3249  -22.1359   19.3027 H   0  0  0  0  0  0
  1 25  1  0  0  0
  1 30  2  0  0  0
  1 82  1  0  0  0
  2  3  1  0  0  0
  2 25  1  0  0  0
  2 86  1  0  0  0
  2 87  1  0  0  0
  3  4  1  0  0  0
  3 88  1  0  0  0
  3 89  1  0  0  0
  4  5  1  0  0  0
  4 90  1  0  0  0
  4 91  1  0  0  0
  5  6  1  0  0  0
  5 26  1  0  0  0
  5 92  1  0  0  0
  6 25  1  0  0  0
  6 93  1  0  0  0
  6 94  1  0  0  0
  7  8  2  0  0  0
  7 26  1  0  0  0
  7 29  1  0  0  0
  8  9  1  0  0  0
  8 22  1  0  0  0
  9 10  1  0  0  0
  9 27  2  0  0  0
 10 11  2  0  0  0
 10 15  1  0  0  0
 11 12  1  0  0  0
 11 95  1  0  0  0
 12 13  2  0  0  0
 12 96  1  0  0  0
 13 14  1  0  0  0
 13 31  1  0  0  0
 14 15  2  0  0  0
 14 97  1  0  0  0
 15 98  1  0  0  0
 16 17  2  0  0  0
 16 21  1  0  0  0
 16 31  1  0  0  0
 17 18  1  0  0  0
 17 99  1  0  0  0
 18 19  2  0  0  0
 18100  1  0  0  0
 19 20  1  0  0  0
 19 24  1  0  0  0
 20 21  2  0  0  0
 20101  1  0  0  0
 21 23  1  0  0  0
 22 28  1  0  0  0
 22 32  2  0  0  0
 26 27  1  0  0  0
 28102  1  0  0  0
 28103  1  0  0  0
 29104  1  0  0  0
 29105  1  0  0  0
 33 34  1  0  0  0
 33 66  1  0  0  0
 33 70  2  0  0  0
 34 36  1  0  0  0
 34 59  1  0  0  0
 34106  1  0  0  0
 35 44  2  0  0  0
 35 45  1  0  0  0
 35 68  1  0  0  0
 36 56  1  0  0  0
 36107  1  0  0  0
 37 39  1  0  0  0
 37 47  1  0  0  0
 37 66  1  0  0  0
 37108  1  0  0  0
 38 43  2  0  0  0
 38 46  1  0  0  0
 38 47  1  0  0  0
 39 64  1  0  0  0
 39 67  2  0  0  0
 40 52  1  0  0  0
 40 53  2  0  0  0
 40 58  1  0  0  0
 41109  1  0  0  0
 41110  1  0  0  0
 41111  1  0  0  0
 41 48  1  0  0  0
 42 43  1  0  0  0
 42 66  1  0  0  0
 42112  1  0  0  0
 42113  1  0  0  0
 43 44  1  0  0  0
 44114  1  0  0  0
 45 46  2  0  0  0
 45115  1  0  0  0
 46116  1  0  0  0
 47117  1  0  0  0
 47118  1  0  0  0
 48 56  1  0  0  0
 48 65  1  0  0  0
 48119  1  0  0  0
 49 50  1  0  0  0
 49 53  1  0  0  0
 49 64  1  0  0  0
 49120  1  0  0  0
 50 51  1  0  0  0
 50121  1  0  0  0
 50122  1  0  0  0
 51 52  1  0  0  0
 51123  1  0  0  0
 51124  1  0  0  0
 52125  1  0  0  0
 52126  1  0  0  0
 53 54  1  0  0  0
 54 55  2  0  0  0
 54127  1  0  0  0
 55 57  1  0  0  0
 55128  1  0  0  0
 56 69  2  0  0  0
 57 58  2  0  0  0
 57129  1  0  0  0
 58130  1  0  0  0
 59 60  1  0  0  0
 59 61  1  0  0  0
 59 62  1  0  0  0
 60131  1  0  0  0
 60132  1  0  0  0
 60133  1  0  0  0
 61134  1  0  0  0
 61135  1  0  0  0
 61136  1  0  0  0
 62137  1  0  0  0
 62138  1  0  0  0
 62139  1  0  0  0
 63 65  1  0  0  0
 63140  1  0  0  0
 63141  1  0  0  0
 63142  1  0  0  0
 64143  1  0  0  0
 65144  1  0  0  0
 68 79  1  0  0  0
 71 72  2  0  0  0
 71 78  1  0  0  0
 71 80  1  0  0  0
 72 81  1  0  0  0
 72 85  1  0  0  0
 73 80  2  0  0  0
 73 82  1  0  0  0
 73 85  1  0  0  0
 74 79  1  0  0  0
 74 83  1  0  0  0
 74 84  2  0  0  0
 75 77  1  0  0  0
 75145  1  0  0  0
 75146  1  0  0  0
 75147  1  0  0  0
 76148  1  0  0  0
 76149  1  0  0  0
 76150  1  0  0  0
 76 79  1  0  0  0
 77151  1  0  0  0
 77152  1  0  0  0
 77 78  1  0  0  0
 78 83  1  0  0  0
 78153  1  0  0  0
 79154  1  0  0  0
 81155  1  0  0  0
 81156  1  0  0  0
 82157  1  0  0  0
 83158  1  0  0  0
M  ISO  4   1 100  68 101  79 101  82 100
M  END
> <chiral flag>
0

> <version>
0

> <s_m_source_file>
/data/baiqing/PycharmProjects/Reinvent-master-3.2/result/LINK_invent/BTK/process_docking_weight1_custom_product_contain_oxygen_bond_distance_aromatic_linkinvent_7_9_3/rearranged_h_0187.sdf

> <i_m_source_file_index>
55

> <r_mmod_Potential_Energy-OPLS-2005>
164.95671081543

> <r_mmod_Stretch_Energy-OPLS-2005>
148.839126586914

> <r_mmod_Bend_Energy-OPLS-2005>
181.464706420898

> <r_mmod_Torsional_Energy-OPLS-2005>
243.004821777344

> <r_mmod_Improper_Torsional_Energy-OPLS-2005>
10.7994060516357

> <r_mmod_Van_der_Waal_Energy-OPLS-2005>
111.59114074707

> <r_mmod_Electrostatic_Energy-OPLS-2005>
-373.120544433594

> <r_mmod_Solvation_Energy-OPLS-2005>
-259.934417724609

> <b_mmod_Minimization_Converged-OPLS-2005>
0

> <r_mmod_RMS_Derivative-OPLS-2005>
3.00428318977356

$$$$
57
                    3D
 Structure written by MMmdl.
154162  0  0  1  0            999 V2000
  -30.7457  -14.3883   20.5658 C   0  0  0  0  0  0
  -30.4052  -12.2509   19.4235 C   0  0  0  0  0  0
  -29.4945  -12.5059   18.2080 C   0  0  0  0  0  0
  -28.0140  -12.3811   18.6121 C   0  0  0  0  0  0
  -27.6654  -13.2089   19.8801 C   0  0  2  0  0  0
  -28.7019  -12.9742   21.0016 C   0  0  0  0  0  0
  -25.2597  -13.8181   20.5643 C   0  0  0  0  0  0
  -24.1831  -13.0475   20.9128 C   0  0  0  0  0  0
  -24.6366  -11.6936   20.8688 C   0  0  0  0  0  0
  -23.9035  -10.4318   21.0346 C   0  0  0  0  0  0
  -24.3600   -9.4257   21.9128 C   0  0  0  0  0  0
  -23.6296   -8.2288   22.0741 C   0  0  0  0  0  0
  -22.4276   -8.0274   21.3546 C   0  0  0  0  0  0
  -21.9888   -9.0239   20.4648 C   0  0  0  0  0  0
  -22.7196  -10.2137   20.3021 C   0  0  0  0  0  0
  -21.6879   -6.0722   22.5268 C   0  0  0  0  0  0
  -21.4034   -6.5624   23.8196 C   0  0  0  0  0  0
  -21.3653   -5.6782   24.9162 C   0  0  0  0  0  0
  -21.6043   -4.3047   24.7215 C   0  0  0  0  0  0
  -21.8828   -3.8128   23.4343 C   0  0  0  0  0  0
  -21.9203   -4.6949   22.3391 C   0  0  0  0  0  0
  -22.7854  -13.5282   21.1751 C   0  0  0  0  0  0
  -22.1660   -4.2122   21.0973 F   0  0  0  0  0  0
  -21.5626   -3.4531   25.7734 F   0  0  0  0  0  0
  -30.0439  -13.2340   20.4541 N   0  0  0  0  0  0
  -26.3037  -12.9351   20.3363 N   0  0  0  0  0  0
  -25.9312  -11.6517   20.5762 N   0  0  0  0  0  0
  -22.0483  -12.8324   22.0341 N   0  0  0  0  0  0
  -25.4372  -15.1891   20.4091 N   0  0  0  0  0  0
  -31.8927  -14.5093   20.1249 O   0  0  0  0  0  0
  -21.6670   -6.8858   21.4227 O   0  0  0  0  0  0
  -22.3534  -14.5546   20.6523 O   0  0  0  0  0  0
  -24.6104  -31.8732   23.2147 C   0  0  0  0  0  0
  -25.9017  -32.4854   23.8420 C   0  0  1  0  0  0
  -27.2384  -27.4658   20.0721 C   0  0  0  0  0  0
  -25.5861  -33.8644   24.2340 N   0  0  0  0  0  0
  -23.3968  -30.4992   21.5548 C   0  0  2  0  0  0
  -24.8402  -28.9668   20.1204 C   0  0  0  0  0  0
  -22.7386  -29.4699   22.5017 C   0  0  0  0  0  0
  -18.0278  -28.1382   22.8502 C   0  0  0  0  0  0
  -24.1478  -36.7338   23.2639 C   0  0  0  0  0  0
  -25.9246  -30.8429   21.3685 C   0  0  0  0  0  0
  -25.9999  -29.4794   20.7142 C   0  0  0  0  0  0
  -27.1964  -28.7317   20.6949 C   0  0  0  0  0  0
  -26.0516  -26.9566   19.4884 C   0  0  0  0  0  0
  -24.8580  -27.6995   19.5141 C   0  0  0  0  0  0
  -23.6053  -29.8368   20.1668 C   0  0  0  0  0  0
  -25.4099  -36.3129   24.0344 C   0  0  1  0  0  0
  -20.5868  -28.3666   23.1325 C   0  0  2  0  0  0
  -20.6769  -26.9418   22.5411 C   0  0  0  0  0  0
  -19.5741  -26.6397   21.5204 C   0  0  0  0  0  0
  -18.1922  -26.7939   22.1620 C   0  0  0  0  0  0
  -19.1528  -28.8838   23.2919 C   0  0  0  0  0  0
  -18.9462  -30.1445   23.8928 C   0  0  0  0  0  0
  -17.6468  -30.6595   24.0572 C   0  0  0  0  0  0
  -25.9024  -34.9494   23.5151 C   0  0  0  0  0  0
  -16.5360  -29.9109   23.6314 C   0  0  0  0  0  0
  -16.7274  -28.6520   23.0352 C   0  0  0  0  0  0
  -26.4443  -31.6611   25.0734 C   0  0  0  0  0  0
  -25.3702  -31.3716   26.1473 C   0  0  0  0  0  0
  -27.0254  -30.3049   24.6106 C   0  0  0  0  0  0
  -27.6052  -32.4300   25.7466 C   0  0  0  0  0  0
  -27.5593  -37.1817   24.8461 C   0  0  0  0  0  0
  -21.4128  -29.3033   22.3722 N   0  0  0  0  0  0
  -26.4291  -37.3818   23.9421 N   0  0  0  0  0  0
  -24.6619  -31.0855   22.1041 N   0  0  0  0  0  0
  -23.4171  -28.8279   23.3075 O   0  0  0  0  0  0
  -28.4413  -26.7914   20.0573 O   0  0  0  0  0  0
  -26.5619  -34.8941   22.4726 O   0  0  0  0  0  0
  -23.5297  -32.1493   23.7532 O   0  0  0  0  0  0
  -30.7943  -18.9239   19.6253 C   0  0  0  0  0  0
  -29.8948  -19.0138   20.6654 C   0  0  0  0  0  0
  -30.2613  -16.7673   20.6429 C   0  0  0  0  0  0
  -29.2206  -21.3788   20.1642 C   0  0  0  0  0  0
  -29.7853  -23.3760   19.2701 C   0  0  0  0  0  0
  -30.9570  -25.5752   18.8025 C   0  0  0  0  0  0
  -29.2363  -20.2659   21.1942 C   0  0  0  0  0  0
  -28.4782  -25.5018   19.4528 C   0  0  0  0  0  0
  -29.8690  -24.8655   19.6309 C   0  0  1  0  0  0
  -29.6027  -17.7659   21.2423 N   0  0  0  0  0  0
  -29.6589  -22.5561   20.3809 N   0  0  0  0  0  0
  -30.0710  -15.4321   21.0630 N   0  0  0  0  0  0
  -29.8278  -23.0395   18.0818 O   0  0  0  0  0  0
  -31.2649  -17.2935   19.2867 S   0  0  0  0  0  0
  -31.4573  -12.3025   19.1323 H   0  0  0  0  0  0
  -30.2570  -11.2409   19.8036 H   0  0  0  0  0  0
  -29.7279  -11.8017   17.4084 H   0  0  0  0  0  0
  -29.6818  -13.5016   17.8040 H   0  0  0  0  0  0
  -27.8099  -11.3243   18.7884 H   0  0  0  0  0  0
  -27.3713  -12.6811   17.7842 H   0  0  0  0  0  0
  -27.7169  -14.2606   19.5963 H   0  0  0  0  0  0
  -28.6538  -11.9428   21.3524 H   0  0  0  0  0  0
  -28.4795  -13.5898   21.8744 H   0  0  0  0  0  0
  -25.2736   -9.5773   22.4686 H   0  0  0  0  0  0
  -24.0010   -7.4710   22.7490 H   0  0  0  0  0  0
  -21.0797   -8.8743   19.8978 H   0  0  0  0  0  0
  -22.3599  -10.9655   19.6126 H   0  0  0  0  0  0
  -21.2043   -7.6139   23.9693 H   0  0  0  0  0  0
  -21.1450   -6.0508   25.9055 H   0  0  0  0  0  0
  -22.0609   -2.7589   23.2851 H   0  0  0  0  0  0
  -22.4088  -12.0057   22.4864 H   0  0  0  0  0  0
  -21.1062  -13.1333   22.2403 H   0  0  0  0  0  0
  -24.6852  -15.8581   20.5313 H   0  0  0  0  0  0
  -26.3090  -15.6243   20.1328 H   0  0  0  0  0  0
  -26.7105  -32.5570   23.1194 H   0  0  0  0  0  0
  -24.9902  -33.9815   25.0403 H   0  0  0  0  0  0
  -22.6851  -31.3159   21.4176 H   0  0  0  0  0  0
  -23.3743  -35.9667   23.3280 H   0  0  0  0  0  0
  -24.3575  -36.8975   22.2061 H   0  0  0  0  0  0
  -23.7228  -37.6537   23.6665 H   0  0  0  0  0  0
  -26.0383  -31.6154   20.6061 H   0  0  0  0  0  0
  -26.8109  -30.8884   21.9900 H   0  0  0  0  0  0
  -28.0925  -29.1282   21.1512 H   0  0  0  0  0  0
  -26.0207  -25.9949   18.9986 H   0  0  0  0  0  0
  -23.9616  -27.2962   19.0607 H   0  0  0  0  0  0
  -23.7268  -30.6156   19.4127 H   0  0  0  0  0  0
  -22.7267  -29.2670   19.8617 H   0  0  0  0  0  0
  -25.1271  -36.1996   25.0845 H   0  0  0  0  0  0
  -20.9963  -28.3219   24.1445 H   0  0  0  0  0  0
  -20.5661  -26.2282   23.3594 H   0  0  0  0  0  0
  -21.6644  -26.7461   22.1210 H   0  0  0  0  0  0
  -19.6896  -25.6305   21.1239 H   0  0  0  0  0  0
  -19.6676  -27.3200   20.6735 H   0  0  0  0  0  0
  -17.4202  -26.6709   21.4025 H   0  0  0  0  0  0
  -18.0321  -26.0066   22.8999 H   0  0  0  0  0  0
  -19.7946  -30.7249   24.2312 H   0  0  0  0  0  0
  -17.5039  -31.6278   24.5171 H   0  0  0  0  0  0
  -15.5368  -30.3035   23.7604 H   0  0  0  0  0  0
  -15.8676  -28.0845   22.7053 H   0  0  0  0  0  0
  -24.5861  -30.7095   25.7789 H   0  0  0  0  0  0
  -24.8897  -32.2867   26.4955 H   0  0  0  0  0  0
  -25.8023  -30.8841   27.0220 H   0  0  0  0  0  0
  -26.2795  -29.6841   24.1135 H   0  0  0  0  0  0
  -27.3987  -29.7270   25.4574 H   0  0  0  0  0  0
  -27.8651  -30.4364   23.9276 H   0  0  0  0  0  0
  -27.2714  -33.3580   26.2123 H   0  0  0  0  0  0
  -28.3801  -32.6895   25.0240 H   0  0  0  0  0  0
  -28.0790  -31.8372   26.5302 H   0  0  0  0  0  0
  -28.2599  -38.0130   24.7540 H   0  0  0  0  0  0
  -28.1101  -36.2671   24.6218 H   0  0  0  0  0  0
  -27.2332  -37.1392   25.8869 H   0  0  0  0  0  0
  -20.9285  -29.8697   21.6896 H   0  0  0  0  0  0
  -26.0179  -38.2895   24.1433 H   0  0  0  0  0  0
  -31.2020  -19.7152   19.0085 H   0  0  0  0  0  0
  -28.8205  -21.0548   19.1958 H   0  0  0  0  0  0
  -31.9121  -25.0508   18.8661 H   0  0  0  0  0  0
  -31.1176  -26.5936   19.1579 H   0  0  0  0  0  0
  -30.6803  -25.6337   17.7493 H   0  0  0  0  0  0
  -29.7544  -20.6136   22.0896 H   0  0  0  0  0  0
  -28.2082  -20.0622   21.4955 H   0  0  0  0  0  0
  -27.7274  -24.8623   19.9248 H   0  0  0  0  0  0
  -28.2379  -25.5752   18.3902 H   0  0  0  0  0  0
  -30.1471  -24.9476   20.6839 H   0  0  0  0  0  0
  -29.2244  -15.2313   21.5699 H   0  0  0  0  0  0
  1 25  1  0  0  0
  1 30  2  0  0  0
  1 82  1  0  0  0
  2  3  1  0  0  0
  2 25  1  0  0  0
  2 85  1  0  0  0
  2 86  1  0  0  0
  3  4  1  0  0  0
  3 87  1  0  0  0
  3 88  1  0  0  0
  4  5  1  0  0  0
  4 89  1  0  0  0
  4 90  1  0  0  0
  5  6  1  0  0  0
  5 26  1  0  0  0
  5 91  1  0  0  0
  6 25  1  0  0  0
  6 92  1  0  0  0
  6 93  1  0  0  0
  7  8  2  0  0  0
  7 26  1  0  0  0
  7 29  1  0  0  0
  8  9  1  0  0  0
  8 22  1  0  0  0
  9 10  1  0  0  0
  9 27  2  0  0  0
 10 11  2  0  0  0
 10 15  1  0  0  0
 11 12  1  0  0  0
 11 94  1  0  0  0
 12 13  2  0  0  0
 12 95  1  0  0  0
 13 14  1  0  0  0
 13 31  1  0  0  0
 14 15  2  0  0  0
 14 96  1  0  0  0
 15 97  1  0  0  0
 16 17  2  0  0  0
 16 21  1  0  0  0
 16 31  1  0  0  0
 17 18  1  0  0  0
 17 98  1  0  0  0
 18 19  2  0  0  0
 18 99  1  0  0  0
 19 20  1  0  0  0
 19 24  1  0  0  0
 20 21  2  0  0  0
 20100  1  0  0  0
 21 23  1  0  0  0
 22 28  1  0  0  0
 22 32  2  0  0  0
 26 27  1  0  0  0
 28101  1  0  0  0
 28102  1  0  0  0
 29103  1  0  0  0
 29104  1  0  0  0
 33 34  1  0  0  0
 33 66  1  0  0  0
 33 70  2  0  0  0
 34 36  1  0  0  0
 34 59  1  0  0  0
 34105  1  0  0  0
 35 44  2  0  0  0
 35 45  1  0  0  0
 35 68  1  0  0  0
 36 56  1  0  0  0
 36106  1  0  0  0
 37 39  1  0  0  0
 37 47  1  0  0  0
 37 66  1  0  0  0
 37107  1  0  0  0
 38 43  2  0  0  0
 38 46  1  0  0  0
 38 47  1  0  0  0
 39 64  1  0  0  0
 39 67  2  0  0  0
 40 52  1  0  0  0
 40 53  2  0  0  0
 40 58  1  0  0  0
 41108  1  0  0  0
 41109  1  0  0  0
 41110  1  0  0  0
 41 48  1  0  0  0
 42 43  1  0  0  0
 42 66  1  0  0  0
 42111  1  0  0  0
 42112  1  0  0  0
 43 44  1  0  0  0
 44113  1  0  0  0
 45 46  2  0  0  0
 45114  1  0  0  0
 46115  1  0  0  0
 47116  1  0  0  0
 47117  1  0  0  0
 48 56  1  0  0  0
 48 65  1  0  0  0
 48118  1  0  0  0
 49 50  1  0  0  0
 49 53  1  0  0  0
 49 64  1  0  0  0
 49119  1  0  0  0
 50 51  1  0  0  0
 50120  1  0  0  0
 50121  1  0  0  0
 51 52  1  0  0  0
 51122  1  0  0  0
 51123  1  0  0  0
 52124  1  0  0  0
 52125  1  0  0  0
 53 54  1  0  0  0
 54 55  2  0  0  0
 54126  1  0  0  0
 55 57  1  0  0  0
 55127  1  0  0  0
 56 69  2  0  0  0
 57 58  2  0  0  0
 57128  1  0  0  0
 58129  1  0  0  0
 59 60  1  0  0  0
 59 61  1  0  0  0
 59 62  1  0  0  0
 60130  1  0  0  0
 60131  1  0  0  0
 60132  1  0  0  0
 61133  1  0  0  0
 61134  1  0  0  0
 61135  1  0  0  0
 62136  1  0  0  0
 62137  1  0  0  0
 62138  1  0  0  0
 63 65  1  0  0  0
 63139  1  0  0  0
 63140  1  0  0  0
 63141  1  0  0  0
 64142  1  0  0  0
 65143  1  0  0  0
 68 78  1  0  0  0
 71 72  2  0  0  0
 71 84  1  0  0  0
 71144  1  0  0  0
 72 77  1  0  0  0
 72 80  1  0  0  0
 73 80  2  0  0  0
 73 82  1  0  0  0
 73 84  1  0  0  0
 74 77  1  0  0  0
 74 81  2  0  0  0
 74145  1  0  0  0
 75 79  1  0  0  0
 75 81  1  0  0  0
 75 83  2  0  0  0
 76146  1  0  0  0
 76147  1  0  0  0
 76148  1  0  0  0
 76 79  1  0  0  0
 77149  1  0  0  0
 77150  1  0  0  0
 78 79  1  0  0  0
 78151  1  0  0  0
 78152  1  0  0  0
 79153  1  0  0  0
 82154  1  0  0  0
M  ISO  4   1 100  68 101  78 101  82 100
M  END
> <chiral flag>
0

> <version>
0

> <s_m_source_file>
/data/baiqing/PycharmProjects/Reinvent-master-3.2/result/LINK_invent/BTK/process_docking_weight1_custom_product_contain_oxygen_bond_distance_aromatic_linkinvent_7_9_3/rearranged_h_0187.sdf

> <i_m_source_file_index>
56

> <r_mmod_Potential_Energy-OPLS-2005>
-127.082817077637

> <r_mmod_Stretch_Energy-OPLS-2005>
31.4874572753906

> <r_mmod_Bend_Energy-OPLS-2005>
92.906494140625

> <r_mmod_Torsional_Energy-OPLS-2005>
209.337295532227

> <r_mmod_Improper_Torsional_Energy-OPLS-2005>
3.9864022731781

> <r_mmod_Van_der_Waal_Energy-OPLS-2005>
158.868133544922

> <r_mmod_Electrostatic_Energy-OPLS-2005>
-421.488586425781

> <r_mmod_Solvation_Energy-OPLS-2005>
-215.352996826172

> <b_mmod_Minimization_Converged-OPLS-2005>
0

> <r_mmod_RMS_Derivative-OPLS-2005>
3.25375962257385

$$$$
58
                    3D
 Structure written by MMmdl.
154162  0  0  1  0            999 V2000
  -30.7261  -14.4223   20.6593 C   0  0  0  0  0  0
  -30.4251  -12.3118   19.3972 C   0  0  0  0  0  0
  -29.4875  -12.5326   18.1934 C   0  0  0  0  0  0
  -28.0091  -12.3895   18.6079 C   0  0  0  0  0  0
  -27.6676  -13.2012   19.8862 C   0  0  2  0  0  0
  -28.7106  -12.9190   20.9904 C   0  0  0  0  0  0
  -25.2614  -13.8151   20.5687 C   0  0  0  0  0  0
  -24.1851  -13.0437   20.9165 C   0  0  0  0  0  0
  -24.6394  -11.6899   20.8726 C   0  0  0  0  0  0
  -23.9055  -10.4291   21.0399 C   0  0  0  0  0  0
  -24.3609   -9.4209   21.9180 C   0  0  0  0  0  0
  -23.6285   -8.2244   22.0754 C   0  0  0  0  0  0
  -22.4269   -8.0280   21.3543 C   0  0  0  0  0  0
  -21.9901   -9.0253   20.4647 C   0  0  0  0  0  0
  -22.7226  -10.2134   20.3052 C   0  0  0  0  0  0
  -21.6851   -6.0734   22.5277 C   0  0  0  0  0  0
  -21.4014   -6.5639   23.8211 C   0  0  0  0  0  0
  -21.3660   -5.6792   24.9173 C   0  0  0  0  0  0
  -21.6045   -4.3055   24.7225 C   0  0  0  0  0  0
  -21.8819   -3.8146   23.4346 C   0  0  0  0  0  0
  -21.9192   -4.6962   22.3401 C   0  0  0  0  0  0
  -22.7874  -13.5244   21.1828 C   0  0  0  0  0  0
  -22.1661   -4.2148   21.0979 F   0  0  0  0  0  0
  -21.5629   -3.4539   25.7737 F   0  0  0  0  0  0
  -30.0388  -13.2619   20.4538 N   0  0  0  0  0  0
  -26.3056  -12.9310   20.3418 N   0  0  0  0  0  0
  -25.9323  -11.6472   20.5769 N   0  0  0  0  0  0
  -22.0510  -12.8242   22.0385 N   0  0  0  0  0  0
  -25.4356  -15.1868   20.4095 N   0  0  0  0  0  0
  -31.7862  -14.6520   20.0629 O   0  0  0  0  0  0
  -21.6636   -6.8876   21.4239 O   0  0  0  0  0  0
  -22.3566  -14.5556   20.6682 O   0  0  0  0  0  0
  -24.6132  -31.8690   23.2111 C   0  0  0  0  0  0
  -25.9031  -32.4831   23.8403 C   0  0  1  0  0  0
  -27.2348  -27.4499   20.0939 C   0  0  0  0  0  0
  -25.5893  -33.8629   24.2335 N   0  0  0  0  0  0
  -23.4008  -30.4922   21.5517 C   0  0  2  0  0  0
  -24.8479  -28.9598   20.1152 C   0  0  0  0  0  0
  -22.7402  -29.4662   22.5002 C   0  0  0  0  0  0
  -18.0269  -28.1375   22.8496 C   0  0  0  0  0  0
  -24.1487  -36.7320   23.2639 C   0  0  0  0  0  0
  -25.9281  -30.8397   21.3614 C   0  0  0  0  0  0
  -26.0076  -29.4752   20.7085 C   0  0  0  0  0  0
  -27.2071  -28.7287   20.6921 C   0  0  0  0  0  0
  -26.0612  -26.9474   19.4909 C   0  0  0  0  0  0
  -24.8685  -27.6942   19.5035 C   0  0  0  0  0  0
  -23.6084  -29.8239   20.1664 C   0  0  0  0  0  0
  -25.4107  -36.3118   24.0340 C   0  0  1  0  0  0
  -20.5858  -28.3660   23.1327 C   0  0  2  0  0  0
  -20.6759  -26.9400   22.5422 C   0  0  0  0  0  0
  -19.5740  -26.6387   21.5215 C   0  0  0  0  0  0
  -18.1917  -26.7924   22.1624 C   0  0  0  0  0  0
  -19.1518  -28.8834   23.2909 C   0  0  0  0  0  0
  -18.9447  -30.1440   23.8917 C   0  0  0  0  0  0
  -17.6451  -30.6584   24.0566 C   0  0  0  0  0  0
  -25.9031  -34.9482   23.5135 C   0  0  0  0  0  0
  -16.5342  -29.9088   23.6324 C   0  0  0  0  0  0
  -16.7259  -28.6503   23.0349 C   0  0  0  0  0  0
  -26.4466  -31.6602   25.0723 C   0  0  0  0  0  0
  -25.3740  -31.3697   26.1475 C   0  0  0  0  0  0
  -27.0293  -30.3050   24.6079 C   0  0  0  0  0  0
  -27.6046  -32.4316   25.7482 C   0  0  0  0  0  0
  -27.5582  -37.1815   24.8464 C   0  0  0  0  0  0
  -21.4131  -29.3031   22.3739 N   0  0  0  0  0  0
  -26.4296  -37.3799   23.9408 N   0  0  0  0  0  0
  -24.6657  -31.0804   22.1003 N   0  0  0  0  0  0
  -23.4181  -28.8203   23.3038 O   0  0  0  0  0  0
  -28.3914  -26.7061   20.0918 O   0  0  0  0  0  0
  -26.5593  -34.8930   22.4696 O   0  0  0  0  0  0
  -23.5328  -32.1432   23.7515 O   0  0  0  0  0  0
  -31.2572  -17.6400   20.5868 C   0  0  0  0  0  0
  -30.2046  -16.9048   21.0848 C   0  0  0  0  0  0
  -29.6340  -19.2209   20.4473 C   0  0  0  0  0  0
  -29.0538  -24.3323   19.9864 C   0  0  0  0  0  0
  -29.4923  -21.6486   18.1388 C   0  0  0  0  0  0
  -28.5741  -22.8833   20.2125 C   0  0  0  0  0  0
  -28.2516  -25.4200   20.7157 C   0  0  0  0  0  0
  -30.2084  -15.5041   21.6478 C   0  0  2  0  0  0
  -29.4674  -21.7317   19.6755 C   0  0  1  0  0  0
  -30.9197  -18.9529   20.2218 N   0  0  0  0  0  0
  -29.0266  -20.4504   20.2258 N   0  0  0  0  0  0
  -30.0333  -24.6096   19.2854 O   0  0  0  0  0  0
  -30.9469  -15.4357   22.7581 F   0  0  0  0  0  0
  -28.7345  -17.8539   21.0903 S   0  0  0  0  0  0
  -31.4663  -12.4218   19.0893 H   0  0  0  0  0  0
  -30.3385  -11.2879   19.7644 H   0  0  0  0  0  0
  -29.7228  -11.8254   17.3971 H   0  0  0  0  0  0
  -29.6557  -13.5278   17.7785 H   0  0  0  0  0  0
  -27.8117  -11.3304   18.7783 H   0  0  0  0  0  0
  -27.3578  -12.6904   17.7865 H   0  0  0  0  0  0
  -27.7293  -14.2586   19.6273 H   0  0  0  0  0  0
  -28.6934  -11.8579   21.2443 H   0  0  0  0  0  0
  -28.4529  -13.4105   21.9248 H   0  0  0  0  0  0
  -25.2756   -9.5687   22.4751 H   0  0  0  0  0  0
  -23.9997   -7.4638   22.7474 H   0  0  0  0  0  0
  -21.0832   -8.8768   19.8954 H   0  0  0  0  0  0
  -22.3682  -10.9670   19.6160 H   0  0  0  0  0  0
  -21.2006   -7.6147   23.9713 H   0  0  0  0  0  0
  -21.1483   -6.0524   25.9077 H   0  0  0  0  0  0
  -22.0599   -2.7608   23.2846 H   0  0  0  0  0  0
  -22.4115  -11.9897   22.4768 H   0  0  0  0  0  0
  -21.1134  -13.1282   22.2597 H   0  0  0  0  0  0
  -24.6698  -15.8434   20.5135 H   0  0  0  0  0  0
  -26.2902  -15.6240   20.0888 H   0  0  0  0  0  0
  -26.7107  -32.5551   23.1176 H   0  0  0  0  0  0
  -25.0052  -33.9796   25.0485 H   0  0  0  0  0  0
  -22.6888  -31.3084   21.4130 H   0  0  0  0  0  0
  -23.3745  -35.9657   23.3315 H   0  0  0  0  0  0
  -24.3579  -36.8918   22.2050 H   0  0  0  0  0  0
  -23.7243  -37.6533   23.6641 H   0  0  0  0  0  0
  -26.0365  -31.6063   20.5929 H   0  0  0  0  0  0
  -26.8175  -30.8948   21.9775 H   0  0  0  0  0  0
  -28.1039  -29.1225   21.1500 H   0  0  0  0  0  0
  -26.0669  -25.9804   19.0078 H   0  0  0  0  0  0
  -23.9779  -27.2929   19.0396 H   0  0  0  0  0  0
  -23.7141  -30.5982   19.4059 H   0  0  0  0  0  0
  -22.7331  -29.2414   19.8729 H   0  0  0  0  0  0
  -25.1282  -36.1991   25.0834 H   0  0  0  0  0  0
  -20.9948  -28.3223   24.1447 H   0  0  0  0  0  0
  -20.5666  -26.2267   23.3604 H   0  0  0  0  0  0
  -21.6631  -26.7447   22.1214 H   0  0  0  0  0  0
  -19.6904  -25.6304   21.1230 H   0  0  0  0  0  0
  -19.6682  -27.3207   20.6754 H   0  0  0  0  0  0
  -17.4191  -26.6679   21.4021 H   0  0  0  0  0  0
  -18.0314  -26.0059   22.9012 H   0  0  0  0  0  0
  -19.7924  -30.7248   24.2299 H   0  0  0  0  0  0
  -17.5008  -31.6267   24.5163 H   0  0  0  0  0  0
  -15.5344  -30.2998   23.7637 H   0  0  0  0  0  0
  -15.8658  -28.0829   22.7055 H   0  0  0  0  0  0
  -24.5915  -30.7041   25.7813 H   0  0  0  0  0  0
  -24.8928  -32.2847   26.4939 H   0  0  0  0  0  0
  -25.8102  -30.8858   27.0222 H   0  0  0  0  0  0
  -26.2829  -29.6819   24.1138 H   0  0  0  0  0  0
  -27.4081  -29.7277   25.4523 H   0  0  0  0  0  0
  -27.8655  -30.4381   23.9209 H   0  0  0  0  0  0
  -27.2670  -33.3603   26.2096 H   0  0  0  0  0  0
  -28.3836  -32.6896   25.0296 H   0  0  0  0  0  0
  -28.0737  -31.8418   26.5368 H   0  0  0  0  0  0
  -28.2608  -38.0104   24.7511 H   0  0  0  0  0  0
  -28.1070  -36.2637   24.6291 H   0  0  0  0  0  0
  -27.2301  -37.1471   25.8868 H   0  0  0  0  0  0
  -20.9289  -29.8759   21.6968 H   0  0  0  0  0  0
  -26.0189  -38.2881   24.1404 H   0  0  0  0  0  0
  -32.2832  -17.3152   20.4814 H   0  0  0  0  0  0
  -29.8858  -22.5597   17.6883 H   0  0  0  0  0  0
  -28.4945  -21.4858   17.7298 H   0  0  0  0  0  0
  -30.1274  -20.8298   17.7981 H   0  0  0  0  0  0
  -27.5698  -22.7978   19.7967 H   0  0  0  0  0  0
  -28.4651  -22.7711   21.2917 H   0  0  0  0  0  0
  -28.6210  -25.4909   21.7386 H   0  0  0  0  0  0
  -27.2129  -25.0968   20.7851 H   0  0  0  0  0  0
  -29.1981  -15.2979   21.9814 H   0  0  0  0  0  0
  -30.4880  -21.8991   20.0252 H   0  0  0  0  0  0
  -28.0432  -20.4335   20.4789 H   0  0  0  0  0  0
  1 25  1  0  0  0
  1 30  2  0  0  0
  1 78  1  0  0  0
  2  3  1  0  0  0
  2 25  1  0  0  0
  2 85  1  0  0  0
  2 86  1  0  0  0
  3  4  1  0  0  0
  3 87  1  0  0  0
  3 88  1  0  0  0
  4  5  1  0  0  0
  4 89  1  0  0  0
  4 90  1  0  0  0
  5  6  1  0  0  0
  5 26  1  0  0  0
  5 91  1  0  0  0
  6 25  1  0  0  0
  6 92  1  0  0  0
  6 93  1  0  0  0
  7  8  2  0  0  0
  7 26  1  0  0  0
  7 29  1  0  0  0
  8  9  1  0  0  0
  8 22  1  0  0  0
  9 10  1  0  0  0
  9 27  2  0  0  0
 10 11  2  0  0  0
 10 15  1  0  0  0
 11 12  1  0  0  0
 11 94  1  0  0  0
 12 13  2  0  0  0
 12 95  1  0  0  0
 13 14  1  0  0  0
 13 31  1  0  0  0
 14 15  2  0  0  0
 14 96  1  0  0  0
 15 97  1  0  0  0
 16 17  2  0  0  0
 16 21  1  0  0  0
 16 31  1  0  0  0
 17 18  1  0  0  0
 17 98  1  0  0  0
 18 19  2  0  0  0
 18 99  1  0  0  0
 19 20  1  0  0  0
 19 24  1  0  0  0
 20 21  2  0  0  0
 20100  1  0  0  0
 21 23  1  0  0  0
 22 28  1  0  0  0
 22 32  2  0  0  0
 26 27  1  0  0  0
 28101  1  0  0  0
 28102  1  0  0  0
 29103  1  0  0  0
 29104  1  0  0  0
 33 34  1  0  0  0
 33 66  1  0  0  0
 33 70  2  0  0  0
 34 36  1  0  0  0
 34 59  1  0  0  0
 34105  1  0  0  0
 35 44  2  0  0  0
 35 45  1  0  0  0
 35 68  1  0  0  0
 36 56  1  0  0  0
 36106  1  0  0  0
 37 39  1  0  0  0
 37 47  1  0  0  0
 37 66  1  0  0  0
 37107  1  0  0  0
 38 43  2  0  0  0
 38 46  1  0  0  0
 38 47  1  0  0  0
 39 64  1  0  0  0
 39 67  2  0  0  0
 40 52  1  0  0  0
 40 53  2  0  0  0
 40 58  1  0  0  0
 41108  1  0  0  0
 41109  1  0  0  0
 41110  1  0  0  0
 41 48  1  0  0  0
 42 43  1  0  0  0
 42 66  1  0  0  0
 42111  1  0  0  0
 42112  1  0  0  0
 43 44  1  0  0  0
 44113  1  0  0  0
 45 46  2  0  0  0
 45114  1  0  0  0
 46115  1  0  0  0
 47116  1  0  0  0
 47117  1  0  0  0
 48 56  1  0  0  0
 48 65  1  0  0  0
 48118  1  0  0  0
 49 50  1  0  0  0
 49 53  1  0  0  0
 49 64  1  0  0  0
 49119  1  0  0  0
 50 51  1  0  0  0
 50120  1  0  0  0
 50121  1  0  0  0
 51 52  1  0  0  0
 51122  1  0  0  0
 51123  1  0  0  0
 52124  1  0  0  0
 52125  1  0  0  0
 53 54  1  0  0  0
 54 55  2  0  0  0
 54126  1  0  0  0
 55 57  1  0  0  0
 55127  1  0  0  0
 56 69  2  0  0  0
 57 58  2  0  0  0
 57128  1  0  0  0
 58129  1  0  0  0
 59 60  1  0  0  0
 59 61  1  0  0  0
 59 62  1  0  0  0
 60130  1  0  0  0
 60131  1  0  0  0
 60132  1  0  0  0
 61133  1  0  0  0
 61134  1  0  0  0
 61135  1  0  0  0
 62136  1  0  0  0
 62137  1  0  0  0
 62138  1  0  0  0
 63 65  1  0  0  0
 63139  1  0  0  0
 63140  1  0  0  0
 63141  1  0  0  0
 64142  1  0  0  0
 65143  1  0  0  0
 68 77  1  0  0  0
 71 72  2  0  0  0
 71 80  1  0  0  0
 71144  1  0  0  0
 72 78  1  0  0  0
 72 84  1  0  0  0
 73 80  2  0  0  0
 73 81  1  0  0  0
 73 84  1  0  0  0
 74 76  1  0  0  0
 74 77  1  0  0  0
 74 82  2  0  0  0
 75145  1  0  0  0
 75146  1  0  0  0
 75147  1  0  0  0
 75 79  1  0  0  0
 76 79  1  0  0  0
 76148  1  0  0  0
 76149  1  0  0  0
 77150  1  0  0  0
 77151  1  0  0  0
 78 83  1  0  0  0
 78152  1  0  0  0
 79 81  1  0  0  0
 79153  1  0  0  0
 81154  1  0  0  0
M  ISO  4   1 100  68 101  77 101  78 100
M  END
> <chiral flag>
0

> <version>
0

> <s_m_source_file>
/data/baiqing/PycharmProjects/Reinvent-master-3.2/result/LINK_invent/BTK/process_docking_weight1_custom_product_contain_oxygen_bond_distance_aromatic_linkinvent_7_9_3/rearranged_h_0187.sdf

> <i_m_source_file_index>
57

> <r_mmod_Potential_Energy-OPLS-2005>
-69.7505035400391

> <r_mmod_Stretch_Energy-OPLS-2005>
35.0414199829102

> <r_mmod_Bend_Energy-OPLS-2005>
97.0273818969727

> <r_mmod_Torsional_Energy-OPLS-2005>
170.870101928711

> <r_mmod_Improper_Torsional_Energy-OPLS-2005>
1.86037981510162

> <r_mmod_Van_der_Waal_Energy-OPLS-2005>
124.812835693359

> <r_mmod_Electrostatic_Energy-OPLS-2005>
-274.881561279297

> <r_mmod_Solvation_Energy-OPLS-2005>
-233.131469726562

> <b_mmod_Minimization_Converged-OPLS-2005>
0

> <r_mmod_RMS_Derivative-OPLS-2005>
0.274651706218719

$$$$
59
                    3D
 Structure written by MMmdl.
169177  0  0  1  0            999 V2000
  -30.7155  -14.4392   20.5627 C   0  0  0  0  0  0
  -30.4123  -12.2819   19.4258 C   0  0  0  0  0  0
  -29.4928  -12.5004   18.2079 C   0  0  0  0  0  0
  -28.0129  -12.3692   18.6173 C   0  0  0  0  0  0
  -27.6609  -13.2067   19.8769 C   0  0  2  0  0  0
  -28.6997  -12.9863   21.0001 C   0  0  0  0  0  0
  -25.2579  -13.8166   20.5664 C   0  0  0  0  0  0
  -24.1833  -13.0441   20.9164 C   0  0  0  0  0  0
  -24.6388  -11.6911   20.8733 C   0  0  0  0  0  0
  -23.9056  -10.4291   21.0402 C   0  0  0  0  0  0
  -24.3611   -9.4213   21.9175 C   0  0  0  0  0  0
  -23.6287   -8.2251   22.0758 C   0  0  0  0  0  0
  -22.4271   -8.0283   21.3551 C   0  0  0  0  0  0
  -21.9904   -9.0257   20.4650 C   0  0  0  0  0  0
  -22.7234  -10.2130   20.3053 C   0  0  0  0  0  0
  -21.6847   -6.0730   22.5279 C   0  0  0  0  0  0
  -21.4011   -6.5635   23.8212 C   0  0  0  0  0  0
  -21.3659   -5.6790   24.9173 C   0  0  0  0  0  0
  -21.6048   -4.3052   24.7224 C   0  0  0  0  0  0
  -21.8819   -3.8146   23.4345 C   0  0  0  0  0  0
  -21.9191   -4.6961   22.3401 C   0  0  0  0  0  0
  -22.7860  -13.5246   21.1842 C   0  0  0  0  0  0
  -22.1662   -4.2148   21.0974 F   0  0  0  0  0  0
  -21.5629   -3.4539   25.7737 F   0  0  0  0  0  0
  -30.0333  -13.2702   20.4470 N   0  0  0  0  0  0
  -26.3014  -12.9340   20.3365 N   0  0  0  0  0  0
  -25.9307  -11.6499   20.5768 N   0  0  0  0  0  0
  -22.0501  -12.8235   22.0392 N   0  0  0  0  0  0
  -25.4318  -15.1880   20.4082 N   0  0  0  0  0  0
  -31.8514  -14.5809   20.1011 O   0  0  0  0  0  0
  -21.6643   -6.8878   21.4244 O   0  0  0  0  0  0
  -22.3552  -14.5557   20.6691 O   0  0  0  0  0  0
  -24.6084  -31.8708   23.2117 C   0  0  0  0  0  0
  -25.9000  -32.4845   23.8391 C   0  0  1  0  0  0
  -27.2406  -27.4726   20.1016 C   0  0  0  0  0  0
  -25.5872  -33.8643   24.2335 N   0  0  0  0  0  0
  -23.3964  -30.4907   21.5522 C   0  0  2  0  0  0
  -24.8452  -28.9589   20.1193 C   0  0  0  0  0  0
  -22.7381  -29.4655   22.5023 C   0  0  0  0  0  0
  -18.0258  -28.1377   22.8487 C   0  0  0  0  0  0
  -24.1488  -36.7318   23.2634 C   0  0  0  0  0  0
  -25.9173  -30.8515   21.3555 C   0  0  0  0  0  0
  -26.0005  -29.4849   20.7124 C   0  0  0  0  0  0
  -27.2029  -28.7498   20.7001 C   0  0  0  0  0  0
  -26.0767  -26.9514   19.5047 C   0  0  0  0  0  0
  -24.8766  -27.6883   19.5131 C   0  0  0  0  0  0
  -23.6027  -29.8180   20.1677 C   0  0  0  0  0  0
  -25.4107  -36.3130   24.0346 C   0  0  1  0  0  0
  -20.5844  -28.3646   23.1335 C   0  0  2  0  0  0
  -20.6754  -26.9392   22.5416 C   0  0  0  0  0  0
  -19.5736  -26.6385   21.5210 C   0  0  0  0  0  0
  -18.1908  -26.7922   22.1622 C   0  0  0  0  0  0
  -19.1513  -28.8831   23.2900 C   0  0  0  0  0  0
  -18.9457  -30.1428   23.8914 C   0  0  0  0  0  0
  -17.6460  -30.6581   24.0563 C   0  0  0  0  0  0
  -25.9035  -34.9501   23.5145 C   0  0  0  0  0  0
  -16.5348  -29.9096   23.6329 C   0  0  0  0  0  0
  -16.7254  -28.6515   23.0340 C   0  0  0  0  0  0
  -26.4441  -31.6606   25.0702 C   0  0  0  0  0  0
  -25.3712  -31.3720   26.1453 C   0  0  0  0  0  0
  -27.0258  -30.3067   24.6015 C   0  0  0  0  0  0
  -27.6037  -32.4303   25.7451 C   0  0  0  0  0  0
  -27.5605  -37.1782   24.8445 C   0  0  0  0  0  0
  -21.4118  -29.3020   22.3757 N   0  0  0  0  0  0
  -26.4293  -37.3815   23.9434 N   0  0  0  0  0  0
  -24.6597  -31.0840   22.1000 N   0  0  0  0  0  0
  -23.4161  -28.8205   23.3066 O   0  0  0  0  0  0
  -28.4004  -26.7459   20.0273 O   0  0  0  0  0  0
  -26.5604  -34.8954   22.4707 O   0  0  0  0  0  0
  -23.5288  -32.1432   23.7552 O   0  0  0  0  0  0
  -31.4981  -17.4079   20.6256 C   0  0  0  0  0  0
  -31.4516  -18.8300   20.5831 C   0  0  0  0  0  0
  -30.2217  -19.3204   20.9381 C   0  0  0  0  0  0
  -30.3146  -16.7997   20.9870 C   0  0  0  0  0  0
  -29.7741  -20.7224   21.0409 C   0  0  0  0  0  0
  -32.6200  -19.6803   20.1775 C   0  0  0  0  0  0
  -27.4398  -22.1552   17.6411 C   0  0  0  0  0  0
  -29.8644  -21.6833   17.1306 C   0  0  0  0  0  0
  -29.7176  -26.9061   22.0535 C   0  0  0  0  0  0
  -28.5020  -23.6443   20.2640 C   0  0  0  0  0  0
  -29.4638  -24.7481   20.7490 C   0  0  0  0  0  0
  -28.8959  -22.5626   17.9429 C   0  0  0  0  0  0
  -29.2408  -22.5454   19.4549 C   0  0  2  0  0  0
  -28.7693  -26.0410   21.2098 C   0  0  2  0  0  0
  -30.0186  -15.4701   21.0836 N   0  0  0  0  0  0
  -29.0842  -21.1907   19.9925 N   0  0  0  0  0  0
  -30.1844  -21.4423   21.9517 O   0  0  0  0  0  0
  -29.1064  -18.0298   21.3228 S   0  0  0  0  0  0
  -31.4603  -12.3584   19.1294 H   0  0  0  0  0  0
  -30.2920  -11.2722   19.8204 H   0  0  0  0  0  0
  -29.7289  -11.7801   17.4236 H   0  0  0  0  0  0
  -29.6711  -13.4881   17.7797 H   0  0  0  0  0  0
  -27.8157  -11.3132   18.8072 H   0  0  0  0  0  0
  -27.3662  -12.6523   17.7859 H   0  0  0  0  0  0
  -27.7079  -14.2550   19.5818 H   0  0  0  0  0  0
  -28.6658  -11.9539   21.3515 H   0  0  0  0  0  0
  -28.4686  -13.5963   21.8744 H   0  0  0  0  0  0
  -25.2749   -9.5685   22.4755 H   0  0  0  0  0  0
  -23.9994   -7.4642   22.7475 H   0  0  0  0  0  0
  -21.0836   -8.8769   19.8953 H   0  0  0  0  0  0
  -22.3689  -10.9669   19.6166 H   0  0  0  0  0  0
  -21.2005   -7.6140   23.9713 H   0  0  0  0  0  0
  -21.1481   -6.0516   25.9072 H   0  0  0  0  0  0
  -22.0598   -2.7606   23.2843 H   0  0  0  0  0  0
  -22.4112  -11.9888   22.4768 H   0  0  0  0  0  0
  -21.1120  -13.1276   22.2620 H   0  0  0  0  0  0
  -24.6647  -15.8433   20.5119 H   0  0  0  0  0  0
  -26.2851  -15.6270   20.0857 H   0  0  0  0  0  0
  -26.7078  -32.5601   23.1171 H   0  0  0  0  0  0
  -24.9998  -33.9808   25.0456 H   0  0  0  0  0  0
  -22.6840  -31.3056   21.4111 H   0  0  0  0  0  0
  -23.3785  -35.9616   23.3252 H   0  0  0  0  0  0
  -24.3596  -36.8986   22.2057 H   0  0  0  0  0  0
  -23.7191  -37.6495   23.6668 H   0  0  0  0  0  0
  -26.0090  -31.6159   20.5831 H   0  0  0  0  0  0
  -26.8114  -30.9171   21.9632 H   0  0  0  0  0  0
  -28.0989  -29.1729   21.1297 H   0  0  0  0  0  0
  -26.1076  -25.9800   19.0327 H   0  0  0  0  0  0
  -23.9906  -27.2751   19.0517 H   0  0  0  0  0  0
  -23.6996  -30.5893   19.4022 H   0  0  0  0  0  0
  -22.7314  -29.2269   19.8828 H   0  0  0  0  0  0
  -25.1261  -36.2007   25.0840 H   0  0  0  0  0  0
  -20.9907  -28.3215   24.1466 H   0  0  0  0  0  0
  -20.5674  -26.2253   23.3597 H   0  0  0  0  0  0
  -21.6623  -26.7442   22.1198 H   0  0  0  0  0  0
  -19.6902  -25.6303   21.1229 H   0  0  0  0  0  0
  -19.6700  -27.3211   20.6755 H   0  0  0  0  0  0
  -17.4173  -26.6675   21.4016 H   0  0  0  0  0  0
  -18.0288  -26.0057   22.9013 H   0  0  0  0  0  0
  -19.7941  -30.7206   24.2322 H   0  0  0  0  0  0
  -17.5039  -31.6275   24.5145 H   0  0  0  0  0  0
  -15.5356  -30.3005   23.7656 H   0  0  0  0  0  0
  -15.8648  -28.0848   22.7049 H   0  0  0  0  0  0
  -24.5870  -30.7083   25.7781 H   0  0  0  0  0  0
  -24.8898  -32.2883   26.4892 H   0  0  0  0  0  0
  -25.8039  -30.8878   27.0217 H   0  0  0  0  0  0
  -26.2778  -29.6859   24.1068 H   0  0  0  0  0  0
  -27.4062  -29.7268   25.4433 H   0  0  0  0  0  0
  -27.8588  -30.4408   23.9114 H   0  0  0  0  0  0
  -27.2673  -33.3590   26.2073 H   0  0  0  0  0  0
  -28.3816  -32.6888   25.0253 H   0  0  0  0  0  0
  -28.0727  -31.8391   26.5333 H   0  0  0  0  0  0
  -28.2530  -38.0166   24.7632 H   0  0  0  0  0  0
  -28.1188  -36.2711   24.6072 H   0  0  0  0  0  0
  -27.2336  -37.1199   25.8843 H   0  0  0  0  0  0
  -20.9282  -29.8767   21.7000 H   0  0  0  0  0  0
  -26.0195  -38.2882   24.1538 H   0  0  0  0  0  0
  -32.4148  -16.8963   20.3679 H   0  0  0  0  0  0
  -33.4692  -19.0741   19.8616 H   0  0  0  0  0  0
  -32.9544  -20.3116   21.0008 H   0  0  0  0  0  0
  -32.3626  -20.3349   19.3436 H   0  0  0  0  0  0
  -27.2309  -22.2276   16.5722 H   0  0  0  0  0  0
  -26.7205  -22.8002   18.1438 H   0  0  0  0  0  0
  -27.2324  -21.1288   17.9465 H   0  0  0  0  0  0
  -29.6849  -21.7889   16.0595 H   0  0  0  0  0  0
  -29.7513  -20.6269   17.3735 H   0  0  0  0  0  0
  -30.9038  -21.9568   17.3155 H   0  0  0  0  0  0
  -30.0867  -26.3526   22.9176 H   0  0  0  0  0  0
  -29.2199  -27.7932   22.4408 H   0  0  0  0  0  0
  -30.5830  -27.2310   21.4747 H   0  0  0  0  0  0
  -27.7230  -24.1045   19.6564 H   0  0  0  0  0  0
  -27.9833  -23.2164   21.1229 H   0  0  0  0  0  0
  -30.1695  -25.0058   19.9567 H   0  0  0  0  0  0
  -30.0637  -24.3408   21.5646 H   0  0  0  0  0  0
  -29.0299  -23.5886   17.5937 H   0  0  0  0  0  0
  -30.3115  -22.7572   19.5174 H   0  0  0  0  0  0
  -27.8930  -25.7843   21.8098 H   0  0  0  0  0  0
  -29.0994  -15.2365   21.4291 H   0  0  0  0  0  0
  -28.7465  -20.5004   19.3364 H   0  0  0  0  0  0
  1 25  1  0  0  0
  1 30  2  0  0  0
  1 85  1  0  0  0
  2  3  1  0  0  0
  2 25  1  0  0  0
  2 89  1  0  0  0
  2 90  1  0  0  0
  3  4  1  0  0  0
  3 91  1  0  0  0
  3 92  1  0  0  0
  4  5  1  0  0  0
  4 93  1  0  0  0
  4 94  1  0  0  0
  5  6  1  0  0  0
  5 26  1  0  0  0
  5 95  1  0  0  0
  6 25  1  0  0  0
  6 96  1  0  0  0
  6 97  1  0  0  0
  7  8  2  0  0  0
  7 26  1  0  0  0
  7 29  1  0  0  0
  8  9  1  0  0  0
  8 22  1  0  0  0
  9 10  1  0  0  0
  9 27  2  0  0  0
 10 11  2  0  0  0
 10 15  1  0  0  0
 11 12  1  0  0  0
 11 98  1  0  0  0
 12 13  2  0  0  0
 12 99  1  0  0  0
 13 14  1  0  0  0
 13 31  1  0  0  0
 14 15  2  0  0  0
 14100  1  0  0  0
 15101  1  0  0  0
 16 17  2  0  0  0
 16 21  1  0  0  0
 16 31  1  0  0  0
 17 18  1  0  0  0
 17102  1  0  0  0
 18 19  2  0  0  0
 18103  1  0  0  0
 19 20  1  0  0  0
 19 24  1  0  0  0
 20 21  2  0  0  0
 20104  1  0  0  0
 21 23  1  0  0  0
 22 28  1  0  0  0
 22 32  2  0  0  0
 26 27  1  0  0  0
 28105  1  0  0  0
 28106  1  0  0  0
 29107  1  0  0  0
 29108  1  0  0  0
 33 34  1  0  0  0
 33 66  1  0  0  0
 33 70  2  0  0  0
 34 36  1  0  0  0
 34 59  1  0  0  0
 34109  1  0  0  0
 35 44  2  0  0  0
 35 45  1  0  0  0
 35 68  1  0  0  0
 36 56  1  0  0  0
 36110  1  0  0  0
 37 39  1  0  0  0
 37 47  1  0  0  0
 37 66  1  0  0  0
 37111  1  0  0  0
 38 43  2  0  0  0
 38 46  1  0  0  0
 38 47  1  0  0  0
 39 64  1  0  0  0
 39 67  2  0  0  0
 40 52  1  0  0  0
 40 53  2  0  0  0
 40 58  1  0  0  0
 41112  1  0  0  0
 41113  1  0  0  0
 41114  1  0  0  0
 41 48  1  0  0  0
 42 43  1  0  0  0
 42 66  1  0  0  0
 42115  1  0  0  0
 42116  1  0  0  0
 43 44  1  0  0  0
 44117  1  0  0  0
 45 46  2  0  0  0
 45118  1  0  0  0
 46119  1  0  0  0
 47120  1  0  0  0
 47121  1  0  0  0
 48 56  1  0  0  0
 48 65  1  0  0  0
 48122  1  0  0  0
 49 50  1  0  0  0
 49 53  1  0  0  0
 49 64  1  0  0  0
 49123  1  0  0  0
 50 51  1  0  0  0
 50124  1  0  0  0
 50125  1  0  0  0
 51 52  1  0  0  0
 51126  1  0  0  0
 51127  1  0  0  0
 52128  1  0  0  0
 52129  1  0  0  0
 53 54  1  0  0  0
 54 55  2  0  0  0
 54130  1  0  0  0
 55 57  1  0  0  0
 55131  1  0  0  0
 56 69  2  0  0  0
 57 58  2  0  0  0
 57132  1  0  0  0
 58133  1  0  0  0
 59 60  1  0  0  0
 59 61  1  0  0  0
 59 62  1  0  0  0
 60134  1  0  0  0
 60135  1  0  0  0
 60136  1  0  0  0
 61137  1  0  0  0
 61138  1  0  0  0
 61139  1  0  0  0
 62140  1  0  0  0
 62141  1  0  0  0
 62142  1  0  0  0
 63 65  1  0  0  0
 63143  1  0  0  0
 63144  1  0  0  0
 63145  1  0  0  0
 64146  1  0  0  0
 65147  1  0  0  0
 68 84  1  0  0  0
 71 72  1  0  0  0
 71 74  2  0  0  0
 71148  1  0  0  0
 72 73  2  0  0  0
 72 76  1  0  0  0
 73 75  1  0  0  0
 73 88  1  0  0  0
 74 85  1  0  0  0
 74 88  1  0  0  0
 75 86  1  0  0  0
 75 87  2  0  0  0
 76149  1  0  0  0
 76150  1  0  0  0
 76151  1  0  0  0
 77152  1  0  0  0
 77153  1  0  0  0
 77154  1  0  0  0
 77 82  1  0  0  0
 78 82  1  0  0  0
 78155  1  0  0  0
 78156  1  0  0  0
 78157  1  0  0  0
 79158  1  0  0  0
 79159  1  0  0  0
 79160  1  0  0  0
 79 84  1  0  0  0
 80 81  1  0  0  0
 80161  1  0  0  0
 80162  1  0  0  0
 80 83  1  0  0  0
 81 84  1  0  0  0
 81163  1  0  0  0
 81164  1  0  0  0
 82 83  1  0  0  0
 82165  1  0  0  0
 83 86  1  0  0  0
 83166  1  0  0  0
 84167  1  0  0  0
 85168  1  0  0  0
 86169  1  0  0  0
M  ISO  4   1 100  68 101  84 101  85 100
M  END
> <chiral flag>
0

> <version>
0

> <s_m_source_file>
/data/baiqing/PycharmProjects/Reinvent-master-3.2/result/LINK_invent/BTK/process_docking_weight1_custom_product_contain_oxygen_bond_distance_aromatic_linkinvent_7_9_3/rearranged_h_0187.sdf

> <i_m_source_file_index>
58

> <r_mmod_Potential_Energy-OPLS-2005>
-73.4874114990234

> <r_mmod_Stretch_Energy-OPLS-2005>
32.2327156066895

> <r_mmod_Bend_Energy-OPLS-2005>
101.49153137207

> <r_mmod_Torsional_Energy-OPLS-2005>
314.214782714844

> <r_mmod_Improper_Torsional_Energy-OPLS-2005>
7.90346622467041

> <r_mmod_Van_der_Waal_Energy-OPLS-2005>
127.892707824707

> <r_mmod_Electrostatic_Energy-OPLS-2005>
-455.58154296875

> <r_mmod_Solvation_Energy-OPLS-2005>
-211.517852783203

> <b_mmod_Minimization_Converged-OPLS-2005>
0

> <r_mmod_RMS_Derivative-OPLS-2005>
1.83822202682495

$$$$
60
                    3D
 Structure written by MMmdl.
160168  0  0  1  0            999 V2000
  -30.7352  -14.4672   20.4655 C   0  0  0  0  0  0
  -30.4044  -12.2741   19.4422 C   0  0  0  0  0  0
  -29.4915  -12.4548   18.2148 C   0  0  0  0  0  0
  -28.0129  -12.3264   18.6284 C   0  0  0  0  0  0
  -27.6522  -13.2104   19.8537 C   0  0  2  0  0  0
  -28.6975  -13.0665   20.9849 C   0  0  0  0  0  0
  -25.2575  -13.8217   20.5689 C   0  0  0  0  0  0
  -24.1851  -13.0488   20.9213 C   0  0  0  0  0  0
  -24.6389  -11.6946   20.8760 C   0  0  0  0  0  0
  -23.9077  -10.4329   21.0411 C   0  0  0  0  0  0
  -24.3656   -9.4255   21.9177 C   0  0  0  0  0  0
  -23.6352   -8.2278   22.0743 C   0  0  0  0  0  0
  -22.4326   -8.0308   21.3546 C   0  0  0  0  0  0
  -21.9941   -9.0286   20.4660 C   0  0  0  0  0  0
  -22.7246  -10.2173   20.3070 C   0  0  0  0  0  0
  -21.6872   -6.0775   22.5289 C   0  0  0  0  0  0
  -21.4021   -6.5669   23.8228 C   0  0  0  0  0  0
  -21.3665   -5.6816   24.9184 C   0  0  0  0  0  0
  -21.6054   -4.3078   24.7226 C   0  0  0  0  0  0
  -21.8827   -3.8174   23.4338 C   0  0  0  0  0  0
  -21.9208   -4.6999   22.3404 C   0  0  0  0  0  0
  -22.7869  -13.5270   21.1857 C   0  0  0  0  0  0
  -22.1671   -4.2197   21.0967 F   0  0  0  0  0  0
  -21.5614   -3.4546   25.7719 F   0  0  0  0  0  0
  -30.0296  -13.3070   20.4155 N   0  0  0  0  0  0
  -26.2993  -12.9380   20.3311 N   0  0  0  0  0  0
  -25.9319  -11.6540   20.5803 N   0  0  0  0  0  0
  -22.0525  -12.8279   22.0422 N   0  0  0  0  0  0
  -25.4279  -15.1948   20.4059 N   0  0  0  0  0  0
  -31.9378  -14.5131   20.2051 O   0  0  0  0  0  0
  -21.6676   -6.8917   21.4249 O   0  0  0  0  0  0
  -22.3554  -14.5577   20.6679 O   0  0  0  0  0  0
  -24.6136  -31.8670   23.2115 C   0  0  0  0  0  0
  -25.9020  -32.4827   23.8387 C   0  0  1  0  0  0
  -27.2238  -27.4071   20.0803 C   0  0  0  0  0  0
  -25.5856  -33.8633   24.2273 N   0  0  0  0  0  0
  -23.4052  -30.4905   21.5531 C   0  0  2  0  0  0
  -24.8557  -28.9690   20.1089 C   0  0  0  0  0  0
  -22.7414  -29.4623   22.4973 C   0  0  0  0  0  0
  -18.0251  -28.1372   22.8491 C   0  0  0  0  0  0
  -24.1504  -36.7311   23.2635 C   0  0  0  0  0  0
  -25.9459  -30.8091   21.3918 C   0  0  0  0  0  0
  -26.0175  -29.4511   20.7251 C   0  0  0  0  0  0
  -27.2048  -28.6741   20.7173 C   0  0  0  0  0  0
  -26.0500  -26.9838   19.4119 C   0  0  0  0  0  0
  -24.8700  -27.7357   19.4460 C   0  0  0  0  0  0
  -23.6168  -29.8304   20.1673 C   0  0  0  0  0  0
  -25.4126  -36.3115   24.0324 C   0  0  1  0  0  0
  -20.5849  -28.3638   23.1305 C   0  0  2  0  0  0
  -20.6735  -26.9354   22.5420 C   0  0  0  0  0  0
  -19.5706  -26.6359   21.5217 C   0  0  0  0  0  0
  -18.1882  -26.7909   22.1625 C   0  0  0  0  0  0
  -19.1507  -28.8818   23.2901 C   0  0  0  0  0  0
  -18.9447  -30.1430   23.8905 C   0  0  0  0  0  0
  -17.6453  -30.6580   24.0560 C   0  0  0  0  0  0
  -25.9046  -34.9485   23.5097 C   0  0  0  0  0  0
  -16.5339  -29.9083   23.6345 C   0  0  0  0  0  0
  -16.7241  -28.6509   23.0345 C   0  0  0  0  0  0
  -26.4404  -31.6648   25.0762 C   0  0  0  0  0  0
  -25.3640  -31.3848   26.1505 C   0  0  0  0  0  0
  -27.0198  -30.3025   24.6291 C   0  0  0  0  0  0
  -27.5961  -32.4407   25.7496 C   0  0  0  0  0  0
  -27.5601  -37.1795   24.8439 C   0  0  0  0  0  0
  -21.4126  -29.3009   22.3714 N   0  0  0  0  0  0
  -26.4304  -37.3806   23.9406 N   0  0  0  0  0  0
  -24.6710  -31.0736   22.1051 N   0  0  0  0  0  0
  -23.4179  -28.8145   23.2996 O   0  0  0  0  0  0
  -28.3513  -26.5953   20.1267 O   0  0  0  0  0  0
  -26.5655  -34.8933   22.4690 O   0  0  0  0  0  0
  -23.5314  -32.1419   23.7496 O   0  0  0  0  0  0
  -31.2059  -17.0142   18.9488 C   0  0  0  0  0  0
  -31.4637  -18.2728   18.3973 C   0  0  0  0  0  0
  -30.7900  -19.3960   18.8893 C   0  0  0  0  0  0
  -30.2869  -16.8832   20.0179 C   0  0  0  0  0  0
  -29.8677  -19.2120   19.9472 C   0  0  0  0  0  0
  -28.9604  -22.4798   18.4117 C   0  0  0  0  0  0
  -31.0733  -21.8228   20.9524 C   0  0  0  0  0  0
  -29.1814  -24.1825   20.2978 C   0  0  0  0  0  0
  -28.1143  -25.1987   19.8277 C   0  0  0  0  0  0
  -28.8185  -22.7062   19.9273 C   0  0  2  0  0  0
  -29.5505  -21.6274   20.7936 C   0  0  1  0  0  0
  -29.6232  -17.9825   20.4737 N   0  0  0  0  0  0
  -30.0019  -15.5936   20.5822 N   0  0  0  0  0  0
  -29.1092  -20.2426   20.5351 N   0  0  0  0  0  0
  -32.3566  -18.3987   17.3849 F   0  0  0  0  0  0
  -31.0411  -20.5971   18.3242 F   0  0  0  0  0  0
  -31.4526  -12.3335   19.1430 H   0  0  0  0  0  0
  -30.2677  -11.2818   19.8740 H   0  0  0  0  0  0
  -29.7314  -11.7030   17.4630 H   0  0  0  0  0  0
  -29.6734  -13.4258   17.7517 H   0  0  0  0  0  0
  -27.8303  -11.2756   18.8642 H   0  0  0  0  0  0
  -27.3601  -12.5633   17.7867 H   0  0  0  0  0  0
  -27.6720  -14.2421   19.5042 H   0  0  0  0  0  0
  -28.6594  -12.0683   21.4198 H   0  0  0  0  0  0
  -28.4810  -13.7592   21.7998 H   0  0  0  0  0  0
  -25.2809   -9.5764   22.4731 H   0  0  0  0  0  0
  -24.0107   -7.4681   22.7440 H   0  0  0  0  0  0
  -21.0880   -8.8811   19.8958 H   0  0  0  0  0  0
  -22.3704  -10.9732   19.6202 H   0  0  0  0  0  0
  -21.2002   -7.6172   23.9751 H   0  0  0  0  0  0
  -21.1468   -6.0525   25.9100 H   0  0  0  0  0  0
  -22.0589   -2.7630   23.2824 H   0  0  0  0  0  0
  -22.4143  -11.9982   22.4904 H   0  0  0  0  0  0
  -21.1113  -13.1266   22.2543 H   0  0  0  0  0  0
  -24.6633  -15.8488   20.5297 H   0  0  0  0  0  0
  -26.2767  -15.6448   20.0896 H   0  0  0  0  0  0
  -26.7094  -32.5514   23.1142 H   0  0  0  0  0  0
  -24.9939  -33.9795   25.0363 H   0  0  0  0  0  0
  -22.6898  -31.3036   21.4148 H   0  0  0  0  0  0
  -23.3787  -35.9622   23.3287 H   0  0  0  0  0  0
  -24.3594  -36.8948   22.2049 H   0  0  0  0  0  0
  -23.7229  -37.6491   23.6674 H   0  0  0  0  0  0
  -26.1006  -31.5833   20.6389 H   0  0  0  0  0  0
  -26.8141  -30.8338   22.0392 H   0  0  0  0  0  0
  -28.0906  -29.0291   21.2255 H   0  0  0  0  0  0
  -26.0127  -26.0696   18.8409 H   0  0  0  0  0  0
  -23.9970  -27.3655   18.9279 H   0  0  0  0  0  0
  -23.7071  -30.6027   19.4026 H   0  0  0  0  0  0
  -22.7494  -29.2337   19.8816 H   0  0  0  0  0  0
  -25.1320  -36.1961   25.0819 H   0  0  0  0  0  0
  -20.9949  -28.3225   24.1422 H   0  0  0  0  0  0
  -20.5609  -26.2232   23.3613 H   0  0  0  0  0  0
  -21.6599  -26.7350   22.1214 H   0  0  0  0  0  0
  -19.6830  -25.6277   21.1228 H   0  0  0  0  0  0
  -19.6662  -27.3192   20.6774 H   0  0  0  0  0  0
  -17.4136  -26.6642   21.4047 H   0  0  0  0  0  0
  -18.0278  -26.0047   22.9023 H   0  0  0  0  0  0
  -19.7938  -30.7232   24.2254 H   0  0  0  0  0  0
  -17.5024  -31.6273   24.5135 H   0  0  0  0  0  0
  -15.5343  -30.2985   23.7681 H   0  0  0  0  0  0
  -15.8638  -28.0858   22.7028 H   0  0  0  0  0  0
  -24.5807  -30.7176   25.7893 H   0  0  0  0  0  0
  -24.8830  -32.3041   26.4873 H   0  0  0  0  0  0
  -25.7960  -30.9099   27.0321 H   0  0  0  0  0  0
  -26.2784  -29.6852   24.1201 H   0  0  0  0  0  0
  -27.3649  -29.7245   25.4871 H   0  0  0  0  0  0
  -27.8788  -30.4211   23.9681 H   0  0  0  0  0  0
  -27.2509  -33.3637   26.2179 H   0  0  0  0  0  0
  -28.3682  -32.7111   25.0280 H   0  0  0  0  0  0
  -28.0739  -31.8505   26.5323 H   0  0  0  0  0  0
  -28.2605  -38.0111   24.7548 H   0  0  0  0  0  0
  -28.1108  -36.2646   24.6191 H   0  0  0  0  0  0
  -27.2330  -37.1371   25.8843 H   0  0  0  0  0  0
  -20.9241  -29.8759   21.6987 H   0  0  0  0  0  0
  -26.0196  -38.2883   24.1430 H   0  0  0  0  0  0
  -31.7402  -16.1813   18.5196 H   0  0  0  0  0  0
  -28.3235  -23.1456   17.8323 H   0  0  0  0  0  0
  -28.6747  -21.4625   18.1426 H   0  0  0  0  0  0
  -29.9835  -22.6574   18.0845 H   0  0  0  0  0  0
  -31.2766  -22.6277   21.6585 H   0  0  0  0  0  0
  -31.5618  -22.0989   20.0193 H   0  0  0  0  0  0
  -31.5667  -20.9343   21.3444 H   0  0  0  0  0  0
  -29.2743  -24.2703   21.3803 H   0  0  0  0  0  0
  -30.1572  -24.4417   19.8802 H   0  0  0  0  0  0
  -27.1807  -24.8745   20.2972 H   0  0  0  0  0  0
  -27.9787  -25.1104   18.7492 H   0  0  0  0  0  0
  -27.7578  -22.5707   20.1511 H   0  0  0  0  0  0
  -29.1640  -21.7710   21.8035 H   0  0  0  0  0  0
  -29.0787  -15.4735   20.9633 H   0  0  0  0  0  0
  -28.4535  -19.8893   21.2226 H   0  0  0  0  0  0
  1 25  1  0  0  0
  1 30  2  0  0  0
  1 83  1  0  0  0
  2  3  1  0  0  0
  2 25  1  0  0  0
  2 87  1  0  0  0
  2 88  1  0  0  0
  3  4  1  0  0  0
  3 89  1  0  0  0
  3 90  1  0  0  0
  4  5  1  0  0  0
  4 91  1  0  0  0
  4 92  1  0  0  0
  5  6  1  0  0  0
  5 26  1  0  0  0
  5 93  1  0  0  0
  6 25  1  0  0  0
  6 94  1  0  0  0
  6 95  1  0  0  0
  7  8  2  0  0  0
  7 26  1  0  0  0
  7 29  1  0  0  0
  8  9  1  0  0  0
  8 22  1  0  0  0
  9 10  1  0  0  0
  9 27  2  0  0  0
 10 11  2  0  0  0
 10 15  1  0  0  0
 11 12  1  0  0  0
 11 96  1  0  0  0
 12 13  2  0  0  0
 12 97  1  0  0  0
 13 14  1  0  0  0
 13 31  1  0  0  0
 14 15  2  0  0  0
 14 98  1  0  0  0
 15 99  1  0  0  0
 16 17  2  0  0  0
 16 21  1  0  0  0
 16 31  1  0  0  0
 17 18  1  0  0  0
 17100  1  0  0  0
 18 19  2  0  0  0
 18101  1  0  0  0
 19 20  1  0  0  0
 19 24  1  0  0  0
 20 21  2  0  0  0
 20102  1  0  0  0
 21 23  1  0  0  0
 22 28  1  0  0  0
 22 32  2  0  0  0
 26 27  1  0  0  0
 28103  1  0  0  0
 28104  1  0  0  0
 29105  1  0  0  0
 29106  1  0  0  0
 33 34  1  0  0  0
 33 66  1  0  0  0
 33 70  2  0  0  0
 34 36  1  0  0  0
 34 59  1  0  0  0
 34107  1  0  0  0
 35 44  2  0  0  0
 35 45  1  0  0  0
 35 68  1  0  0  0
 36 56  1  0  0  0
 36108  1  0  0  0
 37 39  1  0  0  0
 37 47  1  0  0  0
 37 66  1  0  0  0
 37109  1  0  0  0
 38 43  2  0  0  0
 38 46  1  0  0  0
 38 47  1  0  0  0
 39 64  1  0  0  0
 39 67  2  0  0  0
 40 52  1  0  0  0
 40 53  2  0  0  0
 40 58  1  0  0  0
 41110  1  0  0  0
 41111  1  0  0  0
 41112  1  0  0  0
 41 48  1  0  0  0
 42 43  1  0  0  0
 42 66  1  0  0  0
 42113  1  0  0  0
 42114  1  0  0  0
 43 44  1  0  0  0
 44115  1  0  0  0
 45 46  2  0  0  0
 45116  1  0  0  0
 46117  1  0  0  0
 47118  1  0  0  0
 47119  1  0  0  0
 48 56  1  0  0  0
 48 65  1  0  0  0
 48120  1  0  0  0
 49 50  1  0  0  0
 49 53  1  0  0  0
 49 64  1  0  0  0
 49121  1  0  0  0
 50 51  1  0  0  0
 50122  1  0  0  0
 50123  1  0  0  0
 51 52  1  0  0  0
 51124  1  0  0  0
 51125  1  0  0  0
 52126  1  0  0  0
 52127  1  0  0  0
 53 54  1  0  0  0
 54 55  2  0  0  0
 54128  1  0  0  0
 55 57  1  0  0  0
 55129  1  0  0  0
 56 69  2  0  0  0
 57 58  2  0  0  0
 57130  1  0  0  0
 58131  1  0  0  0
 59 60  1  0  0  0
 59 61  1  0  0  0
 59 62  1  0  0  0
 60132  1  0  0  0
 60133  1  0  0  0
 60134  1  0  0  0
 61135  1  0  0  0
 61136  1  0  0  0
 61137  1  0  0  0
 62138  1  0  0  0
 62139  1  0  0  0
 62140  1  0  0  0
 63 65  1  0  0  0
 63141  1  0  0  0
 63142  1  0  0  0
 63143  1  0  0  0
 64144  1  0  0  0
 65145  1  0  0  0
 68 79  1  0  0  0
 71 72  2  0  0  0
 71 74  1  0  0  0
 71146  1  0  0  0
 72 73  1  0  0  0
 72 85  1  0  0  0
 73 75  2  0  0  0
 73 86  1  0  0  0
 74 82  2  0  0  0
 74 83  1  0  0  0
 75 82  1  0  0  0
 75 84  1  0  0  0
 76147  1  0  0  0
 76148  1  0  0  0
 76149  1  0  0  0
 76 80  1  0  0  0
 77150  1  0  0  0
 77151  1  0  0  0
 77152  1  0  0  0
 77 81  1  0  0  0
 78 79  1  0  0  0
 78 80  1  0  0  0
 78153  1  0  0  0
 78154  1  0  0  0
 79155  1  0  0  0
 79156  1  0  0  0
 80 81  1  0  0  0
 80157  1  0  0  0
 81 84  1  0  0  0
 81158  1  0  0  0
 83159  1  0  0  0
 84160  1  0  0  0
M  ISO  4   1 100  68 101  79 101  83 100
M  END
> <chiral flag>
0

> <version>
0

> <s_m_source_file>
/data/baiqing/PycharmProjects/Reinvent-master-3.2/result/LINK_invent/BTK/process_docking_weight1_custom_product_contain_oxygen_bond_distance_aromatic_linkinvent_7_9_3/rearranged_h_0187.sdf

> <i_m_source_file_index>
59

> <r_mmod_Potential_Energy-OPLS-2005>
-91.3614120483398

> <r_mmod_Stretch_Energy-OPLS-2005>
42.5707778930664

> <r_mmod_Bend_Energy-OPLS-2005>
132.422561645508

> <r_mmod_Torsional_Energy-OPLS-2005>
246.924560546875

> <r_mmod_Improper_Torsional_Energy-OPLS-2005>
8.13572978973389

> <r_mmod_Van_der_Waal_Energy-OPLS-2005>
179.825088500977

> <r_mmod_Electrostatic_Energy-OPLS-2005>
-521.76171875

> <r_mmod_Solvation_Energy-OPLS-2005>
-210.536376953125

> <b_mmod_Minimization_Converged-OPLS-2005>
0

> <r_mmod_RMS_Derivative-OPLS-2005>
4.1645622253418

$$$$
61
                    3D
 Structure written by MMmdl.
157165  0  0  1  0            999 V2000
  -30.6379  -14.5344   20.5579 C   0  0  0  0  0  0
  -30.4199  -12.3505   19.4040 C   0  0  0  0  0  0
  -29.4825  -12.5464   18.1921 C   0  0  0  0  0  0
  -28.0078  -12.3994   18.6107 C   0  0  0  0  0  0
  -27.6613  -13.2122   19.8867 C   0  0  2  0  0  0
  -28.7070  -12.9783   20.9999 C   0  0  0  0  0  0
  -25.2605  -13.8181   20.5741 C   0  0  0  0  0  0
  -24.1845  -13.0427   20.9244 C   0  0  0  0  0  0
  -24.6401  -11.6901   20.8755 C   0  0  0  0  0  0
  -23.9068  -10.4269   21.0398 C   0  0  0  0  0  0
  -24.3622   -9.4194   21.9190 C   0  0  0  0  0  0
  -23.6303   -8.2232   22.0766 C   0  0  0  0  0  0
  -22.4281   -8.0273   21.3544 C   0  0  0  0  0  0
  -21.9918   -9.0239   20.4629 C   0  0  0  0  0  0
  -22.7234  -10.2132   20.3053 C   0  0  0  0  0  0
  -21.6863   -6.0728   22.5285 C   0  0  0  0  0  0
  -21.3997   -6.5653   23.8196 C   0  0  0  0  0  0
  -21.3650   -5.6837   24.9171 C   0  0  0  0  0  0
  -21.6043   -4.3099   24.7242 C   0  0  0  0  0  0
  -21.8814   -3.8160   23.4374 C   0  0  0  0  0  0
  -21.9189   -4.6960   22.3422 C   0  0  0  0  0  0
  -22.7862  -13.5208   21.1877 C   0  0  0  0  0  0
  -22.1674   -4.2117   21.1027 F   0  0  0  0  0  0
  -21.5605   -3.4591   25.7767 F   0  0  0  0  0  0
  -30.0269  -13.3179   20.4497 N   0  0  0  0  0  0
  -26.3022  -12.9330   20.3458 N   0  0  0  0  0  0
  -25.9335  -11.6484   20.5817 N   0  0  0  0  0  0
  -22.0559  -12.8130   22.0430 N   0  0  0  0  0  0
  -25.4429  -15.1872   20.4150 N   0  0  0  0  0  0
  -31.7429  -14.7656   20.0544 O   0  0  0  0  0  0
  -21.6630   -6.8879   21.4250 O   0  0  0  0  0  0
  -22.3516  -14.5497   20.6738 O   0  0  0  0  0  0
  -24.6176  -31.8659   23.2055 C   0  0  0  0  0  0
  -25.9057  -32.4796   23.8365 C   0  0  1  0  0  0
  -27.2297  -27.4051   20.1185 C   0  0  0  0  0  0
  -25.5909  -33.8607   24.2269 N   0  0  0  0  0  0
  -23.4082  -30.4890   21.5439 C   0  0  2  0  0  0
  -24.8549  -28.9482   20.1143 C   0  0  0  0  0  0
  -22.7442  -29.4653   22.4938 C   0  0  0  0  0  0
  -18.0298  -28.1391   22.8511 C   0  0  0  0  0  0
  -24.1496  -36.7307   23.2633 C   0  0  0  0  0  0
  -25.9400  -30.8257   21.3653 C   0  0  0  0  0  0
  -26.0183  -29.4577   20.7086 C   0  0  0  0  0  0
  -27.2140  -28.6971   20.6955 C   0  0  0  0  0  0
  -26.0524  -26.9096   19.5221 C   0  0  0  0  0  0
  -24.8684  -27.6759   19.5150 C   0  0  0  0  0  0
  -23.6187  -29.8186   20.1601 C   0  0  0  0  0  0
  -25.4120  -36.3102   24.0321 C   0  0  1  0  0  0
  -20.5876  -28.3670   23.1307 C   0  0  2  0  0  0
  -20.6756  -26.9392   22.5428 C   0  0  0  0  0  0
  -19.5720  -26.6381   21.5230 C   0  0  0  0  0  0
  -18.1909  -26.7919   22.1648 C   0  0  0  0  0  0
  -19.1534  -28.8850   23.2893 C   0  0  0  0  0  0
  -18.9458  -30.1456   23.8892 C   0  0  0  0  0  0
  -17.6458  -30.6582   24.0566 C   0  0  0  0  0  0
  -25.9056  -34.9465   23.5084 C   0  0  0  0  0  0
  -16.5357  -29.9085   23.6327 C   0  0  0  0  0  0
  -16.7287  -28.6505   23.0354 C   0  0  0  0  0  0
  -26.4457  -31.6617   25.0732 C   0  0  0  0  0  0
  -25.3686  -31.3773   26.1462 C   0  0  0  0  0  0
  -27.0322  -30.3036   24.6187 C   0  0  0  0  0  0
  -27.5973  -32.4404   25.7554 C   0  0  0  0  0  0
  -27.5586  -37.1813   24.8441 C   0  0  0  0  0  0
  -21.4148  -29.3035   22.3695 N   0  0  0  0  0  0
  -26.4294  -37.3792   23.9395 N   0  0  0  0  0  0
  -24.6715  -31.0743   22.0978 N   0  0  0  0  0  0
  -23.4200  -28.8201   23.3003 O   0  0  0  0  0  0
  -28.3807  -26.6438   20.0733 O   0  0  0  0  0  0
  -26.5630  -34.8921   22.4659 O   0  0  0  0  0  0
  -23.5359  -32.1427   23.7411 O   0  0  0  0  0  0
  -29.2001  -19.0521   20.6610 C   0  0  0  0  0  0
  -28.6484  -18.7492   19.4319 C   0  0  0  0  0  0
  -29.6031  -16.7913   20.6670 C   0  0  0  0  0  0
  -29.3861  -20.4208   21.2368 C   0  0  0  0  0  0
  -30.6962  -23.2413   20.3082 C   0  0  0  0  0  0
  -28.2747  -24.0708   20.3524 C   0  0  0  0  0  0
  -28.4677  -25.5060   20.9675 C   0  0  0  0  0  0
  -29.2881  -22.9793   20.8748 C   0  0  1  0  0  0
  -29.7217  -17.9363   21.3723 N   0  0  0  0  0  0
  -28.0314  -19.5808   18.4932 N   0  0  0  0  0  0
  -30.0772  -20.5052   22.3877 N   0  0  0  0  0  0
  -29.9343  -15.4991   21.2008 N   0  0  0  0  0  0
  -28.9360  -21.5452   20.5988 N   0  3  0  0  0  0
  -28.8069  -17.0330   19.1002 S   0  0  0  0  0  0
  -31.4586  -12.4691   19.0915 H   0  0  0  0  0  0
  -30.3409  -11.3266   19.7759 H   0  0  0  0  0  0
  -29.7144  -11.8285   17.4057 H   0  0  0  0  0  0
  -29.6459  -13.5347   17.7597 H   0  0  0  0  0  0
  -27.8073  -11.3417   18.7807 H   0  0  0  0  0  0
  -27.3539  -12.7047   17.7943 H   0  0  0  0  0  0
  -27.7116  -14.2652   19.6103 H   0  0  0  0  0  0
  -28.6900  -11.9351   21.3136 H   0  0  0  0  0  0
  -28.4598  -13.5480   21.8956 H   0  0  0  0  0  0
  -25.2796   -9.5648   22.4726 H   0  0  0  0  0  0
  -24.0000   -7.4604   22.7497 H   0  0  0  0  0  0
  -21.0867   -8.8748   19.8933 H   0  0  0  0  0  0
  -22.3703  -10.9667   19.6132 H   0  0  0  0  0  0
  -21.2000   -7.6170   23.9690 H   0  0  0  0  0  0
  -21.1479   -6.0575   25.9066 H   0  0  0  0  0  0
  -22.0606   -2.7613   23.2901 H   0  0  0  0  0  0
  -22.4252  -11.9745   22.4688 H   0  0  0  0  0  0
  -21.1152  -13.1008   22.2659 H   0  0  0  0  0  0
  -24.6840  -15.8548   20.4902 H   0  0  0  0  0  0
  -26.2962  -15.6024   20.0691 H   0  0  0  0  0  0
  -26.7161  -32.5497   23.1172 H   0  0  0  0  0  0
  -25.0015  -33.9773   25.0367 H   0  0  0  0  0  0
  -22.6947  -31.3029   21.4029 H   0  0  0  0  0  0
  -23.3777  -35.9623   23.3262 H   0  0  0  0  0  0
  -24.3569  -36.8982   22.2053 H   0  0  0  0  0  0
  -23.7259  -37.6488   23.6704 H   0  0  0  0  0  0
  -26.0622  -31.5999   20.6041 H   0  0  0  0  0  0
  -26.8237  -30.8715   21.9931 H   0  0  0  0  0  0
  -28.1175  -29.0915   21.1382 H   0  0  0  0  0  0
  -26.0534  -25.9329   19.0580 H   0  0  0  0  0  0
  -23.9754  -27.2784   19.0520 H   0  0  0  0  0  0
  -23.7187  -30.5936   19.3986 H   0  0  0  0  0  0
  -22.7461  -29.2316   19.8698 H   0  0  0  0  0  0
  -25.1307  -36.1923   25.0824 H   0  0  0  0  0  0
  -20.9970  -28.3265   24.1416 H   0  0  0  0  0  0
  -20.5646  -26.2281   23.3628 H   0  0  0  0  0  0
  -21.6627  -26.7416   22.1212 H   0  0  0  0  0  0
  -19.6844  -25.6300   21.1232 H   0  0  0  0  0  0
  -19.6637  -27.3206   20.6766 H   0  0  0  0  0  0
  -17.4176  -26.6725   21.4065 H   0  0  0  0  0  0
  -18.0278  -26.0082   22.9055 H   0  0  0  0  0  0
  -19.7934  -30.7286   24.2239 H   0  0  0  0  0  0
  -17.5019  -31.6245   24.5203 H   0  0  0  0  0  0
  -15.5347  -30.2985   23.7628 H   0  0  0  0  0  0
  -15.8701  -28.0816   22.7036 H   0  0  0  0  0  0
  -24.5787  -30.7228   25.7765 H   0  0  0  0  0  0
  -24.8971  -32.2977   26.4924 H   0  0  0  0  0  0
  -25.7981  -30.8880   27.0209 H   0  0  0  0  0  0
  -26.2933  -29.6835   24.1097 H   0  0  0  0  0  0
  -27.3901  -29.7245   25.4707 H   0  0  0  0  0  0
  -27.8843  -30.4318   23.9500 H   0  0  0  0  0  0
  -27.2475  -33.3655   26.2157 H   0  0  0  0  0  0
  -28.3783  -32.7078   25.0424 H   0  0  0  0  0  0
  -28.0661  -31.8553   26.5475 H   0  0  0  0  0  0
  -28.2540  -38.0167   24.7556 H   0  0  0  0  0  0
  -28.1152  -36.2696   24.6202 H   0  0  0  0  0  0
  -27.2289  -37.1373   25.8835 H   0  0  0  0  0  0
  -20.9293  -29.8781   21.6938 H   0  0  0  0  0  0
  -26.0157  -38.2848   24.1459 H   0  0  0  0  0  0
  -31.1985  -24.0599   20.8220 H   0  0  0  0  0  0
  -30.6582  -23.5029   19.2500 H   0  0  0  0  0  0
  -31.3428  -22.3671   20.3972 H   0  0  0  0  0  0
  -28.3697  -24.1481   19.2693 H   0  0  0  0  0  0
  -27.2499  -23.7442   20.5279 H   0  0  0  0  0  0
  -29.4677  -25.5707   21.3960 H   0  0  0  0  0  0
  -27.7950  -25.6360   21.8192 H   0  0  0  0  0  0
  -29.3218  -23.0641   21.9621 H   0  0  0  0  0  0
  -27.0216  -19.4321   18.4991 H   0  0  0  0  0  0
  -28.3160  -19.3352   17.5461 H   0  0  0  0  0  0
  -30.3431  -19.6204   22.8026 H   0  0  0  0  0  0
  -30.3812  -21.3547   22.8302 H   0  0  0  0  0  0
  -29.2252  -15.1268   21.8098 H   0  0  0  0  0  0
  -28.4781  -21.3381   19.7110 H   0  0  0  0  0  0
  1 25  1  0  0  0
  1 30  2  0  0  0
  1 82  1  0  0  0
  2  3  1  0  0  0
  2 25  1  0  0  0
  2 85  1  0  0  0
  2 86  1  0  0  0
  3  4  1  0  0  0
  3 87  1  0  0  0
  3 88  1  0  0  0
  4  5  1  0  0  0
  4 89  1  0  0  0
  4 90  1  0  0  0
  5  6  1  0  0  0
  5 26  1  0  0  0
  5 91  1  0  0  0
  6 25  1  0  0  0
  6 92  1  0  0  0
  6 93  1  0  0  0
  7  8  2  0  0  0
  7 26  1  0  0  0
  7 29  1  0  0  0
  8  9  1  0  0  0
  8 22  1  0  0  0
  9 10  1  0  0  0
  9 27  2  0  0  0
 10 11  2  0  0  0
 10 15  1  0  0  0
 11 12  1  0  0  0
 11 94  1  0  0  0
 12 13  2  0  0  0
 12 95  1  0  0  0
 13 14  1  0  0  0
 13 31  1  0  0  0
 14 15  2  0  0  0
 14 96  1  0  0  0
 15 97  1  0  0  0
 16 17  2  0  0  0
 16 21  1  0  0  0
 16 31  1  0  0  0
 17 18  1  0  0  0
 17 98  1  0  0  0
 18 19  2  0  0  0
 18 99  1  0  0  0
 19 20  1  0  0  0
 19 24  1  0  0  0
 20 21  2  0  0  0
 20100  1  0  0  0
 21 23  1  0  0  0
 22 28  1  0  0  0
 22 32  2  0  0  0
 26 27  1  0  0  0
 28101  1  0  0  0
 28102  1  0  0  0
 29103  1  0  0  0
 29104  1  0  0  0
 33 34  1  0  0  0
 33 66  1  0  0  0
 33 70  2  0  0  0
 34 36  1  0  0  0
 34 59  1  0  0  0
 34105  1  0  0  0
 35 44  2  0  0  0
 35 45  1  0  0  0
 35 68  1  0  0  0
 36 56  1  0  0  0
 36106  1  0  0  0
 37 39  1  0  0  0
 37 47  1  0  0  0
 37 66  1  0  0  0
 37107  1  0  0  0
 38 43  2  0  0  0
 38 46  1  0  0  0
 38 47  1  0  0  0
 39 64  1  0  0  0
 39 67  2  0  0  0
 40 52  1  0  0  0
 40 53  2  0  0  0
 40 58  1  0  0  0
 41108  1  0  0  0
 41109  1  0  0  0
 41110  1  0  0  0
 41 48  1  0  0  0
 42 43  1  0  0  0
 42 66  1  0  0  0
 42111  1  0  0  0
 42112  1  0  0  0
 43 44  1  0  0  0
 44113  1  0  0  0
 45 46  2  0  0  0
 45114  1  0  0  0
 46115  1  0  0  0
 47116  1  0  0  0
 47117  1  0  0  0
 48 56  1  0  0  0
 48 65  1  0  0  0
 48118  1  0  0  0
 49 50  1  0  0  0
 49 53  1  0  0  0
 49 64  1  0  0  0
 49119  1  0  0  0
 50 51  1  0  0  0
 50120  1  0  0  0
 50121  1  0  0  0
 51 52  1  0  0  0
 51122  1  0  0  0
 51123  1  0  0  0
 52124  1  0  0  0
 52125  1  0  0  0
 53 54  1  0  0  0
 54 55  2  0  0  0
 54126  1  0  0  0
 55 57  1  0  0  0
 55127  1  0  0  0
 56 69  2  0  0  0
 57 58  2  0  0  0
 57128  1  0  0  0
 58129  1  0  0  0
 59 60  1  0  0  0
 59 61  1  0  0  0
 59 62  1  0  0  0
 60130  1  0  0  0
 60131  1  0  0  0
 60132  1  0  0  0
 61133  1  0  0  0
 61134  1  0  0  0
 61135  1  0  0  0
 62136  1  0  0  0
 62137  1  0  0  0
 62138  1  0  0  0
 63 65  1  0  0  0
 63139  1  0  0  0
 63140  1  0  0  0
 63141  1  0  0  0
 64142  1  0  0  0
 65143  1  0  0  0
 68 77  1  0  0  0
 71 72  2  0  0  0
 71 74  1  0  0  0
 71 79  1  0  0  0
 72 80  1  0  0  0
 72 84  1  0  0  0
 73 79  2  0  0  0
 73 82  1  0  0  0
 73 84  1  0  0  0
 74 81  1  0  0  0
 74 83  2  0  0  0
 75144  1  0  0  0
 75145  1  0  0  0
 75146  1  0  0  0
 75 78  1  0  0  0
 76 77  1  0  0  0
 76 78  1  0  0  0
 76147  1  0  0  0
 76148  1  0  0  0
 77149  1  0  0  0
 77150  1  0  0  0
 78 83  1  0  0  0
 78151  1  0  0  0
 80152  1  0  0  0
 80153  1  0  0  0
 81154  1  0  0  0
 81155  1  0  0  0
 82156  1  0  0  0
 83157  1  0  0  0
M  CHG  1  83   1
M  ISO  4   1 100  68 101  77 101  82 100
M  END
> <chiral flag>
0

> <version>
0

> <s_m_source_file>
/data/baiqing/PycharmProjects/Reinvent-master-3.2/result/LINK_invent/BTK/process_docking_weight1_custom_product_contain_oxygen_bond_distance_aromatic_linkinvent_7_9_3/rearranged_h_0187.sdf

> <i_m_source_file_index>
60

> <r_mmod_Potential_Energy-OPLS-2005>
-87.2754211425781

> <r_mmod_Stretch_Energy-OPLS-2005>
50.6205177307129

> <r_mmod_Bend_Energy-OPLS-2005>
121.877326965332

> <r_mmod_Torsional_Energy-OPLS-2005>
291.776092529297

> <r_mmod_Improper_Torsional_Energy-OPLS-2005>
13.6328029632568

> <r_mmod_Van_der_Waal_Energy-OPLS-2005>
120.290092468262

> <r_mmod_Electrostatic_Energy-OPLS-2005>
-264.285339355469

> <r_mmod_Solvation_Energy-OPLS-2005>
-440.288116455078

> <b_mmod_Minimization_Converged-OPLS-2005>
0

> <r_mmod_RMS_Derivative-OPLS-2005>
5.33531951904297

$$$$
62
                    3D
 Structure written by MMmdl.
171179  0  0  1  0            999 V2000
  -30.8013  -14.4634   20.7859 C   0  0  0  0  0  0
  -30.7874  -12.2686   19.3603 C   0  0  0  0  0  0
  -30.1827  -12.4343   17.5555 C   0  0  0  0  0  0
  -28.4718  -13.1601   17.0516 C   0  0  0  0  0  0
  -27.2978  -13.6963   20.2757 C   0  0  2  0  0  0
  -28.7021  -13.0841   21.3131 C   0  0  0  0  0  0
  -24.9956  -13.9087   20.8109 C   0  0  0  0  0  0
  -23.9941  -13.0394   21.0315 C   0  0  0  0  0  0
  -24.5542  -11.7220   20.9886 C   0  0  0  0  0  0
  -23.8819  -10.4236   21.0739 C   0  0  0  0  0  0
  -24.3483   -9.4098   21.9341 C   0  0  0  0  0  0
  -23.6235   -8.2082   22.0726 C   0  0  0  0  0  0
  -22.4260   -8.0158   21.3533 C   0  0  0  0  0  0
  -21.9934   -9.0095   20.4579 C   0  0  0  0  0  0
  -22.7124  -10.2019   20.3127 C   0  0  0  0  0  0
  -21.6819   -6.0661   22.5261 C   0  0  0  0  0  0
  -21.3997   -6.5608   23.8175 C   0  0  0  0  0  0
  -21.3667   -5.6784   24.9165 C   0  0  0  0  0  0
  -21.6032   -4.3036   24.7246 C   0  0  0  0  0  0
  -21.8826   -3.8104   23.4377 C   0  0  0  0  0  0
  -21.9175   -4.6896   22.3412 C   0  0  0  0  0  0
  -22.5915  -13.4704   21.2068 C   0  0  0  0  0  0
  -22.1650   -4.2073   21.0989 F   0  0  0  0  0  0
  -21.5631   -3.4533   25.7766 F   0  0  0  0  0  0
  -30.2831  -13.1302   20.7703 N   0  0  0  0  0  0
  -26.0928  -13.1284   20.7672 N   0  0  0  0  0  0
  -25.8705  -11.7864   20.8633 N   0  0  0  0  0  0
  -21.8672  -12.7642   22.0590 N   0  0  0  0  0  0
  -25.0637  -15.2894   20.6060 N   0  0  0  0  0  0
  -31.9224  -14.7045   20.3256 O   0  0  0  0  0  0
  -21.6618   -6.8755   21.4205 O   0  0  0  0  0  0
  -22.1727  -14.4923   20.6642 O   0  0  0  0  0  0
  -24.6420  -31.8476   23.1906 C   0  0  0  0  0  0
  -25.9227  -32.4683   23.8274 C   0  0  1  0  0  0
  -27.1687  -27.1570   20.1197 C   0  0  0  0  0  0
  -25.5985  -33.8498   24.2194 N   0  0  0  0  0  0
  -23.4409  -30.4746   21.5343 C   0  0  2  0  0  0
  -24.8789  -28.9154   20.1045 C   0  0  0  0  0  0
  -22.7552  -29.4570   22.4818 C   0  0  0  0  0  0
  -18.0314  -28.1384   22.8474 C   0  0  0  0  0  0
  -24.1494  -36.7272   23.2634 C   0  0  0  0  0  0
  -25.9971  -30.7262   21.3894 C   0  0  0  0  0  0
  -26.0572  -29.3391   20.7294 C   0  0  0  0  0  0
  -27.2078  -28.4673   20.7368 C   0  0  0  0  0  0
  -25.9730  -26.8449   19.4375 C   0  0  0  0  0  0
  -24.8442  -27.6774   19.4508 C   0  0  0  0  0  0
  -23.6619  -29.8160   20.1498 C   0  0  0  0  0  0
  -25.4121  -36.3008   24.0299 C   0  0  1  0  0  0
  -20.5924  -28.3733   23.1213 C   0  0  2  0  0  0
  -20.6787  -26.9430   22.5386 C   0  0  0  0  0  0
  -19.5756  -26.6379   21.5194 C   0  0  0  0  0  0
  -18.1944  -26.7924   22.1613 C   0  0  0  0  0  0
  -19.1572  -28.8870   23.2840 C   0  0  0  0  0  0
  -18.9486  -30.1459   23.8880 C   0  0  0  0  0  0
  -17.6480  -30.6584   24.0558 C   0  0  0  0  0  0
  -25.9078  -34.9391   23.5032 C   0  0  0  0  0  0
  -16.5373  -29.9085   23.6315 C   0  0  0  0  0  0
  -16.7297  -28.6493   23.0356 C   0  0  0  0  0  0
  -26.4560  -31.6550   25.0712 C   0  0  0  0  0  0
  -25.3763  -31.3762   26.1419 C   0  0  0  0  0  0
  -27.0442  -30.2942   24.6298 C   0  0  0  0  0  0
  -27.6053  -32.4335   25.7531 C   0  0  0  0  0  0
  -27.5563  -37.1784   24.8453 C   0  0  0  0  0  0
  -21.4245  -29.3079   22.3587 N   0  0  0  0  0  0
  -26.4264  -37.3736   23.9405 N   0  0  0  0  0  0
  -24.7132  -31.0370   22.0920 N   0  0  0  0  0  0
  -23.4212  -28.8098   23.2943 O   0  0  0  0  0  0
  -28.1792  -26.1445   20.1773 O   0  0  0  0  0  0
  -26.5647  -34.8896   22.4591 O   0  0  0  0  0  0
  -23.5550  -32.1337   23.7156 O   0  0  0  0  0  0
  -28.2252  -12.2205   18.9881 C   0  0  0  0  0  0
  -28.3246  -15.1925   18.6417 C   0  0  0  0  0  0
  -26.9466  -14.8688   18.1079 C   0  0  0  0  0  0
  -28.2317  -21.7893   19.9738 C   0  0  0  0  0  0
  -30.2553  -18.1141   22.3806 C   0  0  0  0  0  0
  -27.7926  -18.1680   22.9317 C   0  0  0  0  0  0
  -29.1494  -20.1950   23.0840 C   0  0  0  0  0  0
  -28.9082  -17.9546   19.5686 C   0  0  0  0  0  0
  -27.7957  -24.6665   19.9264 C   0  0  0  0  0  0
  -29.1689  -16.2613   19.5672 C   0  0  1  0  0  0
  -28.6514  -23.3223   20.3898 C   0  0  1  0  0  0
  -28.5774  -19.1719   20.6916 C   0  0  1  0  0  0
  -28.9454  -18.9107   22.2236 C   0  0  0  0  0  0
  -29.0326  -13.9274   18.9784 N   0  0  0  0  0  0
  -26.0218  -15.8426   17.7626 N   0  0  0  0  0  0
  -28.9569  -20.6591   20.3850 N   0  0  0  0  0  0
  -29.8662  -15.5318   20.7789 N   0  0  0  0  0  0
  -27.1934  -21.6271   19.3272 O   0  0  0  0  0  0
  -28.5825  -23.3634   21.8048 O   0  0  0  0  0  0
  -26.2696  -12.8789   18.0937 S   0  0  0  0  0  0
  -31.8745  -12.3827   19.3238 H   0  0  0  0  0  0
  -30.6984  -11.2134   19.6376 H   0  0  0  0  0  0
  -30.2953  -11.4597   17.0728 H   0  0  0  0  0  0
  -30.9315  -13.0482   17.0441 H   0  0  0  0  0  0
  -28.0096  -12.4158   16.3903 H   0  0  0  0  0  0
  -28.6201  -14.0363   16.4128 H   0  0  0  0  0  0
  -27.3203  -14.7085   20.6753 H   0  0  0  0  0  0
  -28.5282  -12.0319   21.5495 H   0  0  0  0  0  0
  -28.6365  -13.5566   22.2932 H   0  0  0  0  0  0
  -25.2506   -9.5646   22.5105 H   0  0  0  0  0  0
  -23.9929   -7.4462   22.7446 H   0  0  0  0  0  0
  -21.0896   -8.8564   19.8813 H   0  0  0  0  0  0
  -22.3544  -10.9637   19.6343 H   0  0  0  0  0  0
  -21.1993   -7.6111   23.9658 H   0  0  0  0  0  0
  -21.1500   -6.0528   25.9061 H   0  0  0  0  0  0
  -22.0607   -2.7564   23.2898 H   0  0  0  0  0  0
  -22.2495  -11.9558   22.5294 H   0  0  0  0  0  0
  -20.9150  -13.0408   22.2546 H   0  0  0  0  0  0
  -24.1806  -15.7787   20.4928 H   0  0  0  0  0  0
  -25.7723  -15.6703   19.9904 H   0  0  0  0  0  0
  -26.7294  -32.5298   23.1006 H   0  0  0  0  0  0
  -25.0130  -33.9616   25.0339 H   0  0  0  0  0  0
  -22.7432  -31.3004   21.3827 H   0  0  0  0  0  0
  -23.3719  -35.9636   23.3268 H   0  0  0  0  0  0
  -24.3583  -36.8939   22.2051 H   0  0  0  0  0  0
  -23.7291  -37.6478   23.6703 H   0  0  0  0  0  0
  -26.1556  -31.4805   20.6172 H   0  0  0  0  0  0
  -26.8693  -30.7722   22.0291 H   0  0  0  0  0  0
  -28.1025  -28.7654   21.2658 H   0  0  0  0  0  0
  -25.8613  -25.9173   18.8984 H   0  0  0  0  0  0
  -23.9442  -27.3520   18.9468 H   0  0  0  0  0  0
  -23.8093  -30.5880   19.3951 H   0  0  0  0  0  0
  -22.7794  -29.2607   19.8333 H   0  0  0  0  0  0
  -25.1301  -36.1806   25.0787 H   0  0  0  0  0  0
  -21.0047  -28.3320   24.1316 H   0  0  0  0  0  0
  -20.5652  -26.2349   23.3612 H   0  0  0  0  0  0
  -21.6652  -26.7399   22.1188 H   0  0  0  0  0  0
  -19.6909  -25.6282   21.1236 H   0  0  0  0  0  0
  -19.6679  -27.3173   20.6710 H   0  0  0  0  0  0
  -17.4197  -26.6665   21.4030 H   0  0  0  0  0  0
  -18.0351  -26.0074   22.9022 H   0  0  0  0  0  0
  -19.7972  -30.7272   24.2250 H   0  0  0  0  0  0
  -17.5048  -31.6267   24.5166 H   0  0  0  0  0  0
  -15.5379  -30.2989   23.7657 H   0  0  0  0  0  0
  -15.8693  -28.0810   22.7097 H   0  0  0  0  0  0
  -24.5893  -30.7157   25.7764 H   0  0  0  0  0  0
  -24.9028  -32.2979   26.4819 H   0  0  0  0  0  0
  -25.8064  -30.8944   27.0210 H   0  0  0  0  0  0
  -26.3072  -29.6632   24.1312 H   0  0  0  0  0  0
  -27.4071  -29.7258   25.4876 H   0  0  0  0  0  0
  -27.8974  -30.4159   23.9614 H   0  0  0  0  0  0
  -27.2568  -33.3598   26.2115 H   0  0  0  0  0  0
  -28.3895  -32.6966   25.0420 H   0  0  0  0  0  0
  -28.0708  -31.8480   26.5471 H   0  0  0  0  0  0
  -28.2535  -38.0122   24.7494 H   0  0  0  0  0  0
  -28.1094  -36.2634   24.6259 H   0  0  0  0  0  0
  -27.2288  -37.1418   25.8861 H   0  0  0  0  0  0
  -20.9427  -29.8865   21.6846 H   0  0  0  0  0  0
  -26.0102  -38.2779   24.1441 H   0  0  0  0  0  0
  -28.5574  -11.2270   19.2535 H   0  0  0  0  0  0
  -30.8943  -18.4942   23.1807 H   0  0  0  0  0  0
  -30.8593  -18.1270   21.4743 H   0  0  0  0  0  0
  -30.0583  -17.0867   22.6747 H   0  0  0  0  0  0
  -28.0180  -17.9655   23.9819 H   0  0  0  0  0  0
  -27.5527  -17.2162   22.4603 H   0  0  0  0  0  0
  -26.8818  -18.7710   22.9346 H   0  0  0  0  0  0
  -29.3009  -19.9477   24.1405 H   0  0  0  0  0  0
  -28.2908  -20.8672   23.0579 H   0  0  0  0  0  0
  -30.0346  -20.7655   22.7926 H   0  0  0  0  0  0
  -28.1299  -18.0879   18.8176 H   0  0  0  0  0  0
  -29.7854  -18.3563   19.0556 H   0  0  0  0  0  0
  -26.7863  -24.5058   20.3149 H   0  0  0  0  0  0
  -27.6848  -24.5731   18.8452 H   0  0  0  0  0  0
  -30.0743  -16.3033   18.9646 H   0  0  0  0  0  0
  -29.6860  -23.4645   20.0747 H   0  0  0  0  0  0
  -27.4874  -19.2248   20.6839 H   0  0  0  0  0  0
  -26.2269  -16.8368   17.7553 H   0  0  0  0  0  0
  -25.0361  -15.6522   17.6241 H   0  0  0  0  0  0
  -29.8012  -20.9384   20.8750 H   0  0  0  0  0  0
  -29.9724  -16.1415   21.5764 H   0  0  0  0  0  0
  -27.6649  -23.2366   22.0270 H   0  0  0  0  0  0
  1 25  1  0  0  0
  1 30  2  0  0  0
  1 87  1  0  0  0
  2  3  1  0  0  0
  2 25  1  0  0  0
  2 91  1  0  0  0
  2 92  1  0  0  0
  3  4  1  0  0  0
  3 93  1  0  0  0
  3 94  1  0  0  0
  4  5  1  0  0  0
  4 95  1  0  0  0
  4 96  1  0  0  0
  5  6  1  0  0  0
  5 26  1  0  0  0
  5 97  1  0  0  0
  6 25  1  0  0  0
  6 98  1  0  0  0
  6 99  1  0  0  0
  7  8  2  0  0  0
  7 26  1  0  0  0
  7 29  1  0  0  0
  8  9  1  0  0  0
  8 22  1  0  0  0
  9 10  1  0  0  0
  9 27  2  0  0  0
 10 11  2  0  0  0
 10 15  1  0  0  0
 11 12  1  0  0  0
 11100  1  0  0  0
 12 13  2  0  0  0
 12101  1  0  0  0
 13 14  1  0  0  0
 13 31  1  0  0  0
 14 15  2  0  0  0
 14102  1  0  0  0
 15103  1  0  0  0
 16 17  2  0  0  0
 16 21  1  0  0  0
 16 31  1  0  0  0
 17 18  1  0  0  0
 17104  1  0  0  0
 18 19  2  0  0  0
 18105  1  0  0  0
 19 20  1  0  0  0
 19 24  1  0  0  0
 20 21  2  0  0  0
 20106  1  0  0  0
 21 23  1  0  0  0
 22 28  1  0  0  0
 22 32  2  0  0  0
 26 27  1  0  0  0
 28107  1  0  0  0
 28108  1  0  0  0
 29109  1  0  0  0
 29110  1  0  0  0
 33 34  1  0  0  0
 33 66  1  0  0  0
 33 70  2  0  0  0
 34 36  1  0  0  0
 34 59  1  0  0  0
 34111  1  0  0  0
 35 44  2  0  0  0
 35 45  1  0  0  0
 35 68  1  0  0  0
 36 56  1  0  0  0
 36112  1  0  0  0
 37 39  1  0  0  0
 37 47  1  0  0  0
 37 66  1  0  0  0
 37113  1  0  0  0
 38 43  2  0  0  0
 38 46  1  0  0  0
 38 47  1  0  0  0
 39 64  1  0  0  0
 39 67  2  0  0  0
 40 52  1  0  0  0
 40 53  2  0  0  0
 40 58  1  0  0  0
 41114  1  0  0  0
 41115  1  0  0  0
 41116  1  0  0  0
 41 48  1  0  0  0
 42 43  1  0  0  0
 42 66  1  0  0  0
 42117  1  0  0  0
 42118  1  0  0  0
 43 44  1  0  0  0
 44119  1  0  0  0
 45 46  2  0  0  0
 45120  1  0  0  0
 46121  1  0  0  0
 47122  1  0  0  0
 47123  1  0  0  0
 48 56  1  0  0  0
 48 65  1  0  0  0
 48124  1  0  0  0
 49 50  1  0  0  0
 49 53  1  0  0  0
 49 64  1  0  0  0
 49125  1  0  0  0
 50 51  1  0  0  0
 50126  1  0  0  0
 50127  1  0  0  0
 51 52  1  0  0  0
 51128  1  0  0  0
 51129  1  0  0  0
 52130  1  0  0  0
 52131  1  0  0  0
 53 54  1  0  0  0
 54 55  2  0  0  0
 54132  1  0  0  0
 55 57  1  0  0  0
 55133  1  0  0  0
 56 69  2  0  0  0
 57 58  2  0  0  0
 57134  1  0  0  0
 58135  1  0  0  0
 59 60  1  0  0  0
 59 61  1  0  0  0
 59 62  1  0  0  0
 60136  1  0  0  0
 60137  1  0  0  0
 60138  1  0  0  0
 61139  1  0  0  0
 61140  1  0  0  0
 61141  1  0  0  0
 62142  1  0  0  0
 62143  1  0  0  0
 62144  1  0  0  0
 63 65  1  0  0  0
 63145  1  0  0  0
 63146  1  0  0  0
 63147  1  0  0  0
 64148  1  0  0  0
 65149  1  0  0  0
 68 79  1  0  0  0
 71 84  2  0  0  0
 71 90  1  0  0  0
 71150  1  0  0  0
 72 73  2  0  0  0
 72 80  1  0  0  0
 72 84  1  0  0  0
 73 85  1  0  0  0
 73 90  1  0  0  0
 74 81  1  0  0  0
 74 86  1  0  0  0
 74 88  2  0  0  0
 75151  1  0  0  0
 75152  1  0  0  0
 75153  1  0  0  0
 75 83  1  0  0  0
 76 83  1  0  0  0
 76154  1  0  0  0
 76155  1  0  0  0
 76156  1  0  0  0
 77 83  1  0  0  0
 77157  1  0  0  0
 77158  1  0  0  0
 77159  1  0  0  0
 78160  1  0  0  0
 78161  1  0  0  0
 78 80  1  0  0  0
 78 82  1  0  0  0
 79 81  1  0  0  0
 79162  1  0  0  0
 79163  1  0  0  0
 80 87  1  0  0  0
 80164  1  0  0  0
 81 89  1  0  0  0
 81165  1  0  0  0
 82 83  1  0  0  0
 82 86  1  0  0  0
 82166  1  0  0  0
 85167  1  0  0  0
 85168  1  0  0  0
 86169  1  0  0  0
 87170  1  0  0  0
 89171  1  0  0  0
M  ISO  4   1 100  68 101  79 101  87 100
M  END
> <chiral flag>
0

> <version>
0

> <s_m_source_file>
/data/baiqing/PycharmProjects/Reinvent-master-3.2/result/LINK_invent/BTK/process_docking_weight1_custom_product_contain_oxygen_bond_distance_aromatic_linkinvent_7_9_3/rearranged_h_0187.sdf

> <i_m_source_file_index>
61

> <r_mmod_Potential_Energy-OPLS-2005>
10209.5087890625

> <r_mmod_Stretch_Energy-OPLS-2005>
6243.13818359375

> <r_mmod_Bend_Energy-OPLS-2005>
600.511962890625

> <r_mmod_Torsional_Energy-OPLS-2005>
449.563110351562

> <r_mmod_Improper_Torsional_Energy-OPLS-2005>
37.4746398925781

> <r_mmod_Van_der_Waal_Energy-OPLS-2005>
2931.73022460938

> <r_mmod_Electrostatic_Energy-OPLS-2005>
-491.164764404297

> <r_mmod_Solvation_Energy-OPLS-2005>
-246.675933837891

> <b_mmod_Minimization_Converged-OPLS-2005>
0

> <r_mmod_RMS_Derivative-OPLS-2005>
23.4425983428955

$$$$
63
                    3D
 Structure written by MMmdl.
165173  0  0  1  0            999 V2000
  -30.6341  -14.7893   20.4136 C   0  0  0  0  0  0
  -30.4270  -12.4790   19.4500 C   0  0  0  0  0  0
  -29.5085  -12.4955   18.2111 C   0  0  0  0  0  0
  -28.0387  -12.3092   18.6399 C   0  0  0  0  0  0
  -27.6363  -13.2346   19.8227 C   0  0  2  0  0  0
  -28.6895  -13.2317   20.9514 C   0  0  0  0  0  0
  -25.2501  -13.8180   20.5663 C   0  0  0  0  0  0
  -24.1817  -13.0421   20.9211 C   0  0  0  0  0  0
  -24.6406  -11.6901   20.8703 C   0  0  0  0  0  0
  -23.9064  -10.4291   21.0390 C   0  0  0  0  0  0
  -24.3630   -9.4220   21.9176 C   0  0  0  0  0  0
  -23.6317   -8.2239   22.0741 C   0  0  0  0  0  0
  -22.4290   -8.0279   21.3532 C   0  0  0  0  0  0
  -21.9917   -9.0250   20.4631 C   0  0  0  0  0  0
  -22.7233  -10.2130   20.3049 C   0  0  0  0  0  0
  -21.6861   -6.0739   22.5271 C   0  0  0  0  0  0
  -21.4017   -6.5633   23.8215 C   0  0  0  0  0  0
  -21.3669   -5.6777   24.9167 C   0  0  0  0  0  0
  -21.6053   -4.3046   24.7203 C   0  0  0  0  0  0
  -21.8823   -3.8139   23.4322 C   0  0  0  0  0  0
  -21.9190   -4.6960   22.3388 C   0  0  0  0  0  0
  -22.7848  -13.5205   21.1866 C   0  0  0  0  0  0
  -22.1673   -4.2148   21.0971 F   0  0  0  0  0  0
  -21.5628   -3.4541   25.7727 F   0  0  0  0  0  0
  -29.9768  -13.5761   20.3374 N   0  0  0  0  0  0
  -26.2939  -12.9390   20.3187 N   0  0  0  0  0  0
  -25.9336  -11.6525   20.5675 N   0  0  0  0  0  0
  -22.0470  -12.8223   22.0425 N   0  0  0  0  0  0
  -25.4173  -15.1901   20.4079 N   0  0  0  0  0  0
  -31.8530  -14.8090   20.2114 O   0  0  0  0  0  0
  -21.6653   -6.8873   21.4233 O   0  0  0  0  0  0
  -22.3564  -14.5534   20.6723 O   0  0  0  0  0  0
  -24.6396  -31.8514   23.1903 C   0  0  0  0  0  0
  -25.9211  -32.4717   23.8279 C   0  0  1  0  0  0
  -27.2244  -27.2199   20.1035 C   0  0  0  0  0  0
  -25.5980  -33.8530   24.2211 N   0  0  0  0  0  0
  -23.4366  -30.4789   21.5379 C   0  0  2  0  0  0
  -24.8785  -28.9157   20.1173 C   0  0  0  0  0  0
  -22.7544  -29.4624   22.4871 C   0  0  0  0  0  0
  -18.0317  -28.1393   22.8484 C   0  0  0  0  0  0
  -24.1512  -36.7271   23.2634 C   0  0  0  0  0  0
  -25.9910  -30.7518   21.3747 C   0  0  0  0  0  0
  -26.0599  -29.3722   20.7116 C   0  0  0  0  0  0
  -27.2355  -28.5416   20.6862 C   0  0  0  0  0  0
  -25.9897  -26.8277   19.5382 C   0  0  0  0  0  0
  -24.8476  -27.6491   19.5259 C   0  0  0  0  0  0
  -23.6559  -29.8113   20.1556 C   0  0  0  0  0  0
  -25.4124  -36.3042   24.0318 C   0  0  1  0  0  0
  -20.5927  -28.3728   23.1235 C   0  0  2  0  0  0
  -20.6793  -26.9434   22.5386 C   0  0  0  0  0  0
  -19.5764  -26.6391   21.5202 C   0  0  0  0  0  0
  -18.1952  -26.7940   22.1620 C   0  0  0  0  0  0
  -19.1570  -28.8879   23.2857 C   0  0  0  0  0  0
  -18.9484  -30.1472   23.8884 C   0  0  0  0  0  0
  -17.6481  -30.6584   24.0569 C   0  0  0  0  0  0
  -25.9074  -34.9429   23.5068 C   0  0  0  0  0  0
  -16.5375  -29.9085   23.6326 C   0  0  0  0  0  0
  -16.7300  -28.6505   23.0346 C   0  0  0  0  0  0
  -26.4541  -31.6553   25.0693 C   0  0  0  0  0  0
  -25.3747  -31.3740   26.1393 C   0  0  0  0  0  0
  -27.0385  -30.2950   24.6232 C   0  0  0  0  0  0
  -27.6081  -32.4314   25.7479 C   0  0  0  0  0  0
  -27.5598  -37.1766   24.8444 C   0  0  0  0  0  0
  -21.4244  -29.3078   22.3613 N   0  0  0  0  0  0
  -26.4281  -37.3753   23.9439 N   0  0  0  0  0  0
  -24.7091  -31.0476   22.0887 N   0  0  0  0  0  0
  -23.4231  -28.8175   23.2993 O   0  0  0  0  0  0
  -28.3460  -26.3246   20.1037 O   0  0  0  0  0  0
  -26.5648  -34.8913   22.4631 O   0  0  0  0  0  0
  -23.5538  -32.1366   23.7179 O   0  0  0  0  0  0
  -30.7418  -19.8922   21.5890 C   0  0  0  0  0  0
  -29.8492  -19.7259   20.5339 C   0  0  0  0  0  0
  -31.3044  -18.7473   22.1659 C   0  0  0  0  0  0
  -30.1947  -17.3395   20.7152 C   0  0  0  0  0  0
  -28.0988  -21.8249   21.8688 C   0  0  0  0  0  0
  -27.8998  -25.9733   17.2164 C   0  0  0  0  0  0
  -30.1622  -25.2017   17.8187 C   0  0  0  0  0  0
  -28.3187  -23.5563   17.3601 C   0  0  0  0  0  0
  -29.1123  -23.6752   20.3455 C   0  0  0  0  0  0
  -28.5736  -22.1142   20.4366 C   0  0  1  0  0  0
  -28.2921  -24.8861   19.5730 C   0  0  2  0  0  0
  -28.6620  -24.9046   18.0305 C   0  0  0  0  0  0
  -29.5922  -18.4242   20.1048 N   0  0  0  0  0  0
  -31.0250  -17.5008   21.7374 N   0  0  0  0  0  0
  -29.3246  -20.9044   19.8593 N   0  0  0  0  0  0
  -29.8910  -15.9720   20.3708 N   0  0  0  0  0  0
  -32.1644  -18.8830   23.2012 F   0  0  0  0  0  0
  -31.4710  -12.5843   19.1496 H   0  0  0  0  0  0
  -30.3548  -11.5178   19.9614 H   0  0  0  0  0  0
  -29.8054  -11.7062   17.5175 H   0  0  0  0  0  0
  -29.6273  -13.4360   17.6684 H   0  0  0  0  0  0
  -27.9166  -11.2648   18.9333 H   0  0  0  0  0  0
  -27.3749  -12.4616   17.7888 H   0  0  0  0  0  0
  -27.6111  -14.2428   19.4081 H   0  0  0  0  0  0
  -28.7397  -12.2613   21.4490 H   0  0  0  0  0  0
  -28.4223  -13.9626   21.7160 H   0  0  0  0  0  0
  -25.2770   -9.5726   22.4733 H   0  0  0  0  0  0
  -24.0036   -7.4648   22.7459 H   0  0  0  0  0  0
  -21.0840   -8.8759   19.8953 H   0  0  0  0  0  0
  -22.3688  -10.9660   19.6154 H   0  0  0  0  0  0
  -21.2035   -7.6148   23.9715 H   0  0  0  0  0  0
  -21.1490   -6.0510   25.9073 H   0  0  0  0  0  0
  -22.0599   -2.7598   23.2820 H   0  0  0  0  0  0
  -22.4116  -11.9909   22.4864 H   0  0  0  0  0  0
  -21.1070  -13.1245   22.2573 H   0  0  0  0  0  0
  -24.6313  -15.8238   20.4989 H   0  0  0  0  0  0
  -26.2498  -15.6356   20.0460 H   0  0  0  0  0  0
  -26.7290  -32.5345   23.1018 H   0  0  0  0  0  0
  -25.0126  -33.9648   25.0361 H   0  0  0  0  0  0
  -22.7350  -31.3011   21.3856 H   0  0  0  0  0  0
  -23.3761  -35.9609   23.3247 H   0  0  0  0  0  0
  -24.3615  -36.8938   22.2055 H   0  0  0  0  0  0
  -23.7260  -37.6465   23.6678 H   0  0  0  0  0  0
  -26.1415  -31.5155   20.6107 H   0  0  0  0  0  0
  -26.8621  -30.7930   22.0155 H   0  0  0  0  0  0
  -28.1490  -28.8971   21.1435 H   0  0  0  0  0  0
  -25.8433  -25.8569   19.0992 H   0  0  0  0  0  0
  -23.9384  -27.2748   19.0779 H   0  0  0  0  0  0
  -23.7953  -30.5844   19.3989 H   0  0  0  0  0  0
  -22.7698  -29.2571   19.8435 H   0  0  0  0  0  0
  -25.1294  -36.1854   25.0803 H   0  0  0  0  0  0
  -21.0039  -28.3318   24.1350 H   0  0  0  0  0  0
  -20.5686  -26.2361   23.3608 H   0  0  0  0  0  0
  -21.6667  -26.7451   22.1192 H   0  0  0  0  0  0
  -19.6927  -25.6301   21.1246 H   0  0  0  0  0  0
  -19.6681  -27.3190   20.6719 H   0  0  0  0  0  0
  -17.4218  -26.6696   21.4018 H   0  0  0  0  0  0
  -18.0350  -26.0074   22.9018 H   0  0  0  0  0  0
  -19.7956  -30.7291   24.2252 H   0  0  0  0  0  0
  -17.5029  -31.6259   24.5180 H   0  0  0  0  0  0
  -15.5369  -30.2980   23.7641 H   0  0  0  0  0  0
  -15.8706  -28.0810   22.7059 H   0  0  0  0  0  0
  -24.5917  -30.7091   25.7721 H   0  0  0  0  0  0
  -24.8938  -32.2931   26.4768 H   0  0  0  0  0  0
  -25.8039  -30.8950   27.0199 H   0  0  0  0  0  0
  -26.2980  -29.6668   24.1264 H   0  0  0  0  0  0
  -27.4041  -29.7242   25.4777 H   0  0  0  0  0  0
  -27.8878  -30.4165   23.9494 H   0  0  0  0  0  0
  -27.2662  -33.3614   26.2021 H   0  0  0  0  0  0
  -28.3904  -32.6871   25.0328 H   0  0  0  0  0  0
  -28.0728  -31.8465   26.5417 H   0  0  0  0  0  0
  -28.2531  -38.0152   24.7598 H   0  0  0  0  0  0
  -28.1184  -36.2685   24.6115 H   0  0  0  0  0  0
  -27.2351  -37.1231   25.8854 H   0  0  0  0  0  0
  -20.9438  -29.8818   21.6819 H   0  0  0  0  0  0
  -26.0140  -38.2815   24.1470 H   0  0  0  0  0  0
  -31.0360  -20.8690   21.9426 H   0  0  0  0  0  0
  -27.3599  -22.5632   22.1813 H   0  0  0  0  0  0
  -28.9241  -21.8683   22.5838 H   0  0  0  0  0  0
  -27.6242  -20.8476   21.9446 H   0  0  0  0  0  0
  -28.2130  -25.9770   16.1726 H   0  0  0  0  0  0
  -28.0820  -26.9803   17.5918 H   0  0  0  0  0  0
  -26.8273  -25.7922   17.2033 H   0  0  0  0  0  0
  -30.3903  -25.3503   16.7624 H   0  0  0  0  0  0
  -30.8101  -24.3913   18.1516 H   0  0  0  0  0  0
  -30.4636  -26.1085   18.3425 H   0  0  0  0  0  0
  -28.5330  -23.5777   16.2907 H   0  0  0  0  0  0
  -27.2601  -23.3161   17.4715 H   0  0  0  0  0  0
  -28.8936  -22.7278   17.7705 H   0  0  0  0  0  0
  -30.1695  -23.6844   20.0871 H   0  0  0  0  0  0
  -29.1413  -24.0261   21.3790 H   0  0  0  0  0  0
  -27.6620  -22.1064   19.8353 H   0  0  0  0  0  0
  -27.2651  -24.5481   19.6768 H   0  0  0  0  0  0
  -28.9432  -20.6445   18.9545 H   0  0  0  0  0  0
  -28.9365  -15.8393   20.0834 H   0  0  0  0  0  0
  1 25  1  0  0  0
  1 30  2  0  0  0
  1 86  1  0  0  0
  2  3  1  0  0  0
  2 25  1  0  0  0
  2 88  1  0  0  0
  2 89  1  0  0  0
  3  4  1  0  0  0
  3 90  1  0  0  0
  3 91  1  0  0  0
  4  5  1  0  0  0
  4 92  1  0  0  0
  4 93  1  0  0  0
  5  6  1  0  0  0
  5 26  1  0  0  0
  5 94  1  0  0  0
  6 25  1  0  0  0
  6 95  1  0  0  0
  6 96  1  0  0  0
  7  8  2  0  0  0
  7 26  1  0  0  0
  7 29  1  0  0  0
  8  9  1  0  0  0
  8 22  1  0  0  0
  9 10  1  0  0  0
  9 27  2  0  0  0
 10 11  2  0  0  0
 10 15  1  0  0  0
 11 12  1  0  0  0
 11 97  1  0  0  0
 12 13  2  0  0  0
 12 98  1  0  0  0
 13 14  1  0  0  0
 13 31  1  0  0  0
 14 15  2  0  0  0
 14 99  1  0  0  0
 15100  1  0  0  0
 16 17  2  0  0  0
 16 21  1  0  0  0
 16 31  1  0  0  0
 17 18  1  0  0  0
 17101  1  0  0  0
 18 19  2  0  0  0
 18102  1  0  0  0
 19 20  1  0  0  0
 19 24  1  0  0  0
 20 21  2  0  0  0
 20103  1  0  0  0
 21 23  1  0  0  0
 22 28  1  0  0  0
 22 32  2  0  0  0
 26 27  1  0  0  0
 28104  1  0  0  0
 28105  1  0  0  0
 29106  1  0  0  0
 29107  1  0  0  0
 33 34  1  0  0  0
 33 66  1  0  0  0
 33 70  2  0  0  0
 34 36  1  0  0  0
 34 59  1  0  0  0
 34108  1  0  0  0
 35 44  2  0  0  0
 35 45  1  0  0  0
 35 68  1  0  0  0
 36 56  1  0  0  0
 36109  1  0  0  0
 37 39  1  0  0  0
 37 47  1  0  0  0
 37 66  1  0  0  0
 37110  1  0  0  0
 38 43  2  0  0  0
 38 46  1  0  0  0
 38 47  1  0  0  0
 39 64  1  0  0  0
 39 67  2  0  0  0
 40 52  1  0  0  0
 40 53  2  0  0  0
 40 58  1  0  0  0
 41111  1  0  0  0
 41112  1  0  0  0
 41113  1  0  0  0
 41 48  1  0  0  0
 42 43  1  0  0  0
 42 66  1  0  0  0
 42114  1  0  0  0
 42115  1  0  0  0
 43 44  1  0  0  0
 44116  1  0  0  0
 45 46  2  0  0  0
 45117  1  0  0  0
 46118  1  0  0  0
 47119  1  0  0  0
 47120  1  0  0  0
 48 56  1  0  0  0
 48 65  1  0  0  0
 48121  1  0  0  0
 49 50  1  0  0  0
 49 53  1  0  0  0
 49 64  1  0  0  0
 49122  1  0  0  0
 50 51  1  0  0  0
 50123  1  0  0  0
 50124  1  0  0  0
 51 52  1  0  0  0
 51125  1  0  0  0
 51126  1  0  0  0
 52127  1  0  0  0
 52128  1  0  0  0
 53 54  1  0  0  0
 54 55  2  0  0  0
 54129  1  0  0  0
 55 57  1  0  0  0
 55130  1  0  0  0
 56 69  2  0  0  0
 57 58  2  0  0  0
 57131  1  0  0  0
 58132  1  0  0  0
 59 60  1  0  0  0
 59 61  1  0  0  0
 59 62  1  0  0  0
 60133  1  0  0  0
 60134  1  0  0  0
 60135  1  0  0  0
 61136  1  0  0  0
 61137  1  0  0  0
 61138  1  0  0  0
 62139  1  0  0  0
 62140  1  0  0  0
 62141  1  0  0  0
 63 65  1  0  0  0
 63142  1  0  0  0
 63143  1  0  0  0
 63144  1  0  0  0
 64145  1  0  0  0
 65146  1  0  0  0
 68 81  1  0  0  0
 71 72  2  0  0  0
 71 73  1  0  0  0
 71147  1  0  0  0
 72 83  1  0  0  0
 72 85  1  0  0  0
 73 84  2  0  0  0
 73 87  1  0  0  0
 74 83  2  0  0  0
 74 84  1  0  0  0
 74 86  1  0  0  0
 75148  1  0  0  0
 75149  1  0  0  0
 75150  1  0  0  0
 75 80  1  0  0  0
 76151  1  0  0  0
 76152  1  0  0  0
 76153  1  0  0  0
 76 82  1  0  0  0
 77 82  1  0  0  0
 77154  1  0  0  0
 77155  1  0  0  0
 77156  1  0  0  0
 78 82  1  0  0  0
 78157  1  0  0  0
 78158  1  0  0  0
 78159  1  0  0  0
 79 80  1  0  0  0
 79160  1  0  0  0
 79161  1  0  0  0
 79 81  1  0  0  0
 80 85  1  0  0  0
 80162  1  0  0  0
 81 82  1  0  0  0
 81163  1  0  0  0
 85164  1  0  0  0
 86165  1  0  0  0
M  ISO  4   1 100  68 101  81 101  86 100
M  END
> <chiral flag>
0

> <version>
0

> <s_m_source_file>
/data/baiqing/PycharmProjects/Reinvent-master-3.2/result/LINK_invent/BTK/process_docking_weight1_custom_product_contain_oxygen_bond_distance_aromatic_linkinvent_7_9_3/rearranged_h_0187.sdf

> <i_m_source_file_index>
62

> <r_mmod_Potential_Energy-OPLS-2005>
-174.099273681641

> <r_mmod_Stretch_Energy-OPLS-2005>
165.193832397461

> <r_mmod_Bend_Energy-OPLS-2005>
227.911056518555

> <r_mmod_Torsional_Energy-OPLS-2005>
256.289764404297

> <r_mmod_Improper_Torsional_Energy-OPLS-2005>
12.6437520980835

> <r_mmod_Van_der_Waal_Energy-OPLS-2005>
155.059051513672

> <r_mmod_Electrostatic_Energy-OPLS-2005>
-882.781677246094

> <r_mmod_Solvation_Energy-OPLS-2005>
-218.40592956543

> <b_mmod_Minimization_Converged-OPLS-2005>
0

> <r_mmod_RMS_Derivative-OPLS-2005>
4.66805410385132

$$$$
64
                    3D
 Structure written by MMmdl.
168176  0  0  1  0            999 V2000
  -30.6780  -14.5702   20.5658 C   0  0  0  0  0  0
  -30.4285  -12.3719   19.4335 C   0  0  0  0  0  0
  -29.4982  -12.5164   18.2100 C   0  0  0  0  0  0
  -28.0185  -12.3717   18.6199 C   0  0  0  0  0  0
  -27.6531  -13.2229   19.8654 C   0  0  2  0  0  0
  -28.6994  -13.0534   20.9898 C   0  0  0  0  0  0
  -25.2510  -13.8138   20.5687 C   0  0  0  0  0  0
  -24.1797  -13.0397   20.9192 C   0  0  0  0  0  0
  -24.6394  -11.6882   20.8733 C   0  0  0  0  0  0
  -23.9070  -10.4267   21.0399 C   0  0  0  0  0  0
  -24.3617   -9.4185   21.9183 C   0  0  0  0  0  0
  -23.6282   -8.2228   22.0757 C   0  0  0  0  0  0
  -22.4268   -8.0271   21.3543 C   0  0  0  0  0  0
  -21.9906   -9.0242   20.4647 C   0  0  0  0  0  0
  -22.7239  -10.2115   20.3051 C   0  0  0  0  0  0
  -21.6853   -6.0723   22.5270 C   0  0  0  0  0  0
  -21.4015   -6.5634   23.8201 C   0  0  0  0  0  0
  -21.3659   -5.6790   24.9167 C   0  0  0  0  0  0
  -21.6046   -4.3052   24.7221 C   0  0  0  0  0  0
  -21.8819   -3.8138   23.4344 C   0  0  0  0  0  0
  -21.9193   -4.6951   22.3398 C   0  0  0  0  0  0
  -22.7820  -13.5184   21.1837 C   0  0  0  0  0  0
  -22.1661   -4.2140   21.0978 F   0  0  0  0  0  0
  -21.5629   -3.4539   25.7735 F   0  0  0  0  0  0
  -30.0169  -13.3830   20.4248 N   0  0  0  0  0  0
  -26.2980  -12.9363   20.3332 N   0  0  0  0  0  0
  -25.9333  -11.6504   20.5765 N   0  0  0  0  0  0
  -22.0470  -12.8194   22.0408 N   0  0  0  0  0  0
  -25.4111  -15.1843   20.4067 N   0  0  0  0  0  0
  -31.8285  -14.7272   20.1512 O   0  0  0  0  0  0
  -21.6639   -6.8867   21.4234 O   0  0  0  0  0  0
  -22.3518  -14.5499   20.6696 O   0  0  0  0  0  0
  -24.6266  -31.8613   23.2014 C   0  0  0  0  0  0
  -25.9134  -32.4783   23.8330 C   0  0  1  0  0  0
  -27.2128  -27.3276   20.1132 C   0  0  0  0  0  0
  -25.5991  -33.8575   24.2277 N   0  0  0  0  0  0
  -23.4147  -30.4910   21.5451 C   0  0  2  0  0  0
  -24.8558  -28.9504   20.1105 C   0  0  0  0  0  0
  -22.7455  -29.4662   22.4916 C   0  0  0  0  0  0
  -18.0300  -28.1386   22.8505 C   0  0  0  0  0  0
  -24.1503  -36.7279   23.2629 C   0  0  0  0  0  0
  -25.9555  -30.7995   21.3660 C   0  0  0  0  0  0
  -26.0289  -29.4290   20.7085 C   0  0  0  0  0  0
  -27.2102  -28.6315   20.6970 C   0  0  0  0  0  0
  -26.0067  -26.9041   19.4985 C   0  0  0  0  0  0
  -24.8462  -27.6910   19.5007 C   0  0  0  0  0  0
  -23.6290  -29.8338   20.1586 C   0  0  0  0  0  0
  -25.4114  -36.3063   24.0325 C   0  0  1  0  0  0
  -20.5900  -28.3699   23.1258 C   0  0  2  0  0  0
  -20.6793  -26.9419   22.5378 C   0  0  0  0  0  0
  -19.5763  -26.6380   21.5198 C   0  0  0  0  0  0
  -18.1943  -26.7932   22.1625 C   0  0  0  0  0  0
  -19.1554  -28.8855   23.2888 C   0  0  0  0  0  0
  -18.9497  -30.1476   23.8880 C   0  0  0  0  0  0
  -17.6500  -30.6594   24.0595 C   0  0  0  0  0  0
  -25.9067  -34.9456   23.5074 C   0  0  0  0  0  0
  -16.5386  -29.9101   23.6352 C   0  0  0  0  0  0
  -16.7291  -28.6526   23.0342 C   0  0  0  0  0  0
  -26.4512  -31.6579   25.0694 C   0  0  0  0  0  0
  -25.3755  -31.3746   26.1438 C   0  0  0  0  0  0
  -27.0335  -30.3001   24.6109 C   0  0  0  0  0  0
  -27.6088  -32.4292   25.7475 C   0  0  0  0  0  0
  -27.5568  -37.1773   24.8465 C   0  0  0  0  0  0
  -21.4163  -29.3073   22.3658 N   0  0  0  0  0  0
  -26.4269  -37.3766   23.9442 N   0  0  0  0  0  0
  -24.6852  -31.0655   22.0950 N   0  0  0  0  0  0
  -23.4199  -28.8169   23.2952 O   0  0  0  0  0  0
  -28.3323  -26.4788   20.1715 O   0  0  0  0  0  0
  -26.5596  -34.8941   22.4620 O   0  0  0  0  0  0
  -23.5438  -32.1410   23.7362 O   0  0  0  0  0  0
  -26.4182  -18.9247   20.4342 C   0  0  0  0  0  0
  -28.9063  -18.8593   20.5664 C   0  0  0  0  0  0
  -28.3320  -20.1476   20.7311 C   0  0  0  0  0  0
  -28.4046  -22.6425   21.1839 C   0  0  0  0  0  0
  -28.2049  -24.6499   18.5108 C   0  0  0  0  0  0
  -31.4947  -20.1623   19.3716 C   0  0  0  0  0  0
  -32.8830  -18.3938   20.3100 C   0  0  0  0  0  0
  -31.6817  -19.8664   21.9180 C   0  0  0  0  0  0
  -29.0628  -24.0197   20.8158 C   0  0  0  0  0  0
  -30.4653  -16.9498   21.5076 C   0  0  0  0  0  0
  -30.3084  -18.1947   20.5234 C   0  0  2  0  0  0
  -28.1290  -25.0189   20.0077 C   0  0  1  0  0  0
  -31.5521  -19.1557   20.5496 C   0  0  0  0  0  0
  -26.9274  -20.1247   20.6764 N   0  0  0  0  0  0
  -28.9779  -21.4464   20.8326 N   0  0  0  0  0  0
  -29.9647  -15.6094   21.0754 N   0  0  0  0  0  0
  -27.3853  -22.6949   21.8781 O   0  0  0  0  0  0
  -27.6301  -17.6979   20.2263 S   0  0  0  0  0  0
  -31.4713  -12.4870   19.1303 H   0  0  0  0  0  0
  -30.3502  -11.3713   19.8600 H   0  0  0  0  0  0
  -29.7498  -11.7710   17.4539 H   0  0  0  0  0  0
  -29.6558  -13.4904   17.7426 H   0  0  0  0  0  0
  -27.8309  -11.3169   18.8214 H   0  0  0  0  0  0
  -27.3713  -12.6405   17.7843 H   0  0  0  0  0  0
  -27.6770  -14.2653   19.5449 H   0  0  0  0  0  0
  -28.7010  -12.0283   21.3619 H   0  0  0  0  0  0
  -28.4506  -13.6778   21.8486 H   0  0  0  0  0  0
  -25.2761   -9.5665   22.4757 H   0  0  0  0  0  0
  -23.9984   -7.4629   22.7489 H   0  0  0  0  0  0
  -21.0833   -8.8759   19.8968 H   0  0  0  0  0  0
  -22.3696  -10.9647   19.6162 H   0  0  0  0  0  0
  -21.2011   -7.6146   23.9699 H   0  0  0  0  0  0
  -21.1483   -6.0527   25.9071 H   0  0  0  0  0  0
  -22.0602   -2.7601   23.2848 H   0  0  0  0  0  0
  -22.4074  -11.9846   22.4781 H   0  0  0  0  0  0
  -21.1092  -13.1224   22.2614 H   0  0  0  0  0  0
  -24.6325  -15.8247   20.5136 H   0  0  0  0  0  0
  -26.2491  -15.6253   20.0518 H   0  0  0  0  0  0
  -26.7182  -32.5465   23.1055 H   0  0  0  0  0  0
  -25.0251  -33.9735   25.0504 H   0  0  0  0  0  0
  -22.7120  -31.3147   21.4013 H   0  0  0  0  0  0
  -23.3770  -35.9611   23.3297 H   0  0  0  0  0  0
  -24.3581  -36.8868   22.2035 H   0  0  0  0  0  0
  -23.7234  -37.6478   23.6630 H   0  0  0  0  0  0
  -26.0758  -31.5620   20.5953 H   0  0  0  0  0  0
  -26.8403  -30.8507   21.9883 H   0  0  0  0  0  0
  -28.1102  -28.9950   21.1746 H   0  0  0  0  0  0
  -25.9116  -25.9393   19.0277 H   0  0  0  0  0  0
  -23.9416  -27.3115   19.0437 H   0  0  0  0  0  0
  -23.7630  -30.6177   19.4131 H   0  0  0  0  0  0
  -22.7460  -29.2752   19.8425 H   0  0  0  0  0  0
  -25.1274  -36.1888   25.0802 H   0  0  0  0  0  0
  -21.0030  -28.3273   24.1364 H   0  0  0  0  0  0
  -20.5710  -26.2301   23.3582 H   0  0  0  0  0  0
  -21.6657  -26.7444   22.1155 H   0  0  0  0  0  0
  -19.6944  -25.6290   21.1226 H   0  0  0  0  0  0
  -19.6711  -27.3214   20.6755 H   0  0  0  0  0  0
  -17.4206  -26.6699   21.4038 H   0  0  0  0  0  0
  -18.0370  -26.0051   22.9006 H   0  0  0  0  0  0
  -19.7980  -30.7298   24.2205 H   0  0  0  0  0  0
  -17.5073  -31.6276   24.5201 H   0  0  0  0  0  0
  -15.5398  -30.3027   23.7666 H   0  0  0  0  0  0
  -15.8687  -28.0870   22.7030 H   0  0  0  0  0  0
  -24.5988  -30.7008   25.7811 H   0  0  0  0  0  0
  -24.8916  -32.2940   26.4766 H   0  0  0  0  0  0
  -25.8118  -30.9035   27.0258 H   0  0  0  0  0  0
  -26.2881  -29.6764   24.1163 H   0  0  0  0  0  0
  -27.4082  -29.7231   25.4565 H   0  0  0  0  0  0
  -27.8731  -30.4287   23.9271 H   0  0  0  0  0  0
  -27.2699  -33.3603   26.2035 H   0  0  0  0  0  0
  -28.3919  -32.6807   25.0315 H   0  0  0  0  0  0
  -28.0731  -31.8415   26.5395 H   0  0  0  0  0  0
  -28.2556  -38.0099   24.7534 H   0  0  0  0  0  0
  -28.1069  -36.2622   24.6240 H   0  0  0  0  0  0
  -27.2299  -37.1363   25.8866 H   0  0  0  0  0  0
  -20.9311  -29.8841   21.6925 H   0  0  0  0  0  0
  -26.0148  -38.2822   24.1516 H   0  0  0  0  0  0
  -25.3513  -18.7639   20.3494 H   0  0  0  0  0  0
  -27.8324  -23.6375   18.3419 H   0  0  0  0  0  0
  -29.2316  -24.6840   18.1492 H   0  0  0  0  0  0
  -27.6278  -25.3188   17.8742 H   0  0  0  0  0  0
  -31.8379  -19.6918   18.4486 H   0  0  0  0  0  0
  -32.1470  -21.0195   19.5440 H   0  0  0  0  0  0
  -30.5055  -20.5338   19.1279 H   0  0  0  0  0  0
  -33.6951  -19.0857   20.0818 H   0  0  0  0  0  0
  -32.8065  -17.7027   19.4682 H   0  0  0  0  0  0
  -33.2245  -17.8237   21.1731 H   0  0  0  0  0  0
  -32.5203  -20.5637   21.9275 H   0  0  0  0  0  0
  -31.8577  -19.1474   22.7189 H   0  0  0  0  0  0
  -30.7978  -20.4234   22.2123 H   0  0  0  0  0  0
  -29.9995  -23.8519   20.2835 H   0  0  0  0  0  0
  -29.3424  -24.4883   21.7578 H   0  0  0  0  0  0
  -29.9895  -17.2000   22.4562 H   0  0  0  0  0  0
  -31.5042  -16.7886   21.7810 H   0  0  0  0  0  0
  -30.3722  -17.7467   19.5318 H   0  0  0  0  0  0
  -27.1256  -24.7941   20.3656 H   0  0  0  0  0  0
  -29.9238  -21.4830   20.4808 H   0  0  0  0  0  0
  -29.0046  -15.4021   21.3040 H   0  0  0  0  0  0
  1 25  1  0  0  0
  1 30  2  0  0  0
  1 86  1  0  0  0
  2  3  1  0  0  0
  2 25  1  0  0  0
  2 89  1  0  0  0
  2 90  1  0  0  0
  3  4  1  0  0  0
  3 91  1  0  0  0
  3 92  1  0  0  0
  4  5  1  0  0  0
  4 93  1  0  0  0
  4 94  1  0  0  0
  5  6  1  0  0  0
  5 26  1  0  0  0
  5 95  1  0  0  0
  6 25  1  0  0  0
  6 96  1  0  0  0
  6 97  1  0  0  0
  7  8  2  0  0  0
  7 26  1  0  0  0
  7 29  1  0  0  0
  8  9  1  0  0  0
  8 22  1  0  0  0
  9 10  1  0  0  0
  9 27  2  0  0  0
 10 11  2  0  0  0
 10 15  1  0  0  0
 11 12  1  0  0  0
 11 98  1  0  0  0
 12 13  2  0  0  0
 12 99  1  0  0  0
 13 14  1  0  0  0
 13 31  1  0  0  0
 14 15  2  0  0  0
 14100  1  0  0  0
 15101  1  0  0  0
 16 17  2  0  0  0
 16 21  1  0  0  0
 16 31  1  0  0  0
 17 18  1  0  0  0
 17102  1  0  0  0
 18 19  2  0  0  0
 18103  1  0  0  0
 19 20  1  0  0  0
 19 24  1  0  0  0
 20 21  2  0  0  0
 20104  1  0  0  0
 21 23  1  0  0  0
 22 28  1  0  0  0
 22 32  2  0  0  0
 26 27  1  0  0  0
 28105  1  0  0  0
 28106  1  0  0  0
 29107  1  0  0  0
 29108  1  0  0  0
 33 34  1  0  0  0
 33 66  1  0  0  0
 33 70  2  0  0  0
 34 36  1  0  0  0
 34 59  1  0  0  0
 34109  1  0  0  0
 35 44  2  0  0  0
 35 45  1  0  0  0
 35 68  1  0  0  0
 36 56  1  0  0  0
 36110  1  0  0  0
 37 39  1  0  0  0
 37 47  1  0  0  0
 37 66  1  0  0  0
 37111  1  0  0  0
 38 43  2  0  0  0
 38 46  1  0  0  0
 38 47  1  0  0  0
 39 64  1  0  0  0
 39 67  2  0  0  0
 40 52  1  0  0  0
 40 53  2  0  0  0
 40 58  1  0  0  0
 41112  1  0  0  0
 41113  1  0  0  0
 41114  1  0  0  0
 41 48  1  0  0  0
 42 43  1  0  0  0
 42 66  1  0  0  0
 42115  1  0  0  0
 42116  1  0  0  0
 43 44  1  0  0  0
 44117  1  0  0  0
 45 46  2  0  0  0
 45118  1  0  0  0
 46119  1  0  0  0
 47120  1  0  0  0
 47121  1  0  0  0
 48 56  1  0  0  0
 48 65  1  0  0  0
 48122  1  0  0  0
 49 50  1  0  0  0
 49 53  1  0  0  0
 49 64  1  0  0  0
 49123  1  0  0  0
 50 51  1  0  0  0
 50124  1  0  0  0
 50125  1  0  0  0
 51 52  1  0  0  0
 51126  1  0  0  0
 51127  1  0  0  0
 52128  1  0  0  0
 52129  1  0  0  0
 53 54  1  0  0  0
 54 55  2  0  0  0
 54130  1  0  0  0
 55 57  1  0  0  0
 55131  1  0  0  0
 56 69  2  0  0  0
 57 58  2  0  0  0
 57132  1  0  0  0
 58133  1  0  0  0
 59 60  1  0  0  0
 59 61  1  0  0  0
 59 62  1  0  0  0
 60134  1  0  0  0
 60135  1  0  0  0
 60136  1  0  0  0
 61137  1  0  0  0
 61138  1  0  0  0
 61139  1  0  0  0
 62140  1  0  0  0
 62141  1  0  0  0
 62142  1  0  0  0
 63 65  1  0  0  0
 63143  1  0  0  0
 63144  1  0  0  0
 63145  1  0  0  0
 64146  1  0  0  0
 65147  1  0  0  0
 68 82  1  0  0  0
 71 84  2  0  0  0
 71 88  1  0  0  0
 71148  1  0  0  0
 72 73  2  0  0  0
 72 81  1  0  0  0
 72 88  1  0  0  0
 73 84  1  0  0  0
 73 85  1  0  0  0
 74 79  1  0  0  0
 74 85  1  0  0  0
 74 87  2  0  0  0
 75149  1  0  0  0
 75150  1  0  0  0
 75151  1  0  0  0
 75 82  1  0  0  0
 76152  1  0  0  0
 76153  1  0  0  0
 76154  1  0  0  0
 76 83  1  0  0  0
 77 83  1  0  0  0
 77155  1  0  0  0
 77156  1  0  0  0
 77157  1  0  0  0
 78 83  1  0  0  0
 78158  1  0  0  0
 78159  1  0  0  0
 78160  1  0  0  0
 79 82  1  0  0  0
 79161  1  0  0  0
 79162  1  0  0  0
 80 86  1  0  0  0
 80163  1  0  0  0
 80164  1  0  0  0
 80 81  1  0  0  0
 81 83  1  0  0  0
 81165  1  0  0  0
 82166  1  0  0  0
 85167  1  0  0  0
 86168  1  0  0  0
M  ISO  4   1 100  68 101  82 101  86 100
M  END
> <chiral flag>
0

> <version>
0

> <s_m_source_file>
/data/baiqing/PycharmProjects/Reinvent-master-3.2/result/LINK_invent/BTK/process_docking_weight1_custom_product_contain_oxygen_bond_distance_aromatic_linkinvent_7_9_3/rearranged_h_0187.sdf

> <i_m_source_file_index>
63

> <r_mmod_Potential_Energy-OPLS-2005>
-13.2604598999023

> <r_mmod_Stretch_Energy-OPLS-2005>
81.9563293457031

> <r_mmod_Bend_Energy-OPLS-2005>
170.857849121094

> <r_mmod_Torsional_Energy-OPLS-2005>
222.655181884766

> <r_mmod_Improper_Torsional_Energy-OPLS-2005>
4.18521070480347

> <r_mmod_Van_der_Waal_Energy-OPLS-2005>
144.499801635742

> <r_mmod_Electrostatic_Energy-OPLS-2005>
-435.380432128906

> <r_mmod_Solvation_Energy-OPLS-2005>
-239.942413330078

> <b_mmod_Minimization_Converged-OPLS-2005>
0

> <r_mmod_RMS_Derivative-OPLS-2005>
2.95921063423157

$$$$
65
                    3D
 Structure written by MMmdl.
153161  0  0  1  0            999 V2000
  -30.6965  -14.4816   20.5864 C   0  0  0  0  0  0
  -30.4253  -12.3213   19.4199 C   0  0  0  0  0  0
  -29.4960  -12.5299   18.2061 C   0  0  0  0  0  0
  -28.0175  -12.3795   18.6152 C   0  0  0  0  0  0
  -27.6625  -13.2105   19.8769 C   0  0  2  0  0  0
  -28.7046  -12.9771   20.9955 C   0  0  0  0  0  0
  -25.2576  -13.8156   20.5674 C   0  0  0  0  0  0
  -24.1821  -13.0441   20.9177 C   0  0  0  0  0  0
  -24.6369  -11.6901   20.8709 C   0  0  0  0  0  0
  -23.9020  -10.4284   21.0382 C   0  0  0  0  0  0
  -24.3574   -9.4210   21.9165 C   0  0  0  0  0  0
  -23.6274   -8.2233   22.0730 C   0  0  0  0  0  0
  -22.4260   -8.0262   21.3527 C   0  0  0  0  0  0
  -21.9878   -9.0228   20.4631 C   0  0  0  0  0  0
  -22.7190  -10.2115   20.3039 C   0  0  0  0  0  0
  -21.6853   -6.0720   22.5271 C   0  0  0  0  0  0
  -21.4014   -6.5619   23.8206 C   0  0  0  0  0  0
  -21.3679   -5.6776   24.9171 C   0  0  0  0  0  0
  -21.6055   -4.3041   24.7227 C   0  0  0  0  0  0
  -21.8815   -3.8129   23.4349 C   0  0  0  0  0  0
  -21.9189   -4.6945   22.3403 C   0  0  0  0  0  0
  -22.7848  -13.5249   21.1856 C   0  0  0  0  0  0
  -22.1656   -4.2127   21.0988 F   0  0  0  0  0  0
  -21.5641   -3.4530   25.7746 F   0  0  0  0  0  0
  -30.0389  -13.2932   20.4557 N   0  0  0  0  0  0
  -26.3018  -12.9331   20.3346 N   0  0  0  0  0  0
  -25.9301  -11.6485   20.5728 N   0  0  0  0  0  0
  -22.0484  -12.8239   22.0408 N   0  0  0  0  0  0
  -25.4295  -15.1872   20.4073 N   0  0  0  0  0  0
  -31.7865  -14.6991   20.0492 O   0  0  0  0  0  0
  -21.6633   -6.8861   21.4233 O   0  0  0  0  0  0
  -22.3542  -14.5563   20.6721 O   0  0  0  0  0  0
  -24.6189  -31.8702   23.2138 C   0  0  0  0  0  0
  -25.9084  -32.4839   23.8419 C   0  0  1  0  0  0
  -27.2181  -27.4179   20.0826 C   0  0  0  0  0  0
  -25.5966  -33.8633   24.2372 N   0  0  0  0  0  0
  -23.4054  -30.5007   21.5540 C   0  0  2  0  0  0
  -24.8480  -28.9765   20.1095 C   0  0  0  0  0  0
  -22.7432  -29.4690   22.4967 C   0  0  0  0  0  0
  -18.0320  -28.1338   22.8502 C   0  0  0  0  0  0
  -24.1493  -36.7328   23.2624 C   0  0  0  0  0  0
  -25.9414  -30.8291   21.3732 C   0  0  0  0  0  0
  -26.0151  -29.4680   20.7093 C   0  0  0  0  0  0
  -27.2042  -28.6961   20.6955 C   0  0  0  0  0  0
  -26.0374  -26.9741   19.4419 C   0  0  0  0  0  0
  -24.8561  -27.7300   19.4717 C   0  0  0  0  0  0
  -23.6145  -29.8480   20.1646 C   0  0  0  0  0  0
  -25.4108  -36.3130   24.0341 C   0  0  1  0  0  0
  -20.5912  -28.3672   23.1312 C   0  0  2  0  0  0
  -20.6827  -26.9410   22.5399 C   0  0  0  0  0  0
  -19.5804  -26.6407   21.5194 C   0  0  0  0  0  0
  -18.1986  -26.7906   22.1612 C   0  0  0  0  0  0
  -19.1558  -28.8818   23.2922 C   0  0  0  0  0  0
  -18.9457  -30.1433   23.8897 C   0  0  0  0  0  0
  -17.6446  -30.6536   24.0553 C   0  0  0  0  0  0
  -25.9036  -34.9483   23.5150 C   0  0  0  0  0  0
  -16.5349  -29.9018   23.6302 C   0  0  0  0  0  0
  -16.7305  -28.6439   23.0332 C   0  0  0  0  0  0
  -26.4502  -31.6608   25.0732 C   0  0  0  0  0  0
  -25.3780  -31.3716   26.1489 C   0  0  0  0  0  0
  -27.0331  -30.3048   24.6117 C   0  0  0  0  0  0
  -27.6101  -32.4307   25.7483 C   0  0  0  0  0  0
  -27.5594  -37.1821   24.8457 C   0  0  0  0  0  0
  -21.4158  -29.3058   22.3704 N   0  0  0  0  0  0
  -26.4306  -37.3813   23.9403 N   0  0  0  0  0  0
  -24.6732  -31.0805   22.1042 N   0  0  0  0  0  0
  -23.4212  -28.8218   23.3003 O   0  0  0  0  0  0
  -28.3447  -26.6064   20.1395 O   0  0  0  0  0  0
  -26.5543  -34.8926   22.4679 O   0  0  0  0  0  0
  -23.5383  -32.1462   23.7528 O   0  0  0  0  0  0
  -30.4915  -19.0184   21.6057 C   0  0  0  0  0  0
  -29.8502  -19.2052   20.4012 C   0  0  0  0  0  0
  -30.1440  -16.8282   21.0686 C   0  0  0  0  0  0
  -29.4282  -20.4351   19.6666 C   0  0  0  0  0  0
  -27.6263  -25.1976   21.9883 C   0  0  0  0  0  0
  -29.2253  -24.1982   20.2764 C   0  0  0  0  0  0
  -28.6408  -22.7842   19.9572 C   0  0  0  0  0  0
  -28.0789  -25.2266   20.5151 C   0  0  2  0  0  0
  -30.6153  -17.6703   21.9954 N   0  0  0  0  0  0
  -30.0689  -15.4283   21.3083 N   0  0  0  0  0  0
  -29.4697  -21.6175   20.3177 N   0  0  0  0  0  0
  -28.9787  -20.3455   18.5222 O   0  0  0  0  0  0
  -29.4907  -17.6506   19.6504 S   0  0  0  0  0  0
  -31.4689  -12.4223   19.1183 H   0  0  0  0  0  0
  -30.3280  -11.3064   19.8082 H   0  0  0  0  0  0
  -29.7426  -11.8189   17.4158 H   0  0  0  0  0  0
  -29.6579  -13.5250   17.7872 H   0  0  0  0  0  0
  -27.8312  -11.3218   18.8033 H   0  0  0  0  0  0
  -27.3662  -12.6592   17.7853 H   0  0  0  0  0  0
  -27.7110  -14.2621   19.5909 H   0  0  0  0  0  0
  -28.6806  -11.9334   21.3138 H   0  0  0  0  0  0
  -28.4610  -13.5535   21.8879 H   0  0  0  0  0  0
  -25.2712   -9.5711   22.4738 H   0  0  0  0  0  0
  -24.0002   -7.4628   22.7434 H   0  0  0  0  0  0
  -21.0813   -8.8731   19.8932 H   0  0  0  0  0  0
  -22.3635  -10.9646   19.6145 H   0  0  0  0  0  0
  -21.1992   -7.6126   23.9713 H   0  0  0  0  0  0
  -21.1519   -6.0502   25.9080 H   0  0  0  0  0  0
  -22.0578   -2.7592   23.2851 H   0  0  0  0  0  0
  -22.4100  -11.9918   22.4834 H   0  0  0  0  0  0
  -21.1089  -13.1249   22.2584 H   0  0  0  0  0  0
  -24.6591  -15.8404   20.5004 H   0  0  0  0  0  0
  -26.2747  -15.6193   20.0562 H   0  0  0  0  0  0
  -26.7176  -32.5537   23.1204 H   0  0  0  0  0  0
  -25.0235  -33.9814   25.0598 H   0  0  0  0  0  0
  -22.6939  -31.3197   21.4231 H   0  0  0  0  0  0
  -23.3765  -35.9655   23.3273 H   0  0  0  0  0  0
  -24.3596  -36.8920   22.2039 H   0  0  0  0  0  0
  -23.7227  -37.6530   23.6629 H   0  0  0  0  0  0
  -26.0656  -31.6018   20.6129 H   0  0  0  0  0  0
  -26.8254  -30.8736   21.9986 H   0  0  0  0  0  0
  -28.0983  -29.0590   21.1836 H   0  0  0  0  0  0
  -25.9954  -26.0421   18.8999 H   0  0  0  0  0  0
  -23.9673  -27.3556   18.9837 H   0  0  0  0  0  0
  -23.7316  -30.6341   19.4187 H   0  0  0  0  0  0
  -22.7329  -29.2817   19.8595 H   0  0  0  0  0  0
  -25.1282  -36.2012   25.0841 H   0  0  0  0  0  0
  -21.0031  -28.3256   24.1421 H   0  0  0  0  0  0
  -20.5762  -26.2259   23.3577 H   0  0  0  0  0  0
  -21.6697  -26.7480   22.1156 H   0  0  0  0  0  0
  -19.6982  -25.6347   21.1159 H   0  0  0  0  0  0
  -19.6737  -27.3270   20.6771 H   0  0  0  0  0  0
  -17.4269  -26.6693   21.3991 H   0  0  0  0  0  0
  -18.0376  -26.0020   22.8979 H   0  0  0  0  0  0
  -19.7925  -30.7272   24.2254 H   0  0  0  0  0  0
  -17.4970  -31.6195   24.5177 H   0  0  0  0  0  0
  -15.5339  -30.2872   23.7611 H   0  0  0  0  0  0
  -15.8743  -28.0722   22.7010 H   0  0  0  0  0  0
  -24.6001  -30.6999   25.7854 H   0  0  0  0  0  0
  -24.8916  -32.2856   26.4907 H   0  0  0  0  0  0
  -25.8152  -30.8951   27.0272 H   0  0  0  0  0  0
  -26.2892  -29.6797   24.1171 H   0  0  0  0  0  0
  -27.4098  -29.7293   25.4580 H   0  0  0  0  0  0
  -27.8730  -30.4342   23.9286 H   0  0  0  0  0  0
  -27.2781  -33.3623   26.2088 H   0  0  0  0  0  0
  -28.3913  -32.6827   25.0297 H   0  0  0  0  0  0
  -28.0791  -31.8408   26.5366 H   0  0  0  0  0  0
  -28.2616  -38.0121   24.7527 H   0  0  0  0  0  0
  -28.1098  -36.2653   24.6283 H   0  0  0  0  0  0
  -27.2307  -37.1456   25.8859 H   0  0  0  0  0  0
  -20.9282  -29.8777   21.6928 H   0  0  0  0  0  0
  -26.0201  -38.2906   24.1388 H   0  0  0  0  0  0
  -30.8553  -19.7918   22.2678 H   0  0  0  0  0  0
  -27.4029  -24.1835   22.3183 H   0  0  0  0  0  0
  -26.7217  -25.7874   22.1428 H   0  0  0  0  0  0
  -28.3968  -25.5932   22.6495 H   0  0  0  0  0  0
  -29.8490  -24.5190   19.4419 H   0  0  0  0  0  0
  -29.8855  -24.1665   21.1441 H   0  0  0  0  0  0
  -28.3542  -22.7596   18.9033 H   0  0  0  0  0  0
  -27.7098  -22.6511   20.5107 H   0  0  0  0  0  0
  -27.2609  -24.8406   19.9155 H   0  0  0  0  0  0
  -29.2508  -15.1206   21.8085 H   0  0  0  0  0  0
  -29.8732  -21.6221   21.2436 H   0  0  0  0  0  0
  1 25  1  0  0  0
  1 30  2  0  0  0
  1 80  1  0  0  0
  2  3  1  0  0  0
  2 25  1  0  0  0
  2 84  1  0  0  0
  2 85  1  0  0  0
  3  4  1  0  0  0
  3 86  1  0  0  0
  3 87  1  0  0  0
  4  5  1  0  0  0
  4 88  1  0  0  0
  4 89  1  0  0  0
  5  6  1  0  0  0
  5 26  1  0  0  0
  5 90  1  0  0  0
  6 25  1  0  0  0
  6 91  1  0  0  0
  6 92  1  0  0  0
  7  8  2  0  0  0
  7 26  1  0  0  0
  7 29  1  0  0  0
  8  9  1  0  0  0
  8 22  1  0  0  0
  9 10  1  0  0  0
  9 27  2  0  0  0
 10 11  2  0  0  0
 10 15  1  0  0  0
 11 12  1  0  0  0
 11 93  1  0  0  0
 12 13  2  0  0  0
 12 94  1  0  0  0
 13 14  1  0  0  0
 13 31  1  0  0  0
 14 15  2  0  0  0
 14 95  1  0  0  0
 15 96  1  0  0  0
 16 17  2  0  0  0
 16 21  1  0  0  0
 16 31  1  0  0  0
 17 18  1  0  0  0
 17 97  1  0  0  0
 18 19  2  0  0  0
 18 98  1  0  0  0
 19 20  1  0  0  0
 19 24  1  0  0  0
 20 21  2  0  0  0
 20 99  1  0  0  0
 21 23  1  0  0  0
 22 28  1  0  0  0
 22 32  2  0  0  0
 26 27  1  0  0  0
 28100  1  0  0  0
 28101  1  0  0  0
 29102  1  0  0  0
 29103  1  0  0  0
 33 34  1  0  0  0
 33 66  1  0  0  0
 33 70  2  0  0  0
 34 36  1  0  0  0
 34 59  1  0  0  0
 34104  1  0  0  0
 35 44  2  0  0  0
 35 45  1  0  0  0
 35 68  1  0  0  0
 36 56  1  0  0  0
 36105  1  0  0  0
 37 39  1  0  0  0
 37 47  1  0  0  0
 37 66  1  0  0  0
 37106  1  0  0  0
 38 43  2  0  0  0
 38 46  1  0  0  0
 38 47  1  0  0  0
 39 64  1  0  0  0
 39 67  2  0  0  0
 40 52  1  0  0  0
 40 53  2  0  0  0
 40 58  1  0  0  0
 41107  1  0  0  0
 41108  1  0  0  0
 41109  1  0  0  0
 41 48  1  0  0  0
 42 43  1  0  0  0
 42 66  1  0  0  0
 42110  1  0  0  0
 42111  1  0  0  0
 43 44  1  0  0  0
 44112  1  0  0  0
 45 46  2  0  0  0
 45113  1  0  0  0
 46114  1  0  0  0
 47115  1  0  0  0
 47116  1  0  0  0
 48 56  1  0  0  0
 48 65  1  0  0  0
 48117  1  0  0  0
 49 50  1  0  0  0
 49 53  1  0  0  0
 49 64  1  0  0  0
 49118  1  0  0  0
 50 51  1  0  0  0
 50119  1  0  0  0
 50120  1  0  0  0
 51 52  1  0  0  0
 51121  1  0  0  0
 51122  1  0  0  0
 52123  1  0  0  0
 52124  1  0  0  0
 53 54  1  0  0  0
 54 55  2  0  0  0
 54125  1  0  0  0
 55 57  1  0  0  0
 55126  1  0  0  0
 56 69  2  0  0  0
 57 58  2  0  0  0
 57127  1  0  0  0
 58128  1  0  0  0
 59 60  1  0  0  0
 59 61  1  0  0  0
 59 62  1  0  0  0
 60129  1  0  0  0
 60130  1  0  0  0
 60131  1  0  0  0
 61132  1  0  0  0
 61133  1  0  0  0
 61134  1  0  0  0
 62135  1  0  0  0
 62136  1  0  0  0
 62137  1  0  0  0
 63 65  1  0  0  0
 63138  1  0  0  0
 63139  1  0  0  0
 63140  1  0  0  0
 64141  1  0  0  0
 65142  1  0  0  0
 68 78  1  0  0  0
 71 72  2  0  0  0
 71 79  1  0  0  0
 71143  1  0  0  0
 72 74  1  0  0  0
 72 83  1  0  0  0
 73 79  2  0  0  0
 73 80  1  0  0  0
 73 83  1  0  0  0
 74 81  1  0  0  0
 74 82  2  0  0  0
 75144  1  0  0  0
 75145  1  0  0  0
 75146  1  0  0  0
 75 78  1  0  0  0
 76 77  1  0  0  0
 76 78  1  0  0  0
 76147  1  0  0  0
 76148  1  0  0  0
 77 81  1  0  0  0
 77149  1  0  0  0
 77150  1  0  0  0
 78151  1  0  0  0
 80152  1  0  0  0
 81153  1  0  0  0
M  ISO  4   1 100  68 101  78 101  80 100
M  END
> <chiral flag>
0

> <version>
0

> <s_m_source_file>
/data/baiqing/PycharmProjects/Reinvent-master-3.2/result/LINK_invent/BTK/process_docking_weight1_custom_product_contain_oxygen_bond_distance_aromatic_linkinvent_7_9_3/rearranged_h_0187.sdf

> <i_m_source_file_index>
64

> <r_mmod_Potential_Energy-OPLS-2005>
-147.943054199219

> <r_mmod_Stretch_Energy-OPLS-2005>
40.7278633117676

> <r_mmod_Bend_Energy-OPLS-2005>
98.4765853881836

> <r_mmod_Torsional_Energy-OPLS-2005>
263.193298339844

> <r_mmod_Improper_Torsional_Energy-OPLS-2005>
5.40455389022827

> <r_mmod_Van_der_Waal_Energy-OPLS-2005>
138.698028564453

> <r_mmod_Electrostatic_Energy-OPLS-2005>
-465.617431640625

> <r_mmod_Solvation_Energy-OPLS-2005>
-245.941802978516

> <b_mmod_Minimization_Converged-OPLS-2005>
0

> <r_mmod_RMS_Derivative-OPLS-2005>
2.74150419235229

$$$$
66
                    3D
 Structure written by MMmdl.
158166  0  0  1  0            999 V2000
  -30.4894  -15.0698   20.4058 C   0  0  0  0  0  0
  -30.4460  -12.6639   19.5310 C   0  0  0  0  0  0
  -29.5334  -12.5449   18.2847 C   0  0  0  0  0  0
  -28.0722  -12.3038   18.7023 C   0  0  0  0  0  0
  -27.6291  -13.2564   19.8417 C   0  0  2  0  0  0
  -28.6638  -13.3296   20.9870 C   0  0  0  0  0  0
  -25.2463  -13.8233   20.5701 C   0  0  0  0  0  0
  -24.1777  -13.0454   20.9216 C   0  0  0  0  0  0
  -24.6399  -11.6934   20.8760 C   0  0  0  0  0  0
  -23.9081  -10.4295   21.0430 C   0  0  0  0  0  0
  -24.3636   -9.4205   21.9202 C   0  0  0  0  0  0
  -23.6299   -8.2243   22.0780 C   0  0  0  0  0  0
  -22.4280   -8.0290   21.3567 C   0  0  0  0  0  0
  -21.9915   -9.0262   20.4664 C   0  0  0  0  0  0
  -22.7257  -10.2133   20.3065 C   0  0  0  0  0  0
  -21.6852   -6.0745   22.5278 C   0  0  0  0  0  0
  -21.4027   -6.5648   23.8212 C   0  0  0  0  0  0
  -21.3648   -5.6799   24.9164 C   0  0  0  0  0  0
  -21.6037   -4.3065   24.7224 C   0  0  0  0  0  0
  -21.8819   -3.8154   23.4345 C   0  0  0  0  0  0
  -21.9198   -4.6970   22.3396 C   0  0  0  0  0  0
  -22.7787  -13.5211   21.1859 C   0  0  0  0  0  0
  -22.1657   -4.2154   21.0976 F   0  0  0  0  0  0
  -21.5620   -3.4539   25.7732 F   0  0  0  0  0  0
  -29.9336  -13.7776   20.3962 N   0  0  0  0  0  0
  -26.2892  -12.9482   20.3254 N   0  0  0  0  0  0
  -25.9345  -11.6600   20.5764 N   0  0  0  0  0  0
  -22.0436  -12.8204   22.0424 N   0  0  0  0  0  0
  -25.4149  -15.1959   20.4131 N   0  0  0  0  0  0
  -31.6801  -15.1321   20.0699 O   0  0  0  0  0  0
  -21.6645   -6.8892   21.4246 O   0  0  0  0  0  0
  -22.3455  -14.5497   20.6687 O   0  0  0  0  0  0
  -24.6490  -31.8339   23.1773 C   0  0  0  0  0  0
  -25.9216  -32.4646   23.8189 C   0  0  1  0  0  0
  -27.2237  -27.0587   20.1649 C   0  0  0  0  0  0
  -25.5934  -33.8454   24.2116 N   0  0  0  0  0  0
  -23.4585  -30.4495   21.5221 C   0  0  2  0  0  0
  -24.9111  -28.8577   20.0973 C   0  0  0  0  0  0
  -22.7624  -29.4496   22.4820 C   0  0  0  0  0  0
  -18.0323  -28.1449   22.8502 C   0  0  0  0  0  0
  -24.1486  -36.7223   23.2659 C   0  0  0  0  0  0
  -26.0163  -30.6812   21.3873 C   0  0  0  0  0  0
  -26.0828  -29.2853   20.7318 C   0  0  0  0  0  0
  -27.2291  -28.3971   20.7541 C   0  0  0  0  0  0
  -26.0330  -26.7477   19.4774 C   0  0  0  0  0  0
  -24.9042  -27.6069   19.4539 C   0  0  0  0  0  0
  -23.6884  -29.7696   20.1416 C   0  0  0  0  0  0
  -25.4125  -36.3003   24.0322 C   0  0  1  0  0  0
  -20.5933  -28.3743   23.1250 C   0  0  2  0  0  0
  -20.6816  -26.9447   22.5428 C   0  0  0  0  0  0
  -19.5766  -26.6394   21.5267 C   0  0  0  0  0  0
  -18.1934  -26.7993   22.1640 C   0  0  0  0  0  0
  -19.1592  -28.8912   23.2855 C   0  0  0  0  0  0
  -18.9500  -30.1518   23.8865 C   0  0  0  0  0  0
  -17.6492  -30.6618   24.0582 C   0  0  0  0  0  0
  -25.9076  -34.9383   23.5029 C   0  0  0  0  0  0
  -16.5381  -29.9124   23.6361 C   0  0  0  0  0  0
  -16.7308  -28.6551   23.0357 C   0  0  0  0  0  0
  -26.4517  -31.6564   25.0668 C   0  0  0  0  0  0
  -25.3674  -31.3790   26.1349 C   0  0  0  0  0  0
  -27.0407  -30.2957   24.6291 C   0  0  0  0  0  0
  -27.6034  -32.4358   25.7458 C   0  0  0  0  0  0
  -27.5569  -37.1774   24.8481 C   0  0  0  0  0  0
  -21.4297  -29.3051   22.3603 N   0  0  0  0  0  0
  -26.4273  -37.3737   23.9433 N   0  0  0  0  0  0
  -24.7278  -31.0136   22.0835 N   0  0  0  0  0  0
  -23.4235  -28.8085   23.3023 O   0  0  0  0  0  0
  -28.2644  -26.0541   20.3447 O   0  0  0  0  0  0
  -26.5676  -34.8921   22.4618 O   0  0  0  0  0  0
  -23.5575  -32.1256   23.6927 O   0  0  0  0  0  0
  -29.9399  -19.7221   19.2296 C   0  0  0  0  0  0
  -29.7294  -17.7827   20.3517 C   0  0  0  0  0  0
  -29.2063  -18.9435   21.0391 C   0  0  0  0  0  0
  -28.1723  -23.0804   20.3038 C   0  0  0  0  0  0
  -30.3458  -21.5207   24.5394 C   0  0  0  0  0  0
  -31.7826  -22.4122   22.6774 C   0  0  0  0  0  0
  -28.4990  -24.6255   19.6858 C   0  0  0  0  0  0
  -29.2910  -21.9502   22.2888 C   0  0  0  0  0  0
  -29.2376  -21.8320   20.7356 C   0  0  1  0  0  0
  -30.5837  -21.5136   23.0183 C   0  0  0  0  0  0
  -30.1823  -18.3760   19.1614 N   0  0  0  0  0  0
  -29.3807  -20.2440   20.3530 N   0  0  0  0  0  0
  -29.7118  -16.2541   20.6969 N   0  0  0  0  0  0
  -26.9742  -22.8205   20.4603 O   0  0  0  0  0  0
  -28.6448  -18.8672   22.2692 F   0  0  0  0  0  0
  -31.4749  -12.8343   19.2137 H   0  0  0  0  0  0
  -30.4664  -11.7265   20.0896 H   0  0  0  0  0  0
  -29.8796  -11.7381   17.6370 H   0  0  0  0  0  0
  -29.5962  -13.4635   17.6989 H   0  0  0  0  0  0
  -27.9964  -11.2702   19.0450 H   0  0  0  0  0  0
  -27.4044  -12.3921   17.8441 H   0  0  0  0  0  0
  -27.5801  -14.2457   19.3851 H   0  0  0  0  0  0
  -28.7736  -12.3646   21.4830 H   0  0  0  0  0  0
  -28.3314  -14.0328   21.7528 H   0  0  0  0  0  0
  -25.2785   -9.5665   22.4776 H   0  0  0  0  0  0
  -23.9997   -7.4638   22.7513 H   0  0  0  0  0  0
  -21.0843   -8.8792   19.8966 H   0  0  0  0  0  0
  -22.3741  -10.9676   19.6162 H   0  0  0  0  0  0
  -21.2026   -7.6160   23.9715 H   0  0  0  0  0  0
  -21.1463   -6.0529   25.9069 H   0  0  0  0  0  0
  -22.0608   -2.7620   23.2839 H   0  0  0  0  0  0
  -22.4044  -11.9830   22.4753 H   0  0  0  0  0  0
  -21.1078  -13.1267   22.2696 H   0  0  0  0  0  0
  -24.6465  -15.8491   20.5187 H   0  0  0  0  0  0
  -26.2600  -15.6333   20.0691 H   0  0  0  0  0  0
  -26.7274  -32.5225   23.0896 H   0  0  0  0  0  0
  -25.0131  -33.9560   25.0296 H   0  0  0  0  0  0
  -22.7667  -31.2780   21.3570 H   0  0  0  0  0  0
  -23.3761  -35.9531   23.3297 H   0  0  0  0  0  0
  -24.3582  -36.8865   22.2077 H   0  0  0  0  0  0
  -23.7211  -37.6413   23.6699 H   0  0  0  0  0  0
  -26.1807  -31.4282   20.6095 H   0  0  0  0  0  0
  -26.8871  -30.7337   22.0292 H   0  0  0  0  0  0
  -28.1112  -28.7100   21.2928 H   0  0  0  0  0  0
  -25.9382  -25.7809   19.0075 H   0  0  0  0  0  0
  -24.0085  -27.2714   18.9489 H   0  0  0  0  0  0
  -23.8289  -30.5410   19.3837 H   0  0  0  0  0  0
  -22.8021  -29.2139   19.8325 H   0  0  0  0  0  0
  -25.1304  -36.1815   25.0808 H   0  0  0  0  0  0
  -21.0028  -28.3337   24.1371 H   0  0  0  0  0  0
  -20.5774  -26.2367   23.3653 H   0  0  0  0  0  0
  -21.6672  -26.7485   22.1187 H   0  0  0  0  0  0
  -19.6931  -25.6295   21.1302 H   0  0  0  0  0  0
  -19.6717  -27.3224   20.6809 H   0  0  0  0  0  0
  -17.4244  -26.6803   21.3998 H   0  0  0  0  0  0
  -18.0238  -26.0149   22.9022 H   0  0  0  0  0  0
  -19.7973  -30.7364   24.2191 H   0  0  0  0  0  0
  -17.5046  -31.6304   24.5200 H   0  0  0  0  0  0
  -15.5383  -30.3014   23.7721 H   0  0  0  0  0  0
  -15.8709  -28.0881   22.7050 H   0  0  0  0  0  0
  -24.5907  -30.7052   25.7719 H   0  0  0  0  0  0
  -24.8797  -32.2989   26.4601 H   0  0  0  0  0  0
  -25.7945  -30.9138   27.0232 H   0  0  0  0  0  0
  -26.3049  -29.6675   24.1268 H   0  0  0  0  0  0
  -27.4028  -29.7247   25.4853 H   0  0  0  0  0  0
  -27.8932  -30.4235   23.9613 H   0  0  0  0  0  0
  -27.2615  -33.3728   26.1854 H   0  0  0  0  0  0
  -28.3930  -32.6788   25.0338 H   0  0  0  0  0  0
  -28.0578  -31.8577   26.5522 H   0  0  0  0  0  0
  -28.2576  -38.0080   24.7526 H   0  0  0  0  0  0
  -28.1052  -36.2606   24.6273 H   0  0  0  0  0  0
  -27.2287  -37.1385   25.8884 H   0  0  0  0  0  0
  -20.9520  -29.8742   21.6756 H   0  0  0  0  0  0
  -26.0114  -38.2786   24.1458 H   0  0  0  0  0  0
  -30.2501  -20.3691   18.4218 H   0  0  0  0  0  0
  -31.2288  -21.1870   25.0851 H   0  0  0  0  0  0
  -29.5208  -20.8631   24.8177 H   0  0  0  0  0  0
  -30.0957  -22.5192   24.9017 H   0  0  0  0  0  0
  -32.6558  -22.1311   23.2678 H   0  0  0  0  0  0
  -31.5728  -23.4616   22.8881 H   0  0  0  0  0  0
  -32.0664  -22.3342   21.6279 H   0  0  0  0  0  0
  -27.9932  -24.6639   18.7208 H   0  0  0  0  0  0
  -29.5581  -24.6053   19.4238 H   0  0  0  0  0  0
  -28.4542  -21.3728   22.6843 H   0  0  0  0  0  0
  -29.0832  -22.9743   22.6055 H   0  0  0  0  0  0
  -30.1741  -22.2506   20.3671 H   0  0  0  0  0  0
  -30.8379  -20.4916   22.7351 H   0  0  0  0  0  0
  -28.8734  -16.0053   21.1992 H   0  0  0  0  0  0
  1 25  1  0  0  0
  1 30  2  0  0  0
  1 83  1  0  0  0
  2  3  1  0  0  0
  2 25  1  0  0  0
  2 86  1  0  0  0
  2 87  1  0  0  0
  3  4  1  0  0  0
  3 88  1  0  0  0
  3 89  1  0  0  0
  4  5  1  0  0  0
  4 90  1  0  0  0
  4 91  1  0  0  0
  5  6  1  0  0  0
  5 26  1  0  0  0
  5 92  1  0  0  0
  6 25  1  0  0  0
  6 93  1  0  0  0
  6 94  1  0  0  0
  7  8  2  0  0  0
  7 26  1  0  0  0
  7 29  1  0  0  0
  8  9  1  0  0  0
  8 22  1  0  0  0
  9 10  1  0  0  0
  9 27  2  0  0  0
 10 11  2  0  0  0
 10 15  1  0  0  0
 11 12  1  0  0  0
 11 95  1  0  0  0
 12 13  2  0  0  0
 12 96  1  0  0  0
 13 14  1  0  0  0
 13 31  1  0  0  0
 14 15  2  0  0  0
 14 97  1  0  0  0
 15 98  1  0  0  0
 16 17  2  0  0  0
 16 21  1  0  0  0
 16 31  1  0  0  0
 17 18  1  0  0  0
 17 99  1  0  0  0
 18 19  2  0  0  0
 18100  1  0  0  0
 19 20  1  0  0  0
 19 24  1  0  0  0
 20 21  2  0  0  0
 20101  1  0  0  0
 21 23  1  0  0  0
 22 28  1  0  0  0
 22 32  2  0  0  0
 26 27  1  0  0  0
 28102  1  0  0  0
 28103  1  0  0  0
 29104  1  0  0  0
 29105  1  0  0  0
 33 34  1  0  0  0
 33 66  1  0  0  0
 33 70  2  0  0  0
 34 36  1  0  0  0
 34 59  1  0  0  0
 34106  1  0  0  0
 35 44  2  0  0  0
 35 45  1  0  0  0
 35 68  1  0  0  0
 36 56  1  0  0  0
 36107  1  0  0  0
 37 39  1  0  0  0
 37 47  1  0  0  0
 37 66  1  0  0  0
 37108  1  0  0  0
 38 43  2  0  0  0
 38 46  1  0  0  0
 38 47  1  0  0  0
 39 64  1  0  0  0
 39 67  2  0  0  0
 40 52  1  0  0  0
 40 53  2  0  0  0
 40 58  1  0  0  0
 41109  1  0  0  0
 41110  1  0  0  0
 41111  1  0  0  0
 41 48  1  0  0  0
 42 43  1  0  0  0
 42 66  1  0  0  0
 42112  1  0  0  0
 42113  1  0  0  0
 43 44  1  0  0  0
 44114  1  0  0  0
 45 46  2  0  0  0
 45115  1  0  0  0
 46116  1  0  0  0
 47117  1  0  0  0
 47118  1  0  0  0
 48 56  1  0  0  0
 48 65  1  0  0  0
 48119  1  0  0  0
 49 50  1  0  0  0
 49 53  1  0  0  0
 49 64  1  0  0  0
 49120  1  0  0  0
 50 51  1  0  0  0
 50121  1  0  0  0
 50122  1  0  0  0
 51 52  1  0  0  0
 51123  1  0  0  0
 51124  1  0  0  0
 52125  1  0  0  0
 52126  1  0  0  0
 53 54  1  0  0  0
 54 55  2  0  0  0
 54127  1  0  0  0
 55 57  1  0  0  0
 55128  1  0  0  0
 56 69  2  0  0  0
 57 58  2  0  0  0
 57129  1  0  0  0
 58130  1  0  0  0
 59 60  1  0  0  0
 59 61  1  0  0  0
 59 62  1  0  0  0
 60131  1  0  0  0
 60132  1  0  0  0
 60133  1  0  0  0
 61134  1  0  0  0
 61135  1  0  0  0
 61136  1  0  0  0
 62137  1  0  0  0
 62138  1  0  0  0
 62139  1  0  0  0
 63 65  1  0  0  0
 63140  1  0  0  0
 63141  1  0  0  0
 63142  1  0  0  0
 64143  1  0  0  0
 65144  1  0  0  0
 68 77  1  0  0  0
 71 81  2  0  0  0
 71 82  1  0  0  0
 71145  1  0  0  0
 72 73  2  0  0  0
 72 81  1  0  0  0
 72 83  1  0  0  0
 73 82  1  0  0  0
 73 85  1  0  0  0
 74 77  1  0  0  0
 74 79  1  0  0  0
 74 84  2  0  0  0
 75146  1  0  0  0
 75147  1  0  0  0
 75148  1  0  0  0
 75 80  1  0  0  0
 76 80  1  0  0  0
 76149  1  0  0  0
 76150  1  0  0  0
 76151  1  0  0  0
 77152  1  0  0  0
 77153  1  0  0  0
 78 80  1  0  0  0
 78154  1  0  0  0
 78155  1  0  0  0
 78 79  1  0  0  0
 79 82  1  0  0  0
 79156  1  0  0  0
 80157  1  0  0  0
 83158  1  0  0  0
M  ISO  4   1 100  68 101  77 101  83 100
M  END
> <chiral flag>
0

> <version>
0

> <s_m_source_file>
/data/baiqing/PycharmProjects/Reinvent-master-3.2/result/LINK_invent/BTK/process_docking_weight1_custom_product_contain_oxygen_bond_distance_aromatic_linkinvent_7_9_3/rearranged_h_0187.sdf

> <i_m_source_file_index>
65

> <r_mmod_Potential_Energy-OPLS-2005>
784.349365234375

> <r_mmod_Stretch_Energy-OPLS-2005>
353.384826660156

> <r_mmod_Bend_Energy-OPLS-2005>
387.801422119141

> <r_mmod_Torsional_Energy-OPLS-2005>
263.416625976562

> <r_mmod_Improper_Torsional_Energy-OPLS-2005>
4.59154319763184

> <r_mmod_Van_der_Waal_Energy-OPLS-2005>
102.119827270508

> <r_mmod_Electrostatic_Energy-OPLS-2005>
-365.132415771484

> <r_mmod_Solvation_Energy-OPLS-2005>
-243.536239624023

> <b_mmod_Minimization_Converged-OPLS-2005>
0

> <r_mmod_RMS_Derivative-OPLS-2005>
3.44150376319885

$$$$
67
                    3D
 Structure written by MMmdl.
149157  0  0  1  0            999 V2000
  -30.5637  -14.7389   20.4983 C   0  0  0  0  0  0
  -30.4531  -12.4480   19.4764 C   0  0  0  0  0  0
  -29.5234  -12.5127   18.2401 C   0  0  0  0  0  0
  -28.0449  -12.3291   18.6432 C   0  0  0  0  0  0
  -27.6472  -13.2177   19.8500 C   0  0  2  0  0  0
  -28.6883  -13.1153   20.9851 C   0  0  0  0  0  0
  -25.2553  -13.8161   20.5670 C   0  0  0  0  0  0
  -24.1827  -13.0424   20.9191 C   0  0  0  0  0  0
  -24.6400  -11.6897   20.8734 C   0  0  0  0  0  0
  -23.9069  -10.4283   21.0405 C   0  0  0  0  0  0
  -24.3624   -9.4201   21.9182 C   0  0  0  0  0  0
  -23.6297   -8.2238   22.0755 C   0  0  0  0  0  0
  -22.4278   -8.0279   21.3544 C   0  0  0  0  0  0
  -21.9914   -9.0253   20.4646 C   0  0  0  0  0  0
  -22.7243  -10.2129   20.3056 C   0  0  0  0  0  0
  -21.6854   -6.0737   22.5280 C   0  0  0  0  0  0
  -21.4013   -6.5639   23.8215 C   0  0  0  0  0  0
  -21.3661   -5.6791   24.9176 C   0  0  0  0  0  0
  -21.6046   -4.3055   24.7227 C   0  0  0  0  0  0
  -21.8820   -3.8147   23.4348 C   0  0  0  0  0  0
  -21.9193   -4.6963   22.3402 C   0  0  0  0  0  0
  -22.7848  -13.5215   21.1861 C   0  0  0  0  0  0
  -22.1660   -4.2149   21.0980 F   0  0  0  0  0  0
  -21.5630   -3.4538   25.7741 F   0  0  0  0  0  0
  -29.9983  -13.4835   20.4309 N   0  0  0  0  0  0
  -26.2962  -12.9336   20.3238 N   0  0  0  0  0  0
  -25.9323  -11.6495   20.5715 N   0  0  0  0  0  0
  -22.0490  -12.8210   22.0420 N   0  0  0  0  0  0
  -25.4259  -15.1888   20.4113 N   0  0  0  0  0  0
  -31.7217  -14.9069   20.0977 O   0  0  0  0  0  0
  -21.6639   -6.8879   21.4243 O   0  0  0  0  0  0
  -22.3532  -14.5522   20.6712 O   0  0  0  0  0  0
  -24.6299  -31.8554   23.1969 C   0  0  0  0  0  0
  -25.9127  -32.4757   23.8321 C   0  0  1  0  0  0
  -27.2289  -27.2756   20.1413 C   0  0  0  0  0  0
  -25.5926  -33.8559   24.2249 N   0  0  0  0  0  0
  -23.4269  -30.4750   21.5401 C   0  0  2  0  0  0
  -24.8762  -28.9148   20.1165 C   0  0  0  0  0  0
  -22.7494  -29.4603   22.4921 C   0  0  0  0  0  0
  -18.0290  -28.1388   22.8484 C   0  0  0  0  0  0
  -24.1489  -36.7285   23.2641 C   0  0  0  0  0  0
  -25.9699  -30.7743   21.3722 C   0  0  0  0  0  0
  -26.0461  -29.3947   20.7202 C   0  0  0  0  0  0
  -27.2282  -28.5897   20.7145 C   0  0  0  0  0  0
  -26.0377  -26.8498   19.5191 C   0  0  0  0  0  0
  -24.8758  -27.6497   19.5047 C   0  0  0  0  0  0
  -23.6457  -29.8011   20.1590 C   0  0  0  0  0  0
  -25.4117  -36.3071   24.0326 C   0  0  1  0  0  0
  -20.5891  -28.3699   23.1272 C   0  0  2  0  0  0
  -20.6777  -26.9419   22.5408 C   0  0  0  0  0  0
  -19.5754  -26.6385   21.5212 C   0  0  0  0  0  0
  -18.1933  -26.7931   22.1623 C   0  0  0  0  0  0
  -19.1543  -28.8861   23.2873 C   0  0  0  0  0  0
  -18.9465  -30.1461   23.8892 C   0  0  0  0  0  0
  -17.6464  -30.6590   24.0562 C   0  0  0  0  0  0
  -25.9056  -34.9442   23.5092 C   0  0  0  0  0  0
  -16.5356  -29.9087   23.6333 C   0  0  0  0  0  0
  -16.7277  -28.6504   23.0355 C   0  0  0  0  0  0
  -26.4497  -31.6581   25.0710 C   0  0  0  0  0  0
  -25.3723  -31.3732   26.1433 C   0  0  0  0  0  0
  -27.0342  -30.2997   24.6191 C   0  0  0  0  0  0
  -27.6049  -32.4322   25.7488 C   0  0  0  0  0  0
  -27.5581  -37.1799   24.8466 C   0  0  0  0  0  0
  -21.4203  -29.3045   22.3661 N   0  0  0  0  0  0
  -26.4292  -37.3771   23.9409 N   0  0  0  0  0  0
  -24.6946  -31.0529   22.0933 N   0  0  0  0  0  0
  -23.4194  -28.8154   23.3030 O   0  0  0  0  0  0
  -28.3419  -26.4124   20.1376 O   0  0  0  0  0  0
  -26.5633  -34.8918   22.4664 O   0  0  0  0  0  0
  -23.5452  -32.1368   23.7273 O   0  0  0  0  0  0
  -30.7485  -19.7591   21.5512 C   0  0  0  0  0  0
  -29.7256  -19.8528   20.6838 C   0  0  0  0  0  0
  -29.3243  -18.4766   20.2412 C   0  0  0  0  0  0
  -29.1849  -22.3876   20.7358 C   0  0  0  0  0  0
  -29.7011  -15.9977   21.0022 C   0  0  0  0  0  0
  -28.2139  -25.0241   20.7023 C   0  0  0  0  0  0
  -28.6851  -23.6822   19.9135 C   0  0  0  0  0  0
  -30.0732  -17.4744   20.8299 N   0  0  0  0  0  0
  -29.1162  -21.0985   20.2175 N   0  0  0  0  0  0
  -28.3858  -18.2399   19.4789 O   0  0  0  0  0  0
  -29.6789  -22.5774   21.8515 O   0  0  0  0  0  0
  -29.7025  -24.0469   19.1322 F   0  0  0  0  0  0
  -27.6831  -23.3028   19.1180 F   0  0  0  0  0  0
  -31.2832  -18.1090   21.8676 S   0  0  0  0  0  0
  -31.4917  -12.5949   19.1754 H   0  0  0  0  0  0
  -30.4123  -11.4610   19.9398 H   0  0  0  0  0  0
  -29.8094  -11.7516   17.5130 H   0  0  0  0  0  0
  -29.6480  -13.4748   17.7401 H   0  0  0  0  0  0
  -27.8986  -11.2779   18.8942 H   0  0  0  0  0  0
  -27.3933  -12.5325   17.7926 H   0  0  0  0  0  0
  -27.6467  -14.2405   19.4765 H   0  0  0  0  0  0
  -28.7193  -12.1009   21.3856 H   0  0  0  0  0  0
  -28.4128  -13.7558   21.8234 H   0  0  0  0  0  0
  -25.2771   -9.5675   22.4754 H   0  0  0  0  0  0
  -24.0006   -7.4629   22.7475 H   0  0  0  0  0  0
  -21.0845   -8.8772   19.8948 H   0  0  0  0  0  0
  -22.3706  -10.9671   19.6164 H   0  0  0  0  0  0
  -21.2002   -7.6148   23.9720 H   0  0  0  0  0  0
  -21.1484   -6.0520   25.9079 H   0  0  0  0  0  0
  -22.0600   -2.7609   23.2850 H   0  0  0  0  0  0
  -22.4106  -11.9871   22.4807 H   0  0  0  0  0  0
  -21.1107  -13.1236   22.2623 H   0  0  0  0  0  0
  -24.6563  -15.8400   20.5241 H   0  0  0  0  0  0
  -26.2700  -15.6331   20.0726 H   0  0  0  0  0  0
  -26.7198  -32.5416   23.1071 H   0  0  0  0  0  0
  -25.0062  -33.9695   25.0385 H   0  0  0  0  0  0
  -22.7231  -31.2964   21.3902 H   0  0  0  0  0  0
  -23.3755  -35.9614   23.3296 H   0  0  0  0  0  0
  -24.3578  -36.8918   22.2056 H   0  0  0  0  0  0
  -23.7240  -37.6481   23.6671 H   0  0  0  0  0  0
  -26.1037  -31.5333   20.6001 H   0  0  0  0  0  0
  -26.8488  -30.8276   22.0034 H   0  0  0  0  0  0
  -28.1297  -28.9579   21.1839 H   0  0  0  0  0  0
  -26.0025  -25.8781   19.0469 H   0  0  0  0  0  0
  -23.9798  -27.2758   19.0286 H   0  0  0  0  0  0
  -23.7696  -30.5733   19.3988 H   0  0  0  0  0  0
  -22.7647  -29.2321   19.8565 H   0  0  0  0  0  0
  -25.1300  -36.1919   25.0818 H   0  0  0  0  0  0
  -20.9983  -28.3281   24.1394 H   0  0  0  0  0  0
  -20.5677  -26.2313   23.3614 H   0  0  0  0  0  0
  -21.6646  -26.7445   22.1205 H   0  0  0  0  0  0
  -19.6917  -25.6294   21.1247 H   0  0  0  0  0  0
  -19.6690  -27.3191   20.6739 H   0  0  0  0  0  0
  -17.4203  -26.6678   21.4026 H   0  0  0  0  0  0
  -18.0335  -26.0074   22.9020 H   0  0  0  0  0  0
  -19.7942  -30.7278   24.2260 H   0  0  0  0  0  0
  -17.5020  -31.6270   24.5163 H   0  0  0  0  0  0
  -15.5356  -30.2988   23.7657 H   0  0  0  0  0  0
  -15.8677  -28.0820   22.7074 H   0  0  0  0  0  0
  -24.5886  -30.7101   25.7756 H   0  0  0  0  0  0
  -24.8934  -32.2906   26.4865 H   0  0  0  0  0  0
  -25.8038  -30.8895   27.0205 H   0  0  0  0  0  0
  -26.2920  -29.6743   24.1218 H   0  0  0  0  0  0
  -27.4026  -29.7265   25.4710 H   0  0  0  0  0  0
  -27.8797  -30.4270   23.9426 H   0  0  0  0  0  0
  -27.2654  -33.3629   26.2047 H   0  0  0  0  0  0
  -28.3870  -32.6871   25.0325 H   0  0  0  0  0  0
  -28.0702  -31.8459   26.5421 H   0  0  0  0  0  0
  -28.2595  -38.0098   24.7514 H   0  0  0  0  0  0
  -28.1078  -36.2629   24.6290 H   0  0  0  0  0  0
  -27.2298  -37.1449   25.8868 H   0  0  0  0  0  0
  -20.9392  -29.8757   21.6853 H   0  0  0  0  0  0
  -26.0170  -38.2844   24.1407 H   0  0  0  0  0  0
  -31.2599  -20.5811   22.0300 H   0  0  0  0  0  0
  -28.7059  -15.8823   20.5783 H   0  0  0  0  0  0
  -29.5605  -15.8460   22.0724 H   0  0  0  0  0  0
  -28.7940  -25.0686   21.6241 H   0  0  0  0  0  0
  -27.1914  -24.8669   21.0473 H   0  0  0  0  0  0
  -28.5887  -21.0083   19.3586 H   0  0  0  0  0  0
  1 25  1  0  0  0
  1 30  2  0  0  0
  1 75  1  0  0  0
  2  3  1  0  0  0
  2 25  1  0  0  0
  2 85  1  0  0  0
  2 86  1  0  0  0
  3  4  1  0  0  0
  3 87  1  0  0  0
  3 88  1  0  0  0
  4  5  1  0  0  0
  4 89  1  0  0  0
  4 90  1  0  0  0
  5  6  1  0  0  0
  5 26  1  0  0  0
  5 91  1  0  0  0
  6 25  1  0  0  0
  6 92  1  0  0  0
  6 93  1  0  0  0
  7  8  2  0  0  0
  7 26  1  0  0  0
  7 29  1  0  0  0
  8  9  1  0  0  0
  8 22  1  0  0  0
  9 10  1  0  0  0
  9 27  2  0  0  0
 10 11  2  0  0  0
 10 15  1  0  0  0
 11 12  1  0  0  0
 11 94  1  0  0  0
 12 13  2  0  0  0
 12 95  1  0  0  0
 13 14  1  0  0  0
 13 31  1  0  0  0
 14 15  2  0  0  0
 14 96  1  0  0  0
 15 97  1  0  0  0
 16 17  2  0  0  0
 16 21  1  0  0  0
 16 31  1  0  0  0
 17 18  1  0  0  0
 17 98  1  0  0  0
 18 19  2  0  0  0
 18 99  1  0  0  0
 19 20  1  0  0  0
 19 24  1  0  0  0
 20 21  2  0  0  0
 20100  1  0  0  0
 21 23  1  0  0  0
 22 28  1  0  0  0
 22 32  2  0  0  0
 26 27  1  0  0  0
 28101  1  0  0  0
 28102  1  0  0  0
 29103  1  0  0  0
 29104  1  0  0  0
 33 34  1  0  0  0
 33 66  1  0  0  0
 33 70  2  0  0  0
 34 36  1  0  0  0
 34 59  1  0  0  0
 34105  1  0  0  0
 35 44  2  0  0  0
 35 45  1  0  0  0
 35 68  1  0  0  0
 36 56  1  0  0  0
 36106  1  0  0  0
 37 39  1  0  0  0
 37 47  1  0  0  0
 37 66  1  0  0  0
 37107  1  0  0  0
 38 43  2  0  0  0
 38 46  1  0  0  0
 38 47  1  0  0  0
 39 64  1  0  0  0
 39 67  2  0  0  0
 40 52  1  0  0  0
 40 53  2  0  0  0
 40 58  1  0  0  0
 41108  1  0  0  0
 41109  1  0  0  0
 41110  1  0  0  0
 41 48  1  0  0  0
 42 43  1  0  0  0
 42 66  1  0  0  0
 42111  1  0  0  0
 42112  1  0  0  0
 43 44  1  0  0  0
 44113  1  0  0  0
 45 46  2  0  0  0
 45114  1  0  0  0
 46115  1  0  0  0
 47116  1  0  0  0
 47117  1  0  0  0
 48 56  1  0  0  0
 48 65  1  0  0  0
 48118  1  0  0  0
 49 50  1  0  0  0
 49 53  1  0  0  0
 49 64  1  0  0  0
 49119  1  0  0  0
 50 51  1  0  0  0
 50120  1  0  0  0
 50121  1  0  0  0
 51 52  1  0  0  0
 51122  1  0  0  0
 51123  1  0  0  0
 52124  1  0  0  0
 52125  1  0  0  0
 53 54  1  0  0  0
 54 55  2  0  0  0
 54126  1  0  0  0
 55 57  1  0  0  0
 55127  1  0  0  0
 56 69  2  0  0  0
 57 58  2  0  0  0
 57128  1  0  0  0
 58129  1  0  0  0
 59 60  1  0  0  0
 59 61  1  0  0  0
 59 62  1  0  0  0
 60130  1  0  0  0
 60131  1  0  0  0
 60132  1  0  0  0
 61133  1  0  0  0
 61134  1  0  0  0
 61135  1  0  0  0
 62136  1  0  0  0
 62137  1  0  0  0
 62138  1  0  0  0
 63 65  1  0  0  0
 63139  1  0  0  0
 63140  1  0  0  0
 63141  1  0  0  0
 64142  1  0  0  0
 65143  1  0  0  0
 68 76  1  0  0  0
 71 72  2  0  0  0
 71 84  1  0  0  0
 71144  1  0  0  0
 72 73  1  0  0  0
 72 79  1  0  0  0
 73 78  1  0  0  0
 73 80  2  0  0  0
 74 77  1  0  0  0
 74 79  1  0  0  0
 74 81  2  0  0  0
 75 78  1  0  0  0
 75145  1  0  0  0
 75146  1  0  0  0
 76 77  1  0  0  0
 76147  1  0  0  0
 76148  1  0  0  0
 77 82  1  0  0  0
 77 83  1  0  0  0
 78 84  1  0  0  0
 79149  1  0  0  0
M  ISO  4   1 100  68 101  75 100  76 101
M  END
> <chiral flag>
0

> <version>
0

> <s_m_source_file>
/data/baiqing/PycharmProjects/Reinvent-master-3.2/result/LINK_invent/BTK/process_docking_weight1_custom_product_contain_oxygen_bond_distance_aromatic_linkinvent_7_9_3/rearranged_h_0187.sdf

> <i_m_source_file_index>
66

> <r_mmod_Potential_Energy-OPLS-2005>
82.1110687255859

> <r_mmod_Stretch_Energy-OPLS-2005>
121.384719848633

> <r_mmod_Bend_Energy-OPLS-2005>
191.165283203125

> <r_mmod_Torsional_Energy-OPLS-2005>
196.186264038086

> <r_mmod_Improper_Torsional_Energy-OPLS-2005>
3.86404633522034

> <r_mmod_Van_der_Waal_Energy-OPLS-2005>
114.348899841309

> <r_mmod_Electrostatic_Energy-OPLS-2005>
-403.654449462891

> <r_mmod_Solvation_Energy-OPLS-2005>
-218.107925415039

> <b_mmod_Minimization_Converged-OPLS-2005>
0

> <r_mmod_RMS_Derivative-OPLS-2005>
0.52789831161499

$$$$
68
                    3D
 Structure written by MMmdl.
155163  0  0  1  0            999 V2000
  -30.6285  -14.5019   20.5066 C   0  0  0  0  0  0
  -30.4304  -12.2960   19.4424 C   0  0  0  0  0  0
  -29.4976  -12.4757   18.2227 C   0  0  0  0  0  0
  -28.0172  -12.3294   18.6329 C   0  0  0  0  0  0
  -27.6579  -13.1868   19.8735 C   0  0  2  0  0  0
  -28.6952  -12.9753   21.0026 C   0  0  0  0  0  0
  -25.2579  -13.8109   20.5639 C   0  0  0  0  0  0
  -24.1830  -13.0425   20.9172 C   0  0  0  0  0  0
  -24.6351  -11.6879   20.8759 C   0  0  0  0  0  0
  -23.9031  -10.4269   21.0419 C   0  0  0  0  0  0
  -24.3599   -9.4182   21.9196 C   0  0  0  0  0  0
  -23.6279   -8.2222   22.0755 C   0  0  0  0  0  0
  -22.4266   -8.0275   21.3542 C   0  0  0  0  0  0
  -21.9886   -9.0245   20.4650 C   0  0  0  0  0  0
  -22.7212  -10.2119   20.3061 C   0  0  0  0  0  0
  -21.6845   -6.0735   22.5277 C   0  0  0  0  0  0
  -21.4024   -6.5645   23.8217 C   0  0  0  0  0  0
  -21.3654   -5.6797   24.9180 C   0  0  0  0  0  0
  -21.6011   -4.3054   24.7225 C   0  0  0  0  0  0
  -21.8825   -3.8144   23.4357 C   0  0  0  0  0  0
  -21.9190   -4.6956   22.3412 C   0  0  0  0  0  0
  -22.7845  -13.5220   21.1842 C   0  0  0  0  0  0
  -22.1661   -4.2148   21.0982 F   0  0  0  0  0  0
  -21.5614   -3.4540   25.7736 F   0  0  0  0  0  0
  -30.0279  -13.2846   20.4549 N   0  0  0  0  0  0
  -26.2978  -12.9243   20.3325 N   0  0  0  0  0  0
  -25.9264  -11.6416   20.5772 N   0  0  0  0  0  0
  -22.0483  -12.8247   22.0413 N   0  0  0  0  0  0
  -25.4285  -15.1825   20.3969 N   0  0  0  0  0  0
  -31.7800  -14.7062   20.1107 O   0  0  0  0  0  0
  -21.6630   -6.8873   21.4247 O   0  0  0  0  0  0
  -22.3536  -14.5527   20.6678 O   0  0  0  0  0  0
  -24.6144  -31.8679   23.2103 C   0  0  0  0  0  0
  -25.9044  -32.4783   23.8384 C   0  0  1  0  0  0
  -27.2134  -27.4212   20.0989 C   0  0  0  0  0  0
  -25.5909  -33.8574   24.2333 N   0  0  0  0  0  0
  -23.3996  -30.4930   21.5514 C   0  0  2  0  0  0
  -24.8396  -28.9617   20.1118 C   0  0  0  0  0  0
  -22.7413  -29.4647   22.4989 C   0  0  0  0  0  0
  -18.0268  -28.1359   22.8485 C   0  0  0  0  0  0
  -24.1488  -36.7296   23.2655 C   0  0  0  0  0  0
  -25.9285  -30.8322   21.3616 C   0  0  0  0  0  0
  -26.0021  -29.4682   20.7043 C   0  0  0  0  0  0
  -27.1941  -28.7078   20.6883 C   0  0  0  0  0  0
  -26.0269  -26.9294   19.5045 C   0  0  0  0  0  0
  -24.8463  -27.6918   19.5125 C   0  0  0  0  0  0
  -23.6063  -29.8331   20.1639 C   0  0  0  0  0  0
  -25.4102  -36.3068   24.0354 C   0  0  1  0  0  0
  -20.5865  -28.3644   23.1329 C   0  0  2  0  0  0
  -20.6765  -26.9375   22.5423 C   0  0  0  0  0  0
  -19.5745  -26.6371   21.5216 C   0  0  0  0  0  0
  -18.1924  -26.7913   22.1617 C   0  0  0  0  0  0
  -19.1515  -28.8820   23.2904 C   0  0  0  0  0  0
  -18.9446  -30.1438   23.8904 C   0  0  0  0  0  0
  -17.6446  -30.6574   24.0555 C   0  0  0  0  0  0
  -25.9031  -34.9440   23.5133 C   0  0  0  0  0  0
  -16.5338  -29.9068   23.6311 C   0  0  0  0  0  0
  -16.7261  -28.6477   23.0342 C   0  0  0  0  0  0
  -26.4471  -31.6542   25.0674 C   0  0  0  0  0  0
  -25.3812  -31.3671   26.1496 C   0  0  0  0  0  0
  -27.0255  -30.2974   24.5973 C   0  0  0  0  0  0
  -27.6076  -32.4243   25.7399 C   0  0  0  0  0  0
  -27.5575  -37.1798   24.8486 C   0  0  0  0  0  0
  -21.4136  -29.3012   22.3736 N   0  0  0  0  0  0
  -26.4268  -37.3763   23.9437 N   0  0  0  0  0  0
  -24.6645  -31.0827   22.0970 N   0  0  0  0  0  0
  -23.4177  -28.8185   23.3028 O   0  0  0  0  0  0
  -28.3787  -26.6817   20.1415 O   0  0  0  0  0  0
  -26.5587  -34.8891   22.4684 O   0  0  0  0  0  0
  -23.5365  -32.1443   23.7528 O   0  0  0  0  0  0
  -29.9572  -17.9626   21.2416 C   0  0  0  0  0  0
  -29.9040  -20.0355   22.0557 C   0  0  0  0  0  0
  -28.7821  -22.2131   21.5572 C   0  0  0  0  0  0
  -28.5462  -17.0943   19.3430 C   0  0  0  0  0  0
  -28.2964  -25.2379   20.1491 C   0  0  0  0  0  0
  -29.8245  -16.8743   20.1778 C   0  0  2  0  0  0
  -27.6824  -24.6164   21.4399 C   0  0  1  0  0  0
  -28.5869  -23.6088   22.2035 C   0  0  0  0  0  0
  -29.7946  -19.2815   20.9589 N   0  0  0  0  0  0
  -30.2429  -17.6701   22.5285 N   0  0  0  0  0  0
  -29.7309  -21.4444   22.1260 N   0  0  0  0  0  0
  -29.7696  -15.5127   20.7420 N   0  0  0  0  0  0
  -28.0735  -21.8470   20.6119 O   0  0  0  0  0  0
  -27.3530  -25.5886   22.3007 F   0  0  0  0  0  0
  -28.0117  -23.3909   23.3895 F   0  0  0  0  0  0
  -29.7833  -24.1568   22.4246 F   0  0  0  0  0  0
  -30.3108  -19.0860   23.4453 S   0  0  0  0  0  0
  -31.4770  -12.3990   19.1479 H   0  0  0  0  0  0
  -30.3344  -11.2888   19.8487 H   0  0  0  0  0  0
  -29.7442  -11.7427   17.4511 H   0  0  0  0  0  0
  -29.6584  -13.4561   17.7741 H   0  0  0  0  0  0
  -27.8372  -11.2765   18.8543 H   0  0  0  0  0  0
  -27.3634  -12.5753   17.7952 H   0  0  0  0  0  0
  -27.6942  -14.2248   19.5495 H   0  0  0  0  0  0
  -28.6669  -11.9413   21.3464 H   0  0  0  0  0  0
  -28.4591  -13.5806   21.8795 H   0  0  0  0  0  0
  -25.2742   -9.5666   22.4779 H   0  0  0  0  0  0
  -23.9980   -7.4608   22.7471 H   0  0  0  0  0  0
  -21.0802   -8.8786   19.8957 H   0  0  0  0  0  0
  -22.3678  -10.9685   19.6183 H   0  0  0  0  0  0
  -21.2048   -7.6156   23.9734 H   0  0  0  0  0  0
  -21.1454   -6.0518   25.9082 H   0  0  0  0  0  0
  -22.0604   -2.7607   23.2856 H   0  0  0  0  0  0
  -22.4096  -11.9918   22.4832 H   0  0  0  0  0  0
  -21.1107  -13.1313   22.2619 H   0  0  0  0  0  0
  -24.6500  -15.8272   20.4778 H   0  0  0  0  0  0
  -26.2493  -15.6093   19.9902 H   0  0  0  0  0  0
  -26.7112  -32.5489   23.1126 H   0  0  0  0  0  0
  -25.0040  -33.9721   25.0479 H   0  0  0  0  0  0
  -22.6875  -31.3110   21.4186 H   0  0  0  0  0  0
  -23.3709  -35.9669   23.3310 H   0  0  0  0  0  0
  -24.3575  -36.8921   22.2064 H   0  0  0  0  0  0
  -23.7300  -37.6535   23.6657 H   0  0  0  0  0  0
  -26.0517  -31.5976   20.5959 H   0  0  0  0  0  0
  -26.8120  -30.8760   21.9855 H   0  0  0  0  0  0
  -28.0936  -29.0859   21.1565 H   0  0  0  0  0  0
  -25.9880  -25.9628   19.0286 H   0  0  0  0  0  0
  -23.9477  -27.2971   19.0578 H   0  0  0  0  0  0
  -23.7223  -30.6119   19.4104 H   0  0  0  0  0  0
  -22.7259  -29.2629   19.8622 H   0  0  0  0  0  0
  -25.1289  -36.1898   25.0842 H   0  0  0  0  0  0
  -20.9955  -28.3210   24.1457 H   0  0  0  0  0  0
  -20.5677  -26.2241   23.3599 H   0  0  0  0  0  0
  -21.6643  -26.7436   22.1212 H   0  0  0  0  0  0
  -19.6896  -25.6293   21.1231 H   0  0  0  0  0  0
  -19.6695  -27.3195   20.6758 H   0  0  0  0  0  0
  -17.4202  -26.6668   21.4014 H   0  0  0  0  0  0
  -18.0306  -26.0065   22.9009 H   0  0  0  0  0  0
  -19.7929  -30.7248   24.2291 H   0  0  0  0  0  0
  -17.5001  -31.6269   24.5139 H   0  0  0  0  0  0
  -15.5336  -30.2956   23.7666 H   0  0  0  0  0  0
  -15.8661  -28.0807   22.7042 H   0  0  0  0  0  0
  -24.5903  -30.7091   25.7888 H   0  0  0  0  0  0
  -24.9083  -32.2842   26.5005 H   0  0  0  0  0  0
  -25.8207  -30.8822   27.0218 H   0  0  0  0  0  0
  -26.2773  -29.6783   24.0988 H   0  0  0  0  0  0
  -27.3984  -29.7136   25.4389 H   0  0  0  0  0  0
  -27.8662  -30.4272   23.9147 H   0  0  0  0  0  0
  -27.2742  -33.3562   26.1977 H   0  0  0  0  0  0
  -28.3895  -32.6734   25.0216 H   0  0  0  0  0  0
  -28.0719  -31.8369   26.5317 H   0  0  0  0  0  0
  -28.2588  -38.0095   24.7515 H   0  0  0  0  0  0
  -28.1073  -36.2619   24.6323 H   0  0  0  0  0  0
  -27.2296  -37.1514   25.8893 H   0  0  0  0  0  0
  -20.9271  -29.8737   21.6986 H   0  0  0  0  0  0
  -26.0132  -38.2836   24.1424 H   0  0  0  0  0  0
  -28.5618  -18.0658   18.8462 H   0  0  0  0  0  0
  -27.6478  -17.0717   19.9602 H   0  0  0  0  0  0
  -28.4376  -16.3424   18.5612 H   0  0  0  0  0  0
  -27.7877  -24.8668   19.2598 H   0  0  0  0  0  0
  -29.3165  -24.8748   20.0391 H   0  0  0  0  0  0
  -30.6842  -16.9643   19.5112 H   0  0  0  0  0  0
  -26.7447  -24.1209   21.1917 H   0  0  0  0  0  0
  -30.2231  -21.8948   22.8848 H   0  0  0  0  0  0
  -28.8793  -15.2482   21.1323 H   0  0  0  0  0  0
  1 25  1  0  0  0
  1 30  2  0  0  0
  1 82  1  0  0  0
  2  3  1  0  0  0
  2 25  1  0  0  0
  2 88  1  0  0  0
  2 89  1  0  0  0
  3  4  1  0  0  0
  3 90  1  0  0  0
  3 91  1  0  0  0
  4  5  1  0  0  0
  4 92  1  0  0  0
  4 93  1  0  0  0
  5  6  1  0  0  0
  5 26  1  0  0  0
  5 94  1  0  0  0
  6 25  1  0  0  0
  6 95  1  0  0  0
  6 96  1  0  0  0
  7  8  2  0  0  0
  7 26  1  0  0  0
  7 29  1  0  0  0
  8  9  1  0  0  0
  8 22  1  0  0  0
  9 10  1  0  0  0
  9 27  2  0  0  0
 10 11  2  0  0  0
 10 15  1  0  0  0
 11 12  1  0  0  0
 11 97  1  0  0  0
 12 13  2  0  0  0
 12 98  1  0  0  0
 13 14  1  0  0  0
 13 31  1  0  0  0
 14 15  2  0  0  0
 14 99  1  0  0  0
 15100  1  0  0  0
 16 17  2  0  0  0
 16 21  1  0  0  0
 16 31  1  0  0  0
 17 18  1  0  0  0
 17101  1  0  0  0
 18 19  2  0  0  0
 18102  1  0  0  0
 19 20  1  0  0  0
 19 24  1  0  0  0
 20 21  2  0  0  0
 20103  1  0  0  0
 21 23  1  0  0  0
 22 28  1  0  0  0
 22 32  2  0  0  0
 26 27  1  0  0  0
 28104  1  0  0  0
 28105  1  0  0  0
 29106  1  0  0  0
 29107  1  0  0  0
 33 34  1  0  0  0
 33 66  1  0  0  0
 33 70  2  0  0  0
 34 36  1  0  0  0
 34 59  1  0  0  0
 34108  1  0  0  0
 35 44  2  0  0  0
 35 45  1  0  0  0
 35 68  1  0  0  0
 36 56  1  0  0  0
 36109  1  0  0  0
 37 39  1  0  0  0
 37 47  1  0  0  0
 37 66  1  0  0  0
 37110  1  0  0  0
 38 43  2  0  0  0
 38 46  1  0  0  0
 38 47  1  0  0  0
 39 64  1  0  0  0
 39 67  2  0  0  0
 40 52  1  0  0  0
 40 53  2  0  0  0
 40 58  1  0  0  0
 41111  1  0  0  0
 41112  1  0  0  0
 41113  1  0  0  0
 41 48  1  0  0  0
 42 43  1  0  0  0
 42 66  1  0  0  0
 42114  1  0  0  0
 42115  1  0  0  0
 43 44  1  0  0  0
 44116  1  0  0  0
 45 46  2  0  0  0
 45117  1  0  0  0
 46118  1  0  0  0
 47119  1  0  0  0
 47120  1  0  0  0
 48 56  1  0  0  0
 48 65  1  0  0  0
 48121  1  0  0  0
 49 50  1  0  0  0
 49 53  1  0  0  0
 49 64  1  0  0  0
 49122  1  0  0  0
 50 51  1  0  0  0
 50123  1  0  0  0
 50124  1  0  0  0
 51 52  1  0  0  0
 51125  1  0  0  0
 51126  1  0  0  0
 52127  1  0  0  0
 52128  1  0  0  0
 53 54  1  0  0  0
 54 55  2  0  0  0
 54129  1  0  0  0
 55 57  1  0  0  0
 55130  1  0  0  0
 56 69  2  0  0  0
 57 58  2  0  0  0
 57131  1  0  0  0
 58132  1  0  0  0
 59 60  1  0  0  0
 59 61  1  0  0  0
 59 62  1  0  0  0
 60133  1  0  0  0
 60134  1  0  0  0
 60135  1  0  0  0
 61136  1  0  0  0
 61137  1  0  0  0
 61138  1  0  0  0
 62139  1  0  0  0
 62140  1  0  0  0
 62141  1  0  0  0
 63 65  1  0  0  0
 63142  1  0  0  0
 63143  1  0  0  0
 63144  1  0  0  0
 64145  1  0  0  0
 65146  1  0  0  0
 68 75  1  0  0  0
 71 76  1  0  0  0
 71 79  1  0  0  0
 71 80  2  0  0  0
 72 79  2  0  0  0
 72 81  1  0  0  0
 72 87  1  0  0  0
 73 78  1  0  0  0
 73 81  1  0  0  0
 73 83  2  0  0  0
 74147  1  0  0  0
 74148  1  0  0  0
 74149  1  0  0  0
 74 76  1  0  0  0
 75 77  1  0  0  0
 75150  1  0  0  0
 75151  1  0  0  0
 76 82  1  0  0  0
 76152  1  0  0  0
 77 78  1  0  0  0
 77 84  1  0  0  0
 77153  1  0  0  0
 78 85  1  0  0  0
 78 86  1  0  0  0
 80 87  1  0  0  0
 81154  1  0  0  0
 82155  1  0  0  0
M  ISO  4   1 100  68 101  75 101  82 100
M  END
> <chiral flag>
0

> <version>
0

> <s_m_source_file>
/data/baiqing/PycharmProjects/Reinvent-master-3.2/result/LINK_invent/BTK/process_docking_weight1_custom_product_contain_oxygen_bond_distance_aromatic_linkinvent_7_9_3/rearranged_h_0187.sdf

> <i_m_source_file_index>
67

> <r_mmod_Potential_Energy-OPLS-2005>
-190.205932617188

> <r_mmod_Stretch_Energy-OPLS-2005>
40.3895950317383

> <r_mmod_Bend_Energy-OPLS-2005>
124.413787841797

> <r_mmod_Torsional_Energy-OPLS-2005>
216.172607421875

> <r_mmod_Improper_Torsional_Energy-OPLS-2005>
9.55552864074707

> <r_mmod_Van_der_Waal_Energy-OPLS-2005>
133.013397216797

> <r_mmod_Electrostatic_Energy-OPLS-2005>
-497.672973632812

> <r_mmod_Solvation_Energy-OPLS-2005>
-235.292190551758

> <b_mmod_Minimization_Converged-OPLS-2005>
0

> <r_mmod_RMS_Derivative-OPLS-2005>
4.33127355575562

$$$$
69
                    3D
 Structure written by MMmdl.
154162  0  0  1  0            999 V2000
  -30.6301  -14.7233   20.4541 C   0  0  0  0  0  0
  -30.4255  -12.4375   19.4743 C   0  0  0  0  0  0
  -29.5037  -12.4893   18.2359 C   0  0  0  0  0  0
  -28.0291  -12.3275   18.6508 C   0  0  0  0  0  0
  -27.6410  -13.2312   19.8515 C   0  0  2  0  0  0
  -28.6875  -13.1679   20.9864 C   0  0  0  0  0  0
  -25.2517  -13.8211   20.5710 C   0  0  0  0  0  0
  -24.1804  -13.0453   20.9214 C   0  0  0  0  0  0
  -24.6391  -11.6928   20.8757 C   0  0  0  0  0  0
  -23.9068  -10.4304   21.0410 C   0  0  0  0  0  0
  -24.3618   -9.4221   21.9190 C   0  0  0  0  0  0
  -23.6296   -8.2251   22.0763 C   0  0  0  0  0  0
  -22.4284   -8.0288   21.3538 C   0  0  0  0  0  0
  -21.9918   -9.0263   20.4644 C   0  0  0  0  0  0
  -22.7244  -10.2138   20.3062 C   0  0  0  0  0  0
  -21.6845   -6.0740   22.5269 C   0  0  0  0  0  0
  -21.4004   -6.5646   23.8204 C   0  0  0  0  0  0
  -21.3658   -5.6794   24.9165 C   0  0  0  0  0  0
  -21.6047   -4.3058   24.7218 C   0  0  0  0  0  0
  -21.8824   -3.8150   23.4342 C   0  0  0  0  0  0
  -21.9195   -4.6964   22.3394 C   0  0  0  0  0  0
  -22.7828  -13.5231   21.1861 C   0  0  0  0  0  0
  -22.1667   -4.2156   21.0972 F   0  0  0  0  0  0
  -21.5629   -3.4548   25.7734 F   0  0  0  0  0  0
  -29.9893  -13.5071   20.4008 N   0  0  0  0  0  0
  -26.2937  -12.9412   20.3311 N   0  0  0  0  0  0
  -25.9325  -11.6553   20.5790 N   0  0  0  0  0  0
  -22.0482  -12.8211   22.0408 N   0  0  0  0  0  0
  -25.4203  -15.1936   20.4109 N   0  0  0  0  0  0
  -31.8182  -14.8043   20.1332 O   0  0  0  0  0  0
  -21.6640   -6.8890   21.4234 O   0  0  0  0  0  0
  -22.3514  -14.5535   20.6710 O   0  0  0  0  0  0
  -24.6326  -31.8531   23.1979 C   0  0  0  0  0  0
  -25.9147  -32.4734   23.8323 C   0  0  1  0  0  0
  -27.2211  -27.2634   20.1400 C   0  0  0  0  0  0
  -25.5940  -33.8534   24.2253 N   0  0  0  0  0  0
  -23.4295  -30.4752   21.5418 C   0  0  2  0  0  0
  -24.8793  -28.9223   20.1113 C   0  0  0  0  0  0
  -22.7506  -29.4584   22.4914 C   0  0  0  0  0  0
  -18.0274  -28.1384   22.8482 C   0  0  0  0  0  0
  -24.1464  -36.7251   23.2647 C   0  0  0  0  0  0
  -25.9755  -30.7682   21.3769 C   0  0  0  0  0  0
  -26.0516  -29.3912   20.7202 C   0  0  0  0  0  0
  -27.2291  -28.5758   20.7200 C   0  0  0  0  0  0
  -26.0315  -26.8635   19.4960 C   0  0  0  0  0  0
  -24.8740  -27.6656   19.4877 C   0  0  0  0  0  0
  -23.6490  -29.8097   20.1580 C   0  0  0  0  0  0
  -25.4098  -36.3044   24.0328 C   0  0  1  0  0  0
  -20.5882  -28.3693   23.1260 C   0  0  2  0  0  0
  -20.6767  -26.9410   22.5391 C   0  0  0  0  0  0
  -19.5741  -26.6384   21.5194 C   0  0  0  0  0  0
  -18.1916  -26.7930   22.1613 C   0  0  0  0  0  0
  -19.1532  -28.8853   23.2855 C   0  0  0  0  0  0
  -18.9463  -30.1458   23.8874 C   0  0  0  0  0  0
  -17.6462  -30.6591   24.0557 C   0  0  0  0  0  0
  -25.9055  -34.9423   23.5093 C   0  0  0  0  0  0
  -16.5354  -29.9078   23.6352 C   0  0  0  0  0  0
  -16.7268  -28.6500   23.0376 C   0  0  0  0  0  0
  -26.4531  -31.6574   25.0723 C   0  0  0  0  0  0
  -25.3763  -31.3653   26.1442 C   0  0  0  0  0  0
  -27.0445  -30.3018   24.6198 C   0  0  0  0  0  0
  -27.6067  -32.4354   25.7498 C   0  0  0  0  0  0
  -27.5562  -37.1762   24.8471 C   0  0  0  0  0  0
  -21.4206  -29.3030   22.3657 N   0  0  0  0  0  0
  -26.4260  -37.3753   23.9435 N   0  0  0  0  0  0
  -24.6982  -31.0501   22.0953 N   0  0  0  0  0  0
  -23.4186  -28.8127   23.3033 O   0  0  0  0  0  0
  -28.2901  -26.3430   20.1812 O   0  0  0  0  0  0
  -26.5626  -34.8901   22.4659 O   0  0  0  0  0  0
  -23.5482  -32.1360   23.7272 O   0  0  0  0  0  0
  -28.6152  -18.8256   21.7534 C   0  0  0  0  0  0
  -28.1560  -20.2044   21.8750 C   0  0  0  0  0  0
  -29.5455  -18.6080   20.7566 C   0  0  0  0  0  0
  -28.7302  -21.1342   21.0166 C   0  0  0  0  0  0
  -28.7118  -23.6611   20.3487 C   0  0  0  0  0  0
  -28.1161  -17.7466   22.6772 C   0  0  0  0  0  0
  -27.1249  -20.5898   22.9054 C   0  0  0  0  0  0
  -30.3476  -17.3044   20.3511 C   0  0  0  0  0  0
  -27.9977  -25.0196   20.8349 C   0  0  0  0  0  0
  -28.4228  -22.5085   21.0580 N   0  0  0  0  0  0
  -29.8825  -15.8760   20.6338 N   0  0  0  0  0  0
  -29.4764  -23.6659   19.3804 O   0  0  0  0  0  0
  -29.8485  -20.2063   19.9788 S   0  0  0  0  0  0
  -31.4676  -12.5478   19.1694 H   0  0  0  0  0  0
  -30.3603  -11.4643   19.9636 H   0  0  0  0  0  0
  -29.7765  -11.7054   17.5280 H   0  0  0  0  0  0
  -29.6371  -13.4373   17.7119 H   0  0  0  0  0  0
  -27.8760  -11.2796   18.9132 H   0  0  0  0  0  0
  -27.3724  -12.5253   17.8026 H   0  0  0  0  0  0
  -27.6360  -14.2511   19.4675 H   0  0  0  0  0  0
  -28.7198  -12.1742   21.4360 H   0  0  0  0  0  0
  -28.4314  -13.8610   21.7894 H   0  0  0  0  0  0
  -25.2754   -9.5695   22.4775 H   0  0  0  0  0  0
  -23.9995   -7.4653   22.7498 H   0  0  0  0  0  0
  -21.0845   -8.8782   19.8954 H   0  0  0  0  0  0
  -22.3704  -10.9677   19.6183 H   0  0  0  0  0  0
  -21.1993   -7.6148   23.9704 H   0  0  0  0  0  0
  -21.1472   -6.0526   25.9065 H   0  0  0  0  0  0
  -22.0605   -2.7616   23.2836 H   0  0  0  0  0  0
  -22.4097  -11.9862   22.4758 H   0  0  0  0  0  0
  -21.1101  -13.1243   22.2649 H   0  0  0  0  0  0
  -24.6465  -15.8415   20.5146 H   0  0  0  0  0  0
  -26.2581  -15.6334   20.0533 H   0  0  0  0  0  0
  -26.7220  -32.5380   23.1074 H   0  0  0  0  0  0
  -25.0100  -33.9671   25.0407 H   0  0  0  0  0  0
  -22.7242  -31.2953   21.3934 H   0  0  0  0  0  0
  -23.3745  -35.9564   23.3282 H   0  0  0  0  0  0
  -24.3562  -36.8911   22.2070 H   0  0  0  0  0  0
  -23.7199  -37.6427   23.6711 H   0  0  0  0  0  0
  -26.1122  -31.5265   20.6043 H   0  0  0  0  0  0
  -26.8557  -30.8179   22.0075 H   0  0  0  0  0  0
  -28.1283  -28.9283   21.2060 H   0  0  0  0  0  0
  -25.9850  -25.8969   19.0142 H   0  0  0  0  0  0
  -23.9786  -27.2965   19.0064 H   0  0  0  0  0  0
  -23.7674  -30.5864   19.3997 H   0  0  0  0  0  0
  -22.7665  -29.2409   19.8586 H   0  0  0  0  0  0
  -25.1264  -36.1873   25.0820 H   0  0  0  0  0  0
  -20.9970  -28.3273   24.1386 H   0  0  0  0  0  0
  -20.5668  -26.2292   23.3589 H   0  0  0  0  0  0
  -21.6630  -26.7422   22.1185 H   0  0  0  0  0  0
  -19.6896  -25.6293   21.1228 H   0  0  0  0  0  0
  -19.6695  -27.3179   20.6721 H   0  0  0  0  0  0
  -17.4185  -26.6677   21.4006 H   0  0  0  0  0  0
  -18.0309  -26.0060   22.9005 H   0  0  0  0  0  0
  -19.7940  -30.7264   24.2242 H   0  0  0  0  0  0
  -17.5025  -31.6282   24.5147 H   0  0  0  0  0  0
  -15.5358  -30.2970   23.7714 H   0  0  0  0  0  0
  -15.8663  -28.0821   22.7120 H   0  0  0  0  0  0
  -24.5964  -30.6989   25.7739 H   0  0  0  0  0  0
  -24.8936  -32.2788   26.4926 H   0  0  0  0  0  0
  -25.8113  -30.8788   27.0185 H   0  0  0  0  0  0
  -26.3061  -29.6677   24.1287 H   0  0  0  0  0  0
  -27.4245  -29.7352   25.4711 H   0  0  0  0  0  0
  -27.8850  -30.4339   23.9383 H   0  0  0  0  0  0
  -27.2690  -33.3704   26.1981 H   0  0  0  0  0  0
  -28.3924  -32.6841   25.0349 H   0  0  0  0  0  0
  -28.0676  -31.8536   26.5491 H   0  0  0  0  0  0
  -28.2531  -38.0099   24.7596 H   0  0  0  0  0  0
  -28.1113  -36.2646   24.6221 H   0  0  0  0  0  0
  -27.2297  -37.1311   25.8871 H   0  0  0  0  0  0
  -20.9404  -29.8755   21.6860 H   0  0  0  0  0  0
  -26.0121  -38.2807   24.1503 H   0  0  0  0  0  0
  -28.0761  -18.0982   23.7082 H   0  0  0  0  0  0
  -28.7554  -16.8675   22.6945 H   0  0  0  0  0  0
  -27.1116  -17.4237   22.4017 H   0  0  0  0  0  0
  -27.5818  -20.7326   23.8857 H   0  0  0  0  0  0
  -26.3596  -19.8204   23.0115 H   0  0  0  0  0  0
  -26.5931  -21.5063   22.6508 H   0  0  0  0  0  0
  -31.3416  -17.3949   20.7938 H   0  0  0  0  0  0
  -30.5225  -17.3508   19.2744 H   0  0  0  0  0  0
  -28.2594  -25.1418   21.8861 H   0  0  0  0  0  0
  -26.9272  -24.8147   20.8372 H   0  0  0  0  0  0
  -27.7981  -22.7272   21.8213 H   0  0  0  0  0  0
  -28.9024  -15.7487   20.8304 H   0  0  0  0  0  0
  1 25  1  0  0  0
  1 30  2  0  0  0
  1 81  1  0  0  0
  2  3  1  0  0  0
  2 25  1  0  0  0
  2 84  1  0  0  0
  2 85  1  0  0  0
  3  4  1  0  0  0
  3 86  1  0  0  0
  3 87  1  0  0  0
  4  5  1  0  0  0
  4 88  1  0  0  0
  4 89  1  0  0  0
  5  6  1  0  0  0
  5 26  1  0  0  0
  5 90  1  0  0  0
  6 25  1  0  0  0
  6 91  1  0  0  0
  6 92  1  0  0  0
  7  8  2  0  0  0
  7 26  1  0  0  0
  7 29  1  0  0  0
  8  9  1  0  0  0
  8 22  1  0  0  0
  9 10  1  0  0  0
  9 27  2  0  0  0
 10 11  2  0  0  0
 10 15  1  0  0  0
 11 12  1  0  0  0
 11 93  1  0  0  0
 12 13  2  0  0  0
 12 94  1  0  0  0
 13 14  1  0  0  0
 13 31  1  0  0  0
 14 15  2  0  0  0
 14 95  1  0  0  0
 15 96  1  0  0  0
 16 17  2  0  0  0
 16 21  1  0  0  0
 16 31  1  0  0  0
 17 18  1  0  0  0
 17 97  1  0  0  0
 18 19  2  0  0  0
 18 98  1  0  0  0
 19 20  1  0  0  0
 19 24  1  0  0  0
 20 21  2  0  0  0
 20 99  1  0  0  0
 21 23  1  0  0  0
 22 28  1  0  0  0
 22 32  2  0  0  0
 26 27  1  0  0  0
 28100  1  0  0  0
 28101  1  0  0  0
 29102  1  0  0  0
 29103  1  0  0  0
 33 34  1  0  0  0
 33 66  1  0  0  0
 33 70  2  0  0  0
 34 36  1  0  0  0
 34 59  1  0  0  0
 34104  1  0  0  0
 35 44  2  0  0  0
 35 45  1  0  0  0
 35 68  1  0  0  0
 36 56  1  0  0  0
 36105  1  0  0  0
 37 39  1  0  0  0
 37 47  1  0  0  0
 37 66  1  0  0  0
 37106  1  0  0  0
 38 43  2  0  0  0
 38 46  1  0  0  0
 38 47  1  0  0  0
 39 64  1  0  0  0
 39 67  2  0  0  0
 40 52  1  0  0  0
 40 53  2  0  0  0
 40 58  1  0  0  0
 41107  1  0  0  0
 41108  1  0  0  0
 41109  1  0  0  0
 41 48  1  0  0  0
 42 43  1  0  0  0
 42 66  1  0  0  0
 42110  1  0  0  0
 42111  1  0  0  0
 43 44  1  0  0  0
 44112  1  0  0  0
 45 46  2  0  0  0
 45113  1  0  0  0
 46114  1  0  0  0
 47115  1  0  0  0
 47116  1  0  0  0
 48 56  1  0  0  0
 48 65  1  0  0  0
 48117  1  0  0  0
 49 50  1  0  0  0
 49 53  1  0  0  0
 49 64  1  0  0  0
 49118  1  0  0  0
 50 51  1  0  0  0
 50119  1  0  0  0
 50120  1  0  0  0
 51 52  1  0  0  0
 51121  1  0  0  0
 51122  1  0  0  0
 52123  1  0  0  0
 52124  1  0  0  0
 53 54  1  0  0  0
 54 55  2  0  0  0
 54125  1  0  0  0
 55 57  1  0  0  0
 55126  1  0  0  0
 56 69  2  0  0  0
 57 58  2  0  0  0
 57127  1  0  0  0
 58128  1  0  0  0
 59 60  1  0  0  0
 59 61  1  0  0  0
 59 62  1  0  0  0
 60129  1  0  0  0
 60130  1  0  0  0
 60131  1  0  0  0
 61132  1  0  0  0
 61133  1  0  0  0
 61134  1  0  0  0
 62135  1  0  0  0
 62136  1  0  0  0
 62137  1  0  0  0
 63 65  1  0  0  0
 63138  1  0  0  0
 63139  1  0  0  0
 63140  1  0  0  0
 64141  1  0  0  0
 65142  1  0  0  0
 68 79  1  0  0  0
 71 72  1  0  0  0
 71 73  2  0  0  0
 71 76  1  0  0  0
 72 74  2  0  0  0
 72 77  1  0  0  0
 73 78  1  0  0  0
 73 83  1  0  0  0
 74 80  1  0  0  0
 74 83  1  0  0  0
 75 79  1  0  0  0
 75 80  1  0  0  0
 75 82  2  0  0  0
 76143  1  0  0  0
 76144  1  0  0  0
 76145  1  0  0  0
 77146  1  0  0  0
 77147  1  0  0  0
 77148  1  0  0  0
 78 81  1  0  0  0
 78149  1  0  0  0
 78150  1  0  0  0
 79151  1  0  0  0
 79152  1  0  0  0
 80153  1  0  0  0
 81154  1  0  0  0
M  ISO  4   1 100  68 101  79 101  81 100
M  END
> <chiral flag>
0

> <version>
0

> <s_m_source_file>
/data/baiqing/PycharmProjects/Reinvent-master-3.2/result/LINK_invent/BTK/process_docking_weight1_custom_product_contain_oxygen_bond_distance_aromatic_linkinvent_7_9_3/rearranged_h_0187.sdf

> <i_m_source_file_index>
68

> <r_mmod_Potential_Energy-OPLS-2005>
65.7440185546875

> <r_mmod_Stretch_Energy-OPLS-2005>
110.844215393066

> <r_mmod_Bend_Energy-OPLS-2005>
196.692016601562

> <r_mmod_Torsional_Energy-OPLS-2005>
218.779067993164

> <r_mmod_Improper_Torsional_Energy-OPLS-2005>
5.77176523208618

> <r_mmod_Van_der_Waal_Energy-OPLS-2005>
116.562812805176

> <r_mmod_Electrostatic_Energy-OPLS-2005>
-420.751922607422

> <r_mmod_Solvation_Energy-OPLS-2005>
-245.243453979492

> <b_mmod_Minimization_Converged-OPLS-2005>
0

> <r_mmod_RMS_Derivative-OPLS-2005>
2.23690605163574

$$$$
70
                    3D
 Structure written by MMmdl.
165173  0  0  1  0            999 V2000
  -30.6267  -14.5729   20.5363 C   0  0  0  0  0  0
  -30.4472  -12.3613   19.4219 C   0  0  0  0  0  0
  -29.5055  -12.4990   18.2049 C   0  0  0  0  0  0
  -28.0267  -12.3379   18.6192 C   0  0  0  0  0  0
  -27.6528  -13.1988   19.8545 C   0  0  2  0  0  0
  -28.7014  -13.0184   20.9762 C   0  0  0  0  0  0
  -25.2572  -13.8117   20.5669 C   0  0  0  0  0  0
  -24.1820  -13.0427   20.9207 C   0  0  0  0  0  0
  -24.6340  -11.6884   20.8700 C   0  0  0  0  0  0
  -23.8972  -10.4279   21.0362 C   0  0  0  0  0  0
  -24.3528   -9.4218   21.9150 C   0  0  0  0  0  0
  -23.6239   -8.2240   22.0742 C   0  0  0  0  0  0
  -22.4228   -8.0238   21.3538 C   0  0  0  0  0  0
  -21.9841   -9.0208   20.4641 C   0  0  0  0  0  0
  -22.7139  -10.2103   20.3034 C   0  0  0  0  0  0
  -21.6857   -6.0690   22.5252 C   0  0  0  0  0  0
  -21.4014   -6.5594   23.8179 C   0  0  0  0  0  0
  -21.3674   -5.6754   24.9151 C   0  0  0  0  0  0
  -21.6051   -4.3024   24.7212 C   0  0  0  0  0  0
  -21.8820   -3.8113   23.4341 C   0  0  0  0  0  0
  -21.9204   -4.6922   22.3394 C   0  0  0  0  0  0
  -22.7836  -13.5257   21.1850 C   0  0  0  0  0  0
  -22.1669   -4.2108   21.0974 F   0  0  0  0  0  0
  -21.5646   -3.4512   25.7740 F   0  0  0  0  0  0
  -30.0190  -13.3572   20.4142 N   0  0  0  0  0  0
  -26.2967  -12.9261   20.3245 N   0  0  0  0  0  0
  -25.9251  -11.6437   20.5669 N   0  0  0  0  0  0
  -22.0449  -12.8285   22.0407 N   0  0  0  0  0  0
  -25.4269  -15.1829   20.4041 N   0  0  0  0  0  0
  -31.8122  -14.7542   20.2355 O   0  0  0  0  0  0
  -21.6631   -6.8822   21.4213 O   0  0  0  0  0  0
  -22.3538  -14.5575   20.6693 O   0  0  0  0  0  0
  -24.6175  -31.8647   23.2050 C   0  0  0  0  0  0
  -25.9060  -32.4804   23.8356 C   0  0  1  0  0  0
  -27.2243  -27.3906   20.1065 C   0  0  0  0  0  0
  -25.5881  -33.8594   24.2296 N   0  0  0  0  0  0
  -23.4065  -30.4887   21.5470 C   0  0  2  0  0  0
  -24.8503  -28.9412   20.1204 C   0  0  0  0  0  0
  -22.7408  -29.4670   22.4978 C   0  0  0  0  0  0
  -18.0270  -28.1403   22.8521 C   0  0  0  0  0  0
  -24.1458  -36.7273   23.2649 C   0  0  0  0  0  0
  -25.9382  -30.8209   21.3606 C   0  0  0  0  0  0
  -26.0150  -29.4493   20.7098 C   0  0  0  0  0  0
  -27.2076  -28.6839   20.6920 C   0  0  0  0  0  0
  -26.0420  -26.9027   19.5156 C   0  0  0  0  0  0
  -24.8585  -27.6689   19.5218 C   0  0  0  0  0  0
  -23.6148  -29.8148   20.1653 C   0  0  0  0  0  0
  -25.4086  -36.3093   24.0345 C   0  0  1  0  0  0
  -20.5863  -28.3690   23.1313 C   0  0  2  0  0  0
  -20.6734  -26.9413   22.5430 C   0  0  0  0  0  0
  -19.5702  -26.6413   21.5224 C   0  0  0  0  0  0
  -18.1895  -26.7962   22.1654 C   0  0  0  0  0  0
  -19.1523  -28.8862   23.2930 C   0  0  0  0  0  0
  -18.9468  -30.1466   23.8938 C   0  0  0  0  0  0
  -17.6475  -30.6615   24.0581 C   0  0  0  0  0  0
  -25.9020  -34.9459   23.5124 C   0  0  0  0  0  0
  -16.5356  -29.9123   23.6345 C   0  0  0  0  0  0
  -16.7265  -28.6529   23.0387 C   0  0  0  0  0  0
  -26.4463  -31.6609   25.0715 C   0  0  0  0  0  0
  -25.3729  -31.3736   26.1478 C   0  0  0  0  0  0
  -27.0309  -30.3048   24.6141 C   0  0  0  0  0  0
  -27.6036  -32.4345   25.7484 C   0  0  0  0  0  0
  -27.5554  -37.1781   24.8473 C   0  0  0  0  0  0
  -21.4138  -29.3049   22.3706 N   0  0  0  0  0  0
  -26.4260  -37.3792   23.9431 N   0  0  0  0  0  0
  -24.6728  -31.0728   22.0949 N   0  0  0  0  0  0
  -23.4168  -28.8213   23.3034 O   0  0  0  0  0  0
  -28.3766  -26.6273   20.0623 O   0  0  0  0  0  0
  -26.5628  -34.8910   22.4711 O   0  0  0  0  0  0
  -23.5368  -32.1400   23.7424 O   0  0  0  0  0  0
  -29.1584  -17.7928   23.5152 C   0  0  0  0  0  0
  -29.2072  -19.0779   22.9383 C   0  0  0  0  0  0
  -29.4537  -16.6553   22.7516 C   0  0  0  0  0  0
  -29.5782  -19.1894   21.5638 C   0  0  0  0  0  0
  -29.7896  -16.8088   21.3949 C   0  0  0  0  0  0
  -28.8630  -21.4499   20.6716 C   0  0  0  0  0  0
  -29.5974  -20.3067   25.1593 C   0  0  0  0  0  0
  -27.3100  -20.3144   24.0760 C   0  0  0  0  0  0
  -30.7215  -23.0128   19.8208 C   0  0  0  0  0  0
  -28.3844  -24.0343   20.0141 C   0  0  0  0  0  0
  -28.3839  -25.3869   20.8143 C   0  0  0  0  0  0
  -28.8280  -20.2780   23.8255 C   0  0  0  0  0  0
  -29.3735  -22.9291   20.5657 C   0  0  1  0  0  0
  -29.8603  -18.0598   20.8335 N   0  0  0  0  0  0
  -29.7755  -20.5013   21.0095 N   0  0  0  0  0  0
  -29.7442  -15.5950   20.6348 N   0  0  0  0  0  0
  -27.6734  -21.1877   20.4817 O   0  0  0  0  0  0
  -29.3477  -15.4251   23.3124 F   0  0  0  0  0  0
  -31.4879  -12.5014   19.1195 H   0  0  0  0  0  0
  -30.3895  -11.3592   19.8465 H   0  0  0  0  0  0
  -29.7618  -11.7613   17.4438 H   0  0  0  0  0  0
  -29.6494  -13.4771   17.7428 H   0  0  0  0  0  0
  -27.8499  -11.2849   18.8379 H   0  0  0  0  0  0
  -27.3752  -12.5826   17.7797 H   0  0  0  0  0  0
  -27.6760  -14.2340   19.5157 H   0  0  0  0  0  0
  -28.7053  -11.9894   21.3388 H   0  0  0  0  0  0
  -28.4590  -13.6328   21.8440 H   0  0  0  0  0  0
  -25.2664   -9.5731   22.4717 H   0  0  0  0  0  0
  -23.9975   -7.4642   22.7457 H   0  0  0  0  0  0
  -21.0783   -8.8677   19.8941 H   0  0  0  0  0  0
  -22.3552  -10.9614   19.6135 H   0  0  0  0  0  0
  -21.1973   -7.6093   23.9662 H   0  0  0  0  0  0
  -21.1513   -6.0491   25.9049 H   0  0  0  0  0  0
  -22.0595   -2.7574   23.2844 H   0  0  0  0  0  0
  -22.4065  -11.9971   22.4837 H   0  0  0  0  0  0
  -21.1040  -13.1296   22.2539 H   0  0  0  0  0  0
  -24.6426  -15.8196   20.4896 H   0  0  0  0  0  0
  -26.2357  -15.6161   19.9797 H   0  0  0  0  0  0
  -26.7124  -32.5506   23.1107 H   0  0  0  0  0  0
  -24.9951  -33.9738   25.0393 H   0  0  0  0  0  0
  -22.6976  -31.3068   21.4032 H   0  0  0  0  0  0
  -23.3721  -35.9602   23.3332 H   0  0  0  0  0  0
  -24.3550  -36.8885   22.2060 H   0  0  0  0  0  0
  -23.7194  -37.6468   23.6655 H   0  0  0  0  0  0
  -26.0557  -31.5872   20.5925 H   0  0  0  0  0  0
  -26.8225  -30.8766   21.9833 H   0  0  0  0  0  0
  -28.1121  -29.0751   21.1350 H   0  0  0  0  0  0
  -26.0378  -25.9316   19.0420 H   0  0  0  0  0  0
  -23.9584  -27.2712   19.0734 H   0  0  0  0  0  0
  -23.7214  -30.5825   19.3979 H   0  0  0  0  0  0
  -22.7385  -29.2346   19.8744 H   0  0  0  0  0  0
  -25.1260  -36.1938   25.0836 H   0  0  0  0  0  0
  -20.9994  -28.3254   24.1423 H   0  0  0  0  0  0
  -20.5623  -26.2294   23.3629 H   0  0  0  0  0  0
  -21.6608  -26.7430   22.1234 H   0  0  0  0  0  0
  -19.6838  -25.6331   21.1244 H   0  0  0  0  0  0
  -19.6631  -27.3231   20.6754 H   0  0  0  0  0  0
  -17.4160  -26.6755   21.4057 H   0  0  0  0  0  0
  -18.0267  -26.0108   22.9044 H   0  0  0  0  0  0
  -19.7944  -30.7271   24.2327 H   0  0  0  0  0  0
  -17.5034  -31.6308   24.5174 H   0  0  0  0  0  0
  -15.5361  -30.3047   23.7638 H   0  0  0  0  0  0
  -15.8667  -28.0843   22.7123 H   0  0  0  0  0  0
  -24.5876  -30.7118   25.7808 H   0  0  0  0  0  0
  -24.8947  -32.2908   26.4927 H   0  0  0  0  0  0
  -25.8091  -30.8890   27.0229 H   0  0  0  0  0  0
  -26.2870  -29.6804   24.1191 H   0  0  0  0  0  0
  -27.4049  -29.7312   25.4630 H   0  0  0  0  0  0
  -27.8707  -30.4345   23.9317 H   0  0  0  0  0  0
  -27.2649  -33.3648   26.2046 H   0  0  0  0  0  0
  -28.3839  -32.6918   25.0314 H   0  0  0  0  0  0
  -28.0699  -31.8487   26.5413 H   0  0  0  0  0  0
  -28.2591  -38.0053   24.7538 H   0  0  0  0  0  0
  -28.1027  -36.2606   24.6280 H   0  0  0  0  0  0
  -27.2296  -37.1430   25.8879 H   0  0  0  0  0  0
  -20.9277  -29.8775   21.6948 H   0  0  0  0  0  0
  -26.0138  -38.2854   24.1478 H   0  0  0  0  0  0
  -28.8604  -17.6616   24.5438 H   0  0  0  0  0  0
  -30.6759  -20.3314   24.9984 H   0  0  0  0  0  0
  -29.3687  -19.4505   25.7921 H   0  0  0  0  0  0
  -29.3388  -21.1964   25.7344 H   0  0  0  0  0  0
  -26.7523  -20.3247   23.1386 H   0  0  0  0  0  0
  -27.0257  -21.2102   24.6287 H   0  0  0  0  0  0
  -26.9739  -19.4542   24.6560 H   0  0  0  0  0  0
  -31.4924  -22.3916   20.2774 H   0  0  0  0  0  0
  -31.0968  -24.0363   19.8176 H   0  0  0  0  0  0
  -30.6147  -22.7007   18.7800 H   0  0  0  0  0  0
  -28.6324  -24.2391   18.9722 H   0  0  0  0  0  0
  -27.3609  -23.6616   19.9821 H   0  0  0  0  0  0
  -29.3002  -25.4392   21.4016 H   0  0  0  0  0  0
  -27.5783  -25.3729   21.5510 H   0  0  0  0  0  0
  -29.0920  -21.2097   23.3333 H   0  0  0  0  0  0
  -29.5746  -23.1884   21.6059 H   0  0  0  0  0  0
  -30.7329  -20.8207   21.0128 H   0  0  0  0  0  0
  -28.8131  -15.2200   20.6117 H   0  0  0  0  0  0
  1 25  1  0  0  0
  1 30  2  0  0  0
  1 86  1  0  0  0
  2  3  1  0  0  0
  2 25  1  0  0  0
  2 89  1  0  0  0
  2 90  1  0  0  0
  3  4  1  0  0  0
  3 91  1  0  0  0
  3 92  1  0  0  0
  4  5  1  0  0  0
  4 93  1  0  0  0
  4 94  1  0  0  0
  5  6  1  0  0  0
  5 26  1  0  0  0
  5 95  1  0  0  0
  6 25  1  0  0  0
  6 96  1  0  0  0
  6 97  1  0  0  0
  7  8  2  0  0  0
  7 26  1  0  0  0
  7 29  1  0  0  0
  8  9  1  0  0  0
  8 22  1  0  0  0
  9 10  1  0  0  0
  9 27  2  0  0  0
 10 11  2  0  0  0
 10 15  1  0  0  0
 11 12  1  0  0  0
 11 98  1  0  0  0
 12 13  2  0  0  0
 12 99  1  0  0  0
 13 14  1  0  0  0
 13 31  1  0  0  0
 14 15  2  0  0  0
 14100  1  0  0  0
 15101  1  0  0  0
 16 17  2  0  0  0
 16 21  1  0  0  0
 16 31  1  0  0  0
 17 18  1  0  0  0
 17102  1  0  0  0
 18 19  2  0  0  0
 18103  1  0  0  0
 19 20  1  0  0  0
 19 24  1  0  0  0
 20 21  2  0  0  0
 20104  1  0  0  0
 21 23  1  0  0  0
 22 28  1  0  0  0
 22 32  2  0  0  0
 26 27  1  0  0  0
 28105  1  0  0  0
 28106  1  0  0  0
 29107  1  0  0  0
 29108  1  0  0  0
 33 34  1  0  0  0
 33 66  1  0  0  0
 33 70  2  0  0  0
 34 36  1  0  0  0
 34 59  1  0  0  0
 34109  1  0  0  0
 35 44  2  0  0  0
 35 45  1  0  0  0
 35 68  1  0  0  0
 36 56  1  0  0  0
 36110  1  0  0  0
 37 39  1  0  0  0
 37 47  1  0  0  0
 37 66  1  0  0  0
 37111  1  0  0  0
 38 43  2  0  0  0
 38 46  1  0  0  0
 38 47  1  0  0  0
 39 64  1  0  0  0
 39 67  2  0  0  0
 40 52  1  0  0  0
 40 53  2  0  0  0
 40 58  1  0  0  0
 41112  1  0  0  0
 41113  1  0  0  0
 41114  1  0  0  0
 41 48  1  0  0  0
 42 43  1  0  0  0
 42 66  1  0  0  0
 42115  1  0  0  0
 42116  1  0  0  0
 43 44  1  0  0  0
 44117  1  0  0  0
 45 46  2  0  0  0
 45118  1  0  0  0
 46119  1  0  0  0
 47120  1  0  0  0
 47121  1  0  0  0
 48 56  1  0  0  0
 48 65  1  0  0  0
 48122  1  0  0  0
 49 50  1  0  0  0
 49 53  1  0  0  0
 49 64  1  0  0  0
 49123  1  0  0  0
 50 51  1  0  0  0
 50124  1  0  0  0
 50125  1  0  0  0
 51 52  1  0  0  0
 51126  1  0  0  0
 51127  1  0  0  0
 52128  1  0  0  0
 52129  1  0  0  0
 53 54  1  0  0  0
 54 55  2  0  0  0
 54130  1  0  0  0
 55 57  1  0  0  0
 55131  1  0  0  0
 56 69  2  0  0  0
 57 58  2  0  0  0
 57132  1  0  0  0
 58133  1  0  0  0
 59 60  1  0  0  0
 59 61  1  0  0  0
 59 62  1  0  0  0
 60134  1  0  0  0
 60135  1  0  0  0
 60136  1  0  0  0
 61137  1  0  0  0
 61138  1  0  0  0
 61139  1  0  0  0
 62140  1  0  0  0
 62141  1  0  0  0
 62142  1  0  0  0
 63 65  1  0  0  0
 63143  1  0  0  0
 63144  1  0  0  0
 63145  1  0  0  0
 64146  1  0  0  0
 65147  1  0  0  0
 68 81  1  0  0  0
 71 72  2  0  0  0
 71 73  1  0  0  0
 71148  1  0  0  0
 72 74  1  0  0  0
 72 82  1  0  0  0
 73 75  2  0  0  0
 73 88  1  0  0  0
 74 84  2  0  0  0
 74 85  1  0  0  0
 75 84  1  0  0  0
 75 86  1  0  0  0
 76 83  1  0  0  0
 76 85  1  0  0  0
 76 87  2  0  0  0
 77149  1  0  0  0
 77150  1  0  0  0
 77151  1  0  0  0
 77 82  1  0  0  0
 78 82  1  0  0  0
 78152  1  0  0  0
 78153  1  0  0  0
 78154  1  0  0  0
 79155  1  0  0  0
 79156  1  0  0  0
 79157  1  0  0  0
 79 83  1  0  0  0
 80 81  1  0  0  0
 80 83  1  0  0  0
 80158  1  0  0  0
 80159  1  0  0  0
 81160  1  0  0  0
 81161  1  0  0  0
 82162  1  0  0  0
 83163  1  0  0  0
 85164  1  0  0  0
 86165  1  0  0  0
M  ISO  4   1 100  68 101  81 101  86 100
M  END
> <chiral flag>
0

> <version>
0

> <s_m_source_file>
/data/baiqing/PycharmProjects/Reinvent-master-3.2/result/LINK_invent/BTK/process_docking_weight1_custom_product_contain_oxygen_bond_distance_aromatic_linkinvent_7_9_3/rearranged_h_0187.sdf

> <i_m_source_file_index>
69

> <r_mmod_Potential_Energy-OPLS-2005>
-77.8602676391602

> <r_mmod_Stretch_Energy-OPLS-2005>
54.6422500610352

> <r_mmod_Bend_Energy-OPLS-2005>
130.086853027344

> <r_mmod_Torsional_Energy-OPLS-2005>
335.147430419922

> <r_mmod_Improper_Torsional_Energy-OPLS-2005>
16.6378879547119

> <r_mmod_Van_der_Waal_Energy-OPLS-2005>
145.517623901367

> <r_mmod_Electrostatic_Energy-OPLS-2005>
-560.955993652344

> <r_mmod_Solvation_Energy-OPLS-2005>
-227.407440185547

> <b_mmod_Minimization_Converged-OPLS-2005>
0

> <r_mmod_RMS_Derivative-OPLS-2005>
3.73099184036255

$$$$
71
                    3D
 Structure written by MMmdl.
154162  0  0  1  0            999 V2000
  -30.6616  -14.7680   20.4799 C   0  0  0  0  0  0
  -30.4226  -12.4829   19.4737 C   0  0  0  0  0  0
  -29.5042  -12.5037   18.2351 C   0  0  0  0  0  0
  -28.0364  -12.3164   18.6605 C   0  0  0  0  0  0
  -27.6346  -13.2396   19.8420 C   0  0  2  0  0  0
  -28.6826  -13.2273   20.9762 C   0  0  0  0  0  0
  -25.2473  -13.8212   20.5704 C   0  0  0  0  0  0
  -24.1780  -13.0444   20.9213 C   0  0  0  0  0  0
  -24.6389  -11.6926   20.8768 C   0  0  0  0  0  0
  -23.9072  -10.4297   21.0421 C   0  0  0  0  0  0
  -24.3620   -9.4209   21.9198 C   0  0  0  0  0  0
  -23.6288   -8.2248   22.0762 C   0  0  0  0  0  0
  -22.4266   -8.0294   21.3553 C   0  0  0  0  0  0
  -21.9910   -9.0271   20.4655 C   0  0  0  0  0  0
  -22.7244  -10.2143   20.3067 C   0  0  0  0  0  0
  -21.6855   -6.0742   22.5281 C   0  0  0  0  0  0
  -21.4022   -6.5645   23.8217 C   0  0  0  0  0  0
  -21.3658   -5.6796   24.9178 C   0  0  0  0  0  0
  -21.6038   -4.3059   24.7224 C   0  0  0  0  0  0
  -21.8818   -3.8149   23.4345 C   0  0  0  0  0  0
  -21.9189   -4.6970   22.3401 C   0  0  0  0  0  0
  -22.7798  -13.5220   21.1864 C   0  0  0  0  0  0
  -22.1656   -4.2156   21.0979 F   0  0  0  0  0  0
  -21.5622   -3.4539   25.7732 F   0  0  0  0  0  0
  -29.9747  -13.5755   20.3732 N   0  0  0  0  0  0
  -26.2907  -12.9434   20.3276 N   0  0  0  0  0  0
  -25.9319  -11.6568   20.5763 N   0  0  0  0  0  0
  -22.0444  -12.8221   22.0427 N   0  0  0  0  0  0
  -25.4147  -15.1942   20.4118 N   0  0  0  0  0  0
  -31.8526  -14.7880   20.1554 O   0  0  0  0  0  0
  -21.6635   -6.8888   21.4242 O   0  0  0  0  0  0
  -22.3491  -14.5529   20.6710 O   0  0  0  0  0  0
  -24.6332  -31.8532   23.1978 C   0  0  0  0  0  0
  -25.9151  -32.4746   23.8325 C   0  0  1  0  0  0
  -27.2152  -27.2375   20.1254 C   0  0  0  0  0  0
  -25.5940  -33.8549   24.2248 N   0  0  0  0  0  0
  -23.4310  -30.4770   21.5418 C   0  0  2  0  0  0
  -24.8782  -28.9247   20.1090 C   0  0  0  0  0  0
  -22.7516  -29.4588   22.4902 C   0  0  0  0  0  0
  -18.0296  -28.1394   22.8477 C   0  0  0  0  0  0
  -24.1488  -36.7278   23.2639 C   0  0  0  0  0  0
  -25.9802  -30.7597   21.3814 C   0  0  0  0  0  0
  -26.0524  -29.3808   20.7206 C   0  0  0  0  0  0
  -27.2238  -28.5513   20.7168 C   0  0  0  0  0  0
  -26.0151  -26.8613   19.4781 C   0  0  0  0  0  0
  -24.8667  -27.6750   19.4748 C   0  0  0  0  0  0
  -23.6501  -29.8142   20.1575 C   0  0  0  0  0  0
  -25.4115  -36.3062   24.0325 C   0  0  1  0  0  0
  -20.5899  -28.3700   23.1267 C   0  0  2  0  0  0
  -20.6786  -26.9417   22.5406 C   0  0  0  0  0  0
  -19.5764  -26.6384   21.5209 C   0  0  0  0  0  0
  -18.1942  -26.7936   22.1618 C   0  0  0  0  0  0
  -19.1548  -28.8865   23.2867 C   0  0  0  0  0  0
  -18.9467  -30.1464   23.8892 C   0  0  0  0  0  0
  -17.6464  -30.6590   24.0559 C   0  0  0  0  0  0
  -25.9058  -34.9433   23.5087 C   0  0  0  0  0  0
  -16.5357  -29.9086   23.6332 C   0  0  0  0  0  0
  -16.7280  -28.6504   23.0354 C   0  0  0  0  0  0
  -26.4517  -31.6581   25.0720 C   0  0  0  0  0  0
  -25.3732  -31.3736   26.1433 C   0  0  0  0  0  0
  -27.0373  -30.2996   24.6224 C   0  0  0  0  0  0
  -27.6071  -32.4325   25.7492 C   0  0  0  0  0  0
  -27.5580  -37.1789   24.8465 C   0  0  0  0  0  0
  -21.4220  -29.3039   22.3650 N   0  0  0  0  0  0
  -26.4290  -37.3761   23.9410 N   0  0  0  0  0  0
  -24.7008  -31.0478   22.0965 N   0  0  0  0  0  0
  -23.4213  -28.8122   23.2999 O   0  0  0  0  0  0
  -28.2970  -26.3170   20.1901 O   0  0  0  0  0  0
  -26.5625  -34.8911   22.4654 O   0  0  0  0  0  0
  -23.5478  -32.1362   23.7260 O   0  0  0  0  0  0
  -31.1544  -19.1633   22.4421 C   0  0  0  0  0  0
  -30.3639  -18.5540   21.3983 C   0  0  0  0  0  0
  -30.5294  -17.1122   21.3671 C   0  0  0  0  0  0
  -31.9137  -18.2841   23.1362 C   0  0  0  0  0  0
  -29.7749  -20.9056   20.4845 C   0  0  0  0  0  0
  -28.6949  -22.0687   20.2033 C   0  0  0  0  0  0
  -28.0289  -24.8358   19.9976 C   0  0  0  0  0  0
  -29.1045  -23.6651   20.3553 C   0  0  2  0  0  0
  -29.5106  -19.5348   20.6559 N   0  0  0  0  0  0
  -29.9992  -15.9822   20.7089 N   0  0  0  0  0  0
  -30.3638  -23.9568   19.6317 N   0  3  0  0  0  0
  -30.9455  -21.2994   20.4859 O   0  0  0  0  0  0
  -32.7402  -18.6222   24.1558 F   0  0  0  0  0  0
  -31.7063  -16.6671   22.6240 S   0  0  0  0  0  0
  -31.4638  -12.5908   19.1648 H   0  0  0  0  0  0
  -30.3651  -11.5214   19.9863 H   0  0  0  0  0  0
  -29.7942  -11.7193   17.5343 H   0  0  0  0  0  0
  -29.6211  -13.4499   17.7040 H   0  0  0  0  0  0
  -27.9156  -11.2725   18.9525 H   0  0  0  0  0  0
  -27.3696  -12.4733   17.8120 H   0  0  0  0  0  0
  -27.6108  -14.2493   19.4324 H   0  0  0  0  0  0
  -28.7305  -12.2487   21.4558 H   0  0  0  0  0  0
  -28.4150  -13.9431   21.7555 H   0  0  0  0  0  0
  -25.2771   -9.5672   22.4766 H   0  0  0  0  0  0
  -23.9996   -7.4635   22.7470 H   0  0  0  0  0  0
  -21.0847   -8.8790   19.8961 H   0  0  0  0  0  0
  -22.3712  -10.9682   19.6171 H   0  0  0  0  0  0
  -21.2028   -7.6155   23.9725 H   0  0  0  0  0  0
  -21.1476   -6.0526   25.9081 H   0  0  0  0  0  0
  -22.0594   -2.7610   23.2843 H   0  0  0  0  0  0
  -22.4053  -11.9899   22.4848 H   0  0  0  0  0  0
  -21.1064  -13.1263   22.2613 H   0  0  0  0  0  0
  -24.6439  -15.8442   20.5208 H   0  0  0  0  0  0
  -26.2578  -15.6368   20.0701 H   0  0  0  0  0  0
  -26.7212  -32.5386   23.1059 H   0  0  0  0  0  0
  -25.0094  -33.9681   25.0398 H   0  0  0  0  0  0
  -22.7279  -31.2994   21.3964 H   0  0  0  0  0  0
  -23.3754  -35.9606   23.3291 H   0  0  0  0  0  0
  -24.3575  -36.8911   22.2054 H   0  0  0  0  0  0
  -23.7238  -37.6474   23.6671 H   0  0  0  0  0  0
  -26.1225  -31.5208   20.6129 H   0  0  0  0  0  0
  -26.8567  -30.8079   22.0162 H   0  0  0  0  0  0
  -28.1219  -28.8940   21.2116 H   0  0  0  0  0  0
  -25.9213  -25.9109   18.9756 H   0  0  0  0  0  0
  -23.9689  -27.3239   18.9844 H   0  0  0  0  0  0
  -23.7764  -30.5919   19.4035 H   0  0  0  0  0  0
  -22.7671  -29.2508   19.8504 H   0  0  0  0  0  0
  -25.1297  -36.1905   25.0819 H   0  0  0  0  0  0
  -20.9992  -28.3284   24.1387 H   0  0  0  0  0  0
  -20.5686  -26.2310   23.3609 H   0  0  0  0  0  0
  -21.6655  -26.7439   22.1201 H   0  0  0  0  0  0
  -19.6927  -25.6291   21.1247 H   0  0  0  0  0  0
  -19.6711  -27.3186   20.6734 H   0  0  0  0  0  0
  -17.4210  -26.6676   21.4023 H   0  0  0  0  0  0
  -18.0345  -26.0083   22.9020 H   0  0  0  0  0  0
  -19.7940  -30.7279   24.2273 H   0  0  0  0  0  0
  -17.5015  -31.6268   24.5156 H   0  0  0  0  0  0
  -15.5358  -30.2984   23.7658 H   0  0  0  0  0  0
  -15.8680  -28.0814   22.7085 H   0  0  0  0  0  0
  -24.5910  -30.7088   25.7752 H   0  0  0  0  0  0
  -24.8922  -32.2908   26.4840 H   0  0  0  0  0  0
  -25.8037  -30.8917   27.0220 H   0  0  0  0  0  0
  -26.2964  -29.6727   24.1250 H   0  0  0  0  0  0
  -27.4056  -29.7278   25.4751 H   0  0  0  0  0  0
  -27.8841  -30.4269   23.9476 H   0  0  0  0  0  0
  -27.2692  -33.3640   26.2042 H   0  0  0  0  0  0
  -28.3898  -32.6859   25.0329 H   0  0  0  0  0  0
  -28.0724  -31.8465   26.5427 H   0  0  0  0  0  0
  -28.2592  -38.0092   24.7512 H   0  0  0  0  0  0
  -28.1083  -36.2621   24.6291 H   0  0  0  0  0  0
  -27.2295  -37.1434   25.8867 H   0  0  0  0  0  0
  -20.9413  -29.8759   21.6845 H   0  0  0  0  0  0
  -26.0168  -38.2833   24.1418 H   0  0  0  0  0  0
  -31.1512  -20.2157   22.6785 H   0  0  0  0  0  0
  -27.8458  -21.8762   20.8601 H   0  0  0  0  0  0
  -28.3191  -21.9023   19.1934 H   0  0  0  0  0  0
  -27.1274  -24.5989   20.5629 H   0  0  0  0  0  0
  -27.7632  -24.6968   18.9491 H   0  0  0  0  0  0
  -29.3440  -23.8028   21.4107 H   0  0  0  0  0  0
  -28.5909  -19.2083   20.3900 H   0  0  0  0  0  0
  -28.9969  -15.9674   20.6019 H   0  0  0  0  0  0
  -30.2395  -23.9464   18.6333 H   0  0  0  0  0  0
  -31.0555  -23.2604   19.8702 H   0  0  0  0  0  0
  -30.7206  -24.8615   19.8923 H   0  0  0  0  0  0
  1 25  1  0  0  0
  1 30  2  0  0  0
  1 80  1  0  0  0
  2  3  1  0  0  0
  2 25  1  0  0  0
  2 85  1  0  0  0
  2 86  1  0  0  0
  3  4  1  0  0  0
  3 87  1  0  0  0
  3 88  1  0  0  0
  4  5  1  0  0  0
  4 89  1  0  0  0
  4 90  1  0  0  0
  5  6  1  0  0  0
  5 26  1  0  0  0
  5 91  1  0  0  0
  6 25  1  0  0  0
  6 92  1  0  0  0
  6 93  1  0  0  0
  7  8  2  0  0  0
  7 26  1  0  0  0
  7 29  1  0  0  0
  8  9  1  0  0  0
  8 22  1  0  0  0
  9 10  1  0  0  0
  9 27  2  0  0  0
 10 11  2  0  0  0
 10 15  1  0  0  0
 11 12  1  0  0  0
 11 94  1  0  0  0
 12 13  2  0  0  0
 12 95  1  0  0  0
 13 14  1  0  0  0
 13 31  1  0  0  0
 14 15  2  0  0  0
 14 96  1  0  0  0
 15 97  1  0  0  0
 16 17  2  0  0  0
 16 21  1  0  0  0
 16 31  1  0  0  0
 17 18  1  0  0  0
 17 98  1  0  0  0
 18 19  2  0  0  0
 18 99  1  0  0  0
 19 20  1  0  0  0
 19 24  1  0  0  0
 20 21  2  0  0  0
 20100  1  0  0  0
 21 23  1  0  0  0
 22 28  1  0  0  0
 22 32  2  0  0  0
 26 27  1  0  0  0
 28101  1  0  0  0
 28102  1  0  0  0
 29103  1  0  0  0
 29104  1  0  0  0
 33 34  1  0  0  0
 33 66  1  0  0  0
 33 70  2  0  0  0
 34 36  1  0  0  0
 34 59  1  0  0  0
 34105  1  0  0  0
 35 44  2  0  0  0
 35 45  1  0  0  0
 35 68  1  0  0  0
 36 56  1  0  0  0
 36106  1  0  0  0
 37 39  1  0  0  0
 37 47  1  0  0  0
 37 66  1  0  0  0
 37107  1  0  0  0
 38 43  2  0  0  0
 38 46  1  0  0  0
 38 47  1  0  0  0
 39 64  1  0  0  0
 39 67  2  0  0  0
 40 52  1  0  0  0
 40 53  2  0  0  0
 40 58  1  0  0  0
 41108  1  0  0  0
 41109  1  0  0  0
 41110  1  0  0  0
 41 48  1  0  0  0
 42 43  1  0  0  0
 42 66  1  0  0  0
 42111  1  0  0  0
 42112  1  0  0  0
 43 44  1  0  0  0
 44113  1  0  0  0
 45 46  2  0  0  0
 45114  1  0  0  0
 46115  1  0  0  0
 47116  1  0  0  0
 47117  1  0  0  0
 48 56  1  0  0  0
 48 65  1  0  0  0
 48118  1  0  0  0
 49 50  1  0  0  0
 49 53  1  0  0  0
 49 64  1  0  0  0
 49119  1  0  0  0
 50 51  1  0  0  0
 50120  1  0  0  0
 50121  1  0  0  0
 51 52  1  0  0  0
 51122  1  0  0  0
 51123  1  0  0  0
 52124  1  0  0  0
 52125  1  0  0  0
 53 54  1  0  0  0
 54 55  2  0  0  0
 54126  1  0  0  0
 55 57  1  0  0  0
 55127  1  0  0  0
 56 69  2  0  0  0
 57 58  2  0  0  0
 57128  1  0  0  0
 58129  1  0  0  0
 59 60  1  0  0  0
 59 61  1  0  0  0
 59 62  1  0  0  0
 60130  1  0  0  0
 60131  1  0  0  0
 60132  1  0  0  0
 61133  1  0  0  0
 61134  1  0  0  0
 61135  1  0  0  0
 62136  1  0  0  0
 62137  1  0  0  0
 62138  1  0  0  0
 63 65  1  0  0  0
 63139  1  0  0  0
 63140  1  0  0  0
 63141  1  0  0  0
 64142  1  0  0  0
 65143  1  0  0  0
 68 77  1  0  0  0
 71 72  1  0  0  0
 71 74  2  0  0  0
 71144  1  0  0  0
 72 73  2  0  0  0
 72 79  1  0  0  0
 73 80  1  0  0  0
 73 84  1  0  0  0
 74 83  1  0  0  0
 74 84  1  0  0  0
 75 76  1  0  0  0
 75 79  1  0  0  0
 75 82  2  0  0  0
 76 78  1  0  0  0
 76145  1  0  0  0
 76146  1  0  0  0
 77 78  1  0  0  0
 77147  1  0  0  0
 77148  1  0  0  0
 78 81  1  0  0  0
 78149  1  0  0  0
 79150  1  0  0  0
 80151  1  0  0  0
 81152  1  0  0  0
 81153  1  0  0  0
 81154  1  0  0  0
M  CHG  1  81   1
M  ISO  4   1 100  68 101  77 101  80 100
M  END
> <chiral flag>
0

> <version>
0

> <s_m_source_file>
/data/baiqing/PycharmProjects/Reinvent-master-3.2/result/LINK_invent/BTK/process_docking_weight1_custom_product_contain_oxygen_bond_distance_aromatic_linkinvent_7_9_3/rearranged_h_0187.sdf

> <i_m_source_file_index>
70

> <r_mmod_Potential_Energy-OPLS-2005>
-24.7686748504639

> <r_mmod_Stretch_Energy-OPLS-2005>
161.912368774414

> <r_mmod_Bend_Energy-OPLS-2005>
215.629333496094

> <r_mmod_Torsional_Energy-OPLS-2005>
238.885269165039

> <r_mmod_Improper_Torsional_Energy-OPLS-2005>
6.61530256271362

> <r_mmod_Van_der_Waal_Energy-OPLS-2005>
144.280059814453

> <r_mmod_Electrostatic_Energy-OPLS-2005>
-405.929504394531

> <r_mmod_Solvation_Energy-OPLS-2005>
-487.561767578125

> <b_mmod_Minimization_Converged-OPLS-2005>
0

> <r_mmod_RMS_Derivative-OPLS-2005>
1.31150722503662

$$$$
72
                    3D
 Structure written by MMmdl.
167175  0  0  1  0            999 V2000
  -30.6847  -14.4935   20.5583 C   0  0  0  0  0  0
  -30.4176  -12.3108   19.4436 C   0  0  0  0  0  0
  -29.5020  -12.5135   18.2163 C   0  0  0  0  0  0
  -28.0189  -12.3704   18.6174 C   0  0  0  0  0  0
  -27.6598  -13.2025   19.8773 C   0  0  2  0  0  0
  -28.6955  -13.0058   21.0072 C   0  0  0  0  0  0
  -25.2572  -13.8155   20.5666 C   0  0  0  0  0  0
  -24.1808  -13.0437   20.9160 C   0  0  0  0  0  0
  -24.6370  -11.6910   20.8703 C   0  0  0  0  0  0
  -23.9044  -10.4293   21.0404 C   0  0  0  0  0  0
  -24.3609   -9.4215   21.9182 C   0  0  0  0  0  0
  -23.6302   -8.2248   22.0754 C   0  0  0  0  0  0
  -22.4276   -8.0282   21.3564 C   0  0  0  0  0  0
  -21.9900   -9.0244   20.4649 C   0  0  0  0  0  0
  -22.7222  -10.2130   20.3055 C   0  0  0  0  0  0
  -21.6856   -6.0731   22.5278 C   0  0  0  0  0  0
  -21.4015   -6.5648   23.8204 C   0  0  0  0  0  0
  -21.3662   -5.6800   24.9167 C   0  0  0  0  0  0
  -21.6039   -4.3058   24.7222 C   0  0  0  0  0  0
  -21.8822   -3.8154   23.4346 C   0  0  0  0  0  0
  -21.9188   -4.6962   22.3397 C   0  0  0  0  0  0
  -22.7833  -13.5248   21.1810 C   0  0  0  0  0  0
  -22.1667   -4.2160   21.0971 F   0  0  0  0  0  0
  -21.5625   -3.4540   25.7735 F   0  0  0  0  0  0
  -30.0326  -13.3006   20.4636 N   0  0  0  0  0  0
  -26.2998  -12.9318   20.3348 N   0  0  0  0  0  0
  -25.9288  -11.6483   20.5719 N   0  0  0  0  0  0
  -22.0464  -12.8248   22.0366 N   0  0  0  0  0  0
  -25.4298  -15.1871   20.4079 N   0  0  0  0  0  0
  -31.7935  -14.6892   20.0519 O   0  0  0  0  0  0
  -21.6653   -6.8880   21.4247 O   0  0  0  0  0  0
  -22.3523  -14.5566   20.6668 O   0  0  0  0  0  0
  -24.6153  -31.8651   23.2111 C   0  0  0  0  0  0
  -25.9058  -32.4797   23.8390 C   0  0  1  0  0  0
  -27.2306  -27.4136   20.1067 C   0  0  0  0  0  0
  -25.5919  -33.8606   24.2316 N   0  0  0  0  0  0
  -23.4021  -30.4895   21.5497 C   0  0  2  0  0  0
  -24.8523  -28.9510   20.1087 C   0  0  0  0  0  0
  -22.7394  -29.4677   22.5018 C   0  0  0  0  0  0
  -18.0263  -28.1370   22.8477 C   0  0  0  0  0  0
  -24.1499  -36.7306   23.2637 C   0  0  0  0  0  0
  -25.9337  -30.8266   21.3632 C   0  0  0  0  0  0
  -26.0116  -29.4627   20.7029 C   0  0  0  0  0  0
  -27.2065  -28.7044   20.6910 C   0  0  0  0  0  0
  -26.0584  -26.9208   19.5011 C   0  0  0  0  0  0
  -24.8729  -27.6817   19.5011 C   0  0  0  0  0  0
  -23.6099  -29.8136   20.1647 C   0  0  0  0  0  0
  -25.4126  -36.3092   24.0326 C   0  0  1  0  0  0
  -20.5851  -28.3666   23.1308 C   0  0  2  0  0  0
  -20.6778  -26.9411   22.5404 C   0  0  0  0  0  0
  -19.5767  -26.6385   21.5197 C   0  0  0  0  0  0
  -18.1937  -26.7912   22.1602 C   0  0  0  0  0  0
  -19.1516  -28.8840   23.2872 C   0  0  0  0  0  0
  -18.9444  -30.1441   23.8886 C   0  0  0  0  0  0
  -17.6456  -30.6577   24.0560 C   0  0  0  0  0  0
  -25.9046  -34.9459   23.5119 C   0  0  0  0  0  0
  -16.5345  -29.9071   23.6343 C   0  0  0  0  0  0
  -16.7256  -28.6486   23.0356 C   0  0  0  0  0  0
  -26.4492  -31.6569   25.0711 C   0  0  0  0  0  0
  -25.3765  -31.3672   26.1465 C   0  0  0  0  0  0
  -27.0328  -30.3000   24.6117 C   0  0  0  0  0  0
  -27.6078  -32.4283   25.7462 C   0  0  0  0  0  0
  -27.5589  -37.1811   24.8453 C   0  0  0  0  0  0
  -21.4125  -29.3036   22.3724 N   0  0  0  0  0  0
  -26.4302  -37.3785   23.9397 N   0  0  0  0  0  0
  -24.6688  -31.0744   22.0993 N   0  0  0  0  0  0
  -23.4164  -28.8227   23.3073 O   0  0  0  0  0  0
  -28.3873  -26.6551   20.1226 O   0  0  0  0  0  0
  -26.5610  -34.8917   22.4673 O   0  0  0  0  0  0
  -23.5357  -32.1432   23.7501 O   0  0  0  0  0  0
  -29.1325  -18.9232   20.1372 C   0  0  0  0  0  0
  -28.7201  -18.3720   18.9433 C   0  0  0  0  0  0
  -29.6241  -16.6862   20.4450 C   0  0  0  0  0  0
  -29.8570  -23.1457   16.4351 C   0  0  0  0  0  0
  -27.6435  -21.9980   16.8863 C   0  0  0  0  0  0
  -27.4407  -25.3586   22.0498 C   0  0  0  0  0  0
  -29.7510  -21.5256   18.4220 C   0  0  0  0  0  0
  -28.3455  -24.1098   19.9230 C   0  0  0  0  0  0
  -29.1754  -21.8989   17.0210 C   0  0  0  0  0  0
  -28.7963  -21.4557   19.6677 C   0  0  2  0  0  0
  -28.4036  -25.3856   20.8375 C   0  0  1  0  0  0
  -28.8133  -22.7531   20.5595 C   0  0  1  0  0  0
  -29.5959  -17.9135   21.0127 N   0  0  0  0  0  0
  -29.1282  -20.2951   20.5233 N   0  0  0  0  0  0
  -30.0081  -15.5014   21.1473 N   0  0  0  0  0  0
  -30.1468  -22.8510   21.0284 O   0  0  0  0  0  0
  -28.1457  -19.0581   17.9296 F   0  0  0  0  0  0
  -29.0045  -16.6648   18.7950 S   0  0  0  0  0  0
  -31.4675  -12.3966   19.1558 H   0  0  0  0  0  0
  -30.3033  -11.3016   19.8440 H   0  0  0  0  0  0
  -29.7488  -11.7904   17.4390 H   0  0  0  0  0  0
  -29.6717  -13.4971   17.7758 H   0  0  0  0  0  0
  -27.8181  -11.3132   18.7955 H   0  0  0  0  0  0
  -27.3751  -12.6612   17.7863 H   0  0  0  0  0  0
  -27.6948  -14.2457   19.5719 H   0  0  0  0  0  0
  -28.6652  -11.9818   21.3841 H   0  0  0  0  0  0
  -28.4478  -13.6383   21.8609 H   0  0  0  0  0  0
  -25.2760   -9.5700   22.4732 H   0  0  0  0  0  0
  -24.0023   -7.4642   22.7465 H   0  0  0  0  0  0
  -21.0836   -8.8749   19.8948 H   0  0  0  0  0  0
  -22.3686  -10.9658   19.6146 H   0  0  0  0  0  0
  -21.2033   -7.6155   23.9714 H   0  0  0  0  0  0
  -21.1475   -6.0523   25.9064 H   0  0  0  0  0  0
  -22.0602   -2.7614   23.2826 H   0  0  0  0  0  0
  -22.4120  -11.9952   22.4803 H   0  0  0  0  0  0
  -21.1065  -13.1228   22.2559 H   0  0  0  0  0  0
  -24.6573  -15.8362   20.5072 H   0  0  0  0  0  0
  -26.2790  -15.6264   20.0802 H   0  0  0  0  0  0
  -26.7131  -32.5500   23.1161 H   0  0  0  0  0  0
  -25.0063  -33.9759   25.0457 H   0  0  0  0  0  0
  -22.6870  -31.3040   21.4082 H   0  0  0  0  0  0
  -23.3751  -35.9638   23.3274 H   0  0  0  0  0  0
  -24.3595  -36.8952   22.2053 H   0  0  0  0  0  0
  -23.7279  -37.6516   23.6674 H   0  0  0  0  0  0
  -26.0501  -31.5990   20.6029 H   0  0  0  0  0  0
  -26.8207  -30.8745   21.9838 H   0  0  0  0  0  0
  -28.0972  -29.0984   21.1582 H   0  0  0  0  0  0
  -26.0564  -25.9424   19.0438 H   0  0  0  0  0  0
  -23.9819  -27.2799   19.0407 H   0  0  0  0  0  0
  -23.6961  -30.5814   19.3948 H   0  0  0  0  0  0
  -22.7379  -29.2179   19.8899 H   0  0  0  0  0  0
  -25.1309  -36.1942   25.0819 H   0  0  0  0  0  0
  -20.9934  -28.3255   24.1430 H   0  0  0  0  0  0
  -20.5698  -26.2278   23.3581 H   0  0  0  0  0  0
  -21.6653  -26.7482   22.1199 H   0  0  0  0  0  0
  -19.6939  -25.6297   21.1226 H   0  0  0  0  0  0
  -19.6724  -27.3193   20.6720 H   0  0  0  0  0  0
  -17.4220  -26.6644   21.3990 H   0  0  0  0  0  0
  -18.0339  -26.0052   22.8997 H   0  0  0  0  0  0
  -19.7930  -30.7240   24.2269 H   0  0  0  0  0  0
  -17.5021  -31.6267   24.5150 H   0  0  0  0  0  0
  -15.5351  -30.2970   23.7691 H   0  0  0  0  0  0
  -15.8637  -28.0800   22.7098 H   0  0  0  0  0  0
  -24.5917  -30.7046   25.7793 H   0  0  0  0  0  0
  -24.8984  -32.2823   26.4964 H   0  0  0  0  0  0
  -25.8134  -30.8793   27.0185 H   0  0  0  0  0  0
  -26.2878  -29.6728   24.1221 H   0  0  0  0  0  0
  -27.4126  -29.7283   25.4593 H   0  0  0  0  0  0
  -27.8682  -30.4274   23.9239 H   0  0  0  0  0  0
  -27.2715  -33.3579   26.2053 H   0  0  0  0  0  0
  -28.3880  -32.6848   25.0285 H   0  0  0  0  0  0
  -28.0743  -31.8391   26.5368 H   0  0  0  0  0  0
  -28.2608  -38.0105   24.7515 H   0  0  0  0  0  0
  -28.1101  -36.2658   24.6267 H   0  0  0  0  0  0
  -27.2299  -37.1426   25.8848 H   0  0  0  0  0  0
  -20.9306  -29.8681   21.6860 H   0  0  0  0  0  0
  -26.0177  -38.2858   24.1390 H   0  0  0  0  0  0
  -29.6415  -23.2432   15.3701 H   0  0  0  0  0  0
  -30.9412  -23.0930   16.5380 H   0  0  0  0  0  0
  -29.5184  -24.0583   16.9223 H   0  0  0  0  0  0
  -27.3544  -22.1678   15.8479 H   0  0  0  0  0  0
  -27.2341  -22.8148   17.4768 H   0  0  0  0  0  0
  -27.1433  -21.0805   17.1904 H   0  0  0  0  0  0
  -27.6445  -24.5175   22.7106 H   0  0  0  0  0  0
  -26.3909  -25.2988   21.7582 H   0  0  0  0  0  0
  -27.5625  -26.2597   22.6509 H   0  0  0  0  0  0
  -30.6001  -22.1699   18.6477 H   0  0  0  0  0  0
  -30.2347  -20.5570   18.2790 H   0  0  0  0  0  0
  -28.9700  -24.2976   19.0529 H   0  0  0  0  0  0
  -27.3319  -23.9832   19.5443 H   0  0  0  0  0  0
  -29.4667  -21.0785   16.3615 H   0  0  0  0  0  0
  -27.7706  -21.2931   19.3425 H   0  0  0  0  0  0
  -29.4046  -25.3838   21.2710 H   0  0  0  0  0  0
  -28.1766  -22.5618   21.4256 H   0  0  0  0  0  0
  -29.2018  -20.4696   21.5198 H   0  0  0  0  0  0
  -29.3250  -15.1910   21.8202 H   0  0  0  0  0  0
  -30.5019  -21.9668   20.9592 H   0  0  0  0  0  0
  1 25  1  0  0  0
  1 30  2  0  0  0
  1 85  1  0  0  0
  2  3  1  0  0  0
  2 25  1  0  0  0
  2 89  1  0  0  0
  2 90  1  0  0  0
  3  4  1  0  0  0
  3 91  1  0  0  0
  3 92  1  0  0  0
  4  5  1  0  0  0
  4 93  1  0  0  0
  4 94  1  0  0  0
  5  6  1  0  0  0
  5 26  1  0  0  0
  5 95  1  0  0  0
  6 25  1  0  0  0
  6 96  1  0  0  0
  6 97  1  0  0  0
  7  8  2  0  0  0
  7 26  1  0  0  0
  7 29  1  0  0  0
  8  9  1  0  0  0
  8 22  1  0  0  0
  9 10  1  0  0  0
  9 27  2  0  0  0
 10 11  2  0  0  0
 10 15  1  0  0  0
 11 12  1  0  0  0
 11 98  1  0  0  0
 12 13  2  0  0  0
 12 99  1  0  0  0
 13 14  1  0  0  0
 13 31  1  0  0  0
 14 15  2  0  0  0
 14100  1  0  0  0
 15101  1  0  0  0
 16 17  2  0  0  0
 16 21  1  0  0  0
 16 31  1  0  0  0
 17 18  1  0  0  0
 17102  1  0  0  0
 18 19  2  0  0  0
 18103  1  0  0  0
 19 20  1  0  0  0
 19 24  1  0  0  0
 20 21  2  0  0  0
 20104  1  0  0  0
 21 23  1  0  0  0
 22 28  1  0  0  0
 22 32  2  0  0  0
 26 27  1  0  0  0
 28105  1  0  0  0
 28106  1  0  0  0
 29107  1  0  0  0
 29108  1  0  0  0
 33 34  1  0  0  0
 33 66  1  0  0  0
 33 70  2  0  0  0
 34 36  1  0  0  0
 34 59  1  0  0  0
 34109  1  0  0  0
 35 44  2  0  0  0
 35 45  1  0  0  0
 35 68  1  0  0  0
 36 56  1  0  0  0
 36110  1  0  0  0
 37 39  1  0  0  0
 37 47  1  0  0  0
 37 66  1  0  0  0
 37111  1  0  0  0
 38 43  2  0  0  0
 38 46  1  0  0  0
 38 47  1  0  0  0
 39 64  1  0  0  0
 39 67  2  0  0  0
 40 52  1  0  0  0
 40 53  2  0  0  0
 40 58  1  0  0  0
 41112  1  0  0  0
 41113  1  0  0  0
 41114  1  0  0  0
 41 48  1  0  0  0
 42 43  1  0  0  0
 42 66  1  0  0  0
 42115  1  0  0  0
 42116  1  0  0  0
 43 44  1  0  0  0
 44117  1  0  0  0
 45 46  2  0  0  0
 45118  1  0  0  0
 46119  1  0  0  0
 47120  1  0  0  0
 47121  1  0  0  0
 48 56  1  0  0  0
 48 65  1  0  0  0
 48122  1  0  0  0
 49 50  1  0  0  0
 49 53  1  0  0  0
 49 64  1  0  0  0
 49123  1  0  0  0
 50 51  1  0  0  0
 50124  1  0  0  0
 50125  1  0  0  0
 51 52  1  0  0  0
 51126  1  0  0  0
 51127  1  0  0  0
 52128  1  0  0  0
 52129  1  0  0  0
 53 54  1  0  0  0
 54 55  2  0  0  0
 54130  1  0  0  0
 55 57  1  0  0  0
 55131  1  0  0  0
 56 69  2  0  0  0
 57 58  2  0  0  0
 57132  1  0  0  0
 58133  1  0  0  0
 59 60  1  0  0  0
 59 61  1  0  0  0
 59 62  1  0  0  0
 60134  1  0  0  0
 60135  1  0  0  0
 60136  1  0  0  0
 61137  1  0  0  0
 61138  1  0  0  0
 61139  1  0  0  0
 62140  1  0  0  0
 62141  1  0  0  0
 62142  1  0  0  0
 63 65  1  0  0  0
 63143  1  0  0  0
 63144  1  0  0  0
 63145  1  0  0  0
 64146  1  0  0  0
 65147  1  0  0  0
 68 81  1  0  0  0
 71 72  2  0  0  0
 71 83  1  0  0  0
 71 84  1  0  0  0
 72 87  1  0  0  0
 72 88  1  0  0  0
 73 83  2  0  0  0
 73 85  1  0  0  0
 73 88  1  0  0  0
 74148  1  0  0  0
 74149  1  0  0  0
 74150  1  0  0  0
 74 79  1  0  0  0
 75 79  1  0  0  0
 75151  1  0  0  0
 75152  1  0  0  0
 75153  1  0  0  0
 76154  1  0  0  0
 76155  1  0  0  0
 76156  1  0  0  0
 76 81  1  0  0  0
 77 79  1  0  0  0
 77157  1  0  0  0
 77158  1  0  0  0
 77 80  1  0  0  0
 78 81  1  0  0  0
 78 82  1  0  0  0
 78159  1  0  0  0
 78160  1  0  0  0
 79161  1  0  0  0
 80 82  1  0  0  0
 80 84  1  0  0  0
 80162  1  0  0  0
 81163  1  0  0  0
 82 86  1  0  0  0
 82164  1  0  0  0
 84165  1  0  0  0
 85166  1  0  0  0
 86167  1  0  0  0
M  ISO  4   1 100  68 101  81 101  85 100
M  END
> <chiral flag>
0

> <version>
0

> <s_m_source_file>
/data/baiqing/PycharmProjects/Reinvent-master-3.2/result/LINK_invent/BTK/process_docking_weight1_custom_product_contain_oxygen_bond_distance_aromatic_linkinvent_7_9_3/rearranged_h_0187.sdf

> <i_m_source_file_index>
71

> <r_mmod_Potential_Energy-OPLS-2005>
-36.1331100463867

> <r_mmod_Stretch_Energy-OPLS-2005>
49.8022613525391

> <r_mmod_Bend_Energy-OPLS-2005>
138.127182006836

> <r_mmod_Torsional_Energy-OPLS-2005>
326.047882080078

> <r_mmod_Improper_Torsional_Energy-OPLS-2005>
6.5630350112915

> <r_mmod_Van_der_Waal_Energy-OPLS-2005>
123.719757080078

> <r_mmod_Electrostatic_Energy-OPLS-2005>
-471.082611083984

> <r_mmod_Solvation_Energy-OPLS-2005>
-224.599533081055

> <b_mmod_Minimization_Converged-OPLS-2005>
0

> <r_mmod_RMS_Derivative-OPLS-2005>
4.26414203643799

$$$$
73
                    3D
 Structure written by MMmdl.
154162  0  0  1  0            999 V2000
  -30.6822  -14.5220   20.5604 C   0  0  0  0  0  0
  -30.4266  -12.3390   19.4251 C   0  0  0  0  0  0
  -29.4916  -12.5165   18.2100 C   0  0  0  0  0  0
  -28.0122  -12.3761   18.6197 C   0  0  0  0  0  0
  -27.6588  -13.2156   19.8770 C   0  0  2  0  0  0
  -28.7036  -13.0136   20.9970 C   0  0  0  0  0  0
  -25.2577  -13.8192   20.5706 C   0  0  0  0  0  0
  -24.1832  -13.0437   20.9188 C   0  0  0  0  0  0
  -24.6423  -11.6922   20.8762 C   0  0  0  0  0  0
  -23.9107  -10.4297   21.0422 C   0  0  0  0  0  0
  -24.3657   -9.4210   21.9209 C   0  0  0  0  0  0
  -23.6324   -8.2246   22.0768 C   0  0  0  0  0  0
  -22.4294   -8.0317   21.3554 C   0  0  0  0  0  0
  -21.9957   -9.0289   20.4647 C   0  0  0  0  0  0
  -22.7292  -10.2155   20.3061 C   0  0  0  0  0  0
  -21.6858   -6.0779   22.5289 C   0  0  0  0  0  0
  -21.4016   -6.5671   23.8231 C   0  0  0  0  0  0
  -21.3641   -5.6803   24.9174 C   0  0  0  0  0  0
  -21.6040   -4.3069   24.7215 C   0  0  0  0  0  0
  -21.8810   -3.8179   23.4327 C   0  0  0  0  0  0
  -21.9197   -4.7010   22.3388 C   0  0  0  0  0  0
  -22.7849  -13.5242   21.1860 C   0  0  0  0  0  0
  -22.1662   -4.2192   21.0968 F   0  0  0  0  0  0
  -21.5625   -3.4546   25.7727 F   0  0  0  0  0  0
  -30.0280  -13.3307   20.4358 N   0  0  0  0  0  0
  -26.3029  -12.9377   20.3413 N   0  0  0  0  0  0
  -25.9348  -11.6525   20.5804 N   0  0  0  0  0  0
  -22.0494  -12.8181   22.0382 N   0  0  0  0  0  0
  -25.4254  -15.1909   20.4071 N   0  0  0  0  0  0
  -31.8265  -14.6988   20.1341 O   0  0  0  0  0  0
  -21.6647   -6.8919   21.4249 O   0  0  0  0  0  0
  -22.3521  -14.5545   20.6732 O   0  0  0  0  0  0
  -24.6170  -31.8660   23.2092 C   0  0  0  0  0  0
  -25.9077  -32.4797   23.8354 C   0  0  1  0  0  0
  -27.2306  -27.3984   20.0943 C   0  0  0  0  0  0
  -25.5946  -33.8596   24.2302 N   0  0  0  0  0  0
  -23.4006  -30.4902   21.5537 C   0  0  2  0  0  0
  -24.8450  -28.9504   20.1114 C   0  0  0  0  0  0
  -22.7399  -29.4673   22.5024 C   0  0  0  0  0  0
  -18.0265  -28.1366   22.8503 C   0  0  0  0  0  0
  -24.1483  -36.7260   23.2629 C   0  0  0  0  0  0
  -25.9320  -30.8201   21.3627 C   0  0  0  0  0  0
  -26.0051  -29.4496   20.7138 C   0  0  0  0  0  0
  -27.1951  -28.6815   20.7040 C   0  0  0  0  0  0
  -26.0414  -26.9165   19.4979 C   0  0  0  0  0  0
  -24.8607  -27.6820   19.5063 C   0  0  0  0  0  0
  -23.6055  -29.8211   20.1680 C   0  0  0  0  0  0
  -25.4100  -36.3074   24.0331 C   0  0  1  0  0  0
  -20.5865  -28.3634   23.1367 C   0  0  2  0  0  0
  -20.6766  -26.9353   22.5480 C   0  0  0  0  0  0
  -19.5756  -26.6364   21.5238 C   0  0  0  0  0  0
  -18.1906  -26.7919   22.1587 C   0  0  0  0  0  0
  -19.1522  -28.8820   23.2927 C   0  0  0  0  0  0
  -18.9452  -30.1453   23.8912 C   0  0  0  0  0  0
  -17.6449  -30.6580   24.0587 C   0  0  0  0  0  0
  -25.9048  -34.9459   23.5103 C   0  0  0  0  0  0
  -16.5337  -29.9068   23.6373 C   0  0  0  0  0  0
  -16.7260  -28.6499   23.0355 C   0  0  0  0  0  0
  -26.4479  -31.6576   25.0680 C   0  0  0  0  0  0
  -25.3742  -31.3691   26.1440 C   0  0  0  0  0  0
  -27.0298  -30.3023   24.6025 C   0  0  0  0  0  0
  -27.6069  -32.4291   25.7427 C   0  0  0  0  0  0
  -27.5604  -37.1732   24.8430 C   0  0  0  0  0  0
  -21.4132  -29.3013   22.3752 N   0  0  0  0  0  0
  -26.4241  -37.3804   23.9491 N   0  0  0  0  0  0
  -24.6686  -31.0734   22.1001 N   0  0  0  0  0  0
  -23.4173  -28.8237   23.3079 O   0  0  0  0  0  0
  -28.4134  -26.6754   20.1128 O   0  0  0  0  0  0
  -26.5595  -34.8933   22.4658 O   0  0  0  0  0  0
  -23.5366  -32.1425   23.7501 O   0  0  0  0  0  0
  -28.0894  -19.6014   19.4961 C   0  0  0  0  0  0
  -28.9807  -20.2955   20.2777 C   0  0  0  0  0  0
  -29.8929  -19.4014   20.9372 C   0  0  0  0  0  0
  -29.6765  -18.0552   20.7280 C   0  0  0  0  0  0
  -28.4085  -24.1622   20.2941 C   0  0  0  0  0  0
  -28.5037  -22.7574   19.6287 C   0  0  0  0  0  0
  -28.5432  -25.4225   19.3910 C   0  0  0  0  0  0
  -30.3937  -16.9003   21.4243 C   0  0  1  0  0  0
  -30.2125  -17.0197   22.9501 C   0  0  0  0  0  0
  -29.0411  -21.6987   20.5056 N   0  0  0  0  0  0
  -29.9472  -15.5388   21.0563 N   0  0  0  0  0  0
  -28.2538  -24.2609   21.5174 O   0  0  0  0  0  0
  -30.8382  -19.8584   21.7268 F   0  0  0  0  0  0
  -30.9419  -16.1083   23.5959 F   0  0  0  0  0  0
  -28.9270  -16.8686   23.2772 F   0  0  0  0  0  0
  -28.3318  -17.8616   19.6205 S   0  0  0  0  0  0
  -31.4661  -12.4573   19.1145 H   0  0  0  0  0  0
  -30.3477  -11.3280   19.8288 H   0  0  0  0  0  0
  -29.7328  -11.7894   17.4348 H   0  0  0  0  0  0
  -29.6504  -13.5023   17.7692 H   0  0  0  0  0  0
  -27.8171  -11.3206   18.8093 H   0  0  0  0  0  0
  -27.3636  -12.6621   17.7891 H   0  0  0  0  0  0
  -27.6971  -14.2630   19.5785 H   0  0  0  0  0  0
  -28.6842  -11.9819   21.3510 H   0  0  0  0  0  0
  -28.4618  -13.6248   21.8680 H   0  0  0  0  0  0
  -25.2791   -9.5686   22.4782 H   0  0  0  0  0  0
  -24.0040   -7.4629   22.7469 H   0  0  0  0  0  0
  -21.0900   -8.8808   19.8937 H   0  0  0  0  0  0
  -22.3772  -10.9719   19.6167 H   0  0  0  0  0  0
  -21.1997   -7.6172   23.9755 H   0  0  0  0  0  0
  -21.1468   -6.0527   25.9084 H   0  0  0  0  0  0
  -22.0600   -2.7650   23.2814 H   0  0  0  0  0  0
  -22.4146  -11.9837   22.4706 H   0  0  0  0  0  0
  -21.1111  -13.1193   22.2622 H   0  0  0  0  0  0
  -24.6544  -15.8424   20.5105 H   0  0  0  0  0  0
  -26.2756  -15.6376   20.0877 H   0  0  0  0  0  0
  -26.7124  -32.5475   23.1080 H   0  0  0  0  0  0
  -25.0233  -33.9750   25.0537 H   0  0  0  0  0  0
  -22.6865  -31.3059   21.4156 H   0  0  0  0  0  0
  -23.3788  -35.9532   23.3167 H   0  0  0  0  0  0
  -24.3629  -36.8997   22.2072 H   0  0  0  0  0  0
  -23.7129  -37.6377   23.6731 H   0  0  0  0  0  0
  -26.0404  -31.5783   20.5855 H   0  0  0  0  0  0
  -26.8254  -30.8779   21.9740 H   0  0  0  0  0  0
  -28.0896  -29.0666   21.1715 H   0  0  0  0  0  0
  -25.9920  -25.9434   19.0344 H   0  0  0  0  0  0
  -23.9672  -27.2839   19.0494 H   0  0  0  0  0  0
  -23.6955  -30.5995   19.4078 H   0  0  0  0  0  0
  -22.7262  -29.2421   19.8772 H   0  0  0  0  0  0
  -25.1229  -36.1876   25.0795 H   0  0  0  0  0  0
  -20.9945  -28.3208   24.1489 H   0  0  0  0  0  0
  -20.5704  -26.2203   23.3657 H   0  0  0  0  0  0
  -21.6631  -26.7432   22.1229 H   0  0  0  0  0  0
  -19.6937  -25.6279   21.1244 H   0  0  0  0  0  0
  -19.6755  -27.3222   20.6802 H   0  0  0  0  0  0
  -17.4212  -26.6804   21.3926 H   0  0  0  0  0  0
  -18.0213  -26.0016   22.8924 H   0  0  0  0  0  0
  -19.7939  -30.7327   24.2228 H   0  0  0  0  0  0
  -17.4987  -31.6267   24.5155 H   0  0  0  0  0  0
  -15.5355  -30.2980   23.7712 H   0  0  0  0  0  0
  -15.8635  -28.0864   22.7021 H   0  0  0  0  0  0
  -24.6145  -30.6698   25.7908 H   0  0  0  0  0  0
  -24.8639  -32.2805   26.4586 H   0  0  0  0  0  0
  -25.8166  -30.9253   27.0373 H   0  0  0  0  0  0
  -26.2821  -29.6773   24.1135 H   0  0  0  0  0  0
  -27.4157  -29.7241   25.4430 H   0  0  0  0  0  0
  -27.8596  -30.4330   23.9073 H   0  0  0  0  0  0
  -27.2726  -33.3696   26.1803 H   0  0  0  0  0  0
  -28.3979  -32.6659   25.0292 H   0  0  0  0  0  0
  -28.0565  -31.8494   26.5492 H   0  0  0  0  0  0
  -28.2452  -38.0195   24.7736 H   0  0  0  0  0  0
  -28.1274  -36.2779   24.5888 H   0  0  0  0  0  0
  -27.2406  -37.0863   25.8823 H   0  0  0  0  0  0
  -20.9266  -29.8688   21.6944 H   0  0  0  0  0  0
  -26.0103  -38.2819   24.1694 H   0  0  0  0  0  0
  -27.2796  -19.9813   18.8853 H   0  0  0  0  0  0
  -29.1431  -22.8347   18.7448 H   0  0  0  0  0  0
  -27.5038  -22.4819   19.2824 H   0  0  0  0  0  0
  -27.8932  -25.3534   18.5217 H   0  0  0  0  0  0
  -29.5547  -25.4110   18.9873 H   0  0  0  0  0  0
  -31.4588  -17.0045   21.2090 H   0  0  0  0  0  0
  -30.5330  -17.9941   23.3247 H   0  0  0  0  0  0
  -29.7533  -21.9956   21.1714 H   0  0  0  0  0  0
  -29.0200  -15.2990   21.3679 H   0  0  0  0  0  0
  1 25  1  0  0  0
  1 30  2  0  0  0
  1 81  1  0  0  0
  2  3  1  0  0  0
  2 25  1  0  0  0
  2 87  1  0  0  0
  2 88  1  0  0  0
  3  4  1  0  0  0
  3 89  1  0  0  0
  3 90  1  0  0  0
  4  5  1  0  0  0
  4 91  1  0  0  0
  4 92  1  0  0  0
  5  6  1  0  0  0
  5 26  1  0  0  0
  5 93  1  0  0  0
  6 25  1  0  0  0
  6 94  1  0  0  0
  6 95  1  0  0  0
  7  8  2  0  0  0
  7 26  1  0  0  0
  7 29  1  0  0  0
  8  9  1  0  0  0
  8 22  1  0  0  0
  9 10  1  0  0  0
  9 27  2  0  0  0
 10 11  2  0  0  0
 10 15  1  0  0  0
 11 12  1  0  0  0
 11 96  1  0  0  0
 12 13  2  0  0  0
 12 97  1  0  0  0
 13 14  1  0  0  0
 13 31  1  0  0  0
 14 15  2  0  0  0
 14 98  1  0  0  0
 15 99  1  0  0  0
 16 17  2  0  0  0
 16 21  1  0  0  0
 16 31  1  0  0  0
 17 18  1  0  0  0
 17100  1  0  0  0
 18 19  2  0  0  0
 18101  1  0  0  0
 19 20  1  0  0  0
 19 24  1  0  0  0
 20 21  2  0  0  0
 20102  1  0  0  0
 21 23  1  0  0  0
 22 28  1  0  0  0
 22 32  2  0  0  0
 26 27  1  0  0  0
 28103  1  0  0  0
 28104  1  0  0  0
 29105  1  0  0  0
 29106  1  0  0  0
 33 34  1  0  0  0
 33 66  1  0  0  0
 33 70  2  0  0  0
 34 36  1  0  0  0
 34 59  1  0  0  0
 34107  1  0  0  0
 35 44  2  0  0  0
 35 45  1  0  0  0
 35 68  1  0  0  0
 36 56  1  0  0  0
 36108  1  0  0  0
 37 39  1  0  0  0
 37 47  1  0  0  0
 37 66  1  0  0  0
 37109  1  0  0  0
 38 43  2  0  0  0
 38 46  1  0  0  0
 38 47  1  0  0  0
 39 64  1  0  0  0
 39 67  2  0  0  0
 40 52  1  0  0  0
 40 53  2  0  0  0
 40 58  1  0  0  0
 41110  1  0  0  0
 41111  1  0  0  0
 41112  1  0  0  0
 41 48  1  0  0  0
 42 43  1  0  0  0
 42 66  1  0  0  0
 42113  1  0  0  0
 42114  1  0  0  0
 43 44  1  0  0  0
 44115  1  0  0  0
 45 46  2  0  0  0
 45116  1  0  0  0
 46117  1  0  0  0
 47118  1  0  0  0
 47119  1  0  0  0
 48 56  1  0  0  0
 48 65  1  0  0  0
 48120  1  0  0  0
 49 50  1  0  0  0
 49 53  1  0  0  0
 49 64  1  0  0  0
 49121  1  0  0  0
 50 51  1  0  0  0
 50122  1  0  0  0
 50123  1  0  0  0
 51 52  1  0  0  0
 51124  1  0  0  0
 51125  1  0  0  0
 52126  1  0  0  0
 52127  1  0  0  0
 53 54  1  0  0  0
 54 55  2  0  0  0
 54128  1  0  0  0
 55 57  1  0  0  0
 55129  1  0  0  0
 56 69  2  0  0  0
 57 58  2  0  0  0
 57130  1  0  0  0
 58131  1  0  0  0
 59 60  1  0  0  0
 59 61  1  0  0  0
 59 62  1  0  0  0
 60132  1  0  0  0
 60133  1  0  0  0
 60134  1  0  0  0
 61135  1  0  0  0
 61136  1  0  0  0
 61137  1  0  0  0
 62138  1  0  0  0
 62139  1  0  0  0
 62140  1  0  0  0
 63 65  1  0  0  0
 63141  1  0  0  0
 63142  1  0  0  0
 63143  1  0  0  0
 64144  1  0  0  0
 65145  1  0  0  0
 68 77  1  0  0  0
 71 72  2  0  0  0
 71 86  1  0  0  0
 71146  1  0  0  0
 72 73  1  0  0  0
 72 80  1  0  0  0
 73 74  2  0  0  0
 73 83  1  0  0  0
 74 78  1  0  0  0
 74 86  1  0  0  0
 75 76  1  0  0  0
 75 77  1  0  0  0
 75 82  2  0  0  0
 76 80  1  0  0  0
 76147  1  0  0  0
 76148  1  0  0  0
 77149  1  0  0  0
 77150  1  0  0  0
 78 79  1  0  0  0
 78 81  1  0  0  0
 78151  1  0  0  0
 79 84  1  0  0  0
 79 85  1  0  0  0
 79152  1  0  0  0
 80153  1  0  0  0
 81154  1  0  0  0
M  ISO  4   1 100  68 101  77 101  81 100
M  END
> <chiral flag>
0

> <version>
0

> <s_m_source_file>
/data/baiqing/PycharmProjects/Reinvent-master-3.2/result/LINK_invent/BTK/process_docking_weight1_custom_product_contain_oxygen_bond_distance_aromatic_linkinvent_7_9_3/rearranged_h_0187.sdf

> <i_m_source_file_index>
72

> <r_mmod_Potential_Energy-OPLS-2005>
-107.484298706055

> <r_mmod_Stretch_Energy-OPLS-2005>
44.3787460327148

> <r_mmod_Bend_Energy-OPLS-2005>
118.697937011719

> <r_mmod_Torsional_Energy-OPLS-2005>
190.611938476562

> <r_mmod_Improper_Torsional_Energy-OPLS-2005>
4.677414894104

> <r_mmod_Van_der_Waal_Energy-OPLS-2005>
122.702674865723

> <r_mmod_Electrostatic_Energy-OPLS-2005>
-373.281158447266

> <r_mmod_Solvation_Energy-OPLS-2005>
-233.912841796875

> <b_mmod_Minimization_Converged-OPLS-2005>
0

> <r_mmod_RMS_Derivative-OPLS-2005>
4.82202672958374

$$$$
74
                    3D
 Structure written by MMmdl.
153161  0  0  1  0            999 V2000
  -30.6261  -14.7212   20.4574 C   0  0  0  0  0  0
  -30.4236  -12.4395   19.4726 C   0  0  0  0  0  0
  -29.5049  -12.5019   18.2334 C   0  0  0  0  0  0
  -28.0304  -12.3334   18.6468 C   0  0  0  0  0  0
  -27.6388  -13.2329   19.8501 C   0  0  2  0  0  0
  -28.6828  -13.1670   20.9852 C   0  0  0  0  0  0
  -25.2486  -13.8193   20.5685 C   0  0  0  0  0  0
  -24.1787  -13.0438   20.9211 C   0  0  0  0  0  0
  -24.6388  -11.6919   20.8761 C   0  0  0  0  0  0
  -23.9068  -10.4292   21.0413 C   0  0  0  0  0  0
  -24.3620   -9.4208   21.9188 C   0  0  0  0  0  0
  -23.6298   -8.2243   22.0756 C   0  0  0  0  0  0
  -22.4279   -8.0281   21.3548 C   0  0  0  0  0  0
  -21.9914   -9.0252   20.4647 C   0  0  0  0  0  0
  -22.7242  -10.2132   20.3058 C   0  0  0  0  0  0
  -21.6853   -6.0738   22.5281 C   0  0  0  0  0  0
  -21.4010   -6.5639   23.8218 C   0  0  0  0  0  0
  -21.3660   -5.6795   24.9177 C   0  0  0  0  0  0
  -21.6044   -4.3057   24.7227 C   0  0  0  0  0  0
  -21.8819   -3.8148   23.4351 C   0  0  0  0  0  0
  -21.9191   -4.6966   22.3403 C   0  0  0  0  0  0
  -22.7810  -13.5220   21.1871 C   0  0  0  0  0  0
  -22.1661   -4.2152   21.0981 F   0  0  0  0  0  0
  -21.5630   -3.4541   25.7737 F   0  0  0  0  0  0
  -29.9834  -13.5070   20.3994 N   0  0  0  0  0  0
  -26.2920  -12.9409   20.3288 N   0  0  0  0  0  0
  -25.9317  -11.6548   20.5766 N   0  0  0  0  0  0
  -22.0460  -12.8206   22.0427 N   0  0  0  0  0  0
  -25.4154  -15.1908   20.4068 N   0  0  0  0  0  0
  -31.8191  -14.7954   20.1512 O   0  0  0  0  0  0
  -21.6641   -6.8879   21.4241 O   0  0  0  0  0  0
  -22.3489  -14.5525   20.6724 O   0  0  0  0  0  0
  -24.6294  -31.8541   23.1959 C   0  0  0  0  0  0
  -25.9120  -32.4745   23.8307 C   0  0  1  0  0  0
  -27.2263  -27.2720   20.1165 C   0  0  0  0  0  0
  -25.5926  -33.8549   24.2233 N   0  0  0  0  0  0
  -23.4252  -30.4754   21.5393 C   0  0  2  0  0  0
  -24.8711  -28.9186   20.1070 C   0  0  0  0  0  0
  -22.7485  -29.4593   22.4905 C   0  0  0  0  0  0
  -18.0286  -28.1387   22.8492 C   0  0  0  0  0  0
  -24.1488  -36.7269   23.2639 C   0  0  0  0  0  0
  -25.9684  -30.7711   21.3706 C   0  0  0  0  0  0
  -26.0400  -29.3943   20.7109 C   0  0  0  0  0  0
  -27.2156  -28.5821   20.7037 C   0  0  0  0  0  0
  -26.0242  -26.8431   19.5173 C   0  0  0  0  0  0
  -24.8668  -27.6504   19.5018 C   0  0  0  0  0  0
  -23.6414  -29.8051   20.1561 C   0  0  0  0  0  0
  -25.4116  -36.3056   24.0323 C   0  0  1  0  0  0
  -20.5889  -28.3691   23.1272 C   0  0  2  0  0  0
  -20.6771  -26.9410   22.5405 C   0  0  0  0  0  0
  -19.5749  -26.6383   21.5209 C   0  0  0  0  0  0
  -18.1930  -26.7929   22.1628 C   0  0  0  0  0  0
  -19.1542  -28.8858   23.2879 C   0  0  0  0  0  0
  -18.9470  -30.1463   23.8893 C   0  0  0  0  0  0
  -17.6469  -30.6591   24.0569 C   0  0  0  0  0  0
  -25.9059  -34.9433   23.5081 C   0  0  0  0  0  0
  -16.5359  -29.9091   23.6333 C   0  0  0  0  0  0
  -16.7273  -28.6509   23.0352 C   0  0  0  0  0  0
  -26.4497  -31.6578   25.0703 C   0  0  0  0  0  0
  -25.3715  -31.3732   26.1423 C   0  0  0  0  0  0
  -27.0336  -30.2994   24.6176 C   0  0  0  0  0  0
  -27.6055  -32.4314   25.7480 C   0  0  0  0  0  0
  -27.5573  -37.1783   24.8464 C   0  0  0  0  0  0
  -21.4191  -29.3042   22.3660 N   0  0  0  0  0  0
  -26.4278  -37.3765   23.9421 N   0  0  0  0  0  0
  -24.6937  -31.0513   22.0925 N   0  0  0  0  0  0
  -23.4192  -28.8135   23.2999 O   0  0  0  0  0  0
  -28.3658  -26.4441   20.2058 O   0  0  0  0  0  0
  -26.5634  -34.8918   22.4651 O   0  0  0  0  0  0
  -23.5449  -32.1355   23.7264 O   0  0  0  0  0  0
  -28.4566  -19.1131   21.1110 C   0  0  0  0  0  0
  -29.6283  -18.6567   20.5041 C   0  0  0  0  0  0
  -29.0875  -21.1973   20.2224 C   0  0  0  0  0  0
  -28.2977  -23.7370   20.2089 C   0  0  0  0  0  0
  -28.3059  -25.1527   18.0001 C   0  0  0  0  0  0
  -30.4476  -17.2976   20.5368 C   0  0  0  0  0  0
  -28.6341  -25.1421   19.5052 C   0  0  1  0  0  0
  -27.5060  -18.3069   21.9704 C   0  0  0  0  0  0
  -28.1853  -20.5187   20.9505 N   0  0  0  0  0  0
  -29.0756  -22.6376   19.8835 N   0  0  0  0  0  0
  -29.8898  -15.8820   20.6437 N   0  0  0  0  0  0
  -27.3639  -23.6733   21.0125 O   0  0  0  0  0  0
  -27.6380  -16.9943   21.7782 F   0  0  0  0  0  0
  -27.7140  -18.5462   23.2657 F   0  0  0  0  0  0
  -26.2347  -18.6107   21.7038 F   0  0  0  0  0  0
  -30.3545  -20.0593   19.6689 S   0  0  0  0  0  0
  -31.4670  -12.5507   19.1727 H   0  0  0  0  0  0
  -30.3551  -11.4637   19.9559 H   0  0  0  0  0  0
  -29.7833  -11.7278   17.5167 H   0  0  0  0  0  0
  -29.6374  -13.4558   17.7206 H   0  0  0  0  0  0
  -27.8824  -11.2847   18.9075 H   0  0  0  0  0  0
  -27.3736  -12.5298   17.7982 H   0  0  0  0  0  0
  -27.6333  -14.2547   19.4705 H   0  0  0  0  0  0
  -28.7134  -12.1715   21.4307 H   0  0  0  0  0  0
  -28.4246  -13.8563   21.7909 H   0  0  0  0  0  0
  -25.2759   -9.5686   22.4767 H   0  0  0  0  0  0
  -24.0006   -7.4630   22.7470 H   0  0  0  0  0  0
  -21.0848   -8.8768   19.8947 H   0  0  0  0  0  0
  -22.3698  -10.9674   19.6170 H   0  0  0  0  0  0
  -21.2001   -7.6149   23.9719 H   0  0  0  0  0  0
  -21.1483   -6.0525   25.9080 H   0  0  0  0  0  0
  -22.0598   -2.7612   23.2846 H   0  0  0  0  0  0
  -22.4079  -11.9865   22.4806 H   0  0  0  0  0  0
  -21.1079  -13.1227   22.2637 H   0  0  0  0  0  0
  -24.6477  -15.8423   20.5230 H   0  0  0  0  0  0
  -26.2650  -15.6319   20.0840 H   0  0  0  0  0  0
  -26.7183  -32.5393   23.1043 H   0  0  0  0  0  0
  -25.0082  -33.9695   25.0384 H   0  0  0  0  0  0
  -22.7217  -31.2973   21.3909 H   0  0  0  0  0  0
  -23.3756  -35.9594   23.3299 H   0  0  0  0  0  0
  -24.3578  -36.8890   22.2054 H   0  0  0  0  0  0
  -23.7234  -37.6465   23.6667 H   0  0  0  0  0  0
  -26.1028  -31.5321   20.6011 H   0  0  0  0  0  0
  -26.8478  -30.8203   22.0011 H   0  0  0  0  0  0
  -28.1141  -28.9428   21.1843 H   0  0  0  0  0  0
  -25.9375  -25.8523   19.1047 H   0  0  0  0  0  0
  -23.9635  -27.2698   19.0457 H   0  0  0  0  0  0
  -23.7648  -30.5801   19.3989 H   0  0  0  0  0  0
  -22.7599  -29.2375   19.8527 H   0  0  0  0  0  0
  -25.1296  -36.1888   25.0813 H   0  0  0  0  0  0
  -20.9999  -28.3264   24.1384 H   0  0  0  0  0  0
  -20.5664  -26.2300   23.3607 H   0  0  0  0  0  0
  -21.6639  -26.7420   22.1206 H   0  0  0  0  0  0
  -19.6919  -25.6293   21.1241 H   0  0  0  0  0  0
  -19.6695  -27.3194   20.6745 H   0  0  0  0  0  0
  -17.4196  -26.6671   21.4037 H   0  0  0  0  0  0
  -18.0341  -26.0067   22.9026 H   0  0  0  0  0  0
  -19.7949  -30.7279   24.2257 H   0  0  0  0  0  0
  -17.5029  -31.6274   24.5166 H   0  0  0  0  0  0
  -15.5364  -30.3001   23.7662 H   0  0  0  0  0  0
  -15.8667  -28.0836   22.7068 H   0  0  0  0  0  0
  -24.5916  -30.7050   25.7756 H   0  0  0  0  0  0
  -24.8883  -32.2905   26.4801 H   0  0  0  0  0  0
  -25.8036  -30.8954   27.0226 H   0  0  0  0  0  0
  -26.2913  -29.6746   24.1196 H   0  0  0  0  0  0
  -27.4023  -29.7251   25.4684 H   0  0  0  0  0  0
  -27.8786  -30.4271   23.9403 H   0  0  0  0  0  0
  -27.2676  -33.3643   26.2003 H   0  0  0  0  0  0
  -28.3896  -32.6816   25.0321 H   0  0  0  0  0  0
  -28.0676  -31.8459   26.5438 H   0  0  0  0  0  0
  -28.2570  -38.0101   24.7529 H   0  0  0  0  0  0
  -28.1088  -36.2631   24.6259 H   0  0  0  0  0  0
  -27.2298  -37.1381   25.8867 H   0  0  0  0  0  0
  -20.9360  -29.8762   21.6873 H   0  0  0  0  0  0
  -26.0148  -38.2827   24.1457 H   0  0  0  0  0  0
  -28.8986  -24.4046   17.4725 H   0  0  0  0  0  0
  -28.5396  -26.1196   17.5555 H   0  0  0  0  0  0
  -27.2655  -24.9182   17.7875 H   0  0  0  0  0  0
  -31.1621  -17.3839   21.3565 H   0  0  0  0  0  0
  -31.0738  -17.2935   19.6428 H   0  0  0  0  0  0
  -29.7245  -25.1463   19.5293 H   0  0  0  0  0  0
  -29.8210  -22.8850   19.2491 H   0  0  0  0  0  0
  -28.9093  -15.7802   20.8606 H   0  0  0  0  0  0
  1 25  1  0  0  0
  1 30  2  0  0  0
  1 81  1  0  0  0
  2  3  1  0  0  0
  2 25  1  0  0  0
  2 87  1  0  0  0
  2 88  1  0  0  0
  3  4  1  0  0  0
  3 89  1  0  0  0
  3 90  1  0  0  0
  4  5  1  0  0  0
  4 91  1  0  0  0
  4 92  1  0  0  0
  5  6  1  0  0  0
  5 26  1  0  0  0
  5 93  1  0  0  0
  6 25  1  0  0  0
  6 94  1  0  0  0
  6 95  1  0  0  0
  7  8  2  0  0  0
  7 26  1  0  0  0
  7 29  1  0  0  0
  8  9  1  0  0  0
  8 22  1  0  0  0
  9 10  1  0  0  0
  9 27  2  0  0  0
 10 11  2  0  0  0
 10 15  1  0  0  0
 11 12  1  0  0  0
 11 96  1  0  0  0
 12 13  2  0  0  0
 12 97  1  0  0  0
 13 14  1  0  0  0
 13 31  1  0  0  0
 14 15  2  0  0  0
 14 98  1  0  0  0
 15 99  1  0  0  0
 16 17  2  0  0  0
 16 21  1  0  0  0
 16 31  1  0  0  0
 17 18  1  0  0  0
 17100  1  0  0  0
 18 19  2  0  0  0
 18101  1  0  0  0
 19 20  1  0  0  0
 19 24  1  0  0  0
 20 21  2  0  0  0
 20102  1  0  0  0
 21 23  1  0  0  0
 22 28  1  0  0  0
 22 32  2  0  0  0
 26 27  1  0  0  0
 28103  1  0  0  0
 28104  1  0  0  0
 29105  1  0  0  0
 29106  1  0  0  0
 33 34  1  0  0  0
 33 66  1  0  0  0
 33 70  2  0  0  0
 34 36  1  0  0  0
 34 59  1  0  0  0
 34107  1  0  0  0
 35 44  2  0  0  0
 35 45  1  0  0  0
 35 68  1  0  0  0
 36 56  1  0  0  0
 36108  1  0  0  0
 37 39  1  0  0  0
 37 47  1  0  0  0
 37 66  1  0  0  0
 37109  1  0  0  0
 38 43  2  0  0  0
 38 46  1  0  0  0
 38 47  1  0  0  0
 39 64  1  0  0  0
 39 67  2  0  0  0
 40 52  1  0  0  0
 40 53  2  0  0  0
 40 58  1  0  0  0
 41110  1  0  0  0
 41111  1  0  0  0
 41112  1  0  0  0
 41 48  1  0  0  0
 42 43  1  0  0  0
 42 66  1  0  0  0
 42113  1  0  0  0
 42114  1  0  0  0
 43 44  1  0  0  0
 44115  1  0  0  0
 45 46  2  0  0  0
 45116  1  0  0  0
 46117  1  0  0  0
 47118  1  0  0  0
 47119  1  0  0  0
 48 56  1  0  0  0
 48 65  1  0  0  0
 48120  1  0  0  0
 49 50  1  0  0  0
 49 53  1  0  0  0
 49 64  1  0  0  0
 49121  1  0  0  0
 50 51  1  0  0  0
 50122  1  0  0  0
 50123  1  0  0  0
 51 52  1  0  0  0
 51124  1  0  0  0
 51125  1  0  0  0
 52126  1  0  0  0
 52127  1  0  0  0
 53 54  1  0  0  0
 54 55  2  0  0  0
 54128  1  0  0  0
 55 57  1  0  0  0
 55129  1  0  0  0
 56 69  2  0  0  0
 57 58  2  0  0  0
 57130  1  0  0  0
 58131  1  0  0  0
 59 60  1  0  0  0
 59 61  1  0  0  0
 59 62  1  0  0  0
 60132  1  0  0  0
 60133  1  0  0  0
 60134  1  0  0  0
 61135  1  0  0  0
 61136  1  0  0  0
 61137  1  0  0  0
 62138  1  0  0  0
 62139  1  0  0  0
 62140  1  0  0  0
 63 65  1  0  0  0
 63141  1  0  0  0
 63142  1  0  0  0
 63143  1  0  0  0
 64144  1  0  0  0
 65145  1  0  0  0
 68 77  1  0  0  0
 71 72  2  0  0  0
 71 78  1  0  0  0
 71 79  1  0  0  0
 72 76  1  0  0  0
 72 86  1  0  0  0
 73 79  2  0  0  0
 73 80  1  0  0  0
 73 86  1  0  0  0
 74 77  1  0  0  0
 74 80  1  0  0  0
 74 82  2  0  0  0
 75146  1  0  0  0
 75147  1  0  0  0
 75148  1  0  0  0
 75 77  1  0  0  0
 76 81  1  0  0  0
 76149  1  0  0  0
 76150  1  0  0  0
 77151  1  0  0  0
 78 83  1  0  0  0
 78 84  1  0  0  0
 78 85  1  0  0  0
 80152  1  0  0  0
 81153  1  0  0  0
M  ISO  4   1 100  68 101  77 101  81 100
M  END
> <chiral flag>
0

> <version>
0

> <s_m_source_file>
/data/baiqing/PycharmProjects/Reinvent-master-3.2/result/LINK_invent/BTK/process_docking_weight1_custom_product_contain_oxygen_bond_distance_aromatic_linkinvent_7_9_3/rearranged_h_0187.sdf

> <i_m_source_file_index>
73

> <r_mmod_Potential_Energy-OPLS-2005>
102.144386291504

> <r_mmod_Stretch_Energy-OPLS-2005>
110.314468383789

> <r_mmod_Bend_Energy-OPLS-2005>
223.740097045898

> <r_mmod_Torsional_Energy-OPLS-2005>
202.622421264648

> <r_mmod_Improper_Torsional_Energy-OPLS-2005>
5.22371959686279

> <r_mmod_Van_der_Waal_Energy-OPLS-2005>
112.483734130859

> <r_mmod_Electrostatic_Energy-OPLS-2005>
-382.180541992188

> <r_mmod_Solvation_Energy-OPLS-2005>
-245.377029418945

> <b_mmod_Minimization_Converged-OPLS-2005>
0

> <r_mmod_RMS_Derivative-OPLS-2005>
1.04899430274963

$$$$
75
                    3D
 Structure written by MMmdl.
169177  0  0  1  0            999 V2000
  -30.8003  -14.3426   20.6934 C   0  0  0  0  0  0
  -30.4076  -12.2884   19.3905 C   0  0  0  0  0  0
  -29.4769  -12.5283   18.1898 C   0  0  0  0  0  0
  -28.0044  -12.3820   18.6123 C   0  0  0  0  0  0
  -27.6652  -13.2071   19.8815 C   0  0  2  0  0  0
  -28.7051  -12.9635   20.9973 C   0  0  0  0  0  0
  -25.2599  -13.8174   20.5691 C   0  0  0  0  0  0
  -24.1843  -13.0443   20.9173 C   0  0  0  0  0  0
  -24.6394  -11.6913   20.8734 C   0  0  0  0  0  0
  -23.9057  -10.4297   21.0404 C   0  0  0  0  0  0
  -24.3606   -9.4216   21.9185 C   0  0  0  0  0  0
  -23.6287   -8.2249   22.0756 C   0  0  0  0  0  0
  -22.4275   -8.0279   21.3543 C   0  0  0  0  0  0
  -21.9910   -9.0254   20.4643 C   0  0  0  0  0  0
  -22.7233  -10.2137   20.3052 C   0  0  0  0  0  0
  -21.6855   -6.0733   22.5281 C   0  0  0  0  0  0
  -21.4014   -6.5638   23.8211 C   0  0  0  0  0  0
  -21.3662   -5.6790   24.9177 C   0  0  0  0  0  0
  -21.6045   -4.3055   24.7226 C   0  0  0  0  0  0
  -21.8821   -3.8146   23.4346 C   0  0  0  0  0  0
  -21.9193   -4.6962   22.3402 C   0  0  0  0  0  0
  -22.7865  -13.5244   21.1842 C   0  0  0  0  0  0
  -22.1662   -4.2147   21.0983 F   0  0  0  0  0  0
  -21.5630   -3.4538   25.7740 F   0  0  0  0  0  0
  -30.0488  -13.2381   20.4534 N   0  0  0  0  0  0
  -26.3043  -12.9347   20.3408 N   0  0  0  0  0  0
  -25.9322  -11.6501   20.5769 N   0  0  0  0  0  0
  -22.0504  -12.8230   22.0396 N   0  0  0  0  0  0
  -25.4328  -15.1886   20.4103 N   0  0  0  0  0  0
  -31.8059  -14.6351   20.0418 O   0  0  0  0  0  0
  -21.6640   -6.8875   21.4241 O   0  0  0  0  0  0
  -22.3554  -14.5558   20.6703 O   0  0  0  0  0  0
  -24.6147  -31.8696   23.2141 C   0  0  0  0  0  0
  -25.9045  -32.4829   23.8425 C   0  0  1  0  0  0
  -27.2286  -27.4437   20.0803 C   0  0  0  0  0  0
  -25.5908  -33.8630   24.2345 N   0  0  0  0  0  0
  -23.4006  -30.4976   21.5567 C   0  0  2  0  0  0
  -24.8419  -28.9708   20.1151 C   0  0  0  0  0  0
  -22.7407  -29.4680   22.5017 C   0  0  0  0  0  0
  -18.0266  -28.1389   22.8505 C   0  0  0  0  0  0
  -24.1482  -36.7313   23.2646 C   0  0  0  0  0  0
  -25.9308  -30.8367   21.3672 C   0  0  0  0  0  0
  -26.0051  -29.4744   20.7105 C   0  0  0  0  0  0
  -27.1996  -28.7175   20.6926 C   0  0  0  0  0  0
  -26.0412  -26.9618   19.4730 C   0  0  0  0  0  0
  -24.8542  -27.7112   19.4978 C   0  0  0  0  0  0
  -23.6052  -29.8368   20.1694 C   0  0  0  0  0  0
  -25.4101  -36.3115   24.0348 C   0  0  1  0  0  0
  -20.5860  -28.3674   23.1330 C   0  0  2  0  0  0
  -20.6760  -26.9412   22.5427 C   0  0  0  0  0  0
  -19.5732  -26.6401   21.5226 C   0  0  0  0  0  0
  -18.1908  -26.7937   22.1631 C   0  0  0  0  0  0
  -19.1517  -28.8847   23.2913 C   0  0  0  0  0  0
  -18.9441  -30.1454   23.8920 C   0  0  0  0  0  0
  -17.6445  -30.6596   24.0577 C   0  0  0  0  0  0
  -25.9033  -34.9481   23.5141 C   0  0  0  0  0  0
  -16.5334  -29.9099   23.6342 C   0  0  0  0  0  0
  -16.7255  -28.6516   23.0359 C   0  0  0  0  0  0
  -26.4492  -31.6613   25.0751 C   0  0  0  0  0  0
  -25.3768  -31.3661   26.1497 C   0  0  0  0  0  0
  -27.0367  -30.3081   24.6112 C   0  0  0  0  0  0
  -27.6055  -32.4350   25.7513 C   0  0  0  0  0  0
  -27.5585  -37.1797   24.8464 C   0  0  0  0  0  0
  -21.4137  -29.3041   22.3746 N   0  0  0  0  0  0
  -26.4284  -37.3810   23.9432 N   0  0  0  0  0  0
  -24.6677  -31.0812   22.1043 N   0  0  0  0  0  0
  -23.4187  -28.8212   23.3044 O   0  0  0  0  0  0
  -28.4020  -26.7105   20.0992 O   0  0  0  0  0  0
  -26.5590  -34.8926   22.4701 O   0  0  0  0  0  0
  -23.5342  -32.1451   23.7542 O   0  0  0  0  0  0
  -32.2115  -18.1287   21.2554 C   0  0  0  0  0  0
  -31.1963  -17.4065   21.8504 C   0  0  0  0  0  0
  -30.5209  -19.6372   21.0485 C   0  0  0  0  0  0
  -30.3264  -21.9877   20.2012 C   0  0  0  0  0  0
  -33.6326  -17.7063   21.0238 C   0  0  0  0  0  0
  -32.9370  -17.2754   24.9682 C   0  0  0  0  0  0
  -31.4444  -14.5957   24.5764 C   0  0  0  0  0  0
  -29.2653  -23.0006   19.7605 C   0  0  0  0  0  0
  -31.4126  -17.1308   24.8419 C   0  0  0  0  0  0
  -28.2855  -25.3178   19.7847 C   0  0  0  0  0  0
  -31.2728  -16.0272   22.4627 C   0  0  1  0  0  0
  -29.4903  -24.4627   20.2109 C   0  0  1  0  0  0
  -30.9389  -15.9279   23.9872 C   0  0  1  0  0  0
  -31.8162  -19.3991   20.8207 N   0  0  0  0  0  0
  -29.8453  -20.8250   20.6765 N   0  0  0  0  0  0
  -30.4441  -15.0533   21.7617 N   0  0  0  0  0  0
  -31.5245  -22.2641   20.0891 O   0  0  0  0  0  0
  -29.5253  -15.8658   24.1139 O   0  0  0  0  0  0
  -29.6106  -24.5167   21.5412 F   0  0  0  0  0  0
  -29.6852  -18.2900   21.8003 S   0  0  0  0  0  0
  -31.4512  -12.3772   19.0839 H   0  0  0  0  0  0
  -30.2951  -11.2680   19.7599 H   0  0  0  0  0  0
  -29.7069  -11.8257   17.3879 H   0  0  0  0  0  0
  -29.6471  -13.5264   17.7822 H   0  0  0  0  0  0
  -27.8144  -11.3237   18.7949 H   0  0  0  0  0  0
  -27.3474  -12.6714   17.7914 H   0  0  0  0  0  0
  -27.7208  -14.2605   19.6053 H   0  0  0  0  0  0
  -28.6619  -11.9280   21.3379 H   0  0  0  0  0  0
  -28.4567  -13.5670   21.8707 H   0  0  0  0  0  0
  -25.2749   -9.5703   22.4764 H   0  0  0  0  0  0
  -24.0001   -7.4647   22.7479 H   0  0  0  0  0  0
  -21.0845   -8.8767   19.8942 H   0  0  0  0  0  0
  -22.3689  -10.9672   19.6160 H   0  0  0  0  0  0
  -21.2004   -7.6148   23.9716 H   0  0  0  0  0  0
  -21.1484   -6.0522   25.9081 H   0  0  0  0  0  0
  -22.0598   -2.7608   23.2849 H   0  0  0  0  0  0
  -22.4105  -11.9865   22.4750 H   0  0  0  0  0  0
  -21.1125  -13.1261   22.2608 H   0  0  0  0  0  0
  -24.6740  -15.8511   20.5273 H   0  0  0  0  0  0
  -26.3008  -15.6257   20.1260 H   0  0  0  0  0  0
  -26.7109  -32.5553   23.1185 H   0  0  0  0  0  0
  -25.0072  -33.9795   25.0499 H   0  0  0  0  0  0
  -22.6880  -31.3144   21.4225 H   0  0  0  0  0  0
  -23.3768  -35.9623   23.3276 H   0  0  0  0  0  0
  -24.3576  -36.8969   22.2068 H   0  0  0  0  0  0
  -23.7199  -37.6489   23.6686 H   0  0  0  0  0  0
  -26.0430  -31.6027   20.5993 H   0  0  0  0  0  0
  -26.8196  -30.8864   21.9843 H   0  0  0  0  0  0
  -28.0973  -29.1031   21.1561 H   0  0  0  0  0  0
  -25.9990  -26.0087   18.9661 H   0  0  0  0  0  0
  -23.9614  -27.3173   19.0321 H   0  0  0  0  0  0
  -23.7121  -30.6158   19.4134 H   0  0  0  0  0  0
  -22.7276  -29.2587   19.8743 H   0  0  0  0  0  0
  -25.1266  -36.1980   25.0840 H   0  0  0  0  0  0
  -20.9938  -28.3244   24.1456 H   0  0  0  0  0  0
  -20.5688  -26.2272   23.3611 H   0  0  0  0  0  0
  -21.6625  -26.7480   22.1199 H   0  0  0  0  0  0
  -19.6894  -25.6320   21.1235 H   0  0  0  0  0  0
  -19.6676  -27.3233   20.6773 H   0  0  0  0  0  0
  -17.4188  -26.6715   21.4026 H   0  0  0  0  0  0
  -18.0279  -26.0080   22.9018 H   0  0  0  0  0  0
  -19.7916  -30.7274   24.2293 H   0  0  0  0  0  0
  -17.5004  -31.6273   24.5184 H   0  0  0  0  0  0
  -15.5334  -30.3006   23.7677 H   0  0  0  0  0  0
  -15.8646  -28.0854   22.7055 H   0  0  0  0  0  0
  -24.5945  -30.7009   25.7822 H   0  0  0  0  0  0
  -24.8949  -32.2784   26.5012 H   0  0  0  0  0  0
  -25.8137  -30.8785   27.0219 H   0  0  0  0  0  0
  -26.2917  -29.6773   24.1246 H   0  0  0  0  0  0
  -27.4268  -29.7369   25.4547 H   0  0  0  0  0  0
  -27.8680  -30.4446   23.9193 H   0  0  0  0  0  0
  -27.2673  -33.3659   26.2074 H   0  0  0  0  0  0
  -28.3864  -32.6893   25.0335 H   0  0  0  0  0  0
  -28.0726  -31.8495   26.5440 H   0  0  0  0  0  0
  -28.2558  -38.0141   24.7597 H   0  0  0  0  0  0
  -28.1127  -36.2677   24.6188 H   0  0  0  0  0  0
  -27.2313  -37.1324   25.8866 H   0  0  0  0  0  0
  -20.9292  -29.8762   21.6971 H   0  0  0  0  0  0
  -26.0174  -38.2878   24.1488 H   0  0  0  0  0  0
  -33.6953  -16.6659   20.7059 H   0  0  0  0  0  0
  -34.2377  -17.8180   21.9219 H   0  0  0  0  0  0
  -34.1055  -18.3027   20.2428 H   0  0  0  0  0  0
  -33.1918  -18.1793   25.5218 H   0  0  0  0  0  0
  -33.4174  -17.3405   23.9949 H   0  0  0  0  0  0
  -33.3781  -16.4353   25.5042 H   0  0  0  0  0  0
  -32.5244  -14.4963   24.4654 H   0  0  0  0  0  0
  -30.9963  -13.7334   24.0806 H   0  0  0  0  0  0
  -31.2195  -14.5134   25.6403 H   0  0  0  0  0  0
  -28.2909  -22.6673   20.1199 H   0  0  0  0  0  0
  -29.2087  -22.9627   18.6724 H   0  0  0  0  0  0
  -31.0018  -18.0605   24.4484 H   0  0  0  0  0  0
  -31.0058  -17.0438   25.8504 H   0  0  0  0  0  0
  -27.4088  -24.8942   20.2790 H   0  0  0  0  0  0
  -28.1398  -25.2161   18.7080 H   0  0  0  0  0  0
  -32.3108  -15.7004   22.3719 H   0  0  0  0  0  0
  -30.4127  -24.8568   19.7827 H   0  0  0  0  0  0
  -28.8405  -20.7809   20.7689 H   0  0  0  0  0  0
  -29.6181  -14.7855   22.2790 H   0  0  0  0  0  0
  -29.3162  -15.8077   25.0386 H   0  0  0  0  0  0
  1 25  1  0  0  0
  1 30  2  0  0  0
  1 86  1  0  0  0
  2  3  1  0  0  0
  2 25  1  0  0  0
  2 91  1  0  0  0
  2 92  1  0  0  0
  3  4  1  0  0  0
  3 93  1  0  0  0
  3 94  1  0  0  0
  4  5  1  0  0  0
  4 95  1  0  0  0
  4 96  1  0  0  0
  5  6  1  0  0  0
  5 26  1  0  0  0
  5 97  1  0  0  0
  6 25  1  0  0  0
  6 98  1  0  0  0
  6 99  1  0  0  0
  7  8  2  0  0  0
  7 26  1  0  0  0
  7 29  1  0  0  0
  8  9  1  0  0  0
  8 22  1  0  0  0
  9 10  1  0  0  0
  9 27  2  0  0  0
 10 11  2  0  0  0
 10 15  1  0  0  0
 11 12  1  0  0  0
 11100  1  0  0  0
 12 13  2  0  0  0
 12101  1  0  0  0
 13 14  1  0  0  0
 13 31  1  0  0  0
 14 15  2  0  0  0
 14102  1  0  0  0
 15103  1  0  0  0
 16 17  2  0  0  0
 16 21  1  0  0  0
 16 31  1  0  0  0
 17 18  1  0  0  0
 17104  1  0  0  0
 18 19  2  0  0  0
 18105  1  0  0  0
 19 20  1  0  0  0
 19 24  1  0  0  0
 20 21  2  0  0  0
 20106  1  0  0  0
 21 23  1  0  0  0
 22 28  1  0  0  0
 22 32  2  0  0  0
 26 27  1  0  0  0
 28107  1  0  0  0
 28108  1  0  0  0
 29109  1  0  0  0
 29110  1  0  0  0
 33 34  1  0  0  0
 33 66  1  0  0  0
 33 70  2  0  0  0
 34 36  1  0  0  0
 34 59  1  0  0  0
 34111  1  0  0  0
 35 44  2  0  0  0
 35 45  1  0  0  0
 35 68  1  0  0  0
 36 56  1  0  0  0
 36112  1  0  0  0
 37 39  1  0  0  0
 37 47  1  0  0  0
 37 66  1  0  0  0
 37113  1  0  0  0
 38 43  2  0  0  0
 38 46  1  0  0  0
 38 47  1  0  0  0
 39 64  1  0  0  0
 39 67  2  0  0  0
 40 52  1  0  0  0
 40 53  2  0  0  0
 40 58  1  0  0  0
 41114  1  0  0  0
 41115  1  0  0  0
 41116  1  0  0  0
 41 48  1  0  0  0
 42 43  1  0  0  0
 42 66  1  0  0  0
 42117  1  0  0  0
 42118  1  0  0  0
 43 44  1  0  0  0
 44119  1  0  0  0
 45 46  2  0  0  0
 45120  1  0  0  0
 46121  1  0  0  0
 47122  1  0  0  0
 47123  1  0  0  0
 48 56  1  0  0  0
 48 65  1  0  0  0
 48124  1  0  0  0
 49 50  1  0  0  0
 49 53  1  0  0  0
 49 64  1  0  0  0
 49125  1  0  0  0
 50 51  1  0  0  0
 50126  1  0  0  0
 50127  1  0  0  0
 51 52  1  0  0  0
 51128  1  0  0  0
 51129  1  0  0  0
 52130  1  0  0  0
 52131  1  0  0  0
 53 54  1  0  0  0
 54 55  2  0  0  0
 54132  1  0  0  0
 55 57  1  0  0  0
 55133  1  0  0  0
 56 69  2  0  0  0
 57 58  2  0  0  0
 57134  1  0  0  0
 58135  1  0  0  0
 59 60  1  0  0  0
 59 61  1  0  0  0
 59 62  1  0  0  0
 60136  1  0  0  0
 60137  1  0  0  0
 60138  1  0  0  0
 61139  1  0  0  0
 61140  1  0  0  0
 61141  1  0  0  0
 62142  1  0  0  0
 62143  1  0  0  0
 62144  1  0  0  0
 63 65  1  0  0  0
 63145  1  0  0  0
 63146  1  0  0  0
 63147  1  0  0  0
 64148  1  0  0  0
 65149  1  0  0  0
 68 80  1  0  0  0
 71 72  2  0  0  0
 71 75  1  0  0  0
 71 84  1  0  0  0
 72 81  1  0  0  0
 72 90  1  0  0  0
 73 84  2  0  0  0
 73 85  1  0  0  0
 73 90  1  0  0  0
 74 78  1  0  0  0
 74 85  1  0  0  0
 74 87  2  0  0  0
 75150  1  0  0  0
 75151  1  0  0  0
 75152  1  0  0  0
 76 79  1  0  0  0
 76153  1  0  0  0
 76154  1  0  0  0
 76155  1  0  0  0
 77156  1  0  0  0
 77157  1  0  0  0
 77158  1  0  0  0
 77 83  1  0  0  0
 78 82  1  0  0  0
 78159  1  0  0  0
 78160  1  0  0  0
 79 83  1  0  0  0
 79161  1  0  0  0
 79162  1  0  0  0
 80 82  1  0  0  0
 80163  1  0  0  0
 80164  1  0  0  0
 81 83  1  0  0  0
 81 86  1  0  0  0
 81165  1  0  0  0
 82 89  1  0  0  0
 82166  1  0  0  0
 83 88  1  0  0  0
 85167  1  0  0  0
 86168  1  0  0  0
 88169  1  0  0  0
M  ISO  4   1 100  68 101  80 101  86 100
M  END
> <chiral flag>
0

> <version>
0

> <s_m_source_file>
/data/baiqing/PycharmProjects/Reinvent-master-3.2/result/LINK_invent/BTK/process_docking_weight1_custom_product_contain_oxygen_bond_distance_aromatic_linkinvent_7_9_3/rearranged_h_0187.sdf

> <i_m_source_file_index>
74

> <r_mmod_Potential_Energy-OPLS-2005>
-364.705017089844

> <r_mmod_Stretch_Energy-OPLS-2005>
34.6012802124023

> <r_mmod_Bend_Energy-OPLS-2005>
109.701560974121

> <r_mmod_Torsional_Energy-OPLS-2005>
190.648300170898

> <r_mmod_Improper_Torsional_Energy-OPLS-2005>
2.74616432189941

> <r_mmod_Van_der_Waal_Energy-OPLS-2005>
141.726837158203

> <r_mmod_Electrostatic_Energy-OPLS-2005>
-606.149658203125

> <r_mmod_Solvation_Energy-OPLS-2005>
-246.750305175781

> <b_mmod_Minimization_Converged-OPLS-2005>
0

> <r_mmod_RMS_Derivative-OPLS-2005>
1.12959778308868

$$$$
76
                    3D
 Structure written by MMmdl.
149157  0  0  1  0            999 V2000
  -30.3060  -15.7089   20.3229 C   0  0  0  0  0  0
  -30.4229  -13.1298   19.5648 C   0  0  0  0  0  0
  -29.5625  -12.6853   18.3450 C   0  0  0  0  0  0
  -28.1379  -12.3154   18.7797 C   0  0  0  0  0  0
  -27.5979  -13.3223   19.8191 C   0  0  2  0  0  0
  -28.6058  -13.6867   20.9388 C   0  0  0  0  0  0
  -25.2317  -13.8310   20.5815 C   0  0  0  0  0  0
  -24.1721  -13.0445   20.9301 C   0  0  0  0  0  0
  -24.6428  -11.6961   20.8745 C   0  0  0  0  0  0
  -23.9131  -10.4302   21.0366 C   0  0  0  0  0  0
  -24.3658   -9.4216   21.9157 C   0  0  0  0  0  0
  -23.6321   -8.2245   22.0745 C   0  0  0  0  0  0
  -22.4301   -8.0279   21.3539 C   0  0  0  0  0  0
  -21.9943   -9.0258   20.4642 C   0  0  0  0  0  0
  -22.7278  -10.2131   20.3041 C   0  0  0  0  0  0
  -21.6859   -6.0742   22.5284 C   0  0  0  0  0  0
  -21.4008   -6.5642   23.8214 C   0  0  0  0  0  0
  -21.3658   -5.6781   24.9175 C   0  0  0  0  0  0
  -21.6044   -4.3047   24.7222 C   0  0  0  0  0  0
  -21.8820   -3.8149   23.4343 C   0  0  0  0  0  0
  -21.9199   -4.6970   22.3399 C   0  0  0  0  0  0
  -22.7727  -13.5176   21.1914 C   0  0  0  0  0  0
  -22.1669   -4.2151   21.0975 F   0  0  0  0  0  0
  -21.5632   -3.4530   25.7737 F   0  0  0  0  0  0
  -29.7801  -14.3287   20.2930 N   0  0  0  0  0  0
  -26.2795  -12.9673   20.3262 N   0  0  0  0  0  0
  -25.9384  -11.6726   20.5678 N   0  0  0  0  0  0
  -22.0381  -12.8167   22.0470 N   0  0  0  0  0  0
  -25.3856  -15.2054   20.4266 N   0  0  0  0  0  0
  -31.5355  -15.6014   20.1336 O   0  0  0  0  0  0
  -21.6650   -6.8887   21.4243 O   0  0  0  0  0  0
  -22.3400  -14.5458   20.6721 O   0  0  0  0  0  0
  -24.6878  -31.7935   23.1499 C   0  0  0  0  0  0
  -25.9440  -32.4426   23.8055 C   0  0  1  0  0  0
  -27.2369  -26.6522   20.2285 C   0  0  0  0  0  0
  -25.6014  -33.8257   24.1935 N   0  0  0  0  0  0
  -23.5179  -30.3928   21.5003 C   0  0  2  0  0  0
  -24.9795  -28.7244   20.1128 C   0  0  0  0  0  0
  -22.7781  -29.4286   22.4673 C   0  0  0  0  0  0
  -18.0339  -28.1409   22.8461 C   0  0  0  0  0  0
  -24.1471  -36.7087   23.2661 C   0  0  0  0  0  0
  -26.1000  -30.5083   21.4277 C   0  0  0  0  0  0
  -26.1640  -29.0689   20.7736 C   0  0  0  0  0  0
  -27.2686  -28.0625   20.8001 C   0  0  0  0  0  0
  -26.0245  -26.5294   19.4986 C   0  0  0  0  0  0
  -24.9525  -27.4805   19.4519 C   0  0  0  0  0  0
  -23.7781  -29.6874   20.1347 C   0  0  0  0  0  0
  -25.4137  -36.2857   24.0285 C   0  0  1  0  0  0
  -20.5984  -28.3774   23.1121 C   0  0  2  0  0  0
  -20.6798  -26.9425   22.5387 C   0  0  0  0  0  0
  -19.5773  -26.6359   21.5204 C   0  0  0  0  0  0
  -18.1957  -26.7943   22.1611 C   0  0  0  0  0  0
  -19.1612  -28.8919   23.2775 C   0  0  0  0  0  0
  -18.9525  -30.1506   23.8812 C   0  0  0  0  0  0
  -17.6520  -30.6600   24.0545 C   0  0  0  0  0  0
  -25.9131  -34.9256   23.4948 C   0  0  0  0  0  0
  -16.5405  -29.9082   23.6359 C   0  0  0  0  0  0
  -16.7319  -28.6498   23.0380 C   0  0  0  0  0  0
  -26.4608  -31.6502   25.0714 C   0  0  0  0  0  0
  -25.3673  -31.3848   26.1334 C   0  0  0  0  0  0
  -27.0592  -30.2831   24.6732 C   0  0  0  0  0  0
  -27.6023  -32.4405   25.7535 C   0  0  0  0  0  0
  -27.5540  -37.1710   24.8481 C   0  0  0  0  0  0
  -21.4422  -29.3012   22.3424 N   0  0  0  0  0  0
  -26.4243  -37.3634   23.9424 N   0  0  0  0  0  0
  -24.7912  -30.9341   22.0766 N   0  0  0  0  0  0
  -23.4187  -28.7910   23.3059 O   0  0  0  0  0  0
  -28.1991  -25.4221   20.3812 O   0  0  0  0  0  0
  -26.5768  -34.8848   22.4561 O   0  0  0  0  0  0
  -23.5880  -32.1029   23.6427 O   0  0  0  0  0  0
  -30.4567  -20.7818   19.3211 C   0  0  0  0  0  0
  -29.8600  -18.7767   20.0266 C   0  0  0  0  0  0
  -27.1080  -21.3323   20.7859 C   0  0  0  0  0  0
  -29.1092  -22.0923   22.0278 C   0  0  0  0  0  0
  -28.3281  -23.6855   19.9519 C   0  0  0  0  0  0
  -28.5509  -21.8300   20.6193 C   0  0  0  0  0  0
  -31.3331  -19.9175   18.8216 N   0  0  0  0  0  0
  -30.9598  -18.6811   19.2610 N   0  0  0  0  0  0
  -29.4408  -20.3454   20.0884 N   0  0  0  0  0  0
  -29.5901  -17.1180   20.4351 N   0  0  0  0  0  0
  -31.4169  -13.3885   19.1981 H   0  0  0  0  0  0
  -30.5867  -12.2927   20.2466 H   0  0  0  0  0  0
  -30.0334  -11.8457   17.8298 H   0  0  0  0  0  0
  -29.5191  -13.5042   17.6251 H   0  0  0  0  0  0
  -28.1689  -11.3191   19.2200 H   0  0  0  0  0  0
  -27.4772  -12.2534   17.9147 H   0  0  0  0  0  0
  -27.4522  -14.2378   19.2445 H   0  0  0  0  0  0
  -28.8757  -12.8174   21.5406 H   0  0  0  0  0  0
  -28.1569  -14.4018   21.6289 H   0  0  0  0  0  0
  -25.2799   -9.5690   22.4744 H   0  0  0  0  0  0
  -24.0020   -7.4643   22.7481 H   0  0  0  0  0  0
  -21.0862   -8.8785   19.8965 H   0  0  0  0  0  0
  -22.3720  -10.9670   19.6154 H   0  0  0  0  0  0
  -21.1985   -7.6147   23.9719 H   0  0  0  0  0  0
  -21.1474   -6.0517   25.9077 H   0  0  0  0  0  0
  -22.0600   -2.7617   23.2847 H   0  0  0  0  0  0
  -22.4012  -11.9851   22.4886 H   0  0  0  0  0  0
  -21.0971  -13.1146   22.2602 H   0  0  0  0  0  0
  -24.6060  -15.8453   20.5413 H   0  0  0  0  0  0
  -26.2166  -15.6530   20.0651 H   0  0  0  0  0  0
  -26.7529  -32.4869   23.0767 H   0  0  0  0  0  0
  -25.0111  -33.9280   25.0064 H   0  0  0  0  0  0
  -22.8475  -31.2321   21.3061 H   0  0  0  0  0  0
  -23.3767  -35.9379   23.3301 H   0  0  0  0  0  0
  -24.3529  -36.8768   22.2075 H   0  0  0  0  0  0
  -23.7186  -37.6238   23.6765 H   0  0  0  0  0  0
  -26.3299  -31.2370   20.6489 H   0  0  0  0  0  0
  -26.9402  -30.5627   22.1076 H   0  0  0  0  0  0
  -28.1534  -28.3386   21.3582 H   0  0  0  0  0  0
  -25.8563  -25.5891   18.9930 H   0  0  0  0  0  0
  -24.0638  -27.2078   18.8997 H   0  0  0  0  0  0
  -23.9568  -30.4501   19.3748 H   0  0  0  0  0  0
  -22.8830  -29.1564   19.8067 H   0  0  0  0  0  0
  -25.1356  -36.1598   25.0773 H   0  0  0  0  0  0
  -21.0082  -28.3401   24.1248 H   0  0  0  0  0  0
  -20.5612  -26.2421   23.3662 H   0  0  0  0  0  0
  -21.6669  -26.7317   22.1248 H   0  0  0  0  0  0
  -19.6912  -25.6247   21.1293 H   0  0  0  0  0  0
  -19.6717  -27.3130   20.6705 H   0  0  0  0  0  0
  -17.4227  -26.6697   21.4008 H   0  0  0  0  0  0
  -18.0327  -26.0091   22.9009 H   0  0  0  0  0  0
  -19.8000  -30.7340   24.2139 H   0  0  0  0  0  0
  -17.5068  -31.6273   24.5156 H   0  0  0  0  0  0
  -15.5401  -30.2956   23.7733 H   0  0  0  0  0  0
  -15.8716  -28.0784   22.7155 H   0  0  0  0  0  0
  -24.5869  -30.7184   25.7662 H   0  0  0  0  0  0
  -24.8846  -32.3073   26.4554 H   0  0  0  0  0  0
  -25.7838  -30.9146   27.0252 H   0  0  0  0  0  0
  -26.3365  -29.6376   24.1740 H   0  0  0  0  0  0
  -27.3983  -29.7356   25.5541 H   0  0  0  0  0  0
  -27.9345  -30.3927   24.0333 H   0  0  0  0  0  0
  -27.2539  -33.3783   26.1875 H   0  0  0  0  0  0
  -28.3954  -32.6854   25.0462 H   0  0  0  0  0  0
  -28.0585  -31.8711   26.5640 H   0  0  0  0  0  0
  -28.2560  -38.0004   24.7529 H   0  0  0  0  0  0
  -28.1027  -36.2532   24.6317 H   0  0  0  0  0  0
  -27.2263  -37.1373   25.8885 H   0  0  0  0  0  0
  -20.9727  -29.8622   21.6457 H   0  0  0  0  0  0
  -26.0050  -38.2666   24.1458 H   0  0  0  0  0  0
  -30.5868  -21.8369   19.1279 H   0  0  0  0  0  0
  -26.4769  -22.0668   21.2882 H   0  0  0  0  0  0
  -27.0678  -20.4124   21.3691 H   0  0  0  0  0  0
  -26.6656  -21.1237   19.8125 H   0  0  0  0  0  0
  -28.5195  -22.8398   22.5613 H   0  0  0  0  0  0
  -30.1332  -22.4634   21.9835 H   0  0  0  0  0  0
  -29.1100  -21.1860   22.6333 H   0  0  0  0  0  0
  -27.5378  -23.5867   19.2076 H   0  0  0  0  0  0
  -29.2168  -23.7653   19.3272 H   0  0  0  0  0  0
  -28.6506  -16.9846   20.7750 H   0  0  0  0  0  0
  1 25  1  0  0  0
  1 30  2  0  0  0
  1 80  1  0  0  0
  2  3  1  0  0  0
  2 25  1  0  0  0
  2 81  1  0  0  0
  2 82  1  0  0  0
  3  4  1  0  0  0
  3 83  1  0  0  0
  3 84  1  0  0  0
  4  5  1  0  0  0
  4 85  1  0  0  0
  4 86  1  0  0  0
  5  6  1  0  0  0
  5 26  1  0  0  0
  5 87  1  0  0  0
  6 25  1  0  0  0
  6 88  1  0  0  0
  6 89  1  0  0  0
  7  8  2  0  0  0
  7 26  1  0  0  0
  7 29  1  0  0  0
  8  9  1  0  0  0
  8 22  1  0  0  0
  9 10  1  0  0  0
  9 27  2  0  0  0
 10 11  2  0  0  0
 10 15  1  0  0  0
 11 12  1  0  0  0
 11 90  1  0  0  0
 12 13  2  0  0  0
 12 91  1  0  0  0
 13 14  1  0  0  0
 13 31  1  0  0  0
 14 15  2  0  0  0
 14 92  1  0  0  0
 15 93  1  0  0  0
 16 17  2  0  0  0
 16 21  1  0  0  0
 16 31  1  0  0  0
 17 18  1  0  0  0
 17 94  1  0  0  0
 18 19  2  0  0  0
 18 95  1  0  0  0
 19 20  1  0  0  0
 19 24  1  0  0  0
 20 21  2  0  0  0
 20 96  1  0  0  0
 21 23  1  0  0  0
 22 28  1  0  0  0
 22 32  2  0  0  0
 26 27  1  0  0  0
 28 97  1  0  0  0
 28 98  1  0  0  0
 29 99  1  0  0  0
 29100  1  0  0  0
 33 34  1  0  0  0
 33 66  1  0  0  0
 33 70  2  0  0  0
 34 36  1  0  0  0
 34 59  1  0  0  0
 34101  1  0  0  0
 35 44  2  0  0  0
 35 45  1  0  0  0
 35 68  1  0  0  0
 36 56  1  0  0  0
 36102  1  0  0  0
 37 39  1  0  0  0
 37 47  1  0  0  0
 37 66  1  0  0  0
 37103  1  0  0  0
 38 43  2  0  0  0
 38 46  1  0  0  0
 38 47  1  0  0  0
 39 64  1  0  0  0
 39 67  2  0  0  0
 40 52  1  0  0  0
 40 53  2  0  0  0
 40 58  1  0  0  0
 41104  1  0  0  0
 41105  1  0  0  0
 41106  1  0  0  0
 41 48  1  0  0  0
 42 43  1  0  0  0
 42 66  1  0  0  0
 42107  1  0  0  0
 42108  1  0  0  0
 43 44  1  0  0  0
 44109  1  0  0  0
 45 46  2  0  0  0
 45110  1  0  0  0
 46111  1  0  0  0
 47112  1  0  0  0
 47113  1  0  0  0
 48 56  1  0  0  0
 48 65  1  0  0  0
 48114  1  0  0  0
 49 50  1  0  0  0
 49 53  1  0  0  0
 49 64  1  0  0  0
 49115  1  0  0  0
 50 51  1  0  0  0
 50116  1  0  0  0
 50117  1  0  0  0
 51 52  1  0  0  0
 51118  1  0  0  0
 51119  1  0  0  0
 52120  1  0  0  0
 52121  1  0  0  0
 53 54  1  0  0  0
 54 55  2  0  0  0
 54122  1  0  0  0
 55 57  1  0  0  0
 55123  1  0  0  0
 56 69  2  0  0  0
 57 58  2  0  0  0
 57124  1  0  0  0
 58125  1  0  0  0
 59 60  1  0  0  0
 59 61  1  0  0  0
 59 62  1  0  0  0
 60126  1  0  0  0
 60127  1  0  0  0
 60128  1  0  0  0
 61129  1  0  0  0
 61130  1  0  0  0
 61131  1  0  0  0
 62132  1  0  0  0
 62133  1  0  0  0
 62134  1  0  0  0
 63 65  1  0  0  0
 63135  1  0  0  0
 63136  1  0  0  0
 63137  1  0  0  0
 64138  1  0  0  0
 65139  1  0  0  0
 68 75  1  0  0  0
 71 77  2  0  0  0
 71 79  1  0  0  0
 71140  1  0  0  0
 72 78  2  0  0  0
 72 79  1  0  0  0
 72 80  1  0  0  0
 73141  1  0  0  0
 73142  1  0  0  0
 73143  1  0  0  0
 73 76  1  0  0  0
 74 76  1  0  0  0
 74144  1  0  0  0
 74145  1  0  0  0
 74146  1  0  0  0
 75 76  1  0  0  0
 75147  1  0  0  0
 75148  1  0  0  0
 76 79  1  0  0  0
 77 78  1  0  0  0
 80149  1  0  0  0
M  ISO  4   1 100  68 101  75 101  80 100
M  END
> <chiral flag>
0

> <version>
0

> <s_m_source_file>
/data/baiqing/PycharmProjects/Reinvent-master-3.2/result/LINK_invent/BTK/process_docking_weight1_custom_product_contain_oxygen_bond_distance_aromatic_linkinvent_7_9_3/rearranged_h_0187.sdf

> <i_m_source_file_index>
75

> <r_mmod_Potential_Energy-OPLS-2005>
2864.77807617188

> <r_mmod_Stretch_Energy-OPLS-2005>
1287.39880371094

> <r_mmod_Bend_Energy-OPLS-2005>
831.370483398438

> <r_mmod_Torsional_Energy-OPLS-2005>
258.308532714844

> <r_mmod_Improper_Torsional_Energy-OPLS-2005>
3.63735961914062

> <r_mmod_Van_der_Waal_Energy-OPLS-2005>
106.092933654785

> <r_mmod_Electrostatic_Energy-OPLS-2005>
-365.695129394531

> <r_mmod_Solvation_Energy-OPLS-2005>
-261.271636962891

> <b_mmod_Minimization_Converged-OPLS-2005>
0

> <r_mmod_RMS_Derivative-OPLS-2005>
2.57938361167908

$$$$
77
                    3D
 Structure written by MMmdl.
153161  0  0  1  0            999 V2000
  -30.6106  -14.6605   20.5147 C   0  0  0  0  0  0
  -30.4436  -12.4051   19.4614 C   0  0  0  0  0  0
  -29.5142  -12.5117   18.2313 C   0  0  0  0  0  0
  -28.0368  -12.3441   18.6394 C   0  0  0  0  0  0
  -27.6566  -13.2140   19.8671 C   0  0  2  0  0  0
  -28.6990  -13.0654   20.9985 C   0  0  0  0  0  0
  -25.2571  -13.8158   20.5669 C   0  0  0  0  0  0
  -24.1832  -13.0433   20.9171 C   0  0  0  0  0  0
  -24.6391  -11.6901   20.8724 C   0  0  0  0  0  0
  -23.9060  -10.4290   21.0391 C   0  0  0  0  0  0
  -24.3610   -9.4208   21.9172 C   0  0  0  0  0  0
  -23.6282   -8.2247   22.0753 C   0  0  0  0  0  0
  -22.4266   -8.0283   21.3543 C   0  0  0  0  0  0
  -21.9895   -9.0256   20.4647 C   0  0  0  0  0  0
  -22.7228  -10.2131   20.3048 C   0  0  0  0  0  0
  -21.6855   -6.0725   22.5274 C   0  0  0  0  0  0
  -21.4018   -6.5630   23.8204 C   0  0  0  0  0  0
  -21.3659   -5.6785   24.9166 C   0  0  0  0  0  0
  -21.6046   -4.3047   24.7222 C   0  0  0  0  0  0
  -21.8821   -3.8137   23.4341 C   0  0  0  0  0  0
  -21.9195   -4.6954   22.3395 C   0  0  0  0  0  0
  -22.7857  -13.5241   21.1836 C   0  0  0  0  0  0
  -22.1663   -4.2140   21.0971 F   0  0  0  0  0  0
  -21.5626   -3.4533   25.7735 F   0  0  0  0  0  0
  -30.0162  -13.4232   20.4446 N   0  0  0  0  0  0
  -26.3003  -12.9334   20.3322 N   0  0  0  0  0  0
  -25.9324  -11.6493   20.5747 N   0  0  0  0  0  0
  -22.0492  -12.8247   22.0394 N   0  0  0  0  0  0
  -25.4280  -15.1877   20.4074 N   0  0  0  0  0  0
  -31.7511  -14.8398   20.0734 O   0  0  0  0  0  0
  -21.6638   -6.8872   21.4236 O   0  0  0  0  0  0
  -22.3550  -14.5544   20.6677 O   0  0  0  0  0  0
  -24.6269  -31.8585   23.2001 C   0  0  0  0  0  0
  -25.9111  -32.4772   23.8339 C   0  0  1  0  0  0
  -27.2310  -27.3093   20.1226 C   0  0  0  0  0  0
  -25.5917  -33.8572   24.2266 N   0  0  0  0  0  0
  -23.4217  -30.4802   21.5430 C   0  0  2  0  0  0
  -24.8700  -28.9328   20.1092 C   0  0  0  0  0  0
  -22.7483  -29.4615   22.4936 C   0  0  0  0  0  0
  -18.0287  -28.1394   22.8489 C   0  0  0  0  0  0
  -24.1488  -36.7292   23.2637 C   0  0  0  0  0  0
  -25.9622  -30.7867   21.3720 C   0  0  0  0  0  0
  -26.0371  -29.4123   20.7165 C   0  0  0  0  0  0
  -27.2180  -28.6116   20.7145 C   0  0  0  0  0  0
  -26.0437  -26.8896   19.4790 C   0  0  0  0  0  0
  -24.8762  -27.6776   19.4812 C   0  0  0  0  0  0
  -23.6370  -29.8128   20.1591 C   0  0  0  0  0  0
  -25.4112  -36.3079   24.0325 C   0  0  1  0  0  0
  -20.5887  -28.3693   23.1287 C   0  0  2  0  0  0
  -20.6776  -26.9416   22.5413 C   0  0  0  0  0  0
  -19.5751  -26.6389   21.5215 C   0  0  0  0  0  0
  -18.1929  -26.7938   22.1626 C   0  0  0  0  0  0
  -19.1540  -28.8861   23.2882 C   0  0  0  0  0  0
  -18.9464  -30.1466   23.8895 C   0  0  0  0  0  0
  -17.6462  -30.6592   24.0569 C   0  0  0  0  0  0
  -25.9054  -34.9449   23.5101 C   0  0  0  0  0  0
  -16.5352  -29.9093   23.6331 C   0  0  0  0  0  0
  -16.7274  -28.6514   23.0344 C   0  0  0  0  0  0
  -26.4488  -31.6583   25.0712 C   0  0  0  0  0  0
  -25.3715  -31.3734   26.1441 C   0  0  0  0  0  0
  -27.0329  -30.3003   24.6172 C   0  0  0  0  0  0
  -27.6052  -32.4310   25.7481 C   0  0  0  0  0  0
  -27.5578  -37.1796   24.8460 C   0  0  0  0  0  0
  -21.4194  -29.3044   22.3683 N   0  0  0  0  0  0
  -26.4285  -37.3776   23.9410 N   0  0  0  0  0  0
  -24.6890  -31.0590   22.0954 N   0  0  0  0  0  0
  -23.4204  -28.8169   23.3028 O   0  0  0  0  0  0
  -28.3536  -26.4639   20.1978 O   0  0  0  0  0  0
  -26.5629  -34.8919   22.4673 O   0  0  0  0  0  0
  -23.5429  -32.1390   23.7320 O   0  0  0  0  0  0
  -30.2277  -19.2887   19.9886 C   0  0  0  0  0  0
  -29.4447  -19.9985   20.9422 C   0  0  0  0  0  0
  -28.8346  -19.1721   21.9132 C   0  0  0  0  0  0
  -28.9951  -17.7596   21.8969 C   0  0  0  0  0  0
  -29.8117  -17.1305   20.9252 C   0  0  0  0  0  0
  -29.2624  -22.4662   20.1438 C   0  0  0  0  0  0
  -30.6733  -24.5508   20.4721 C   0  0  0  0  0  0
  -28.2124  -25.0028   19.9394 C   0  0  0  0  0  0
  -29.2484  -23.9891   20.6196 C   0  0  1  0  0  0
  -30.4138  -17.9216   19.9840 N   0  0  0  0  0  0
  -29.3041  -21.4583   21.0685 N   0  0  0  0  0  0
  -29.8308  -15.6683   21.0192 N   0  0  0  0  0  0
  -29.2740  -22.2103   18.9388 O   0  0  0  0  0  0
  -28.0790  -19.7480   22.8831 F   0  0  0  0  0  0
  -28.3618  -16.9975   22.8259 F   0  0  0  0  0  0
  -31.4848  -12.5328   19.1611 H   0  0  0  0  0  0
  -30.3839  -11.4090   19.9024 H   0  0  0  0  0  0
  -29.7827  -11.7572   17.4904 H   0  0  0  0  0  0
  -29.6542  -13.4792   17.7467 H   0  0  0  0  0  0
  -27.8780  -11.2899   18.8717 H   0  0  0  0  0  0
  -27.3847  -12.5709   17.7957 H   0  0  0  0  0  0
  -27.6761  -14.2497   19.5280 H   0  0  0  0  0  0
  -28.7150  -12.0391   21.3686 H   0  0  0  0  0  0
  -28.4319  -13.6811   21.8583 H   0  0  0  0  0  0
  -25.2753   -9.5681   22.4747 H   0  0  0  0  0  0
  -23.9987   -7.4638   22.7479 H   0  0  0  0  0  0
  -21.0822   -8.8779   19.8954 H   0  0  0  0  0  0
  -22.3686  -10.9669   19.6161 H   0  0  0  0  0  0
  -21.2011   -7.6138   23.9705 H   0  0  0  0  0  0
  -21.1481   -6.0511   25.9068 H   0  0  0  0  0  0
  -22.0598   -2.7600   23.2845 H   0  0  0  0  0  0
  -22.4104  -11.9916   22.4796 H   0  0  0  0  0  0
  -21.1113  -13.1288   22.2594 H   0  0  0  0  0  0
  -24.6580  -15.8391   20.5140 H   0  0  0  0  0  0
  -26.2729  -15.6279   20.0666 H   0  0  0  0  0  0
  -26.7186  -32.5444   23.1093 H   0  0  0  0  0  0
  -25.0030  -33.9715   25.0388 H   0  0  0  0  0  0
  -22.7149  -31.3003   21.3986 H   0  0  0  0  0  0
  -23.3746  -35.9629   23.3299 H   0  0  0  0  0  0
  -24.3582  -36.8918   22.2053 H   0  0  0  0  0  0
  -23.7251  -37.6495   23.6666 H   0  0  0  0  0  0
  -26.0923  -31.5472   20.6010 H   0  0  0  0  0  0
  -26.8430  -30.8387   22.0000 H   0  0  0  0  0  0
  -28.1118  -28.9744   21.2021 H   0  0  0  0  0  0
  -25.9908  -25.9348   18.9767 H   0  0  0  0  0  0
  -23.9838  -27.3068   18.9957 H   0  0  0  0  0  0
  -23.7548  -30.5887   19.4016 H   0  0  0  0  0  0
  -22.7568  -29.2410   19.8586 H   0  0  0  0  0  0
  -25.1284  -36.1928   25.0815 H   0  0  0  0  0  0
  -20.9971  -28.3273   24.1411 H   0  0  0  0  0  0
  -20.5674  -26.2301   23.3612 H   0  0  0  0  0  0
  -21.6647  -26.7446   22.1207 H   0  0  0  0  0  0
  -19.6911  -25.6301   21.1240 H   0  0  0  0  0  0
  -19.6688  -27.3204   20.6747 H   0  0  0  0  0  0
  -17.4195  -26.6683   21.4034 H   0  0  0  0  0  0
  -18.0330  -26.0082   22.9022 H   0  0  0  0  0  0
  -19.7938  -30.7287   24.2257 H   0  0  0  0  0  0
  -17.5014  -31.6266   24.5182 H   0  0  0  0  0  0
  -15.5353  -30.2988   23.7661 H   0  0  0  0  0  0
  -15.8674  -28.0835   22.7049 H   0  0  0  0  0  0
  -24.5883  -30.7091   25.7773 H   0  0  0  0  0  0
  -24.8914  -32.2907   26.4859 H   0  0  0  0  0  0
  -25.8030  -30.8913   27.0222 H   0  0  0  0  0  0
  -26.2909  -29.6757   24.1184 H   0  0  0  0  0  0
  -27.4014  -29.7261   25.4682 H   0  0  0  0  0  0
  -27.8781  -30.4287   23.9406 H   0  0  0  0  0  0
  -27.2669  -33.3606   26.2067 H   0  0  0  0  0  0
  -28.3855  -32.6872   25.0301 H   0  0  0  0  0  0
  -28.0724  -31.8425   26.5387 H   0  0  0  0  0  0
  -28.2587  -38.0100   24.7511 H   0  0  0  0  0  0
  -28.1080  -36.2632   24.6268 H   0  0  0  0  0  0
  -27.2303  -37.1430   25.8866 H   0  0  0  0  0  0
  -20.9379  -29.8756   21.6878 H   0  0  0  0  0  0
  -26.0162  -38.2848   24.1416 H   0  0  0  0  0  0
  -30.7625  -19.8305   19.2222 H   0  0  0  0  0  0
  -31.4242  -23.8592   20.8573 H   0  0  0  0  0  0
  -30.7807  -25.4840   21.0254 H   0  0  0  0  0  0
  -30.9129  -24.7538   19.4279 H   0  0  0  0  0  0
  -27.2265  -24.6710   20.2666 H   0  0  0  0  0  0
  -28.2386  -24.8606   18.8584 H   0  0  0  0  0  0
  -29.0198  -23.9761   21.6857 H   0  0  0  0  0  0
  -29.1563  -21.7722   22.0198 H   0  0  0  0  0  0
  -29.0380  -15.3170   21.5327 H   0  0  0  0  0  0
  1 25  1  0  0  0
  1 30  2  0  0  0
  1 82  1  0  0  0
  2  3  1  0  0  0
  2 25  1  0  0  0
  2 86  1  0  0  0
  2 87  1  0  0  0
  3  4  1  0  0  0
  3 88  1  0  0  0
  3 89  1  0  0  0
  4  5  1  0  0  0
  4 90  1  0  0  0
  4 91  1  0  0  0
  5  6  1  0  0  0
  5 26  1  0  0  0
  5 92  1  0  0  0
  6 25  1  0  0  0
  6 93  1  0  0  0
  6 94  1  0  0  0
  7  8  2  0  0  0
  7 26  1  0  0  0
  7 29  1  0  0  0
  8  9  1  0  0  0
  8 22  1  0  0  0
  9 10  1  0  0  0
  9 27  2  0  0  0
 10 11  2  0  0  0
 10 15  1  0  0  0
 11 12  1  0  0  0
 11 95  1  0  0  0
 12 13  2  0  0  0
 12 96  1  0  0  0
 13 14  1  0  0  0
 13 31  1  0  0  0
 14 15  2  0  0  0
 14 97  1  0  0  0
 15 98  1  0  0  0
 16 17  2  0  0  0
 16 21  1  0  0  0
 16 31  1  0  0  0
 17 18  1  0  0  0
 17 99  1  0  0  0
 18 19  2  0  0  0
 18100  1  0  0  0
 19 20  1  0  0  0
 19 24  1  0  0  0
 20 21  2  0  0  0
 20101  1  0  0  0
 21 23  1  0  0  0
 22 28  1  0  0  0
 22 32  2  0  0  0
 26 27  1  0  0  0
 28102  1  0  0  0
 28103  1  0  0  0
 29104  1  0  0  0
 29105  1  0  0  0
 33 34  1  0  0  0
 33 66  1  0  0  0
 33 70  2  0  0  0
 34 36  1  0  0  0
 34 59  1  0  0  0
 34106  1  0  0  0
 35 44  2  0  0  0
 35 45  1  0  0  0
 35 68  1  0  0  0
 36 56  1  0  0  0
 36107  1  0  0  0
 37 39  1  0  0  0
 37 47  1  0  0  0
 37 66  1  0  0  0
 37108  1  0  0  0
 38 43  2  0  0  0
 38 46  1  0  0  0
 38 47  1  0  0  0
 39 64  1  0  0  0
 39 67  2  0  0  0
 40 52  1  0  0  0
 40 53  2  0  0  0
 40 58  1  0  0  0
 41109  1  0  0  0
 41110  1  0  0  0
 41111  1  0  0  0
 41 48  1  0  0  0
 42 43  1  0  0  0
 42 66  1  0  0  0
 42112  1  0  0  0
 42113  1  0  0  0
 43 44  1  0  0  0
 44114  1  0  0  0
 45 46  2  0  0  0
 45115  1  0  0  0
 46116  1  0  0  0
 47117  1  0  0  0
 47118  1  0  0  0
 48 56  1  0  0  0
 48 65  1  0  0  0
 48119  1  0  0  0
 49 50  1  0  0  0
 49 53  1  0  0  0
 49 64  1  0  0  0
 49120  1  0  0  0
 50 51  1  0  0  0
 50121  1  0  0  0
 50122  1  0  0  0
 51 52  1  0  0  0
 51123  1  0  0  0
 51124  1  0  0  0
 52125  1  0  0  0
 52126  1  0  0  0
 53 54  1  0  0  0
 54 55  2  0  0  0
 54127  1  0  0  0
 55 57  1  0  0  0
 55128  1  0  0  0
 56 69  2  0  0  0
 57 58  2  0  0  0
 57129  1  0  0  0
 58130  1  0  0  0
 59 60  1  0  0  0
 59 61  1  0  0  0
 59 62  1  0  0  0
 60131  1  0  0  0
 60132  1  0  0  0
 60133  1  0  0  0
 61134  1  0  0  0
 61135  1  0  0  0
 61136  1  0  0  0
 62137  1  0  0  0
 62138  1  0  0  0
 62139  1  0  0  0
 63 65  1  0  0  0
 63140  1  0  0  0
 63141  1  0  0  0
 63142  1  0  0  0
 64143  1  0  0  0
 65144  1  0  0  0
 68 78  1  0  0  0
 71 72  2  0  0  0
 71 80  1  0  0  0
 71145  1  0  0  0
 72 73  1  0  0  0
 72 81  1  0  0  0
 73 74  2  0  0  0
 73 84  1  0  0  0
 74 75  1  0  0  0
 74 85  1  0  0  0
 75 80  2  0  0  0
 75 82  1  0  0  0
 76 79  1  0  0  0
 76 81  1  0  0  0
 76 83  2  0  0  0
 77146  1  0  0  0
 77147  1  0  0  0
 77148  1  0  0  0
 77 79  1  0  0  0
 78 79  1  0  0  0
 78149  1  0  0  0
 78150  1  0  0  0
 79151  1  0  0  0
 81152  1  0  0  0
 82153  1  0  0  0
M  ISO  4   1 100  68 101  78 101  82 100
M  END
> <chiral flag>
0

> <version>
0

> <s_m_source_file>
/data/baiqing/PycharmProjects/Reinvent-master-3.2/result/LINK_invent/BTK/process_docking_weight1_custom_product_contain_oxygen_bond_distance_aromatic_linkinvent_7_9_3/rearranged_h_0187.sdf

> <i_m_source_file_index>
76

> <r_mmod_Potential_Energy-OPLS-2005>
-124.086639404297

> <r_mmod_Stretch_Energy-OPLS-2005>
86.5768814086914

> <r_mmod_Bend_Energy-OPLS-2005>
157.438766479492

> <r_mmod_Torsional_Energy-OPLS-2005>
229.639434814453

> <r_mmod_Improper_Torsional_Energy-OPLS-2005>
3.24924206733704

> <r_mmod_Van_der_Waal_Energy-OPLS-2005>
142.713912963867

> <r_mmod_Electrostatic_Energy-OPLS-2005>
-556.813842773438

> <r_mmod_Solvation_Energy-OPLS-2005>
-240.604736328125

> <b_mmod_Minimization_Converged-OPLS-2005>
0

> <r_mmod_RMS_Derivative-OPLS-2005>
1.2434504032135

$$$$
78
                    3D
 Structure written by MMmdl.
159167  0  0  1  0            999 V2000
  -30.6619  -14.8238   20.4344 C   0  0  0  0  0  0
  -30.4278  -12.5138   19.4723 C   0  0  0  0  0  0
  -29.5022  -12.4895   18.2377 C   0  0  0  0  0  0
  -28.0418  -12.2578   18.6686 C   0  0  0  0  0  0
  -27.6229  -13.1852   19.8344 C   0  0  2  0  0  0
  -28.6850  -13.2218   20.9654 C   0  0  0  0  0  0
  -25.2454  -13.8018   20.5674 C   0  0  0  0  0  0
  -24.1730  -13.0335   20.9245 C   0  0  0  0  0  0
  -24.6285  -11.6806   20.8806 C   0  0  0  0  0  0
  -23.8969  -10.4216   21.0432 C   0  0  0  0  0  0
  -24.3552   -9.4143   21.9196 C   0  0  0  0  0  0
  -23.6240   -8.2177   22.0753 C   0  0  0  0  0  0
  -22.4224   -8.0218   21.3541 C   0  0  0  0  0  0
  -21.9843   -9.0179   20.4643 C   0  0  0  0  0  0
  -22.7150  -10.2066   20.3062 C   0  0  0  0  0  0
  -21.6823   -6.0682   22.5279 C   0  0  0  0  0  0
  -21.3980   -6.5600   23.8206 C   0  0  0  0  0  0
  -21.3672   -5.6768   24.9184 C   0  0  0  0  0  0
  -21.6061   -4.3031   24.7235 C   0  0  0  0  0  0
  -21.8823   -3.8110   23.4360 C   0  0  0  0  0  0
  -21.9179   -4.6916   22.3410 C   0  0  0  0  0  0
  -22.7767  -13.5182   21.1881 C   0  0  0  0  0  0
  -22.1646   -4.2101   21.0984 F   0  0  0  0  0  0
  -21.5662   -3.4523   25.7757 F   0  0  0  0  0  0
  -29.9689  -13.6174   20.3605 N   0  0  0  0  0  0
  -26.2834  -12.9126   20.3281 N   0  0  0  0  0  0
  -25.9204  -11.6339   20.5829 N   0  0  0  0  0  0
  -22.0386  -12.8211   22.0447 N   0  0  0  0  0  0
  -25.4108  -15.1726   20.3966 N   0  0  0  0  0  0
  -31.8646  -14.7809   20.1732 O   0  0  0  0  0  0
  -21.6604   -6.8809   21.4233 O   0  0  0  0  0  0
  -22.3494  -14.5489   20.6705 O   0  0  0  0  0  0
  -24.6324  -31.8539   23.1992 C   0  0  0  0  0  0
  -25.9144  -32.4751   23.8334 C   0  0  1  0  0  0
  -27.2180  -27.2472   20.1422 C   0  0  0  0  0  0
  -25.5944  -33.8553   24.2252 N   0  0  0  0  0  0
  -23.4309  -30.4779   21.5406 C   0  0  2  0  0  0
  -24.8838  -28.9351   20.0988 C   0  0  0  0  0  0
  -22.7515  -29.4592   22.4885 C   0  0  0  0  0  0
  -18.0300  -28.1396   22.8490 C   0  0  0  0  0  0
  -24.1491  -36.7282   23.2636 C   0  0  0  0  0  0
  -25.9785  -30.7626   21.3866 C   0  0  0  0  0  0
  -26.0516  -29.3855   20.7285 C   0  0  0  0  0  0
  -27.2188  -28.5515   20.7469 C   0  0  0  0  0  0
  -26.0491  -26.9061   19.4226 C   0  0  0  0  0  0
  -24.8898  -27.7029   19.4314 C   0  0  0  0  0  0
  -23.6524  -29.8187   20.1538 C   0  0  0  0  0  0
  -25.4119  -36.3060   24.0315 C   0  0  1  0  0  0
  -20.5907  -28.3709   23.1263 C   0  0  2  0  0  0
  -20.6803  -26.9422   22.5414 C   0  0  0  0  0  0
  -19.5775  -26.6386   21.5225 C   0  0  0  0  0  0
  -18.1947  -26.7939   22.1627 C   0  0  0  0  0  0
  -19.1553  -28.8869   23.2870 C   0  0  0  0  0  0
  -18.9470  -30.1474   23.8882 C   0  0  0  0  0  0
  -17.6467  -30.6590   24.0570 C   0  0  0  0  0  0
  -25.9054  -34.9435   23.5077 C   0  0  0  0  0  0
  -16.5359  -29.9091   23.6345 C   0  0  0  0  0  0
  -16.7283  -28.6516   23.0349 C   0  0  0  0  0  0
  -26.4505  -31.6577   25.0727 C   0  0  0  0  0  0
  -25.3711  -31.3757   26.1434 C   0  0  0  0  0  0
  -27.0353  -30.2984   24.6234 C   0  0  0  0  0  0
  -27.6047  -32.4321   25.7511 C   0  0  0  0  0  0
  -27.5567  -37.1800   24.8460 C   0  0  0  0  0  0
  -21.4211  -29.3045   22.3632 N   0  0  0  0  0  0
  -26.4287  -37.3763   23.9397 N   0  0  0  0  0  0
  -24.6989  -31.0505   22.0977 N   0  0  0  0  0  0
  -23.4203  -28.8123   23.2981 O   0  0  0  0  0  0
  -28.2624  -26.2888   20.2807 O   0  0  0  0  0  0
  -26.5619  -34.8912   22.4643 O   0  0  0  0  0  0
  -23.5470  -32.1356   23.7288 O   0  0  0  0  0  0
  -29.3377  -19.0429   22.1792 C   0  0  0  0  0  0
  -29.9627  -18.8195   20.9733 C   0  0  0  0  0  0
  -29.3575  -21.1427   20.8062 C   0  0  0  0  0  0
  -29.0141  -23.7197   20.7335 C   0  0  0  0  0  0
  -26.7265  -24.5307   21.2308 C   0  0  0  0  0  0
  -28.6617  -16.2745   20.1207 C   0  0  0  0  0  0
  -32.0634  -17.4688   21.4418 C   0  0  0  0  0  0
  -30.7508  -17.4780   20.5904 C   0  0  1  0  0  0
  -27.9164  -24.8019   20.2675 C   0  0  1  0  0  0
  -29.9371  -20.0481   20.1999 N   0  0  0  0  0  0
  -29.0512  -22.4466   20.1794 N   0  0  0  0  0  0
  -30.0389  -16.0922   20.5913 N   0  0  0  0  0  0
  -32.8497  -18.7120   21.3173 N   0  3  0  0  0  0
  -29.8005  -24.0362   21.6316 O   0  0  0  0  0  0
  -28.7927  -20.7040   22.4159 S   0  0  0  0  0  0
  -31.4620  -12.6331   19.1464 H   0  0  0  0  0  0
  -30.3974  -11.5578   19.9972 H   0  0  0  0  0  0
  -29.8167  -11.7073   17.5449 H   0  0  0  0  0  0
  -29.5830  -13.4323   17.6937 H   0  0  0  0  0  0
  -27.9504  -11.2166   18.9790 H   0  0  0  0  0  0
  -27.3709  -12.3814   17.8169 H   0  0  0  0  0  0
  -27.5457  -14.1465   19.3519 H   0  0  0  0  0  0
  -28.7695  -12.2385   21.4317 H   0  0  0  0  0  0
  -28.4011  -13.9013   21.7686 H   0  0  0  0  0  0
  -25.2689   -9.5624   22.4783 H   0  0  0  0  0  0
  -23.9949   -7.4556   22.7461 H   0  0  0  0  0  0
  -21.0777   -8.8662   19.8951 H   0  0  0  0  0  0
  -22.3579  -10.9600   19.6182 H   0  0  0  0  0  0
  -21.1938   -7.6103   23.9687 H   0  0  0  0  0  0
  -21.1518   -6.0508   25.9086 H   0  0  0  0  0  0
  -22.0599   -2.7570   23.2875 H   0  0  0  0  0  0
  -22.3959  -11.9875   22.4883 H   0  0  0  0  0  0
  -21.1005  -13.1266   22.2616 H   0  0  0  0  0  0
  -24.6431  -15.8255   20.5043 H   0  0  0  0  0  0
  -26.2592  -15.6097   20.0644 H   0  0  0  0  0  0
  -26.7212  -32.5397   23.1076 H   0  0  0  0  0  0
  -25.0127  -33.9701   25.0417 H   0  0  0  0  0  0
  -22.7276  -31.3005   21.3969 H   0  0  0  0  0  0
  -23.3745  -35.9624   23.3304 H   0  0  0  0  0  0
  -24.3579  -36.8897   22.2049 H   0  0  0  0  0  0
  -23.7253  -37.6488   23.6657 H   0  0  0  0  0  0
  -26.1206  -31.5234   20.6178 H   0  0  0  0  0  0
  -26.8564  -30.8103   22.0199 H   0  0  0  0  0  0
  -28.0978  -28.8800   21.2845 H   0  0  0  0  0  0
  -25.9943  -25.9752   18.8810 H   0  0  0  0  0  0
  -24.0061  -27.3600   18.9106 H   0  0  0  0  0  0
  -23.7758  -30.5991   19.4018 H   0  0  0  0  0  0
  -22.7723  -29.2511   19.8464 H   0  0  0  0  0  0
  -25.1306  -36.1902   25.0806 H   0  0  0  0  0  0
  -21.0011  -28.3307   24.1377 H   0  0  0  0  0  0
  -20.5733  -26.2312   23.3619 H   0  0  0  0  0  0
  -21.6664  -26.7464   22.1182 H   0  0  0  0  0  0
  -19.6930  -25.6293   21.1259 H   0  0  0  0  0  0
  -19.6719  -27.3199   20.6756 H   0  0  0  0  0  0
  -17.4222  -26.6690   21.4024 H   0  0  0  0  0  0
  -18.0337  -26.0088   22.9028 H   0  0  0  0  0  0
  -19.7940  -30.7309   24.2228 H   0  0  0  0  0  0
  -17.5013  -31.6266   24.5177 H   0  0  0  0  0  0
  -15.5355  -30.2983   23.7676 H   0  0  0  0  0  0
  -15.8685  -28.0836   22.7055 H   0  0  0  0  0  0
  -24.5897  -30.7094   25.7758 H   0  0  0  0  0  0
  -24.8908  -32.2956   26.4783 H   0  0  0  0  0  0
  -25.8014  -30.8979   27.0245 H   0  0  0  0  0  0
  -26.2957  -29.6741   24.1212 H   0  0  0  0  0  0
  -27.3969  -29.7238   25.4770 H   0  0  0  0  0  0
  -27.8864  -30.4249   23.9539 H   0  0  0  0  0  0
  -27.2635  -33.3629   26.2058 H   0  0  0  0  0  0
  -28.3884  -32.6857   25.0356 H   0  0  0  0  0  0
  -28.0682  -31.8458   26.5456 H   0  0  0  0  0  0
  -28.2580  -38.0096   24.7491 H   0  0  0  0  0  0
  -28.1061  -36.2622   24.6308 H   0  0  0  0  0  0
  -27.2282  -37.1481   25.8862 H   0  0  0  0  0  0
  -20.9384  -29.8759   21.6841 H   0  0  0  0  0  0
  -26.0154  -38.2829   24.1403 H   0  0  0  0  0  0
  -29.2065  -18.3300   22.9843 H   0  0  0  0  0  0
  -26.6149  -23.4693   21.4624 H   0  0  0  0  0  0
  -25.7622  -24.8291   20.8293 H   0  0  0  0  0  0
  -26.8695  -25.0533   22.1766 H   0  0  0  0  0  0
  -27.9561  -15.7962   20.7909 H   0  0  0  0  0  0
  -28.5718  -15.9032   19.1001 H   0  0  0  0  0  0
  -28.3154  -17.3015   20.0466 H   0  0  0  0  0  0
  -32.7540  -16.6708   21.1869 H   0  0  0  0  0  0
  -31.8112  -17.3302   22.4944 H   0  0  0  0  0  0
  -31.0724  -17.5869   19.5524 H   0  0  0  0  0  0
  -27.6363  -24.5239   19.2514 H   0  0  0  0  0  0
  -28.5749  -22.3677   19.2941 H   0  0  0  0  0  0
  -33.1416  -18.8525   20.3663 H   0  0  0  0  0  0
  -33.6727  -18.6569   21.8911 H   0  0  0  0  0  0
  -32.3123  -19.5091   21.6091 H   0  0  0  0  0  0
  1 25  1  0  0  0
  1 30  2  0  0  0
  1 82  1  0  0  0
  2  3  1  0  0  0
  2 25  1  0  0  0
  2 86  1  0  0  0
  2 87  1  0  0  0
  3  4  1  0  0  0
  3 88  1  0  0  0
  3 89  1  0  0  0
  4  5  1  0  0  0
  4 90  1  0  0  0
  4 91  1  0  0  0
  5  6  1  0  0  0
  5 26  1  0  0  0
  5 92  1  0  0  0
  6 25  1  0  0  0
  6 93  1  0  0  0
  6 94  1  0  0  0
  7  8  2  0  0  0
  7 26  1  0  0  0
  7 29  1  0  0  0
  8  9  1  0  0  0
  8 22  1  0  0  0
  9 10  1  0  0  0
  9 27  2  0  0  0
 10 11  2  0  0  0
 10 15  1  0  0  0
 11 12  1  0  0  0
 11 95  1  0  0  0
 12 13  2  0  0  0
 12 96  1  0  0  0
 13 14  1  0  0  0
 13 31  1  0  0  0
 14 15  2  0  0  0
 14 97  1  0  0  0
 15 98  1  0  0  0
 16 17  2  0  0  0
 16 21  1  0  0  0
 16 31  1  0  0  0
 17 18  1  0  0  0
 17 99  1  0  0  0
 18 19  2  0  0  0
 18100  1  0  0  0
 19 20  1  0  0  0
 19 24  1  0  0  0
 20 21  2  0  0  0
 20101  1  0  0  0
 21 23  1  0  0  0
 22 28  1  0  0  0
 22 32  2  0  0  0
 26 27  1  0  0  0
 28102  1  0  0  0
 28103  1  0  0  0
 29104  1  0  0  0
 29105  1  0  0  0
 33 34  1  0  0  0
 33 66  1  0  0  0
 33 70  2  0  0  0
 34 36  1  0  0  0
 34 59  1  0  0  0
 34106  1  0  0  0
 35 44  2  0  0  0
 35 45  1  0  0  0
 35 68  1  0  0  0
 36 56  1  0  0  0
 36107  1  0  0  0
 37 39  1  0  0  0
 37 47  1  0  0  0
 37 66  1  0  0  0
 37108  1  0  0  0
 38 43  2  0  0  0
 38 46  1  0  0  0
 38 47  1  0  0  0
 39 64  1  0  0  0
 39 67  2  0  0  0
 40 52  1  0  0  0
 40 53  2  0  0  0
 40 58  1  0  0  0
 41109  1  0  0  0
 41110  1  0  0  0
 41111  1  0  0  0
 41 48  1  0  0  0
 42 43  1  0  0  0
 42 66  1  0  0  0
 42112  1  0  0  0
 42113  1  0  0  0
 43 44  1  0  0  0
 44114  1  0  0  0
 45 46  2  0  0  0
 45115  1  0  0  0
 46116  1  0  0  0
 47117  1  0  0  0
 47118  1  0  0  0
 48 56  1  0  0  0
 48 65  1  0  0  0
 48119  1  0  0  0
 49 50  1  0  0  0
 49 53  1  0  0  0
 49 64  1  0  0  0
 49120  1  0  0  0
 50 51  1  0  0  0
 50121  1  0  0  0
 50122  1  0  0  0
 51 52  1  0  0  0
 51123  1  0  0  0
 51124  1  0  0  0
 52125  1  0  0  0
 52126  1  0  0  0
 53 54  1  0  0  0
 54 55  2  0  0  0
 54127  1  0  0  0
 55 57  1  0  0  0
 55128  1  0  0  0
 56 69  2  0  0  0
 57 58  2  0  0  0
 57129  1  0  0  0
 58130  1  0  0  0
 59 60  1  0  0  0
 59 61  1  0  0  0
 59 62  1  0  0  0
 60131  1  0  0  0
 60132  1  0  0  0
 60133  1  0  0  0
 61134  1  0  0  0
 61135  1  0  0  0
 61136  1  0  0  0
 62137  1  0  0  0
 62138  1  0  0  0
 62139  1  0  0  0
 63 65  1  0  0  0
 63140  1  0  0  0
 63141  1  0  0  0
 63142  1  0  0  0
 64143  1  0  0  0
 65144  1  0  0  0
 68 79  1  0  0  0
 71 72  2  0  0  0
 71 85  1  0  0  0
 71145  1  0  0  0
 72 78  1  0  0  0
 72 80  1  0  0  0
 73 80  2  0  0  0
 73 81  1  0  0  0
 73 85  1  0  0  0
 74 79  1  0  0  0
 74 81  1  0  0  0
 74 84  2  0  0  0
 75146  1  0  0  0
 75147  1  0  0  0
 75148  1  0  0  0
 75 79  1  0  0  0
 76 82  1  0  0  0
 76149  1  0  0  0
 76150  1  0  0  0
 76151  1  0  0  0
 77 83  1  0  0  0
 77152  1  0  0  0
 77153  1  0  0  0
 77 78  1  0  0  0
 78 82  1  0  0  0
 78154  1  0  0  0
 79155  1  0  0  0
 81156  1  0  0  0
 83157  1  0  0  0
 83158  1  0  0  0
 83159  1  0  0  0
M  CHG  1  83   1
M  ISO  4   1 100  68 101  79 101  82 100
M  END
> <chiral flag>
0

> <version>
0

> <s_m_source_file>
/data/baiqing/PycharmProjects/Reinvent-master-3.2/result/LINK_invent/BTK/process_docking_weight1_custom_product_contain_oxygen_bond_distance_aromatic_linkinvent_7_9_3/rearranged_h_0187.sdf

> <i_m_source_file_index>
77

> <r_mmod_Potential_Energy-OPLS-2005>
-5.16458034515381

> <r_mmod_Stretch_Energy-OPLS-2005>
151.972900390625

> <r_mmod_Bend_Energy-OPLS-2005>
197.649322509766

> <r_mmod_Torsional_Energy-OPLS-2005>
299.495056152344

> <r_mmod_Improper_Torsional_Energy-OPLS-2005>
8.4720287322998

> <r_mmod_Van_der_Waal_Energy-OPLS-2005>
151.177017211914

> <r_mmod_Electrostatic_Energy-OPLS-2005>
-434.527221679688

> <r_mmod_Solvation_Energy-OPLS-2005>
-501.650970458984

> <b_mmod_Minimization_Converged-OPLS-2005>
0

> <r_mmod_RMS_Derivative-OPLS-2005>
1.76891815662384

$$$$
79
                    3D
 Structure written by MMmdl.
158166  0  0  1  0            999 V2000
  -30.7164  -14.4522   20.5334 C   0  0  0  0  0  0
  -30.4142  -12.2834   19.4248 C   0  0  0  0  0  0
  -29.4920  -12.4947   18.2059 C   0  0  0  0  0  0
  -28.0109  -12.3700   18.6145 C   0  0  0  0  0  0
  -27.6613  -13.2081   19.8741 C   0  0  2  0  0  0
  -28.7040  -12.9967   20.9965 C   0  0  0  0  0  0
  -25.2594  -13.8162   20.5691 C   0  0  0  0  0  0
  -24.1839  -13.0443   20.9179 C   0  0  0  0  0  0
  -24.6379  -11.6906   20.8714 C   0  0  0  0  0  0
  -23.9043  -10.4299   21.0392 C   0  0  0  0  0  0
  -24.3599   -9.4219   21.9170 C   0  0  0  0  0  0
  -23.6277   -8.2255   22.0751 C   0  0  0  0  0  0
  -22.4260   -8.0282   21.3546 C   0  0  0  0  0  0
  -21.9895   -9.0252   20.4651 C   0  0  0  0  0  0
  -22.7214  -10.2135   20.3049 C   0  0  0  0  0  0
  -21.6857   -6.0725   22.5275 C   0  0  0  0  0  0
  -21.4021   -6.5633   23.8204 C   0  0  0  0  0  0
  -21.3661   -5.6789   24.9169 C   0  0  0  0  0  0
  -21.6037   -4.3047   24.7227 C   0  0  0  0  0  0
  -21.8818   -3.8135   23.4350 C   0  0  0  0  0  0
  -21.9202   -4.6951   22.3401 C   0  0  0  0  0  0
  -22.7865  -13.5256   21.1843 C   0  0  0  0  0  0
  -22.1665   -4.2131   21.0978 F   0  0  0  0  0  0
  -21.5625   -3.4537   25.7743 F   0  0  0  0  0  0
  -30.0386  -13.2778   20.4417 N   0  0  0  0  0  0
  -26.3025  -12.9331   20.3365 N   0  0  0  0  0  0
  -25.9308  -11.6486   20.5737 N   0  0  0  0  0  0
  -22.0506  -12.8259   22.0406 N   0  0  0  0  0  0
  -25.4348  -15.1879   20.4105 N   0  0  0  0  0  0
  -31.8741  -14.5825   20.1279 O   0  0  0  0  0  0
  -21.6636   -6.8871   21.4235 O   0  0  0  0  0  0
  -22.3560  -14.5560   20.6684 O   0  0  0  0  0  0
  -24.6180  -31.8700   23.2130 C   0  0  0  0  0  0
  -25.9081  -32.4821   23.8409 C   0  0  1  0  0  0
  -27.2210  -27.4217   20.0838 C   0  0  0  0  0  0
  -25.5941  -33.8618   24.2336 N   0  0  0  0  0  0
  -23.4030  -30.5003   21.5539 C   0  0  2  0  0  0
  -24.8444  -28.9774   20.1103 C   0  0  0  0  0  0
  -22.7422  -29.4686   22.4967 C   0  0  0  0  0  0
  -18.0278  -28.1373   22.8495 C   0  0  0  0  0  0
  -24.1483  -36.7319   23.2630 C   0  0  0  0  0  0
  -25.9378  -30.8301   21.3706 C   0  0  0  0  0  0
  -26.0110  -29.4679   20.7111 C   0  0  0  0  0  0
  -27.2015  -28.6987   20.6962 C   0  0  0  0  0  0
  -26.0301  -26.9726   19.4537 C   0  0  0  0  0  0
  -24.8504  -27.7285   19.4781 C   0  0  0  0  0  0
  -23.6105  -29.8462   20.1655 C   0  0  0  0  0  0
  -25.4102  -36.3110   24.0335 C   0  0  1  0  0  0
  -20.5874  -28.3677   23.1297 C   0  0  2  0  0  0
  -20.6767  -26.9410   22.5403 C   0  0  0  0  0  0
  -19.5742  -26.6385   21.5205 C   0  0  0  0  0  0
  -18.1922  -26.7920   22.1626 C   0  0  0  0  0  0
  -19.1525  -28.8837   23.2897 C   0  0  0  0  0  0
  -18.9455  -30.1441   23.8910 C   0  0  0  0  0  0
  -17.6457  -30.6577   24.0565 C   0  0  0  0  0  0
  -25.9043  -34.9478   23.5128 C   0  0  0  0  0  0
  -16.5347  -29.9086   23.6322 C   0  0  0  0  0  0
  -16.7266  -28.6500   23.0348 C   0  0  0  0  0  0
  -26.4492  -31.6593   25.0741 C   0  0  0  0  0  0
  -25.3759  -31.3722   26.1489 C   0  0  0  0  0  0
  -27.0306  -30.3023   24.6130 C   0  0  0  0  0  0
  -27.6055  -32.4316   25.7518 C   0  0  0  0  0  0
  -27.5571  -37.1817   24.8460 C   0  0  0  0  0  0
  -21.4148  -29.3054   22.3704 N   0  0  0  0  0  0
  -26.4280  -37.3798   23.9412 N   0  0  0  0  0  0
  -24.6711  -31.0814   22.1033 N   0  0  0  0  0  0
  -23.4191  -28.8209   23.2991 O   0  0  0  0  0  0
  -28.3622  -26.6281   20.1307 O   0  0  0  0  0  0
  -26.5582  -34.8929   22.4676 O   0  0  0  0  0  0
  -23.5374  -32.1442   23.7540 O   0  0  0  0  0  0
  -29.2129  -17.8201   20.8158 C   0  0  0  0  0  0
  -29.3542  -19.0134   20.0212 C   0  0  0  0  0  0
  -30.3443  -18.8732   19.0764 C   0  0  0  0  0  0
  -30.0382  -16.7789   20.4574 C   0  0  0  0  0  0
  -29.1906  -21.5066   20.5707 C   0  0  0  0  0  0
  -30.7714  -19.8415   18.0179 C   0  0  0  0  0  0
  -27.1723  -19.9864   20.9520 C   0  0  0  0  0  0
  -28.3982  -22.8081   20.4020 C   0  0  0  0  0  0
  -29.1400  -24.1719   20.4061 C   0  0  0  0  0  0
  -28.1095  -25.2214   19.9400 C   0  0  0  0  0  0
  -28.4387  -20.2306   20.1048 C   0  0  2  0  0  0
  -29.9920  -15.5069   20.9573 N   0  0  0  0  0  0
  -30.3243  -21.4964   21.0613 O   0  0  0  0  0  0
  -31.1027  -17.3120   19.1690 S   0  0  0  0  0  0
  -31.4605  -12.3608   19.1254 H   0  0  0  0  0  0
  -30.2937  -11.2755   19.8247 H   0  0  0  0  0  0
  -29.7227  -11.7678   17.4261 H   0  0  0  0  0  0
  -29.6715  -13.4784   17.7687 H   0  0  0  0  0  0
  -27.8091  -11.3146   18.8016 H   0  0  0  0  0  0
  -27.3648  -12.6555   17.7841 H   0  0  0  0  0  0
  -27.7040  -14.2555   19.5753 H   0  0  0  0  0  0
  -28.6704  -11.9668   21.3560 H   0  0  0  0  0  0
  -28.4781  -13.6184   21.8638 H   0  0  0  0  0  0
  -25.2750   -9.5700   22.4738 H   0  0  0  0  0  0
  -23.9992   -7.4654   22.7477 H   0  0  0  0  0  0
  -21.0827   -8.8763   19.8963 H   0  0  0  0  0  0
  -22.3661  -10.9667   19.6156 H   0  0  0  0  0  0
  -21.2014   -7.6142   23.9695 H   0  0  0  0  0  0
  -21.1482   -6.0528   25.9071 H   0  0  0  0  0  0
  -22.0598   -2.7600   23.2856 H   0  0  0  0  0  0
  -22.4115  -11.9925   22.4806 H   0  0  0  0  0  0
  -21.1112  -13.1269   22.2574 H   0  0  0  0  0  0
  -24.6711  -15.8461   20.5172 H   0  0  0  0  0  0
  -26.2888  -15.6230   20.0855 H   0  0  0  0  0  0
  -26.7156  -32.5515   23.1172 H   0  0  0  0  0  0
  -25.0129  -33.9779   25.0506 H   0  0  0  0  0  0
  -22.6909  -31.3176   21.4209 H   0  0  0  0  0  0
  -23.3736  -35.9660   23.3303 H   0  0  0  0  0  0
  -24.3580  -36.8919   22.2040 H   0  0  0  0  0  0
  -23.7256  -37.6541   23.6632 H   0  0  0  0  0  0
  -26.0557  -31.5977   20.6050 H   0  0  0  0  0  0
  -26.8245  -30.8757   21.9907 H   0  0  0  0  0  0
  -28.0953  -29.0724   21.1760 H   0  0  0  0  0  0
  -25.9709  -26.0287   18.9329 H   0  0  0  0  0  0
  -23.9573  -27.3487   19.0003 H   0  0  0  0  0  0
  -23.7207  -30.6253   19.4103 H   0  0  0  0  0  0
  -22.7318  -29.2719   19.8669 H   0  0  0  0  0  0
  -25.1282  -36.1966   25.0828 H   0  0  0  0  0  0
  -20.9966  -28.3244   24.1419 H   0  0  0  0  0  0
  -20.5667  -26.2293   23.3594 H   0  0  0  0  0  0
  -21.6639  -26.7445   22.1198 H   0  0  0  0  0  0
  -19.6908  -25.6301   21.1223 H   0  0  0  0  0  0
  -19.6673  -27.3200   20.6740 H   0  0  0  0  0  0
  -17.4194  -26.6665   21.4028 H   0  0  0  0  0  0
  -18.0334  -26.0044   22.9009 H   0  0  0  0  0  0
  -19.7930  -30.7252   24.2279 H   0  0  0  0  0  0
  -17.5019  -31.6259   24.5167 H   0  0  0  0  0  0
  -15.5351  -30.2999   23.7635 H   0  0  0  0  0  0
  -15.8666  -28.0827   22.7058 H   0  0  0  0  0  0
  -24.5936  -30.7045   25.7854 H   0  0  0  0  0  0
  -24.8945  -32.2886   26.4924 H   0  0  0  0  0  0
  -25.8126  -30.8925   27.0259 H   0  0  0  0  0  0
  -26.2853  -29.6812   24.1138 H   0  0  0  0  0  0
  -27.4007  -29.7233   25.4602 H   0  0  0  0  0  0
  -27.8732  -30.4316   23.9325 H   0  0  0  0  0  0
  -27.2652  -33.3603   26.2121 H   0  0  0  0  0  0
  -28.3870  -32.6906   25.0358 H   0  0  0  0  0  0
  -28.0713  -31.8426   26.5430 H   0  0  0  0  0  0
  -28.2605  -38.0097   24.7499 H   0  0  0  0  0  0
  -28.1055  -36.2639   24.6298 H   0  0  0  0  0  0
  -27.2289  -37.1481   25.8861 H   0  0  0  0  0  0
  -20.9294  -29.8810   21.6963 H   0  0  0  0  0  0
  -26.0168  -38.2877   24.1411 H   0  0  0  0  0  0
  -28.4608  -17.7391   21.5875 H   0  0  0  0  0  0
  -29.9448  -20.0700   17.3449 H   0  0  0  0  0  0
  -31.5832  -19.4340   17.4148 H   0  0  0  0  0  0
  -31.1245  -20.7767   18.4513 H   0  0  0  0  0  0
  -26.4875  -20.8340   20.9090 H   0  0  0  0  0  0
  -27.4174  -19.8146   22.0003 H   0  0  0  0  0  0
  -26.6195  -19.1191   20.5914 H   0  0  0  0  0  0
  -27.6386  -22.8229   21.1840 H   0  0  0  0  0  0
  -27.8549  -22.7132   19.4617 H   0  0  0  0  0  0
  -30.0044  -24.1587   19.7407 H   0  0  0  0  0  0
  -29.5007  -24.4008   21.4094 H   0  0  0  0  0  0
  -27.1960  -24.9715   20.4843 H   0  0  0  0  0  0
  -27.9179  -25.0456   18.8802 H   0  0  0  0  0  0
  -28.0971  -20.4503   19.0930 H   0  0  0  0  0  0
  -29.1465  -15.2622   21.4498 H   0  0  0  0  0  0
  1 25  1  0  0  0
  1 30  2  0  0  0
  1 82  1  0  0  0
  2  3  1  0  0  0
  2 25  1  0  0  0
  2 85  1  0  0  0
  2 86  1  0  0  0
  3  4  1  0  0  0
  3 87  1  0  0  0
  3 88  1  0  0  0
  4  5  1  0  0  0
  4 89  1  0  0  0
  4 90  1  0  0  0
  5  6  1  0  0  0
  5 26  1  0  0  0
  5 91  1  0  0  0
  6 25  1  0  0  0
  6 92  1  0  0  0
  6 93  1  0  0  0
  7  8  2  0  0  0
  7 26  1  0  0  0
  7 29  1  0  0  0
  8  9  1  0  0  0
  8 22  1  0  0  0
  9 10  1  0  0  0
  9 27  2  0  0  0
 10 11  2  0  0  0
 10 15  1  0  0  0
 11 12  1  0  0  0
 11 94  1  0  0  0
 12 13  2  0  0  0
 12 95  1  0  0  0
 13 14  1  0  0  0
 13 31  1  0  0  0
 14 15  2  0  0  0
 14 96  1  0  0  0
 15 97  1  0  0  0
 16 17  2  0  0  0
 16 21  1  0  0  0
 16 31  1  0  0  0
 17 18  1  0  0  0
 17 98  1  0  0  0
 18 19  2  0  0  0
 18 99  1  0  0  0
 19 20  1  0  0  0
 19 24  1  0  0  0
 20 21  2  0  0  0
 20100  1  0  0  0
 21 23  1  0  0  0
 22 28  1  0  0  0
 22 32  2  0  0  0
 26 27  1  0  0  0
 28101  1  0  0  0
 28102  1  0  0  0
 29103  1  0  0  0
 29104  1  0  0  0
 33 34  1  0  0  0
 33 66  1  0  0  0
 33 70  2  0  0  0
 34 36  1  0  0  0
 34 59  1  0  0  0
 34105  1  0  0  0
 35 44  2  0  0  0
 35 45  1  0  0  0
 35 68  1  0  0  0
 36 56  1  0  0  0
 36106  1  0  0  0
 37 39  1  0  0  0
 37 47  1  0  0  0
 37 66  1  0  0  0
 37107  1  0  0  0
 38 43  2  0  0  0
 38 46  1  0  0  0
 38 47  1  0  0  0
 39 64  1  0  0  0
 39 67  2  0  0  0
 40 52  1  0  0  0
 40 53  2  0  0  0
 40 58  1  0  0  0
 41108  1  0  0  0
 41109  1  0  0  0
 41110  1  0  0  0
 41 48  1  0  0  0
 42 43  1  0  0  0
 42 66  1  0  0  0
 42111  1  0  0  0
 42112  1  0  0  0
 43 44  1  0  0  0
 44113  1  0  0  0
 45 46  2  0  0  0
 45114  1  0  0  0
 46115  1  0  0  0
 47116  1  0  0  0
 47117  1  0  0  0
 48 56  1  0  0  0
 48 65  1  0  0  0
 48118  1  0  0  0
 49 50  1  0  0  0
 49 53  1  0  0  0
 49 64  1  0  0  0
 49119  1  0  0  0
 50 51  1  0  0  0
 50120  1  0  0  0
 50121  1  0  0  0
 51 52  1  0  0  0
 51122  1  0  0  0
 51123  1  0  0  0
 52124  1  0  0  0
 52125  1  0  0  0
 53 54  1  0  0  0
 54 55  2  0  0  0
 54126  1  0  0  0
 55 57  1  0  0  0
 55127  1  0  0  0
 56 69  2  0  0  0
 57 58  2  0  0  0
 57128  1  0  0  0
 58129  1  0  0  0
 59 60  1  0  0  0
 59 61  1  0  0  0
 59 62  1  0  0  0
 60130  1  0  0  0
 60131  1  0  0  0
 60132  1  0  0  0
 61133  1  0  0  0
 61134  1  0  0  0
 61135  1  0  0  0
 62136  1  0  0  0
 62137  1  0  0  0
 62138  1  0  0  0
 63 65  1  0  0  0
 63139  1  0  0  0
 63140  1  0  0  0
 63141  1  0  0  0
 64142  1  0  0  0
 65143  1  0  0  0
 68 80  1  0  0  0
 71 72  1  0  0  0
 71 74  2  0  0  0
 71144  1  0  0  0
 72 73  2  0  0  0
 72 81  1  0  0  0
 73 76  1  0  0  0
 73 84  1  0  0  0
 74 82  1  0  0  0
 74 84  1  0  0  0
 75 78  1  0  0  0
 75 81  1  0  0  0
 75 83  2  0  0  0
 76145  1  0  0  0
 76146  1  0  0  0
 76147  1  0  0  0
 77148  1  0  0  0
 77149  1  0  0  0
 77150  1  0  0  0
 77 81  1  0  0  0
 78 79  1  0  0  0
 78151  1  0  0  0
 78152  1  0  0  0
 79 80  1  0  0  0
 79153  1  0  0  0
 79154  1  0  0  0
 80155  1  0  0  0
 80156  1  0  0  0
 81157  1  0  0  0
 82158  1  0  0  0
M  ISO  4   1 100  68 101  80 101  82 100
M  END
> <chiral flag>
0

> <version>
0

> <s_m_source_file>
/data/baiqing/PycharmProjects/Reinvent-master-3.2/result/LINK_invent/BTK/process_docking_weight1_custom_product_contain_oxygen_bond_distance_aromatic_linkinvent_7_9_3/rearranged_h_0187.sdf

> <i_m_source_file_index>
78

> <r_mmod_Potential_Energy-OPLS-2005>
-32.9758033752441

> <r_mmod_Stretch_Energy-OPLS-2005>
38.0910797119141

> <r_mmod_Bend_Energy-OPLS-2005>
121.027931213379

> <r_mmod_Torsional_Energy-OPLS-2005>
219.104598999023

> <r_mmod_Improper_Torsional_Energy-OPLS-2005>
5.30222797393799

> <r_mmod_Van_der_Waal_Energy-OPLS-2005>
149.55891418457

> <r_mmod_Electrostatic_Energy-OPLS-2005>
-353.782135009766

> <r_mmod_Solvation_Energy-OPLS-2005>
-229.955810546875

> <b_mmod_Minimization_Converged-OPLS-2005>
0

> <r_mmod_RMS_Derivative-OPLS-2005>
1.62674045562744

$$$$
80
                    3D
 Structure written by MMmdl.
157165  0  0  1  0            999 V2000
  -30.5563  -14.9838   20.3879 C   0  0  0  0  0  0
  -30.4291  -12.6053   19.5142 C   0  0  0  0  0  0
  -29.5225  -12.5295   18.2648 C   0  0  0  0  0  0
  -28.0560  -12.3155   18.6805 C   0  0  0  0  0  0
  -27.6240  -13.2580   19.8346 C   0  0  2  0  0  0
  -28.6642  -13.3242   20.9732 C   0  0  0  0  0  0
  -25.2432  -13.8236   20.5740 C   0  0  0  0  0  0
  -24.1763  -13.0443   20.9248 C   0  0  0  0  0  0
  -24.6392  -11.6935   20.8770 C   0  0  0  0  0  0
  -23.9086  -10.4297   21.0417 C   0  0  0  0  0  0
  -24.3634   -9.4205   21.9192 C   0  0  0  0  0  0
  -23.6298   -8.2244   22.0758 C   0  0  0  0  0  0
  -22.4278   -8.0290   21.3549 C   0  0  0  0  0  0
  -21.9921   -9.0268   20.4654 C   0  0  0  0  0  0
  -22.7257  -10.2139   20.3064 C   0  0  0  0  0  0
  -21.6850   -6.0742   22.5286 C   0  0  0  0  0  0
  -21.4015   -6.5645   23.8220 C   0  0  0  0  0  0
  -21.3660   -5.6795   24.9183 C   0  0  0  0  0  0
  -21.6040   -4.3057   24.7227 C   0  0  0  0  0  0
  -21.8815   -3.8150   23.4347 C   0  0  0  0  0  0
  -21.9190   -4.6972   22.3406 C   0  0  0  0  0  0
  -22.7779  -13.5209   21.1893 C   0  0  0  0  0  0
  -22.1658   -4.2157   21.0981 F   0  0  0  0  0  0
  -21.5626   -3.4540   25.7738 F   0  0  0  0  0  0
  -29.9368  -13.7305   20.3676 N   0  0  0  0  0  0
  -26.2862  -12.9487   20.3247 N   0  0  0  0  0  0
  -25.9324  -11.6608   20.5742 N   0  0  0  0  0  0
  -22.0426  -12.8199   22.0446 N   0  0  0  0  0  0
  -25.4084  -15.1967   20.4175 N   0  0  0  0  0  0
  -31.7682  -14.9639   20.1610 O   0  0  0  0  0  0
  -21.6638   -6.8886   21.4246 O   0  0  0  0  0  0
  -22.3463  -14.5508   20.6735 O   0  0  0  0  0  0
  -24.6471  -31.8421   23.1880 C   0  0  0  0  0  0
  -25.9229  -32.4686   23.8282 C   0  0  1  0  0  0
  -27.2079  -27.1016   20.1461 C   0  0  0  0  0  0
  -25.5954  -33.8493   24.2190 N   0  0  0  0  0  0
  -23.4510  -30.4636   21.5347 C   0  0  2  0  0  0
  -24.8979  -28.8900   20.1090 C   0  0  0  0  0  0
  -22.7590  -29.4538   22.4852 C   0  0  0  0  0  0
  -18.0309  -28.1400   22.8473 C   0  0  0  0  0  0
  -24.1492  -36.7259   23.2644 C   0  0  0  0  0  0
  -26.0118  -30.7047   21.3933 C   0  0  0  0  0  0
  -26.0791  -29.3146   20.7298 C   0  0  0  0  0  0
  -27.2327  -28.4368   20.7315 C   0  0  0  0  0  0
  -25.9959  -26.7922   19.4854 C   0  0  0  0  0  0
  -24.8713  -27.6430   19.4715 C   0  0  0  0  0  0
  -23.6789  -29.7987   20.1524 C   0  0  0  0  0  0
  -25.4120  -36.3028   24.0319 C   0  0  1  0  0  0
  -20.5925  -28.3724   23.1234 C   0  0  2  0  0  0
  -20.6788  -26.9426   22.5403 C   0  0  0  0  0  0
  -19.5759  -26.6380   21.5214 C   0  0  0  0  0  0
  -18.1942  -26.7938   22.1626 C   0  0  0  0  0  0
  -19.1566  -28.8881   23.2844 C   0  0  0  0  0  0
  -18.9478  -30.1475   23.8875 C   0  0  0  0  0  0
  -17.6472  -30.6589   24.0560 C   0  0  0  0  0  0
  -25.9072  -34.9401   23.5065 C   0  0  0  0  0  0
  -16.5365  -29.9083   23.6335 C   0  0  0  0  0  0
  -16.7294  -28.6506   23.0352 C   0  0  0  0  0  0
  -26.4521  -31.6566   25.0743 C   0  0  0  0  0  0
  -25.3685  -31.3773   26.1430 C   0  0  0  0  0  0
  -27.0395  -30.2953   24.6366 C   0  0  0  0  0  0
  -27.6049  -32.4333   25.7524 C   0  0  0  0  0  0
  -27.5576  -37.1786   24.8463 C   0  0  0  0  0  0
  -21.4279  -29.3044   22.3602 N   0  0  0  0  0  0
  -26.4284  -37.3741   23.9408 N   0  0  0  0  0  0
  -24.7234  -31.0250   22.0932 N   0  0  0  0  0  0
  -23.4227  -28.8086   23.3009 O   0  0  0  0  0  0
  -28.2478  -26.0881   20.2444 O   0  0  0  0  0  0
  -26.5662  -34.8901   22.4647 O   0  0  0  0  0  0
  -23.5580  -32.1315   23.7078 O   0  0  0  0  0  0
  -28.1379  -19.6521   19.5969 C   0  0  0  0  0  0
  -29.3377  -19.1504   20.1145 C   0  0  0  0  0  0
  -28.8133  -21.8606   20.2582 C   0  0  0  0  0  0
  -27.1228  -18.8298   18.8628 C   0  0  0  0  0  0
  -28.2663  -24.6182   18.2805 C   0  0  0  0  0  0
  -31.7466  -19.0884   18.3517 C   0  0  0  0  0  0
  -30.0540  -17.6697   19.8012 C   0  0  1  0  0  0
  -28.0310  -24.6290   19.7993 C   0  0  1  0  0  0
  -31.4808  -17.8213   19.1843 C   0  0  0  0  0  0
  -27.8839  -21.0782   19.6710 N   0  0  0  0  0  0
  -28.8001  -23.3615   20.3685 N   0  0  0  0  0  0
  -29.8160  -16.2169   20.4384 N   0  0  0  0  0  0
  -31.7004  -16.8327   18.3157 F   0  0  0  0  0  0
  -32.3960  -17.7745   20.1525 F   0  0  0  0  0  0
  -30.0880  -20.6579   20.8537 S   0  0  0  0  0  0
  -31.4674  -12.7408   19.2073 H   0  0  0  0  0  0
  -30.4063  -11.6650   20.0682 H   0  0  0  0  0  0
  -29.8482  -11.7232   17.6068 H   0  0  0  0  0  0
  -29.6139  -13.4514   17.6877 H   0  0  0  0  0  0
  -27.9556  -11.2774   18.9992 H   0  0  0  0  0  0
  -27.3947  -12.4358   17.8215 H   0  0  0  0  0  0
  -27.5762  -14.2525   19.3900 H   0  0  0  0  0  0
  -28.7562  -12.3646   21.4842 H   0  0  0  0  0  0
  -28.3596  -14.0503   21.7284 H   0  0  0  0  0  0
  -25.2781   -9.5671   22.4768 H   0  0  0  0  0  0
  -24.0010   -7.4625   22.7469 H   0  0  0  0  0  0
  -21.0852   -8.8791   19.8952 H   0  0  0  0  0  0
  -22.3727  -10.9683   19.6173 H   0  0  0  0  0  0
  -21.2012   -7.6153   23.9727 H   0  0  0  0  0  0
  -21.1483   -6.0525   25.9085 H   0  0  0  0  0  0
  -22.0590   -2.7614   23.2846 H   0  0  0  0  0  0
  -22.4056  -11.9885   22.4866 H   0  0  0  0  0  0
  -21.1040  -13.1221   22.2636 H   0  0  0  0  0  0
  -24.6352  -15.8431   20.5311 H   0  0  0  0  0  0
  -26.2438  -15.6362   20.0571 H   0  0  0  0  0  0
  -26.7307  -32.5277   23.1018 H   0  0  0  0  0  0
  -25.0048  -33.9594   25.0301 H   0  0  0  0  0  0
  -22.7551  -31.2912   21.3823 H   0  0  0  0  0  0
  -23.3754  -35.9589   23.3286 H   0  0  0  0  0  0
  -24.3582  -36.8912   22.2064 H   0  0  0  0  0  0
  -23.7249  -37.6450   23.6696 H   0  0  0  0  0  0
  -26.1757  -31.4610   20.6243 H   0  0  0  0  0  0
  -26.8793  -30.7505   22.0400 H   0  0  0  0  0  0
  -28.1305  -28.7551   21.2427 H   0  0  0  0  0  0
  -25.8608  -25.8427   18.9929 H   0  0  0  0  0  0
  -23.9700  -27.3111   18.9749 H   0  0  0  0  0  0
  -23.8244  -30.5778   19.4029 H   0  0  0  0  0  0
  -22.7913  -29.2490   19.8337 H   0  0  0  0  0  0
  -25.1308  -36.1852   25.0810 H   0  0  0  0  0  0
  -21.0012  -28.3315   24.1358 H   0  0  0  0  0  0
  -20.5677  -26.2339   23.3623 H   0  0  0  0  0  0
  -21.6654  -26.7426   22.1204 H   0  0  0  0  0  0
  -19.6911  -25.6282   21.1264 H   0  0  0  0  0  0
  -19.6693  -27.3174   20.6732 H   0  0  0  0  0  0
  -17.4208  -26.6684   21.4033 H   0  0  0  0  0  0
  -18.0340  -26.0088   22.9030 H   0  0  0  0  0  0
  -19.7948  -30.7299   24.2242 H   0  0  0  0  0  0
  -17.5019  -31.6267   24.5164 H   0  0  0  0  0  0
  -15.5363  -30.2974   23.7665 H   0  0  0  0  0  0
  -15.8696  -28.0815   22.7078 H   0  0  0  0  0  0
  -24.5871  -30.7113   25.7756 H   0  0  0  0  0  0
  -24.8857  -32.2955   26.4783 H   0  0  0  0  0  0
  -25.7945  -30.8998   27.0263 H   0  0  0  0  0  0
  -26.3037  -29.6663   24.1348 H   0  0  0  0  0  0
  -27.3959  -29.7274   25.4971 H   0  0  0  0  0  0
  -27.8964  -30.4181   23.9742 H   0  0  0  0  0  0
  -27.2655  -33.3661   26.2040 H   0  0  0  0  0  0
  -28.3890  -32.6847   25.0371 H   0  0  0  0  0  0
  -28.0686  -31.8496   26.5487 H   0  0  0  0  0  0
  -28.2581  -38.0094   24.7504 H   0  0  0  0  0  0
  -28.1083  -36.2621   24.6286 H   0  0  0  0  0  0
  -27.2299  -37.1434   25.8868 H   0  0  0  0  0  0
  -20.9496  -29.8764   21.6783 H   0  0  0  0  0  0
  -26.0150  -38.2812   24.1391 H   0  0  0  0  0  0
  -26.9212  -17.8927   19.3816 H   0  0  0  0  0  0
  -27.4658  -18.5833   17.8579 H   0  0  0  0  0  0
  -26.1718  -19.3540   18.7643 H   0  0  0  0  0  0
  -27.7171  -25.4210   17.7910 H   0  0  0  0  0  0
  -27.9392  -23.6697   17.8530 H   0  0  0  0  0  0
  -29.3273  -24.7559   18.0680 H   0  0  0  0  0  0
  -30.9470  -19.2681   17.6326 H   0  0  0  0  0  0
  -32.6730  -18.9836   17.7863 H   0  0  0  0  0  0
  -31.8698  -19.9799   18.9597 H   0  0  0  0  0  0
  -29.5050  -17.4284   18.8902 H   0  0  0  0  0  0
  -26.9866  -24.3995   20.0151 H   0  0  0  0  0  0
  -29.6624  -23.6425   20.8248 H   0  0  0  0  0  0
  -28.8619  -16.0803   20.7308 H   0  0  0  0  0  0
  1 25  1  0  0  0
  1 30  2  0  0  0
  1 82  1  0  0  0
  2  3  1  0  0  0
  2 25  1  0  0  0
  2 86  1  0  0  0
  2 87  1  0  0  0
  3  4  1  0  0  0
  3 88  1  0  0  0
  3 89  1  0  0  0
  4  5  1  0  0  0
  4 90  1  0  0  0
  4 91  1  0  0  0
  5  6  1  0  0  0
  5 26  1  0  0  0
  5 92  1  0  0  0
  6 25  1  0  0  0
  6 93  1  0  0  0
  6 94  1  0  0  0
  7  8  2  0  0  0
  7 26  1  0  0  0
  7 29  1  0  0  0
  8  9  1  0  0  0
  8 22  1  0  0  0
  9 10  1  0  0  0
  9 27  2  0  0  0
 10 11  2  0  0  0
 10 15  1  0  0  0
 11 12  1  0  0  0
 11 95  1  0  0  0
 12 13  2  0  0  0
 12 96  1  0  0  0
 13 14  1  0  0  0
 13 31  1  0  0  0
 14 15  2  0  0  0
 14 97  1  0  0  0
 15 98  1  0  0  0
 16 17  2  0  0  0
 16 21  1  0  0  0
 16 31  1  0  0  0
 17 18  1  0  0  0
 17 99  1  0  0  0
 18 19  2  0  0  0
 18100  1  0  0  0
 19 20  1  0  0  0
 19 24  1  0  0  0
 20 21  2  0  0  0
 20101  1  0  0  0
 21 23  1  0  0  0
 22 28  1  0  0  0
 22 32  2  0  0  0
 26 27  1  0  0  0
 28102  1  0  0  0
 28103  1  0  0  0
 29104  1  0  0  0
 29105  1  0  0  0
 33 34  1  0  0  0
 33 66  1  0  0  0
 33 70  2  0  0  0
 34 36  1  0  0  0
 34 59  1  0  0  0
 34106  1  0  0  0
 35 44  2  0  0  0
 35 45  1  0  0  0
 35 68  1  0  0  0
 36 56  1  0  0  0
 36107  1  0  0  0
 37 39  1  0  0  0
 37 47  1  0  0  0
 37 66  1  0  0  0
 37108  1  0  0  0
 38 43  2  0  0  0
 38 46  1  0  0  0
 38 47  1  0  0  0
 39 64  1  0  0  0
 39 67  2  0  0  0
 40 52  1  0  0  0
 40 53  2  0  0  0
 40 58  1  0  0  0
 41109  1  0  0  0
 41110  1  0  0  0
 41111  1  0  0  0
 41 48  1  0  0  0
 42 43  1  0  0  0
 42 66  1  0  0  0
 42112  1  0  0  0
 42113  1  0  0  0
 43 44  1  0  0  0
 44114  1  0  0  0
 45 46  2  0  0  0
 45115  1  0  0  0
 46116  1  0  0  0
 47117  1  0  0  0
 47118  1  0  0  0
 48 56  1  0  0  0
 48 65  1  0  0  0
 48119  1  0  0  0
 49 50  1  0  0  0
 49 53  1  0  0  0
 49 64  1  0  0  0
 49120  1  0  0  0
 50 51  1  0  0  0
 50121  1  0  0  0
 50122  1  0  0  0
 51 52  1  0  0  0
 51123  1  0  0  0
 51124  1  0  0  0
 52125  1  0  0  0
 52126  1  0  0  0
 53 54  1  0  0  0
 54 55  2  0  0  0
 54127  1  0  0  0
 55 57  1  0  0  0
 55128  1  0  0  0
 56 69  2  0  0  0
 57 58  2  0  0  0
 57129  1  0  0  0
 58130  1  0  0  0
 59 60  1  0  0  0
 59 61  1  0  0  0
 59 62  1  0  0  0
 60131  1  0  0  0
 60132  1  0  0  0
 60133  1  0  0  0
 61134  1  0  0  0
 61135  1  0  0  0
 61136  1  0  0  0
 62137  1  0  0  0
 62138  1  0  0  0
 62139  1  0  0  0
 63 65  1  0  0  0
 63140  1  0  0  0
 63141  1  0  0  0
 63142  1  0  0  0
 64143  1  0  0  0
 65144  1  0  0  0
 68 78  1  0  0  0
 71 72  2  0  0  0
 71 74  1  0  0  0
 71 80  1  0  0  0
 72 77  1  0  0  0
 72 85  1  0  0  0
 73 80  2  0  0  0
 73 81  1  0  0  0
 73 85  1  0  0  0
 74145  1  0  0  0
 74146  1  0  0  0
 74147  1  0  0  0
 75148  1  0  0  0
 75149  1  0  0  0
 75150  1  0  0  0
 75 78  1  0  0  0
 76151  1  0  0  0
 76152  1  0  0  0
 76153  1  0  0  0
 76 79  1  0  0  0
 77 79  1  0  0  0
 77 82  1  0  0  0
 77154  1  0  0  0
 78 81  1  0  0  0
 78155  1  0  0  0
 79 83  1  0  0  0
 79 84  1  0  0  0
 81156  1  0  0  0
 82157  1  0  0  0
M  ISO  4   1 100  68 101  78 101  82 100
M  END
> <chiral flag>
0

> <version>
0

> <s_m_source_file>
/data/baiqing/PycharmProjects/Reinvent-master-3.2/result/LINK_invent/BTK/process_docking_weight1_custom_product_contain_oxygen_bond_distance_aromatic_linkinvent_7_9_3/rearranged_h_0187.sdf

> <i_m_source_file_index>
79

> <r_mmod_Potential_Energy-OPLS-2005>
407.795684814453

> <r_mmod_Stretch_Energy-OPLS-2005>
283.442230224609

> <r_mmod_Bend_Energy-OPLS-2005>
299.061004638672

> <r_mmod_Torsional_Energy-OPLS-2005>
189.764221191406

> <r_mmod_Improper_Torsional_Energy-OPLS-2005>
8.27101135253906

> <r_mmod_Van_der_Waal_Energy-OPLS-2005>
121.448852539062

> <r_mmod_Electrostatic_Energy-OPLS-2005>
-478.145904541016

> <r_mmod_Solvation_Energy-OPLS-2005>
-237.702377319336

> <b_mmod_Minimization_Converged-OPLS-2005>
0

> <r_mmod_RMS_Derivative-OPLS-2005>
1.2004497051239

$$$$
81
                    3D
 Structure written by MMmdl.
152160  0  0  1  0            999 V2000
  -30.6285  -14.7261   20.4444 C   0  0  0  0  0  0
  -30.4247  -12.4339   19.4908 C   0  0  0  0  0  0
  -29.5139  -12.5071   18.2450 C   0  0  0  0  0  0
  -28.0364  -12.3394   18.6473 C   0  0  0  0  0  0
  -27.6419  -13.2366   19.8512 C   0  0  2  0  0  0
  -28.6808  -13.1647   20.9897 C   0  0  0  0  0  0
  -25.2507  -13.8212   20.5697 C   0  0  0  0  0  0
  -24.1799  -13.0448   20.9198 C   0  0  0  0  0  0
  -24.6393  -11.6927   20.8732 C   0  0  0  0  0  0
  -23.9072  -10.4300   21.0396 C   0  0  0  0  0  0
  -24.3624   -9.4216   21.9175 C   0  0  0  0  0  0
  -23.6300   -8.2250   22.0749 C   0  0  0  0  0  0
  -22.4280   -8.0284   21.3542 C   0  0  0  0  0  0
  -21.9914   -9.0255   20.4643 C   0  0  0  0  0  0
  -22.7241  -10.2136   20.3049 C   0  0  0  0  0  0
  -21.6857   -6.0736   22.5277 C   0  0  0  0  0  0
  -21.4017   -6.5639   23.8210 C   0  0  0  0  0  0
  -21.3662   -5.6792   24.9173 C   0  0  0  0  0  0
  -21.6044   -4.3054   24.7223 C   0  0  0  0  0  0
  -21.8819   -3.8146   23.4345 C   0  0  0  0  0  0
  -21.9195   -4.6963   22.3401 C   0  0  0  0  0  0
  -22.7820  -13.5224   21.1864 C   0  0  0  0  0  0
  -22.1662   -4.2148   21.0979 F   0  0  0  0  0  0
  -21.5630   -3.4537   25.7736 F   0  0  0  0  0  0
  -29.9918  -13.5029   20.4235 N   0  0  0  0  0  0
  -26.2934  -12.9429   20.3270 N   0  0  0  0  0  0
  -25.9326  -11.6564   20.5735 N   0  0  0  0  0  0
  -22.0473  -12.8212   22.0424 N   0  0  0  0  0  0
  -25.4210  -15.1936   20.4144 N   0  0  0  0  0  0
  -31.8169  -14.7711   20.1115 O   0  0  0  0  0  0
  -21.6646   -6.8879   21.4239 O   0  0  0  0  0  0
  -22.3499  -14.5526   20.6710 O   0  0  0  0  0  0
  -24.6286  -31.8564   23.1995 C   0  0  0  0  0  0
  -25.9119  -32.4761   23.8336 C   0  0  1  0  0  0
  -27.2161  -27.2782   20.1407 C   0  0  0  0  0  0
  -25.5922  -33.8563   24.2262 N   0  0  0  0  0  0
  -23.4256  -30.4777   21.5416 C   0  0  2  0  0  0
  -24.8745  -28.9255   20.1103 C   0  0  0  0  0  0
  -22.7495  -29.4600   22.4915 C   0  0  0  0  0  0
  -18.0290  -28.1390   22.8483 C   0  0  0  0  0  0
  -24.1490  -36.7288   23.2640 C   0  0  0  0  0  0
  -25.9691  -30.7746   21.3778 C   0  0  0  0  0  0
  -26.0428  -29.3970   20.7238 C   0  0  0  0  0  0
  -27.2195  -28.5847   20.7289 C   0  0  0  0  0  0
  -26.0381  -26.8766   19.4800 C   0  0  0  0  0  0
  -24.8756  -27.6723   19.4763 C   0  0  0  0  0  0
  -23.6439  -29.8103   20.1578 C   0  0  0  0  0  0
  -25.4116  -36.3075   24.0327 C   0  0  1  0  0  0
  -20.5893  -28.3696   23.1276 C   0  0  2  0  0  0
  -20.6779  -26.9415   22.5412 C   0  0  0  0  0  0
  -19.5755  -26.6386   21.5216 C   0  0  0  0  0  0
  -18.1934  -26.7932   22.1625 C   0  0  0  0  0  0
  -19.1543  -28.8859   23.2874 C   0  0  0  0  0  0
  -18.9463  -30.1460   23.8894 C   0  0  0  0  0  0
  -17.6462  -30.6589   24.0563 C   0  0  0  0  0  0
  -25.9053  -34.9443   23.5099 C   0  0  0  0  0  0
  -16.5353  -29.9087   23.6331 C   0  0  0  0  0  0
  -16.7276  -28.6505   23.0349 C   0  0  0  0  0  0
  -26.4495  -31.6578   25.0718 C   0  0  0  0  0  0
  -25.3720  -31.3721   26.1439 C   0  0  0  0  0  0
  -27.0343  -30.2996   24.6197 C   0  0  0  0  0  0
  -27.6050  -32.4315   25.7491 C   0  0  0  0  0  0
  -27.5580  -37.1799   24.8464 C   0  0  0  0  0  0
  -21.4202  -29.3041   22.3663 N   0  0  0  0  0  0
  -26.4293  -37.3771   23.9406 N   0  0  0  0  0  0
  -24.6932  -31.0542   22.0963 N   0  0  0  0  0  0
  -23.4202  -28.8145   23.3012 O   0  0  0  0  0  0
  -28.3053  -26.3852   20.1667 O   0  0  0  0  0  0
  -26.5629  -34.8914   22.4669 O   0  0  0  0  0  0
  -23.5440  -32.1375   23.7301 O   0  0  0  0  0  0
  -29.8383  -18.6640   20.1029 C   0  0  0  0  0  0
  -30.1727  -19.5269   19.0661 C   0  0  0  0  0  0
  -29.1120  -21.1533   20.3455 C   0  0  0  0  0  0
  -30.2316  -17.2162   20.1460 C   0  0  0  0  0  0
  -29.8396  -15.9974   20.6828 C   0  0  0  0  0  0
  -28.6689  -23.7403   20.0955 C   0  0  0  0  0  0
  -30.9260  -19.1570   17.8231 C   0  0  0  0  0  0
  -26.8789  -24.8171   21.6383 C   0  0  0  0  0  0
  -28.2067  -25.0600   20.8842 C   0  0  2  0  0  0
  -29.7796  -20.8833   19.2155 N   0  0  0  0  0  0
  -28.6754  -22.5105   20.7403 N   0  0  0  0  0  0
  -29.0163  -23.8612   18.9172 O   0  0  0  0  0  0
  -28.9047  -19.6164   21.2937 S   0  0  0  0  0  0
  -31.4706  -12.5296   19.1951 H   0  0  0  0  0  0
  -30.3441  -11.4569   19.9701 H   0  0  0  0  0  0
  -29.7958  -11.7381   17.5245 H   0  0  0  0  0  0
  -29.6531  -13.4655   17.7420 H   0  0  0  0  0  0
  -27.8840  -11.2903   18.9032 H   0  0  0  0  0  0
  -27.3860  -12.5413   17.7954 H   0  0  0  0  0  0
  -27.6398  -14.2607   19.4775 H   0  0  0  0  0  0
  -28.7046  -12.1655   21.4270 H   0  0  0  0  0  0
  -28.4143  -13.8407   21.8026 H   0  0  0  0  0  0
  -25.2768   -9.5697   22.4751 H   0  0  0  0  0  0
  -24.0010   -7.4644   22.7470 H   0  0  0  0  0  0
  -21.0844   -8.8773   19.8952 H   0  0  0  0  0  0
  -22.3693  -10.9674   19.6159 H   0  0  0  0  0  0
  -21.2008   -7.6146   23.9715 H   0  0  0  0  0  0
  -21.1485   -6.0521   25.9077 H   0  0  0  0  0  0
  -22.0596   -2.7607   23.2844 H   0  0  0  0  0  0
  -22.4099  -11.9879   22.4817 H   0  0  0  0  0  0
  -21.1085  -13.1225   22.2624 H   0  0  0  0  0  0
  -24.6577  -15.8509   20.5328 H   0  0  0  0  0  0
  -26.2792  -15.6350   20.1081 H   0  0  0  0  0  0
  -26.7188  -32.5422   23.1082 H   0  0  0  0  0  0
  -25.0050  -33.9702   25.0395 H   0  0  0  0  0  0
  -22.7210  -31.2991   21.3953 H   0  0  0  0  0  0
  -23.3753  -35.9619   23.3301 H   0  0  0  0  0  0
  -24.3580  -36.8913   22.2055 H   0  0  0  0  0  0
  -23.7245  -37.6489   23.6665 H   0  0  0  0  0  0
  -26.1049  -31.5342   20.6069 H   0  0  0  0  0  0
  -26.8482  -30.8261   22.0087 H   0  0  0  0  0  0
  -28.1147  -28.9378   21.2209 H   0  0  0  0  0  0
  -26.0096  -25.9154   18.9864 H   0  0  0  0  0  0
  -23.9840  -27.3091   18.9839 H   0  0  0  0  0  0
  -23.7663  -30.5858   19.4009 H   0  0  0  0  0  0
  -22.7636  -29.2409   19.8540 H   0  0  0  0  0  0
  -25.1300  -36.1924   25.0820 H   0  0  0  0  0  0
  -20.9984  -28.3277   24.1397 H   0  0  0  0  0  0
  -20.5685  -26.2305   23.3614 H   0  0  0  0  0  0
  -21.6647  -26.7442   22.1201 H   0  0  0  0  0  0
  -19.6915  -25.6297   21.1244 H   0  0  0  0  0  0
  -19.6696  -27.3197   20.6747 H   0  0  0  0  0  0
  -17.4205  -26.6677   21.4028 H   0  0  0  0  0  0
  -18.0331  -26.0080   22.9027 H   0  0  0  0  0  0
  -19.7938  -30.7277   24.2263 H   0  0  0  0  0  0
  -17.5015  -31.6269   24.5165 H   0  0  0  0  0  0
  -15.5353  -30.2987   23.7656 H   0  0  0  0  0  0
  -15.8676  -28.0826   22.7060 H   0  0  0  0  0  0
  -24.5898  -30.7070   25.7765 H   0  0  0  0  0  0
  -24.8907  -32.2887   26.4857 H   0  0  0  0  0  0
  -25.8036  -30.8901   27.0219 H   0  0  0  0  0  0
  -26.2923  -29.6741   24.1222 H   0  0  0  0  0  0
  -27.4029  -29.7259   25.4711 H   0  0  0  0  0  0
  -27.8800  -30.4275   23.9438 H   0  0  0  0  0  0
  -27.2660  -33.3617   26.2060 H   0  0  0  0  0  0
  -28.3864  -32.6872   25.0322 H   0  0  0  0  0  0
  -28.0715  -31.8446   26.5414 H   0  0  0  0  0  0
  -28.2595  -38.0097   24.7509 H   0  0  0  0  0  0
  -28.1078  -36.2628   24.6293 H   0  0  0  0  0  0
  -27.2295  -37.1451   25.8866 H   0  0  0  0  0  0
  -20.9386  -29.8759   21.6865 H   0  0  0  0  0  0
  -26.0173  -38.2845   24.1407 H   0  0  0  0  0  0
  -31.1398  -17.1038   19.5697 H   0  0  0  0  0  0
  -28.9450  -15.9621   21.2851 H   0  0  0  0  0  0
  -30.5203  -18.2530   17.3684 H   0  0  0  0  0  0
  -31.9783  -18.9744   18.0400 H   0  0  0  0  0  0
  -30.8802  -19.9441   17.0699 H   0  0  0  0  0  0
  -26.0557  -24.6042   20.9572 H   0  0  0  0  0  0
  -26.6039  -25.6762   22.2504 H   0  0  0  0  0  0
  -26.9559  -23.9677   22.3165 H   0  0  0  0  0  0
  -28.9610  -25.1610   21.6654 H   0  0  0  0  0  0
  -28.3188  -22.5553   21.6837 H   0  0  0  0  0  0
  1 25  1  0  0  0
  1 30  2  0  0  0
  1 75  1  0  0  0
  2  3  1  0  0  0
  2 25  1  0  0  0
  2 84  1  0  0  0
  2 85  1  0  0  0
  3  4  1  0  0  0
  3 86  1  0  0  0
  3 87  1  0  0  0
  4  5  1  0  0  0
  4 88  1  0  0  0
  4 89  1  0  0  0
  5  6  1  0  0  0
  5 26  1  0  0  0
  5 90  1  0  0  0
  6 25  1  0  0  0
  6 91  1  0  0  0
  6 92  1  0  0  0
  7  8  2  0  0  0
  7 26  1  0  0  0
  7 29  1  0  0  0
  8  9  1  0  0  0
  8 22  1  0  0  0
  9 10  1  0  0  0
  9 27  2  0  0  0
 10 11  2  0  0  0
 10 15  1  0  0  0
 11 12  1  0  0  0
 11 93  1  0  0  0
 12 13  2  0  0  0
 12 94  1  0  0  0
 13 14  1  0  0  0
 13 31  1  0  0  0
 14 15  2  0  0  0
 14 95  1  0  0  0
 15 96  1  0  0  0
 16 17  2  0  0  0
 16 21  1  0  0  0
 16 31  1  0  0  0
 17 18  1  0  0  0
 17 97  1  0  0  0
 18 19  2  0  0  0
 18 98  1  0  0  0
 19 20  1  0  0  0
 19 24  1  0  0  0
 20 21  2  0  0  0
 20 99  1  0  0  0
 21 23  1  0  0  0
 22 28  1  0  0  0
 22 32  2  0  0  0
 26 27  1  0  0  0
 28100  1  0  0  0
 28101  1  0  0  0
 29102  1  0  0  0
 29103  1  0  0  0
 33 34  1  0  0  0
 33 66  1  0  0  0
 33 70  2  0  0  0
 34 36  1  0  0  0
 34 59  1  0  0  0
 34104  1  0  0  0
 35 44  2  0  0  0
 35 45  1  0  0  0
 35 68  1  0  0  0
 36 56  1  0  0  0
 36105  1  0  0  0
 37 39  1  0  0  0
 37 47  1  0  0  0
 37 66  1  0  0  0
 37106  1  0  0  0
 38 43  2  0  0  0
 38 46  1  0  0  0
 38 47  1  0  0  0
 39 64  1  0  0  0
 39 67  2  0  0  0
 40 52  1  0  0  0
 40 53  2  0  0  0
 40 58  1  0  0  0
 41107  1  0  0  0
 41108  1  0  0  0
 41109  1  0  0  0
 41 48  1  0  0  0
 42 43  1  0  0  0
 42 66  1  0  0  0
 42110  1  0  0  0
 42111  1  0  0  0
 43 44  1  0  0  0
 44112  1  0  0  0
 45 46  2  0  0  0
 45113  1  0  0  0
 46114  1  0  0  0
 47115  1  0  0  0
 47116  1  0  0  0
 48 56  1  0  0  0
 48 65  1  0  0  0
 48117  1  0  0  0
 49 50  1  0  0  0
 49 53  1  0  0  0
 49 64  1  0  0  0
 49118  1  0  0  0
 50 51  1  0  0  0
 50119  1  0  0  0
 50120  1  0  0  0
 51 52  1  0  0  0
 51121  1  0  0  0
 51122  1  0  0  0
 52123  1  0  0  0
 52124  1  0  0  0
 53 54  1  0  0  0
 54 55  2  0  0  0
 54125  1  0  0  0
 55 57  1  0  0  0
 55126  1  0  0  0
 56 69  2  0  0  0
 57 58  2  0  0  0
 57127  1  0  0  0
 58128  1  0  0  0
 59 60  1  0  0  0
 59 61  1  0  0  0
 59 62  1  0  0  0
 60129  1  0  0  0
 60130  1  0  0  0
 60131  1  0  0  0
 61132  1  0  0  0
 61133  1  0  0  0
 61134  1  0  0  0
 62135  1  0  0  0
 62136  1  0  0  0
 62137  1  0  0  0
 63 65  1  0  0  0
 63138  1  0  0  0
 63139  1  0  0  0
 63140  1  0  0  0
 64141  1  0  0  0
 65142  1  0  0  0
 68 79  1  0  0  0
 71 72  2  0  0  0
 71 74  1  0  0  0
 71 83  1  0  0  0
 72 77  1  0  0  0
 72 80  1  0  0  0
 73 80  2  0  0  0
 73 81  1  0  0  0
 73 83  1  0  0  0
 74 75  2  0  0  0
 74143  1  0  0  0
 75144  1  0  0  0
 76 79  1  0  0  0
 76 81  1  0  0  0
 76 82  2  0  0  0
 77145  1  0  0  0
 77146  1  0  0  0
 77147  1  0  0  0
 78148  1  0  0  0
 78149  1  0  0  0
 78150  1  0  0  0
 78 79  1  0  0  0
 79151  1  0  0  0
 81152  1  0  0  0
M  ISO  4   1 100  68 101  75 100  79 101
M  END
> <chiral flag>
0

> <version>
0

> <s_m_source_file>
/data/baiqing/PycharmProjects/Reinvent-master-3.2/result/LINK_invent/BTK/process_docking_weight1_custom_product_contain_oxygen_bond_distance_aromatic_linkinvent_7_9_3/rearranged_h_0187.sdf

> <i_m_source_file_index>
80

> <r_mmod_Potential_Energy-OPLS-2005>
107.85620880127

> <r_mmod_Stretch_Energy-OPLS-2005>
109.050018310547

> <r_mmod_Bend_Energy-OPLS-2005>
181.40412902832

> <r_mmod_Torsional_Energy-OPLS-2005>
221.886978149414

> <r_mmod_Improper_Torsional_Energy-OPLS-2005>
3.85767436027527

> <r_mmod_Van_der_Waal_Energy-OPLS-2005>
122.950843811035

> <r_mmod_Electrostatic_Energy-OPLS-2005>
-366.022308349609

> <r_mmod_Solvation_Energy-OPLS-2005>
-241.613906860352

> <b_mmod_Minimization_Converged-OPLS-2005>
0

> <r_mmod_RMS_Derivative-OPLS-2005>
0.4203080534935

$$$$
82
                    3D
 Structure written by MMmdl.
153161  0  0  1  0            999 V2000
  -29.2454  -16.3865   20.3353 C   0  0  0  0  0  0
  -30.1642  -13.7488   19.5763 C   0  0  0  0  0  0
  -29.5096  -12.8845   18.4271 C   0  0  0  0  0  0
  -28.1644  -12.2982   18.8674 C   0  0  0  0  0  0
  -27.4772  -13.3121   19.7922 C   0  0  2  0  0  0
  -28.3388  -13.8643   20.9327 C   0  0  0  0  0  0
  -25.1778  -13.8181   20.5728 C   0  0  0  0  0  0
  -24.1323  -13.0317   20.9406 C   0  0  0  0  0  0
  -24.6082  -11.6838   20.8854 C   0  0  0  0  0  0
  -23.8905  -10.4209   21.0476 C   0  0  0  0  0  0
  -24.3537   -9.4149   21.9224 C   0  0  0  0  0  0
  -23.6247   -8.2175   22.0767 C   0  0  0  0  0  0
  -22.4238   -8.0214   21.3547 C   0  0  0  0  0  0
  -21.9837   -9.0165   20.4651 C   0  0  0  0  0  0
  -22.7124  -10.2051   20.3075 C   0  0  0  0  0  0
  -21.6830   -6.0704   22.5288 C   0  0  0  0  0  0
  -21.3996   -6.5621   23.8216 C   0  0  0  0  0  0
  -21.3651   -5.6782   24.9182 C   0  0  0  0  0  0
  -21.6042   -4.3045   24.7236 C   0  0  0  0  0  0
  -21.8824   -3.8130   23.4361 C   0  0  0  0  0  0
  -21.9188   -4.6940   22.3414 C   0  0  0  0  0  0
  -22.7408  -13.5097   21.2044 C   0  0  0  0  0  0
  -22.1661   -4.2126   21.0991 F   0  0  0  0  0  0
  -21.5630   -3.4535   25.7753 F   0  0  0  0  0  0
  -29.2037  -14.8388   20.2525 N   0  0  0  0  0  0
  -26.1989  -12.9392   20.2945 N   0  0  0  0  0  0
  -25.8930  -11.6505   20.5587 N   0  0  0  0  0  0
  -22.0084  -12.8086   22.0589 N   0  0  0  0  0  0
  -25.3410  -15.1939   20.4047 N   0  0  0  0  0  0
  -30.5232  -16.4321   20.2141 O   0  0  0  0  0  0
  -21.6609   -6.8821   21.4241 O   0  0  0  0  0  0
  -22.3166  -14.5420   20.6863 O   0  0  0  0  0  0
  -24.7225  -31.6363   22.6340 C   0  0  0  0  0  0
  -25.9067  -32.3379   23.5411 C   0  0  1  0  0  0
  -26.4210  -28.1514   21.6535 C   0  0  0  0  0  0
  -25.5055  -33.7212   23.9686 N   0  0  0  0  0  0
  -24.2826  -29.1761   20.7336 C   0  0  2  0  0  0
  -25.6779  -28.9064   19.3229 C   0  0  0  0  0  0
  -23.8818  -27.3078   22.6296 C   0  0  0  0  0  0
  -18.1815  -28.0552   22.8174 C   0  0  0  0  0  0
  -24.1429  -36.6763   23.2788 C   0  0  0  0  0  0
  -26.0435  -31.0626   20.6635 C   0  0  0  0  0  0
  -26.5578  -29.7292   20.1258 C   0  0  0  0  0  0
  -27.3239  -29.0220   21.0466 C   0  0  0  0  0  0
  -26.1586  -27.1006   20.6569 C   0  0  0  0  0  0
  -25.7363  -27.5096   19.3895 C   0  0  0  0  0  0
  -24.3061  -29.2845   19.2538 C   0  0  0  0  0  0
  -25.4181  -36.2257   24.0117 C   0  0  1  0  0  0
  -20.8080  -27.4851   23.1435 C   0  0  2  0  0  0
  -20.3881  -26.2128   22.4913 C   0  0  0  0  0  0
  -19.3480  -26.3833   21.4176 C   0  0  0  0  0  0
  -18.0600  -26.7382   22.0982 C   0  0  0  0  0  0
  -19.4739  -28.5579   23.2677 C   0  0  0  0  0  0
  -19.2776  -29.8375   23.9262 C   0  0  0  0  0  0
  -18.0164  -30.5084   24.0699 C   0  0  0  0  0  0
  -25.9162  -34.8790   23.4213 C   0  0  0  0  0  0
  -16.8202  -29.9339   23.6206 C   0  0  0  0  0  0
  -16.9201  -28.6902   22.9990 C   0  0  0  0  0  0
  -26.4216  -31.6384   24.9093 C   0  0  0  0  0  0
  -25.3632  -31.4535   26.0285 C   0  0  0  0  0  0
  -27.0514  -30.2650   24.6401 C   0  0  0  0  0  0
  -27.5613  -32.4773   25.5652 C   0  0  0  0  0  0
  -27.5483  -37.1436   24.8473 C   0  0  0  0  0  0
  -22.4458  -27.2032   23.2525 N   0  0  0  0  0  0
  -26.4151  -37.3245   23.9452 N   0  0  0  0  0  0
  -24.7850  -30.8316   21.3574 N   0  0  0  0  0  0
  -24.3571  -27.3430   23.7552 O   0  0  0  0  0  0
  -25.3620  -28.9827   22.5439 O   0  0  0  0  0  0
  -26.6540  -34.8956   22.4368 O   0  0  0  0  0  0
  -23.6511  -32.0122   23.1416 O   0  0  0  0  0  0
  -25.8967  -21.3640   20.5404 C   0  0  0  0  0  0
  -24.5288  -21.2002   20.8643 C   0  0  0  0  0  0
  -24.1999  -24.1659   20.6670 C   0  0  0  0  0  0
  -22.4236  -27.4934   20.6895 C   0  0  0  0  0  0
  -23.9218  -19.8494   21.0400 C   0  0  0  0  0  0
  -22.4284  -29.7590   23.8347 C   0  0  0  0  0  0
  -27.4145  -19.7196   20.3819 C   0  0  0  0  0  0
  -22.9111  -29.3390   22.3650 C   0  0  1  0  0  0
  -25.4860  -23.1230   20.3937 N   0  0  0  0  0  0
  -23.2273  -25.9075   20.3890 N   0  0  0  0  0  0
  -28.0717  -17.7239   20.4091 N   0  0  0  0  0  0
  -21.5946  -27.8097   19.8364 O   0  0  0  0  0  0
  -23.2812  -22.6377   21.0625 S   0  0  0  0  0  0
  -31.0221  -14.2628   19.1406 H   0  0  0  0  0  0
  -30.6147  -13.0948   20.3253 H   0  0  0  0  0  0
  -30.1844  -12.0926   18.0987 H   0  0  0  0  0  0
  -29.3463  -13.5255   17.5595 H   0  0  0  0  0  0
  -28.3408  -11.3721   19.4154 H   0  0  0  0  0  0
  -27.5385  -12.0465   18.0104 H   0  0  0  0  0  0
  -27.2575  -14.1366   19.1097 H   0  0  0  0  0  0
  -28.8444  -13.0885   21.5096 H   0  0  0  0  0  0
  -27.7406  -14.4235   21.6533 H   0  0  0  0  0  0
  -25.2672   -9.5667   22.4799 H   0  0  0  0  0  0
  -23.9966   -7.4572   22.7483 H   0  0  0  0  0  0
  -21.0770   -8.8667   19.8960 H   0  0  0  0  0  0
  -22.3578  -10.9599   19.6197 H   0  0  0  0  0  0
  -21.1981   -7.6129   23.9709 H   0  0  0  0  0  0
  -21.1467   -6.0517   25.9082 H   0  0  0  0  0  0
  -22.0610   -2.7591   23.2871 H   0  0  0  0  0  0
  -22.3708  -11.9734   22.4955 H   0  0  0  0  0  0
  -21.0715  -13.1122   22.2831 H   0  0  0  0  0  0
  -24.5092  -15.7747   20.4235 H   0  0  0  0  0  0
  -26.0297  -15.5250   19.7438 H   0  0  0  0  0  0
  -26.8031  -32.4599   22.9445 H   0  0  0  0  0  0
  -24.8321  -33.7713   24.7188 H   0  0  0  0  0  0
  -23.3639  -29.6185   20.3028 H   0  0  0  0  0  0
  -23.3762  -35.9005   23.3187 H   0  0  0  0  0  0
  -24.3358  -36.8907   22.2262 H   0  0  0  0  0  0
  -23.7172  -37.5717   23.7319 H   0  0  0  0  0  0
  -25.8338  -31.7164   19.8163 H   0  0  0  0  0  0
  -26.8530  -31.5517   21.1896 H   0  0  0  0  0  0
  -27.8467  -29.6779   21.7232 H   0  0  0  0  0  0
  -25.9592  -26.0900   20.9729 H   0  0  0  0  0  0
  -25.1851  -26.8338   18.7501 H   0  0  0  0  0  0
  -24.2488  -30.2822   18.7903 H   0  0  0  0  0  0
  -23.7227  -28.5822   18.6486 H   0  0  0  0  0  0
  -25.1584  -36.0570   25.0585 H   0  0  0  0  0  0
  -20.6976  -27.2423   24.2023 H   0  0  0  0  0  0
  -19.9706  -25.5574   23.2589 H   0  0  0  0  0  0
  -21.2037  -25.6034   22.1051 H   0  0  0  0  0  0
  -19.2245  -25.4473   20.8735 H   0  0  0  0  0  0
  -19.5618  -27.1527   20.6872 H   0  0  0  0  0  0
  -17.2767  -26.7982   21.3408 H   0  0  0  0  0  0
  -17.7411  -25.9631   22.7994 H   0  0  0  0  0  0
  -20.0724  -30.3316   24.4467 H   0  0  0  0  0  0
  -17.9820  -31.4558   24.5910 H   0  0  0  0  0  0
  -15.8680  -30.4288   23.7535 H   0  0  0  0  0  0
  -16.0130  -28.2237   22.6384 H   0  0  0  0  0  0
  -24.6029  -30.7283   25.7748 H   0  0  0  0  0  0
  -24.8583  -32.3891   26.2683 H   0  0  0  0  0  0
  -25.8233  -31.0967   26.9515 H   0  0  0  0  0  0
  -26.2974  -29.4886   24.5620 H   0  0  0  0  0  0
  -27.6891  -29.9421   25.4639 H   0  0  0  0  0  0
  -27.6716  -30.2707   23.7490 H   0  0  0  0  0  0
  -27.2118  -33.4480   25.9181 H   0  0  0  0  0  0
  -28.3645  -32.6675   24.8512 H   0  0  0  0  0  0
  -28.0066  -31.9787   26.4274 H   0  0  0  0  0  0
  -28.2364  -37.9865   24.7614 H   0  0  0  0  0  0
  -28.1118  -36.2370   24.6196 H   0  0  0  0  0  0
  -27.2212  -37.0909   25.8877 H   0  0  0  0  0  0
  -22.6091  -26.7875   24.1604 H   0  0  0  0  0  0
  -25.9805  -38.2173   24.1617 H   0  0  0  0  0  0
  -24.6632  -19.0545   20.9586 H   0  0  0  0  0  0
  -23.1681  -19.6758   20.2715 H   0  0  0  0  0  0
  -23.4318  -19.7638   22.0094 H   0  0  0  0  0  0
  -21.9113  -30.7140   23.8332 H   0  0  0  0  0  0
  -23.3327  -29.8921   24.4101 H   0  0  0  0  0  0
  -21.8670  -29.1185   24.4989 H   0  0  0  0  0  0
  -28.1799  -20.1018   21.0567 H   0  0  0  0  0  0
  -27.8279  -19.9462   19.4005 H   0  0  0  0  0  0
  -22.4783  -30.2355   21.8988 H   0  0  0  0  0  0
  -22.8219  -25.7443   19.4772 H   0  0  0  0  0  0
  -27.2044  -17.2134   20.5010 H   0  0  0  0  0  0
  1 25  1  0  0  0
  1 30  2  0  0  0
  1 81  1  0  0  0
  2  3  1  0  0  0
  2 25  1  0  0  0
  2 84  1  0  0  0
  2 85  1  0  0  0
  3  4  1  0  0  0
  3 86  1  0  0  0
  3 87  1  0  0  0
  4  5  1  0  0  0
  4 88  1  0  0  0
  4 89  1  0  0  0
  5  6  1  0  0  0
  5 26  1  0  0  0
  5 90  1  0  0  0
  6 25  1  0  0  0
  6 91  1  0  0  0
  6 92  1  0  0  0
  7  8  2  0  0  0
  7 26  1  0  0  0
  7 29  1  0  0  0
  8  9  1  0  0  0
  8 22  1  0  0  0
  9 10  1  0  0  0
  9 27  2  0  0  0
 10 11  2  0  0  0
 10 15  1  0  0  0
 11 12  1  0  0  0
 11 93  1  0  0  0
 12 13  2  0  0  0
 12 94  1  0  0  0
 13 14  1  0  0  0
 13 31  1  0  0  0
 14 15  2  0  0  0
 14 95  1  0  0  0
 15 96  1  0  0  0
 16 17  2  0  0  0
 16 21  1  0  0  0
 16 31  1  0  0  0
 17 18  1  0  0  0
 17 97  1  0  0  0
 18 19  2  0  0  0
 18 98  1  0  0  0
 19 20  1  0  0  0
 19 24  1  0  0  0
 20 21  2  0  0  0
 20 99  1  0  0  0
 21 23  1  0  0  0
 22 28  1  0  0  0
 22 32  2  0  0  0
 26 27  1  0  0  0
 28100  1  0  0  0
 28101  1  0  0  0
 29102  1  0  0  0
 29103  1  0  0  0
 33 34  1  0  0  0
 33 66  1  0  0  0
 33 70  2  0  0  0
 34 36  1  0  0  0
 34 59  1  0  0  0
 34104  1  0  0  0
 35 44  2  0  0  0
 35 45  1  0  0  0
 35 68  1  0  0  0
 36 56  1  0  0  0
 36105  1  0  0  0
 37 39  1  0  0  0
 37 47  1  0  0  0
 37 66  1  0  0  0
 37106  1  0  0  0
 38 43  2  0  0  0
 38 46  1  0  0  0
 38 47  1  0  0  0
 39 64  1  0  0  0
 39 67  2  0  0  0
 40 52  1  0  0  0
 40 53  2  0  0  0
 40 58  1  0  0  0
 41107  1  0  0  0
 41108  1  0  0  0
 41109  1  0  0  0
 41 48  1  0  0  0
 42 43  1  0  0  0
 42 66  1  0  0  0
 42110  1  0  0  0
 42111  1  0  0  0
 43 44  1  0  0  0
 44112  1  0  0  0
 45 46  2  0  0  0
 45113  1  0  0  0
 46114  1  0  0  0
 47115  1  0  0  0
 47116  1  0  0  0
 48 56  1  0  0  0
 48 65  1  0  0  0
 48117  1  0  0  0
 49 50  1  0  0  0
 49 53  1  0  0  0
 49 64  1  0  0  0
 49118  1  0  0  0
 50 51  1  0  0  0
 50119  1  0  0  0
 50120  1  0  0  0
 51 52  1  0  0  0
 51121  1  0  0  0
 51122  1  0  0  0
 52123  1  0  0  0
 52124  1  0  0  0
 53 54  1  0  0  0
 54 55  2  0  0  0
 54125  1  0  0  0
 55 57  1  0  0  0
 55126  1  0  0  0
 56 69  2  0  0  0
 57 58  2  0  0  0
 57127  1  0  0  0
 58128  1  0  0  0
 59 60  1  0  0  0
 59 61  1  0  0  0
 59 62  1  0  0  0
 60129  1  0  0  0
 60130  1  0  0  0
 60131  1  0  0  0
 61132  1  0  0  0
 61133  1  0  0  0
 61134  1  0  0  0
 62135  1  0  0  0
 62136  1  0  0  0
 62137  1  0  0  0
 63 65  1  0  0  0
 63138  1  0  0  0
 63139  1  0  0  0
 63140  1  0  0  0
 64141  1  0  0  0
 65142  1  0  0  0
 68 78  1  0  0  0
 71 72  2  0  0  0
 71 77  1  0  0  0
 71 79  1  0  0  0
 72 75  1  0  0  0
 72 83  1  0  0  0
 73 79  2  0  0  0
 73 80  1  0  0  0
 73 83  1  0  0  0
 74 78  1  0  0  0
 74 80  1  0  0  0
 74 82  2  0  0  0
 75143  1  0  0  0
 75144  1  0  0  0
 75145  1  0  0  0
 76146  1  0  0  0
 76147  1  0  0  0
 76148  1  0  0  0
 76 78  1  0  0  0
 77 81  1  0  0  0
 77149  1  0  0  0
 77150  1  0  0  0
 78151  1  0  0  0
 80152  1  0  0  0
 81153  1  0  0  0
M  ISO  4   1 100  68 101  78 101  81 100
M  END
> <chiral flag>
0

> <version>
0

> <s_m_source_file>
/data/baiqing/PycharmProjects/Reinvent-master-3.2/result/LINK_invent/BTK/process_docking_weight1_custom_product_contain_oxygen_bond_distance_aromatic_linkinvent_7_9_3/rearranged_h_0187.sdf

> <i_m_source_file_index>
81

> <r_mmod_Potential_Energy-OPLS-2005>
20937.77734375

> <r_mmod_Stretch_Energy-OPLS-2005>
8889.505859375

> <r_mmod_Bend_Energy-OPLS-2005>
2300.09692382812

> <r_mmod_Torsional_Energy-OPLS-2005>
672.58154296875

> <r_mmod_Improper_Torsional_Energy-OPLS-2005>
124.422325134277

> <r_mmod_Van_der_Waal_Energy-OPLS-2005>
2477.95166015625

> <r_mmod_Electrostatic_Energy-OPLS-2005>
-475.232116699219

> <r_mmod_Solvation_Energy-OPLS-2005>
-241.618942260742

> <b_mmod_Minimization_Converged-OPLS-2005>
0

> <r_mmod_RMS_Derivative-OPLS-2005>
5.80319929122925

$$$$
83
                    3D
 Structure written by MMmdl.
151159  0  0  1  0            999 V2000
  -30.5839  -14.6832   20.4626 C   0  0  0  0  0  0
  -30.4330  -12.3976   19.4475 C   0  0  0  0  0  0
  -29.4990  -12.4904   18.2179 C   0  0  0  0  0  0
  -28.0247  -12.3175   18.6359 C   0  0  0  0  0  0
  -27.6447  -13.2026   19.8502 C   0  0  2  0  0  0
  -28.6930  -13.0776   20.9799 C   0  0  0  0  0  0
  -25.2616  -13.8130   20.5841 C   0  0  0  0  0  0
  -24.1800  -13.0374   20.9214 C   0  0  0  0  0  0
  -24.6354  -11.6855   20.8742 C   0  0  0  0  0  0
  -23.9045  -10.4234   21.0423 C   0  0  0  0  0  0
  -24.3585   -9.4151   21.9215 C   0  0  0  0  0  0
  -23.6252   -8.2197   22.0774 C   0  0  0  0  0  0
  -22.4252   -8.0237   21.3562 C   0  0  0  0  0  0
  -21.9877   -9.0220   20.4673 C   0  0  0  0  0  0
  -22.7214  -10.2100   20.3081 C   0  0  0  0  0  0
  -21.6837   -6.0729   22.5287 C   0  0  0  0  0  0
  -21.3996   -6.5643   23.8214 C   0  0  0  0  0  0
  -21.3648   -5.6778   24.9167 C   0  0  0  0  0  0
  -21.6034   -4.3044   24.7213 C   0  0  0  0  0  0
  -21.8808   -3.8150   23.4324 C   0  0  0  0  0  0
  -21.9178   -4.6969   22.3388 C   0  0  0  0  0  0
  -22.7849  -13.5211   21.1868 C   0  0  0  0  0  0
  -22.1661   -4.2154   21.0962 F   0  0  0  0  0  0
  -21.5615   -3.4500   25.7722 F   0  0  0  0  0  0
  -30.0035  -13.4333   20.4128 N   0  0  0  0  0  0
  -26.2945  -12.9250   20.3268 N   0  0  0  0  0  0
  -25.9267  -11.6429   20.5710 N   0  0  0  0  0  0
  -22.0440  -12.8242   22.0405 N   0  0  0  0  0  0
  -25.4453  -15.1863   20.4716 N   0  0  0  0  0  0
  -31.7402  -14.8391   20.0477 O   0  0  0  0  0  0
  -21.6610   -6.8846   21.4246 O   0  0  0  0  0  0
  -22.3587  -14.5529   20.6703 O   0  0  0  0  0  0
  -24.6276  -31.8577   23.2016 C   0  0  0  0  0  0
  -25.9136  -32.4791   23.8331 C   0  0  1  0  0  0
  -27.2259  -27.2908   20.1212 C   0  0  0  0  0  0
  -25.5954  -33.8600   24.2269 N   0  0  0  0  0  0
  -23.4248  -30.4787   21.5441 C   0  0  2  0  0  0
  -24.8741  -28.9255   20.1119 C   0  0  0  0  0  0
  -22.7526  -29.4597   22.4933 C   0  0  0  0  0  0
  -18.0322  -28.1339   22.8519 C   0  0  0  0  0  0
  -24.1477  -36.7282   23.2629 C   0  0  0  0  0  0
  -25.9668  -30.7729   21.3805 C   0  0  0  0  0  0
  -26.0420  -29.3980   20.7240 C   0  0  0  0  0  0
  -27.2228  -28.5932   20.7178 C   0  0  0  0  0  0
  -26.0398  -26.8780   19.4826 C   0  0  0  0  0  0
  -24.8791  -27.6769   19.4724 C   0  0  0  0  0  0
  -23.6438  -29.8088   20.1601 C   0  0  0  0  0  0
  -25.4111  -36.3097   24.0319 C   0  0  1  0  0  0
  -20.5922  -28.3698   23.1282 C   0  0  2  0  0  0
  -20.6843  -26.9392   22.5458 C   0  0  0  0  0  0
  -19.5743  -26.6160   21.5399 C   0  0  0  0  0  0
  -18.1964  -26.7805   22.1823 C   0  0  0  0  0  0
  -19.1580  -28.8842   23.2862 C   0  0  0  0  0  0
  -18.9478  -30.1470   23.8860 C   0  0  0  0  0  0
  -17.6478  -30.6593   24.0525 C   0  0  0  0  0  0
  -25.9056  -34.9466   23.5102 C   0  0  0  0  0  0
  -16.5370  -29.9068   23.6299 C   0  0  0  0  0  0
  -16.7314  -28.6462   23.0387 C   0  0  0  0  0  0
  -26.4509  -31.6618   25.0729 C   0  0  0  0  0  0
  -25.3715  -31.3816   26.1451 C   0  0  0  0  0  0
  -27.0346  -30.3016   24.6236 C   0  0  0  0  0  0
  -27.6062  -32.4360   25.7518 C   0  0  0  0  0  0
  -27.5588  -37.1811   24.8466 C   0  0  0  0  0  0
  -21.4234  -29.3047   22.3702 N   0  0  0  0  0  0
  -26.4296  -37.3789   23.9406 N   0  0  0  0  0  0
  -24.6908  -31.0540   22.0973 N   0  0  0  0  0  0
  -23.4220  -28.8143   23.3032 O   0  0  0  0  0  0
  -28.3369  -26.4284   20.1121 O   0  0  0  0  0  0
  -26.5609  -34.8928   22.4662 O   0  0  0  0  0  0
  -23.5453  -32.1393   23.7322 O   0  0  0  0  0  0
  -30.6379  -17.8706   19.2911 C   0  0  0  0  0  0
  -29.8936  -17.3983   20.3546 C   0  0  0  0  0  0
  -29.6405  -19.9183   19.8207 C   0  0  0  0  0  0
  -28.5490  -22.2808   20.1071 C   0  0  0  0  0  0
  -27.7704  -23.8310   18.2546 C   0  0  0  0  0  0
  -28.1569  -24.9983   20.5170 C   0  0  0  0  0  0
  -29.7410  -15.9581   20.9542 C   0  0  2  0  0  0
  -28.5959  -23.7815   19.5552 C   0  0  1  0  0  0
  -30.4904  -19.2572   19.0152 N   0  0  0  0  0  0
  -29.4564  -21.3631   19.6339 N   0  0  0  0  0  0
  -27.6633  -21.9651   20.9069 O   0  0  0  0  0  0
  -29.8263  -16.0011   22.2847 F   0  0  0  0  0  0
  -28.9418  -18.7758   21.0054 S   0  0  0  0  0  0
  -31.4708  -12.5178   19.1348 H   0  0  0  0  0  0
  -30.3722  -11.4060   19.8958 H   0  0  0  0  0  0
  -29.7655  -11.7305   17.4801 H   0  0  0  0  0  0
  -29.6337  -13.4564   17.7312 H   0  0  0  0  0  0
  -27.8795  -11.2662   18.8893 H   0  0  0  0  0  0
  -27.3598  -12.5214   17.7956 H   0  0  0  0  0  0
  -27.6458  -14.2232   19.4761 H   0  0  0  0  0  0
  -28.7184  -12.0623   21.3800 H   0  0  0  0  0  0
  -28.4251  -13.7170   21.8214 H   0  0  0  0  0  0
  -25.2698   -9.5605   22.4831 H   0  0  0  0  0  0
  -23.9923   -7.4575   22.7487 H   0  0  0  0  0  0
  -21.0800   -8.8762   19.9000 H   0  0  0  0  0  0
  -22.3652  -10.9665   19.6218 H   0  0  0  0  0  0
  -21.2010   -7.6151   23.9723 H   0  0  0  0  0  0
  -21.1495   -6.0500   25.9074 H   0  0  0  0  0  0
  -22.0620   -2.7609   23.2804 H   0  0  0  0  0  0
  -22.3960  -11.9836   22.4752 H   0  0  0  0  0  0
  -21.1128  -13.1460   22.2645 H   0  0  0  0  0  0
  -24.7201  -15.8342   20.7607 H   0  0  0  0  0  0
  -26.3371  -15.6441   20.3210 H   0  0  0  0  0  0
  -26.7207  -32.5449   23.1079 H   0  0  0  0  0  0
  -25.0175  -33.9713   25.0463 H   0  0  0  0  0  0
  -22.7192  -31.3012   21.4001 H   0  0  0  0  0  0
  -23.3752  -35.9610   23.3316 H   0  0  0  0  0  0
  -24.3575  -36.8882   22.2046 H   0  0  0  0  0  0
  -23.7213  -37.6481   23.6631 H   0  0  0  0  0  0
  -26.1037  -31.5370   20.6139 H   0  0  0  0  0  0
  -26.8433  -30.8232   22.0185 H   0  0  0  0  0  0
  -28.1179  -28.9516   21.2009 H   0  0  0  0  0  0
  -26.0083  -25.9262   18.9768 H   0  0  0  0  0  0
  -23.9961  -27.3201   18.9625 H   0  0  0  0  0  0
  -23.7658  -30.5837   19.4001 H   0  0  0  0  0  0
  -22.7606  -29.2415   19.8567 H   0  0  0  0  0  0
  -25.1302  -36.1952   25.0814 H   0  0  0  0  0  0
  -21.0025  -28.3292   24.1391 H   0  0  0  0  0  0
  -20.5911  -26.2342   23.3723 H   0  0  0  0  0  0
  -21.6640  -26.7473   22.1105 H   0  0  0  0  0  0
  -19.6877  -25.5939   21.1724 H   0  0  0  0  0  0
  -19.6617  -27.2696   20.6715 H   0  0  0  0  0  0
  -17.4196  -26.6387   21.4303 H   0  0  0  0  0  0
  -18.0423  -26.0066   22.9388 H   0  0  0  0  0  0
  -19.7950  -30.7294   24.2175 H   0  0  0  0  0  0
  -17.5028  -31.6260   24.5141 H   0  0  0  0  0  0
  -15.5381  -30.2950   23.7622 H   0  0  0  0  0  0
  -15.8716  -28.0745   22.7163 H   0  0  0  0  0  0
  -24.5845  -30.7224   25.7779 H   0  0  0  0  0  0
  -24.8951  -32.3007   26.4861 H   0  0  0  0  0  0
  -25.7995  -30.8985   27.0235 H   0  0  0  0  0  0
  -26.2927  -29.6791   24.1221 H   0  0  0  0  0  0
  -27.3957  -29.7296   25.4790 H   0  0  0  0  0  0
  -27.8847  -30.4286   23.9530 H   0  0  0  0  0  0
  -27.2646  -33.3620   26.2159 H   0  0  0  0  0  0
  -28.3842  -32.7000   25.0340 H   0  0  0  0  0  0
  -28.0759  -31.8450   26.5387 H   0  0  0  0  0  0
  -28.2622  -38.0095   24.7512 H   0  0  0  0  0  0
  -28.1065  -36.2635   24.6294 H   0  0  0  0  0  0
  -27.2309  -37.1473   25.8868 H   0  0  0  0  0  0
  -20.9404  -29.8853   21.6999 H   0  0  0  0  0  0
  -26.0185  -38.2870   24.1418 H   0  0  0  0  0  0
  -31.2945  -17.2970   18.6469 H   0  0  0  0  0  0
  -27.9757  -22.9815   17.6044 H   0  0  0  0  0  0
  -27.9951  -24.7274   17.6773 H   0  0  0  0  0  0
  -26.7007  -23.8318   18.4612 H   0  0  0  0  0  0
  -28.7470  -24.8908   21.4290 H   0  0  0  0  0  0
  -27.1305  -24.8368   20.8489 H   0  0  0  0  0  0
  -28.7010  -15.7132   20.7635 H   0  0  0  0  0  0
  -29.6364  -23.9609   19.2863 H   0  0  0  0  0  0
  -30.1143  -21.7616   18.9796 H   0  0  0  0  0  0
  1 25  1  0  0  0
  1 30  2  0  0  0
  1 77  1  0  0  0
  2  3  1  0  0  0
  2 25  1  0  0  0
  2 84  1  0  0  0
  2 85  1  0  0  0
  3  4  1  0  0  0
  3 86  1  0  0  0
  3 87  1  0  0  0
  4  5  1  0  0  0
  4 88  1  0  0  0
  4 89  1  0  0  0
  5  6  1  0  0  0
  5 26  1  0  0  0
  5 90  1  0  0  0
  6 25  1  0  0  0
  6 91  1  0  0  0
  6 92  1  0  0  0
  7  8  2  0  0  0
  7 26  1  0  0  0
  7 29  1  0  0  0
  8  9  1  0  0  0
  8 22  1  0  0  0
  9 10  1  0  0  0
  9 27  2  0  0  0
 10 11  2  0  0  0
 10 15  1  0  0  0
 11 12  1  0  0  0
 11 93  1  0  0  0
 12 13  2  0  0  0
 12 94  1  0  0  0
 13 14  1  0  0  0
 13 31  1  0  0  0
 14 15  2  0  0  0
 14 95  1  0  0  0
 15 96  1  0  0  0
 16 17  2  0  0  0
 16 21  1  0  0  0
 16 31  1  0  0  0
 17 18  1  0  0  0
 17 97  1  0  0  0
 18 19  2  0  0  0
 18 98  1  0  0  0
 19 20  1  0  0  0
 19 24  1  0  0  0
 20 21  2  0  0  0
 20 99  1  0  0  0
 21 23  1  0  0  0
 22 28  1  0  0  0
 22 32  2  0  0  0
 26 27  1  0  0  0
 28100  1  0  0  0
 28101  1  0  0  0
 29102  1  0  0  0
 29103  1  0  0  0
 33 34  1  0  0  0
 33 66  1  0  0  0
 33 70  2  0  0  0
 34 36  1  0  0  0
 34 59  1  0  0  0
 34104  1  0  0  0
 35 44  2  0  0  0
 35 45  1  0  0  0
 35 68  1  0  0  0
 36 56  1  0  0  0
 36105  1  0  0  0
 37 39  1  0  0  0
 37 47  1  0  0  0
 37 66  1  0  0  0
 37106  1  0  0  0
 38 43  2  0  0  0
 38 46  1  0  0  0
 38 47  1  0  0  0
 39 64  1  0  0  0
 39 67  2  0  0  0
 40 52  1  0  0  0
 40 53  2  0  0  0
 40 58  1  0  0  0
 41107  1  0  0  0
 41108  1  0  0  0
 41109  1  0  0  0
 41 48  1  0  0  0
 42 43  1  0  0  0
 42 66  1  0  0  0
 42110  1  0  0  0
 42111  1  0  0  0
 43 44  1  0  0  0
 44112  1  0  0  0
 45 46  2  0  0  0
 45113  1  0  0  0
 46114  1  0  0  0
 47115  1  0  0  0
 47116  1  0  0  0
 48 56  1  0  0  0
 48 65  1  0  0  0
 48117  1  0  0  0
 49 50  1  0  0  0
 49 53  1  0  0  0
 49 64  1  0  0  0
 49118  1  0  0  0
 50 51  1  0  0  0
 50119  1  0  0  0
 50120  1  0  0  0
 51 52  1  0  0  0
 51121  1  0  0  0
 51122  1  0  0  0
 52123  1  0  0  0
 52124  1  0  0  0
 53 54  1  0  0  0
 54 55  2  0  0  0
 54125  1  0  0  0
 55 57  1  0  0  0
 55126  1  0  0  0
 56 69  2  0  0  0
 57 58  2  0  0  0
 57127  1  0  0  0
 58128  1  0  0  0
 59 60  1  0  0  0
 59 61  1  0  0  0
 59 62  1  0  0  0
 60129  1  0  0  0
 60130  1  0  0  0
 60131  1  0  0  0
 61132  1  0  0  0
 61133  1  0  0  0
 61134  1  0  0  0
 62135  1  0  0  0
 62136  1  0  0  0
 62137  1  0  0  0
 63 65  1  0  0  0
 63138  1  0  0  0
 63139  1  0  0  0
 63140  1  0  0  0
 64141  1  0  0  0
 65142  1  0  0  0
 68 76  1  0  0  0
 71 72  2  0  0  0
 71 79  1  0  0  0
 71143  1  0  0  0
 72 77  1  0  0  0
 72 83  1  0  0  0
 73 79  2  0  0  0
 73 80  1  0  0  0
 73 83  1  0  0  0
 74 78  1  0  0  0
 74 80  1  0  0  0
 74 81  2  0  0  0
 75144  1  0  0  0
 75145  1  0  0  0
 75146  1  0  0  0
 75 78  1  0  0  0
 76 78  1  0  0  0
 76147  1  0  0  0
 76148  1  0  0  0
 77 82  1  0  0  0
 77149  1  0  0  0
 78150  1  0  0  0
 80151  1  0  0  0
M  ISO  4   1 100  68 101  76 101  77 100
M  END
> <chiral flag>
0

> <version>
0

> <s_m_source_file>
/data/baiqing/PycharmProjects/Reinvent-master-3.2/result/LINK_invent/BTK/process_docking_weight1_custom_product_contain_oxygen_bond_distance_aromatic_linkinvent_7_9_3/rearranged_h_0187.sdf

> <i_m_source_file_index>
82

> <r_mmod_Potential_Energy-OPLS-2005>
63.8797187805176

> <r_mmod_Stretch_Energy-OPLS-2005>
97.9421234130859

> <r_mmod_Bend_Energy-OPLS-2005>
166.560363769531

> <r_mmod_Torsional_Energy-OPLS-2005>
199.189361572266

> <r_mmod_Improper_Torsional_Energy-OPLS-2005>
3.2843177318573

> <r_mmod_Van_der_Waal_Energy-OPLS-2005>
111.614181518555

> <r_mmod_Electrostatic_Energy-OPLS-2005>
-355.788452148438

> <r_mmod_Solvation_Energy-OPLS-2005>
-220.992111206055

> <b_mmod_Minimization_Converged-OPLS-2005>
0

> <r_mmod_RMS_Derivative-OPLS-2005>
6.13084745407104

$$$$
84
                    3D
 Structure written by MMmdl.
161169  0  0  1  0            999 V2000
  -30.6330  -14.6109   20.5210 C   0  0  0  0  0  0
  -30.4348  -12.3819   19.4490 C   0  0  0  0  0  0
  -29.5032  -12.4877   18.2229 C   0  0  0  0  0  0
  -28.0271  -12.3242   18.6401 C   0  0  0  0  0  0
  -27.6496  -13.2040   19.8651 C   0  0  2  0  0  0
  -28.6923  -13.0614   20.9953 C   0  0  0  0  0  0
  -25.2540  -13.8163   20.5661 C   0  0  0  0  0  0
  -24.1808  -13.0463   20.9222 C   0  0  0  0  0  0
  -24.6343  -11.6907   20.8775 C   0  0  0  0  0  0
  -23.9005  -10.4298   21.0431 C   0  0  0  0  0  0
  -24.3575   -9.4203   21.9192 C   0  0  0  0  0  0
  -23.6266   -8.2231   22.0751 C   0  0  0  0  0  0
  -22.4261   -8.0262   21.3527 C   0  0  0  0  0  0
  -21.9871   -9.0241   20.4631 C   0  0  0  0  0  0
  -22.7180  -10.2138   20.3046 C   0  0  0  0  0  0
  -21.6852   -6.0736   22.5274 C   0  0  0  0  0  0
  -21.4012   -6.5628   23.8210 C   0  0  0  0  0  0
  -21.3652   -5.6780   24.9172 C   0  0  0  0  0  0
  -21.6063   -4.3055   24.7236 C   0  0  0  0  0  0
  -21.8806   -3.8141   23.4347 C   0  0  0  0  0  0
  -21.9194   -4.6959   22.3405 C   0  0  0  0  0  0
  -22.7829  -13.5251   21.1927 C   0  0  0  0  0  0
  -22.1655   -4.2134   21.0994 F   0  0  0  0  0  0
  -21.5634   -3.4529   25.7754 F   0  0  0  0  0  0
  -30.0060  -13.3999   20.4240 N   0  0  0  0  0  0
  -26.2955  -12.9293   20.3323 N   0  0  0  0  0  0
  -25.9271  -11.6484   20.5796 N   0  0  0  0  0  0
  -22.0444  -12.8241   22.0447 N   0  0  0  0  0  0
  -25.4268  -15.1862   20.3973 N   0  0  0  0  0  0
  -31.8094  -14.7660   20.1743 O   0  0  0  0  0  0
  -21.6631   -6.8858   21.4227 O   0  0  0  0  0  0
  -22.3526  -14.5575   20.6794 O   0  0  0  0  0  0
  -24.6196  -31.8649   23.2036 C   0  0  0  0  0  0
  -25.9053  -32.4798   23.8370 C   0  0  1  0  0  0
  -27.2317  -27.3669   20.1333 C   0  0  0  0  0  0
  -25.5914  -33.8598   24.2300 N   0  0  0  0  0  0
  -23.4128  -30.4830   21.5454 C   0  0  2  0  0  0
  -24.8592  -28.9312   20.1240 C   0  0  0  0  0  0
  -22.7440  -29.4651   22.4985 C   0  0  0  0  0  0
  -18.0287  -28.1390   22.8492 C   0  0  0  0  0  0
  -24.1506  -36.7300   23.2635 C   0  0  0  0  0  0
  -25.9459  -30.8099   21.3705 C   0  0  0  0  0  0
  -26.0229  -29.4364   20.7205 C   0  0  0  0  0  0
  -27.2111  -28.6604   20.7171 C   0  0  0  0  0  0
  -26.0486  -26.8870   19.5347 C   0  0  0  0  0  0
  -24.8722  -27.6614   19.5219 C   0  0  0  0  0  0
  -23.6246  -29.8077   20.1635 C   0  0  0  0  0  0
  -25.4125  -36.3098   24.0325 C   0  0  1  0  0  0
  -20.5887  -28.3687   23.1311 C   0  0  2  0  0  0
  -20.6774  -26.9422   22.5411 C   0  0  0  0  0  0
  -19.5751  -26.6396   21.5221 C   0  0  0  0  0  0
  -18.1941  -26.7917   22.1623 C   0  0  0  0  0  0
  -19.1533  -28.8851   23.2899 C   0  0  0  0  0  0
  -18.9455  -30.1456   23.8900 C   0  0  0  0  0  0
  -17.6451  -30.6590   24.0559 C   0  0  0  0  0  0
  -25.9050  -34.9463   23.5112 C   0  0  0  0  0  0
  -16.5353  -29.9093   23.6338 C   0  0  0  0  0  0
  -16.7268  -28.6524   23.0360 C   0  0  0  0  0  0
  -26.4486  -31.6580   25.0715 C   0  0  0  0  0  0
  -25.3750  -31.3727   26.1461 C   0  0  0  0  0  0
  -27.0316  -30.3009   24.6121 C   0  0  0  0  0  0
  -27.6050  -32.4319   25.7460 C   0  0  0  0  0  0
  -27.5597  -37.1807   24.8464 C   0  0  0  0  0  0
  -21.4173  -29.3036   22.3690 N   0  0  0  0  0  0
  -26.4304  -37.3786   23.9407 N   0  0  0  0  0  0
  -24.6770  -31.0682   22.0974 N   0  0  0  0  0  0
  -23.4167  -28.8223   23.3072 O   0  0  0  0  0  0
  -28.3813  -26.5886   20.1236 O   0  0  0  0  0  0
  -26.5614  -34.8919   22.4679 O   0  0  0  0  0  0
  -23.5383  -32.1423   23.7417 O   0  0  0  0  0  0
  -30.2611  -17.2917   22.4966 C   0  0  0  0  0  0
  -30.2935  -19.6681   22.0308 C   0  0  0  0  0  0
  -30.3569  -18.6216   22.9653 C   0  0  0  0  0  0
  -30.0770  -17.0324   21.1228 C   0  0  0  0  0  0
  -30.1167  -19.3753   20.6780 C   0  0  0  0  0  0
  -30.5358  -18.9457   24.3951 C   0  0  0  0  0  0
  -27.9503  -20.8670   18.8965 C   0  0  0  0  0  0
  -28.5267  -24.0165   19.7809 C   0  0  0  0  0  0
  -28.3352  -25.2590   20.7320 C   0  0  0  0  0  0
  -29.2771  -21.4677   19.4063 C   0  0  2  0  0  0
  -29.1398  -22.6918   20.4037 C   0  0  2  0  0  0
  -29.9891  -18.0847   20.2372 N   0  0  0  0  0  0
  -30.6511  -18.0984   25.3304 N   0  0  0  0  0  0
  -29.7992  -15.6629   20.7724 N   0  0  0  0  0  0
  -30.2804  -20.4226   19.7405 N   0  0  0  0  0  0
  -28.3443  -22.2639   21.4927 O   0  0  0  0  0  0
  -31.4793  -12.5131   19.1545 H   0  0  0  0  0  0
  -30.3749  -11.3919   19.9001 H   0  0  0  0  0  0
  -29.7714  -11.7274   17.4901 H   0  0  0  0  0  0
  -29.6403  -13.4536   17.7333 H   0  0  0  0  0  0
  -27.8677  -11.2705   18.8840 H   0  0  0  0  0  0
  -27.3692  -12.5419   17.8005 H   0  0  0  0  0  0
  -27.6625  -14.2360   19.5186 H   0  0  0  0  0  0
  -28.7090  -12.0398   21.3782 H   0  0  0  0  0  0
  -28.4411  -13.6863   21.8535 H   0  0  0  0  0  0
  -25.2708   -9.5734   22.4766 H   0  0  0  0  0  0
  -24.0006   -7.4629   22.7436 H   0  0  0  0  0  0
  -21.0813   -8.8744   19.8914 H   0  0  0  0  0  0
  -22.3607  -10.9696   19.6174 H   0  0  0  0  0  0
  -21.1978   -7.6127   23.9712 H   0  0  0  0  0  0
  -21.1495   -6.0514   25.9087 H   0  0  0  0  0  0
  -22.0594   -2.7589   23.2863 H   0  0  0  0  0  0
  -22.4050  -11.9899   22.4839 H   0  0  0  0  0  0
  -21.1061  -13.1258   22.2659 H   0  0  0  0  0  0
  -24.6491  -15.8341   20.4653 H   0  0  0  0  0  0
  -26.2559  -15.6096   20.0028 H   0  0  0  0  0  0
  -26.7109  -32.5504   23.1125 H   0  0  0  0  0  0
  -25.0052  -33.9730   25.0449 H   0  0  0  0  0  0
  -22.7039  -31.2998   21.3986 H   0  0  0  0  0  0
  -23.3767  -35.9639   23.3302 H   0  0  0  0  0  0
  -24.3609  -36.8912   22.2054 H   0  0  0  0  0  0
  -23.7257  -37.6499   23.6654 H   0  0  0  0  0  0
  -26.0684  -31.5727   20.5996 H   0  0  0  0  0  0
  -26.8288  -30.8611   21.9966 H   0  0  0  0  0  0
  -28.1093  -29.0388   21.1824 H   0  0  0  0  0  0
  -26.0391  -25.9106   19.0753 H   0  0  0  0  0  0
  -23.9755  -27.2659   19.0654 H   0  0  0  0  0  0
  -23.7437  -30.5789   19.3989 H   0  0  0  0  0  0
  -22.7483  -29.2266   19.8680 H   0  0  0  0  0  0
  -25.1312  -36.1959   25.0814 H   0  0  0  0  0  0
  -20.9972  -28.3281   24.1429 H   0  0  0  0  0  0
  -20.5744  -26.2299   23.3620 H   0  0  0  0  0  0
  -21.6660  -26.7490   22.1187 H   0  0  0  0  0  0
  -19.6935  -25.6328   21.1243 H   0  0  0  0  0  0
  -19.6697  -27.3224   20.6783 H   0  0  0  0  0  0
  -17.4223  -26.6700   21.4018 H   0  0  0  0  0  0
  -18.0313  -26.0056   22.9007 H   0  0  0  0  0  0
  -19.7949  -30.7280   24.2273 H   0  0  0  0  0  0
  -17.5022  -31.6270   24.5177 H   0  0  0  0  0  0
  -15.5363  -30.2992   23.7659 H   0  0  0  0  0  0
  -15.8669  -28.0828   22.7061 H   0  0  0  0  0  0
  -24.5890  -30.7091   25.7837 H   0  0  0  0  0  0
  -24.8979  -32.2904   26.4909 H   0  0  0  0  0  0
  -25.8096  -30.8907   27.0226 H   0  0  0  0  0  0
  -26.2891  -29.6774   24.1105 H   0  0  0  0  0  0
  -27.4002  -29.7220   25.4605 H   0  0  0  0  0  0
  -27.8771  -30.4306   23.9351 H   0  0  0  0  0  0
  -27.2638  -33.3604   26.2052 H   0  0  0  0  0  0
  -28.3830  -32.6897   25.0260 H   0  0  0  0  0  0
  -28.0743  -31.8435   26.5355 H   0  0  0  0  0  0
  -28.2610  -38.0110   24.7503 H   0  0  0  0  0  0
  -28.1091  -36.2629   24.6300 H   0  0  0  0  0  0
  -27.2303  -37.1471   25.8863 H   0  0  0  0  0  0
  -20.9362  -29.8682   21.6822 H   0  0  0  0  0  0
  -26.0194  -38.2869   24.1382 H   0  0  0  0  0  0
  -30.3148  -16.4751   23.2024 H   0  0  0  0  0  0
  -30.4162  -20.6957   22.3449 H   0  0  0  0  0  0
  -30.5701  -20.0114   24.6368 H   0  0  0  0  0  0
  -27.3998  -20.3527   19.6841 H   0  0  0  0  0  0
  -28.1281  -20.1439   18.0971 H   0  0  0  0  0  0
  -27.3044  -21.6392   18.4722 H   0  0  0  0  0  0
  -29.1860  -24.3280   18.9707 H   0  0  0  0  0  0
  -27.5694  -23.8000   19.3060 H   0  0  0  0  0  0
  -29.1357  -25.2460   21.4722 H   0  0  0  0  0  0
  -27.4221  -25.1341   21.3178 H   0  0  0  0  0  0
  -29.7336  -21.9301   18.5277 H   0  0  0  0  0  0
  -30.1270  -22.9601   20.7880 H   0  0  0  0  0  0
  -30.7690  -18.5619   26.2248 H   0  0  0  0  0  0
  -28.8306  -15.4093   20.8525 H   0  0  0  0  0  0
  -31.1634  -20.8912   19.9219 H   0  0  0  0  0  0
  -27.7624  -21.5806   21.1708 H   0  0  0  0  0  0
  1 25  1  0  0  0
  1 30  2  0  0  0
  1 84  1  0  0  0
  2  3  1  0  0  0
  2 25  1  0  0  0
  2 87  1  0  0  0
  2 88  1  0  0  0
  3  4  1  0  0  0
  3 89  1  0  0  0
  3 90  1  0  0  0
  4  5  1  0  0  0
  4 91  1  0  0  0
  4 92  1  0  0  0
  5  6  1  0  0  0
  5 26  1  0  0  0
  5 93  1  0  0  0
  6 25  1  0  0  0
  6 94  1  0  0  0
  6 95  1  0  0  0
  7  8  2  0  0  0
  7 26  1  0  0  0
  7 29  1  0  0  0
  8  9  1  0  0  0
  8 22  1  0  0  0
  9 10  1  0  0  0
  9 27  2  0  0  0
 10 11  2  0  0  0
 10 15  1  0  0  0
 11 12  1  0  0  0
 11 96  1  0  0  0
 12 13  2  0  0  0
 12 97  1  0  0  0
 13 14  1  0  0  0
 13 31  1  0  0  0
 14 15  2  0  0  0
 14 98  1  0  0  0
 15 99  1  0  0  0
 16 17  2  0  0  0
 16 21  1  0  0  0
 16 31  1  0  0  0
 17 18  1  0  0  0
 17100  1  0  0  0
 18 19  2  0  0  0
 18101  1  0  0  0
 19 20  1  0  0  0
 19 24  1  0  0  0
 20 21  2  0  0  0
 20102  1  0  0  0
 21 23  1  0  0  0
 22 28  1  0  0  0
 22 32  2  0  0  0
 26 27  1  0  0  0
 28103  1  0  0  0
 28104  1  0  0  0
 29105  1  0  0  0
 29106  1  0  0  0
 33 34  1  0  0  0
 33 66  1  0  0  0
 33 70  2  0  0  0
 34 36  1  0  0  0
 34 59  1  0  0  0
 34107  1  0  0  0
 35 44  2  0  0  0
 35 45  1  0  0  0
 35 68  1  0  0  0
 36 56  1  0  0  0
 36108  1  0  0  0
 37 39  1  0  0  0
 37 47  1  0  0  0
 37 66  1  0  0  0
 37109  1  0  0  0
 38 43  2  0  0  0
 38 46  1  0  0  0
 38 47  1  0  0  0
 39 64  1  0  0  0
 39 67  2  0  0  0
 40 52  1  0  0  0
 40 53  2  0  0  0
 40 58  1  0  0  0
 41110  1  0  0  0
 41111  1  0  0  0
 41112  1  0  0  0
 41 48  1  0  0  0
 42 43  1  0  0  0
 42 66  1  0  0  0
 42113  1  0  0  0
 42114  1  0  0  0
 43 44  1  0  0  0
 44115  1  0  0  0
 45 46  2  0  0  0
 45116  1  0  0  0
 46117  1  0  0  0
 47118  1  0  0  0
 47119  1  0  0  0
 48 56  1  0  0  0
 48 65  1  0  0  0
 48120  1  0  0  0
 49 50  1  0  0  0
 49 53  1  0  0  0
 49 64  1  0  0  0
 49121  1  0  0  0
 50 51  1  0  0  0
 50122  1  0  0  0
 50123  1  0  0  0
 51 52  1  0  0  0
 51124  1  0  0  0
 51125  1  0  0  0
 52126  1  0  0  0
 52127  1  0  0  0
 53 54  1  0  0  0
 54 55  2  0  0  0
 54128  1  0  0  0
 55 57  1  0  0  0
 55129  1  0  0  0
 56 69  2  0  0  0
 57 58  2  0  0  0
 57130  1  0  0  0
 58131  1  0  0  0
 59 60  1  0  0  0
 59 61  1  0  0  0
 59 62  1  0  0  0
 60132  1  0  0  0
 60133  1  0  0  0
 60134  1  0  0  0
 61135  1  0  0  0
 61136  1  0  0  0
 61137  1  0  0  0
 62138  1  0  0  0
 62139  1  0  0  0
 62140  1  0  0  0
 63 65  1  0  0  0
 63141  1  0  0  0
 63142  1  0  0  0
 63143  1  0  0  0
 64144  1  0  0  0
 65145  1  0  0  0
 68 79  1  0  0  0
 71 73  2  0  0  0
 71 74  1  0  0  0
 71146  1  0  0  0
 72 73  1  0  0  0
 72 75  2  0  0  0
 72147  1  0  0  0
 73 76  1  0  0  0
 74 82  2  0  0  0
 74 84  1  0  0  0
 75 82  1  0  0  0
 75 85  1  0  0  0
 76 83  2  0  0  0
 76148  1  0  0  0
 77149  1  0  0  0
 77150  1  0  0  0
 77151  1  0  0  0
 77 80  1  0  0  0
 78 79  1  0  0  0
 78 81  1  0  0  0
 78152  1  0  0  0
 78153  1  0  0  0
 79154  1  0  0  0
 79155  1  0  0  0
 80 81  1  0  0  0
 80 85  1  0  0  0
 80156  1  0  0  0
 81 86  1  0  0  0
 81157  1  0  0  0
 83158  1  0  0  0
 84159  1  0  0  0
 85160  1  0  0  0
 86161  1  0  0  0
M  ISO  4   1 100  68 101  79 101  84 100
M  END
> <chiral flag>
0

> <version>
0

> <s_m_source_file>
/data/baiqing/PycharmProjects/Reinvent-master-3.2/result/LINK_invent/BTK/process_docking_weight1_custom_product_contain_oxygen_bond_distance_aromatic_linkinvent_7_9_3/rearranged_h_0187.sdf

> <i_m_source_file_index>
83

> <r_mmod_Potential_Energy-OPLS-2005>
-238.914855957031

> <r_mmod_Stretch_Energy-OPLS-2005>
59.8919219970703

> <r_mmod_Bend_Energy-OPLS-2005>
139.852264404297

> <r_mmod_Torsional_Energy-OPLS-2005>
319.603057861328

> <r_mmod_Improper_Torsional_Energy-OPLS-2005>
13.0793361663818

> <r_mmod_Van_der_Waal_Energy-OPLS-2005>
136.515121459961

> <r_mmod_Electrostatic_Energy-OPLS-2005>
-673.529724121094

> <r_mmod_Solvation_Energy-OPLS-2005>
-269.826171875

> <b_mmod_Minimization_Converged-OPLS-2005>
0

> <r_mmod_RMS_Derivative-OPLS-2005>
6.21523189544678

$$$$
85
                    3D
 Structure written by MMmdl.
160168  0  0  1  0            999 V2000
  -30.6567  -14.5786   20.4849 C   0  0  0  0  0  0
  -30.4194  -12.3455   19.4497 C   0  0  0  0  0  0
  -29.5037  -12.4897   18.2184 C   0  0  0  0  0  0
  -28.0233  -12.3488   18.6246 C   0  0  0  0  0  0
  -27.6483  -13.2168   19.8572 C   0  0  2  0  0  0
  -28.6930  -13.0771   20.9852 C   0  0  0  0  0  0
  -25.2546  -13.8171   20.5701 C   0  0  0  0  0  0
  -24.1832  -13.0424   20.9216 C   0  0  0  0  0  0
  -24.6391  -11.6902   20.8732 C   0  0  0  0  0  0
  -23.9062  -10.4292   21.0380 C   0  0  0  0  0  0
  -24.3611   -9.4215   21.9163 C   0  0  0  0  0  0
  -23.6311   -8.2239   22.0727 C   0  0  0  0  0  0
  -22.4290   -8.0270   21.3534 C   0  0  0  0  0  0
  -21.9920   -9.0237   20.4629 C   0  0  0  0  0  0
  -22.7239  -10.2123   20.3041 C   0  0  0  0  0  0
  -21.6861   -6.0731   22.5286 C   0  0  0  0  0  0
  -21.4023   -6.5625   23.8220 C   0  0  0  0  0  0
  -21.3678   -5.6773   24.9177 C   0  0  0  0  0  0
  -21.6041   -4.3043   24.7231 C   0  0  0  0  0  0
  -21.8818   -3.8132   23.4346 C   0  0  0  0  0  0
  -21.9196   -4.6954   22.3400 C   0  0  0  0  0  0
  -22.7853  -13.5211   21.1867 C   0  0  0  0  0  0
  -22.1655   -4.2136   21.0989 F   0  0  0  0  0  0
  -21.5633   -3.4520   25.7735 F   0  0  0  0  0  0
  -30.0106  -13.3798   20.4115 N   0  0  0  0  0  0
  -26.2968  -12.9349   20.3322 N   0  0  0  0  0  0
  -25.9322  -11.6494   20.5735 N   0  0  0  0  0  0
  -22.0492  -12.8232   22.0421 N   0  0  0  0  0  0
  -25.4187  -15.1895   20.4094 N   0  0  0  0  0  0
  -31.8455  -14.6912   20.1701 O   0  0  0  0  0  0
  -21.6651   -6.8864   21.4247 O   0  0  0  0  0  0
  -22.3537  -14.5510   20.6688 O   0  0  0  0  0  0
  -24.6203  -31.8657   23.2066 C   0  0  0  0  0  0
  -25.9078  -32.4801   23.8371 C   0  0  1  0  0  0
  -27.2249  -27.3779   20.1092 C   0  0  0  0  0  0
  -25.5912  -33.8588   24.2294 N   0  0  0  0  0  0
  -23.4097  -30.4907   21.5448 C   0  0  2  0  0  0
  -24.8568  -28.9418   20.1249 C   0  0  0  0  0  0
  -22.7429  -29.4661   22.4936 C   0  0  0  0  0  0
  -18.0290  -28.1393   22.8474 C   0  0  0  0  0  0
  -24.1494  -36.7301   23.2634 C   0  0  0  0  0  0
  -25.9445  -30.8119   21.3711 C   0  0  0  0  0  0
  -26.0219  -29.4394   20.7247 C   0  0  0  0  0  0
  -27.2109  -28.6641   20.7149 C   0  0  0  0  0  0
  -26.0463  -26.9155   19.4942 C   0  0  0  0  0  0
  -24.8642  -27.6785   19.5128 C   0  0  0  0  0  0
  -23.6265  -29.8213   20.1631 C   0  0  0  0  0  0
  -25.4115  -36.3082   24.0322 C   0  0  1  0  0  0
  -20.5879  -28.3695   23.1289 C   0  0  2  0  0  0
  -20.6784  -26.9424   22.5413 C   0  0  0  0  0  0
  -19.5764  -26.6393   21.5215 C   0  0  0  0  0  0
  -18.1939  -26.7935   22.1618 C   0  0  0  0  0  0
  -19.1533  -28.8860   23.2887 C   0  0  0  0  0  0
  -18.9459  -30.1461   23.8915 C   0  0  0  0  0  0
  -17.6457  -30.6595   24.0572 C   0  0  0  0  0  0
  -25.9041  -34.9462   23.5105 C   0  0  0  0  0  0
  -16.5353  -29.9099   23.6317 C   0  0  0  0  0  0
  -16.7277  -28.6518   23.0333 C   0  0  0  0  0  0
  -26.4496  -31.6576   25.0712 C   0  0  0  0  0  0
  -25.3744  -31.3688   26.1440 C   0  0  0  0  0  0
  -27.0337  -30.3005   24.6125 C   0  0  0  0  0  0
  -27.6047  -32.4310   25.7497 C   0  0  0  0  0  0
  -27.5573  -37.1813   24.8455 C   0  0  0  0  0  0
  -21.4149  -29.3065   22.3672 N   0  0  0  0  0  0
  -26.4290  -37.3776   23.9393 N   0  0  0  0  0  0
  -24.6753  -31.0723   22.0990 N   0  0  0  0  0  0
  -23.4169  -28.8213   23.3001 O   0  0  0  0  0  0
  -28.3734  -26.6042   20.0360 O   0  0  0  0  0  0
  -26.5604  -34.8920   22.4661 O   0  0  0  0  0  0
  -23.5397  -32.1434   23.7433 O   0  0  0  0  0  0
  -30.0515  -19.3838   20.6952 C   0  0  0  0  0  0
  -31.2629  -19.2039   21.3401 C   0  0  0  0  0  0
  -30.2619  -17.0498   20.7847 C   0  0  0  0  0  0
  -29.3071  -23.6922   18.2583 C   0  0  0  0  0  0
  -31.2039  -22.0931   19.5882 C   0  0  0  0  0  0
  -30.0095  -22.5279   21.7512 C   0  0  0  0  0  0
  -27.8738  -24.0152   20.3029 C   0  0  0  0  0  0
  -28.4432  -25.3910   20.8360 C   0  0  0  0  0  0
  -28.7787  -22.9776   19.5224 C   0  0  2  0  0  0
  -29.8278  -22.0250   20.3013 C   0  0  0  0  0  0
  -29.4812  -18.1036   20.4252 N   0  0  0  0  0  0
  -29.3673  -20.6017   20.3176 N   0  0  0  0  0  0
  -29.8600  -15.6715   20.6285 N   0  0  0  0  0  0
  -32.0636  -20.1793   21.8308 F   0  0  0  0  0  0
  -31.7719  -17.5503   21.5330 S   0  0  0  0  0  0
  -31.4659  -12.4372   19.1575 H   0  0  0  0  0  0
  -30.3137  -11.3520   19.8850 H   0  0  0  0  0  0
  -29.7605  -11.7474   17.4627 H   0  0  0  0  0  0
  -29.6712  -13.4602   17.7500 H   0  0  0  0  0  0
  -27.8519  -11.2952   18.8460 H   0  0  0  0  0  0
  -27.3781  -12.5916   17.7800 H   0  0  0  0  0  0
  -27.6610  -14.2519   19.5161 H   0  0  0  0  0  0
  -28.6835  -12.0671   21.3981 H   0  0  0  0  0  0
  -28.4563  -13.7455   21.8144 H   0  0  0  0  0  0
  -25.2754   -9.5686   22.4746 H   0  0  0  0  0  0
  -24.0012   -7.4626   22.7447 H   0  0  0  0  0  0
  -21.0842   -8.8735   19.8952 H   0  0  0  0  0  0
  -22.3674  -10.9639   19.6128 H   0  0  0  0  0  0
  -21.2005   -7.6131   23.9721 H   0  0  0  0  0  0
  -21.1520   -6.0504   25.9080 H   0  0  0  0  0  0
  -22.0583   -2.7599   23.2856 H   0  0  0  0  0  0
  -22.4096  -11.9912   22.4858 H   0  0  0  0  0  0
  -21.1057  -13.1207   22.2534 H   0  0  0  0  0  0
  -24.6379  -15.8313   20.5107 H   0  0  0  0  0  0
  -26.2545  -15.6463   20.0693 H   0  0  0  0  0  0
  -26.7142  -32.5499   23.1120 H   0  0  0  0  0  0
  -25.0080  -33.9746   25.0455 H   0  0  0  0  0  0
  -22.7026  -31.3096   21.4003 H   0  0  0  0  0  0
  -23.3751  -35.9637   23.3294 H   0  0  0  0  0  0
  -24.3606  -36.8927   22.2053 H   0  0  0  0  0  0
  -23.7269  -37.6504   23.6670 H   0  0  0  0  0  0
  -26.0697  -31.5751   20.6008 H   0  0  0  0  0  0
  -26.8280  -30.8651   21.9952 H   0  0  0  0  0  0
  -28.1112  -29.0460   21.1770 H   0  0  0  0  0  0
  -26.0372  -25.9704   18.9752 H   0  0  0  0  0  0
  -23.9675  -27.2890   19.0482 H   0  0  0  0  0  0
  -23.7531  -30.5947   19.4050 H   0  0  0  0  0  0
  -22.7469  -29.2514   19.8578 H   0  0  0  0  0  0
  -25.1310  -36.1921   25.0818 H   0  0  0  0  0  0
  -20.9996  -28.3289   24.1397 H   0  0  0  0  0  0
  -20.5706  -26.2314   23.3615 H   0  0  0  0  0  0
  -21.6650  -26.7479   22.1194 H   0  0  0  0  0  0
  -19.6928  -25.6303   21.1253 H   0  0  0  0  0  0
  -19.6703  -27.3201   20.6742 H   0  0  0  0  0  0
  -17.4216  -26.6688   21.4020 H   0  0  0  0  0  0
  -18.0332  -26.0085   22.9020 H   0  0  0  0  0  0
  -19.7943  -30.7274   24.2282 H   0  0  0  0  0  0
  -17.5025  -31.6274   24.5184 H   0  0  0  0  0  0
  -15.5359  -30.3016   23.7647 H   0  0  0  0  0  0
  -15.8673  -28.0869   22.7016 H   0  0  0  0  0  0
  -24.5899  -30.7072   25.7744 H   0  0  0  0  0  0
  -24.8975  -32.2865   26.4904 H   0  0  0  0  0  0
  -25.8091  -30.8817   27.0180 H   0  0  0  0  0  0
  -26.2907  -29.6746   24.1175 H   0  0  0  0  0  0
  -27.4077  -29.7261   25.4609 H   0  0  0  0  0  0
  -27.8754  -30.4285   23.9313 H   0  0  0  0  0  0
  -27.2630  -33.3593   26.2088 H   0  0  0  0  0  0
  -28.3870  -32.6897   25.0346 H   0  0  0  0  0  0
  -28.0697  -31.8424   26.5416 H   0  0  0  0  0  0
  -28.2583  -38.0114   24.7498 H   0  0  0  0  0  0
  -28.1084  -36.2654   24.6294 H   0  0  0  0  0  0
  -27.2299  -37.1455   25.8857 H   0  0  0  0  0  0
  -20.9309  -29.8768   21.6874 H   0  0  0  0  0  0
  -26.0166  -38.2842   24.1401 H   0  0  0  0  0  0
  -28.4936  -24.1622   17.7042 H   0  0  0  0  0  0
  -29.7859  -23.0107   17.5570 H   0  0  0  0  0  0
  -30.0158  -24.4799   18.5161 H   0  0  0  0  0  0
  -31.5609  -23.1194   19.4950 H   0  0  0  0  0  0
  -31.1627  -21.6602   18.5887 H   0  0  0  0  0  0
  -31.9984  -21.5708   20.1053 H   0  0  0  0  0  0
  -30.5277  -23.4859   21.7747 H   0  0  0  0  0  0
  -30.6044  -21.8574   22.3625 H   0  0  0  0  0  0
  -29.0624  -22.6383   22.2765 H   0  0  0  0  0  0
  -27.0197  -24.2317   19.6675 H   0  0  0  0  0  0
  -27.4120  -23.4900   21.1390 H   0  0  0  0  0  0
  -29.4955  -25.2681   21.0818 H   0  0  0  0  0  0
  -27.9588  -25.6020   21.7916 H   0  0  0  0  0  0
  -28.0485  -22.2793   19.1104 H   0  0  0  0  0  0
  -28.4836  -20.4394   19.8465 H   0  0  0  0  0  0
  -28.8695  -15.4954   20.6207 H   0  0  0  0  0  0
  1 25  1  0  0  0
  1 30  2  0  0  0
  1 83  1  0  0  0
  2  3  1  0  0  0
  2 25  1  0  0  0
  2 86  1  0  0  0
  2 87  1  0  0  0
  3  4  1  0  0  0
  3 88  1  0  0  0
  3 89  1  0  0  0
  4  5  1  0  0  0
  4 90  1  0  0  0
  4 91  1  0  0  0
  5  6  1  0  0  0
  5 26  1  0  0  0
  5 92  1  0  0  0
  6 25  1  0  0  0
  6 93  1  0  0  0
  6 94  1  0  0  0
  7  8  2  0  0  0
  7 26  1  0  0  0
  7 29  1  0  0  0
  8  9  1  0  0  0
  8 22  1  0  0  0
  9 10  1  0  0  0
  9 27  2  0  0  0
 10 11  2  0  0  0
 10 15  1  0  0  0
 11 12  1  0  0  0
 11 95  1  0  0  0
 12 13  2  0  0  0
 12 96  1  0  0  0
 13 14  1  0  0  0
 13 31  1  0  0  0
 14 15  2  0  0  0
 14 97  1  0  0  0
 15 98  1  0  0  0
 16 17  2  0  0  0
 16 21  1  0  0  0
 16 31  1  0  0  0
 17 18  1  0  0  0
 17 99  1  0  0  0
 18 19  2  0  0  0
 18100  1  0  0  0
 19 20  1  0  0  0
 19 24  1  0  0  0
 20 21  2  0  0  0
 20101  1  0  0  0
 21 23  1  0  0  0
 22 28  1  0  0  0
 22 32  2  0  0  0
 26 27  1  0  0  0
 28102  1  0  0  0
 28103  1  0  0  0
 29104  1  0  0  0
 29105  1  0  0  0
 33 34  1  0  0  0
 33 66  1  0  0  0
 33 70  2  0  0  0
 34 36  1  0  0  0
 34 59  1  0  0  0
 34106  1  0  0  0
 35 44  2  0  0  0
 35 45  1  0  0  0
 35 68  1  0  0  0
 36 56  1  0  0  0
 36107  1  0  0  0
 37 39  1  0  0  0
 37 47  1  0  0  0
 37 66  1  0  0  0
 37108  1  0  0  0
 38 43  2  0  0  0
 38 46  1  0  0  0
 38 47  1  0  0  0
 39 64  1  0  0  0
 39 67  2  0  0  0
 40 52  1  0  0  0
 40 53  2  0  0  0
 40 58  1  0  0  0
 41109  1  0  0  0
 41110  1  0  0  0
 41111  1  0  0  0
 41 48  1  0  0  0
 42 43  1  0  0  0
 42 66  1  0  0  0
 42112  1  0  0  0
 42113  1  0  0  0
 43 44  1  0  0  0
 44114  1  0  0  0
 45 46  2  0  0  0
 45115  1  0  0  0
 46116  1  0  0  0
 47117  1  0  0  0
 47118  1  0  0  0
 48 56  1  0  0  0
 48 65  1  0  0  0
 48119  1  0  0  0
 49 50  1  0  0  0
 49 53  1  0  0  0
 49 64  1  0  0  0
 49120  1  0  0  0
 50 51  1  0  0  0
 50121  1  0  0  0
 50122  1  0  0  0
 51 52  1  0  0  0
 51123  1  0  0  0
 51124  1  0  0  0
 52125  1  0  0  0
 52126  1  0  0  0
 53 54  1  0  0  0
 54 55  2  0  0  0
 54127  1  0  0  0
 55 57  1  0  0  0
 55128  1  0  0  0
 56 69  2  0  0  0
 57 58  2  0  0  0
 57129  1  0  0  0
 58130  1  0  0  0
 59 60  1  0  0  0
 59 61  1  0  0  0
 59 62  1  0  0  0
 60131  1  0  0  0
 60132  1  0  0  0
 60133  1  0  0  0
 61134  1  0  0  0
 61135  1  0  0  0
 61136  1  0  0  0
 62137  1  0  0  0
 62138  1  0  0  0
 62139  1  0  0  0
 63 65  1  0  0  0
 63140  1  0  0  0
 63141  1  0  0  0
 63142  1  0  0  0
 64143  1  0  0  0
 65144  1  0  0  0
 68 78  1  0  0  0
 71 72  2  0  0  0
 71 81  1  0  0  0
 71 82  1  0  0  0
 72 84  1  0  0  0
 72 85  1  0  0  0
 73 81  2  0  0  0
 73 83  1  0  0  0
 73 85  1  0  0  0
 74145  1  0  0  0
 74146  1  0  0  0
 74147  1  0  0  0
 74 79  1  0  0  0
 75148  1  0  0  0
 75149  1  0  0  0
 75150  1  0  0  0
 75 80  1  0  0  0
 76 80  1  0  0  0
 76151  1  0  0  0
 76152  1  0  0  0
 76153  1  0  0  0
 77 78  1  0  0  0
 77 79  1  0  0  0
 77154  1  0  0  0
 77155  1  0  0  0
 78156  1  0  0  0
 78157  1  0  0  0
 79 80  1  0  0  0
 79158  1  0  0  0
 80 82  1  0  0  0
 82159  1  0  0  0
 83160  1  0  0  0
M  ISO  4   1 100  68 101  78 101  83 100
M  END
> <chiral flag>
0

> <version>
0

> <s_m_source_file>
/data/baiqing/PycharmProjects/Reinvent-master-3.2/result/LINK_invent/BTK/process_docking_weight1_custom_product_contain_oxygen_bond_distance_aromatic_linkinvent_7_9_3/rearranged_h_0187.sdf

> <i_m_source_file_index>
84

> <r_mmod_Potential_Energy-OPLS-2005>
10.0473346710205

> <r_mmod_Stretch_Energy-OPLS-2005>
64.9910888671875

> <r_mmod_Bend_Energy-OPLS-2005>
159.952728271484

> <r_mmod_Torsional_Energy-OPLS-2005>
273.690490722656

> <r_mmod_Improper_Torsional_Energy-OPLS-2005>
7.72687673568726

> <r_mmod_Van_der_Waal_Energy-OPLS-2005>
142.18293762207

> <r_mmod_Electrostatic_Energy-OPLS-2005>
-465.265258789062

> <r_mmod_Solvation_Energy-OPLS-2005>
-202.992431640625

> <b_mmod_Minimization_Converged-OPLS-2005>
0

> <r_mmod_RMS_Derivative-OPLS-2005>
3.54912710189819

$$$$
86
                    3D
 Structure written by MMmdl.
156164  0  0  1  0            999 V2000
  -30.5283  -15.0113   20.4378 C   0  0  0  0  0  0
  -30.4382  -12.6256   19.5565 C   0  0  0  0  0  0
  -29.5416  -12.5574   18.2968 C   0  0  0  0  0  0
  -28.0838  -12.2919   18.7169 C   0  0  0  0  0  0
  -27.6321  -13.2496   19.8478 C   0  0  2  0  0  0
  -28.6547  -13.3279   21.0016 C   0  0  0  0  0  0
  -25.2452  -13.8225   20.5751 C   0  0  0  0  0  0
  -24.1760  -13.0465   20.9227 C   0  0  0  0  0  0
  -24.6370  -11.6954   20.8797 C   0  0  0  0  0  0
  -23.9062  -10.4324   21.0412 C   0  0  0  0  0  0
  -24.3608   -9.4234   21.9161 C   0  0  0  0  0  0
  -23.6289   -8.2269   22.0755 C   0  0  0  0  0  0
  -22.4248   -8.0326   21.3584 C   0  0  0  0  0  0
  -21.9903   -9.0297   20.4676 C   0  0  0  0  0  0
  -22.7249  -10.2154   20.3057 C   0  0  0  0  0  0
  -21.6844   -6.0761   22.5310 C   0  0  0  0  0  0
  -21.4044   -6.5653   23.8240 C   0  0  0  0  0  0
  -21.3664   -5.6788   24.9195 C   0  0  0  0  0  0
  -21.6013   -4.3031   24.7217 C   0  0  0  0  0  0
  -21.8805   -3.8173   23.4321 C   0  0  0  0  0  0
  -21.9198   -4.7014   22.3408 C   0  0  0  0  0  0
  -22.7802  -13.5252   21.1877 C   0  0  0  0  0  0
  -22.1663   -4.2214   21.0992 F   0  0  0  0  0  0
  -21.5592   -3.4504   25.7729 F   0  0  0  0  0  0
  -29.9457  -13.7364   20.4283 N   0  0  0  0  0  0
  -26.2867  -12.9459   20.3271 N   0  0  0  0  0  0
  -25.9279  -11.6585   20.5740 N   0  0  0  0  0  0
  -22.0423  -12.8280   22.0444 N   0  0  0  0  0  0
  -25.4182  -15.1917   20.4166 N   0  0  0  0  0  0
  -31.7087  -15.0613   20.0693 O   0  0  0  0  0  0
  -21.6654   -6.8909   21.4284 O   0  0  0  0  0  0
  -22.3531  -14.5584   20.6722 O   0  0  0  0  0  0
  -24.6468  -31.8414   23.1896 C   0  0  0  0  0  0
  -25.9215  -32.4708   23.8292 C   0  0  1  0  0  0
  -27.2255  -27.1033   20.1700 C   0  0  0  0  0  0
  -25.5943  -33.8515   24.2234 N   0  0  0  0  0  0
  -23.4543  -30.4584   21.5403 C   0  0  2  0  0  0
  -24.9026  -28.8788   20.1178 C   0  0  0  0  0  0
  -22.7608  -29.4527   22.4923 C   0  0  0  0  0  0
  -18.0320  -28.1410   22.8480 C   0  0  0  0  0  0
  -24.1476  -36.7253   23.2643 C   0  0  0  0  0  0
  -26.0124  -30.7023   21.3987 C   0  0  0  0  0  0
  -26.0792  -29.3105   20.7386 C   0  0  0  0  0  0
  -27.2410  -28.4440   20.7438 C   0  0  0  0  0  0
  -26.0235  -26.7801   19.5046 C   0  0  0  0  0  0
  -24.8926  -27.6297   19.4747 C   0  0  0  0  0  0
  -23.6809  -29.7905   20.1577 C   0  0  0  0  0  0
  -25.4116  -36.3073   24.0338 C   0  0  1  0  0  0
  -20.5930  -28.3739   23.1260 C   0  0  2  0  0  0
  -20.6823  -26.9441   22.5440 C   0  0  0  0  0  0
  -19.5791  -26.6380   21.5252 C   0  0  0  0  0  0
  -18.1960  -26.7940   22.1637 C   0  0  0  0  0  0
  -19.1582  -28.8905   23.2839 C   0  0  0  0  0  0
  -18.9466  -30.1510   23.8849 C   0  0  0  0  0  0
  -17.6463  -30.6579   24.0585 C   0  0  0  0  0  0
  -25.9087  -34.9442   23.5106 C   0  0  0  0  0  0
  -16.5365  -29.9069   23.6337 C   0  0  0  0  0  0
  -16.7313  -28.6509   23.0321 C   0  0  0  0  0  0
  -26.4474  -31.6578   25.0757 C   0  0  0  0  0  0
  -25.3595  -31.3803   26.1423 C   0  0  0  0  0  0
  -27.0355  -30.2969   24.6406 C   0  0  0  0  0  0
  -27.6055  -32.4317   25.7489 C   0  0  0  0  0  0
  -27.5606  -37.1784   24.8461 C   0  0  0  0  0  0
  -21.4327  -29.3019   22.3635 N   0  0  0  0  0  0
  -26.4305  -37.3776   23.9418 N   0  0  0  0  0  0
  -24.7240  -31.0232   22.0966 N   0  0  0  0  0  0
  -23.4235  -28.8095   23.3133 O   0  0  0  0  0  0
  -28.2879  -26.1152   20.1999 O   0  0  0  0  0  0
  -26.5665  -34.8913   22.4707 O   0  0  0  0  0  0
  -23.5581  -32.1373   23.7056 O   0  0  0  0  0  0
  -29.3891  -20.1510   20.1816 C   0  0  0  0  0  0
  -30.0951  -19.8655   19.0173 C   0  0  0  0  0  0
  -29.8835  -17.6760   20.3360 C   0  0  0  0  0  0
  -30.3134  -20.7369   17.8221 C   0  0  0  0  0  0
  -26.6820  -21.0894   21.8867 C   0  0  0  0  0  0
  -28.0402  -24.5845   20.4868 C   0  0  0  0  0  0
  -28.7106  -21.6199   20.6700 C   0  0  1  0  0  0
  -29.0009  -23.2274   20.0976 C   0  0  2  0  0  0
  -29.2446  -18.8221   20.8595 N   0  0  0  0  0  0
  -29.7888  -16.1945   20.7617 N   0  0  0  0  0  0
  -30.4199  -23.6267   20.3354 N   0  3  0  0  0  0
  -27.2820  -21.4858   20.6462 O   0  0  0  0  0  0
  -30.7598  -18.2064   18.9159 S   0  0  0  0  0  0
  -31.4879  -12.7509   19.2796 H   0  0  0  0  0  0
  -30.3970  -11.6844   20.1038 H   0  0  0  0  0  0
  -29.8921  -11.7813   17.6129 H   0  0  0  0  0  0
  -29.5978  -13.5024   17.7553 H   0  0  0  0  0  0
  -28.0231  -11.2599   19.0687 H   0  0  0  0  0  0
  -27.4149  -12.3647   17.8604 H   0  0  0  0  0  0
  -27.5903  -14.2369   19.3856 H   0  0  0  0  0  0
  -28.7375  -12.3779   21.5255 H   0  0  0  0  0  0
  -28.3284  -14.0523   21.7473 H   0  0  0  0  0  0
  -25.2748   -9.5696   22.4742 H   0  0  0  0  0  0
  -24.0033   -7.4625   22.7375 H   0  0  0  0  0  0
  -21.0882   -8.8808   19.8918 H   0  0  0  0  0  0
  -22.3757  -10.9677   19.6159 H   0  0  0  0  0  0
  -21.2085   -7.6157   23.9798 H   0  0  0  0  0  0
  -21.1467   -6.0492   25.9104 H   0  0  0  0  0  0
  -22.0578   -2.7640   23.2812 H   0  0  0  0  0  0
  -22.4048  -12.0009   22.4914 H   0  0  0  0  0  0
  -21.1031  -13.1346   22.2581 H   0  0  0  0  0  0
  -24.6376  -15.8342   20.4816 H   0  0  0  0  0  0
  -26.2622  -15.6359   20.0772 H   0  0  0  0  0  0
  -26.7299  -32.5264   23.1030 H   0  0  0  0  0  0
  -25.0051  -33.9586   25.0343 H   0  0  0  0  0  0
  -22.7598  -31.2878   21.3919 H   0  0  0  0  0  0
  -23.3792  -35.9528   23.3276 H   0  0  0  0  0  0
  -24.3600  -36.8913   22.2074 H   0  0  0  0  0  0
  -23.7154  -37.6415   23.6679 H   0  0  0  0  0  0
  -26.1829  -31.4568   20.6297 H   0  0  0  0  0  0
  -26.8740  -30.7408   22.0529 H   0  0  0  0  0  0
  -28.1367  -28.7784   21.2458 H   0  0  0  0  0  0
  -25.9371  -25.8386   18.9827 H   0  0  0  0  0  0
  -24.0073  -27.3045   18.9475 H   0  0  0  0  0  0
  -23.8218  -30.5716   19.4093 H   0  0  0  0  0  0
  -22.7910  -29.2453   19.8419 H   0  0  0  0  0  0
  -25.1288  -36.1959   25.0834 H   0  0  0  0  0  0
  -21.0001  -28.3332   24.1389 H   0  0  0  0  0  0
  -20.5774  -26.2349   23.3659 H   0  0  0  0  0  0
  -21.6680  -26.7464   22.1213 H   0  0  0  0  0  0
  -19.6942  -25.6276   21.1306 H   0  0  0  0  0  0
  -19.6707  -27.3179   20.6764 H   0  0  0  0  0  0
  -17.4248  -26.6733   21.4009 H   0  0  0  0  0  0
  -18.0295  -26.0076   22.9024 H   0  0  0  0  0  0
  -19.7940  -30.7375   24.2152 H   0  0  0  0  0  0
  -17.4985  -31.6228   24.5247 H   0  0  0  0  0  0
  -15.5364  -30.2940   23.7639 H   0  0  0  0  0  0
  -15.8729  -28.0813   22.6997 H   0  0  0  0  0  0
  -24.5744  -30.7211   25.7690 H   0  0  0  0  0  0
  -24.8775  -32.2989   26.4789 H   0  0  0  0  0  0
  -25.7757  -30.8970   27.0267 H   0  0  0  0  0  0
  -26.3002  -29.6685   24.1377 H   0  0  0  0  0  0
  -27.3911  -29.7302   25.5022 H   0  0  0  0  0  0
  -27.8927  -30.4224   23.9790 H   0  0  0  0  0  0
  -27.2721  -33.3638   26.2067 H   0  0  0  0  0  0
  -28.3796  -32.6861   25.0228 H   0  0  0  0  0  0
  -28.0804  -31.8451   26.5374 H   0  0  0  0  0  0
  -28.2619  -38.0085   24.7571 H   0  0  0  0  0  0
  -28.1103  -36.2649   24.6196 H   0  0  0  0  0  0
  -27.2349  -37.1332   25.8860 H   0  0  0  0  0  0
  -20.9590  -29.8702   21.6737 H   0  0  0  0  0  0
  -26.0212  -38.2866   24.1402 H   0  0  0  0  0  0
  -29.5208  -21.4737   17.7145 H   0  0  0  0  0  0
  -30.2685  -20.1338   16.9128 H   0  0  0  0  0  0
  -31.2848  -21.2335   17.8545 H   0  0  0  0  0  0
  -25.6247  -20.8648   21.7461 H   0  0  0  0  0  0
  -26.7329  -21.8942   22.6225 H   0  0  0  0  0  0
  -27.1315  -20.1942   22.3170 H   0  0  0  0  0  0
  -27.9113  -24.5461   21.5695 H   0  0  0  0  0  0
  -27.0510  -24.3369   20.1073 H   0  0  0  0  0  0
  -28.9951  -21.7102   21.7205 H   0  0  0  0  0  0
  -28.9274  -23.1711   19.0148 H   0  0  0  0  0  0
  -28.9618  -16.0028   21.3010 H   0  0  0  0  0  0
  -30.6287  -23.7534   21.3139 H   0  0  0  0  0  0
  -30.6075  -24.5100   19.8815 H   0  0  0  0  0  0
  -31.0739  -22.9689   19.9433 H   0  0  0  0  0  0
  1 25  1  0  0  0
  1 30  2  0  0  0
  1 80  1  0  0  0
  2  3  1  0  0  0
  2 25  1  0  0  0
  2 84  1  0  0  0
  2 85  1  0  0  0
  3  4  1  0  0  0
  3 86  1  0  0  0
  3 87  1  0  0  0
  4  5  1  0  0  0
  4 88  1  0  0  0
  4 89  1  0  0  0
  5  6  1  0  0  0
  5 26  1  0  0  0
  5 90  1  0  0  0
  6 25  1  0  0  0
  6 91  1  0  0  0
  6 92  1  0  0  0
  7  8  2  0  0  0
  7 26  1  0  0  0
  7 29  1  0  0  0
  8  9  1  0  0  0
  8 22  1  0  0  0
  9 10  1  0  0  0
  9 27  2  0  0  0
 10 11  2  0  0  0
 10 15  1  0  0  0
 11 12  1  0  0  0
 11 93  1  0  0  0
 12 13  2  0  0  0
 12 94  1  0  0  0
 13 14  1  0  0  0
 13 31  1  0  0  0
 14 15  2  0  0  0
 14 95  1  0  0  0
 15 96  1  0  0  0
 16 17  2  0  0  0
 16 21  1  0  0  0
 16 31  1  0  0  0
 17 18  1  0  0  0
 17 97  1  0  0  0
 18 19  2  0  0  0
 18 98  1  0  0  0
 19 20  1  0  0  0
 19 24  1  0  0  0
 20 21  2  0  0  0
 20 99  1  0  0  0
 21 23  1  0  0  0
 22 28  1  0  0  0
 22 32  2  0  0  0
 26 27  1  0  0  0
 28100  1  0  0  0
 28101  1  0  0  0
 29102  1  0  0  0
 29103  1  0  0  0
 33 34  1  0  0  0
 33 66  1  0  0  0
 33 70  2  0  0  0
 34 36  1  0  0  0
 34 59  1  0  0  0
 34104  1  0  0  0
 35 44  2  0  0  0
 35 45  1  0  0  0
 35 68  1  0  0  0
 36 56  1  0  0  0
 36105  1  0  0  0
 37 39  1  0  0  0
 37 47  1  0  0  0
 37 66  1  0  0  0
 37106  1  0  0  0
 38 43  2  0  0  0
 38 46  1  0  0  0
 38 47  1  0  0  0
 39 64  1  0  0  0
 39 67  2  0  0  0
 40 52  1  0  0  0
 40 53  2  0  0  0
 40 58  1  0  0  0
 41107  1  0  0  0
 41108  1  0  0  0
 41109  1  0  0  0
 41 48  1  0  0  0
 42 43  1  0  0  0
 42 66  1  0  0  0
 42110  1  0  0  0
 42111  1  0  0  0
 43 44  1  0  0  0
 44112  1  0  0  0
 45 46  2  0  0  0
 45113  1  0  0  0
 46114  1  0  0  0
 47115  1  0  0  0
 47116  1  0  0  0
 48 56  1  0  0  0
 48 65  1  0  0  0
 48117  1  0  0  0
 49 50  1  0  0  0
 49 53  1  0  0  0
 49 64  1  0  0  0
 49118  1  0  0  0
 50 51  1  0  0  0
 50119  1  0  0  0
 50120  1  0  0  0
 51 52  1  0  0  0
 51121  1  0  0  0
 51122  1  0  0  0
 52123  1  0  0  0
 52124  1  0  0  0
 53 54  1  0  0  0
 54 55  2  0  0  0
 54125  1  0  0  0
 55 57  1  0  0  0
 55126  1  0  0  0
 56 69  2  0  0  0
 57 58  2  0  0  0
 57127  1  0  0  0
 58128  1  0  0  0
 59 60  1  0  0  0
 59 61  1  0  0  0
 59 62  1  0  0  0
 60129  1  0  0  0
 60130  1  0  0  0
 60131  1  0  0  0
 61132  1  0  0  0
 61133  1  0  0  0
 61134  1  0  0  0
 62135  1  0  0  0
 62136  1  0  0  0
 62137  1  0  0  0
 63 65  1  0  0  0
 63138  1  0  0  0
 63139  1  0  0  0
 63140  1  0  0  0
 64141  1  0  0  0
 65142  1  0  0  0
 68 76  1  0  0  0
 71 72  2  0  0  0
 71 77  1  0  0  0
 71 79  1  0  0  0
 72 74  1  0  0  0
 72 83  1  0  0  0
 73 79  2  0  0  0
 73 80  1  0  0  0
 73 83  1  0  0  0
 74143  1  0  0  0
 74144  1  0  0  0
 74145  1  0  0  0
 75 82  1  0  0  0
 75146  1  0  0  0
 75147  1  0  0  0
 75148  1  0  0  0
 76 78  1  0  0  0
 76149  1  0  0  0
 76150  1  0  0  0
 77 78  1  0  0  0
 77 82  1  0  0  0
 77151  1  0  0  0
 78 81  1  0  0  0
 78152  1  0  0  0
 80153  1  0  0  0
 81154  1  0  0  0
 81155  1  0  0  0
 81156  1  0  0  0
M  CHG  1  81   1
M  ISO  4   1 100  68 101  76 101  80 100
M  END
> <chiral flag>
0

> <version>
0

> <s_m_source_file>
/data/baiqing/PycharmProjects/Reinvent-master-3.2/result/LINK_invent/BTK/process_docking_weight1_custom_product_contain_oxygen_bond_distance_aromatic_linkinvent_7_9_3/rearranged_h_0187.sdf

> <i_m_source_file_index>
85

> <r_mmod_Potential_Energy-OPLS-2005>
420.553283691406

> <r_mmod_Stretch_Energy-OPLS-2005>
321.258544921875

> <r_mmod_Bend_Energy-OPLS-2005>
279.160369873047

> <r_mmod_Torsional_Energy-OPLS-2005>
264.457183837891

> <r_mmod_Improper_Torsional_Energy-OPLS-2005>
3.27946352958679

> <r_mmod_Van_der_Waal_Energy-OPLS-2005>
105.553512573242

> <r_mmod_Electrostatic_Energy-OPLS-2005>
-310.221984863281

> <r_mmod_Solvation_Energy-OPLS-2005>
-471.626983642578

> <b_mmod_Minimization_Converged-OPLS-2005>
0

> <r_mmod_RMS_Derivative-OPLS-2005>
8.2066011428833

$$$$
87
                    3D
 Structure written by MMmdl.
159167  0  0  1  0            999 V2000
  -30.6781  -14.5153   20.4714 C   0  0  0  0  0  0
  -30.4224  -12.2988   19.4463 C   0  0  0  0  0  0
  -29.5033  -12.4876   18.2205 C   0  0  0  0  0  0
  -28.0210  -12.3553   18.6272 C   0  0  0  0  0  0
  -27.6613  -13.2077   19.8731 C   0  0  2  0  0  0
  -28.7075  -13.0317   21.0015 C   0  0  0  0  0  0
  -25.2598  -13.8154   20.5698 C   0  0  0  0  0  0
  -24.1856  -13.0436   20.9182 C   0  0  0  0  0  0
  -24.6410  -11.6888   20.8724 C   0  0  0  0  0  0
  -23.9057  -10.4279   21.0397 C   0  0  0  0  0  0
  -24.3605   -9.4197   21.9186 C   0  0  0  0  0  0
  -23.6288   -8.2232   22.0755 C   0  0  0  0  0  0
  -22.4265   -8.0266   21.3551 C   0  0  0  0  0  0
  -21.9901   -9.0237   20.4648 C   0  0  0  0  0  0
  -22.7222  -10.2119   20.3056 C   0  0  0  0  0  0
  -21.6844   -6.0720   22.5274 C   0  0  0  0  0  0
  -21.4014   -6.5637   23.8206 C   0  0  0  0  0  0
  -21.3664   -5.6797   24.9180 C   0  0  0  0  0  0
  -21.6039   -4.3058   24.7236 C   0  0  0  0  0  0
  -21.8824   -3.8135   23.4359 C   0  0  0  0  0  0
  -21.9198   -4.6947   22.3406 C   0  0  0  0  0  0
  -22.7871  -13.5223   21.1855 C   0  0  0  0  0  0
  -22.1665   -4.2133   21.0991 F   0  0  0  0  0  0
  -21.5637   -3.4549   25.7758 F   0  0  0  0  0  0
  -30.0366  -13.3150   20.4389 N   0  0  0  0  0  0
  -26.3035  -12.9323   20.3373 N   0  0  0  0  0  0
  -25.9345  -11.6472   20.5785 N   0  0  0  0  0  0
  -22.0522  -12.8193   22.0401 N   0  0  0  0  0  0
  -25.4322  -15.1873   20.4098 N   0  0  0  0  0  0
  -31.8399  -14.6586   20.0883 O   0  0  0  0  0  0
  -21.6635   -6.8859   21.4234 O   0  0  0  0  0  0
  -22.3543  -14.5546   20.6721 O   0  0  0  0  0  0
  -24.6156  -31.8671   23.2092 C   0  0  0  0  0  0
  -25.9037  -32.4822   23.8383 C   0  0  1  0  0  0
  -27.2288  -27.4103   20.1143 C   0  0  0  0  0  0
  -25.5896  -33.8621   24.2316 N   0  0  0  0  0  0
  -23.4070  -30.4887   21.5500 C   0  0  2  0  0  0
  -24.8525  -28.9570   20.1123 C   0  0  0  0  0  0
  -22.7442  -29.4629   22.4985 C   0  0  0  0  0  0
  -18.0275  -28.1362   22.8495 C   0  0  0  0  0  0
  -24.1493  -36.7309   23.2642 C   0  0  0  0  0  0
  -25.9377  -30.8273   21.3667 C   0  0  0  0  0  0
  -26.0145  -29.4616   20.7109 C   0  0  0  0  0  0
  -27.2089  -28.6998   20.6997 C   0  0  0  0  0  0
  -26.0532  -26.9343   19.4955 C   0  0  0  0  0  0
  -24.8684  -27.6937   19.4972 C   0  0  0  0  0  0
  -23.6171  -29.8271   20.1621 C   0  0  0  0  0  0
  -25.4114  -36.3110   24.0337 C   0  0  1  0  0  0
  -20.5872  -28.3647   23.1325 C   0  0  2  0  0  0
  -20.6766  -26.9381   22.5419 C   0  0  0  0  0  0
  -19.5737  -26.6374   21.5224 C   0  0  0  0  0  0
  -18.1915  -26.7909   22.1635 C   0  0  0  0  0  0
  -19.1524  -28.8819   23.2907 C   0  0  0  0  0  0
  -18.9455  -30.1435   23.8900 C   0  0  0  0  0  0
  -17.6451  -30.6571   24.0560 C   0  0  0  0  0  0
  -25.9039  -34.9476   23.5125 C   0  0  0  0  0  0
  -16.5341  -29.9066   23.6327 C   0  0  0  0  0  0
  -16.7261  -28.6486   23.0342 C   0  0  0  0  0  0
  -26.4445  -31.6612   25.0726 C   0  0  0  0  0  0
  -25.3709  -31.3716   26.1484 C   0  0  0  0  0  0
  -27.0281  -30.3048   24.6121 C   0  0  0  0  0  0
  -27.6024  -32.4333   25.7484 C   0  0  0  0  0  0
  -27.5592  -37.1805   24.8465 C   0  0  0  0  0  0
  -21.4162  -29.3013   22.3729 N   0  0  0  0  0  0
  -26.4302  -37.3796   23.9419 N   0  0  0  0  0  0
  -24.6711  -31.0751   22.1001 N   0  0  0  0  0  0
  -23.4191  -28.8158   23.3034 O   0  0  0  0  0  0
  -28.3766  -26.6347   20.1341 O   0  0  0  0  0  0
  -26.5614  -34.8927   22.4694 O   0  0  0  0  0  0
  -23.5349  -32.1426   23.7471 O   0  0  0  0  0  0
  -30.4355  -20.1741   21.8499 C   0  0  0  0  0  0
  -29.7911  -20.5056   20.6825 C   0  0  0  0  0  0
  -29.4955  -19.3559   19.8750 C   0  0  0  0  0  0
  -29.9486  -18.1632   20.4133 C   0  0  0  0  0  0
  -29.7133  -23.0316   20.8267 C   0  0  0  0  0  0
  -27.5373  -24.4762   23.0707 C   0  0  0  0  0  0
  -29.9440  -16.7908   19.7631 C   0  0  0  0  0  0
  -28.3624  -25.4935   22.2604 C   0  0  0  0  0  0
  -29.3152  -24.3381   20.0718 C   0  0  2  0  0  0
  -28.2601  -25.3077   20.7232 C   0  0  2  0  0  0
  -28.8349  -19.4999   18.6460 N   0  0  0  0  0  0
  -29.4528  -21.8363   20.2445 N   0  0  0  0  0  0
  -29.8724  -15.5871   20.6262 N   0  0  0  0  0  0
  -30.3074  -23.1218   21.9052 O   0  0  0  0  0  0
  -28.9028  -24.0194   18.8394 F   0  0  0  0  0  0
  -30.7096  -18.4504   21.9617 S   0  0  0  0  0  0
  -31.4719  -12.3719   19.1529 H   0  0  0  0  0  0
  -30.3017  -11.2974   19.8647 H   0  0  0  0  0  0
  -29.7465  -11.7560   17.4474 H   0  0  0  0  0  0
  -29.6753  -13.4687   17.7764 H   0  0  0  0  0  0
  -27.8282  -11.3013   18.8308 H   0  0  0  0  0  0
  -27.3758  -12.6227   17.7915 H   0  0  0  0  0  0
  -27.6904  -14.2466   19.5467 H   0  0  0  0  0  0
  -28.6827  -12.0140   21.3959 H   0  0  0  0  0  0
  -28.4888  -13.6836   21.8475 H   0  0  0  0  0  0
  -25.2754   -9.5682   22.4759 H   0  0  0  0  0  0
  -24.0005   -7.4625   22.7462 H   0  0  0  0  0  0
  -21.0844   -8.8742   19.8949 H   0  0  0  0  0  0
  -22.3676  -10.9657   19.6164 H   0  0  0  0  0  0
  -21.1996   -7.6145   23.9715 H   0  0  0  0  0  0
  -21.1488   -6.0528   25.9090 H   0  0  0  0  0  0
  -22.0598   -2.7594   23.2866 H   0  0  0  0  0  0
  -22.4144  -11.9837   22.4758 H   0  0  0  0  0  0
  -21.1152  -13.1219   22.2655 H   0  0  0  0  0  0
  -24.6625  -15.8410   20.5144 H   0  0  0  0  0  0
  -26.2834  -15.6252   20.0804 H   0  0  0  0  0  0
  -26.7115  -32.5514   23.1159 H   0  0  0  0  0  0
  -25.0036  -33.9763   25.0452 H   0  0  0  0  0  0
  -22.6960  -31.3046   21.4120 H   0  0  0  0  0  0
  -23.3754  -35.9647   23.3311 H   0  0  0  0  0  0
  -24.3584  -36.8917   22.2059 H   0  0  0  0  0  0
  -23.7246  -37.6512   23.6649 H   0  0  0  0  0  0
  -26.0619  -31.5959   20.6009 H   0  0  0  0  0  0
  -26.8197  -30.8725   21.9940 H   0  0  0  0  0  0
  -28.1058  -29.0857   21.1627 H   0  0  0  0  0  0
  -26.0516  -25.9720   19.0054 H   0  0  0  0  0  0
  -23.9793  -27.3015   19.0212 H   0  0  0  0  0  0
  -23.7256  -30.6046   19.4041 H   0  0  0  0  0  0
  -22.7407  -29.2480   19.8685 H   0  0  0  0  0  0
  -25.1290  -36.1979   25.0829 H   0  0  0  0  0  0
  -20.9967  -28.3202   24.1448 H   0  0  0  0  0  0
  -20.5687  -26.2243   23.3601 H   0  0  0  0  0  0
  -21.6632  -26.7415   22.1200 H   0  0  0  0  0  0
  -19.6889  -25.6297   21.1229 H   0  0  0  0  0  0
  -19.6678  -27.3213   20.6780 H   0  0  0  0  0  0
  -17.4194  -26.6683   21.4027 H   0  0  0  0  0  0
  -18.0279  -26.0040   22.9017 H   0  0  0  0  0  0
  -19.7926  -30.7250   24.2274 H   0  0  0  0  0  0
  -17.4998  -31.6254   24.5156 H   0  0  0  0  0  0
  -15.5339  -30.2959   23.7640 H   0  0  0  0  0  0
  -15.8673  -28.0809   22.7037 H   0  0  0  0  0  0
  -24.5875  -30.7074   25.7815 H   0  0  0  0  0  0
  -24.8900  -32.2871   26.4939 H   0  0  0  0  0  0
  -25.8048  -30.8873   27.0243 H   0  0  0  0  0  0
  -26.2840  -29.6825   24.1140 H   0  0  0  0  0  0
  -27.4017  -29.7264   25.4576 H   0  0  0  0  0  0
  -27.8683  -30.4363   23.9300 H   0  0  0  0  0  0
  -27.2647  -33.3632   26.2072 H   0  0  0  0  0  0
  -28.3811  -32.6908   25.0291 H   0  0  0  0  0  0
  -28.0725  -31.8464   26.5388 H   0  0  0  0  0  0
  -28.2594  -38.0114   24.7522 H   0  0  0  0  0  0
  -28.1088  -36.2643   24.6263 H   0  0  0  0  0  0
  -27.2303  -37.1435   25.8861 H   0  0  0  0  0  0
  -20.9317  -29.8753   21.6982 H   0  0  0  0  0  0
  -26.0187  -38.2873   24.1406 H   0  0  0  0  0  0
  -30.7884  -20.8178   22.6453 H   0  0  0  0  0  0
  -27.6715  -24.6323   24.1422 H   0  0  0  0  0  0
  -27.8146  -23.4444   22.8584 H   0  0  0  0  0  0
  -26.4725  -24.5792   22.8567 H   0  0  0  0  0  0
  -29.0849  -16.7268   19.0944 H   0  0  0  0  0  0
  -30.8076  -16.7405   19.0980 H   0  0  0  0  0  0
  -29.4054  -25.4803   22.5717 H   0  0  0  0  0  0
  -28.0022  -26.4820   22.5428 H   0  0  0  0  0  0
  -30.2404  -24.8972   19.9364 H   0  0  0  0  0  0
  -27.2784  -24.8886   20.5063 H   0  0  0  0  0  0
  -28.4288  -18.6633   18.2415 H   0  0  0  0  0  0
  -28.2233  -20.3000   18.5372 H   0  0  0  0  0  0
  -29.0048  -21.8931   19.3398 H   0  0  0  0  0  0
  -28.9575  -15.3787   20.9908 H   0  0  0  0  0  0
  1 25  1  0  0  0
  1 30  2  0  0  0
  1 83  1  0  0  0
  2  3  1  0  0  0
  2 25  1  0  0  0
  2 87  1  0  0  0
  2 88  1  0  0  0
  3  4  1  0  0  0
  3 89  1  0  0  0
  3 90  1  0  0  0
  4  5  1  0  0  0
  4 91  1  0  0  0
  4 92  1  0  0  0
  5  6  1  0  0  0
  5 26  1  0  0  0
  5 93  1  0  0  0
  6 25  1  0  0  0
  6 94  1  0  0  0
  6 95  1  0  0  0
  7  8  2  0  0  0
  7 26  1  0  0  0
  7 29  1  0  0  0
  8  9  1  0  0  0
  8 22  1  0  0  0
  9 10  1  0  0  0
  9 27  2  0  0  0
 10 11  2  0  0  0
 10 15  1  0  0  0
 11 12  1  0  0  0
 11 96  1  0  0  0
 12 13  2  0  0  0
 12 97  1  0  0  0
 13 14  1  0  0  0
 13 31  1  0  0  0
 14 15  2  0  0  0
 14 98  1  0  0  0
 15 99  1  0  0  0
 16 17  2  0  0  0
 16 21  1  0  0  0
 16 31  1  0  0  0
 17 18  1  0  0  0
 17100  1  0  0  0
 18 19  2  0  0  0
 18101  1  0  0  0
 19 20  1  0  0  0
 19 24  1  0  0  0
 20 21  2  0  0  0
 20102  1  0  0  0
 21 23  1  0  0  0
 22 28  1  0  0  0
 22 32  2  0  0  0
 26 27  1  0  0  0
 28103  1  0  0  0
 28104  1  0  0  0
 29105  1  0  0  0
 29106  1  0  0  0
 33 34  1  0  0  0
 33 66  1  0  0  0
 33 70  2  0  0  0
 34 36  1  0  0  0
 34 59  1  0  0  0
 34107  1  0  0  0
 35 44  2  0  0  0
 35 45  1  0  0  0
 35 68  1  0  0  0
 36 56  1  0  0  0
 36108  1  0  0  0
 37 39  1  0  0  0
 37 47  1  0  0  0
 37 66  1  0  0  0
 37109  1  0  0  0
 38 43  2  0  0  0
 38 46  1  0  0  0
 38 47  1  0  0  0
 39 64  1  0  0  0
 39 67  2  0  0  0
 40 52  1  0  0  0
 40 53  2  0  0  0
 40 58  1  0  0  0
 41110  1  0  0  0
 41111  1  0  0  0
 41112  1  0  0  0
 41 48  1  0  0  0
 42 43  1  0  0  0
 42 66  1  0  0  0
 42113  1  0  0  0
 42114  1  0  0  0
 43 44  1  0  0  0
 44115  1  0  0  0
 45 46  2  0  0  0
 45116  1  0  0  0
 46117  1  0  0  0
 47118  1  0  0  0
 47119  1  0  0  0
 48 56  1  0  0  0
 48 65  1  0  0  0
 48120  1  0  0  0
 49 50  1  0  0  0
 49 53  1  0  0  0
 49 64  1  0  0  0
 49121  1  0  0  0
 50 51  1  0  0  0
 50122  1  0  0  0
 50123  1  0  0  0
 51 52  1  0  0  0
 51124  1  0  0  0
 51125  1  0  0  0
 52126  1  0  0  0
 52127  1  0  0  0
 53 54  1  0  0  0
 54 55  2  0  0  0
 54128  1  0  0  0
 55 57  1  0  0  0
 55129  1  0  0  0
 56 69  2  0  0  0
 57 58  2  0  0  0
 57130  1  0  0  0
 58131  1  0  0  0
 59 60  1  0  0  0
 59 61  1  0  0  0
 59 62  1  0  0  0
 60132  1  0  0  0
 60133  1  0  0  0
 60134  1  0  0  0
 61135  1  0  0  0
 61136  1  0  0  0
 61137  1  0  0  0
 62138  1  0  0  0
 62139  1  0  0  0
 62140  1  0  0  0
 63 65  1  0  0  0
 63141  1  0  0  0
 63142  1  0  0  0
 63143  1  0  0  0
 64144  1  0  0  0
 65145  1  0  0  0
 68 80  1  0  0  0
 71 72  2  0  0  0
 71 86  1  0  0  0
 71146  1  0  0  0
 72 73  1  0  0  0
 72 82  1  0  0  0
 73 74  2  0  0  0
 73 81  1  0  0  0
 74 77  1  0  0  0
 74 86  1  0  0  0
 75 79  1  0  0  0
 75 82  1  0  0  0
 75 84  2  0  0  0
 76 78  1  0  0  0
 76147  1  0  0  0
 76148  1  0  0  0
 76149  1  0  0  0
 77 83  1  0  0  0
 77150  1  0  0  0
 77151  1  0  0  0
 78152  1  0  0  0
 78153  1  0  0  0
 78 80  1  0  0  0
 79 80  1  0  0  0
 79 85  1  0  0  0
 79154  1  0  0  0
 80155  1  0  0  0
 81156  1  0  0  0
 81157  1  0  0  0
 82158  1  0  0  0
 83159  1  0  0  0
M  ISO  4   1 100  68 101  80 101  83 100
M  END
> <chiral flag>
0

> <version>
0

> <s_m_source_file>
/data/baiqing/PycharmProjects/Reinvent-master-3.2/result/LINK_invent/BTK/process_docking_weight1_custom_product_contain_oxygen_bond_distance_aromatic_linkinvent_7_9_3/rearranged_h_0187.sdf

> <i_m_source_file_index>
86

> <r_mmod_Potential_Energy-OPLS-2005>
-132.797103881836

> <r_mmod_Stretch_Energy-OPLS-2005>
45.5773391723633

> <r_mmod_Bend_Energy-OPLS-2005>
114.818199157715

> <r_mmod_Torsional_Energy-OPLS-2005>
246.245635986328

> <r_mmod_Improper_Torsional_Energy-OPLS-2005>
15.400294303894

> <r_mmod_Van_der_Waal_Energy-OPLS-2005>
134.478363037109

> <r_mmod_Electrostatic_Energy-OPLS-2005>
-479.523590087891

> <r_mmod_Solvation_Energy-OPLS-2005>
-230.700942993164

> <b_mmod_Minimization_Converged-OPLS-2005>
0

> <r_mmod_RMS_Derivative-OPLS-2005>
3.12805533409119

$$$$
88
                    3D
 Structure written by MMmdl.
150157  0  0  1  0            999 V2000
  -30.5629  -14.9324   20.4403 C   0  0  0  0  0  0
  -30.4386  -12.5866   19.4842 C   0  0  0  0  0  0
  -29.5138  -12.5295   18.2459 C   0  0  0  0  0  0
  -28.0468  -12.3196   18.6673 C   0  0  0  0  0  0
  -27.6299  -13.2496   19.8373 C   0  0  2  0  0  0
  -28.6757  -13.2794   20.9729 C   0  0  0  0  0  0
  -25.2489  -13.8234   20.5749 C   0  0  0  0  0  0
  -24.1804  -13.0461   20.9242 C   0  0  0  0  0  0
  -24.6392  -11.6934   20.8734 C   0  0  0  0  0  0
  -23.9085  -10.4307   21.0395 C   0  0  0  0  0  0
  -24.3639   -9.4226   21.9178 C   0  0  0  0  0  0
  -23.6320   -8.2270   22.0758 C   0  0  0  0  0  0
  -22.4306   -8.0289   21.3543 C   0  0  0  0  0  0
  -21.9925   -9.0260   20.4657 C   0  0  0  0  0  0
  -22.7251  -10.2147   20.3055 C   0  0  0  0  0  0
  -21.6870   -6.0738   22.5267 C   0  0  0  0  0  0
  -21.4009   -6.5639   23.8205 C   0  0  0  0  0  0
  -21.3666   -5.6786   24.9166 C   0  0  0  0  0  0
  -21.6048   -4.3053   24.7214 C   0  0  0  0  0  0
  -21.8826   -3.8149   23.4340 C   0  0  0  0  0  0
  -21.9205   -4.6961   22.3394 C   0  0  0  0  0  0
  -22.7820  -13.5236   21.1884 C   0  0  0  0  0  0
  -22.1676   -4.2143   21.0983 F   0  0  0  0  0  0
  -21.5651   -3.4539   25.7739 F   0  0  0  0  0  0
  -29.9499  -13.6840   20.3689 N   0  0  0  0  0  0
  -26.2898  -12.9459   20.3245 N   0  0  0  0  0  0
  -25.9329  -11.6587   20.5708 N   0  0  0  0  0  0
  -22.0473  -12.8230   22.0440 N   0  0  0  0  0  0
  -25.4160  -15.1965   20.4223 N   0  0  0  0  0  0
  -31.7693  -14.9815   20.1794 O   0  0  0  0  0  0
  -21.6678   -6.8875   21.4230 O   0  0  0  0  0  0
  -22.3503  -14.5539   20.6718 O   0  0  0  0  0  0
  -24.6455  -31.8441   23.1867 C   0  0  0  0  0  0
  -25.9238  -32.4667   23.8258 C   0  0  1  0  0  0
  -27.2114  -27.1253   20.1594 C   0  0  0  0  0  0
  -25.6001  -33.8472   24.2195 N   0  0  0  0  0  0
  -23.4477  -30.4683   21.5303 C   0  0  2  0  0  0
  -24.8979  -28.8946   20.1061 C   0  0  0  0  0  0
  -22.7578  -29.4591   22.4821 C   0  0  0  0  0  0
  -18.0314  -28.1390   22.8472 C   0  0  0  0  0  0
  -24.1505  -36.7247   23.2646 C   0  0  0  0  0  0
  -26.0033  -30.7142   21.3876 C   0  0  0  0  0  0
  -26.0738  -29.3242   20.7340 C   0  0  0  0  0  0
  -27.2303  -28.4550   20.7503 C   0  0  0  0  0  0
  -26.0155  -26.8101   19.4771 C   0  0  0  0  0  0
  -24.8826  -27.6498   19.4619 C   0  0  0  0  0  0
  -23.6754  -29.7987   20.1493 C   0  0  0  0  0  0
  -25.4127  -36.3008   24.0325 C   0  0  1  0  0  0
  -20.5930  -28.3755   23.1207 C   0  0  2  0  0  0
  -20.6809  -26.9450   22.5402 C   0  0  0  0  0  0
  -19.5780  -26.6386   21.5213 C   0  0  0  0  0  0
  -18.1956  -26.7930   22.1609 C   0  0  0  0  0  0
  -19.1570  -28.8880   23.2832 C   0  0  0  0  0  0
  -18.9492  -30.1466   23.8880 C   0  0  0  0  0  0
  -17.6484  -30.6588   24.0562 C   0  0  0  0  0  0
  -25.9082  -34.9392   23.5064 C   0  0  0  0  0  0
  -16.5381  -29.9079   23.6328 C   0  0  0  0  0  0
  -16.7303  -28.6497   23.0365 C   0  0  0  0  0  0
  -26.4580  -31.6506   25.0671 C   0  0  0  0  0  0
  -25.3789  -31.3678   26.1377 C   0  0  0  0  0  0
  -27.0478  -30.2913   24.6230 C   0  0  0  0  0  0
  -27.6105  -32.4280   25.7460 C   0  0  0  0  0  0
  -27.5580  -37.1784   24.8465 C   0  0  0  0  0  0
  -21.4276  -29.3085   22.3578 N   0  0  0  0  0  0
  -26.4286  -37.3725   23.9411 N   0  0  0  0  0  0
  -24.7183  -31.0318   22.0884 N   0  0  0  0  0  0
  -23.4202  -28.8146   23.2989 O   0  0  0  0  0  0
  -28.2427  -26.1150   20.2492 O   0  0  0  0  0  0
  -26.5640  -34.8916   22.4619 O   0  0  0  0  0  0
  -23.5582  -32.1317   23.7102 O   0  0  0  0  0  0
  -28.8678  -23.3134   20.3991 C   0  0  0  0  0  0
  -28.6520  -21.9143   20.2358 C   0  0  0  0  0  0
  -30.9889  -17.8424   22.0101 C   0  0  0  0  0  0
  -27.9074  -24.6036   20.0373 C   0  0  0  0  0  0
  -29.6132  -20.6140   20.5768 C   0  0  2  0  0  0
  -30.2346  -17.6523   20.6819 C   0  0  2  0  0  0
  -29.1810  -18.9693   20.4857 C   0  0  0  0  0  0
  -29.8110  -16.1282   20.6100 N   0  0  0  0  0  0
  -27.4526  -21.6010   19.7143 F   0  0  0  0  0  0
  -30.1778  -20.8117   21.7718 F   0  0  0  0  0  0
  -28.6442  -18.7938   19.2789 F   0  0  0  0  0  0
  -28.2057  -18.7912   21.3772 F   0  0  0  0  0  0
  -31.4682  -12.7456   19.1638 H   0  0  0  0  0  0
  -30.4354  -11.6337   20.0172 H   0  0  0  0  0  0
  -29.8222  -11.7319   17.5673 H   0  0  0  0  0  0
  -29.6020  -13.4610   17.6837 H   0  0  0  0  0  0
  -27.9343  -11.2744   18.9628 H   0  0  0  0  0  0
  -27.3818  -12.4664   17.8155 H   0  0  0  0  0  0
  -27.5945  -14.2528   19.4094 H   0  0  0  0  0  0
  -28.7607  -12.3094   21.4629 H   0  0  0  0  0  0
  -28.3792  -13.9931   21.7434 H   0  0  0  0  0  0
  -25.2784   -9.5748   22.4735 H   0  0  0  0  0  0
  -24.0037   -7.4669   22.7484 H   0  0  0  0  0  0
  -21.0855   -8.8779   19.8956 H   0  0  0  0  0  0
  -22.3697  -10.9686   19.6162 H   0  0  0  0  0  0
  -21.1972   -7.6138   23.9714 H   0  0  0  0  0  0
  -21.1490   -6.0506   25.9075 H   0  0  0  0  0  0
  -22.0601   -2.7608   23.2839 H   0  0  0  0  0  0
  -22.4097  -11.9865   22.4782 H   0  0  0  0  0  0
  -21.1086  -13.1236   22.2649 H   0  0  0  0  0  0
  -24.6499  -15.8456   20.5642 H   0  0  0  0  0  0
  -26.2533  -15.6449   20.0746 H   0  0  0  0  0  0
  -26.7296  -32.5298   23.0993 H   0  0  0  0  0  0
  -25.0240  -33.9540   25.0409 H   0  0  0  0  0  0
  -22.7515  -31.2948   21.3756 H   0  0  0  0  0  0
  -23.3769  -35.9577   23.3274 H   0  0  0  0  0  0
  -24.3620  -36.8885   22.2067 H   0  0  0  0  0  0
  -23.7265  -37.6445   23.6697 H   0  0  0  0  0  0
  -26.1618  -31.4616   20.6090 H   0  0  0  0  0  0
  -26.8724  -30.7686   22.0299 H   0  0  0  0  0  0
  -28.1190  -28.7721   21.2788 H   0  0  0  0  0  0
  -25.9145  -25.8681   18.9606 H   0  0  0  0  0  0
  -23.9918  -27.3131   18.9499 H   0  0  0  0  0  0
  -23.8131  -30.5703   19.3914 H   0  0  0  0  0  0
  -22.7884  -29.2430   19.8418 H   0  0  0  0  0  0
  -25.1315  -36.1850   25.0818 H   0  0  0  0  0  0
  -21.0024  -28.3363   24.1325 H   0  0  0  0  0  0
  -20.5701  -26.2385   23.3641 H   0  0  0  0  0  0
  -21.6676  -26.7454   22.1202 H   0  0  0  0  0  0
  -19.6950  -25.6293   21.1255 H   0  0  0  0  0  0
  -19.6698  -27.3185   20.6731 H   0  0  0  0  0  0
  -17.4238  -26.6692   21.3991 H   0  0  0  0  0  0
  -18.0333  -26.0063   22.8989 H   0  0  0  0  0  0
  -19.7970  -30.7278   24.2245 H   0  0  0  0  0  0
  -17.5049  -31.6263   24.5173 H   0  0  0  0  0  0
  -15.5380  -30.2983   23.7662 H   0  0  0  0  0  0
  -15.8700  -28.0799   22.7098 H   0  0  0  0  0  0
  -24.5989  -30.6984   25.7720 H   0  0  0  0  0  0
  -24.8970  -32.2854   26.4767 H   0  0  0  0  0  0
  -25.8104  -30.8901   27.0179 H   0  0  0  0  0  0
  -26.3105  -29.6580   24.1273 H   0  0  0  0  0  0
  -27.4173  -29.7240   25.4782 H   0  0  0  0  0  0
  -27.8968  -30.4157   23.9500 H   0  0  0  0  0  0
  -27.2686  -33.3606   26.1966 H   0  0  0  0  0  0
  -28.3961  -32.6776   25.0312 H   0  0  0  0  0  0
  -28.0729  -31.8447   26.5435 H   0  0  0  0  0  0
  -28.2578  -38.0100   24.7526 H   0  0  0  0  0  0
  -28.1094  -36.2632   24.6270 H   0  0  0  0  0  0
  -27.2307  -37.1392   25.8868 H   0  0  0  0  0  0
  -20.9493  -29.8808   21.6762 H   0  0  0  0  0  0
  -26.0151  -38.2795   24.1401 H   0  0  0  0  0  0
  -29.8185  -23.5992   20.8257 H   0  0  0  0  0  0
  -30.2921  -17.9108   22.8460 H   0  0  0  0  0  0
  -31.5755  -18.7604   21.9926 H   0  0  0  0  0  0
  -31.6861  -17.0300   22.2192 H   0  0  0  0  0  0
  -26.9668  -24.4059   20.5532 H   0  0  0  0  0  0
  -27.6742  -24.4867   18.9789 H   0  0  0  0  0  0
  -30.4496  -20.7224   19.8860 H   0  0  0  0  0  0
  -30.9766  -17.7532   19.8872 H   0  0  0  0  0  0
  -28.8193  -15.9798   20.7156 H   0  0  0  0  0  0
  1 25  1  0  0  0
  1 30  2  0  0  0
  1 78  1  0  0  0
  2  3  1  0  0  0
  2 25  1  0  0  0
  2 83  1  0  0  0
  2 84  1  0  0  0
  3  4  1  0  0  0
  3 85  1  0  0  0
  3 86  1  0  0  0
  4  5  1  0  0  0
  4 87  1  0  0  0
  4 88  1  0  0  0
  5  6  1  0  0  0
  5 26  1  0  0  0
  5 89  1  0  0  0
  6 25  1  0  0  0
  6 90  1  0  0  0
  6 91  1  0  0  0
  7  8  2  0  0  0
  7 26  1  0  0  0
  7 29  1  0  0  0
  8  9  1  0  0  0
  8 22  1  0  0  0
  9 10  1  0  0  0
  9 27  2  0  0  0
 10 11  2  0  0  0
 10 15  1  0  0  0
 11 12  1  0  0  0
 11 92  1  0  0  0
 12 13  2  0  0  0
 12 93  1  0  0  0
 13 14  1  0  0  0
 13 31  1  0  0  0
 14 15  2  0  0  0
 14 94  1  0  0  0
 15 95  1  0  0  0
 16 17  2  0  0  0
 16 21  1  0  0  0
 16 31  1  0  0  0
 17 18  1  0  0  0
 17 96  1  0  0  0
 18 19  2  0  0  0
 18 97  1  0  0  0
 19 20  1  0  0  0
 19 24  1  0  0  0
 20 21  2  0  0  0
 20 98  1  0  0  0
 21 23  1  0  0  0
 22 28  1  0  0  0
 22 32  2  0  0  0
 26 27  1  0  0  0
 28 99  1  0  0  0
 28100  1  0  0  0
 29101  1  0  0  0
 29102  1  0  0  0
 33 34  1  0  0  0
 33 66  1  0  0  0
 33 70  2  0  0  0
 34 36  1  0  0  0
 34 59  1  0  0  0
 34103  1  0  0  0
 35 44  2  0  0  0
 35 45  1  0  0  0
 35 68  1  0  0  0
 36 56  1  0  0  0
 36104  1  0  0  0
 37 39  1  0  0  0
 37 47  1  0  0  0
 37 66  1  0  0  0
 37105  1  0  0  0
 38 43  2  0  0  0
 38 46  1  0  0  0
 38 47  1  0  0  0
 39 64  1  0  0  0
 39 67  2  0  0  0
 40 52  1  0  0  0
 40 53  2  0  0  0
 40 58  1  0  0  0
 41106  1  0  0  0
 41107  1  0  0  0
 41108  1  0  0  0
 41 48  1  0  0  0
 42 43  1  0  0  0
 42 66  1  0  0  0
 42109  1  0  0  0
 42110  1  0  0  0
 43 44  1  0  0  0
 44111  1  0  0  0
 45 46  2  0  0  0
 45112  1  0  0  0
 46113  1  0  0  0
 47114  1  0  0  0
 47115  1  0  0  0
 48 56  1  0  0  0
 48 65  1  0  0  0
 48116  1  0  0  0
 49 50  1  0  0  0
 49 53  1  0  0  0
 49 64  1  0  0  0
 49117  1  0  0  0
 50 51  1  0  0  0
 50118  1  0  0  0
 50119  1  0  0  0
 51 52  1  0  0  0
 51120  1  0  0  0
 51121  1  0  0  0
 52122  1  0  0  0
 52123  1  0  0  0
 53 54  1  0  0  0
 54 55  2  0  0  0
 54124  1  0  0  0
 55 57  1  0  0  0
 55125  1  0  0  0
 56 69  2  0  0  0
 57 58  2  0  0  0
 57126  1  0  0  0
 58127  1  0  0  0
 59 60  1  0  0  0
 59 61  1  0  0  0
 59 62  1  0  0  0
 60128  1  0  0  0
 60129  1  0  0  0
 60130  1  0  0  0
 61131  1  0  0  0
 61132  1  0  0  0
 61133  1  0  0  0
 62134  1  0  0  0
 62135  1  0  0  0
 62136  1  0  0  0
 63 65  1  0  0  0
 63137  1  0  0  0
 63138  1  0  0  0
 63139  1  0  0  0
 64140  1  0  0  0
 65141  1  0  0  0
 68 74  1  0  0  0
 71 72  2  0  0  0
 71 74  1  0  0  0
 71142  1  0  0  0
 72 75  1  0  0  0
 72 79  1  0  0  0
 73143  1  0  0  0
 73144  1  0  0  0
 73145  1  0  0  0
 73 76  1  0  0  0
 74146  1  0  0  0
 74147  1  0  0  0
 75 77  1  0  0  0
 75 80  1  0  0  0
 75148  1  0  0  0
 76 77  1  0  0  0
 76 78  1  0  0  0
 76149  1  0  0  0
 77 81  1  0  0  0
 77 82  1  0  0  0
 78150  1  0  0  0
M  ISO  4   1 100  68 101  74 101  78 100
M  END
> <chiral flag>
0

> <version>
0

> <s_m_source_file>
/data/baiqing/PycharmProjects/Reinvent-master-3.2/result/LINK_invent/BTK/process_docking_weight1_custom_product_contain_oxygen_bond_distance_aromatic_linkinvent_7_9_3/rearranged_h_0187.sdf

> <i_m_source_file_index>
87

> <r_mmod_Potential_Energy-OPLS-2005>
445.868347167969

> <r_mmod_Stretch_Energy-OPLS-2005>
270.120880126953

> <r_mmod_Bend_Energy-OPLS-2005>
237.912902832031

> <r_mmod_Torsional_Energy-OPLS-2005>
208.987808227539

> <r_mmod_Improper_Torsional_Energy-OPLS-2005>
3.83762979507446

> <r_mmod_Van_der_Waal_Energy-OPLS-2005>
114.891777038574

> <r_mmod_Electrostatic_Energy-OPLS-2005>
-387.683868408203

> <r_mmod_Solvation_Energy-OPLS-2005>
-196.882278442383

> <b_mmod_Minimization_Converged-OPLS-2005>
0

> <r_mmod_RMS_Derivative-OPLS-2005>
3.25507140159607

$$$$
89
                    3D
 Structure written by MMmdl.
171179  0  0  1  0            999 V2000
  -30.5734  -14.7667   20.4535 C   0  0  0  0  0  0
  -30.4406  -12.4692   19.4577 C   0  0  0  0  0  0
  -29.5040  -12.5047   18.2291 C   0  0  0  0  0  0
  -28.0329  -12.3211   18.6528 C   0  0  0  0  0  0
  -27.6400  -13.2228   19.8531 C   0  0  2  0  0  0
  -28.6905  -13.1593   20.9819 C   0  0  0  0  0  0
  -25.2507  -13.8192   20.5665 C   0  0  0  0  0  0
  -24.1799  -13.0448   20.9215 C   0  0  0  0  0  0
  -24.6379  -11.6915   20.8795 C   0  0  0  0  0  0
  -23.9068  -10.4287   21.0433 C   0  0  0  0  0  0
  -24.3615   -9.4197   21.9202 C   0  0  0  0  0  0
  -23.6284   -8.2240   22.0763 C   0  0  0  0  0  0
  -22.4277   -8.0295   21.3534 C   0  0  0  0  0  0
  -21.9912   -9.0275   20.4645 C   0  0  0  0  0  0
  -22.7251  -10.2139   20.3077 C   0  0  0  0  0  0
  -21.6848   -6.0722   22.5257 C   0  0  0  0  0  0
  -21.4011   -6.5629   23.8189 C   0  0  0  0  0  0
  -21.3671   -5.6789   24.9159 C   0  0  0  0  0  0
  -21.6048   -4.3049   24.7208 C   0  0  0  0  0  0
  -21.8830   -3.8136   23.4328 C   0  0  0  0  0  0
  -21.9185   -4.6950   22.3382 C   0  0  0  0  0  0
  -22.7819  -13.5227   21.1864 C   0  0  0  0  0  0
  -22.1664   -4.2151   21.0952 F   0  0  0  0  0  0
  -21.5633   -3.4527   25.7709 F   0  0  0  0  0  0
  -29.9782  -13.5269   20.3818 N   0  0  0  0  0  0
  -26.2932  -12.9376   20.3338 N   0  0  0  0  0  0
  -25.9315  -11.6522   20.5845 N   0  0  0  0  0  0
  -22.0479  -12.8206   22.0420 N   0  0  0  0  0  0
  -25.4158  -15.1910   20.3906 N   0  0  0  0  0  0
  -31.7836  -14.8823   20.2429 O   0  0  0  0  0  0
  -21.6640   -6.8885   21.4235 O   0  0  0  0  0  0
  -22.3490  -14.5510   20.6694 O   0  0  0  0  0  0
  -24.6310  -31.8572   23.1924 C   0  0  0  0  0  0
  -25.9118  -32.4758   23.8281 C   0  0  1  0  0  0
  -27.2288  -27.2454   20.1091 C   0  0  0  0  0  0
  -25.5914  -33.8567   24.2208 N   0  0  0  0  0  0
  -23.4308  -30.4674   21.5422 C   0  0  2  0  0  0
  -24.8756  -28.9071   20.1081 C   0  0  0  0  0  0
  -22.7523  -29.4556   22.4969 C   0  0  0  0  0  0
  -18.0314  -28.1316   22.8475 C   0  0  0  0  0  0
  -24.1483  -36.7299   23.2635 C   0  0  0  0  0  0
  -25.9764  -30.7543   21.3785 C   0  0  0  0  0  0
  -26.0491  -29.3766   20.7154 C   0  0  0  0  0  0
  -27.2233  -28.5563   20.7002 C   0  0  0  0  0  0
  -26.0281  -26.8383   19.4873 C   0  0  0  0  0  0
  -24.8741  -27.6502   19.4818 C   0  0  0  0  0  0
  -23.6482  -29.7977   20.1593 C   0  0  0  0  0  0
  -25.4120  -36.3079   24.0314 C   0  0  1  0  0  0
  -20.5903  -28.3648   23.1290 C   0  0  2  0  0  0
  -20.6820  -26.9382   22.5422 C   0  0  0  0  0  0
  -19.5808  -26.6338   21.5206 C   0  0  0  0  0  0
  -18.1972  -26.7874   22.1582 C   0  0  0  0  0  0
  -19.1556  -28.8799   23.2857 C   0  0  0  0  0  0
  -18.9482  -30.1386   23.8879 C   0  0  0  0  0  0
  -17.6476  -30.6538   24.0505 C   0  0  0  0  0  0
  -25.9052  -34.9444   23.5064 C   0  0  0  0  0  0
  -16.5373  -29.9040   23.6266 C   0  0  0  0  0  0
  -16.7295  -28.6436   23.0336 C   0  0  0  0  0  0
  -26.4473  -31.6590   25.0694 C   0  0  0  0  0  0
  -25.3681  -31.3751   26.1402 C   0  0  0  0  0  0
  -27.0336  -30.3001   24.6186 C   0  0  0  0  0  0
  -27.5986  -32.4395   25.7458 C   0  0  0  0  0  0
  -27.5598  -37.1790   24.8470 C   0  0  0  0  0  0
  -21.4235  -29.3007   22.3703 N   0  0  0  0  0  0
  -26.4305  -37.3787   23.9419 N   0  0  0  0  0  0
  -24.6990  -31.0449   22.0948 N   0  0  0  0  0  0
  -23.4197  -28.8165   23.3130 O   0  0  0  0  0  0
  -28.3436  -26.3761   20.1831 O   0  0  0  0  0  0
  -26.5645  -34.8936   22.4646 O   0  0  0  0  0  0
  -23.5438  -32.1472   23.7131 O   0  0  0  0  0  0
  -30.2294  -19.4999   21.8721 C   0  0  0  0  0  0
  -29.4004  -19.6524   20.7751 C   0  0  0  0  0  0
  -29.9214  -17.3013   20.7191 C   0  0  0  0  0  0
  -30.4635  -20.4145   22.9878 C   0  0  0  0  0  0
  -29.6539  -20.8548   26.0640 C   0  0  0  0  0  0
  -30.1198  -23.0736   24.9078 C   0  0  0  0  0  0
  -27.7830  -22.2925   25.2103 C   0  0  0  0  0  0
  -29.1255  -22.1016   18.3412 C   0  0  0  0  0  0
  -30.6198  -22.4706   20.2795 C   0  0  0  0  0  0
  -29.2007  -21.1012   23.5523 C   0  0  0  0  0  0
  -28.4450  -25.0064   19.5509 C   0  0  0  0  0  0
  -28.2897  -23.5653   20.3211 C   0  0  2  0  0  0
  -29.2254  -21.8169   24.9314 C   0  0  0  0  0  0
  -29.1522  -22.2293   19.8759 C   0  0  0  0  0  0
  -29.1903  -18.3437   20.1877 N   0  0  0  0  0  0
  -28.6706  -20.8766   20.4030 N   0  0  0  0  0  0
  -29.7273  -15.8671   20.4118 N   0  0  0  0  0  0
  -31.5782  -20.5564   23.5009 O   0  0  0  0  0  0
  -26.9986  -23.2343   20.2530 F   0  0  0  0  0  0
  -30.9615  -17.8944   22.0056 S   0  0  0  0  0  0
  -31.4759  -12.6182   19.1471 H   0  0  0  0  0  0
  -30.4083  -11.4947   19.9460 H   0  0  0  0  0  0
  -29.7858  -11.7303   17.5136 H   0  0  0  0  0  0
  -29.6130  -13.4584   17.7107 H   0  0  0  0  0  0
  -27.8946  -11.2729   18.9209 H   0  0  0  0  0  0
  -27.3659  -12.5143   17.8110 H   0  0  0  0  0  0
  -27.6298  -14.2429   19.4706 H   0  0  0  0  0  0
  -28.7430  -12.1660   21.4287 H   0  0  0  0  0  0
  -28.4325  -13.8471   21.7902 H   0  0  0  0  0  0
  -25.2758   -9.5652   22.4768 H   0  0  0  0  0  0
  -23.9988   -7.4618   22.7472 H   0  0  0  0  0  0
  -21.0850   -8.8804   19.8921 H   0  0  0  0  0  0
  -22.3743  -10.9692   19.6183 H   0  0  0  0  0  0
  -21.2022   -7.6134   23.9702 H   0  0  0  0  0  0
  -21.1491   -6.0501   25.9061 H   0  0  0  0  0  0
  -22.0603   -2.7602   23.2812 H   0  0  0  0  0  0
  -22.4120  -11.9865   22.4773 H   0  0  0  0  0  0
  -21.1108  -13.1222   22.2689 H   0  0  0  0  0  0
  -24.6308  -15.8312   20.4521 H   0  0  0  0  0  0
  -26.2300  -15.6174   19.9682 H   0  0  0  0  0  0
  -26.7196  -32.5369   23.1009 H   0  0  0  0  0  0
  -25.0013  -33.9723   25.0315 H   0  0  0  0  0  0
  -22.7258  -31.2883   21.3919 H   0  0  0  0  0  0
  -23.3746  -35.9617   23.3300 H   0  0  0  0  0  0
  -24.3577  -36.8950   22.2055 H   0  0  0  0  0  0
  -23.7256  -37.6486   23.6697 H   0  0  0  0  0  0
  -26.1234  -31.5178   20.6136 H   0  0  0  0  0  0
  -26.8508  -30.8018   22.0169 H   0  0  0  0  0  0
  -28.1244  -28.9150   21.1784 H   0  0  0  0  0  0
  -25.9531  -25.8652   19.0295 H   0  0  0  0  0  0
  -23.9761  -27.2835   19.0012 H   0  0  0  0  0  0
  -23.7788  -30.5792   19.4097 H   0  0  0  0  0  0
  -22.7639  -29.2383   19.8457 H   0  0  0  0  0  0
  -25.1299  -36.1912   25.0812 H   0  0  0  0  0  0
  -20.9930  -28.3240   24.1439 H   0  0  0  0  0  0
  -20.5779  -26.2260   23.3631 H   0  0  0  0  0  0
  -21.6694  -26.7486   22.1192 H   0  0  0  0  0  0
  -19.6994  -25.6249   21.1260 H   0  0  0  0  0  0
  -19.6729  -27.3105   20.6706 H   0  0  0  0  0  0
  -17.4272  -26.6614   21.3956 H   0  0  0  0  0  0
  -18.0350  -25.9967   22.8929 H   0  0  0  0  0  0
  -19.7971  -30.7130   24.2327 H   0  0  0  0  0  0
  -17.5068  -31.6235   24.5067 H   0  0  0  0  0  0
  -15.5379  -30.2913   23.7606 H   0  0  0  0  0  0
  -15.8720  -28.0709   22.7094 H   0  0  0  0  0  0
  -24.5823  -30.7148   25.7734 H   0  0  0  0  0  0
  -24.8867  -32.2904   26.4824 H   0  0  0  0  0  0
  -25.7961  -30.8917   27.0192 H   0  0  0  0  0  0
  -26.2919  -29.6707   24.1233 H   0  0  0  0  0  0
  -27.4078  -29.7287   25.4689 H   0  0  0  0  0  0
  -27.8773  -30.4293   23.9412 H   0  0  0  0  0  0
  -27.2560  -33.3717   26.1966 H   0  0  0  0  0  0
  -28.3778  -32.6966   25.0284 H   0  0  0  0  0  0
  -28.0672  -31.8608   26.5418 H   0  0  0  0  0  0
  -28.2572  -38.0122   24.7540 H   0  0  0  0  0  0
  -28.1151  -36.2650   24.6266 H   0  0  0  0  0  0
  -27.2337  -37.1410   25.8880 H   0  0  0  0  0  0
  -20.9487  -29.8679   21.6830 H   0  0  0  0  0  0
  -26.0171  -38.2863   24.1391 H   0  0  0  0  0  0
  -29.6431  -21.3503   27.0360 H   0  0  0  0  0  0
  -30.6640  -20.4635   25.9240 H   0  0  0  0  0  0
  -28.9818  -19.9964   26.1263 H   0  0  0  0  0  0
  -30.0021  -23.6649   25.8184 H   0  0  0  0  0  0
  -29.8533  -23.7238   24.0722 H   0  0  0  0  0  0
  -31.1788  -22.8265   24.8177 H   0  0  0  0  0  0
  -27.7090  -22.7717   26.1885 H   0  0  0  0  0  0
  -27.0700  -21.4651   25.1904 H   0  0  0  0  0  0
  -27.4510  -23.0170   24.4622 H   0  0  0  0  0  0
  -29.5244  -22.9875   17.8459 H   0  0  0  0  0  0
  -28.1130  -21.9578   17.9679 H   0  0  0  0  0  0
  -29.7335  -21.2616   17.9970 H   0  0  0  0  0  0
  -31.0558  -23.2816   19.6988 H   0  0  0  0  0  0
  -31.2465  -21.5956   20.1001 H   0  0  0  0  0  0
  -30.7151  -22.7528   21.3287 H   0  0  0  0  0  0
  -28.4300  -20.3296   23.5834 H   0  0  0  0  0  0
  -28.8651  -21.8154   22.8027 H   0  0  0  0  0  0
  -27.8705  -24.9797   18.6252 H   0  0  0  0  0  0
  -29.4703  -25.0047   19.1882 H   0  0  0  0  0  0
  -28.4710  -23.7407   21.3816 H   0  0  0  0  0  0
  -27.7864  -20.6492   19.9590 H   0  0  0  0  0  0
  -28.7748  -15.6241   20.1975 H   0  0  0  0  0  0
  1 25  1  0  0  0
  1 30  2  0  0  0
  1 87  1  0  0  0
  2  3  1  0  0  0
  2 25  1  0  0  0
  2 91  1  0  0  0
  2 92  1  0  0  0
  3  4  1  0  0  0
  3 93  1  0  0  0
  3 94  1  0  0  0
  4  5  1  0  0  0
  4 95  1  0  0  0
  4 96  1  0  0  0
  5  6  1  0  0  0
  5 26  1  0  0  0
  5 97  1  0  0  0
  6 25  1  0  0  0
  6 98  1  0  0  0
  6 99  1  0  0  0
  7  8  2  0  0  0
  7 26  1  0  0  0
  7 29  1  0  0  0
  8  9  1  0  0  0
  8 22  1  0  0  0
  9 10  1  0  0  0
  9 27  2  0  0  0
 10 11  2  0  0  0
 10 15  1  0  0  0
 11 12  1  0  0  0
 11100  1  0  0  0
 12 13  2  0  0  0
 12101  1  0  0  0
 13 14  1  0  0  0
 13 31  1  0  0  0
 14 15  2  0  0  0
 14102  1  0  0  0
 15103  1  0  0  0
 16 17  2  0  0  0
 16 21  1  0  0  0
 16 31  1  0  0  0
 17 18  1  0  0  0
 17104  1  0  0  0
 18 19  2  0  0  0
 18105  1  0  0  0
 19 20  1  0  0  0
 19 24  1  0  0  0
 20 21  2  0  0  0
 20106  1  0  0  0
 21 23  1  0  0  0
 22 28  1  0  0  0
 22 32  2  0  0  0
 26 27  1  0  0  0
 28107  1  0  0  0
 28108  1  0  0  0
 29109  1  0  0  0
 29110  1  0  0  0
 33 34  1  0  0  0
 33 66  1  0  0  0
 33 70  2  0  0  0
 34 36  1  0  0  0
 34 59  1  0  0  0
 34111  1  0  0  0
 35 44  2  0  0  0
 35 45  1  0  0  0
 35 68  1  0  0  0
 36 56  1  0  0  0
 36112  1  0  0  0
 37 39  1  0  0  0
 37 47  1  0  0  0
 37 66  1  0  0  0
 37113  1  0  0  0
 38 43  2  0  0  0
 38 46  1  0  0  0
 38 47  1  0  0  0
 39 64  1  0  0  0
 39 67  2  0  0  0
 40 52  1  0  0  0
 40 53  2  0  0  0
 40 58  1  0  0  0
 41114  1  0  0  0
 41115  1  0  0  0
 41116  1  0  0  0
 41 48  1  0  0  0
 42 43  1  0  0  0
 42 66  1  0  0  0
 42117  1  0  0  0
 42118  1  0  0  0
 43 44  1  0  0  0
 44119  1  0  0  0
 45 46  2  0  0  0
 45120  1  0  0  0
 46121  1  0  0  0
 47122  1  0  0  0
 47123  1  0  0  0
 48 56  1  0  0  0
 48 65  1  0  0  0
 48124  1  0  0  0
 49 50  1  0  0  0
 49 53  1  0  0  0
 49 64  1  0  0  0
 49125  1  0  0  0
 50 51  1  0  0  0
 50126  1  0  0  0
 50127  1  0  0  0
 51 52  1  0  0  0
 51128  1  0  0  0
 51129  1  0  0  0
 52130  1  0  0  0
 52131  1  0  0  0
 53 54  1  0  0  0
 54 55  2  0  0  0
 54132  1  0  0  0
 55 57  1  0  0  0
 55133  1  0  0  0
 56 69  2  0  0  0
 57 58  2  0  0  0
 57134  1  0  0  0
 58135  1  0  0  0
 59 60  1  0  0  0
 59 61  1  0  0  0
 59 62  1  0  0  0
 60136  1  0  0  0
 60137  1  0  0  0
 60138  1  0  0  0
 61139  1  0  0  0
 61140  1  0  0  0
 61141  1  0  0  0
 62142  1  0  0  0
 62143  1  0  0  0
 62144  1  0  0  0
 63 65  1  0  0  0
 63145  1  0  0  0
 63146  1  0  0  0
 63147  1  0  0  0
 64148  1  0  0  0
 65149  1  0  0  0
 68 81  1  0  0  0
 71 72  2  0  0  0
 71 74  1  0  0  0
 71 90  1  0  0  0
 72 85  1  0  0  0
 72 86  1  0  0  0
 73 85  2  0  0  0
 73 87  1  0  0  0
 73 90  1  0  0  0
 74 80  1  0  0  0
 74 88  2  0  0  0
 75150  1  0  0  0
 75151  1  0  0  0
 75152  1  0  0  0
 75 83  1  0  0  0
 76 83  1  0  0  0
 76153  1  0  0  0
 76154  1  0  0  0
 76155  1  0  0  0
 77 83  1  0  0  0
 77156  1  0  0  0
 77157  1  0  0  0
 77158  1  0  0  0
 78159  1  0  0  0
 78160  1  0  0  0
 78161  1  0  0  0
 78 84  1  0  0  0
 79 84  1  0  0  0
 79162  1  0  0  0
 79163  1  0  0  0
 79164  1  0  0  0
 80 83  1  0  0  0
 80165  1  0  0  0
 80166  1  0  0  0
 81 82  1  0  0  0
 81167  1  0  0  0
 81168  1  0  0  0
 82 84  1  0  0  0
 82 89  1  0  0  0
 82169  1  0  0  0
 84 86  1  0  0  0
 86170  1  0  0  0
 87171  1  0  0  0
M  ISO  4   1 100  68 101  81 101  87 100
M  END
> <chiral flag>
0

> <version>
0

> <s_m_source_file>
/data/baiqing/PycharmProjects/Reinvent-master-3.2/result/LINK_invent/BTK/process_docking_weight1_custom_product_contain_oxygen_bond_distance_aromatic_linkinvent_7_9_3/rearranged_h_0187.sdf

> <i_m_source_file_index>
88

> <r_mmod_Potential_Energy-OPLS-2005>
252.192901611328

> <r_mmod_Stretch_Energy-OPLS-2005>
135.812469482422

> <r_mmod_Bend_Energy-OPLS-2005>
213.017425537109

> <r_mmod_Torsional_Energy-OPLS-2005>
273.100708007812

> <r_mmod_Improper_Torsional_Energy-OPLS-2005>
15.6767864227295

> <r_mmod_Van_der_Waal_Energy-OPLS-2005>
107.847618103027

> <r_mmod_Electrostatic_Energy-OPLS-2005>
-379.506469726562

> <r_mmod_Solvation_Energy-OPLS-2005>
-210.39518737793

> <b_mmod_Minimization_Converged-OPLS-2005>
0

> <r_mmod_RMS_Derivative-OPLS-2005>
4.84670448303223

$$$$
90
                    3D
 Structure written by MMmdl.
161169  0  0  1  0            999 V2000
  -30.4996  -15.0102   20.4066 C   0  0  0  0  0  0
  -30.4390  -12.6261   19.5301 C   0  0  0  0  0  0
  -29.5322  -12.5603   18.2776 C   0  0  0  0  0  0
  -28.0657  -12.3321   18.6844 C   0  0  0  0  0  0
  -27.6307  -13.2593   19.8482 C   0  0  2  0  0  0
  -28.6635  -13.2941   20.9955 C   0  0  0  0  0  0
  -25.2459  -13.8249   20.5753 C   0  0  0  0  0  0
  -24.1778  -13.0455   20.9260 C   0  0  0  0  0  0
  -24.6408  -11.6950   20.8769 C   0  0  0  0  0  0
  -23.9101  -10.4302   21.0415 C   0  0  0  0  0  0
  -24.3642   -9.4212   21.9191 C   0  0  0  0  0  0
  -23.6316   -8.2247   22.0748 C   0  0  0  0  0  0
  -22.4296   -8.0297   21.3543 C   0  0  0  0  0  0
  -21.9941   -9.0274   20.4643 C   0  0  0  0  0  0
  -22.7277  -10.2150   20.3059 C   0  0  0  0  0  0
  -21.6847   -6.0763   22.5292 C   0  0  0  0  0  0
  -21.4002   -6.5655   23.8229 C   0  0  0  0  0  0
  -21.3667   -5.6798   24.9188 C   0  0  0  0  0  0
  -21.6044   -4.3062   24.7225 C   0  0  0  0  0  0
  -21.8818   -3.8172   23.4342 C   0  0  0  0  0  0
  -21.9187   -4.6992   22.3406 C   0  0  0  0  0  0
  -22.7798  -13.5233   21.1920 C   0  0  0  0  0  0
  -22.1664   -4.2184   21.0978 F   0  0  0  0  0  0
  -21.5634   -3.4538   25.7735 F   0  0  0  0  0  0
  -29.9417  -13.7252   20.4151 N   0  0  0  0  0  0
  -26.2887  -12.9495   20.3277 N   0  0  0  0  0  0
  -25.9344  -11.6617   20.5751 N   0  0  0  0  0  0
  -22.0430  -12.8205   22.0449 N   0  0  0  0  0  0
  -25.4160  -15.1974   20.4239 N   0  0  0  0  0  0
  -31.6744  -15.0863   20.0255 O   0  0  0  0  0  0
  -21.6647   -6.8907   21.4251 O   0  0  0  0  0  0
  -22.3487  -14.5536   20.6770 O   0  0  0  0  0  0
  -24.6451  -31.8383   23.1836 C   0  0  0  0  0  0
  -25.9210  -32.4664   23.8234 C   0  0  1  0  0  0
  -27.2095  -27.0841   20.1618 C   0  0  0  0  0  0
  -25.5951  -33.8471   24.2168 N   0  0  0  0  0  0
  -23.4507  -30.4530   21.5287 C   0  0  2  0  0  0
  -24.9012  -28.8697   20.1016 C   0  0  0  0  0  0
  -22.7574  -29.4497   22.4834 C   0  0  0  0  0  0
  -18.0308  -28.1408   22.8497 C   0  0  0  0  0  0
  -24.1487  -36.7224   23.2641 C   0  0  0  0  0  0
  -26.0072  -30.6949   21.3892 C   0  0  0  0  0  0
  -26.0741  -29.3007   20.7313 C   0  0  0  0  0  0
  -27.2227  -28.4198   20.7486 C   0  0  0  0  0  0
  -26.0188  -26.7645   19.4783 C   0  0  0  0  0  0
  -24.8894  -27.6195   19.4580 C   0  0  0  0  0  0
  -23.6785  -29.7768   20.1481 C   0  0  0  0  0  0
  -25.4128  -36.3015   24.0309 C   0  0  1  0  0  0
  -20.5920  -28.3726   23.1251 C   0  0  2  0  0  0
  -20.6787  -26.9431   22.5418 C   0  0  0  0  0  0
  -19.5756  -26.6397   21.5228 C   0  0  0  0  0  0
  -18.1938  -26.7950   22.1640 C   0  0  0  0  0  0
  -19.1568  -28.8892   23.2862 C   0  0  0  0  0  0
  -18.9473  -30.1485   23.8884 C   0  0  0  0  0  0
  -17.6471  -30.6605   24.0569 C   0  0  0  0  0  0
  -25.9083  -34.9385   23.5059 C   0  0  0  0  0  0
  -16.5360  -29.9099   23.6341 C   0  0  0  0  0  0
  -16.7288  -28.6512   23.0369 C   0  0  0  0  0  0
  -26.4536  -31.6545   25.0686 C   0  0  0  0  0  0
  -25.3708  -31.3729   26.1370 C   0  0  0  0  0  0
  -27.0389  -30.2936   24.6269 C   0  0  0  0  0  0
  -27.6071  -32.4309   25.7464 C   0  0  0  0  0  0
  -27.5572  -37.1769   24.8469 C   0  0  0  0  0  0
  -21.4263  -29.3024   22.3593 N   0  0  0  0  0  0
  -26.4292  -37.3732   23.9407 N   0  0  0  0  0  0
  -24.7208  -31.0190   22.0888 N   0  0  0  0  0  0
  -23.4209  -28.8076   23.3014 O   0  0  0  0  0  0
  -28.2537  -26.0913   20.3208 O   0  0  0  0  0  0
  -26.5675  -34.8886   22.4641 O   0  0  0  0  0  0
  -23.5563  -32.1290   23.7026 O   0  0  0  0  0  0
  -29.1291  -20.0926   20.0233 C   0  0  0  0  0  0
  -28.9195  -19.5836   18.7523 C   0  0  0  0  0  0
  -29.5972  -17.6061   20.1893 C   0  0  0  0  0  0
  -26.3222  -21.8576   21.7756 C   0  0  0  0  0  0
  -29.7740  -21.8041   21.8639 C   0  0  0  0  0  0
  -30.4797  -22.1737   19.5556 C   0  0  0  0  0  0
  -27.1758  -22.5028   19.0374 C   0  0  0  0  0  0
  -27.1572  -23.1116   21.4369 C   0  0  0  0  0  0
  -28.3989  -24.6489   19.7034 C   0  0  0  0  0  0
  -29.2684  -21.7328   20.4030 C   0  0  0  0  0  0
  -28.0822  -23.0047   20.1845 C   0  0  2  0  0  0
  -29.5047  -18.8746   20.8206 N   0  0  0  0  0  0
  -29.7544  -16.1807   20.7686 N   0  0  0  0  0  0
  -28.6279  -20.3544   17.6776 F   0  0  0  0  0  0
  -29.1863  -17.8486   18.4945 S   0  0  0  0  0  0
  -31.4759  -12.7803   19.2305 H   0  0  0  0  0  0
  -30.4342  -11.6740   20.0626 H   0  0  0  0  0  0
  -29.8660  -11.7660   17.6094 H   0  0  0  0  0  0
  -29.6168  -13.4926   17.7173 H   0  0  0  0  0  0
  -27.9683  -11.2894   18.9886 H   0  0  0  0  0  0
  -27.4081  -12.4639   17.8254 H   0  0  0  0  0  0
  -27.5943  -14.2626   19.4227 H   0  0  0  0  0  0
  -28.7558  -12.3165   21.4718 H   0  0  0  0  0  0
  -28.3453  -13.9862   21.7765 H   0  0  0  0  0  0
  -25.2776   -9.5692   22.4784 H   0  0  0  0  0  0
  -24.0032   -7.4624   22.7449 H   0  0  0  0  0  0
  -21.0884   -8.8797   19.8934 H   0  0  0  0  0  0
  -22.3739  -10.9698   19.6177 H   0  0  0  0  0  0
  -21.1974   -7.6158   23.9746 H   0  0  0  0  0  0
  -21.1497   -6.0525   25.9093 H   0  0  0  0  0  0
  -22.0585   -2.7637   23.2828 H   0  0  0  0  0  0
  -22.4056  -11.9858   22.4806 H   0  0  0  0  0  0
  -21.1043  -13.1216   22.2655 H   0  0  0  0  0  0
  -24.6517  -15.8537   20.5416 H   0  0  0  0  0  0
  -26.2655  -15.6341   20.0913 H   0  0  0  0  0  0
  -26.7259  -32.5253   23.0934 H   0  0  0  0  0  0
  -25.0064  -33.9597   25.0294 H   0  0  0  0  0  0
  -22.7530  -31.2786   21.3714 H   0  0  0  0  0  0
  -23.3771  -35.9534   23.3300 H   0  0  0  0  0  0
  -24.3569  -36.8864   22.2058 H   0  0  0  0  0  0
  -23.7216  -37.6400   23.6692 H   0  0  0  0  0  0
  -26.1661  -31.4473   20.6159 H   0  0  0  0  0  0
  -26.8767  -30.7496   22.0315 H   0  0  0  0  0  0
  -28.1114  -28.7365   21.2757 H   0  0  0  0  0  0
  -25.9204  -25.7995   19.0019 H   0  0  0  0  0  0
  -23.9913  -27.2877   18.9568 H   0  0  0  0  0  0
  -23.8162  -30.5517   19.3919 H   0  0  0  0  0  0
  -22.7907  -29.2201   19.8419 H   0  0  0  0  0  0
  -25.1318  -36.1834   25.0803 H   0  0  0  0  0  0
  -21.0021  -28.3333   24.1369 H   0  0  0  0  0  0
  -20.5695  -26.2338   23.3633 H   0  0  0  0  0  0
  -21.6648  -26.7432   22.1202 H   0  0  0  0  0  0
  -19.6914  -25.6305   21.1264 H   0  0  0  0  0  0
  -19.6700  -27.3201   20.6754 H   0  0  0  0  0  0
  -17.4205  -26.6709   21.4043 H   0  0  0  0  0  0
  -18.0330  -26.0097   22.9041 H   0  0  0  0  0  0
  -19.7945  -30.7323   24.2242 H   0  0  0  0  0  0
  -17.5011  -31.6284   24.5174 H   0  0  0  0  0  0
  -15.5358  -30.2995   23.7668 H   0  0  0  0  0  0
  -15.8689  -28.0823   22.7101 H   0  0  0  0  0  0
  -24.5916  -30.7049   25.7681 H   0  0  0  0  0  0
  -24.8852  -32.2899   26.4712 H   0  0  0  0  0  0
  -25.7981  -30.8956   27.0192 H   0  0  0  0  0  0
  -26.2991  -29.6659   24.1285 H   0  0  0  0  0  0
  -27.4006  -29.7240   25.4835 H   0  0  0  0  0  0
  -27.8910  -30.4166   23.9582 H   0  0  0  0  0  0
  -27.2690  -33.3645   26.1968 H   0  0  0  0  0  0
  -28.3924  -32.6806   25.0317 H   0  0  0  0  0  0
  -28.0693  -31.8467   26.5429 H   0  0  0  0  0  0
  -28.2585  -38.0067   24.7517 H   0  0  0  0  0  0
  -28.1073  -36.2596   24.6310 H   0  0  0  0  0  0
  -27.2285  -37.1424   25.8869 H   0  0  0  0  0  0
  -20.9485  -29.8670   21.6703 H   0  0  0  0  0  0
  -26.0151  -38.2790   24.1434 H   0  0  0  0  0  0
  -26.9165  -20.9452   21.7718 H   0  0  0  0  0  0
  -25.5049  -21.7205   21.0672 H   0  0  0  0  0  0
  -25.8741  -21.9427   22.7650 H   0  0  0  0  0  0
  -30.6855  -21.2225   22.0015 H   0  0  0  0  0  0
  -29.0465  -21.4113   22.5730 H   0  0  0  0  0  0
  -30.0062  -22.8283   22.1590 H   0  0  0  0  0  0
  -31.2997  -21.4581   19.6283 H   0  0  0  0  0  0
  -30.8854  -23.1325   19.8768 H   0  0  0  0  0  0
  -30.2168  -22.2515   18.5011 H   0  0  0  0  0  0
  -26.2823  -23.1194   18.9317 H   0  0  0  0  0  0
  -27.7041  -22.5334   18.0854 H   0  0  0  0  0  0
  -26.8351  -21.4782   19.1831 H   0  0  0  0  0  0
  -27.7331  -23.4045   22.3137 H   0  0  0  0  0  0
  -26.4567  -23.9350   21.2922 H   0  0  0  0  0  0
  -27.9467  -24.7746   18.7194 H   0  0  0  0  0  0
  -29.4532  -24.6586   19.4450 H   0  0  0  0  0  0
  -28.9765  -15.9384   21.3616 H   0  0  0  0  0  0
  1 25  1  0  0  0
  1 30  2  0  0  0
  1 83  1  0  0  0
  2  3  1  0  0  0
  2 25  1  0  0  0
  2 86  1  0  0  0
  2 87  1  0  0  0
  3  4  1  0  0  0
  3 88  1  0  0  0
  3 89  1  0  0  0
  4  5  1  0  0  0
  4 90  1  0  0  0
  4 91  1  0  0  0
  5  6  1  0  0  0
  5 26  1  0  0  0
  5 92  1  0  0  0
  6 25  1  0  0  0
  6 93  1  0  0  0
  6 94  1  0  0  0
  7  8  2  0  0  0
  7 26  1  0  0  0
  7 29  1  0  0  0
  8  9  1  0  0  0
  8 22  1  0  0  0
  9 10  1  0  0  0
  9 27  2  0  0  0
 10 11  2  0  0  0
 10 15  1  0  0  0
 11 12  1  0  0  0
 11 95  1  0  0  0
 12 13  2  0  0  0
 12 96  1  0  0  0
 13 14  1  0  0  0
 13 31  1  0  0  0
 14 15  2  0  0  0
 14 97  1  0  0  0
 15 98  1  0  0  0
 16 17  2  0  0  0
 16 21  1  0  0  0
 16 31  1  0  0  0
 17 18  1  0  0  0
 17 99  1  0  0  0
 18 19  2  0  0  0
 18100  1  0  0  0
 19 20  1  0  0  0
 19 24  1  0  0  0
 20 21  2  0  0  0
 20101  1  0  0  0
 21 23  1  0  0  0
 22 28  1  0  0  0
 22 32  2  0  0  0
 26 27  1  0  0  0
 28102  1  0  0  0
 28103  1  0  0  0
 29104  1  0  0  0
 29105  1  0  0  0
 33 34  1  0  0  0
 33 66  1  0  0  0
 33 70  2  0  0  0
 34 36  1  0  0  0
 34 59  1  0  0  0
 34106  1  0  0  0
 35 44  2  0  0  0
 35 45  1  0  0  0
 35 68  1  0  0  0
 36 56  1  0  0  0
 36107  1  0  0  0
 37 39  1  0  0  0
 37 47  1  0  0  0
 37 66  1  0  0  0
 37108  1  0  0  0
 38 43  2  0  0  0
 38 46  1  0  0  0
 38 47  1  0  0  0
 39 64  1  0  0  0
 39 67  2  0  0  0
 40 52  1  0  0  0
 40 53  2  0  0  0
 40 58  1  0  0  0
 41109  1  0  0  0
 41110  1  0  0  0
 41111  1  0  0  0
 41 48  1  0  0  0
 42 43  1  0  0  0
 42 66  1  0  0  0
 42112  1  0  0  0
 42113  1  0  0  0
 43 44  1  0  0  0
 44114  1  0  0  0
 45 46  2  0  0  0
 45115  1  0  0  0
 46116  1  0  0  0
 47117  1  0  0  0
 47118  1  0  0  0
 48 56  1  0  0  0
 48 65  1  0  0  0
 48119  1  0  0  0
 49 50  1  0  0  0
 49 53  1  0  0  0
 49 64  1  0  0  0
 49120  1  0  0  0
 50 51  1  0  0  0
 50121  1  0  0  0
 50122  1  0  0  0
 51 52  1  0  0  0
 51123  1  0  0  0
 51124  1  0  0  0
 52125  1  0  0  0
 52126  1  0  0  0
 53 54  1  0  0  0
 54 55  2  0  0  0
 54127  1  0  0  0
 55 57  1  0  0  0
 55128  1  0  0  0
 56 69  2  0  0  0
 57 58  2  0  0  0
 57129  1  0  0  0
 58130  1  0  0  0
 59 60  1  0  0  0
 59 61  1  0  0  0
 59 62  1  0  0  0
 60131  1  0  0  0
 60132  1  0  0  0
 60133  1  0  0  0
 61134  1  0  0  0
 61135  1  0  0  0
 61136  1  0  0  0
 62137  1  0  0  0
 62138  1  0  0  0
 62139  1  0  0  0
 63 65  1  0  0  0
 63140  1  0  0  0
 63141  1  0  0  0
 63142  1  0  0  0
 64143  1  0  0  0
 65144  1  0  0  0
 68 79  1  0  0  0
 71 72  2  0  0  0
 71 80  1  0  0  0
 71 82  1  0  0  0
 72 84  1  0  0  0
 72 85  1  0  0  0
 73 82  2  0  0  0
 73 83  1  0  0  0
 73 85  1  0  0  0
 74 78  1  0  0  0
 74145  1  0  0  0
 74146  1  0  0  0
 74147  1  0  0  0
 75148  1  0  0  0
 75149  1  0  0  0
 75150  1  0  0  0
 75 80  1  0  0  0
 76 80  1  0  0  0
 76151  1  0  0  0
 76152  1  0  0  0
 76153  1  0  0  0
 77154  1  0  0  0
 77155  1  0  0  0
 77156  1  0  0  0
 77 81  1  0  0  0
 78 81  1  0  0  0
 78157  1  0  0  0
 78158  1  0  0  0
 79 81  1  0  0  0
 79159  1  0  0  0
 79160  1  0  0  0
 80 81  1  0  0  0
 83161  1  0  0  0
M  ISO  4   1 100  68 101  79 101  83 100
M  END
> <chiral flag>
0

> <version>
0

> <s_m_source_file>
/data/baiqing/PycharmProjects/Reinvent-master-3.2/result/LINK_invent/BTK/process_docking_weight1_custom_product_contain_oxygen_bond_distance_aromatic_linkinvent_7_9_3/rearranged_h_0187.sdf

> <i_m_source_file_index>
89

> <r_mmod_Potential_Energy-OPLS-2005>
777.419189453125

> <r_mmod_Stretch_Energy-OPLS-2005>
349.654632568359

> <r_mmod_Bend_Energy-OPLS-2005>
361.606262207031

> <r_mmod_Torsional_Energy-OPLS-2005>
279.733856201172

> <r_mmod_Improper_Torsional_Energy-OPLS-2005>
6.29981279373169

> <r_mmod_Van_der_Waal_Energy-OPLS-2005>
117.417083740234

> <r_mmod_Electrostatic_Energy-OPLS-2005>
-377.753295898438

> <r_mmod_Solvation_Energy-OPLS-2005>
-202.248229980469

> <b_mmod_Minimization_Converged-OPLS-2005>
0

> <r_mmod_RMS_Derivative-OPLS-2005>
2.36240386962891

$$$$
91
                    3D
 Structure written by MMmdl.
157165  0  0  1  0            999 V2000
  -30.5841  -14.9808   20.4820 C   0  0  0  0  0  0
  -30.4278  -12.6127   19.5305 C   0  0  0  0  0  0
  -29.5247  -12.5587   18.2764 C   0  0  0  0  0  0
  -28.0587  -12.3336   18.6821 C   0  0  0  0  0  0
  -27.6289  -13.2608   19.8482 C   0  0  2  0  0  0
  -28.6658  -13.3015   20.9943 C   0  0  0  0  0  0
  -25.2302  -13.8095   20.5540 C   0  0  0  0  0  0
  -24.1711  -13.0332   20.9235 C   0  0  0  0  0  0
  -24.6408  -11.6859   20.8802 C   0  0  0  0  0  0
  -23.9102  -10.4238   21.0431 C   0  0  0  0  0  0
  -24.3640   -9.4155   21.9206 C   0  0  0  0  0  0
  -23.6298   -8.2203   22.0763 C   0  0  0  0  0  0
  -22.4280   -8.0261   21.3548 C   0  0  0  0  0  0
  -21.9930   -9.0238   20.4648 C   0  0  0  0  0  0
  -22.7277  -10.2104   20.3065 C   0  0  0  0  0  0
  -21.6846   -6.0731   22.5283 C   0  0  0  0  0  0
  -21.4008   -6.5635   23.8218 C   0  0  0  0  0  0
  -21.3655   -5.6787   24.9179 C   0  0  0  0  0  0
  -21.6044   -4.3051   24.7228 C   0  0  0  0  0  0
  -21.8820   -3.8144   23.4349 C   0  0  0  0  0  0
  -21.9190   -4.6960   22.3406 C   0  0  0  0  0  0
  -22.7734  -13.5112   21.1885 C   0  0  0  0  0  0
  -22.1658   -4.2149   21.0982 F   0  0  0  0  0  0
  -21.5632   -3.4533   25.7739 F   0  0  0  0  0  0
  -29.9543  -13.7241   20.4224 N   0  0  0  0  0  0
  -26.2861  -12.9449   20.3266 N   0  0  0  0  0  0
  -25.9367  -11.6567   20.5827 N   0  0  0  0  0  0
  -22.0399  -12.8126   22.0469 N   0  0  0  0  0  0
  -25.3626  -15.1736   20.3539 N   0  0  0  0  0  0
  -31.7099  -15.0007   19.9697 O   0  0  0  0  0  0
  -21.6630   -6.8871   21.4245 O   0  0  0  0  0  0
  -22.3417  -14.5420   20.6729 O   0  0  0  0  0  0
  -24.6443  -31.8408   23.1843 C   0  0  0  0  0  0
  -25.9205  -32.4676   23.8243 C   0  0  1  0  0  0
  -27.2302  -27.1174   20.1427 C   0  0  0  0  0  0
  -25.5944  -33.8484   24.2158 N   0  0  0  0  0  0
  -23.4491  -30.4576   21.5298 C   0  0  2  0  0  0
  -24.8997  -28.8793   20.1047 C   0  0  0  0  0  0
  -22.7571  -29.4525   22.4844 C   0  0  0  0  0  0
  -18.0304  -28.1397   22.8479 C   0  0  0  0  0  0
  -24.1489  -36.7244   23.2645 C   0  0  0  0  0  0
  -26.0052  -30.7081   21.3850 C   0  0  0  0  0  0
  -26.0752  -29.3181   20.7238 C   0  0  0  0  0  0
  -27.2326  -28.4518   20.7273 C   0  0  0  0  0  0
  -26.0185  -26.7758   19.5027 C   0  0  0  0  0  0
  -24.8852  -27.6217   19.4806 C   0  0  0  0  0  0
  -23.6755  -29.7822   20.1499 C   0  0  0  0  0  0
  -25.4124  -36.3020   24.0313 C   0  0  1  0  0  0
  -20.5918  -28.3721   23.1233 C   0  0  2  0  0  0
  -20.6785  -26.9422   22.5407 C   0  0  0  0  0  0
  -19.5760  -26.6380   21.5214 C   0  0  0  0  0  0
  -18.1942  -26.7935   22.1625 C   0  0  0  0  0  0
  -19.1562  -28.8877   23.2848 C   0  0  0  0  0  0
  -18.9480  -30.1473   23.8874 C   0  0  0  0  0  0
  -17.6477  -30.6594   24.0559 C   0  0  0  0  0  0
  -25.9077  -34.9397   23.5048 C   0  0  0  0  0  0
  -16.5367  -29.9088   23.6338 C   0  0  0  0  0  0
  -16.7289  -28.6505   23.0360 C   0  0  0  0  0  0
  -26.4525  -31.6562   25.0700 C   0  0  0  0  0  0
  -25.3703  -31.3759   26.1390 C   0  0  0  0  0  0
  -27.0400  -30.2957   24.6302 C   0  0  0  0  0  0
  -27.6045  -32.4343   25.7490 C   0  0  0  0  0  0
  -27.5573  -37.1776   24.8466 C   0  0  0  0  0  0
  -21.4260  -29.3039   22.3598 N   0  0  0  0  0  0
  -26.4283  -37.3739   23.9412 N   0  0  0  0  0  0
  -24.7194  -31.0245   22.0881 N   0  0  0  0  0  0
  -23.4203  -28.8086   23.3014 O   0  0  0  0  0  0
  -28.3148  -26.1669   20.2881 O   0  0  0  0  0  0
  -26.5675  -34.8904   22.4635 O   0  0  0  0  0  0
  -23.5559  -32.1292   23.7054 O   0  0  0  0  0  0
  -28.2936  -18.4529   20.7806 C   0  0  0  0  0  0
  -29.5824  -17.9076   20.6976 C   0  0  0  0  0  0
  -29.1980  -20.6245   20.3708 C   0  0  0  0  0  0
  -28.4228  -23.2887   20.3657 C   0  0  0  0  0  0
  -27.0744  -17.6892   21.1588 C   0  0  0  0  0  0
  -29.6597  -16.1383   22.6756 C   0  0  0  0  0  0
  -30.1647  -24.9627   19.4785 C   0  0  0  0  0  0
  -28.0551  -24.6822   18.2041 C   0  0  0  0  0  0
  -30.1266  -16.4205   21.2327 C   0  0  1  0  0  0
  -28.6415  -24.7769   19.6265 C   0  0  0  0  0  0
  -28.1006  -19.8748   20.5918 N   0  0  0  0  0  0
  -29.2178  -22.1368   20.0764 N   0  0  0  0  0  0
  -27.5109  -23.2075   21.1918 O   0  0  0  0  0  0
  -30.5895  -19.4017   20.3544 S   0  0  0  0  0  0
  -31.4689  -12.7301   19.2279 H   0  0  0  0  0  0
  -30.3956  -11.6603   20.0623 H   0  0  0  0  0  0
  -29.8542  -11.7661   17.6034 H   0  0  0  0  0  0
  -29.6150  -13.4931   17.7206 H   0  0  0  0  0  0
  -27.9565  -11.2906   18.9843 H   0  0  0  0  0  0
  -27.4001  -12.4682   17.8233 H   0  0  0  0  0  0
  -27.5891  -14.2655   19.4264 H   0  0  0  0  0  0
  -28.7518  -12.3283   21.4792 H   0  0  0  0  0  0
  -28.3340  -13.9944   21.7643 H   0  0  0  0  0  0
  -25.2778   -9.5625   22.4794 H   0  0  0  0  0  0
  -23.9996   -7.4586   22.7481 H   0  0  0  0  0  0
  -21.0864   -8.8768   19.8949 H   0  0  0  0  0  0
  -22.3746  -10.9653   19.6180 H   0  0  0  0  0  0
  -21.1997   -7.6143   23.9723 H   0  0  0  0  0  0
  -21.1477   -6.0515   25.9083 H   0  0  0  0  0  0
  -22.0604   -2.7607   23.2848 H   0  0  0  0  0  0
  -22.4025  -11.9798   22.4868 H   0  0  0  0  0  0
  -21.1022  -13.1159   22.2685 H   0  0  0  0  0  0
  -24.5603  -15.7914   20.4072 H   0  0  0  0  0  0
  -26.1628  -15.5957   19.9035 H   0  0  0  0  0  0
  -26.7267  -32.5271   23.0965 H   0  0  0  0  0  0
  -25.0053  -33.9594   25.0281 H   0  0  0  0  0  0
  -22.7528  -31.2840   21.3726 H   0  0  0  0  0  0
  -23.3760  -35.9566   23.3292 H   0  0  0  0  0  0
  -24.3570  -36.8895   22.2062 H   0  0  0  0  0  0
  -23.7235  -37.6429   23.6697 H   0  0  0  0  0  0
  -26.1646  -31.4629   20.6139 H   0  0  0  0  0  0
  -26.8738  -30.7563   22.0302 H   0  0  0  0  0  0
  -28.1257  -28.7826   21.2385 H   0  0  0  0  0  0
  -25.8896  -25.8019   19.0663 H   0  0  0  0  0  0
  -23.9814  -27.2721   19.0006 H   0  0  0  0  0  0
  -23.8100  -30.5547   19.3919 H   0  0  0  0  0  0
  -22.7904  -29.2228   19.8418 H   0  0  0  0  0  0
  -25.1315  -36.1838   25.0805 H   0  0  0  0  0  0
  -21.0012  -28.3314   24.1353 H   0  0  0  0  0  0
  -20.5672  -26.2336   23.3629 H   0  0  0  0  0  0
  -21.6651  -26.7420   22.1209 H   0  0  0  0  0  0
  -19.6921  -25.6284   21.1260 H   0  0  0  0  0  0
  -19.6699  -27.3177   20.6734 H   0  0  0  0  0  0
  -17.4210  -26.6678   21.4030 H   0  0  0  0  0  0
  -18.0342  -26.0082   22.9028 H   0  0  0  0  0  0
  -19.7956  -30.7295   24.2232 H   0  0  0  0  0  0
  -17.5031  -31.6274   24.5163 H   0  0  0  0  0  0
  -15.5366  -30.2984   23.7677 H   0  0  0  0  0  0
  -15.8687  -28.0817   22.7091 H   0  0  0  0  0  0
  -24.5887  -30.7104   25.7707 H   0  0  0  0  0  0
  -24.8888  -32.2944   26.4756 H   0  0  0  0  0  0
  -25.7978  -30.8968   27.0206 H   0  0  0  0  0  0
  -26.3026  -29.6669   24.1300 H   0  0  0  0  0  0
  -27.3997  -29.7270   25.4887 H   0  0  0  0  0  0
  -27.8938  -30.4191   23.9635 H   0  0  0  0  0  0
  -27.2626  -33.3664   26.2000 H   0  0  0  0  0  0
  -28.3888  -32.6871   25.0343 H   0  0  0  0  0  0
  -28.0676  -31.8515   26.5461 H   0  0  0  0  0  0
  -28.2579  -38.0084   24.7519 H   0  0  0  0  0  0
  -28.1081  -36.2612   24.6285 H   0  0  0  0  0  0
  -27.2291  -37.1412   25.8869 H   0  0  0  0  0  0
  -20.9475  -29.8738   21.6762 H   0  0  0  0  0  0
  -26.0143  -38.2802   24.1426 H   0  0  0  0  0  0
  -26.7701  -17.9078   22.1825 H   0  0  0  0  0  0
  -27.2636  -16.6228   21.0941 H   0  0  0  0  0  0
  -26.2350  -17.9229   20.5037 H   0  0  0  0  0  0
  -29.9633  -16.9450   23.3433 H   0  0  0  0  0  0
  -30.0967  -15.2204   23.0711 H   0  0  0  0  0  0
  -28.5806  -16.0415   22.7607 H   0  0  0  0  0  0
  -30.6402  -24.1422   18.9405 H   0  0  0  0  0  0
  -30.6462  -25.0406   20.4540 H   0  0  0  0  0  0
  -30.3963  -25.8757   18.9290 H   0  0  0  0  0  0
  -28.6327  -23.9936   17.5863 H   0  0  0  0  0  0
  -28.0585  -25.6477   17.6987 H   0  0  0  0  0  0
  -27.0393  -24.2897   18.2055 H   0  0  0  0  0  0
  -31.1519  -16.7192   21.4549 H   0  0  0  0  0  0
  -30.0111  -22.3908   19.5062 H   0  0  0  0  0  0
  1 25  1  0  0  0
  1 30  2  0  0  0
  1 79  1  0  0  0
  2  3  1  0  0  0
  2 25  1  0  0  0
  2 85  1  0  0  0
  2 86  1  0  0  0
  3  4  1  0  0  0
  3 87  1  0  0  0
  3 88  1  0  0  0
  4  5  1  0  0  0
  4 89  1  0  0  0
  4 90  1  0  0  0
  5  6  1  0  0  0
  5 26  1  0  0  0
  5 91  1  0  0  0
  6 25  1  0  0  0
  6 92  1  0  0  0
  6 93  1  0  0  0
  7  8  2  0  0  0
  7 26  1  0  0  0
  7 29  1  0  0  0
  8  9  1  0  0  0
  8 22  1  0  0  0
  9 10  1  0  0  0
  9 27  2  0  0  0
 10 11  2  0  0  0
 10 15  1  0  0  0
 11 12  1  0  0  0
 11 94  1  0  0  0
 12 13  2  0  0  0
 12 95  1  0  0  0
 13 14  1  0  0  0
 13 31  1  0  0  0
 14 15  2  0  0  0
 14 96  1  0  0  0
 15 97  1  0  0  0
 16 17  2  0  0  0
 16 21  1  0  0  0
 16 31  1  0  0  0
 17 18  1  0  0  0
 17 98  1  0  0  0
 18 19  2  0  0  0
 18 99  1  0  0  0
 19 20  1  0  0  0
 19 24  1  0  0  0
 20 21  2  0  0  0
 20100  1  0  0  0
 21 23  1  0  0  0
 22 28  1  0  0  0
 22 32  2  0  0  0
 26 27  1  0  0  0
 28101  1  0  0  0
 28102  1  0  0  0
 29103  1  0  0  0
 29104  1  0  0  0
 33 34  1  0  0  0
 33 66  1  0  0  0
 33 70  2  0  0  0
 34 36  1  0  0  0
 34 59  1  0  0  0
 34105  1  0  0  0
 35 44  2  0  0  0
 35 45  1  0  0  0
 35 68  1  0  0  0
 36 56  1  0  0  0
 36106  1  0  0  0
 37 39  1  0  0  0
 37 47  1  0  0  0
 37 66  1  0  0  0
 37107  1  0  0  0
 38 43  2  0  0  0
 38 46  1  0  0  0
 38 47  1  0  0  0
 39 64  1  0  0  0
 39 67  2  0  0  0
 40 52  1  0  0  0
 40 53  2  0  0  0
 40 58  1  0  0  0
 41108  1  0  0  0
 41109  1  0  0  0
 41110  1  0  0  0
 41 48  1  0  0  0
 42 43  1  0  0  0
 42 66  1  0  0  0
 42111  1  0  0  0
 42112  1  0  0  0
 43 44  1  0  0  0
 44113  1  0  0  0
 45 46  2  0  0  0
 45114  1  0  0  0
 46115  1  0  0  0
 47116  1  0  0  0
 47117  1  0  0  0
 48 56  1  0  0  0
 48 65  1  0  0  0
 48118  1  0  0  0
 49 50  1  0  0  0
 49 53  1  0  0  0
 49 64  1  0  0  0
 49119  1  0  0  0
 50 51  1  0  0  0
 50120  1  0  0  0
 50121  1  0  0  0
 51 52  1  0  0  0
 51122  1  0  0  0
 51123  1  0  0  0
 52124  1  0  0  0
 52125  1  0  0  0
 53 54  1  0  0  0
 54 55  2  0  0  0
 54126  1  0  0  0
 55 57  1  0  0  0
 55127  1  0  0  0
 56 69  2  0  0  0
 57 58  2  0  0  0
 57128  1  0  0  0
 58129  1  0  0  0
 59 60  1  0  0  0
 59 61  1  0  0  0
 59 62  1  0  0  0
 60130  1  0  0  0
 60131  1  0  0  0
 60132  1  0  0  0
 61133  1  0  0  0
 61134  1  0  0  0
 61135  1  0  0  0
 62136  1  0  0  0
 62137  1  0  0  0
 62138  1  0  0  0
 63 65  1  0  0  0
 63139  1  0  0  0
 63140  1  0  0  0
 63141  1  0  0  0
 64142  1  0  0  0
 65143  1  0  0  0
 68 80  1  0  0  0
 71 72  2  0  0  0
 71 75  1  0  0  0
 71 81  1  0  0  0
 72 79  1  0  0  0
 72 84  1  0  0  0
 73 81  2  0  0  0
 73 82  1  0  0  0
 73 84  1  0  0  0
 74 80  1  0  0  0
 74 82  1  0  0  0
 74 83  2  0  0  0
 75144  1  0  0  0
 75145  1  0  0  0
 75146  1  0  0  0
 76147  1  0  0  0
 76148  1  0  0  0
 76149  1  0  0  0
 76 79  1  0  0  0
 77150  1  0  0  0
 77151  1  0  0  0
 77152  1  0  0  0
 77 80  1  0  0  0
 78 80  1  0  0  0
 78153  1  0  0  0
 78154  1  0  0  0
 78155  1  0  0  0
 79156  1  0  0  0
 82157  1  0  0  0
M  ISO  4   1 100  68 101  79 100  80 101
M  END
> <chiral flag>
0

> <version>
0

> <s_m_source_file>
/data/baiqing/PycharmProjects/Reinvent-master-3.2/result/LINK_invent/BTK/process_docking_weight1_custom_product_contain_oxygen_bond_distance_aromatic_linkinvent_7_9_3/rearranged_h_0187.sdf

> <i_m_source_file_index>
90

> <r_mmod_Potential_Energy-OPLS-2005>
588.200317382812

> <r_mmod_Stretch_Energy-OPLS-2005>
285.887786865234

> <r_mmod_Bend_Energy-OPLS-2005>
387.713928222656

> <r_mmod_Torsional_Energy-OPLS-2005>
201.849990844727

> <r_mmod_Improper_Torsional_Energy-OPLS-2005>
6.81873178482056

> <r_mmod_Van_der_Waal_Energy-OPLS-2005>
116.442276000977

> <r_mmod_Electrostatic_Energy-OPLS-2005>
-384.35986328125

> <r_mmod_Solvation_Energy-OPLS-2005>
-231.334182739258

> <b_mmod_Minimization_Converged-OPLS-2005>
0

> <r_mmod_RMS_Derivative-OPLS-2005>
0.402746319770813

$$$$
92
                    3D
 Structure written by MMmdl.
156164  0  0  1  0            999 V2000
  -30.6484  -14.7115   20.4237 C   0  0  0  0  0  0
  -30.4209  -12.4282   19.4736 C   0  0  0  0  0  0
  -29.5037  -12.4907   18.2336 C   0  0  0  0  0  0
  -28.0305  -12.3250   18.6492 C   0  0  0  0  0  0
  -27.6390  -13.2337   19.8454 C   0  0  2  0  0  0
  -28.6846  -13.1843   20.9813 C   0  0  0  0  0  0
  -25.2500  -13.8205   20.5697 C   0  0  0  0  0  0
  -24.1795  -13.0446   20.9213 C   0  0  0  0  0  0
  -24.6388  -11.6925   20.8753 C   0  0  0  0  0  0
  -23.9069  -10.4298   21.0411 C   0  0  0  0  0  0
  -24.3619   -9.4211   21.9187 C   0  0  0  0  0  0
  -23.6298   -8.2243   22.0751 C   0  0  0  0  0  0
  -22.4278   -8.0281   21.3541 C   0  0  0  0  0  0
  -21.9917   -9.0255   20.4643 C   0  0  0  0  0  0
  -22.7243  -10.2136   20.3056 C   0  0  0  0  0  0
  -21.6854   -6.0737   22.5280 C   0  0  0  0  0  0
  -21.4015   -6.5641   23.8213 C   0  0  0  0  0  0
  -21.3658   -5.6793   24.9176 C   0  0  0  0  0  0
  -21.6044   -4.3056   24.7225 C   0  0  0  0  0  0
  -21.8820   -3.8147   23.4346 C   0  0  0  0  0  0
  -21.9192   -4.6966   22.3403 C   0  0  0  0  0  0
  -22.7816  -13.5225   21.1873 C   0  0  0  0  0  0
  -22.1662   -4.2151   21.0981 F   0  0  0  0  0  0
  -21.5629   -3.4538   25.7737 F   0  0  0  0  0  0
  -29.9890  -13.5058   20.3924 N   0  0  0  0  0  0
  -26.2925  -12.9417   20.3271 N   0  0  0  0  0  0
  -25.9318  -11.6559   20.5756 N   0  0  0  0  0  0
  -22.0461  -12.8209   22.0423 N   0  0  0  0  0  0
  -25.4186  -15.1929   20.4113 N   0  0  0  0  0  0
  -31.8586  -14.7271   20.2021 O   0  0  0  0  0  0
  -21.6641   -6.8879   21.4240 O   0  0  0  0  0  0
  -22.3504  -14.5535   20.6726 O   0  0  0  0  0  0
  -24.6306  -31.8566   23.2009 C   0  0  0  0  0  0
  -25.9141  -32.4758   23.8343 C   0  0  1  0  0  0
  -27.2139  -27.2702   20.1114 C   0  0  0  0  0  0
  -25.5943  -33.8561   24.2265 N   0  0  0  0  0  0
  -23.4250  -30.4827   21.5451 C   0  0  2  0  0  0
  -24.8678  -28.9358   20.1094 C   0  0  0  0  0  0
  -22.7495  -29.4614   22.4921 C   0  0  0  0  0  0
  -18.0290  -28.1386   22.8484 C   0  0  0  0  0  0
  -24.1491  -36.7285   23.2637 C   0  0  0  0  0  0
  -25.9715  -30.7716   21.3799 C   0  0  0  0  0  0
  -26.0404  -29.3964   20.7189 C   0  0  0  0  0  0
  -27.2117  -28.5744   20.7136 C   0  0  0  0  0  0
  -26.0088  -26.8774   19.4803 C   0  0  0  0  0  0
  -24.8568  -27.6834   19.4833 C   0  0  0  0  0  0
  -23.6404  -29.8224   20.1593 C   0  0  0  0  0  0
  -25.4116  -36.3070   24.0325 C   0  0  1  0  0  0
  -20.5892  -28.3694   23.1273 C   0  0  2  0  0  0
  -20.6778  -26.9415   22.5405 C   0  0  0  0  0  0
  -19.5753  -26.6387   21.5208 C   0  0  0  0  0  0
  -18.1935  -26.7929   22.1622 C   0  0  0  0  0  0
  -19.1542  -28.8857   23.2873 C   0  0  0  0  0  0
  -18.9464  -30.1459   23.8890 C   0  0  0  0  0  0
  -17.6462  -30.6586   24.0563 C   0  0  0  0  0  0
  -25.9059  -34.9441   23.5095 C   0  0  0  0  0  0
  -16.5353  -29.9083   23.6332 C   0  0  0  0  0  0
  -16.7276  -28.6502   23.0350 C   0  0  0  0  0  0
  -26.4506  -31.6577   25.0729 C   0  0  0  0  0  0
  -25.3729  -31.3728   26.1450 C   0  0  0  0  0  0
  -27.0350  -30.2993   24.6215 C   0  0  0  0  0  0
  -27.6061  -32.4315   25.7505 C   0  0  0  0  0  0
  -27.5578  -37.1800   24.8464 C   0  0  0  0  0  0
  -21.4203  -29.3045   22.3666 N   0  0  0  0  0  0
  -26.4289  -37.3769   23.9408 N   0  0  0  0  0  0
  -24.6950  -31.0544   22.0982 N   0  0  0  0  0  0
  -23.4203  -28.8146   23.3007 O   0  0  0  0  0  0
  -28.3292  -26.4027   20.1912 O   0  0  0  0  0  0
  -26.5625  -34.8912   22.4661 O   0  0  0  0  0  0
  -23.5462  -32.1385   23.7315 O   0  0  0  0  0  0
  -29.9681  -19.3303   21.3227 C   0  0  0  0  0  0
  -29.6462  -18.6169   20.1776 C   0  0  0  0  0  0
  -29.0363  -21.1427   20.1852 C   0  0  0  0  0  0
  -28.7671  -23.7680   20.4123 C   0  0  0  0  0  0
  -31.4386  -16.4115   17.5669 C   0  0  0  0  0  0
  -31.9055  -18.7056   18.4201 C   0  0  0  0  0  0
  -28.3687  -25.0484   19.5421 C   0  0  0  0  0  0
  -30.1041  -17.2019   19.6410 C   0  0  1  0  0  0
  -31.4556  -17.2896   18.8375 C   0  0  0  0  0  0
  -29.6382  -20.7244   21.3144 N   0  0  0  0  0  0
  -28.6844  -22.5258   19.8125 N   0  0  0  0  0  0
  -29.8979  -15.8823   20.4102 N   0  0  0  0  0  0
  -29.1336  -23.9187   21.5817 O   0  0  0  0  0  0
  -28.7677  -19.7410   19.1047 S   0  0  0  0  0  0
  -31.4644  -12.5277   19.1699 H   0  0  0  0  0  0
  -30.3447  -11.4565   19.9636 H   0  0  0  0  0  0
  -29.7795  -11.7132   17.5198 H   0  0  0  0  0  0
  -29.6365  -13.4425   17.7172 H   0  0  0  0  0  0
  -27.8846  -11.2783   18.9190 H   0  0  0  0  0  0
  -27.3728  -12.5127   17.7995 H   0  0  0  0  0  0
  -27.6289  -14.2510   19.4542 H   0  0  0  0  0  0
  -28.7092  -12.1980   21.4472 H   0  0  0  0  0  0
  -28.4307  -13.8934   21.7708 H   0  0  0  0  0  0
  -25.2761   -9.5691   22.4766 H   0  0  0  0  0  0
  -24.0007   -7.4635   22.7470 H   0  0  0  0  0  0
  -21.0847   -8.8773   19.8949 H   0  0  0  0  0  0
  -22.3698  -10.9675   19.6166 H   0  0  0  0  0  0
  -21.2007   -7.6150   23.9718 H   0  0  0  0  0  0
  -21.1481   -6.0522   25.9079 H   0  0  0  0  0  0
  -22.0598   -2.7609   23.2843 H   0  0  0  0  0  0
  -22.4076  -11.9868   22.4806 H   0  0  0  0  0  0
  -21.1076  -13.1225   22.2627 H   0  0  0  0  0  0
  -24.6496  -15.8447   20.5230 H   0  0  0  0  0  0
  -26.2627  -15.6344   20.0710 H   0  0  0  0  0  0
  -26.7204  -32.5404   23.1082 H   0  0  0  0  0  0
  -25.0091  -33.9700   25.0411 H   0  0  0  0  0  0
  -22.7211  -31.3053   21.4033 H   0  0  0  0  0  0
  -23.3753  -35.9618   23.3297 H   0  0  0  0  0  0
  -24.3584  -36.8910   22.2053 H   0  0  0  0  0  0
  -23.7247  -37.6486   23.6662 H   0  0  0  0  0  0
  -26.1113  -31.5342   20.6124 H   0  0  0  0  0  0
  -26.8494  -30.8165   22.0130 H   0  0  0  0  0  0
  -28.1083  -28.9224   21.2071 H   0  0  0  0  0  0
  -25.8817  -25.9281   18.9914 H   0  0  0  0  0  0
  -23.9559  -27.3223   19.0061 H   0  0  0  0  0  0
  -23.7660  -30.6011   19.4060 H   0  0  0  0  0  0
  -22.7576  -29.2583   19.8529 H   0  0  0  0  0  0
  -25.1299  -36.1916   25.0818 H   0  0  0  0  0  0
  -20.9982  -28.3265   24.1395 H   0  0  0  0  0  0
  -20.5676  -26.2303   23.3605 H   0  0  0  0  0  0
  -21.6646  -26.7442   22.1198 H   0  0  0  0  0  0
  -19.6916  -25.6298   21.1237 H   0  0  0  0  0  0
  -19.6690  -27.3197   20.6737 H   0  0  0  0  0  0
  -17.4203  -26.6673   21.4027 H   0  0  0  0  0  0
  -18.0340  -26.0072   22.9020 H   0  0  0  0  0  0
  -19.7939  -30.7279   24.2254 H   0  0  0  0  0  0
  -17.5017  -31.6265   24.5168 H   0  0  0  0  0  0
  -15.5353  -30.2981   23.7663 H   0  0  0  0  0  0
  -15.8677  -28.0822   22.7064 H   0  0  0  0  0  0
  -24.5917  -30.7059   25.7784 H   0  0  0  0  0  0
  -24.8904  -32.2895   26.4851 H   0  0  0  0  0  0
  -25.8049  -30.8930   27.0239 H   0  0  0  0  0  0
  -26.2933  -29.6742   24.1229 H   0  0  0  0  0  0
  -27.4016  -29.7256   25.4737 H   0  0  0  0  0  0
  -27.8820  -30.4264   23.9470 H   0  0  0  0  0  0
  -27.2672  -33.3624   26.2065 H   0  0  0  0  0  0
  -28.3885  -32.6856   25.0343 H   0  0  0  0  0  0
  -28.0711  -31.8447   26.5437 H   0  0  0  0  0  0
  -28.2590  -38.0101   24.7508 H   0  0  0  0  0  0
  -28.1078  -36.2631   24.6289 H   0  0  0  0  0  0
  -27.2298  -37.1448   25.8866 H   0  0  0  0  0  0
  -20.9383  -29.8776   21.6882 H   0  0  0  0  0  0
  -26.0166  -38.2842   24.1406 H   0  0  0  0  0  0
  -30.5333  -18.9496   22.1624 H   0  0  0  0  0  0
  -32.4148  -16.4059   17.0809 H   0  0  0  0  0  0
  -30.7145  -16.7831   16.8411 H   0  0  0  0  0  0
  -31.1812  -15.3743   17.7702 H   0  0  0  0  0  0
  -32.8745  -18.6707   17.9213 H   0  0  0  0  0  0
  -32.0265  -19.3694   19.2765 H   0  0  0  0  0  0
  -31.2056  -19.1653   17.7230 H   0  0  0  0  0  0
  -27.4755  -24.7734   18.9951 H   0  0  0  0  0  0
  -29.1333  -25.1266   18.7689 H   0  0  0  0  0  0
  -29.3692  -17.0308   18.8527 H   0  0  0  0  0  0
  -32.2632  -16.9667   19.4919 H   0  0  0  0  0  0
  -28.3226  -22.5874   18.8717 H   0  0  0  0  0  0
  -28.9388  -15.7294   20.6813 H   0  0  0  0  0  0
  1 25  1  0  0  0
  1 30  2  0  0  0
  1 82  1  0  0  0
  2  3  1  0  0  0
  2 25  1  0  0  0
  2 85  1  0  0  0
  2 86  1  0  0  0
  3  4  1  0  0  0
  3 87  1  0  0  0
  3 88  1  0  0  0
  4  5  1  0  0  0
  4 89  1  0  0  0
  4 90  1  0  0  0
  5  6  1  0  0  0
  5 26  1  0  0  0
  5 91  1  0  0  0
  6 25  1  0  0  0
  6 92  1  0  0  0
  6 93  1  0  0  0
  7  8  2  0  0  0
  7 26  1  0  0  0
  7 29  1  0  0  0
  8  9  1  0  0  0
  8 22  1  0  0  0
  9 10  1  0  0  0
  9 27  2  0  0  0
 10 11  2  0  0  0
 10 15  1  0  0  0
 11 12  1  0  0  0
 11 94  1  0  0  0
 12 13  2  0  0  0
 12 95  1  0  0  0
 13 14  1  0  0  0
 13 31  1  0  0  0
 14 15  2  0  0  0
 14 96  1  0  0  0
 15 97  1  0  0  0
 16 17  2  0  0  0
 16 21  1  0  0  0
 16 31  1  0  0  0
 17 18  1  0  0  0
 17 98  1  0  0  0
 18 19  2  0  0  0
 18 99  1  0  0  0
 19 20  1  0  0  0
 19 24  1  0  0  0
 20 21  2  0  0  0
 20100  1  0  0  0
 21 23  1  0  0  0
 22 28  1  0  0  0
 22 32  2  0  0  0
 26 27  1  0  0  0
 28101  1  0  0  0
 28102  1  0  0  0
 29103  1  0  0  0
 29104  1  0  0  0
 33 34  1  0  0  0
 33 66  1  0  0  0
 33 70  2  0  0  0
 34 36  1  0  0  0
 34 59  1  0  0  0
 34105  1  0  0  0
 35 44  2  0  0  0
 35 45  1  0  0  0
 35 68  1  0  0  0
 36 56  1  0  0  0
 36106  1  0  0  0
 37 39  1  0  0  0
 37 47  1  0  0  0
 37 66  1  0  0  0
 37107  1  0  0  0
 38 43  2  0  0  0
 38 46  1  0  0  0
 38 47  1  0  0  0
 39 64  1  0  0  0
 39 67  2  0  0  0
 40 52  1  0  0  0
 40 53  2  0  0  0
 40 58  1  0  0  0
 41108  1  0  0  0
 41109  1  0  0  0
 41110  1  0  0  0
 41 48  1  0  0  0
 42 43  1  0  0  0
 42 66  1  0  0  0
 42111  1  0  0  0
 42112  1  0  0  0
 43 44  1  0  0  0
 44113  1  0  0  0
 45 46  2  0  0  0
 45114  1  0  0  0
 46115  1  0  0  0
 47116  1  0  0  0
 47117  1  0  0  0
 48 56  1  0  0  0
 48 65  1  0  0  0
 48118  1  0  0  0
 49 50  1  0  0  0
 49 53  1  0  0  0
 49 64  1  0  0  0
 49119  1  0  0  0
 50 51  1  0  0  0
 50120  1  0  0  0
 50121  1  0  0  0
 51 52  1  0  0  0
 51122  1  0  0  0
 51123  1  0  0  0
 52124  1  0  0  0
 52125  1  0  0  0
 53 54  1  0  0  0
 54 55  2  0  0  0
 54126  1  0  0  0
 55 57  1  0  0  0
 55127  1  0  0  0
 56 69  2  0  0  0
 57 58  2  0  0  0
 57128  1  0  0  0
 58129  1  0  0  0
 59 60  1  0  0  0
 59 61  1  0  0  0
 59 62  1  0  0  0
 60130  1  0  0  0
 60131  1  0  0  0
 60132  1  0  0  0
 61133  1  0  0  0
 61134  1  0  0  0
 61135  1  0  0  0
 62136  1  0  0  0
 62137  1  0  0  0
 62138  1  0  0  0
 63 65  1  0  0  0
 63139  1  0  0  0
 63140  1  0  0  0
 63141  1  0  0  0
 64142  1  0  0  0
 65143  1  0  0  0
 68 77  1  0  0  0
 71 72  2  0  0  0
 71 80  1  0  0  0
 71144  1  0  0  0
 72 78  1  0  0  0
 72 84  1  0  0  0
 73 80  2  0  0  0
 73 81  1  0  0  0
 73 84  1  0  0  0
 74 77  1  0  0  0
 74 81  1  0  0  0
 74 83  2  0  0  0
 75145  1  0  0  0
 75146  1  0  0  0
 75147  1  0  0  0
 75 79  1  0  0  0
 76 79  1  0  0  0
 76148  1  0  0  0
 76149  1  0  0  0
 76150  1  0  0  0
 77151  1  0  0  0
 77152  1  0  0  0
 78 79  1  0  0  0
 78 82  1  0  0  0
 78153  1  0  0  0
 79154  1  0  0  0
 81155  1  0  0  0
 82156  1  0  0  0
M  ISO  4   1 100  68 101  77 101  82 100
M  END
> <chiral flag>
0

> <version>
0

> <s_m_source_file>
/data/baiqing/PycharmProjects/Reinvent-master-3.2/result/LINK_invent/BTK/process_docking_weight1_custom_product_contain_oxygen_bond_distance_aromatic_linkinvent_7_9_3/rearranged_h_0187.sdf

> <i_m_source_file_index>
91

> <r_mmod_Potential_Energy-OPLS-2005>
58.6919059753418

> <r_mmod_Stretch_Energy-OPLS-2005>
110.736740112305

> <r_mmod_Bend_Energy-OPLS-2005>
207.970886230469

> <r_mmod_Torsional_Energy-OPLS-2005>
212.237564086914

> <r_mmod_Improper_Torsional_Energy-OPLS-2005>
9.62060260772705

> <r_mmod_Van_der_Waal_Energy-OPLS-2005>
130.557968139648

> <r_mmod_Electrostatic_Energy-OPLS-2005>
-426.133880615234

> <r_mmod_Solvation_Energy-OPLS-2005>
-265.088439941406

> <b_mmod_Minimization_Converged-OPLS-2005>
0

> <r_mmod_RMS_Derivative-OPLS-2005>
0.384275734424591

$$$$
93
                    3D
 Structure written by MMmdl.
163171  0  0  1  0            999 V2000
  -30.6894  -14.4365   20.6517 C   0  0  0  0  0  0
  -30.4407  -12.3098   19.4121 C   0  0  0  0  0  0
  -29.5041  -12.5280   18.2064 C   0  0  0  0  0  0
  -28.0220  -12.3860   18.6126 C   0  0  0  0  0  0
  -27.6717  -13.1980   19.8880 C   0  0  2  0  0  0
  -28.7068  -12.9164   20.9985 C   0  0  0  0  0  0
  -25.2608  -13.8135   20.5636 C   0  0  0  0  0  0
  -24.1856  -13.0432   20.9165 C   0  0  0  0  0  0
  -24.6387  -11.6900   20.8715 C   0  0  0  0  0  0
  -23.9050  -10.4297   21.0405 C   0  0  0  0  0  0
  -24.3604   -9.4215   21.9191 C   0  0  0  0  0  0
  -23.6284   -8.2243   22.0747 C   0  0  0  0  0  0
  -22.4270   -8.0267   21.3539 C   0  0  0  0  0  0
  -21.9902   -9.0250   20.4654 C   0  0  0  0  0  0
  -22.7222  -10.2136   20.3064 C   0  0  0  0  0  0
  -21.6851   -6.0739   22.5283 C   0  0  0  0  0  0
  -21.4031   -6.5646   23.8219 C   0  0  0  0  0  0
  -21.3652   -5.6784   24.9176 C   0  0  0  0  0  0
  -21.6027   -4.3043   24.7223 C   0  0  0  0  0  0
  -21.8816   -3.8147   23.4339 C   0  0  0  0  0  0
  -21.9199   -4.6969   22.3406 C   0  0  0  0  0  0
  -22.7876  -13.5254   21.1806 C   0  0  0  0  0  0
  -22.1655   -4.2153   21.0982 F   0  0  0  0  0  0
  -21.5627   -3.4525   25.7743 F   0  0  0  0  0  0
  -30.0486  -13.2482   20.4761 N   0  0  0  0  0  0
  -26.3071  -12.9300   20.3391 N   0  0  0  0  0  0
  -25.9322  -11.6464   20.5745 N   0  0  0  0  0  0
  -22.0489  -12.8298   22.0373 N   0  0  0  0  0  0
  -25.4283  -15.1838   20.3980 N   0  0  0  0  0  0
  -31.7476  -14.7233   20.0801 O   0  0  0  0  0  0
  -21.6622   -6.8870   21.4235 O   0  0  0  0  0  0
  -22.3586  -14.5564   20.6628 O   0  0  0  0  0  0
  -24.6134  -31.8679   23.2109 C   0  0  0  0  0  0
  -25.9043  -32.4811   23.8394 C   0  0  1  0  0  0
  -27.2354  -27.4380   20.0952 C   0  0  0  0  0  0
  -25.5914  -33.8611   24.2329 N   0  0  0  0  0  0
  -23.4011  -30.4897   21.5518 C   0  0  2  0  0  0
  -24.8492  -28.9521   20.1192 C   0  0  0  0  0  0
  -22.7394  -29.4656   22.5018 C   0  0  0  0  0  0
  -18.0269  -28.1365   22.8498 C   0  0  0  0  0  0
  -24.1486  -36.7308   23.2639 C   0  0  0  0  0  0
  -25.9287  -30.8302   21.3669 C   0  0  0  0  0  0
  -26.0073  -29.4625   20.7203 C   0  0  0  0  0  0
  -27.2051  -28.7090   20.7140 C   0  0  0  0  0  0
  -26.0681  -26.9422   19.4829 C   0  0  0  0  0  0
  -24.8730  -27.6888   19.5000 C   0  0  0  0  0  0
  -23.6088  -29.8177   20.1682 C   0  0  0  0  0  0
  -25.4110  -36.3108   24.0338 C   0  0  1  0  0  0
  -20.5849  -28.3648   23.1331 C   0  0  2  0  0  0
  -20.6765  -26.9390   22.5426 C   0  0  0  0  0  0
  -19.5752  -26.6376   21.5217 C   0  0  0  0  0  0
  -18.1917  -26.7924   22.1608 C   0  0  0  0  0  0
  -19.1514  -28.8828   23.2905 C   0  0  0  0  0  0
  -18.9447  -30.1436   23.8910 C   0  0  0  0  0  0
  -17.6455  -30.6583   24.0559 C   0  0  0  0  0  0
  -25.9038  -34.9467   23.5126 C   0  0  0  0  0  0
  -16.5341  -29.9080   23.6326 C   0  0  0  0  0  0
  -16.7258  -28.6489   23.0364 C   0  0  0  0  0  0
  -26.4494  -31.6587   25.0707 C   0  0  0  0  0  0
  -25.3777  -31.3694   26.1468 C   0  0  0  0  0  0
  -27.0330  -30.3031   24.6069 C   0  0  0  0  0  0
  -27.6068  -32.4315   25.7462 C   0  0  0  0  0  0
  -27.5584  -37.1807   24.8464 C   0  0  0  0  0  0
  -21.4126  -29.3024   22.3742 N   0  0  0  0  0  0
  -26.4296  -37.3791   23.9409 N   0  0  0  0  0  0
  -24.6654  -31.0773   22.1013 N   0  0  0  0  0  0
  -23.4166  -28.8199   23.3060 O   0  0  0  0  0  0
  -28.3817  -26.6776   20.0354 O   0  0  0  0  0  0
  -26.5581  -34.8922   22.4674 O   0  0  0  0  0  0
  -23.5334  -32.1437   23.7503 O   0  0  0  0  0  0
  -29.9992  -18.7963   20.8450 C   0  0  0  0  0  0
  -29.7484  -16.6274   21.2976 C   0  0  0  0  0  0
  -31.2114  -19.8798   18.9492 C   0  0  0  0  0  0
  -28.6329  -24.0424   22.7469 C   0  0  0  0  0  0
  -31.9964  -22.7668   20.3195 C   0  0  0  0  0  0
  -28.7948  -26.0801   21.2672 C   0  0  0  0  0  0
  -30.7571  -20.0552   20.4125 C   0  0  1  0  0  0
  -28.6493  -24.5255   21.2853 C   0  0  1  0  0  0
  -30.5624  -22.6034   20.8849 C   0  0  1  0  0  0
  -29.6901  -23.8026   20.3616 C   0  0  1  0  0  0
  -30.6126  -17.5901   20.9712 N   0  0  0  0  0  0
  -28.6688  -18.8059   21.0810 N   0  0  0  0  0  0
  -30.0722  -15.2625   21.5143 N   0  0  0  0  0  0
  -29.9193  -21.2849   20.5646 N   0  3  0  0  0  0
  -29.0798  -23.4050   19.2411 F   0  0  0  0  0  0
  -28.1453  -17.2551   21.5079 S   0  0  0  0  0  0
  -31.4823  -12.4393   19.1120 H   0  0  0  0  0  0
  -30.3635  -11.2836   19.7744 H   0  0  0  0  0  0
  -29.7432  -11.8188   17.4125 H   0  0  0  0  0  0
  -29.6732  -13.5200   17.7864 H   0  0  0  0  0  0
  -27.8218  -11.3281   18.7854 H   0  0  0  0  0  0
  -27.3747  -12.6854   17.7883 H   0  0  0  0  0  0
  -27.7350  -14.2545   19.6288 H   0  0  0  0  0  0
  -28.6863  -11.8611   21.2744 H   0  0  0  0  0  0
  -28.4442  -13.4414   21.9173 H   0  0  0  0  0  0
  -25.2744   -9.5716   22.4751 H   0  0  0  0  0  0
  -24.0003   -7.4654   22.7475 H   0  0  0  0  0  0
  -21.0821   -8.8775   19.8993 H   0  0  0  0  0  0
  -22.3658  -10.9672   19.6173 H   0  0  0  0  0  0
  -21.2026   -7.6155   23.9733 H   0  0  0  0  0  0
  -21.1472   -6.0507   25.9077 H   0  0  0  0  0  0
  -22.0603   -2.7609   23.2834 H   0  0  0  0  0  0
  -22.4040  -11.9973   22.4838 H   0  0  0  0  0  0
  -21.1116  -13.1389   22.2535 H   0  0  0  0  0  0
  -24.6444  -15.8244   20.4751 H   0  0  0  0  0  0
  -26.2493  -15.6114   19.9895 H   0  0  0  0  0  0
  -26.7090  -32.5535   23.1142 H   0  0  0  0  0  0
  -25.0132  -33.9781   25.0520 H   0  0  0  0  0  0
  -22.6899  -31.3058   21.4125 H   0  0  0  0  0  0
  -23.3749  -35.9641   23.3310 H   0  0  0  0  0  0
  -24.3580  -36.8910   22.2052 H   0  0  0  0  0  0
  -23.7236  -37.6515   23.6641 H   0  0  0  0  0  0
  -26.0409  -31.5941   20.5960 H   0  0  0  0  0  0
  -26.8176  -30.8851   21.9833 H   0  0  0  0  0  0
  -28.1015  -29.1016   21.1735 H   0  0  0  0  0  0
  -26.0833  -25.9760   18.9973 H   0  0  0  0  0  0
  -23.9842  -27.2915   19.0284 H   0  0  0  0  0  0
  -23.7080  -30.5886   19.4037 H   0  0  0  0  0  0
  -22.7354  -29.2307   19.8788 H   0  0  0  0  0  0
  -25.1284  -36.1976   25.0832 H   0  0  0  0  0  0
  -20.9938  -28.3216   24.1454 H   0  0  0  0  0  0
  -20.5676  -26.2255   23.3608 H   0  0  0  0  0  0
  -21.6639  -26.7456   22.1219 H   0  0  0  0  0  0
  -19.6918  -25.6289   21.1247 H   0  0  0  0  0  0
  -19.6704  -27.3186   20.6747 H   0  0  0  0  0  0
  -17.4206  -26.6692   21.3985 H   0  0  0  0  0  0
  -18.0295  -26.0045   22.8977 H   0  0  0  0  0  0
  -19.7927  -30.7240   24.2290 H   0  0  0  0  0  0
  -17.5015  -31.6272   24.5144 H   0  0  0  0  0  0
  -15.5340  -30.2990   23.7662 H   0  0  0  0  0  0
  -15.8650  -28.0809   22.7093 H   0  0  0  0  0  0
  -24.5907  -30.7091   25.7805 H   0  0  0  0  0  0
  -24.9026  -32.2857   26.4980 H   0  0  0  0  0  0
  -25.8145  -30.8802   27.0183 H   0  0  0  0  0  0
  -26.2852  -29.6758   24.1194 H   0  0  0  0  0  0
  -27.4193  -29.7300   25.4512 H   0  0  0  0  0  0
  -27.8654  -30.4360   23.9150 H   0  0  0  0  0  0
  -27.2680  -33.3607   26.2060 H   0  0  0  0  0  0
  -28.3864  -32.6889   25.0275 H   0  0  0  0  0  0
  -28.0751  -31.8427   26.5362 H   0  0  0  0  0  0
  -28.2612  -38.0094   24.7506 H   0  0  0  0  0  0
  -28.1067  -36.2625   24.6296 H   0  0  0  0  0  0
  -27.2300  -37.1472   25.8867 H   0  0  0  0  0  0
  -20.9282  -29.8722   21.6944 H   0  0  0  0  0  0
  -26.0187  -38.2873   24.1396 H   0  0  0  0  0  0
  -31.7892  -18.9628   18.8302 H   0  0  0  0  0  0
  -31.8463  -20.6909   18.6068 H   0  0  0  0  0  0
  -30.3595  -19.8155   18.2718 H   0  0  0  0  0  0
  -27.8491  -24.5532   23.3078 H   0  0  0  0  0  0
  -29.5754  -24.2499   23.2555 H   0  0  0  0  0  0
  -28.4230  -22.9757   22.8215 H   0  0  0  0  0  0
  -32.4257  -23.7108   20.6582 H   0  0  0  0  0  0
  -32.0043  -22.7964   19.2302 H   0  0  0  0  0  0
  -32.6896  -21.9959   20.6521 H   0  0  0  0  0  0
  -29.8324  -26.3616   21.4513 H   0  0  0  0  0  0
  -28.2297  -26.5083   22.0975 H   0  0  0  0  0  0
  -31.6193  -20.1060   21.0771 H   0  0  0  0  0  0
  -27.6563  -24.3003   20.8955 H   0  0  0  0  0  0
  -30.6744  -22.6478   21.9680 H   0  0  0  0  0  0
  -30.3684  -24.5804   20.0079 H   0  0  0  0  0  0
  -29.3621  -14.7698   22.0352 H   0  0  0  0  0  0
  -29.2506  -21.0691   21.2885 H   0  0  0  0  0  0
  -29.3848  -21.4141   19.7208 H   0  0  0  0  0  0
  1 25  1  0  0  0
  1 30  2  0  0  0
  1 83  1  0  0  0
  2  3  1  0  0  0
  2 25  1  0  0  0
  2 87  1  0  0  0
  2 88  1  0  0  0
  3  4  1  0  0  0
  3 89  1  0  0  0
  3 90  1  0  0  0
  4  5  1  0  0  0
  4 91  1  0  0  0
  4 92  1  0  0  0
  5  6  1  0  0  0
  5 26  1  0  0  0
  5 93  1  0  0  0
  6 25  1  0  0  0
  6 94  1  0  0  0
  6 95  1  0  0  0
  7  8  2  0  0  0
  7 26  1  0  0  0
  7 29  1  0  0  0
  8  9  1  0  0  0
  8 22  1  0  0  0
  9 10  1  0  0  0
  9 27  2  0  0  0
 10 11  2  0  0  0
 10 15  1  0  0  0
 11 12  1  0  0  0
 11 96  1  0  0  0
 12 13  2  0  0  0
 12 97  1  0  0  0
 13 14  1  0  0  0
 13 31  1  0  0  0
 14 15  2  0  0  0
 14 98  1  0  0  0
 15 99  1  0  0  0
 16 17  2  0  0  0
 16 21  1  0  0  0
 16 31  1  0  0  0
 17 18  1  0  0  0
 17100  1  0  0  0
 18 19  2  0  0  0
 18101  1  0  0  0
 19 20  1  0  0  0
 19 24  1  0  0  0
 20 21  2  0  0  0
 20102  1  0  0  0
 21 23  1  0  0  0
 22 28  1  0  0  0
 22 32  2  0  0  0
 26 27  1  0  0  0
 28103  1  0  0  0
 28104  1  0  0  0
 29105  1  0  0  0
 29106  1  0  0  0
 33 34  1  0  0  0
 33 66  1  0  0  0
 33 70  2  0  0  0
 34 36  1  0  0  0
 34 59  1  0  0  0
 34107  1  0  0  0
 35 44  2  0  0  0
 35 45  1  0  0  0
 35 68  1  0  0  0
 36 56  1  0  0  0
 36108  1  0  0  0
 37 39  1  0  0  0
 37 47  1  0  0  0
 37 66  1  0  0  0
 37109  1  0  0  0
 38 43  2  0  0  0
 38 46  1  0  0  0
 38 47  1  0  0  0
 39 64  1  0  0  0
 39 67  2  0  0  0
 40 52  1  0  0  0
 40 53  2  0  0  0
 40 58  1  0  0  0
 41110  1  0  0  0
 41111  1  0  0  0
 41112  1  0  0  0
 41 48  1  0  0  0
 42 43  1  0  0  0
 42 66  1  0  0  0
 42113  1  0  0  0
 42114  1  0  0  0
 43 44  1  0  0  0
 44115  1  0  0  0
 45 46  2  0  0  0
 45116  1  0  0  0
 46117  1  0  0  0
 47118  1  0  0  0
 47119  1  0  0  0
 48 56  1  0  0  0
 48 65  1  0  0  0
 48120  1  0  0  0
 49 50  1  0  0  0
 49 53  1  0  0  0
 49 64  1  0  0  0
 49121  1  0  0  0
 50 51  1  0  0  0
 50122  1  0  0  0
 50123  1  0  0  0
 51 52  1  0  0  0
 51124  1  0  0  0
 51125  1  0  0  0
 52126  1  0  0  0
 52127  1  0  0  0
 53 54  1  0  0  0
 54 55  2  0  0  0
 54128  1  0  0  0
 55 57  1  0  0  0
 55129  1  0  0  0
 56 69  2  0  0  0
 57 58  2  0  0  0
 57130  1  0  0  0
 58131  1  0  0  0
 59 60  1  0  0  0
 59 61  1  0  0  0
 59 62  1  0  0  0
 60132  1  0  0  0
 60133  1  0  0  0
 60134  1  0  0  0
 61135  1  0  0  0
 61136  1  0  0  0
 61137  1  0  0  0
 62138  1  0  0  0
 62139  1  0  0  0
 62140  1  0  0  0
 63 65  1  0  0  0
 63141  1  0  0  0
 63142  1  0  0  0
 63143  1  0  0  0
 64144  1  0  0  0
 65145  1  0  0  0
 68 76  1  0  0  0
 71 77  1  0  0  0
 71 81  1  0  0  0
 71 82  2  0  0  0
 72 81  2  0  0  0
 72 83  1  0  0  0
 72 86  1  0  0  0
 73146  1  0  0  0
 73147  1  0  0  0
 73148  1  0  0  0
 73 77  1  0  0  0
 74149  1  0  0  0
 74150  1  0  0  0
 74151  1  0  0  0
 74 78  1  0  0  0
 75152  1  0  0  0
 75153  1  0  0  0
 75154  1  0  0  0
 75 79  1  0  0  0
 76 78  1  0  0  0
 76155  1  0  0  0
 76156  1  0  0  0
 77 84  1  0  0  0
 77157  1  0  0  0
 78 80  1  0  0  0
 78158  1  0  0  0
 79 80  1  0  0  0
 79 84  1  0  0  0
 79159  1  0  0  0
 80 85  1  0  0  0
 80160  1  0  0  0
 82 86  1  0  0  0
 83161  1  0  0  0
 84162  1  0  0  0
 84163  1  0  0  0
M  CHG  1  84   1
M  ISO  4   1 100  68 101  76 101  83 100
M  END
> <chiral flag>
0

> <version>
0

> <s_m_source_file>
/data/baiqing/PycharmProjects/Reinvent-master-3.2/result/LINK_invent/BTK/process_docking_weight1_custom_product_contain_oxygen_bond_distance_aromatic_linkinvent_7_9_3/rearranged_h_0187.sdf

> <i_m_source_file_index>
92

> <r_mmod_Potential_Energy-OPLS-2005>
-292.430236816406

> <r_mmod_Stretch_Energy-OPLS-2005>
43.4216461181641

> <r_mmod_Bend_Energy-OPLS-2005>
134.338394165039

> <r_mmod_Torsional_Energy-OPLS-2005>
284.873077392578

> <r_mmod_Improper_Torsional_Energy-OPLS-2005>
5.72070646286011

> <r_mmod_Van_der_Waal_Energy-OPLS-2005>
131.562149047852

> <r_mmod_Electrostatic_Energy-OPLS-2005>
-449.106872558594

> <r_mmod_Solvation_Energy-OPLS-2005>
-453.019165039062

> <b_mmod_Minimization_Converged-OPLS-2005>
0

> <r_mmod_RMS_Derivative-OPLS-2005>
2.91507792472839

$$$$
94
                    3D
 Structure written by MMmdl.
156164  0  0  1  0            999 V2000
  -30.6918  -14.4912   20.5430 C   0  0  0  0  0  0
  -30.4188  -12.3118   19.4241 C   0  0  0  0  0  0
  -29.4906  -12.4913   18.2053 C   0  0  0  0  0  0
  -28.0124  -12.3576   18.6208 C   0  0  0  0  0  0
  -27.6565  -13.2087   19.8690 C   0  0  2  0  0  0
  -28.7000  -13.0130   20.9911 C   0  0  0  0  0  0
  -25.2586  -13.8168   20.5706 C   0  0  0  0  0  0
  -24.1834  -13.0444   20.9187 C   0  0  0  0  0  0
  -24.6386  -11.6913   20.8735 C   0  0  0  0  0  0
  -23.9055  -10.4291   21.0404 C   0  0  0  0  0  0
  -24.3609   -9.4207   21.9182 C   0  0  0  0  0  0
  -23.6291   -8.2239   22.0755 C   0  0  0  0  0  0
  -22.4269   -8.0274   21.3547 C   0  0  0  0  0  0
  -21.9900   -9.0246   20.4649 C   0  0  0  0  0  0
  -22.7226  -10.2130   20.3057 C   0  0  0  0  0  0
  -21.6854   -6.0731   22.5283 C   0  0  0  0  0  0
  -21.4009   -6.5637   23.8212 C   0  0  0  0  0  0
  -21.3660   -5.6794   24.9175 C   0  0  0  0  0  0
  -21.6042   -4.3056   24.7230 C   0  0  0  0  0  0
  -21.8820   -3.8148   23.4351 C   0  0  0  0  0  0
  -21.9193   -4.6961   22.3406 C   0  0  0  0  0  0
  -22.7859  -13.5241   21.1842 C   0  0  0  0  0  0
  -22.1664   -4.2145   21.0985 F   0  0  0  0  0  0
  -21.5631   -3.4544   25.7744 F   0  0  0  0  0  0
  -30.0243  -13.3128   20.4274 N   0  0  0  0  0  0
  -26.3008  -12.9340   20.3367 N   0  0  0  0  0  0
  -25.9311  -11.6500   20.5767 N   0  0  0  0  0  0
  -22.0502  -12.8226   22.0395 N   0  0  0  0  0  0
  -25.4319  -15.1885   20.4116 N   0  0  0  0  0  0
  -31.8408  -14.6428   20.1203 O   0  0  0  0  0  0
  -21.6639   -6.8870   21.4239 O   0  0  0  0  0  0
  -22.3544  -14.5550   20.6697 O   0  0  0  0  0  0
  -24.6167  -31.8660   23.2105 C   0  0  0  0  0  0
  -25.9046  -32.4807   23.8414 C   0  0  1  0  0  0
  -27.2116  -27.3931   20.0848 C   0  0  0  0  0  0
  -25.5897  -33.8610   24.2324 N   0  0  0  0  0  0
  -23.4056  -30.4947   21.5518 C   0  0  2  0  0  0
  -24.8452  -28.9606   20.1102 C   0  0  0  0  0  0
  -22.7425  -29.4652   22.4965 C   0  0  0  0  0  0
  -18.0275  -28.1373   22.8505 C   0  0  0  0  0  0
  -24.1481  -36.7309   23.2643 C   0  0  0  0  0  0
  -25.9399  -30.8163   21.3725 C   0  0  0  0  0  0
  -26.0097  -29.4509   20.7108 C   0  0  0  0  0  0
  -27.1943  -28.6744   20.6963 C   0  0  0  0  0  0
  -26.0250  -26.9335   19.4692 C   0  0  0  0  0  0
  -24.8479  -27.7028   19.4876 C   0  0  0  0  0  0
  -23.6141  -29.8368   20.1631 C   0  0  0  0  0  0
  -25.4099  -36.3099   24.0336 C   0  0  1  0  0  0
  -20.5864  -28.3668   23.1303 C   0  0  2  0  0  0
  -20.6765  -26.9400   22.5419 C   0  0  0  0  0  0
  -19.5748  -26.6385   21.5214 C   0  0  0  0  0  0
  -18.1920  -26.7921   22.1620 C   0  0  0  0  0  0
  -19.1528  -28.8839   23.2903 C   0  0  0  0  0  0
  -18.9463  -30.1453   23.8908 C   0  0  0  0  0  0
  -17.6459  -30.6584   24.0578 C   0  0  0  0  0  0
  -25.9042  -34.9468   23.5123 C   0  0  0  0  0  0
  -16.5356  -29.9086   23.6335 C   0  0  0  0  0  0
  -16.7265  -28.6502   23.0347 C   0  0  0  0  0  0
  -26.4478  -31.6599   25.0764 C   0  0  0  0  0  0
  -25.3765  -31.3676   26.1540 C   0  0  0  0  0  0
  -27.0314  -30.3034   24.6164 C   0  0  0  0  0  0
  -27.6059  -32.4344   25.7486 C   0  0  0  0  0  0
  -27.5575  -37.1798   24.8461 C   0  0  0  0  0  0
  -21.4150  -29.3040   22.3710 N   0  0  0  0  0  0
  -26.4274  -37.3792   23.9426 N   0  0  0  0  0  0
  -24.6726  -31.0739   22.1025 N   0  0  0  0  0  0
  -23.4185  -28.8201   23.3025 O   0  0  0  0  0  0
  -28.3732  -26.6355   20.1234 O   0  0  0  0  0  0
  -26.5611  -34.8917   22.4692 O   0  0  0  0  0  0
  -23.5359  -32.1437   23.7488 O   0  0  0  0  0  0
  -28.6015  -18.4917   21.9879 C   0  0  0  0  0  0
  -29.5606  -18.0798   21.0787 C   0  0  0  0  0  0
  -28.6309  -20.3499   20.6391 C   0  0  0  0  0  0
  -27.8521  -24.1824   20.4992 C   0  0  0  0  0  0
  -30.2253  -23.2341   20.9122 C   0  0  0  0  0  0
  -30.5218  -16.9050   21.1508 C   0  0  0  0  0  0
  -28.4198  -25.2940   19.5598 C   0  0  0  0  0  0
  -28.7159  -22.9438   20.9251 C   0  0  2  0  0  0
  -28.1127  -17.7511   23.2118 C   0  0  0  0  0  0
  -28.1487  -19.8121   21.7585 N   0  0  0  0  0  0
  -28.4302  -21.6738   20.2374 N   0  0  0  0  0  0
  -29.9784  -15.5423   21.0033 N   0  0  0  0  0  0
  -26.6881  -24.2738   20.8963 O   0  0  0  0  0  0
  -28.2776  -16.4317   23.1000 F   0  0  0  0  0  0
  -28.7641  -18.1486   24.3045 F   0  0  0  0  0  0
  -26.8120  -17.9621   23.4178 F   0  0  0  0  0  0
  -29.7278  -19.2642   19.7900 S   0  0  0  0  0  0
  -31.4634  -12.4070   19.1222 H   0  0  0  0  0  0
  -30.3202  -11.3070   19.8396 H   0  0  0  0  0  0
  -29.7283  -11.7541   17.4375 H   0  0  0  0  0  0
  -29.6577  -13.4698   17.7522 H   0  0  0  0  0  0
  -27.8209  -11.3037   18.8276 H   0  0  0  0  0  0
  -27.3610  -12.6252   17.7882 H   0  0  0  0  0  0
  -27.6935  -14.2522   19.5574 H   0  0  0  0  0  0
  -28.6818  -11.9839   21.3534 H   0  0  0  0  0  0
  -28.4698  -13.6340   21.8581 H   0  0  0  0  0  0
  -25.2754   -9.5689   22.4755 H   0  0  0  0  0  0
  -24.0009   -7.4630   22.7471 H   0  0  0  0  0  0
  -21.0835   -8.8757   19.8956 H   0  0  0  0  0  0
  -22.3679  -10.9665   19.6169 H   0  0  0  0  0  0
  -21.1995   -7.6145   23.9713 H   0  0  0  0  0  0
  -21.1482   -6.0525   25.9077 H   0  0  0  0  0  0
  -22.0597   -2.7610   23.2857 H   0  0  0  0  0  0
  -22.4124  -11.9884   22.4780 H   0  0  0  0  0  0
  -21.1117  -13.1244   22.2602 H   0  0  0  0  0  0
  -24.6648  -15.8430   20.5173 H   0  0  0  0  0  0
  -26.2765  -15.6215   20.0629 H   0  0  0  0  0  0
  -26.7118  -32.5470   23.1163 H   0  0  0  0  0  0
  -25.0071  -33.9815   25.0484 H   0  0  0  0  0  0
  -22.6970  -31.3142   21.4166 H   0  0  0  0  0  0
  -23.3742  -35.9643   23.3304 H   0  0  0  0  0  0
  -24.3578  -36.8933   22.2063 H   0  0  0  0  0  0
  -23.7243  -37.6515   23.6669 H   0  0  0  0  0  0
  -26.0701  -31.5830   20.6078 H   0  0  0  0  0  0
  -26.8221  -30.8569   22.0008 H   0  0  0  0  0  0
  -28.0952  -29.0466   21.1642 H   0  0  0  0  0  0
  -25.9709  -25.9728   18.9811 H   0  0  0  0  0  0
  -23.9504  -27.3227   19.0205 H   0  0  0  0  0  0
  -23.7340  -30.6210   19.4134 H   0  0  0  0  0  0
  -22.7322  -29.2721   19.8568 H   0  0  0  0  0  0
  -25.1257  -36.1956   25.0825 H   0  0  0  0  0  0
  -20.9987  -28.3236   24.1408 H   0  0  0  0  0  0
  -20.5663  -26.2283   23.3610 H   0  0  0  0  0  0
  -21.6633  -26.7422   22.1210 H   0  0  0  0  0  0
  -19.6920  -25.6302   21.1235 H   0  0  0  0  0  0
  -19.6679  -27.3213   20.6751 H   0  0  0  0  0  0
  -17.4195  -26.6703   21.4006 H   0  0  0  0  0  0
  -18.0303  -26.0027   22.8975 H   0  0  0  0  0  0
  -19.7943  -30.7285   24.2252 H   0  0  0  0  0  0
  -17.5017  -31.6261   24.5197 H   0  0  0  0  0  0
  -15.5367  -30.2999   23.7654 H   0  0  0  0  0  0
  -15.8656  -28.0853   22.7023 H   0  0  0  0  0  0
  -24.5960  -30.6973   25.7903 H   0  0  0  0  0  0
  -24.8934  -32.2812   26.5017 H   0  0  0  0  0  0
  -25.8167  -30.8865   27.0284 H   0  0  0  0  0  0
  -26.2851  -29.6783   24.1257 H   0  0  0  0  0  0
  -27.4110  -29.7282   25.4618 H   0  0  0  0  0  0
  -27.8670  -30.4334   23.9284 H   0  0  0  0  0  0
  -27.2686  -33.3654   26.2045 H   0  0  0  0  0  0
  -28.3844  -32.6901   25.0282 H   0  0  0  0  0  0
  -28.0758  -31.8503   26.5412 H   0  0  0  0  0  0
  -28.2572  -38.0117   24.7537 H   0  0  0  0  0  0
  -28.1095  -36.2652   24.6222 H   0  0  0  0  0  0
  -27.2329  -37.1373   25.8877 H   0  0  0  0  0  0
  -20.9321  -29.8767   21.6927 H   0  0  0  0  0  0
  -26.0155  -38.2857   24.1466 H   0  0  0  0  0  0
  -30.4506  -24.1903   21.3872 H   0  0  0  0  0  0
  -30.6252  -23.2567   19.8972 H   0  0  0  0  0  0
  -30.7743  -22.4670   21.4594 H   0  0  0  0  0  0
  -31.0379  -16.9406   22.1108 H   0  0  0  0  0  0
  -31.3054  -17.0672   20.4084 H   0  0  0  0  0  0
  -27.9076  -25.2579   18.5984 H   0  0  0  0  0  0
  -29.4615  -25.0799   19.3266 H   0  0  0  0  0  0
  -28.4598  -22.7588   21.9689 H   0  0  0  0  0  0
  -28.4887  -21.7619   19.2278 H   0  0  0  0  0  0
  -29.0374  -15.3628   21.3203 H   0  0  0  0  0  0
  1 25  1  0  0  0
  1 30  2  0  0  0
  1 82  1  0  0  0
  2  3  1  0  0  0
  2 25  1  0  0  0
  2 88  1  0  0  0
  2 89  1  0  0  0
  3  4  1  0  0  0
  3 90  1  0  0  0
  3 91  1  0  0  0
  4  5  1  0  0  0
  4 92  1  0  0  0
  4 93  1  0  0  0
  5  6  1  0  0  0
  5 26  1  0  0  0
  5 94  1  0  0  0
  6 25  1  0  0  0
  6 95  1  0  0  0
  6 96  1  0  0  0
  7  8  2  0  0  0
  7 26  1  0  0  0
  7 29  1  0  0  0
  8  9  1  0  0  0
  8 22  1  0  0  0
  9 10  1  0  0  0
  9 27  2  0  0  0
 10 11  2  0  0  0
 10 15  1  0  0  0
 11 12  1  0  0  0
 11 97  1  0  0  0
 12 13  2  0  0  0
 12 98  1  0  0  0
 13 14  1  0  0  0
 13 31  1  0  0  0
 14 15  2  0  0  0
 14 99  1  0  0  0
 15100  1  0  0  0
 16 17  2  0  0  0
 16 21  1  0  0  0
 16 31  1  0  0  0
 17 18  1  0  0  0
 17101  1  0  0  0
 18 19  2  0  0  0
 18102  1  0  0  0
 19 20  1  0  0  0
 19 24  1  0  0  0
 20 21  2  0  0  0
 20103  1  0  0  0
 21 23  1  0  0  0
 22 28  1  0  0  0
 22 32  2  0  0  0
 26 27  1  0  0  0
 28104  1  0  0  0
 28105  1  0  0  0
 29106  1  0  0  0
 29107  1  0  0  0
 33 34  1  0  0  0
 33 66  1  0  0  0
 33 70  2  0  0  0
 34 36  1  0  0  0
 34 59  1  0  0  0
 34108  1  0  0  0
 35 44  2  0  0  0
 35 45  1  0  0  0
 35 68  1  0  0  0
 36 56  1  0  0  0
 36109  1  0  0  0
 37 39  1  0  0  0
 37 47  1  0  0  0
 37 66  1  0  0  0
 37110  1  0  0  0
 38 43  2  0  0  0
 38 46  1  0  0  0
 38 47  1  0  0  0
 39 64  1  0  0  0
 39 67  2  0  0  0
 40 52  1  0  0  0
 40 53  2  0  0  0
 40 58  1  0  0  0
 41111  1  0  0  0
 41112  1  0  0  0
 41113  1  0  0  0
 41 48  1  0  0  0
 42 43  1  0  0  0
 42 66  1  0  0  0
 42114  1  0  0  0
 42115  1  0  0  0
 43 44  1  0  0  0
 44116  1  0  0  0
 45 46  2  0  0  0
 45117  1  0  0  0
 46118  1  0  0  0
 47119  1  0  0  0
 47120  1  0  0  0
 48 56  1  0  0  0
 48 65  1  0  0  0
 48121  1  0  0  0
 49 50  1  0  0  0
 49 53  1  0  0  0
 49 64  1  0  0  0
 49122  1  0  0  0
 50 51  1  0  0  0
 50123  1  0  0  0
 50124  1  0  0  0
 51 52  1  0  0  0
 51125  1  0  0  0
 51126  1  0  0  0
 52127  1  0  0  0
 52128  1  0  0  0
 53 54  1  0  0  0
 54 55  2  0  0  0
 54129  1  0  0  0
 55 57  1  0  0  0
 55130  1  0  0  0
 56 69  2  0  0  0
 57 58  2  0  0  0
 57131  1  0  0  0
 58132  1  0  0  0
 59 60  1  0  0  0
 59 61  1  0  0  0
 59 62  1  0  0  0
 60133  1  0  0  0
 60134  1  0  0  0
 60135  1  0  0  0
 61136  1  0  0  0
 61137  1  0  0  0
 61138  1  0  0  0
 62139  1  0  0  0
 62140  1  0  0  0
 62141  1  0  0  0
 63 65  1  0  0  0
 63142  1  0  0  0
 63143  1  0  0  0
 63144  1  0  0  0
 64145  1  0  0  0
 65146  1  0  0  0
 68 77  1  0  0  0
 71 72  2  0  0  0
 71 79  1  0  0  0
 71 80  1  0  0  0
 72 76  1  0  0  0
 72 87  1  0  0  0
 73 80  2  0  0  0
 73 81  1  0  0  0
 73 87  1  0  0  0
 74 77  1  0  0  0
 74 78  1  0  0  0
 74 83  2  0  0  0
 75147  1  0  0  0
 75148  1  0  0  0
 75149  1  0  0  0
 75 78  1  0  0  0
 76 82  1  0  0  0
 76150  1  0  0  0
 76151  1  0  0  0
 77152  1  0  0  0
 77153  1  0  0  0
 78 81  1  0  0  0
 78154  1  0  0  0
 79 84  1  0  0  0
 79 85  1  0  0  0
 79 86  1  0  0  0
 81155  1  0  0  0
 82156  1  0  0  0
M  ISO  4   1 100  68 101  77 101  82 100
M  END
> <chiral flag>
0

> <version>
0

> <s_m_source_file>
/data/baiqing/PycharmProjects/Reinvent-master-3.2/result/LINK_invent/BTK/process_docking_weight1_custom_product_contain_oxygen_bond_distance_aromatic_linkinvent_7_9_3/rearranged_h_0187.sdf

> <i_m_source_file_index>
93

> <r_mmod_Potential_Energy-OPLS-2005>
-47.446907043457

> <r_mmod_Stretch_Energy-OPLS-2005>
43.5747413635254

> <r_mmod_Bend_Energy-OPLS-2005>
114.199111938477

> <r_mmod_Torsional_Energy-OPLS-2005>
221.411544799805

> <r_mmod_Improper_Torsional_Energy-OPLS-2005>
6.70398092269897

> <r_mmod_Van_der_Waal_Energy-OPLS-2005>
124.982322692871

> <r_mmod_Electrostatic_Energy-OPLS-2005>
-341.199249267578

> <r_mmod_Solvation_Energy-OPLS-2005>
-236.50715637207

> <b_mmod_Minimization_Converged-OPLS-2005>
0

> <r_mmod_RMS_Derivative-OPLS-2005>
2.27981758117676

$$$$
