0
                    3D
 Structure written by MMmdl.
160168  0  0  1  0            999 V2000
  -30.6212  -14.6335   20.5085 C   0  0  0  0  0  0
  -30.4427  -12.3909   19.4487 C   0  0  0  0  0  0
  -29.5104  -12.5148   18.2224 C   0  0  0  0  0  0
  -28.0320  -12.3503   18.6318 C   0  0  0  0  0  0
  -27.6556  -13.2154   19.8637 C   0  0  2  0  0  0
  -28.7002  -13.0581   20.9926 C   0  0  0  0  0  0
  -25.2571  -13.8172   20.5679 C   0  0  0  0  0  0
  -24.1833  -13.0443   20.9189 C   0  0  0  0  0  0
  -24.6396  -11.6911   20.8732 C   0  0  0  0  0  0
  -23.9062  -10.4294   21.0404 C   0  0  0  0  0  0
  -24.3614   -9.4211   21.9183 C   0  0  0  0  0  0
  -23.6289   -8.2246   22.0755 C   0  0  0  0  0  0
  -22.4269   -8.0284   21.3549 C   0  0  0  0  0  0
  -21.9907   -9.0259   20.4654 C   0  0  0  0  0  0
  -22.7235  -10.2137   20.3058 C   0  0  0  0  0  0
  -21.6854   -6.0736   22.5282 C   0  0  0  0  0  0
  -21.4015   -6.5638   23.8216 C   0  0  0  0  0  0
  -21.3658   -5.6789   24.9177 C   0  0  0  0  0  0
  -21.6045   -4.3052   24.7226 C   0  0  0  0  0  0
  -21.8818   -3.8146   23.4345 C   0  0  0  0  0  0
  -21.9193   -4.6964   22.3404 C   0  0  0  0  0  0
  -22.7854  -13.5241   21.1846 C   0  0  0  0  0  0
  -22.1663   -4.2150   21.0982 F   0  0  0  0  0  0
  -21.5628   -3.4534   25.7735 F   0  0  0  0  0  0
  -30.0185  -13.4044   20.4344 N   0  0  0  0  0  0
  -26.3000  -12.9351   20.3305 N   0  0  0  0  0  0
  -25.9322  -11.6505   20.5737 N   0  0  0  0  0  0
  -22.0487  -12.8239   22.0405 N   0  0  0  0  0  0
  -25.4286  -15.1891   20.4079 N   0  0  0  0  0  0
  -31.7771  -14.8078   20.1113 O   0  0  0  0  0  0
  -21.6637   -6.8878   21.4243 O   0  0  0  0  0  0
  -22.3543  -14.5549   20.6693 O   0  0  0  0  0  0
  -24.6265  -31.8607   23.2023 C   0  0  0  0  0  0
  -25.9121  -32.4778   23.8346 C   0  0  1  0  0  0
  -27.2266  -27.3272   20.1077 C   0  0  0  0  0  0
  -25.5943  -33.8578   24.2282 N   0  0  0  0  0  0
  -23.4190  -30.4859   21.5455 C   0  0  2  0  0  0
  -24.8645  -28.9430   20.1115 C   0  0  0  0  0  0
  -22.7474  -29.4644   22.4939 C   0  0  0  0  0  0
  -18.0295  -28.1377   22.8494 C   0  0  0  0  0  0
  -24.1493  -36.7290   23.2634 C   0  0  0  0  0  0
  -25.9605  -30.7938   21.3725 C   0  0  0  0  0  0
  -26.0345  -29.4224   20.7132 C   0  0  0  0  0  0
  -27.2184  -28.6266   20.7013 C   0  0  0  0  0  0
  -26.0289  -26.9013   19.4841 C   0  0  0  0  0  0
  -24.8634  -27.6869   19.4891 C   0  0  0  0  0  0
  -23.6320  -29.8208   20.1609 C   0  0  0  0  0  0
  -25.4115  -36.3080   24.0327 C   0  0  1  0  0  0
  -20.5895  -28.3691   23.1280 C   0  0  2  0  0  0
  -20.6790  -26.9416   22.5407 C   0  0  0  0  0  0
  -19.5762  -26.6385   21.5213 C   0  0  0  0  0  0
  -18.1941  -26.7923   22.1623 C   0  0  0  0  0  0
  -19.1547  -28.8850   23.2883 C   0  0  0  0  0  0
  -18.9466  -30.1451   23.8897 C   0  0  0  0  0  0
  -17.6466  -30.6585   24.0560 C   0  0  0  0  0  0
  -25.9053  -34.9451   23.5102 C   0  0  0  0  0  0
  -16.5359  -29.9082   23.6325 C   0  0  0  0  0  0
  -16.7283  -28.6495   23.0357 C   0  0  0  0  0  0
  -26.4503  -31.6576   25.0711 C   0  0  0  0  0  0
  -25.3742  -31.3717   26.1442 C   0  0  0  0  0  0
  -27.0337  -30.2997   24.6155 C   0  0  0  0  0  0
  -27.6064  -32.4305   25.7489 C   0  0  0  0  0  0
  -27.5584  -37.1801   24.8462 C   0  0  0  0  0  0
  -21.4191  -29.3046   22.3673 N   0  0  0  0  0  0
  -26.4291  -37.3778   23.9411 N   0  0  0  0  0  0
  -24.6877  -31.0630   22.0968 N   0  0  0  0  0  0
  -23.4201  -28.8188   23.3022 O   0  0  0  0  0  0
  -28.3482  -26.4814   20.1524 O   0  0  0  0  0  0
  -26.5611  -34.8921   22.4661 O   0  0  0  0  0  0
  -23.5431  -32.1402   23.7355 O   0  0  0  0  0  0
  -28.7291  -17.8774   21.1609 C   0  0  0  0  0  0
  -30.9758  -17.8787   20.3222 C   0  0  0  0  0  0
  -28.6763  -19.3076   21.1352 C   0  0  0  0  0  0
  -29.8680  -17.1202   20.7795 C   0  0  0  0  0  0
  -30.9344  -19.3062   20.2718 C   0  0  0  0  0  0
  -29.7947  -20.0712   20.6661 C   0  0  0  0  0  0
  -27.4458  -19.9336   21.6414 C   0  0  0  0  0  0
  -26.1999  -19.5352   21.3326 C   0  0  0  0  0  0
  -24.9402  -20.1687   21.8818 C   0  0  0  0  0  0
  -29.2602  -23.9792   20.3465 C   0  0  0  0  0  0
  -28.1097  -25.0250   20.0309 C   0  0  0  0  0  0
  -28.8321  -22.4453   20.4156 C   0  0  0  0  0  0
  -32.0611  -19.9937   19.8178 N   0  0  0  0  0  0
  -29.8041  -15.6608   20.9002 N   0  0  0  0  0  0
  -29.9248  -21.4854   20.6048 O   0  0  0  0  0  0
  -31.4830  -12.5211   19.1459 H   0  0  0  0  0  0
  -30.3816  -11.3920   19.8825 H   0  0  0  0  0  0
  -29.7757  -11.7708   17.4701 H   0  0  0  0  0  0
  -29.6522  -13.4883   17.7507 H   0  0  0  0  0  0
  -27.8643  -11.2962   18.8556 H   0  0  0  0  0  0
  -27.3803  -12.5896   17.7903 H   0  0  0  0  0  0
  -27.6776  -14.2525   19.5281 H   0  0  0  0  0  0
  -28.7088  -12.0328   21.3653 H   0  0  0  0  0  0
  -28.4422  -13.6793   21.8513 H   0  0  0  0  0  0
  -25.2762   -9.5687   22.4751 H   0  0  0  0  0  0
  -24.0005   -7.4637   22.7466 H   0  0  0  0  0  0
  -21.0844   -8.8778   19.8957 H   0  0  0  0  0  0
  -22.3699  -10.9673   19.6161 H   0  0  0  0  0  0
  -21.2010   -7.6146   23.9721 H   0  0  0  0  0  0
  -21.1480   -6.0517   25.9080 H   0  0  0  0  0  0
  -22.0599   -2.7609   23.2844 H   0  0  0  0  0  0
  -22.4089  -11.9901   22.4804 H   0  0  0  0  0  0
  -21.1111  -13.1284   22.2602 H   0  0  0  0  0  0
  -24.6562  -15.8385   20.5063 H   0  0  0  0  0  0
  -26.2673  -15.6229   20.0450 H   0  0  0  0  0  0
  -26.7191  -32.5451   23.1095 H   0  0  0  0  0  0
  -25.0129  -33.9724   25.0454 H   0  0  0  0  0  0
  -22.7129  -31.3067   21.4032 H   0  0  0  0  0  0
  -23.3756  -35.9621   23.3289 H   0  0  0  0  0  0
  -24.3589  -36.8916   22.2051 H   0  0  0  0  0  0
  -23.7247  -37.6492   23.6655 H   0  0  0  0  0  0
  -26.0922  -31.5590   20.6062 H   0  0  0  0  0  0
  -26.8408  -30.8402   22.0017 H   0  0  0  0  0  0
  -28.1165  -28.9898   21.1810 H   0  0  0  0  0  0
  -25.9577  -25.9451   18.9891 H   0  0  0  0  0  0
  -23.9672  -27.3132   19.0133 H   0  0  0  0  0  0
  -23.7484  -30.5953   19.4021 H   0  0  0  0  0  0
  -22.7526  -29.2478   19.8615 H   0  0  0  0  0  0
  -25.1296  -36.1925   25.0820 H   0  0  0  0  0  0
  -20.9995  -28.3269   24.1396 H   0  0  0  0  0  0
  -20.5707  -26.2300   23.3607 H   0  0  0  0  0  0
  -21.6660  -26.7462   22.1192 H   0  0  0  0  0  0
  -19.6926  -25.6296   21.1245 H   0  0  0  0  0  0
  -19.6689  -27.3194   20.6741 H   0  0  0  0  0  0
  -17.4217  -26.6682   21.4019 H   0  0  0  0  0  0
  -18.0333  -26.0056   22.9009 H   0  0  0  0  0  0
  -19.7943  -30.7268   24.2266 H   0  0  0  0  0  0
  -17.5022  -31.6264   24.5165 H   0  0  0  0  0  0
  -15.5359  -30.2983   23.7642 H   0  0  0  0  0  0
  -15.8684  -28.0809   22.7073 H   0  0  0  0  0  0
  -24.5919  -30.7059   25.7780 H   0  0  0  0  0  0
  -24.8927  -32.2884   26.4855 H   0  0  0  0  0  0
  -25.8078  -30.8913   27.0222 H   0  0  0  0  0  0
  -26.2901  -29.6751   24.1190 H   0  0  0  0  0  0
  -27.4050  -29.7247   25.4650 H   0  0  0  0  0  0
  -27.8765  -30.4276   23.9358 H   0  0  0  0  0  0
  -27.2674  -33.3608   26.2057 H   0  0  0  0  0  0
  -28.3881  -32.6863   25.0324 H   0  0  0  0  0  0
  -28.0715  -31.8429   26.5414 H   0  0  0  0  0  0
  -28.2593  -38.0107   24.7523 H   0  0  0  0  0  0
  -28.1089  -36.2640   24.6267 H   0  0  0  0  0  0
  -27.2304  -37.1425   25.8865 H   0  0  0  0  0  0
  -20.9365  -29.8747   21.6866 H   0  0  0  0  0  0
  -26.0168  -38.2853   24.1408 H   0  0  0  0  0  0
  -27.8650  -17.3419   21.5287 H   0  0  0  0  0  0
  -31.8762  -17.3671   20.0140 H   0  0  0  0  0  0
  -27.5725  -20.7390   22.3495 H   0  0  0  0  0  0
  -26.0532  -18.7131   20.6449 H   0  0  0  0  0  0
  -25.1677  -20.9794   22.5751 H   0  0  0  0  0  0
  -24.3423  -19.4240   22.4079 H   0  0  0  0  0  0
  -24.3397  -20.5736   21.0669 H   0  0  0  0  0  0
  -29.7149  -24.2451   21.3005 H   0  0  0  0  0  0
  -30.0467  -24.0934   19.6006 H   0  0  0  0  0  0
  -27.2682  -24.7714   20.6779 H   0  0  0  0  0  0
  -27.7882  -24.8198   19.0097 H   0  0  0  0  0  0
  -28.2888  -22.1742   19.5100 H   0  0  0  0  0  0
  -28.1256  -22.3875   21.2360 H   0  0  0  0  0  0
  -32.6806  -19.5197   19.1691 H   0  0  0  0  0  0
  -31.9117  -20.9697   19.5776 H   0  0  0  0  0  0
  -28.9204  -15.3160   21.2420 H   0  0  0  0  0  0
  1 25  1  0  0  0
  1 30  2  0  0  0
  1 84  1  0  0  0
  2  3  1  0  0  0
  2 25  1  0  0  0
  2 86  1  0  0  0
  2 87  1  0  0  0
  3  4  1  0  0  0
  3 88  1  0  0  0
  3 89  1  0  0  0
  4  5  1  0  0  0
  4 90  1  0  0  0
  4 91  1  0  0  0
  5  6  1  0  0  0
  5 26  1  0  0  0
  5 92  1  0  0  0
  6 25  1  0  0  0
  6 93  1  0  0  0
  6 94  1  0  0  0
  7  8  2  0  0  0
  7 26  1  0  0  0
  7 29  1  0  0  0
  8  9  1  0  0  0
  8 22  1  0  0  0
  9 10  1  0  0  0
  9 27  2  0  0  0
 10 11  2  0  0  0
 10 15  1  0  0  0
 11 12  1  0  0  0
 11 95  1  0  0  0
 12 13  2  0  0  0
 12 96  1  0  0  0
 13 14  1  0  0  0
 13 31  1  0  0  0
 14 15  2  0  0  0
 14 97  1  0  0  0
 15 98  1  0  0  0
 16 17  2  0  0  0
 16 21  1  0  0  0
 16 31  1  0  0  0
 17 18  1  0  0  0
 17 99  1  0  0  0
 18 19  2  0  0  0
 18100  1  0  0  0
 19 20  1  0  0  0
 19 24  1  0  0  0
 20 21  2  0  0  0
 20101  1  0  0  0
 21 23  1  0  0  0
 22 28  1  0  0  0
 22 32  2  0  0  0
 26 27  1  0  0  0
 28102  1  0  0  0
 28103  1  0  0  0
 29104  1  0  0  0
 29105  1  0  0  0
 33 34  1  0  0  0
 33 66  1  0  0  0
 33 70  2  0  0  0
 34 36  1  0  0  0
 34 59  1  0  0  0
 34106  1  0  0  0
 35 44  2  0  0  0
 35 45  1  0  0  0
 35 68  1  0  0  0
 36 56  1  0  0  0
 36107  1  0  0  0
 37 39  1  0  0  0
 37 47  1  0  0  0
 37 66  1  0  0  0
 37108  1  0  0  0
 38 43  2  0  0  0
 38 46  1  0  0  0
 38 47  1  0  0  0
 39 64  1  0  0  0
 39 67  2  0  0  0
 40 52  1  0  0  0
 40 53  2  0  0  0
 40 58  1  0  0  0
 41109  1  0  0  0
 41110  1  0  0  0
 41111  1  0  0  0
 41 48  1  0  0  0
 42 43  1  0  0  0
 42 66  1  0  0  0
 42112  1  0  0  0
 42113  1  0  0  0
 43 44  1  0  0  0
 44114  1  0  0  0
 45 46  2  0  0  0
 45115  1  0  0  0
 46116  1  0  0  0
 47117  1  0  0  0
 47118  1  0  0  0
 48 56  1  0  0  0
 48 65  1  0  0  0
 48119  1  0  0  0
 49 50  1  0  0  0
 49 53  1  0  0  0
 49 64  1  0  0  0
 49120  1  0  0  0
 50 51  1  0  0  0
 50121  1  0  0  0
 50122  1  0  0  0
 51 52  1  0  0  0
 51123  1  0  0  0
 51124  1  0  0  0
 52125  1  0  0  0
 52126  1  0  0  0
 53 54  1  0  0  0
 54 55  2  0  0  0
 54127  1  0  0  0
 55 57  1  0  0  0
 55128  1  0  0  0
 56 69  2  0  0  0
 57 58  2  0  0  0
 57129  1  0  0  0
 58130  1  0  0  0
 59 60  1  0  0  0
 59 61  1  0  0  0
 59 62  1  0  0  0
 60131  1  0  0  0
 60132  1  0  0  0
 60133  1  0  0  0
 61134  1  0  0  0
 61135  1  0  0  0
 61136  1  0  0  0
 62137  1  0  0  0
 62138  1  0  0  0
 62139  1  0  0  0
 63 65  1  0  0  0
 63140  1  0  0  0
 63141  1  0  0  0
 63142  1  0  0  0
 64143  1  0  0  0
 65144  1  0  0  0
 68 81  1  0  0  0
 71 73  2  0  0  0
 71 74  1  0  0  0
 71145  1  0  0  0
 72 74  2  0  0  0
 72 75  1  0  0  0
 72146  1  0  0  0
 73 76  1  0  0  0
 73 77  1  0  0  0
 74 84  1  0  0  0
 75 76  2  0  0  0
 75 83  1  0  0  0
 76 85  1  0  0  0
 77 78  2  0  0  0
 77147  1  0  0  0
 78 79  1  0  0  0
 78148  1  0  0  0
 79149  1  0  0  0
 79150  1  0  0  0
 79151  1  0  0  0
 80 81  1  0  0  0
 80 82  1  0  0  0
 80152  1  0  0  0
 80153  1  0  0  0
 81154  1  0  0  0
 81155  1  0  0  0
 82 85  1  0  0  0
 82156  1  0  0  0
 82157  1  0  0  0
 83158  1  0  0  0
 83159  1  0  0  0
 84160  1  0  0  0
M  ISO  4   1 100  68 101  81 101  84 100
M  END
> <chiral flag>
0

> <version>
0

> <s_m_source_file>
/data/baiqing/PycharmProjects/Reinvent-master-3.2/result/LINK_invent/BTK/process_docking_weight1_custom_product_contain_oxygen_bond_distance_aromatic_linkinvent_7_9_3/rearranged_h_0112.sdf

> <i_m_source_file_index>
1

> <r_mmod_Potential_Energy-OPLS-2005>
101.574394226074

> <r_mmod_Stretch_Energy-OPLS-2005>
80.616813659668

> <r_mmod_Bend_Energy-OPLS-2005>
160.164916992188

> <r_mmod_Torsional_Energy-OPLS-2005>
236.44221496582

> <r_mmod_Improper_Torsional_Energy-OPLS-2005>
8.13684844970703

> <r_mmod_Van_der_Waal_Energy-OPLS-2005>
150.05680847168

> <r_mmod_Electrostatic_Energy-OPLS-2005>
-359.701965332031

> <r_mmod_Solvation_Energy-OPLS-2005>
-219.635116577148

> <b_mmod_Minimization_Converged-OPLS-2005>
0

> <r_mmod_RMS_Derivative-OPLS-2005>
0.956198871135712

$$$$
1
                    3D
 Structure written by MMmdl.
169178  0  0  1  0            999 V2000
  -30.5813  -14.7812   20.3889 C   0  0  0  0  0  0
  -30.4519  -12.4486   19.4948 C   0  0  0  0  0  0
  -29.5295  -12.4114   18.2551 C   0  0  0  0  0  0
  -28.0423  -12.3158   18.6521 C   0  0  0  0  0  0
  -27.6531  -13.2237   19.8491 C   0  0  2  0  0  0
  -28.6962  -13.1816   20.9870 C   0  0  0  0  0  0
  -25.2579  -13.8159   20.5699 C   0  0  0  0  0  0
  -24.1851  -13.0452   20.9224 C   0  0  0  0  0  0
  -24.6431  -11.6908   20.8796 C   0  0  0  0  0  0
  -23.9031  -10.4318   21.0465 C   0  0  0  0  0  0
  -24.3593   -9.4244   21.9233 C   0  0  0  0  0  0
  -23.6298   -8.2275   22.0791 C   0  0  0  0  0  0
  -22.4298   -8.0303   21.3573 C   0  0  0  0  0  0
  -21.9918   -9.0254   20.4680 C   0  0  0  0  0  0
  -22.7203  -10.2167   20.3097 C   0  0  0  0  0  0
  -21.6871   -6.0780   22.5290 C   0  0  0  0  0  0
  -21.3994   -6.5677   23.8217 C   0  0  0  0  0  0
  -21.3653   -5.6835   24.9176 C   0  0  0  0  0  0
  -21.6051   -4.3100   24.7216 C   0  0  0  0  0  0
  -21.8818   -3.8193   23.4331 C   0  0  0  0  0  0
  -21.9221   -4.7011   22.3416 C   0  0  0  0  0  0
  -22.7856  -13.5295   21.1841 C   0  0  0  0  0  0
  -22.1739   -4.2224   21.0995 F   0  0  0  0  0  0
  -21.5589   -3.4565   25.7703 F   0  0  0  0  0  0
  -29.9925  -13.5335   20.3938 N   0  0  0  0  0  0
  -26.3017  -12.9368   20.3332 N   0  0  0  0  0  0
  -25.9362  -11.6508   20.5774 N   0  0  0  0  0  0
  -22.0366  -12.8399   22.0382 N   0  0  0  0  0  0
  -25.4227  -15.1860   20.3927 N   0  0  0  0  0  0
  -31.7731  -14.8918   20.0823 O   0  0  0  0  0  0
  -21.6666   -6.8908   21.4249 O   0  0  0  0  0  0
  -22.3637  -14.5617   20.6631 O   0  0  0  0  0  0
  -24.6326  -31.8522   23.1950 C   0  0  0  0  0  0
  -25.9151  -32.4741   23.8309 C   0  0  1  0  0  0
  -27.2199  -27.2319   20.1643 C   0  0  0  0  0  0
  -25.5945  -33.8536   24.2216 N   0  0  0  0  0  0
  -23.4311  -30.4729   21.5352 C   0  0  2  0  0  0
  -24.8869  -28.9216   20.1055 C   0  0  0  0  0  0
  -22.7505  -29.4574   22.4867 C   0  0  0  0  0  0
  -18.0287  -28.1394   22.8475 C   0  0  0  0  0  0
  -24.1487  -36.7261   23.2642 C   0  0  0  0  0  0
  -25.9773  -30.7596   21.3799 C   0  0  0  0  0  0
  -26.0539  -29.3777   20.7305 C   0  0  0  0  0  0
  -27.2200  -28.5435   20.7574 C   0  0  0  0  0  0
  -26.0411  -26.8658   19.4720 C   0  0  0  0  0  0
  -24.8908  -27.6760   19.4605 C   0  0  0  0  0  0
  -23.6540  -29.8037   20.1521 C   0  0  0  0  0  0
  -25.4119  -36.3039   24.0307 C   0  0  1  0  0  0
  -20.5886  -28.3681   23.1270 C   0  0  2  0  0  0
  -20.6764  -26.9389   22.5412 C   0  0  0  0  0  0
  -19.5746  -26.6355   21.5218 C   0  0  0  0  0  0
  -18.1924  -26.7942   22.1610 C   0  0  0  0  0  0
  -19.1540  -28.8857   23.2870 C   0  0  0  0  0  0
  -18.9470  -30.1471   23.8866 C   0  0  0  0  0  0
  -17.6459  -30.6584   24.0557 C   0  0  0  0  0  0
  -25.9056  -34.9422   23.5045 C   0  0  0  0  0  0
  -16.5343  -29.9071   23.6353 C   0  0  0  0  0  0
  -16.7265  -28.6500   23.0345 C   0  0  0  0  0  0
  -26.4509  -31.6582   25.0698 C   0  0  0  0  0  0
  -25.3690  -31.3764   26.1381 C   0  0  0  0  0  0
  -27.0399  -30.3004   24.6214 C   0  0  0  0  0  0
  -27.6031  -32.4338   25.7509 C   0  0  0  0  0  0
  -27.5570  -37.1793   24.8456 C   0  0  0  0  0  0
  -21.4200  -29.3032   22.3647 N   0  0  0  0  0  0
  -26.4280  -37.3749   23.9393 N   0  0  0  0  0  0
  -24.6987  -31.0468   22.0941 N   0  0  0  0  0  0
  -23.4194  -28.8114   23.2975 O   0  0  0  0  0  0
  -28.2974  -26.3123   20.3020 O   0  0  0  0  0  0
  -26.5603  -34.8900   22.4592 O   0  0  0  0  0  0
  -23.5466  -32.1381   23.7203 O   0  0  0  0  0  0
  -29.1980  -19.8014   18.6482 C   0  0  0  0  0  0
  -29.5433  -18.5046   20.6660 C   0  0  0  0  0  0
  -29.6230  -17.3753   18.4923 C   0  0  0  0  0  0
  -29.2959  -19.8143   20.0557 C   0  0  0  0  0  0
  -29.3779  -18.6384   17.8871 C   0  0  0  0  0  0
  -29.7206  -17.2544   19.9213 C   0  0  0  0  0  0
  -28.9177  -23.9121   22.2124 C   0  0  0  0  0  0
  -28.7929  -23.6895   20.8801 C   0  0  0  0  0  0
  -29.5023  -23.0182   23.2391 C   0  0  0  0  0  0
  -29.3123  -22.4121   20.2352 C   0  0  0  0  0  0
  -29.3555  -21.4970   23.1597 C   0  0  0  0  0  0
  -28.3916  -21.0272   22.0641 C   0  0  0  0  0  0
  -30.8011  -15.3983   15.3890 C   0  0  0  0  0  0
  -29.6426  -16.1660   17.5566 C   0  0  0  0  0  0
  -28.1373  -24.8374   19.9827 C   0  0  0  0  0  0
  -30.9797  -15.9784   16.8013 C   0  0  0  0  0  0
  -29.0262  -21.1254   20.7492 N   0  0  0  0  0  0
  -29.2573  -18.7786   16.5014 N   0  0  0  0  0  0
  -29.7671  -15.8999   20.5691 N   0  0  0  0  0  0
  -30.1161  -23.4820   24.2020 O   0  0  0  0  0  0
  -30.0486  -22.5256   19.2520 O   0  0  0  0  0  0
  -31.4829  -12.5918   19.1627 H   0  0  0  0  0  0
  -30.4365  -11.4907   20.0184 H   0  0  0  0  0  0
  -29.7942  -11.5443   17.6459 H   0  0  0  0  0  0
  -29.7125  -13.2628   17.6071 H   0  0  0  0  0  0
  -27.8571  -11.2754   18.9158 H   0  0  0  0  0  0
  -27.4071  -12.5316   17.7906 H   0  0  0  0  0  0
  -27.6495  -14.2442   19.4680 H   0  0  0  0  0  0
  -28.7387  -12.2007   21.4642 H   0  0  0  0  0  0
  -28.4302  -13.8898   21.7710 H   0  0  0  0  0  0
  -25.2765   -9.5715   22.4777 H   0  0  0  0  0  0
  -24.0035   -7.4693   22.7539 H   0  0  0  0  0  0
  -21.0833   -8.8699   19.9029 H   0  0  0  0  0  0
  -22.3622  -10.9659   19.6176 H   0  0  0  0  0  0
  -21.1939   -7.6180   23.9724 H   0  0  0  0  0  0
  -21.1494   -6.0570   25.9092 H   0  0  0  0  0  0
  -22.0608   -2.7663   23.2792 H   0  0  0  0  0  0
  -22.3864  -12.0049   22.4846 H   0  0  0  0  0  0
  -21.0995  -13.1510   22.2525 H   0  0  0  0  0  0
  -24.6125  -15.7935   20.4193 H   0  0  0  0  0  0
  -26.1988  -15.5891   19.8806 H   0  0  0  0  0  0
  -26.7204  -32.5396   23.1049 H   0  0  0  0  0  0
  -25.0152  -33.9697   25.0403 H   0  0  0  0  0  0
  -22.7311  -31.2963   21.3824 H   0  0  0  0  0  0
  -23.3752  -35.9592   23.3291 H   0  0  0  0  0  0
  -24.3591  -36.8896   22.2064 H   0  0  0  0  0  0
  -23.7237  -37.6446   23.6688 H   0  0  0  0  0  0
  -26.1092  -31.5171   20.6060 H   0  0  0  0  0  0
  -26.8567  -30.8203   22.0094 H   0  0  0  0  0  0
  -28.1013  -28.8770   21.2892 H   0  0  0  0  0  0
  -25.9611  -25.9263   18.9448 H   0  0  0  0  0  0
  -24.0079  -27.3214   18.9495 H   0  0  0  0  0  0
  -23.7708  -30.5758   19.3911 H   0  0  0  0  0  0
  -22.7765  -29.2274   19.8502 H   0  0  0  0  0  0
  -25.1324  -36.1875   25.0805 H   0  0  0  0  0  0
  -21.0002  -28.3251   24.1382 H   0  0  0  0  0  0
  -20.5667  -26.2274   23.3617 H   0  0  0  0  0  0
  -21.6633  -26.7417   22.1200 H   0  0  0  0  0  0
  -19.6895  -25.6260   21.1270 H   0  0  0  0  0  0
  -19.6726  -27.3141   20.6744 H   0  0  0  0  0  0
  -17.4218  -26.6715   21.3991 H   0  0  0  0  0  0
  -18.0292  -26.0084   22.9002 H   0  0  0  0  0  0
  -19.7947  -30.7313   24.2188 H   0  0  0  0  0  0
  -17.5011  -31.6284   24.5132 H   0  0  0  0  0  0
  -15.5341  -30.2952   23.7718 H   0  0  0  0  0  0
  -15.8673  -28.0829   22.7037 H   0  0  0  0  0  0
  -24.5838  -30.7171   25.7671 H   0  0  0  0  0  0
  -24.8929  -32.2956   26.4793 H   0  0  0  0  0  0
  -25.7941  -30.8915   27.0170 H   0  0  0  0  0  0
  -26.3035  -29.6711   24.1200 H   0  0  0  0  0  0
  -27.4049  -29.7313   25.4776 H   0  0  0  0  0  0
  -27.8903  -30.4294   23.9513 H   0  0  0  0  0  0
  -27.2598  -33.3623   26.2087 H   0  0  0  0  0  0
  -28.3866  -32.6914   25.0370 H   0  0  0  0  0  0
  -28.0663  -31.8456   26.5442 H   0  0  0  0  0  0
  -28.2562  -38.0123   24.7502 H   0  0  0  0  0  0
  -28.1094  -36.2630   24.6282 H   0  0  0  0  0  0
  -27.2277  -37.1421   25.8863 H   0  0  0  0  0  0
  -20.9355  -29.8802   21.6919 H   0  0  0  0  0  0
  -26.0143  -38.2804   24.1425 H   0  0  0  0  0  0
  -28.9336  -20.7072   18.1228 H   0  0  0  0  0  0
  -29.5718  -18.4495   21.7445 H   0  0  0  0  0  0
  -28.5543  -24.8515   22.5963 H   0  0  0  0  0  0
  -29.0068  -21.1380   24.1292 H   0  0  0  0  0  0
  -30.3411  -21.0560   23.0124 H   0  0  0  0  0  0
  -27.4594  -21.5962   22.0797 H   0  0  0  0  0  0
  -28.0769  -20.0066   22.2759 H   0  0  0  0  0  0
  -31.7168  -15.5233   14.8073 H   0  0  0  0  0  0
  -30.0043  -15.9127   14.8471 H   0  0  0  0  0  0
  -30.5610  -14.3365   15.4115 H   0  0  0  0  0  0
  -28.8327  -16.2961   16.8375 H   0  0  0  0  0  0
  -29.3346  -15.2701   18.0745 H   0  0  0  0  0  0
  -27.0881  -24.5507   19.9833 H   0  0  0  0  0  0
  -28.4826  -24.6993   18.9581 H   0  0  0  0  0  0
  -31.4682  -16.9440   16.6745 H   0  0  0  0  0  0
  -31.6725  -15.3719   17.3858 H   0  0  0  0  0  0
  -29.0605  -19.6704   16.0602 H   0  0  0  0  0  0
  -29.4131  -18.0034   15.8661 H   0  0  0  0  0  0
  -28.8831  -15.6442   20.9853 H   0  0  0  0  0  0
  1 25  1  0  0  0
  1 30  2  0  0  0
  1 89  1  0  0  0
  2  3  1  0  0  0
  2 25  1  0  0  0
  2 92  1  0  0  0
  2 93  1  0  0  0
  3  4  1  0  0  0
  3 94  1  0  0  0
  3 95  1  0  0  0
  4  5  1  0  0  0
  4 96  1  0  0  0
  4 97  1  0  0  0
  5  6  1  0  0  0
  5 26  1  0  0  0
  5 98  1  0  0  0
  6 25  1  0  0  0
  6 99  1  0  0  0
  6100  1  0  0  0
  7  8  2  0  0  0
  7 26  1  0  0  0
  7 29  1  0  0  0
  8  9  1  0  0  0
  8 22  1  0  0  0
  9 10  1  0  0  0
  9 27  2  0  0  0
 10 11  2  0  0  0
 10 15  1  0  0  0
 11 12  1  0  0  0
 11101  1  0  0  0
 12 13  2  0  0  0
 12102  1  0  0  0
 13 14  1  0  0  0
 13 31  1  0  0  0
 14 15  2  0  0  0
 14103  1  0  0  0
 15104  1  0  0  0
 16 17  2  0  0  0
 16 21  1  0  0  0
 16 31  1  0  0  0
 17 18  1  0  0  0
 17105  1  0  0  0
 18 19  2  0  0  0
 18106  1  0  0  0
 19 20  1  0  0  0
 19 24  1  0  0  0
 20 21  2  0  0  0
 20107  1  0  0  0
 21 23  1  0  0  0
 22 28  1  0  0  0
 22 32  2  0  0  0
 26 27  1  0  0  0
 28108  1  0  0  0
 28109  1  0  0  0
 29110  1  0  0  0
 29111  1  0  0  0
 33 34  1  0  0  0
 33 66  1  0  0  0
 33 70  2  0  0  0
 34 36  1  0  0  0
 34 59  1  0  0  0
 34112  1  0  0  0
 35 44  2  0  0  0
 35 45  1  0  0  0
 35 68  1  0  0  0
 36 56  1  0  0  0
 36113  1  0  0  0
 37 39  1  0  0  0
 37 47  1  0  0  0
 37 66  1  0  0  0
 37114  1  0  0  0
 38 43  2  0  0  0
 38 46  1  0  0  0
 38 47  1  0  0  0
 39 64  1  0  0  0
 39 67  2  0  0  0
 40 52  1  0  0  0
 40 53  2  0  0  0
 40 58  1  0  0  0
 41115  1  0  0  0
 41116  1  0  0  0
 41117  1  0  0  0
 41 48  1  0  0  0
 42 43  1  0  0  0
 42 66  1  0  0  0
 42118  1  0  0  0
 42119  1  0  0  0
 43 44  1  0  0  0
 44120  1  0  0  0
 45 46  2  0  0  0
 45121  1  0  0  0
 46122  1  0  0  0
 47123  1  0  0  0
 47124  1  0  0  0
 48 56  1  0  0  0
 48 65  1  0  0  0
 48125  1  0  0  0
 49 50  1  0  0  0
 49 53  1  0  0  0
 49 64  1  0  0  0
 49126  1  0  0  0
 50 51  1  0  0  0
 50127  1  0  0  0
 50128  1  0  0  0
 51 52  1  0  0  0
 51129  1  0  0  0
 51130  1  0  0  0
 52131  1  0  0  0
 52132  1  0  0  0
 53 54  1  0  0  0
 54 55  2  0  0  0
 54133  1  0  0  0
 55 57  1  0  0  0
 55134  1  0  0  0
 56 69  2  0  0  0
 57 58  2  0  0  0
 57135  1  0  0  0
 58136  1  0  0  0
 59 60  1  0  0  0
 59 61  1  0  0  0
 59 62  1  0  0  0
 60137  1  0  0  0
 60138  1  0  0  0
 60139  1  0  0  0
 61140  1  0  0  0
 61141  1  0  0  0
 61142  1  0  0  0
 62143  1  0  0  0
 62144  1  0  0  0
 62145  1  0  0  0
 63 65  1  0  0  0
 63146  1  0  0  0
 63147  1  0  0  0
 63148  1  0  0  0
 64149  1  0  0  0
 65150  1  0  0  0
 68 85  1  0  0  0
 71 74  2  0  0  0
 71 75  1  0  0  0
 71151  1  0  0  0
 72 74  1  0  0  0
 72 76  2  0  0  0
 72152  1  0  0  0
 73 75  2  0  0  0
 73 76  1  0  0  0
 73 84  1  0  0  0
 74 87  1  0  0  0
 75 88  1  0  0  0
 76 89  1  0  0  0
 77 78  2  0  0  0
 77 79  1  0  0  0
 77153  1  0  0  0
 78 80  1  0  0  0
 78 85  1  0  0  0
 79 81  1  0  0  0
 79 90  2  0  0  0
 80 87  1  0  0  0
 80 91  2  0  0  0
 81 82  1  0  0  0
 81154  1  0  0  0
 81155  1  0  0  0
 82 87  1  0  0  0
 82156  1  0  0  0
 82157  1  0  0  0
 83 86  1  0  0  0
 83158  1  0  0  0
 83159  1  0  0  0
 83160  1  0  0  0
 84 86  1  0  0  0
 84161  1  0  0  0
 84162  1  0  0  0
 85163  1  0  0  0
 85164  1  0  0  0
 86165  1  0  0  0
 86166  1  0  0  0
 88167  1  0  0  0
 88168  1  0  0  0
 89169  1  0  0  0
M  ISO  4   1 100  68 101  85 101  89 100
M  END
> <chiral flag>
0

> <version>
0

> <s_m_source_file>
/data/baiqing/PycharmProjects/Reinvent-master-3.2/result/LINK_invent/BTK/process_docking_weight1_custom_product_contain_oxygen_bond_distance_aromatic_linkinvent_7_9_3/rearranged_h_0112.sdf

> <i_m_source_file_index>
2

> <r_mmod_Potential_Energy-OPLS-2005>
307.839752197266

> <r_mmod_Stretch_Energy-OPLS-2005>
157.633346557617

> <r_mmod_Bend_Energy-OPLS-2005>
204.285720825195

> <r_mmod_Torsional_Energy-OPLS-2005>
309.016418457031

> <r_mmod_Improper_Torsional_Energy-OPLS-2005>
8.59930038452148

> <r_mmod_Van_der_Waal_Energy-OPLS-2005>
166.270462036133

> <r_mmod_Electrostatic_Energy-OPLS-2005>
-405.299163818359

> <r_mmod_Solvation_Energy-OPLS-2005>
-244.985443115234

> <b_mmod_Minimization_Converged-OPLS-2005>
0

> <r_mmod_RMS_Derivative-OPLS-2005>
5.71446561813354

$$$$
2
                    3D
 Structure written by MMmdl.
150158  0  0  1  0            999 V2000
  -30.5086  -15.0546   20.4123 C   0  0  0  0  0  0
  -30.4530  -12.6569   19.5159 C   0  0  0  0  0  0
  -29.5331  -12.5505   18.2727 C   0  0  0  0  0  0
  -28.0708  -12.3043   18.6892 C   0  0  0  0  0  0
  -27.6309  -13.2431   19.8396 C   0  0  2  0  0  0
  -28.6742  -13.2902   20.9774 C   0  0  0  0  0  0
  -25.2496  -13.8195   20.5732 C   0  0  0  0  0  0
  -24.1775  -13.0420   20.9161 C   0  0  0  0  0  0
  -24.6390  -11.6909   20.8707 C   0  0  0  0  0  0
  -23.9078  -10.4296   21.0395 C   0  0  0  0  0  0
  -24.3632   -9.4217   21.9170 C   0  0  0  0  0  0
  -23.6300   -8.2256   22.0752 C   0  0  0  0  0  0
  -22.4285   -8.0284   21.3539 C   0  0  0  0  0  0
  -21.9921   -9.0258   20.4640 C   0  0  0  0  0  0
  -22.7254  -10.2134   20.3045 C   0  0  0  0  0  0
  -21.6861   -6.0747   22.5283 C   0  0  0  0  0  0
  -21.4013   -6.5642   23.8217 C   0  0  0  0  0  0
  -21.3661   -5.6791   24.9176 C   0  0  0  0  0  0
  -21.6051   -4.3053   24.7222 C   0  0  0  0  0  0
  -21.8822   -3.8146   23.4343 C   0  0  0  0  0  0
  -21.9194   -4.6972   22.3406 C   0  0  0  0  0  0
  -22.7808  -13.5202   21.1846 C   0  0  0  0  0  0
  -22.1658   -4.2159   21.0981 F   0  0  0  0  0  0
  -21.5641   -3.4532   25.7732 F   0  0  0  0  0  0
  -29.9410  -13.7618   20.3905 N   0  0  0  0  0  0
  -26.2909  -12.9406   20.3273 N   0  0  0  0  0  0
  -25.9326  -11.6544   20.5722 N   0  0  0  0  0  0
  -22.0467  -12.8183   22.0417 N   0  0  0  0  0  0
  -25.4294  -15.1907   20.4330 N   0  0  0  0  0  0
  -31.7126  -15.1025   20.1291 O   0  0  0  0  0  0
  -21.6639   -6.8887   21.4246 O   0  0  0  0  0  0
  -22.3485  -14.5514   20.6725 O   0  0  0  0  0  0
  -24.6489  -31.8383   23.1856 C   0  0  0  0  0  0
  -25.9238  -32.4676   23.8261 C   0  0  1  0  0  0
  -27.2327  -27.0867   20.1598 C   0  0  0  0  0  0
  -25.5960  -33.8486   24.2168 N   0  0  0  0  0  0
  -23.4582  -30.4548   21.5305 C   0  0  2  0  0  0
  -24.9121  -28.8709   20.1163 C   0  0  0  0  0  0
  -22.7601  -29.4514   22.4832 C   0  0  0  0  0  0
  -18.0304  -28.1413   22.8479 C   0  0  0  0  0  0
  -24.1477  -36.7223   23.2651 C   0  0  0  0  0  0
  -26.0192  -30.6938   21.3967 C   0  0  0  0  0  0
  -26.0927  -29.3017   20.7342 C   0  0  0  0  0  0
  -27.2524  -28.4293   20.7355 C   0  0  0  0  0  0
  -26.0214  -26.7695   19.5023 C   0  0  0  0  0  0
  -24.8933  -27.6188   19.4845 C   0  0  0  0  0  0
  -23.6904  -29.7781   20.1542 C   0  0  0  0  0  0
  -25.4127  -36.3019   24.0309 C   0  0  1  0  0  0
  -20.5915  -28.3737   23.1207 C   0  0  2  0  0  0
  -20.6780  -26.9433   22.5394 C   0  0  0  0  0  0
  -19.5751  -26.6382   21.5213 C   0  0  0  0  0  0
  -18.1930  -26.7959   22.1611 C   0  0  0  0  0  0
  -19.1564  -28.8901   23.2829 C   0  0  0  0  0  0
  -18.9484  -30.1493   23.8864 C   0  0  0  0  0  0
  -17.6477  -30.6609   24.0571 C   0  0  0  0  0  0
  -25.9080  -34.9398   23.5048 C   0  0  0  0  0  0
  -16.5363  -29.9098   23.6360 C   0  0  0  0  0  0
  -16.7287  -28.6513   23.0394 C   0  0  0  0  0  0
  -26.4557  -31.6592   25.0734 C   0  0  0  0  0  0
  -25.3726  -31.3771   26.1408 C   0  0  0  0  0  0
  -27.0493  -30.3000   24.6381 C   0  0  0  0  0  0
  -27.6036  -32.4422   25.7537 C   0  0  0  0  0  0
  -27.5572  -37.1758   24.8470 C   0  0  0  0  0  0
  -21.4282  -29.3050   22.3576 N   0  0  0  0  0  0
  -26.4281  -37.3745   23.9419 N   0  0  0  0  0  0
  -24.7286  -31.0191   22.0911 N   0  0  0  0  0  0
  -23.4214  -28.8070   23.3020 O   0  0  0  0  0  0
  -28.2740  -26.0687   20.2338 O   0  0  0  0  0  0
  -26.5664  -34.8900   22.4626 O   0  0  0  0  0  0
  -23.5583  -32.1279   23.7026 O   0  0  0  0  0  0
  -30.9048  -20.2215   20.6835 C   0  0  0  0  0  0
  -31.1677  -18.7913   20.7753 C   0  0  0  0  0  0
  -29.5776  -20.4746   20.4271 C   0  0  0  0  0  0
  -30.0317  -18.0312   20.5489 C   0  0  0  0  0  0
  -33.5510  -18.9748   21.5213 C   0  0  0  0  0  0
  -32.4821  -18.2467   21.1530 C   0  0  0  0  0  0
  -28.7687  -21.8064   20.2649 C   0  0  0  0  0  0
  -28.9834  -23.2286   20.3023 C   0  0  0  0  0  0
  -29.5823  -16.4868   20.5871 C   0  0  0  0  0  0
  -27.9582  -24.5286   20.0772 C   0  0  0  0  0  0
  -28.3330  -16.3552   20.7492 N   0  0  0  0  0  0
  -29.0456  -19.1105   20.3532 O   0  0  0  0  0  0
  -31.4814  -12.8303   19.1962 H   0  0  0  0  0  0
  -30.4714  -11.7098   20.0580 H   0  0  0  0  0  0
  -29.8755  -11.7529   17.6114 H   0  0  0  0  0  0
  -29.5992  -13.4756   17.6977 H   0  0  0  0  0  0
  -27.9902  -11.2658   19.0130 H   0  0  0  0  0  0
  -27.4034  -12.4091   17.8334 H   0  0  0  0  0  0
  -27.5823  -14.2343   19.3907 H   0  0  0  0  0  0
  -28.7921  -12.3053   21.4331 H   0  0  0  0  0  0
  -28.3485  -13.9507   21.7813 H   0  0  0  0  0  0
  -25.2788   -9.5699   22.4725 H   0  0  0  0  0  0
  -24.0018   -7.4658   22.7475 H   0  0  0  0  0  0
  -21.0858   -8.8782   19.8934 H   0  0  0  0  0  0
  -22.3718  -10.9675   19.6143 H   0  0  0  0  0  0
  -21.1989   -7.6144   23.9716 H   0  0  0  0  0  0
  -21.1479   -6.0518   25.9081 H   0  0  0  0  0  0
  -22.0594   -2.7607   23.2842 H   0  0  0  0  0  0
  -22.4102  -11.9843   22.4788 H   0  0  0  0  0  0
  -21.1086  -13.1199   22.2653 H   0  0  0  0  0  0
  -24.7003  -15.8654   20.6316 H   0  0  0  0  0  0
  -26.3571  -15.6057   20.3571 H   0  0  0  0  0  0
  -26.7295  -32.5260   23.0975 H   0  0  0  0  0  0
  -25.0134  -33.9613   25.0333 H   0  0  0  0  0  0
  -22.7619  -31.2811   21.3694 H   0  0  0  0  0  0
  -23.3770  -35.9518   23.3299 H   0  0  0  0  0  0
  -24.3541  -36.8886   22.2063 H   0  0  0  0  0  0
  -23.7194  -37.6388   23.6715 H   0  0  0  0  0  0
  -26.1931  -31.4462   20.6269 H   0  0  0  0  0  0
  -26.8822  -30.7387   22.0503 H   0  0  0  0  0  0
  -28.1500  -28.7560   21.2423 H   0  0  0  0  0  0
  -25.9059  -25.8141   19.0143 H   0  0  0  0  0  0
  -23.9912  -27.2791   18.9945 H   0  0  0  0  0  0
  -23.8326  -30.5492   19.3961 H   0  0  0  0  0  0
  -22.8046  -29.2200   19.8449 H   0  0  0  0  0  0
  -25.1320  -36.1834   25.0801 H   0  0  0  0  0  0
  -21.0010  -28.3347   24.1331 H   0  0  0  0  0  0
  -20.5681  -26.2358   23.3628 H   0  0  0  0  0  0
  -21.6642  -26.7436   22.1191 H   0  0  0  0  0  0
  -19.6910  -25.6292   21.1266 H   0  0  0  0  0  0
  -19.6701  -27.3172   20.6731 H   0  0  0  0  0  0
  -17.4212  -26.6731   21.4007 H   0  0  0  0  0  0
  -18.0294  -26.0108   22.8999 H   0  0  0  0  0  0
  -19.7960  -30.7314   24.2214 H   0  0  0  0  0  0
  -17.5042  -31.6299   24.5165 H   0  0  0  0  0  0
  -15.5368  -30.2998   23.7727 H   0  0  0  0  0  0
  -15.8677  -28.0825   22.7154 H   0  0  0  0  0  0
  -24.5908  -30.7133   25.7714 H   0  0  0  0  0  0
  -24.8911  -32.2946   26.4789 H   0  0  0  0  0  0
  -25.7989  -30.8966   27.0223 H   0  0  0  0  0  0
  -26.3180  -29.6665   24.1348 H   0  0  0  0  0  0
  -27.4075  -29.7356   25.5000 H   0  0  0  0  0  0
  -27.9079  -30.4275   23.9787 H   0  0  0  0  0  0
  -27.2589  -33.3764   26.1995 H   0  0  0  0  0  0
  -28.3901  -32.6938   25.0410 H   0  0  0  0  0  0
  -28.0652  -31.8647   26.5557 H   0  0  0  0  0  0
  -28.2569  -38.0075   24.7562 H   0  0  0  0  0  0
  -28.1091  -36.2605   24.6269 H   0  0  0  0  0  0
  -27.2276  -37.1368   25.8866 H   0  0  0  0  0  0
  -20.9508  -29.8753   21.6736 H   0  0  0  0  0  0
  -26.0139  -38.2799   24.1469 H   0  0  0  0  0  0
  -31.6304  -21.0092   20.8260 H   0  0  0  0  0  0
  -34.4803  -18.4876   21.7838 H   0  0  0  0  0  0
  -33.5343  -20.0538   21.5759 H   0  0  0  0  0  0
  -32.5945  -17.1752   21.1317 H   0  0  0  0  0  0
  -27.7344  -21.5726   20.0567 H   0  0  0  0  0  0
  -29.9984  -23.5425   20.4963 H   0  0  0  0  0  0
  -27.0926  -24.3262   20.7099 H   0  0  0  0  0  0
  -27.6015  -24.4065   19.0551 H   0  0  0  0  0  0
  -27.9186  -17.2766   20.8453 H   0  0  0  0  0  0
  1 25  1  0  0  0
  1 30  2  0  0  0
  1 79  1  0  0  0
  2  3  1  0  0  0
  2 25  1  0  0  0
  2 83  1  0  0  0
  2 84  1  0  0  0
  3  4  1  0  0  0
  3 85  1  0  0  0
  3 86  1  0  0  0
  4  5  1  0  0  0
  4 87  1  0  0  0
  4 88  1  0  0  0
  5  6  1  0  0  0
  5 26  1  0  0  0
  5 89  1  0  0  0
  6 25  1  0  0  0
  6 90  1  0  0  0
  6 91  1  0  0  0
  7  8  2  0  0  0
  7 26  1  0  0  0
  7 29  1  0  0  0
  8  9  1  0  0  0
  8 22  1  0  0  0
  9 10  1  0  0  0
  9 27  2  0  0  0
 10 11  2  0  0  0
 10 15  1  0  0  0
 11 12  1  0  0  0
 11 92  1  0  0  0
 12 13  2  0  0  0
 12 93  1  0  0  0
 13 14  1  0  0  0
 13 31  1  0  0  0
 14 15  2  0  0  0
 14 94  1  0  0  0
 15 95  1  0  0  0
 16 17  2  0  0  0
 16 21  1  0  0  0
 16 31  1  0  0  0
 17 18  1  0  0  0
 17 96  1  0  0  0
 18 19  2  0  0  0
 18 97  1  0  0  0
 19 20  1  0  0  0
 19 24  1  0  0  0
 20 21  2  0  0  0
 20 98  1  0  0  0
 21 23  1  0  0  0
 22 28  1  0  0  0
 22 32  2  0  0  0
 26 27  1  0  0  0
 28 99  1  0  0  0
 28100  1  0  0  0
 29101  1  0  0  0
 29102  1  0  0  0
 33 34  1  0  0  0
 33 66  1  0  0  0
 33 70  2  0  0  0
 34 36  1  0  0  0
 34 59  1  0  0  0
 34103  1  0  0  0
 35 44  2  0  0  0
 35 45  1  0  0  0
 35 68  1  0  0  0
 36 56  1  0  0  0
 36104  1  0  0  0
 37 39  1  0  0  0
 37 47  1  0  0  0
 37 66  1  0  0  0
 37105  1  0  0  0
 38 43  2  0  0  0
 38 46  1  0  0  0
 38 47  1  0  0  0
 39 64  1  0  0  0
 39 67  2  0  0  0
 40 52  1  0  0  0
 40 53  2  0  0  0
 40 58  1  0  0  0
 41106  1  0  0  0
 41107  1  0  0  0
 41108  1  0  0  0
 41 48  1  0  0  0
 42 43  1  0  0  0
 42 66  1  0  0  0
 42109  1  0  0  0
 42110  1  0  0  0
 43 44  1  0  0  0
 44111  1  0  0  0
 45 46  2  0  0  0
 45112  1  0  0  0
 46113  1  0  0  0
 47114  1  0  0  0
 47115  1  0  0  0
 48 56  1  0  0  0
 48 65  1  0  0  0
 48116  1  0  0  0
 49 50  1  0  0  0
 49 53  1  0  0  0
 49 64  1  0  0  0
 49117  1  0  0  0
 50 51  1  0  0  0
 50118  1  0  0  0
 50119  1  0  0  0
 51 52  1  0  0  0
 51120  1  0  0  0
 51121  1  0  0  0
 52122  1  0  0  0
 52123  1  0  0  0
 53 54  1  0  0  0
 54 55  2  0  0  0
 54124  1  0  0  0
 55 57  1  0  0  0
 55125  1  0  0  0
 56 69  2  0  0  0
 57 58  2  0  0  0
 57126  1  0  0  0
 58127  1  0  0  0
 59 60  1  0  0  0
 59 61  1  0  0  0
 59 62  1  0  0  0
 60128  1  0  0  0
 60129  1  0  0  0
 60130  1  0  0  0
 61131  1  0  0  0
 61132  1  0  0  0
 61133  1  0  0  0
 62134  1  0  0  0
 62135  1  0  0  0
 62136  1  0  0  0
 63 65  1  0  0  0
 63137  1  0  0  0
 63138  1  0  0  0
 63139  1  0  0  0
 64140  1  0  0  0
 65141  1  0  0  0
 68 80  1  0  0  0
 71 72  1  0  0  0
 71 73  2  0  0  0
 71142  1  0  0  0
 72 74  2  0  0  0
 72 76  1  0  0  0
 73 77  1  0  0  0
 73 82  1  0  0  0
 74 79  1  0  0  0
 74 82  1  0  0  0
 75 76  2  0  0  0
 75143  1  0  0  0
 75144  1  0  0  0
 76145  1  0  0  0
 77 78  2  0  0  0
 77146  1  0  0  0
 78 80  1  0  0  0
 78147  1  0  0  0
 79 81  2  0  0  0
 80148  1  0  0  0
 80149  1  0  0  0
 81150  1  0  0  0
M  ISO  4   1 100  68 101  79 100  80 101
M  END
> <chiral flag>
0

> <version>
0

> <s_m_source_file>
/data/baiqing/PycharmProjects/Reinvent-master-3.2/result/LINK_invent/BTK/process_docking_weight1_custom_product_contain_oxygen_bond_distance_aromatic_linkinvent_7_9_3/rearranged_h_0112.sdf

> <i_m_source_file_index>
3

> <r_mmod_Potential_Energy-OPLS-2005>
767.384033203125

> <r_mmod_Stretch_Energy-OPLS-2005>
339.791595458984

> <r_mmod_Bend_Energy-OPLS-2005>
284.435394287109

> <r_mmod_Torsional_Energy-OPLS-2005>
191.951934814453

> <r_mmod_Improper_Torsional_Energy-OPLS-2005>
4.86999273300171

> <r_mmod_Van_der_Waal_Energy-OPLS-2005>
119.17440032959

> <r_mmod_Electrostatic_Energy-OPLS-2005>
-234.775955200195

> <r_mmod_Solvation_Energy-OPLS-2005>
-191.279235839844

> <b_mmod_Minimization_Converged-OPLS-2005>
0

> <r_mmod_RMS_Derivative-OPLS-2005>
2.4803307056427

$$$$
3
                    3D
 Structure written by MMmdl.
152160  0  0  1  0            999 V2000
  -30.4816  -15.0432   20.4035 C   0  0  0  0  0  0
  -30.4496  -12.6400   19.5208 C   0  0  0  0  0  0
  -29.5366  -12.5475   18.2732 C   0  0  0  0  0  0
  -28.0700  -12.3164   18.6831 C   0  0  0  0  0  0
  -27.6287  -13.2573   19.8333 C   0  0  2  0  0  0
  -28.6644  -13.3178   20.9740 C   0  0  0  0  0  0
  -25.2464  -13.8223   20.5718 C   0  0  0  0  0  0
  -24.1780  -13.0435   20.9207 C   0  0  0  0  0  0
  -24.6406  -11.6925   20.8729 C   0  0  0  0  0  0
  -23.9089  -10.4294   21.0392 C   0  0  0  0  0  0
  -24.3636   -9.4209   21.9174 C   0  0  0  0  0  0
  -23.6303   -8.2247   22.0752 C   0  0  0  0  0  0
  -22.4282   -8.0286   21.3545 C   0  0  0  0  0  0
  -21.9918   -9.0260   20.4646 C   0  0  0  0  0  0
  -22.7253  -10.2136   20.3048 C   0  0  0  0  0  0
  -21.6858   -6.0736   22.5276 C   0  0  0  0  0  0
  -21.4022   -6.5635   23.8210 C   0  0  0  0  0  0
  -21.3662   -5.6790   24.9173 C   0  0  0  0  0  0
  -21.6041   -4.3053   24.7220 C   0  0  0  0  0  0
  -21.8819   -3.8143   23.4342 C   0  0  0  0  0  0
  -21.9195   -4.6963   22.3398 C   0  0  0  0  0  0
  -22.7801  -13.5203   21.1866 C   0  0  0  0  0  0
  -22.1661   -4.2146   21.0975 F   0  0  0  0  0  0
  -21.5624   -3.4538   25.7735 F   0  0  0  0  0  0
  -29.9421  -13.7462   20.3909 N   0  0  0  0  0  0
  -26.2888  -12.9470   20.3214 N   0  0  0  0  0  0
  -25.9343  -11.6587   20.5695 N   0  0  0  0  0  0
  -22.0463  -12.8197   22.0435 N   0  0  0  0  0  0
  -25.4138  -15.1958   20.4205 N   0  0  0  0  0  0
  -31.6836  -15.0997   20.0973 O   0  0  0  0  0  0
  -21.6642   -6.8884   21.4243 O   0  0  0  0  0  0
  -22.3471  -14.5499   20.6707 O   0  0  0  0  0  0
  -24.6492  -31.8376   23.1831 C   0  0  0  0  0  0
  -25.9238  -32.4660   23.8248 C   0  0  1  0  0  0
  -27.2188  -27.0679   20.1694 C   0  0  0  0  0  0
  -25.5964  -33.8466   24.2163 N   0  0  0  0  0  0
  -23.4573  -30.4539   21.5293 C   0  0  2  0  0  0
  -24.9093  -28.8657   20.1140 C   0  0  0  0  0  0
  -22.7600  -29.4509   22.4833 C   0  0  0  0  0  0
  -18.0312  -28.1392   22.8470 C   0  0  0  0  0  0
  -24.1495  -36.7240   23.2641 C   0  0  0  0  0  0
  -26.0173  -30.6880   21.3944 C   0  0  0  0  0  0
  -26.0877  -29.2905   20.7419 C   0  0  0  0  0  0
  -27.2414  -28.4080   20.7524 C   0  0  0  0  0  0
  -26.0171  -26.7629   19.4945 C   0  0  0  0  0  0
  -24.8896  -27.6165   19.4746 C   0  0  0  0  0  0
  -23.6902  -29.7779   20.1509 C   0  0  0  0  0  0
  -25.4125  -36.3010   24.0313 C   0  0  1  0  0  0
  -20.5930  -28.3727   23.1215 C   0  0  2  0  0  0
  -20.6790  -26.9422   22.5396 C   0  0  0  0  0  0
  -19.5762  -26.6376   21.5204 C   0  0  0  0  0  0
  -18.1951  -26.7924   22.1633 C   0  0  0  0  0  0
  -19.1569  -28.8880   23.2836 C   0  0  0  0  0  0
  -18.9486  -30.1476   23.8865 C   0  0  0  0  0  0
  -17.6478  -30.6586   24.0550 C   0  0  0  0  0  0
  -25.9076  -34.9385   23.5047 C   0  0  0  0  0  0
  -16.5371  -29.9073   23.6330 C   0  0  0  0  0  0
  -16.7294  -28.6492   23.0351 C   0  0  0  0  0  0
  -26.4539  -31.6548   25.0714 C   0  0  0  0  0  0
  -25.3715  -31.3788   26.1412 C   0  0  0  0  0  0
  -27.0383  -30.2919   24.6353 C   0  0  0  0  0  0
  -27.6076  -32.4313   25.7491 C   0  0  0  0  0  0
  -27.5582  -37.1771   24.8461 C   0  0  0  0  0  0
  -21.4284  -29.3044   22.3581 N   0  0  0  0  0  0
  -26.4286  -37.3729   23.9415 N   0  0  0  0  0  0
  -24.7279  -31.0167   22.0904 N   0  0  0  0  0  0
  -23.4207  -28.8056   23.3014 O   0  0  0  0  0  0
  -28.2551  -26.0416   20.1985 O   0  0  0  0  0  0
  -26.5666  -34.8892   22.4631 O   0  0  0  0  0  0
  -23.5593  -32.1288   23.7003 O   0  0  0  0  0  0
  -30.4206  -20.3236   19.8629 C   0  0  0  0  0  0
  -28.6906  -19.2238   20.7278 C   0  0  0  0  0  0
  -29.1710  -20.5989   20.3633 C   0  0  0  0  0  0
  -29.6167  -18.1601   20.4527 C   0  0  0  0  0  0
  -28.7858  -23.3967   20.2524 C   0  0  0  0  0  0
  -27.9882  -24.5884   20.3835 C   0  0  0  0  0  0
  -27.4355  -18.4316   22.7756 C   0  0  0  0  0  0
  -27.3358  -18.9632   21.3402 C   0  0  0  0  0  0
  -29.5987  -16.4799   20.6572 C   0  0  0  0  0  0
  -30.6638  -18.9269   19.9193 N   0  0  0  0  0  0
  -28.4869  -21.9383   20.4887 N   0  0  0  0  0  0
  -31.4816  -12.8070   19.2106 H   0  0  0  0  0  0
  -30.4550  -11.6952   20.0665 H   0  0  0  0  0  0
  -29.8720  -11.7461   17.6137 H   0  0  0  0  0  0
  -29.6148  -13.4711   17.6980 H   0  0  0  0  0  0
  -27.9785  -11.2785   19.0039 H   0  0  0  0  0  0
  -27.4105  -12.4288   17.8216 H   0  0  0  0  0  0
  -27.5824  -14.2535   19.3917 H   0  0  0  0  0  0
  -28.7608  -12.3521   21.4718 H   0  0  0  0  0  0
  -28.3453  -14.0289   21.7377 H   0  0  0  0  0  0
  -25.2788   -9.5675   22.4745 H   0  0  0  0  0  0
  -24.0004   -7.4641   22.7477 H   0  0  0  0  0  0
  -21.0841   -8.8786   19.8964 H   0  0  0  0  0  0
  -22.3710  -10.9673   19.6154 H   0  0  0  0  0  0
  -21.2024   -7.6145   23.9710 H   0  0  0  0  0  0
  -21.1482   -6.0522   25.9075 H   0  0  0  0  0  0
  -22.0596   -2.7606   23.2843 H   0  0  0  0  0  0
  -22.4095  -11.9879   22.4839 H   0  0  0  0  0  0
  -21.1083  -13.1222   22.2640 H   0  0  0  0  0  0
  -24.6504  -15.8508   20.5475 H   0  0  0  0  0  0
  -26.2720  -15.6425   20.1248 H   0  0  0  0  0  0
  -26.7298  -32.5251   23.0964 H   0  0  0  0  0  0
  -25.0088  -33.9561   25.0298 H   0  0  0  0  0  0
  -22.7640  -31.2820   21.3688 H   0  0  0  0  0  0
  -23.3766  -35.9560   23.3263 H   0  0  0  0  0  0
  -24.3593  -36.8911   22.2063 H   0  0  0  0  0  0
  -23.7234  -37.6420   23.6700 H   0  0  0  0  0  0
  -26.1803  -31.4358   20.6169 H   0  0  0  0  0  0
  -26.8843  -30.7424   22.0411 H   0  0  0  0  0  0
  -28.1392  -28.7284   21.2618 H   0  0  0  0  0  0
  -25.9293  -25.8079   18.9962 H   0  0  0  0  0  0
  -23.9929  -27.2876   18.9679 H   0  0  0  0  0  0
  -23.8360  -30.5494   19.3936 H   0  0  0  0  0  0
  -22.8028  -29.2255   19.8370 H   0  0  0  0  0  0
  -25.1310  -36.1829   25.0801 H   0  0  0  0  0  0
  -21.0027  -28.3316   24.1332 H   0  0  0  0  0  0
  -20.5677  -26.2336   23.3619 H   0  0  0  0  0  0
  -21.6655  -26.7409   22.1200 H   0  0  0  0  0  0
  -19.6917  -25.6279   21.1254 H   0  0  0  0  0  0
  -19.6685  -27.3166   20.6716 H   0  0  0  0  0  0
  -17.4208  -26.6646   21.4055 H   0  0  0  0  0  0
  -18.0369  -26.0085   22.9054 H   0  0  0  0  0  0
  -19.7964  -30.7304   24.2216 H   0  0  0  0  0  0
  -17.5028  -31.6266   24.5157 H   0  0  0  0  0  0
  -15.5368  -30.2957   23.7675 H   0  0  0  0  0  0
  -15.8697  -28.0793   22.7086 H   0  0  0  0  0  0
  -24.5801  -30.7254   25.7720 H   0  0  0  0  0  0
  -24.9025  -32.3005   26.4869 H   0  0  0  0  0  0
  -25.7960  -30.8886   27.0181 H   0  0  0  0  0  0
  -26.2998  -29.6642   24.1350 H   0  0  0  0  0  0
  -27.3935  -29.7231   25.4959 H   0  0  0  0  0  0
  -27.8945  -30.4107   23.9707 H   0  0  0  0  0  0
  -27.2682  -33.3643   26.2000 H   0  0  0  0  0  0
  -28.3918  -32.6823   25.0335 H   0  0  0  0  0  0
  -28.0702  -31.8481   26.5465 H   0  0  0  0  0  0
  -28.2563  -38.0100   24.7536 H   0  0  0  0  0  0
  -28.1112  -36.2632   24.6243 H   0  0  0  0  0  0
  -27.2308  -37.1368   25.8864 H   0  0  0  0  0  0
  -20.9509  -29.8755   21.6747 H   0  0  0  0  0  0
  -26.0145  -38.2791   24.1434 H   0  0  0  0  0  0
  -31.1741  -20.9869   19.4589 H   0  0  0  0  0  0
  -29.8116  -23.5273   19.9330 H   0  0  0  0  0  0
  -26.9619  -24.4681   20.7023 H   0  0  0  0  0  0
  -26.4447  -18.2840   23.2057 H   0  0  0  0  0  0
  -27.9777  -19.1285   23.4153 H   0  0  0  0  0  0
  -27.9529  -17.4730   22.8104 H   0  0  0  0  0  0
  -26.8017  -18.2460   20.7161 H   0  0  0  0  0  0
  -26.7477  -19.8810   21.3257 H   0  0  0  0  0  0
  -29.6934  -16.4061   19.5733 H   0  0  0  0  0  0
  -30.3863  -16.5832   21.4034 H   0  0  0  0  0  0
  -31.5367  -18.5204   19.5955 H   0  0  0  0  0  0
  -27.5476  -21.8047   20.8533 H   0  0  0  0  0  0
  1 25  1  0  0  0
  1 30  2  0  0  0
  1 79  1  0  0  0
  2  3  1  0  0  0
  2 25  1  0  0  0
  2 82  1  0  0  0
  2 83  1  0  0  0
  3  4  1  0  0  0
  3 84  1  0  0  0
  3 85  1  0  0  0
  4  5  1  0  0  0
  4 86  1  0  0  0
  4 87  1  0  0  0
  5  6  1  0  0  0
  5 26  1  0  0  0
  5 88  1  0  0  0
  6 25  1  0  0  0
  6 89  1  0  0  0
  6 90  1  0  0  0
  7  8  2  0  0  0
  7 26  1  0  0  0
  7 29  1  0  0  0
  8  9  1  0  0  0
  8 22  1  0  0  0
  9 10  1  0  0  0
  9 27  2  0  0  0
 10 11  2  0  0  0
 10 15  1  0  0  0
 11 12  1  0  0  0
 11 91  1  0  0  0
 12 13  2  0  0  0
 12 92  1  0  0  0
 13 14  1  0  0  0
 13 31  1  0  0  0
 14 15  2  0  0  0
 14 93  1  0  0  0
 15 94  1  0  0  0
 16 17  2  0  0  0
 16 21  1  0  0  0
 16 31  1  0  0  0
 17 18  1  0  0  0
 17 95  1  0  0  0
 18 19  2  0  0  0
 18 96  1  0  0  0
 19 20  1  0  0  0
 19 24  1  0  0  0
 20 21  2  0  0  0
 20 97  1  0  0  0
 21 23  1  0  0  0
 22 28  1  0  0  0
 22 32  2  0  0  0
 26 27  1  0  0  0
 28 98  1  0  0  0
 28 99  1  0  0  0
 29100  1  0  0  0
 29101  1  0  0  0
 33 34  1  0  0  0
 33 66  1  0  0  0
 33 70  2  0  0  0
 34 36  1  0  0  0
 34 59  1  0  0  0
 34102  1  0  0  0
 35 44  2  0  0  0
 35 45  1  0  0  0
 35 68  1  0  0  0
 36 56  1  0  0  0
 36103  1  0  0  0
 37 39  1  0  0  0
 37 47  1  0  0  0
 37 66  1  0  0  0
 37104  1  0  0  0
 38 43  2  0  0  0
 38 46  1  0  0  0
 38 47  1  0  0  0
 39 64  1  0  0  0
 39 67  2  0  0  0
 40 52  1  0  0  0
 40 53  2  0  0  0
 40 58  1  0  0  0
 41105  1  0  0  0
 41106  1  0  0  0
 41107  1  0  0  0
 41 48  1  0  0  0
 42 43  1  0  0  0
 42 66  1  0  0  0
 42108  1  0  0  0
 42109  1  0  0  0
 43 44  1  0  0  0
 44110  1  0  0  0
 45 46  2  0  0  0
 45111  1  0  0  0
 46112  1  0  0  0
 47113  1  0  0  0
 47114  1  0  0  0
 48 56  1  0  0  0
 48 65  1  0  0  0
 48115  1  0  0  0
 49 50  1  0  0  0
 49 53  1  0  0  0
 49 64  1  0  0  0
 49116  1  0  0  0
 50 51  1  0  0  0
 50117  1  0  0  0
 50118  1  0  0  0
 51 52  1  0  0  0
 51119  1  0  0  0
 51120  1  0  0  0
 52121  1  0  0  0
 52122  1  0  0  0
 53 54  1  0  0  0
 54 55  2  0  0  0
 54123  1  0  0  0
 55 57  1  0  0  0
 55124  1  0  0  0
 56 69  2  0  0  0
 57 58  2  0  0  0
 57125  1  0  0  0
 58126  1  0  0  0
 59 60  1  0  0  0
 59 61  1  0  0  0
 59 62  1  0  0  0
 60127  1  0  0  0
 60128  1  0  0  0
 60129  1  0  0  0
 61130  1  0  0  0
 61131  1  0  0  0
 61132  1  0  0  0
 62133  1  0  0  0
 62134  1  0  0  0
 62135  1  0  0  0
 63 65  1  0  0  0
 63136  1  0  0  0
 63137  1  0  0  0
 63138  1  0  0  0
 64139  1  0  0  0
 65140  1  0  0  0
 68 76  1  0  0  0
 71 73  2  0  0  0
 71 80  1  0  0  0
 71141  1  0  0  0
 72 73  1  0  0  0
 72 74  2  0  0  0
 72 78  1  0  0  0
 73 81  1  0  0  0
 74 79  1  0  0  0
 74 80  1  0  0  0
 75 76  2  0  0  0
 75 81  1  0  0  0
 75142  1  0  0  0
 76143  1  0  0  0
 77 78  1  0  0  0
 77144  1  0  0  0
 77145  1  0  0  0
 77146  1  0  0  0
 78147  1  0  0  0
 78148  1  0  0  0
 79149  1  0  0  0
 79150  1  0  0  0
 80151  1  0  0  0
 81152  1  0  0  0
M  ISO  4   1 100  68 101  76 101  79 100
M  END
> <chiral flag>
0

> <version>
0

> <s_m_source_file>
/data/baiqing/PycharmProjects/Reinvent-master-3.2/result/LINK_invent/BTK/process_docking_weight1_custom_product_contain_oxygen_bond_distance_aromatic_linkinvent_7_9_3/rearranged_h_0112.sdf

> <i_m_source_file_index>
4

> <r_mmod_Potential_Energy-OPLS-2005>
844.840698242188

> <r_mmod_Stretch_Energy-OPLS-2005>
308.251129150391

> <r_mmod_Bend_Energy-OPLS-2005>
497.692291259766

> <r_mmod_Torsional_Energy-OPLS-2005>
180.144607543945

> <r_mmod_Improper_Torsional_Energy-OPLS-2005>
2.67774701118469

> <r_mmod_Van_der_Waal_Energy-OPLS-2005>
107.584594726562

> <r_mmod_Electrostatic_Energy-OPLS-2005>
-303.765747070312

> <r_mmod_Solvation_Energy-OPLS-2005>
-207.225814819336

> <b_mmod_Minimization_Converged-OPLS-2005>
0

> <r_mmod_RMS_Derivative-OPLS-2005>
1.09513223171234

$$$$
4
                    3D
 Structure written by MMmdl.
165174  0  0  1  0            999 V2000
  -30.5806  -14.7652   20.4457 C   0  0  0  0  0  0
  -30.4386  -12.4699   19.4496 C   0  0  0  0  0  0
  -29.5060  -12.5070   18.2180 C   0  0  0  0  0  0
  -28.0309  -12.3320   18.6383 C   0  0  0  0  0  0
  -27.6363  -13.2292   19.8427 C   0  0  2  0  0  0
  -28.6900  -13.1667   20.9675 C   0  0  0  0  0  0
  -25.2488  -13.8187   20.5723 C   0  0  0  0  0  0
  -24.1788  -13.0436   20.9257 C   0  0  0  0  0  0
  -24.6380  -11.6914   20.8773 C   0  0  0  0  0  0
  -23.9056  -10.4299   21.0423 C   0  0  0  0  0  0
  -24.3613   -9.4215   21.9193 C   0  0  0  0  0  0
  -23.6297   -8.2240   22.0742 C   0  0  0  0  0  0
  -22.4275   -8.0283   21.3539 C   0  0  0  0  0  0
  -21.9912   -9.0254   20.4639 C   0  0  0  0  0  0
  -22.7236  -10.2139   20.3065 C   0  0  0  0  0  0
  -21.6847   -6.0746   22.5283 C   0  0  0  0  0  0
  -21.4001   -6.5642   23.8221 C   0  0  0  0  0  0
  -21.3664   -5.6793   24.9179 C   0  0  0  0  0  0
  -21.6050   -4.3057   24.7226 C   0  0  0  0  0  0
  -21.8817   -3.8155   23.4341 C   0  0  0  0  0  0
  -21.9188   -4.6973   22.3401 C   0  0  0  0  0  0
  -22.7819  -13.5226   21.1928 C   0  0  0  0  0  0
  -22.1667   -4.2163   21.0977 F   0  0  0  0  0  0
  -21.5634   -3.4536   25.7732 F   0  0  0  0  0  0
  -29.9774  -13.5319   20.3651 N   0  0  0  0  0  0
  -26.2907  -12.9388   20.3284 N   0  0  0  0  0  0
  -25.9299  -11.6533   20.5745 N   0  0  0  0  0  0
  -22.0455  -12.8196   22.0463 N   0  0  0  0  0  0
  -25.4128  -15.1918   20.4131 N   0  0  0  0  0  0
  -31.7976  -14.8724   20.2622 O   0  0  0  0  0  0
  -21.6634   -6.8884   21.4243 O   0  0  0  0  0  0
  -22.3503  -14.5544   20.6790 O   0  0  0  0  0  0
  -24.6298  -31.8541   23.1965 C   0  0  0  0  0  0
  -25.9117  -32.4750   23.8313 C   0  0  1  0  0  0
  -27.2271  -27.2638   20.1243 C   0  0  0  0  0  0
  -25.5928  -33.8559   24.2243 N   0  0  0  0  0  0
  -23.4277  -30.4775   21.5362 C   0  0  2  0  0  0
  -24.8790  -28.9189   20.1105 C   0  0  0  0  0  0
  -22.7486  -29.4614   22.4880 C   0  0  0  0  0  0
  -18.0291  -28.1402   22.8481 C   0  0  0  0  0  0
  -24.1472  -36.7254   23.2640 C   0  0  0  0  0  0
  -25.9746  -30.7711   21.3732 C   0  0  0  0  0  0
  -26.0515  -29.3927   20.7141 C   0  0  0  0  0  0
  -27.2319  -28.5795   20.7046 C   0  0  0  0  0  0
  -26.0294  -26.8572   19.4953 C   0  0  0  0  0  0
  -24.8722  -27.6606   19.4910 C   0  0  0  0  0  0
  -23.6483  -29.8052   20.1545 C   0  0  0  0  0  0
  -25.4109  -36.3068   24.0324 C   0  0  1  0  0  0
  -20.5898  -28.3700   23.1253 C   0  0  2  0  0  0
  -20.6768  -26.9412   22.5408 C   0  0  0  0  0  0
  -19.5750  -26.6399   21.5198 C   0  0  0  0  0  0
  -18.1929  -26.7946   22.1623 C   0  0  0  0  0  0
  -19.1548  -28.8866   23.2872 C   0  0  0  0  0  0
  -18.9491  -30.1468   23.8890 C   0  0  0  0  0  0
  -17.6494  -30.6601   24.0571 C   0  0  0  0  0  0
  -25.9071  -34.9435   23.5086 C   0  0  0  0  0  0
  -16.5376  -29.9111   23.6350 C   0  0  0  0  0  0
  -16.7286  -28.6532   23.0367 C   0  0  0  0  0  0
  -26.4496  -31.6590   25.0705 C   0  0  0  0  0  0
  -25.3733  -31.3753   26.1442 C   0  0  0  0  0  0
  -27.0339  -30.3010   24.6193 C   0  0  0  0  0  0
  -27.6045  -32.4319   25.7473 C   0  0  0  0  0  0
  -27.5569  -37.1788   24.8474 C   0  0  0  0  0  0
  -21.4193  -29.3048   22.3623 N   0  0  0  0  0  0
  -26.4274  -37.3786   23.9427 N   0  0  0  0  0  0
  -24.6957  -31.0537   22.0904 N   0  0  0  0  0  0
  -23.4195  -28.8147   23.2971 O   0  0  0  0  0  0
  -28.3177  -26.3635   20.1650 O   0  0  0  0  0  0
  -26.5649  -34.8914   22.4660 O   0  0  0  0  0  0
  -23.5446  -32.1334   23.7274 O   0  0  0  0  0  0
  -29.9196  -17.3209   22.3192 C   0  0  0  0  0  0
  -29.5913  -18.5097   20.2315 C   0  0  0  0  0  0
  -29.8225  -18.5482   23.0068 C   0  0  0  0  0  0
  -29.6167  -19.7814   22.3219 C   0  0  0  0  0  0
  -29.4938  -19.8094   20.8972 C   0  0  0  0  0  0
  -29.8110  -17.2420   20.9210 C   0  0  0  0  0  0
  -28.9656  -23.5917   20.1269 C   0  0  0  0  0  0
  -28.5959  -22.2561   20.3285 C   0  0  0  0  0  0
  -30.4036  -23.8262   19.8039 C   0  0  0  0  0  0
  -31.3687  -22.6382   19.8744 C   0  0  0  0  0  0
  -30.7075  -21.3078   19.4685 C   0  0  0  0  0  0
  -29.9643  -18.5048   24.5230 C   0  0  0  0  0  0
  -29.6203  -21.0670   23.1535 C   0  0  0  0  0  0
  -27.1553  -21.8855   20.6486 C   0  0  0  0  0  0
  -28.0065  -24.8876   20.2112 C   0  0  0  0  0  0
  -29.4541  -21.0926   20.1906 N   0  0  0  0  0  0
  -29.7509  -15.8765   20.3369 N   0  0  0  0  0  0
  -30.8649  -24.9320   19.5056 O   0  0  0  0  0  0
  -31.4768  -12.6168   19.1461 H   0  0  0  0  0  0
  -30.3963  -11.4967   19.9395 H   0  0  0  0  0  0
  -29.7868  -11.7310   17.5052 H   0  0  0  0  0  0
  -29.6281  -13.4569   17.6943 H   0  0  0  0  0  0
  -27.8863  -11.2840   18.8992 H   0  0  0  0  0  0
  -27.3706  -12.5282   17.7933 H   0  0  0  0  0  0
  -27.6207  -14.2498   19.4623 H   0  0  0  0  0  0
  -28.7363  -12.1673   21.4023 H   0  0  0  0  0  0
  -28.4325  -13.8481   21.7801 H   0  0  0  0  0  0
  -25.2754   -9.5700   22.4781 H   0  0  0  0  0  0
  -24.0015   -7.4622   22.7446 H   0  0  0  0  0  0
  -21.0849   -8.8776   19.8941 H   0  0  0  0  0  0
  -22.3691  -10.9682   19.6184 H   0  0  0  0  0  0
  -21.1981   -7.6145   23.9729 H   0  0  0  0  0  0
  -21.1497   -6.0517   25.9087 H   0  0  0  0  0  0
  -22.0589   -2.7613   23.2832 H   0  0  0  0  0  0
  -22.4039  -11.9827   22.4826 H   0  0  0  0  0  0
  -21.1080  -13.1225   22.2693 H   0  0  0  0  0  0
  -24.6384  -15.8371   20.5287 H   0  0  0  0  0  0
  -26.2478  -15.6407   20.0625 H   0  0  0  0  0  0
  -26.7181  -32.5410   23.1055 H   0  0  0  0  0  0
  -25.0052  -33.9705   25.0378 H   0  0  0  0  0  0
  -22.7260  -31.3009   21.3867 H   0  0  0  0  0  0
  -23.3749  -35.9577   23.3320 H   0  0  0  0  0  0
  -24.3553  -36.8870   22.2055 H   0  0  0  0  0  0
  -23.7208  -37.6448   23.6658 H   0  0  0  0  0  0
  -26.1161  -31.5344   20.6064 H   0  0  0  0  0  0
  -26.8493  -30.8212   22.0098 H   0  0  0  0  0  0
  -28.1305  -28.9396   21.1854 H   0  0  0  0  0  0
  -25.9669  -25.8931   19.0094 H   0  0  0  0  0  0
  -23.9725  -27.2939   19.0165 H   0  0  0  0  0  0
  -23.7755  -30.5766   19.3936 H   0  0  0  0  0  0
  -22.7674  -29.2377   19.8470 H   0  0  0  0  0  0
  -25.1303  -36.1891   25.0822 H   0  0  0  0  0  0
  -21.0021  -28.3278   24.1367 H   0  0  0  0  0  0
  -20.5625  -26.2312   23.3618 H   0  0  0  0  0  0
  -21.6637  -26.7414   22.1229 H   0  0  0  0  0  0
  -19.6896  -25.6308   21.1228 H   0  0  0  0  0  0
  -19.6686  -27.3204   20.6719 H   0  0  0  0  0  0
  -17.4199  -26.6684   21.4024 H   0  0  0  0  0  0
  -18.0341  -26.0103   22.9040 H   0  0  0  0  0  0
  -19.7976  -30.7279   24.2243 H   0  0  0  0  0  0
  -17.5073  -31.6285   24.5172 H   0  0  0  0  0  0
  -15.5385  -30.3033   23.7682 H   0  0  0  0  0  0
  -15.8686  -28.0861   22.7089 H   0  0  0  0  0  0
  -24.5911  -30.7087   25.7801 H   0  0  0  0  0  0
  -24.8919  -32.2925   26.4844 H   0  0  0  0  0  0
  -25.8080  -30.8970   27.0230 H   0  0  0  0  0  0
  -26.2920  -29.6760   24.1207 H   0  0  0  0  0  0
  -27.4010  -29.7287   25.4729 H   0  0  0  0  0  0
  -27.8813  -30.4299   23.9447 H   0  0  0  0  0  0
  -27.2665  -33.3627   26.2036 H   0  0  0  0  0  0
  -28.3867  -32.6856   25.0304 H   0  0  0  0  0  0
  -28.0692  -31.8439   26.5405 H   0  0  0  0  0  0
  -28.2605  -38.0070   24.7541 H   0  0  0  0  0  0
  -28.1040  -36.2609   24.6275 H   0  0  0  0  0  0
  -27.2294  -37.1419   25.8880 H   0  0  0  0  0  0
  -20.9364  -29.8779   21.6842 H   0  0  0  0  0  0
  -26.0131  -38.2843   24.1474 H   0  0  0  0  0  0
  -30.0484  -16.4109   22.8900 H   0  0  0  0  0  0
  -29.4939  -18.4919   19.1556 H   0  0  0  0  0  0
  -31.7413  -22.5710   20.8965 H   0  0  0  0  0  0
  -32.2289  -22.8323   19.2333 H   0  0  0  0  0  0
  -31.4197  -20.4988   19.6384 H   0  0  0  0  0  0
  -30.4967  -21.3111   18.3980 H   0  0  0  0  0  0
  -30.1391  -17.4931   24.8892 H   0  0  0  0  0  0
  -29.0528  -18.8597   25.0053 H   0  0  0  0  0  0
  -30.8022  -19.1218   24.8491 H   0  0  0  0  0  0
  -29.1794  -20.9224   24.1386 H   0  0  0  0  0  0
  -29.0505  -21.8821   22.7260 H   0  0  0  0  0  0
  -30.6427  -21.4186   23.2914 H   0  0  0  0  0  0
  -26.5167  -22.7642   20.7449 H   0  0  0  0  0  0
  -27.0814  -21.3223   21.5779 H   0  0  0  0  0  0
  -26.7433  -21.2688   19.8489 H   0  0  0  0  0  0
  -28.2415  -24.9831   19.1501 H   0  0  0  0  0  0
  -28.5729  -25.0370   21.1321 H   0  0  0  0  0  0
  -28.8296  -15.6248   20.0149 H   0  0  0  0  0  0
  1 25  1  0  0  0
  1 30  2  0  0  0
  1 87  1  0  0  0
  2  3  1  0  0  0
  2 25  1  0  0  0
  2 89  1  0  0  0
  2 90  1  0  0  0
  3  4  1  0  0  0
  3 91  1  0  0  0
  3 92  1  0  0  0
  4  5  1  0  0  0
  4 93  1  0  0  0
  4 94  1  0  0  0
  5  6  1  0  0  0
  5 26  1  0  0  0
  5 95  1  0  0  0
  6 25  1  0  0  0
  6 96  1  0  0  0
  6 97  1  0  0  0
  7  8  2  0  0  0
  7 26  1  0  0  0
  7 29  1  0  0  0
  8  9  1  0  0  0
  8 22  1  0  0  0
  9 10  1  0  0  0
  9 27  2  0  0  0
 10 11  2  0  0  0
 10 15  1  0  0  0
 11 12  1  0  0  0
 11 98  1  0  0  0
 12 13  2  0  0  0
 12 99  1  0  0  0
 13 14  1  0  0  0
 13 31  1  0  0  0
 14 15  2  0  0  0
 14100  1  0  0  0
 15101  1  0  0  0
 16 17  2  0  0  0
 16 21  1  0  0  0
 16 31  1  0  0  0
 17 18  1  0  0  0
 17102  1  0  0  0
 18 19  2  0  0  0
 18103  1  0  0  0
 19 20  1  0  0  0
 19 24  1  0  0  0
 20 21  2  0  0  0
 20104  1  0  0  0
 21 23  1  0  0  0
 22 28  1  0  0  0
 22 32  2  0  0  0
 26 27  1  0  0  0
 28105  1  0  0  0
 28106  1  0  0  0
 29107  1  0  0  0
 29108  1  0  0  0
 33 34  1  0  0  0
 33 66  1  0  0  0
 33 70  2  0  0  0
 34 36  1  0  0  0
 34 59  1  0  0  0
 34109  1  0  0  0
 35 44  2  0  0  0
 35 45  1  0  0  0
 35 68  1  0  0  0
 36 56  1  0  0  0
 36110  1  0  0  0
 37 39  1  0  0  0
 37 47  1  0  0  0
 37 66  1  0  0  0
 37111  1  0  0  0
 38 43  2  0  0  0
 38 46  1  0  0  0
 38 47  1  0  0  0
 39 64  1  0  0  0
 39 67  2  0  0  0
 40 52  1  0  0  0
 40 53  2  0  0  0
 40 58  1  0  0  0
 41112  1  0  0  0
 41113  1  0  0  0
 41114  1  0  0  0
 41 48  1  0  0  0
 42 43  1  0  0  0
 42 66  1  0  0  0
 42115  1  0  0  0
 42116  1  0  0  0
 43 44  1  0  0  0
 44117  1  0  0  0
 45 46  2  0  0  0
 45118  1  0  0  0
 46119  1  0  0  0
 47120  1  0  0  0
 47121  1  0  0  0
 48 56  1  0  0  0
 48 65  1  0  0  0
 48122  1  0  0  0
 49 50  1  0  0  0
 49 53  1  0  0  0
 49 64  1  0  0  0
 49123  1  0  0  0
 50 51  1  0  0  0
 50124  1  0  0  0
 50125  1  0  0  0
 51 52  1  0  0  0
 51126  1  0  0  0
 51127  1  0  0  0
 52128  1  0  0  0
 52129  1  0  0  0
 53 54  1  0  0  0
 54 55  2  0  0  0
 54130  1  0  0  0
 55 57  1  0  0  0
 55131  1  0  0  0
 56 69  2  0  0  0
 57 58  2  0  0  0
 57132  1  0  0  0
 58133  1  0  0  0
 59 60  1  0  0  0
 59 61  1  0  0  0
 59 62  1  0  0  0
 60134  1  0  0  0
 60135  1  0  0  0
 60136  1  0  0  0
 61137  1  0  0  0
 61138  1  0  0  0
 61139  1  0  0  0
 62140  1  0  0  0
 62141  1  0  0  0
 62142  1  0  0  0
 63 65  1  0  0  0
 63143  1  0  0  0
 63144  1  0  0  0
 63145  1  0  0  0
 64146  1  0  0  0
 65147  1  0  0  0
 68 85  1  0  0  0
 71 73  2  0  0  0
 71 76  1  0  0  0
 71148  1  0  0  0
 72 75  1  0  0  0
 72 76  2  0  0  0
 72149  1  0  0  0
 73 74  1  0  0  0
 73 82  1  0  0  0
 74 75  2  0  0  0
 74 83  1  0  0  0
 75 86  1  0  0  0
 76 87  1  0  0  0
 77 78  2  0  0  0
 77 79  1  0  0  0
 77 85  1  0  0  0
 78 84  1  0  0  0
 78 86  1  0  0  0
 79 80  1  0  0  0
 79 88  2  0  0  0
 80 81  1  0  0  0
 80150  1  0  0  0
 80151  1  0  0  0
 81 86  1  0  0  0
 81152  1  0  0  0
 81153  1  0  0  0
 82154  1  0  0  0
 82155  1  0  0  0
 82156  1  0  0  0
 83157  1  0  0  0
 83158  1  0  0  0
 83159  1  0  0  0
 84160  1  0  0  0
 84161  1  0  0  0
 84162  1  0  0  0
 85163  1  0  0  0
 85164  1  0  0  0
 87165  1  0  0  0
M  ISO  4   1 100  68 101  85 101  87 100
M  END
> <chiral flag>
0

> <version>
0

> <s_m_source_file>
/data/baiqing/PycharmProjects/Reinvent-master-3.2/result/LINK_invent/BTK/process_docking_weight1_custom_product_contain_oxygen_bond_distance_aromatic_linkinvent_7_9_3/rearranged_h_0112.sdf

> <i_m_source_file_index>
5

> <r_mmod_Potential_Energy-OPLS-2005>
461.913818359375

> <r_mmod_Stretch_Energy-OPLS-2005>
137.181091308594

> <r_mmod_Bend_Energy-OPLS-2005>
361.614807128906

> <r_mmod_Torsional_Energy-OPLS-2005>
265.827026367188

> <r_mmod_Improper_Torsional_Energy-OPLS-2005>
14.1046895980835

> <r_mmod_Van_der_Waal_Energy-OPLS-2005>
161.013748168945

> <r_mmod_Electrostatic_Energy-OPLS-2005>
-349.767669677734

> <r_mmod_Solvation_Energy-OPLS-2005>
-222.695693969727

> <b_mmod_Minimization_Converged-OPLS-2005>
0

> <r_mmod_RMS_Derivative-OPLS-2005>
2.71952724456787

$$$$
5
                    3D
 Structure written by MMmdl.
168177  0  0  1  0            999 V2000
  -30.1713  -16.2641   20.2762 C   0  0  0  0  0  0
  -30.3424  -13.5834   19.4720 C   0  0  0  0  0  0
  -29.5445  -12.8287   18.3526 C   0  0  0  0  0  0
  -28.1922  -12.3313   18.8639 C   0  0  0  0  0  0
  -27.5771  -13.3846   19.8000 C   0  0  2  0  0  0
  -28.5629  -14.0186   20.8409 C   0  0  0  0  0  0
  -25.2246  -13.8423   20.5945 C   0  0  0  0  0  0
  -24.1701  -13.0463   20.9354 C   0  0  0  0  0  0
  -24.6509  -11.7009   20.8777 C   0  0  0  0  0  0
  -23.9221  -10.4311   21.0374 C   0  0  0  0  0  0
  -24.3725   -9.4200   21.9154 C   0  0  0  0  0  0
  -23.6351   -8.2256   22.0746 C   0  0  0  0  0  0
  -22.4317   -8.0313   21.3555 C   0  0  0  0  0  0
  -21.9995   -9.0293   20.4642 C   0  0  0  0  0  0
  -22.7374  -10.2149   20.3033 C   0  0  0  0  0  0
  -21.6858   -6.0755   22.5281 C   0  0  0  0  0  0
  -21.4011   -6.5647   23.8217 C   0  0  0  0  0  0
  -21.3663   -5.6797   24.9179 C   0  0  0  0  0  0
  -21.6049   -4.3061   24.7225 C   0  0  0  0  0  0
  -21.8816   -3.8157   23.4343 C   0  0  0  0  0  0
  -21.9194   -4.6980   22.3401 C   0  0  0  0  0  0
  -22.7683  -13.5118   21.1943 C   0  0  0  0  0  0
  -22.1658   -4.2167   21.0978 F   0  0  0  0  0  0
  -21.5638   -3.4538   25.7734 F   0  0  0  0  0  0
  -29.5975  -14.8419   20.0923 N   0  0  0  0  0  0
  -26.2815  -12.9917   20.3431 N   0  0  0  0  0  0
  -25.9492  -11.6892   20.5702 N   0  0  0  0  0  0
  -22.0358  -12.8073   22.0486 N   0  0  0  0  0  0
  -25.3715  -15.2177   20.4373 N   0  0  0  0  0  0
  -31.3521  -15.8462   20.4380 O   0  0  0  0  0  0
  -21.6661   -6.8916   21.4251 O   0  0  0  0  0  0
  -22.3328  -14.5397   20.6763 O   0  0  0  0  0  0
  -24.7231  -31.7517   23.1164 C   0  0  0  0  0  0
  -25.9612  -32.4232   23.7870 C   0  0  1  0  0  0
  -27.2400  -26.2868   20.2525 C   0  0  0  0  0  0
  -25.6019  -33.8081   24.1715 N   0  0  0  0  0  0
  -23.5675  -30.3349   21.4811 C   0  0  2  0  0  0
  -25.0281  -28.5868   20.1323 C   0  0  0  0  0  0
  -22.7940  -29.4066   22.4602 C   0  0  0  0  0  0
  -18.0365  -28.1442   22.8433 C   0  0  0  0  0  0
  -24.1501  -36.7060   23.2663 C   0  0  0  0  0  0
  -26.1635  -30.3484   21.4421 C   0  0  0  0  0  0
  -26.2244  -28.8656   20.8018 C   0  0  0  0  0  0
  -27.2960  -27.7593   20.8152 C   0  0  0  0  0  0
  -26.0072  -26.3246   19.5178 C   0  0  0  0  0  0
  -24.9844  -27.3468   19.4640 C   0  0  0  0  0  0
  -23.8441  -29.5923   20.1355 C   0  0  0  0  0  0
  -25.4163  -36.2763   24.0255 C   0  0  1  0  0  0
  -20.6018  -28.3824   23.1065 C   0  0  2  0  0  0
  -20.6811  -26.9444   22.5411 C   0  0  0  0  0  0
  -19.5793  -26.6359   21.5220 C   0  0  0  0  0  0
  -18.1977  -26.7962   22.1612 C   0  0  0  0  0  0
  -19.1639  -28.8963   23.2719 C   0  0  0  0  0  0
  -18.9538  -30.1535   23.8783 C   0  0  0  0  0  0
  -17.6524  -30.6613   24.0541 C   0  0  0  0  0  0
  -25.9168  -34.9160   23.4853 C   0  0  0  0  0  0
  -16.5411  -29.9088   23.6359 C   0  0  0  0  0  0
  -16.7343  -28.6514   23.0372 C   0  0  0  0  0  0
  -26.4655  -31.6432   25.0654 C   0  0  0  0  0  0
  -25.3614  -31.3866   26.1192 C   0  0  0  0  0  0
  -27.0650  -30.2727   24.6845 C   0  0  0  0  0  0
  -27.6030  -32.4384   25.7492 C   0  0  0  0  0  0
  -27.5557  -37.1682   24.8465 C   0  0  0  0  0  0
  -21.4549  -29.2996   22.3343 N   0  0  0  0  0  0
  -26.4258  -37.3565   23.9410 N   0  0  0  0  0  0
  -24.8472  -30.8549   22.0652 N   0  0  0  0  0  0
  -23.4198  -28.7738   23.3135 O   0  0  0  0  0  0
  -28.1502  -24.8792   20.2955 O   0  0  0  0  0  0
  -26.5866  -34.8820   22.4512 O   0  0  0  0  0  0
  -23.6166  -32.0789   23.5852 O   0  0  0  0  0  0
  -33.2881  -20.3579   20.3032 C   0  0  0  0  0  0
  -32.2171  -21.0703   19.6823 C   0  0  0  0  0  0
  -32.5926  -19.9342   21.3841 C   0  0  0  0  0  0
  -32.1276  -22.1678   20.5139 C   0  0  0  0  0  0
  -28.8499  -21.0081   20.2127 C   0  0  0  0  0  0
  -29.9022  -20.3097   21.2304 C   0  0  0  0  0  0
  -28.5847  -19.8121   18.7257 C   0  0  0  0  0  0
  -28.3546  -20.8524   23.0853 C   0  0  0  0  0  0
  -29.6024  -20.7070   22.6060 C   0  0  0  0  0  0
  -30.0077  -18.5287   17.9662 C   0  0  0  0  0  0
  -31.8125  -18.2976   19.3742 C   0  0  0  0  0  0
  -34.7628  -20.6671   20.2207 C   0  0  0  0  0  0
  -31.4866  -20.5685   17.5400 C   0  0  0  0  0  0
  -27.9888  -22.9118   20.2590 C   0  0  0  0  0  0
  -30.9290  -20.3077   19.0564 C   0  0  2  0  0  0
  -31.3781  -19.2704   21.0486 N   0  0  0  0  0  0
  -31.5218  -23.4095   20.3612 N   0  0  0  0  0  0
  -29.7257  -17.9648   20.1186 N   0  0  0  0  0  0
  -27.5073  -19.8306   18.1266 O   0  0  0  0  0  0
  -32.5653  -21.5429   22.1180 S   0  0  0  0  0  0
  -31.2699  -13.9146   19.0027 H   0  0  0  0  0  0
  -30.6780  -12.8874   20.2438 H   0  0  0  0  0  0
  -30.1267  -11.9980   17.9518 H   0  0  0  0  0  0
  -29.3792  -13.5134   17.5195 H   0  0  0  0  0  0
  -28.3541  -11.4078   19.4206 H   0  0  0  0  0  0
  -27.5234  -12.0868   18.0375 H   0  0  0  0  0  0
  -27.3381  -14.1996   19.1138 H   0  0  0  0  0  0
  -28.9860  -13.2732   21.5164 H   0  0  0  0  0  0
  -28.0150  -14.7084   21.4829 H   0  0  0  0  0  0
  -25.2872   -9.5646   22.4733 H   0  0  0  0  0  0
  -24.0040   -7.4646   22.7471 H   0  0  0  0  0  0
  -21.0922   -8.8839   19.8948 H   0  0  0  0  0  0
  -22.3845  -10.9689   19.6138 H   0  0  0  0  0  0
  -21.1988   -7.6150   23.9729 H   0  0  0  0  0  0
  -21.1489   -6.0519   25.9087 H   0  0  0  0  0  0
  -22.0590   -2.7616   23.2838 H   0  0  0  0  0  0
  -22.4030  -11.9773   22.4901 H   0  0  0  0  0  0
  -21.0938  -13.1021   22.2651 H   0  0  0  0  0  0
  -24.5961  -15.8615   20.5478 H   0  0  0  0  0  0
  -26.2229  -15.6694   20.1295 H   0  0  0  0  0  0
  -26.7743  -32.4619   23.0617 H   0  0  0  0  0  0
  -25.0005  -33.9047   24.9765 H   0  0  0  0  0  0
  -22.9173  -31.1826   21.2551 H   0  0  0  0  0  0
  -23.3790  -35.9359   23.3225 H   0  0  0  0  0  0
  -24.3562  -36.8847   22.2099 H   0  0  0  0  0  0
  -23.7237  -37.6187   23.6837 H   0  0  0  0  0  0
  -26.4041  -31.0439   20.6369 H   0  0  0  0  0  0
  -27.0017  -30.4336   22.1205 H   0  0  0  0  0  0
  -28.1904  -27.9993   21.3728 H   0  0  0  0  0  0
  -25.7710  -25.4163   18.9805 H   0  0  0  0  0  0
  -24.0955  -27.1156   18.8936 H   0  0  0  0  0  0
  -24.0518  -30.3348   19.3640 H   0  0  0  0  0  0
  -22.9408  -29.0801   19.8005 H   0  0  0  0  0  0
  -25.1390  -36.1465   25.0742 H   0  0  0  0  0  0
  -21.0084  -28.3481   24.1197 H   0  0  0  0  0  0
  -20.5635  -26.2460   23.3710 H   0  0  0  0  0  0
  -21.6670  -26.7324   22.1251 H   0  0  0  0  0  0
  -19.6946  -25.6239   21.1322 H   0  0  0  0  0  0
  -19.6748  -27.3105   20.6698 H   0  0  0  0  0  0
  -17.4249  -26.6703   21.4012 H   0  0  0  0  0  0
  -18.0353  -26.0130   22.9029 H   0  0  0  0  0  0
  -19.8014  -30.7376   24.2109 H   0  0  0  0  0  0
  -17.5074  -31.6279   24.5169 H   0  0  0  0  0  0
  -15.5407  -30.2957   23.7745 H   0  0  0  0  0  0
  -15.8745  -28.0795   22.7153 H   0  0  0  0  0  0
  -24.5848  -30.7168   25.7475 H   0  0  0  0  0  0
  -24.8756  -32.3123   26.4285 H   0  0  0  0  0  0
  -25.7696  -30.9241   27.0186 H   0  0  0  0  0  0
  -26.3443  -29.6215   24.1892 H   0  0  0  0  0  0
  -27.3967  -29.7334   25.5726 H   0  0  0  0  0  0
  -27.9457  -30.3759   24.0506 H   0  0  0  0  0  0
  -27.2525  -33.3808   26.1708 H   0  0  0  0  0  0
  -28.4015  -32.6743   25.0445 H   0  0  0  0  0  0
  -28.0499  -31.8758   26.5697 H   0  0  0  0  0  0
  -28.2506  -38.0037   24.7518 H   0  0  0  0  0  0
  -28.1116  -36.2552   24.6276 H   0  0  0  0  0  0
  -27.2272  -37.1289   25.8866 H   0  0  0  0  0  0
  -20.9951  -29.8599   21.6299 H   0  0  0  0  0  0
  -26.0047  -38.2596   24.1423 H   0  0  0  0  0  0
  -28.1856  -21.1473   24.1116 H   0  0  0  0  0  0
  -27.4790  -20.6794   22.4757 H   0  0  0  0  0  0
  -30.3920  -20.8873   23.3161 H   0  0  0  0  0  0
  -30.2594  -18.6927   16.9199 H   0  0  0  0  0  0
  -29.5114  -17.5625   17.8472 H   0  0  0  0  0  0
  -32.6666  -18.7015   18.8352 H   0  0  0  0  0  0
  -32.3467  -17.3664   19.4140 H   0  0  0  0  0  0
  -34.9634  -21.7348   20.3203 H   0  0  0  0  0  0
  -35.1721  -20.3498   19.2620 H   0  0  0  0  0  0
  -35.3245  -20.1526   21.0004 H   0  0  0  0  0  0
  -32.2259  -19.8520   17.1846 H   0  0  0  0  0  0
  -31.9686  -21.5443   17.4196 H   0  0  0  0  0  0
  -30.6996  -20.6372   16.7851 H   0  0  0  0  0  0
  -27.3224  -22.7816   21.1113 H   0  0  0  0  0  0
  -27.3215  -22.8105   19.4034 H   0  0  0  0  0  0
  -30.4383  -21.2460   18.7856 H   0  0  0  0  0  0
  -31.1067  -23.7487   19.4995 H   0  0  0  0  0  0
  -31.4274  -24.0753   21.1224 H   0  0  0  0  0  0
  -28.7239  -18.0573   20.2042 H   0  0  0  0  0  0
  1 25  1  0  0  0
  1 30  2  0  0  0
  1 88  1  0  0  0
  2  3  1  0  0  0
  2 25  1  0  0  0
  2 91  1  0  0  0
  2 92  1  0  0  0
  3  4  1  0  0  0
  3 93  1  0  0  0
  3 94  1  0  0  0
  4  5  1  0  0  0
  4 95  1  0  0  0
  4 96  1  0  0  0
  5  6  1  0  0  0
  5 26  1  0  0  0
  5 97  1  0  0  0
  6 25  1  0  0  0
  6 98  1  0  0  0
  6 99  1  0  0  0
  7  8  2  0  0  0
  7 26  1  0  0  0
  7 29  1  0  0  0
  8  9  1  0  0  0
  8 22  1  0  0  0
  9 10  1  0  0  0
  9 27  2  0  0  0
 10 11  2  0  0  0
 10 15  1  0  0  0
 11 12  1  0  0  0
 11100  1  0  0  0
 12 13  2  0  0  0
 12101  1  0  0  0
 13 14  1  0  0  0
 13 31  1  0  0  0
 14 15  2  0  0  0
 14102  1  0  0  0
 15103  1  0  0  0
 16 17  2  0  0  0
 16 21  1  0  0  0
 16 31  1  0  0  0
 17 18  1  0  0  0
 17104  1  0  0  0
 18 19  2  0  0  0
 18105  1  0  0  0
 19 20  1  0  0  0
 19 24  1  0  0  0
 20 21  2  0  0  0
 20106  1  0  0  0
 21 23  1  0  0  0
 22 28  1  0  0  0
 22 32  2  0  0  0
 26 27  1  0  0  0
 28107  1  0  0  0
 28108  1  0  0  0
 29109  1  0  0  0
 29110  1  0  0  0
 33 34  1  0  0  0
 33 66  1  0  0  0
 33 70  2  0  0  0
 34 36  1  0  0  0
 34 59  1  0  0  0
 34111  1  0  0  0
 35 44  2  0  0  0
 35 45  1  0  0  0
 35 68  1  0  0  0
 36 56  1  0  0  0
 36112  1  0  0  0
 37 39  1  0  0  0
 37 47  1  0  0  0
 37 66  1  0  0  0
 37113  1  0  0  0
 38 43  2  0  0  0
 38 46  1  0  0  0
 38 47  1  0  0  0
 39 64  1  0  0  0
 39 67  2  0  0  0
 40 52  1  0  0  0
 40 53  2  0  0  0
 40 58  1  0  0  0
 41114  1  0  0  0
 41115  1  0  0  0
 41116  1  0  0  0
 41 48  1  0  0  0
 42 43  1  0  0  0
 42 66  1  0  0  0
 42117  1  0  0  0
 42118  1  0  0  0
 43 44  1  0  0  0
 44119  1  0  0  0
 45 46  2  0  0  0
 45120  1  0  0  0
 46121  1  0  0  0
 47122  1  0  0  0
 47123  1  0  0  0
 48 56  1  0  0  0
 48 65  1  0  0  0
 48124  1  0  0  0
 49 50  1  0  0  0
 49 53  1  0  0  0
 49 64  1  0  0  0
 49125  1  0  0  0
 50 51  1  0  0  0
 50126  1  0  0  0
 50127  1  0  0  0
 51 52  1  0  0  0
 51128  1  0  0  0
 51129  1  0  0  0
 52130  1  0  0  0
 52131  1  0  0  0
 53 54  1  0  0  0
 54 55  2  0  0  0
 54132  1  0  0  0
 55 57  1  0  0  0
 55133  1  0  0  0
 56 69  2  0  0  0
 57 58  2  0  0  0
 57134  1  0  0  0
 58135  1  0  0  0
 59 60  1  0  0  0
 59 61  1  0  0  0
 59 62  1  0  0  0
 60136  1  0  0  0
 60137  1  0  0  0
 60138  1  0  0  0
 61139  1  0  0  0
 61140  1  0  0  0
 61141  1  0  0  0
 62142  1  0  0  0
 62143  1  0  0  0
 62144  1  0  0  0
 63 65  1  0  0  0
 63145  1  0  0  0
 63146  1  0  0  0
 63147  1  0  0  0
 64148  1  0  0  0
 65149  1  0  0  0
 68 84  1  0  0  0
 71 72  1  0  0  0
 71 73  2  0  0  0
 71 82  1  0  0  0
 72 74  2  0  0  0
 72 85  1  0  0  0
 73 86  1  0  0  0
 73 90  1  0  0  0
 74 87  1  0  0  0
 74 90  1  0  0  0
 75 76  2  0  0  0
 75 77  1  0  0  0
 75 84  1  0  0  0
 76 79  1  0  0  0
 76 86  1  0  0  0
 77 80  1  0  0  0
 77 89  2  0  0  0
 78 79  2  0  0  0
 78150  1  0  0  0
 78151  1  0  0  0
 79152  1  0  0  0
 80 81  1  0  0  0
 80153  1  0  0  0
 80154  1  0  0  0
 81 86  1  0  0  0
 81155  1  0  0  0
 81156  1  0  0  0
 82157  1  0  0  0
 82158  1  0  0  0
 82159  1  0  0  0
 83160  1  0  0  0
 83161  1  0  0  0
 83162  1  0  0  0
 83 85  1  0  0  0
 84163  1  0  0  0
 84164  1  0  0  0
 85 88  1  0  0  0
 85165  1  0  0  0
 87166  1  0  0  0
 87167  1  0  0  0
 88168  1  0  0  0
M  ISO  4   1 100  68 101  84 101  88 100
M  END
> <chiral flag>
0

> <version>
0

> <s_m_source_file>
/data/baiqing/PycharmProjects/Reinvent-master-3.2/result/LINK_invent/BTK/process_docking_weight1_custom_product_contain_oxygen_bond_distance_aromatic_linkinvent_7_9_3/rearranged_h_0112.sdf

> <i_m_source_file_index>
6

> <r_mmod_Potential_Energy-OPLS-2005>
12196.919921875

> <r_mmod_Stretch_Energy-OPLS-2005>
6826.6083984375

> <r_mmod_Bend_Energy-OPLS-2005>
1151.60278320312

> <r_mmod_Torsional_Energy-OPLS-2005>
644.552978515625

> <r_mmod_Improper_Torsional_Energy-OPLS-2005>
73.3208618164062

> <r_mmod_Van_der_Waal_Energy-OPLS-2005>
2043.20837402344

> <r_mmod_Electrostatic_Energy-OPLS-2005>
-338.708129882812

> <r_mmod_Solvation_Energy-OPLS-2005>
-227.603881835938

> <b_mmod_Minimization_Converged-OPLS-2005>
0

> <r_mmod_RMS_Derivative-OPLS-2005>
2.11927127838135

$$$$
6
                    3D
 Structure written by MMmdl.
145153  0  0  1  0            999 V2000
  -30.3633  -15.4740   20.3452 C   0  0  0  0  0  0
  -30.4320  -12.9587   19.5388 C   0  0  0  0  0  0
  -29.5443  -12.6236   18.3096 C   0  0  0  0  0  0
  -28.1041  -12.3062   18.7431 C   0  0  0  0  0  0
  -27.6015  -13.2980   19.8198 C   0  0  2  0  0  0
  -28.6270  -13.5593   20.9457 C   0  0  0  0  0  0
  -25.2300  -13.8234   20.5744 C   0  0  0  0  0  0
  -24.1692  -13.0392   20.9243 C   0  0  0  0  0  0
  -24.6407  -11.6915   20.8757 C   0  0  0  0  0  0
  -23.9114  -10.4273   21.0396 C   0  0  0  0  0  0
  -24.3649   -9.4191   21.9181 C   0  0  0  0  0  0
  -23.6308   -8.2236   22.0754 C   0  0  0  0  0  0
  -22.4289   -8.0280   21.3545 C   0  0  0  0  0  0
  -21.9936   -9.0254   20.4644 C   0  0  0  0  0  0
  -22.7281  -10.2120   20.3048 C   0  0  0  0  0  0
  -21.6856   -6.0737   22.5279 C   0  0  0  0  0  0
  -21.4018   -6.5640   23.8213 C   0  0  0  0  0  0
  -21.3658   -5.6791   24.9173 C   0  0  0  0  0  0
  -21.6043   -4.3054   24.7224 C   0  0  0  0  0  0
  -21.8819   -3.8147   23.4345 C   0  0  0  0  0  0
  -21.9195   -4.6964   22.3403 C   0  0  0  0  0  0
  -22.7710  -13.5134   21.1898 C   0  0  0  0  0  0
  -22.1662   -4.2151   21.0980 F   0  0  0  0  0  0
  -21.5626   -3.4537   25.7736 F   0  0  0  0  0  0
  -29.8291  -14.1292   20.3040 N   0  0  0  0  0  0
  -26.2787  -12.9586   20.3257 N   0  0  0  0  0  0
  -25.9363  -11.6662   20.5735 N   0  0  0  0  0  0
  -22.0385  -12.8124   22.0467 N   0  0  0  0  0  0
  -25.3753  -15.1966   20.4186 N   0  0  0  0  0  0
  -31.5920  -15.4313   20.1598 O   0  0  0  0  0  0
  -21.6643   -6.8884   21.4244 O   0  0  0  0  0  0
  -22.3386  -14.5442   20.6749 O   0  0  0  0  0  0
  -24.6747  -31.8105   23.1602 C   0  0  0  0  0  0
  -25.9374  -32.4519   23.8110 C   0  0  1  0  0  0
  -27.2223  -26.7968   20.2064 C   0  0  0  0  0  0
  -25.5993  -33.8339   24.2005 N   0  0  0  0  0  0
  -23.4961  -30.4166   21.5119 C   0  0  2  0  0  0
  -24.9518  -28.7754   20.1186 C   0  0  0  0  0  0
  -22.7724  -29.4373   22.4746 C   0  0  0  0  0  0
  -18.0336  -28.1414   22.8464 C   0  0  0  0  0  0
  -24.1495  -36.7178   23.2650 C   0  0  0  0  0  0
  -26.0719  -30.5729   21.4120 C   0  0  0  0  0  0
  -26.1376  -29.1465   20.7646 C   0  0  0  0  0  0
  -27.2612  -28.1812   20.7823 C   0  0  0  0  0  0
  -26.0082  -26.6148   19.5009 C   0  0  0  0  0  0
  -24.9197  -27.5323   19.4654 C   0  0  0  0  0  0
  -23.7448  -29.7208   20.1436 C   0  0  0  0  0  0
  -25.4142  -36.2928   24.0289 C   0  0  1  0  0  0
  -20.5966  -28.3770   23.1164 C   0  0  2  0  0  0
  -20.6804  -26.9438   22.5403 C   0  0  0  0  0  0
  -19.5778  -26.6373   21.5217 C   0  0  0  0  0  0
  -18.1962  -26.7944   22.1623 C   0  0  0  0  0  0
  -19.1599  -28.8915   23.2797 C   0  0  0  0  0  0
  -18.9504  -30.1502   23.8837 C   0  0  0  0  0  0
  -17.6493  -30.6598   24.0555 C   0  0  0  0  0  0
  -25.9116  -34.9313   23.4976 C   0  0  0  0  0  0
  -16.5384  -29.9081   23.6346 C   0  0  0  0  0  0
  -16.7317  -28.6504   23.0364 C   0  0  0  0  0  0
  -26.4582  -31.6514   25.0692 C   0  0  0  0  0  0
  -25.3675  -31.3799   26.1325 C   0  0  0  0  0  0
  -27.0498  -30.2864   24.6522 C   0  0  0  0  0  0
  -27.6048  -32.4353   25.7505 C   0  0  0  0  0  0
  -27.5567  -37.1747   24.8468 C   0  0  0  0  0  0
  -21.4382  -29.3036   22.3496 N   0  0  0  0  0  0
  -26.4275  -37.3677   23.9407 N   0  0  0  0  0  0
  -24.7701  -30.9643   22.0807 N   0  0  0  0  0  0
  -23.4212  -28.7966   23.3050 O   0  0  0  0  0  0
  -28.2085  -25.6289   20.2371 O   0  0  0  0  0  0
  -26.5742  -34.8873   22.4584 O   0  0  0  0  0  0
  -23.5788  -32.1134   23.6616 O   0  0  0  0  0  0
  -28.6174  -19.5785   20.4793 C   0  0  0  0  0  0
  -28.3287  -21.1214   20.4211 C   0  0  0  0  0  0
  -27.2995  -19.1160   20.8150 C   0  0  0  0  0  0
  -28.7065  -22.7451   20.2803 C   0  0  0  0  0  0
  -27.9611  -24.0695   20.3116 C   0  0  0  0  0  0
  -29.7712  -18.3043   20.3458 C   0  0  0  0  0  0
  -26.3490  -20.0083   20.8287 N   0  0  0  0  0  0
  -26.9254  -17.8122   21.1137 N   0  0  0  0  0  0
  -29.5794  -16.7845   20.4127 N   0  0  0  0  0  0
  -30.9237  -18.7072   20.1643 O   0  0  0  0  0  0
  -26.9781  -21.2191   20.6008 O   0  0  0  0  0  0
  -31.4394  -13.1906   19.1913 H   0  0  0  0  0  0
  -30.5464  -12.0852   20.1831 H   0  0  0  0  0  0
  -29.9639  -11.7855   17.7511 H   0  0  0  0  0  0
  -29.5393  -13.4756   17.6283 H   0  0  0  0  0  0
  -28.0952  -11.2938   19.1486 H   0  0  0  0  0  0
  -27.4356  -12.2985   17.8814 H   0  0  0  0  0  0
  -27.4847  -14.2428   19.2868 H   0  0  0  0  0  0
  -28.8445  -12.6528   21.5122 H   0  0  0  0  0  0
  -28.2265  -14.2814   21.6590 H   0  0  0  0  0  0
  -25.2787   -9.5666   22.4765 H   0  0  0  0  0  0
  -24.0006   -7.4629   22.7480 H   0  0  0  0  0  0
  -21.0865   -8.8784   19.8954 H   0  0  0  0  0  0
  -22.3742  -10.9664   19.6159 H   0  0  0  0  0  0
  -21.2013   -7.6147   23.9718 H   0  0  0  0  0  0
  -21.1479   -6.0519   25.9076 H   0  0  0  0  0  0
  -22.0599   -2.7611   23.2844 H   0  0  0  0  0  0
  -22.4031  -11.9797   22.4860 H   0  0  0  0  0  0
  -21.0998  -13.1128   22.2676 H   0  0  0  0  0  0
  -24.5860  -15.8203   20.5391 H   0  0  0  0  0  0
  -26.2284  -15.6910   20.1848 H   0  0  0  0  0  0
  -26.7452  -32.5018   23.0824 H   0  0  0  0  0  0
  -25.0071  -33.9395   25.0111 H   0  0  0  0  0  0
  -22.8162  -31.2517   21.3300 H   0  0  0  0  0  0
  -23.3771  -35.9494   23.3272 H   0  0  0  0  0  0
  -24.3569  -36.8873   22.2073 H   0  0  0  0  0  0
  -23.7240  -37.6345   23.6742 H   0  0  0  0  0  0
  -26.2645  -31.3022   20.6239 H   0  0  0  0  0  0
  -26.9268  -30.6381   22.0725 H   0  0  0  0  0  0
  -28.1582  -28.4693   21.3122 H   0  0  0  0  0  0
  -25.8679  -25.6730   18.9900 H   0  0  0  0  0  0
  -24.0244  -27.2424   18.9326 H   0  0  0  0  0  0
  -23.9143  -30.4838   19.3829 H   0  0  0  0  0  0
  -22.8509  -29.1838   19.8215 H   0  0  0  0  0  0
  -25.1346  -36.1705   25.0780 H   0  0  0  0  0  0
  -21.0053  -28.3386   24.1289 H   0  0  0  0  0  0
  -20.5678  -26.2392   23.3658 H   0  0  0  0  0  0
  -21.6668  -26.7396   22.1218 H   0  0  0  0  0  0
  -19.6935  -25.6267   21.1291 H   0  0  0  0  0  0
  -19.6718  -27.3149   20.6721 H   0  0  0  0  0  0
  -17.4233  -26.6694   21.4026 H   0  0  0  0  0  0
  -18.0353  -26.0097   22.9029 H   0  0  0  0  0  0
  -19.7978  -30.7341   24.2175 H   0  0  0  0  0  0
  -17.5041  -31.6273   24.5169 H   0  0  0  0  0  0
  -15.5380  -30.2962   23.7701 H   0  0  0  0  0  0
  -15.8721  -28.0803   22.7107 H   0  0  0  0  0  0
  -24.5886  -30.7120   25.7631 H   0  0  0  0  0  0
  -24.8834  -32.3008   26.4584 H   0  0  0  0  0  0
  -25.7879  -30.9078   27.0213 H   0  0  0  0  0  0
  -26.3194  -29.6505   24.1510 H   0  0  0  0  0  0
  -27.3958  -29.7276   25.5228 H   0  0  0  0  0  0
  -27.9164  -30.4012   24.0009 H   0  0  0  0  0  0
  -27.2600  -33.3714   26.1910 H   0  0  0  0  0  0
  -28.3947  -32.6815   25.0398 H   0  0  0  0  0  0
  -28.0616  -31.8595   26.5564 H   0  0  0  0  0  0
  -28.2559  -38.0064   24.7510 H   0  0  0  0  0  0
  -28.1085  -36.2587   24.6300 H   0  0  0  0  0  0
  -27.2281  -37.1393   25.8869 H   0  0  0  0  0  0
  -20.9664  -29.8703   21.6587 H   0  0  0  0  0  0
  -26.0111  -38.2731   24.1413 H   0  0  0  0  0  0
  -29.7699  -22.8714   20.1427 H   0  0  0  0  0  0
  -26.8955  -23.9497   20.4467 H   0  0  0  0  0  0
  -27.3976  -17.4578   21.9365 H   0  0  0  0  0  0
  -25.9300  -17.7592   21.2945 H   0  0  0  0  0  0
  -28.5931  -16.5949   20.5207 H   0  0  0  0  0  0
  1 25  1  0  0  0
  1 30  2  0  0  0
  1 79  1  0  0  0
  2  3  1  0  0  0
  2 25  1  0  0  0
  2 82  1  0  0  0
  2 83  1  0  0  0
  3  4  1  0  0  0
  3 84  1  0  0  0
  3 85  1  0  0  0
  4  5  1  0  0  0
  4 86  1  0  0  0
  4 87  1  0  0  0
  5  6  1  0  0  0
  5 26  1  0  0  0
  5 88  1  0  0  0
  6 25  1  0  0  0
  6 89  1  0  0  0
  6 90  1  0  0  0
  7  8  2  0  0  0
  7 26  1  0  0  0
  7 29  1  0  0  0
  8  9  1  0  0  0
  8 22  1  0  0  0
  9 10  1  0  0  0
  9 27  2  0  0  0
 10 11  2  0  0  0
 10 15  1  0  0  0
 11 12  1  0  0  0
 11 91  1  0  0  0
 12 13  2  0  0  0
 12 92  1  0  0  0
 13 14  1  0  0  0
 13 31  1  0  0  0
 14 15  2  0  0  0
 14 93  1  0  0  0
 15 94  1  0  0  0
 16 17  2  0  0  0
 16 21  1  0  0  0
 16 31  1  0  0  0
 17 18  1  0  0  0
 17 95  1  0  0  0
 18 19  2  0  0  0
 18 96  1  0  0  0
 19 20  1  0  0  0
 19 24  1  0  0  0
 20 21  2  0  0  0
 20 97  1  0  0  0
 21 23  1  0  0  0
 22 28  1  0  0  0
 22 32  2  0  0  0
 26 27  1  0  0  0
 28 98  1  0  0  0
 28 99  1  0  0  0
 29100  1  0  0  0
 29101  1  0  0  0
 33 34  1  0  0  0
 33 66  1  0  0  0
 33 70  2  0  0  0
 34 36  1  0  0  0
 34 59  1  0  0  0
 34102  1  0  0  0
 35 44  2  0  0  0
 35 45  1  0  0  0
 35 68  1  0  0  0
 36 56  1  0  0  0
 36103  1  0  0  0
 37 39  1  0  0  0
 37 47  1  0  0  0
 37 66  1  0  0  0
 37104  1  0  0  0
 38 43  2  0  0  0
 38 46  1  0  0  0
 38 47  1  0  0  0
 39 64  1  0  0  0
 39 67  2  0  0  0
 40 52  1  0  0  0
 40 53  2  0  0  0
 40 58  1  0  0  0
 41105  1  0  0  0
 41106  1  0  0  0
 41107  1  0  0  0
 41 48  1  0  0  0
 42 43  1  0  0  0
 42 66  1  0  0  0
 42108  1  0  0  0
 42109  1  0  0  0
 43 44  1  0  0  0
 44110  1  0  0  0
 45 46  2  0  0  0
 45111  1  0  0  0
 46112  1  0  0  0
 47113  1  0  0  0
 47114  1  0  0  0
 48 56  1  0  0  0
 48 65  1  0  0  0
 48115  1  0  0  0
 49 50  1  0  0  0
 49 53  1  0  0  0
 49 64  1  0  0  0
 49116  1  0  0  0
 50 51  1  0  0  0
 50117  1  0  0  0
 50118  1  0  0  0
 51 52  1  0  0  0
 51119  1  0  0  0
 51120  1  0  0  0
 52121  1  0  0  0
 52122  1  0  0  0
 53 54  1  0  0  0
 54 55  2  0  0  0
 54123  1  0  0  0
 55 57  1  0  0  0
 55124  1  0  0  0
 56 69  2  0  0  0
 57 58  2  0  0  0
 57125  1  0  0  0
 58126  1  0  0  0
 59 60  1  0  0  0
 59 61  1  0  0  0
 59 62  1  0  0  0
 60127  1  0  0  0
 60128  1  0  0  0
 60129  1  0  0  0
 61130  1  0  0  0
 61131  1  0  0  0
 61132  1  0  0  0
 62133  1  0  0  0
 62134  1  0  0  0
 62135  1  0  0  0
 63 65  1  0  0  0
 63136  1  0  0  0
 63137  1  0  0  0
 63138  1  0  0  0
 64139  1  0  0  0
 65140  1  0  0  0
 68 75  1  0  0  0
 71 72  2  0  0  0
 71 73  1  0  0  0
 71 76  1  0  0  0
 72 74  1  0  0  0
 72 81  1  0  0  0
 73 77  2  0  0  0
 73 78  1  0  0  0
 74 75  2  0  0  0
 74141  1  0  0  0
 75142  1  0  0  0
 76 79  1  0  0  0
 76 80  2  0  0  0
 77 81  1  0  0  0
 78143  1  0  0  0
 78144  1  0  0  0
 79145  1  0  0  0
M  ISO  4   1 100  68 101  75 101  79 100
M  END
> <chiral flag>
0

> <version>
0

> <s_m_source_file>
/data/baiqing/PycharmProjects/Reinvent-master-3.2/result/LINK_invent/BTK/process_docking_weight1_custom_product_contain_oxygen_bond_distance_aromatic_linkinvent_7_9_3/rearranged_h_0112.sdf

> <i_m_source_file_index>
7

> <r_mmod_Potential_Energy-OPLS-2005>
1707.3505859375

> <r_mmod_Stretch_Energy-OPLS-2005>
766.643676757812

> <r_mmod_Bend_Energy-OPLS-2005>
583.818420410156

> <r_mmod_Torsional_Energy-OPLS-2005>
231.03532409668

> <r_mmod_Improper_Torsional_Energy-OPLS-2005>
9.63766765594482

> <r_mmod_Van_der_Waal_Energy-OPLS-2005>
113.306228637695

> <r_mmod_Electrostatic_Energy-OPLS-2005>
-443.442657470703

> <r_mmod_Solvation_Energy-OPLS-2005>
-240.742630004883

> <b_mmod_Minimization_Converged-OPLS-2005>
0

> <r_mmod_RMS_Derivative-OPLS-2005>
0.579012751579285

$$$$
7
                    3D
 Structure written by MMmdl.
160169  0  0  1  0            999 V2000
  -30.7039  -14.6641   20.4859 C   0  0  0  0  0  0
  -30.4098  -12.4128   19.4656 C   0  0  0  0  0  0
  -29.4977  -12.4989   18.2267 C   0  0  0  0  0  0
  -28.0240  -12.3402   18.6419 C   0  0  0  0  0  0
  -27.6400  -13.2372   19.8496 C   0  0  2  0  0  0
  -28.6881  -13.1770   20.9828 C   0  0  0  0  0  0
  -25.2500  -13.8207   20.5718 C   0  0  0  0  0  0
  -24.1794  -13.0445   20.9208 C   0  0  0  0  0  0
  -24.6395  -11.6929   20.8752 C   0  0  0  0  0  0
  -23.9075  -10.4299   21.0406 C   0  0  0  0  0  0
  -24.3626   -9.4211   21.9178 C   0  0  0  0  0  0
  -23.6302   -8.2245   22.0749 C   0  0  0  0  0  0
  -22.4282   -8.0283   21.3543 C   0  0  0  0  0  0
  -21.9915   -9.0257   20.4645 C   0  0  0  0  0  0
  -22.7245  -10.2135   20.3055 C   0  0  0  0  0  0
  -21.6853   -6.0739   22.5279 C   0  0  0  0  0  0
  -21.4015   -6.5643   23.8214 C   0  0  0  0  0  0
  -21.3661   -5.6794   24.9174 C   0  0  0  0  0  0
  -21.6044   -4.3056   24.7223 C   0  0  0  0  0  0
  -21.8819   -3.8149   23.4345 C   0  0  0  0  0  0
  -21.9195   -4.6967   22.3401 C   0  0  0  0  0  0
  -22.7815  -13.5222   21.1863 C   0  0  0  0  0  0
  -22.1663   -4.2152   21.0979 F   0  0  0  0  0  0
  -21.5627   -3.4536   25.7735 F   0  0  0  0  0  0
  -29.9929  -13.4915   20.3907 N   0  0  0  0  0  0
  -26.2935  -12.9435   20.3302 N   0  0  0  0  0  0
  -25.9331  -11.6571   20.5764 N   0  0  0  0  0  0
  -22.0466  -12.8212   22.0425 N   0  0  0  0  0  0
  -25.4196  -15.1928   20.4173 N   0  0  0  0  0  0
  -31.8935  -14.6477   20.1629 O   0  0  0  0  0  0
  -21.6645   -6.8880   21.4240 O   0  0  0  0  0  0
  -22.3498  -14.5525   20.6710 O   0  0  0  0  0  0
  -24.6284  -31.8586   23.2054 C   0  0  0  0  0  0
  -25.9133  -32.4771   23.8371 C   0  0  1  0  0  0
  -27.2061  -27.2984   20.1179 C   0  0  0  0  0  0
  -25.5952  -33.8577   24.2292 N   0  0  0  0  0  0
  -23.4225  -30.4858   21.5477 C   0  0  2  0  0  0
  -24.8687  -28.9485   20.1056 C   0  0  0  0  0  0
  -22.7486  -29.4618   22.4925 C   0  0  0  0  0  0
  -18.0284  -28.1386   22.8480 C   0  0  0  0  0  0
  -24.1493  -36.7285   23.2637 C   0  0  0  0  0  0
  -25.9681  -30.7813   21.3848 C   0  0  0  0  0  0
  -26.0400  -29.4102   20.7217 C   0  0  0  0  0  0
  -27.2153  -28.5956   20.7229 C   0  0  0  0  0  0
  -26.0261  -26.9193   19.4393 C   0  0  0  0  0  0
  -24.8655  -27.7090   19.4528 C   0  0  0  0  0  0
  -23.6379  -29.8293   20.1602 C   0  0  0  0  0  0
  -25.4116  -36.3077   24.0330 C   0  0  1  0  0  0
  -20.5887  -28.3688   23.1278 C   0  0  2  0  0  0
  -20.6770  -26.9405   22.5424 C   0  0  0  0  0  0
  -19.5756  -26.6380   21.5213 C   0  0  0  0  0  0
  -18.1928  -26.7935   22.1604 C   0  0  0  0  0  0
  -19.1539  -28.8854   23.2872 C   0  0  0  0  0  0
  -18.9460  -30.1455   23.8889 C   0  0  0  0  0  0
  -17.6459  -30.6585   24.0563 C   0  0  0  0  0  0
  -25.9054  -34.9447   23.5102 C   0  0  0  0  0  0
  -16.5350  -29.9082   23.6338 C   0  0  0  0  0  0
  -16.7269  -28.6503   23.0352 C   0  0  0  0  0  0
  -26.4510  -31.6588   25.0746 C   0  0  0  0  0  0
  -25.3742  -31.3767   26.1480 C   0  0  0  0  0  0
  -27.0332  -30.2989   24.6242 C   0  0  0  0  0  0
  -27.6077  -32.4326   25.7496 C   0  0  0  0  0  0
  -27.5588  -37.1787   24.8457 C   0  0  0  0  0  0
  -21.4196  -29.3037   22.3667 N   0  0  0  0  0  0
  -26.4288  -37.3774   23.9418 N   0  0  0  0  0  0
  -24.6914  -31.0586   22.1018 N   0  0  0  0  0  0
  -23.4204  -28.8146   23.3000 O   0  0  0  0  0  0
  -28.2622  -26.3709   20.1879 O   0  0  0  0  0  0
  -26.5604  -34.8912   22.4658 O   0  0  0  0  0  0
  -23.5445  -32.1393   23.7373 O   0  0  0  0  0  0
  -28.6002  -20.2132   19.4869 C   0  0  0  0  0  0
  -29.6268  -20.8361   21.5512 C   0  0  0  0  0  0
  -29.8748  -18.4634   20.7449 C   0  0  0  0  0  0
  -28.8721  -21.2462   20.4264 C   0  0  0  0  0  0
  -29.0980  -18.8704   19.6070 C   0  0  0  0  0  0
  -30.0995  -19.4978   21.7168 C   0  0  0  0  0  0
  -29.6828  -17.4819   17.6531 C   0  0  0  0  0  0
  -28.7537  -23.7236   20.5307 C   0  0  0  0  0  0
  -30.6327  -17.1064   20.8498 C   0  0  0  0  0  0
  -28.9978  -16.6383   16.5937 C   0  0  0  0  0  0
  -27.5433  -16.5886   17.0670 C   0  0  0  0  0  0
  -27.4283  -17.6895   18.1300 C   0  0  0  0  0  0
  -27.8497  -25.0172   20.6728 C   0  0  0  0  0  0
  -28.2486  -22.5404   20.2954 N   0  0  0  0  0  0
  -28.7978  -17.9704   18.5404 N   0  0  0  0  0  0
  -30.0399  -15.8608   20.7086 N   0  0  0  0  0  0
  -30.9051  -17.6443   17.6793 O   0  0  0  0  0  0
  -31.8455  -17.2144   21.0643 O   0  0  0  0  0  0
  -30.9569  -19.1778   23.1888 Cl  0  0  0  0  0  0
  -31.4554  -12.4854   19.1620 H   0  0  0  0  0  0
  -30.3127  -11.4397   19.9493 H   0  0  0  0  0  0
  -29.7675  -11.7277   17.5039 H   0  0  0  0  0  0
  -29.6415  -13.4562   17.7239 H   0  0  0  0  0  0
  -27.8695  -11.2914   18.8970 H   0  0  0  0  0  0
  -27.3673  -12.5451   17.7953 H   0  0  0  0  0  0
  -27.6339  -14.2593   19.4727 H   0  0  0  0  0  0
  -28.7075  -12.1880   21.4433 H   0  0  0  0  0  0
  -28.4379  -13.8813   21.7779 H   0  0  0  0  0  0
  -25.2772   -9.5687   22.4750 H   0  0  0  0  0  0
  -24.0012   -7.4635   22.7468 H   0  0  0  0  0  0
  -21.0841   -8.8775   19.8955 H   0  0  0  0  0  0
  -22.3700  -10.9673   19.6166 H   0  0  0  0  0  0
  -21.2008   -7.6152   23.9717 H   0  0  0  0  0  0
  -21.1481   -6.0524   25.9077 H   0  0  0  0  0  0
  -22.0597   -2.7612   23.2842 H   0  0  0  0  0  0
  -22.4086  -11.9876   22.4813 H   0  0  0  0  0  0
  -21.1090  -13.1243   22.2645 H   0  0  0  0  0  0
  -24.6520  -15.8457   20.5315 H   0  0  0  0  0  0
  -26.2734  -15.6342   20.1085 H   0  0  0  0  0  0
  -26.7196  -32.5428   23.1112 H   0  0  0  0  0  0
  -25.0149  -33.9727   25.0471 H   0  0  0  0  0  0
  -22.7175  -31.3079   21.4084 H   0  0  0  0  0  0
  -23.3759  -35.9612   23.3286 H   0  0  0  0  0  0
  -24.3595  -36.8912   22.2054 H   0  0  0  0  0  0
  -23.7237  -37.6482   23.6662 H   0  0  0  0  0  0
  -26.1102  -31.5473   20.6213 H   0  0  0  0  0  0
  -26.8450  -30.8221   22.0194 H   0  0  0  0  0  0
  -28.1071  -28.9355   21.2311 H   0  0  0  0  0  0
  -25.9765  -25.9870   18.8965 H   0  0  0  0  0  0
  -23.9757  -27.3583   18.9484 H   0  0  0  0  0  0
  -23.7592  -30.6102   19.4086 H   0  0  0  0  0  0
  -22.7569  -29.2627   19.8533 H   0  0  0  0  0  0
  -25.1294  -36.1919   25.0820 H   0  0  0  0  0  0
  -20.9979  -28.3265   24.1398 H   0  0  0  0  0  0
  -20.5650  -26.2298   23.3628 H   0  0  0  0  0  0
  -21.6638  -26.7421   22.1232 H   0  0  0  0  0  0
  -19.6915  -25.6287   21.1250 H   0  0  0  0  0  0
  -19.6713  -27.3183   20.6740 H   0  0  0  0  0  0
  -17.4212  -26.6703   21.3987 H   0  0  0  0  0  0
  -18.0297  -26.0068   22.8984 H   0  0  0  0  0  0
  -19.7937  -30.7272   24.2254 H   0  0  0  0  0  0
  -17.5015  -31.6263   24.5163 H   0  0  0  0  0  0
  -15.5351  -30.2979   23.7676 H   0  0  0  0  0  0
  -15.8667  -28.0823   22.7070 H   0  0  0  0  0  0
  -24.5971  -30.7022   25.7866 H   0  0  0  0  0  0
  -24.8860  -32.2938   26.4791 H   0  0  0  0  0  0
  -25.8085  -30.9085   27.0322 H   0  0  0  0  0  0
  -26.2904  -29.6751   24.1257 H   0  0  0  0  0  0
  -27.3969  -29.7249   25.4774 H   0  0  0  0  0  0
  -27.8814  -30.4229   23.9506 H   0  0  0  0  0  0
  -27.2695  -33.3633   26.2066 H   0  0  0  0  0  0
  -28.3883  -32.6879   25.0315 H   0  0  0  0  0  0
  -28.0755  -31.8458   26.5413 H   0  0  0  0  0  0
  -28.2602  -38.0088   24.7506 H   0  0  0  0  0  0
  -28.1083  -36.2621   24.6262 H   0  0  0  0  0  0
  -27.2317  -37.1409   25.8861 H   0  0  0  0  0  0
  -20.9370  -29.8776   21.6894 H   0  0  0  0  0  0
  -26.0168  -38.2841   24.1440 H   0  0  0  0  0  0
  -28.0003  -20.4691   18.6245 H   0  0  0  0  0  0
  -29.8254  -21.5491   22.3385 H   0  0  0  0  0  0
  -29.8202  -23.8804   20.7145 H   0  0  0  0  0  0
  -29.4454  -15.6468   16.5253 H   0  0  0  0  0  0
  -29.0887  -17.1328   15.6268 H   0  0  0  0  0  0
  -27.3289  -15.6132   17.5050 H   0  0  0  0  0  0
  -26.8383  -16.7407   16.2490 H   0  0  0  0  0  0
  -26.8108  -17.3826   18.9743 H   0  0  0  0  0  0
  -26.9823  -18.5860   17.6975 H   0  0  0  0  0  0
  -27.6668  -25.1376   21.7408 H   0  0  0  0  0  0
  -26.8825  -24.7211   20.2750 H   0  0  0  0  0  0
  -29.0355  -15.8317   20.7347 H   0  0  0  0  0  0
  1 25  1  0  0  0
  1 30  2  0  0  0
  1 86  1  0  0  0
  2  3  1  0  0  0
  2 25  1  0  0  0
  2 90  1  0  0  0
  2 91  1  0  0  0
  3  4  1  0  0  0
  3 92  1  0  0  0
  3 93  1  0  0  0
  4  5  1  0  0  0
  4 94  1  0  0  0
  4 95  1  0  0  0
  5  6  1  0  0  0
  5 26  1  0  0  0
  5 96  1  0  0  0
  6 25  1  0  0  0
  6 97  1  0  0  0
  6 98  1  0  0  0
  7  8  2  0  0  0
  7 26  1  0  0  0
  7 29  1  0  0  0
  8  9  1  0  0  0
  8 22  1  0  0  0
  9 10  1  0  0  0
  9 27  2  0  0  0
 10 11  2  0  0  0
 10 15  1  0  0  0
 11 12  1  0  0  0
 11 99  1  0  0  0
 12 13  2  0  0  0
 12100  1  0  0  0
 13 14  1  0  0  0
 13 31  1  0  0  0
 14 15  2  0  0  0
 14101  1  0  0  0
 15102  1  0  0  0
 16 17  2  0  0  0
 16 21  1  0  0  0
 16 31  1  0  0  0
 17 18  1  0  0  0
 17103  1  0  0  0
 18 19  2  0  0  0
 18104  1  0  0  0
 19 20  1  0  0  0
 19 24  1  0  0  0
 20 21  2  0  0  0
 20105  1  0  0  0
 21 23  1  0  0  0
 22 28  1  0  0  0
 22 32  2  0  0  0
 26 27  1  0  0  0
 28106  1  0  0  0
 28107  1  0  0  0
 29108  1  0  0  0
 29109  1  0  0  0
 33 34  1  0  0  0
 33 66  1  0  0  0
 33 70  2  0  0  0
 34 36  1  0  0  0
 34 59  1  0  0  0
 34110  1  0  0  0
 35 44  2  0  0  0
 35 45  1  0  0  0
 35 68  1  0  0  0
 36 56  1  0  0  0
 36111  1  0  0  0
 37 39  1  0  0  0
 37 47  1  0  0  0
 37 66  1  0  0  0
 37112  1  0  0  0
 38 43  2  0  0  0
 38 46  1  0  0  0
 38 47  1  0  0  0
 39 64  1  0  0  0
 39 67  2  0  0  0
 40 52  1  0  0  0
 40 53  2  0  0  0
 40 58  1  0  0  0
 41113  1  0  0  0
 41114  1  0  0  0
 41115  1  0  0  0
 41 48  1  0  0  0
 42 43  1  0  0  0
 42 66  1  0  0  0
 42116  1  0  0  0
 42117  1  0  0  0
 43 44  1  0  0  0
 44118  1  0  0  0
 45 46  2  0  0  0
 45119  1  0  0  0
 46120  1  0  0  0
 47121  1  0  0  0
 47122  1  0  0  0
 48 56  1  0  0  0
 48 65  1  0  0  0
 48123  1  0  0  0
 49 50  1  0  0  0
 49 53  1  0  0  0
 49 64  1  0  0  0
 49124  1  0  0  0
 50 51  1  0  0  0
 50125  1  0  0  0
 50126  1  0  0  0
 51 52  1  0  0  0
 51127  1  0  0  0
 51128  1  0  0  0
 52129  1  0  0  0
 52130  1  0  0  0
 53 54  1  0  0  0
 54 55  2  0  0  0
 54131  1  0  0  0
 55 57  1  0  0  0
 55132  1  0  0  0
 56 69  2  0  0  0
 57 58  2  0  0  0
 57133  1  0  0  0
 58134  1  0  0  0
 59 60  1  0  0  0
 59 61  1  0  0  0
 59 62  1  0  0  0
 60135  1  0  0  0
 60136  1  0  0  0
 60137  1  0  0  0
 61138  1  0  0  0
 61139  1  0  0  0
 61140  1  0  0  0
 62141  1  0  0  0
 62142  1  0  0  0
 62143  1  0  0  0
 63 65  1  0  0  0
 63144  1  0  0  0
 63145  1  0  0  0
 63146  1  0  0  0
 64147  1  0  0  0
 65148  1  0  0  0
 68 83  1  0  0  0
 71 74  2  0  0  0
 71 75  1  0  0  0
 71149  1  0  0  0
 72 74  1  0  0  0
 72 76  2  0  0  0
 72150  1  0  0  0
 73 75  2  0  0  0
 73 76  1  0  0  0
 73 79  1  0  0  0
 74 84  1  0  0  0
 75 85  1  0  0  0
 76 89  1  0  0  0
 77 80  1  0  0  0
 77 85  1  0  0  0
 77 87  2  0  0  0
 78 83  1  0  0  0
 78 84  2  0  0  0
 78151  1  0  0  0
 79 86  1  0  0  0
 79 88  2  0  0  0
 80 81  1  0  0  0
 80152  1  0  0  0
 80153  1  0  0  0
 81 82  1  0  0  0
 81154  1  0  0  0
 81155  1  0  0  0
 82 85  1  0  0  0
 82156  1  0  0  0
 82157  1  0  0  0
 83158  1  0  0  0
 83159  1  0  0  0
 86160  1  0  0  0
M  ISO  4   1 100  68 101  83 101  86 100
M  END
> <chiral flag>
0

> <version>
0

> <s_m_source_file>
/data/baiqing/PycharmProjects/Reinvent-master-3.2/result/LINK_invent/BTK/process_docking_weight1_custom_product_contain_oxygen_bond_distance_aromatic_linkinvent_7_9_3/rearranged_h_0112.sdf

> <i_m_source_file_index>
8

> <r_mmod_Potential_Energy-OPLS-2005>
241.217147827148

> <r_mmod_Stretch_Energy-OPLS-2005>
96.6797409057617

> <r_mmod_Bend_Energy-OPLS-2005>
190.258529663086

> <r_mmod_Torsional_Energy-OPLS-2005>
335.868957519531

> <r_mmod_Improper_Torsional_Energy-OPLS-2005>
7.84417057037354

> <r_mmod_Van_der_Waal_Energy-OPLS-2005>
142.780853271484

> <r_mmod_Electrostatic_Energy-OPLS-2005>
-343.99951171875

> <r_mmod_Solvation_Energy-OPLS-2005>
-258.154144287109

> <b_mmod_Minimization_Converged-OPLS-2005>
0

> <r_mmod_RMS_Derivative-OPLS-2005>
0.751361548900604

$$$$
8
                    3D
 Structure written by MMmdl.
160168  0  0  1  0            999 V2000
  -30.6167  -14.7851   20.3760 C   0  0  0  0  0  0
  -30.4436  -12.4530   19.4732 C   0  0  0  0  0  0
  -29.5049  -12.3473   18.2474 C   0  0  0  0  0  0
  -28.0226  -12.2729   18.6622 C   0  0  0  0  0  0
  -27.6358  -13.2204   19.8316 C   0  0  2  0  0  0
  -28.6921  -13.2208   20.9552 C   0  0  0  0  0  0
  -25.2537  -13.8196   20.5721 C   0  0  0  0  0  0
  -24.1801  -13.0455   20.9216 C   0  0  0  0  0  0
  -24.6368  -11.6931   20.8783 C   0  0  0  0  0  0
  -23.9049  -10.4302   21.0433 C   0  0  0  0  0  0
  -24.3612   -9.4212   21.9194 C   0  0  0  0  0  0
  -23.6290   -8.2246   22.0762 C   0  0  0  0  0  0
  -22.4270   -8.0284   21.3555 C   0  0  0  0  0  0
  -21.9907   -9.0256   20.4653 C   0  0  0  0  0  0
  -22.7231  -10.2142   20.3065 C   0  0  0  0  0  0
  -21.6856   -6.0731   22.5273 C   0  0  0  0  0  0
  -21.4016   -6.5635   23.8206 C   0  0  0  0  0  0
  -21.3663   -5.6791   24.9171 C   0  0  0  0  0  0
  -21.6048   -4.3052   24.7227 C   0  0  0  0  0  0
  -21.8822   -3.8140   23.4349 C   0  0  0  0  0  0
  -21.9193   -4.6958   22.3401 C   0  0  0  0  0  0
  -22.7817  -13.5247   21.1855 C   0  0  0  0  0  0
  -22.1657   -4.2137   21.0981 F   0  0  0  0  0  0
  -21.5635   -3.4536   25.7745 F   0  0  0  0  0  0
  -29.9748  -13.5633   20.3322 N   0  0  0  0  0  0
  -26.2935  -12.9370   20.3301 N   0  0  0  0  0  0
  -25.9301  -11.6534   20.5839 N   0  0  0  0  0  0
  -22.0465  -12.8230   22.0413 N   0  0  0  0  0  0
  -25.4286  -15.1911   20.4135 N   0  0  0  0  0  0
  -31.8464  -14.8182   20.2785 O   0  0  0  0  0  0
  -21.6644   -6.8875   21.4235 O   0  0  0  0  0  0
  -22.3495  -14.5541   20.6695 O   0  0  0  0  0  0
  -24.6292  -31.8558   23.1980 C   0  0  0  0  0  0
  -25.9124  -32.4759   23.8321 C   0  0  1  0  0  0
  -27.2198  -27.2730   20.1392 C   0  0  0  0  0  0
  -25.5923  -33.8560   24.2247 N   0  0  0  0  0  0
  -23.4265  -30.4774   21.5406 C   0  0  2  0  0  0
  -24.8755  -28.9245   20.1127 C   0  0  0  0  0  0
  -22.7487  -29.4606   22.4904 C   0  0  0  0  0  0
  -18.0288  -28.1404   22.8477 C   0  0  0  0  0  0
  -24.1484  -36.7281   23.2637 C   0  0  0  0  0  0
  -25.9703  -30.7733   21.3765 C   0  0  0  0  0  0
  -26.0462  -29.3960   20.7208 C   0  0  0  0  0  0
  -27.2241  -28.5838   20.7200 C   0  0  0  0  0  0
  -26.0317  -26.8684   19.4941 C   0  0  0  0  0  0
  -24.8726  -27.6687   19.4864 C   0  0  0  0  0  0
  -23.6458  -29.8100   20.1575 C   0  0  0  0  0  0
  -25.4113  -36.3070   24.0321 C   0  0  1  0  0  0
  -20.5885  -28.3715   23.1266 C   0  0  2  0  0  0
  -20.6779  -26.9434   22.5410 C   0  0  0  0  0  0
  -19.5764  -26.6395   21.5209 C   0  0  0  0  0  0
  -18.1938  -26.7947   22.1612 C   0  0  0  0  0  0
  -19.1539  -28.8875   23.2867 C   0  0  0  0  0  0
  -18.9464  -30.1471   23.8895 C   0  0  0  0  0  0
  -17.6468  -30.6606   24.0565 C   0  0  0  0  0  0
  -25.9056  -34.9442   23.5088 C   0  0  0  0  0  0
  -16.5357  -29.9106   23.6338 C   0  0  0  0  0  0
  -16.7273  -28.6521   23.0355 C   0  0  0  0  0  0
  -26.4503  -31.6582   25.0704 C   0  0  0  0  0  0
  -25.3726  -31.3737   26.1422 C   0  0  0  0  0  0
  -27.0351  -30.2994   24.6194 C   0  0  0  0  0  0
  -27.6041  -32.4331   25.7492 C   0  0  0  0  0  0
  -27.5586  -37.1790   24.8460 C   0  0  0  0  0  0
  -21.4193  -29.3057   22.3649 N   0  0  0  0  0  0
  -26.4288  -37.3772   23.9413 N   0  0  0  0  0  0
  -24.6939  -31.0534   22.0950 N   0  0  0  0  0  0
  -23.4186  -28.8145   23.3003 O   0  0  0  0  0  0
  -28.3052  -26.3747   20.1750 O   0  0  0  0  0  0
  -26.5630  -34.8915   22.4658 O   0  0  0  0  0  0
  -23.5446  -32.1374   23.7284 O   0  0  0  0  0  0
  -29.9392  -19.2139   21.7417 C   0  0  0  0  0  0
  -29.4489  -18.4360   19.7239 C   0  0  0  0  0  0
  -30.1204  -17.8367   21.7571 C   0  0  0  0  0  0
  -29.8312  -17.3062   20.4570 C   0  0  0  0  0  0
  -30.5734  -17.0712   22.9296 C   0  0  0  0  0  0
  -30.7927  -17.5928   24.1498 C   0  0  0  0  0  0
  -28.9101  -23.7727   20.1174 C   0  0  0  0  0  0
  -31.2889  -16.8015   25.3407 C   0  0  0  0  0  0
  -29.7190  -15.8792   18.4610 C   0  0  0  0  0  0
  -28.8009  -22.2963   20.7383 C   0  0  0  0  0  0
  -28.0242  -24.9819   20.6703 C   0  0  0  0  0  0
  -29.4337  -21.0589   19.9191 C   0  0  0  0  0  0
  -29.5488  -19.6343   20.4712 N   0  0  0  0  0  0
  -29.9010  -15.9049   19.9260 N   0  0  0  0  0  0
  -29.6987  -23.9796   19.1891 O   0  0  0  0  0  0
  -31.4724  -12.6019   19.1404 H   0  0  0  0  0  0
  -30.4414  -11.5195   20.0381 H   0  0  0  0  0  0
  -29.7600  -11.4455   17.6882 H   0  0  0  0  0  0
  -29.6509  -13.1508   17.5349 H   0  0  0  0  0  0
  -27.8372  -11.2395   18.9575 H   0  0  0  0  0  0
  -27.3816  -12.4540   17.7987 H   0  0  0  0  0  0
  -27.6085  -14.2231   19.4092 H   0  0  0  0  0  0
  -28.7469  -12.2493   21.4494 H   0  0  0  0  0  0
  -28.4370  -13.9544   21.7219 H   0  0  0  0  0  0
  -25.2763   -9.5686   22.4760 H   0  0  0  0  0  0
  -24.0005   -7.4637   22.7473 H   0  0  0  0  0  0
  -21.0851   -8.8777   19.8943 H   0  0  0  0  0  0
  -22.3698  -10.9688   19.6171 H   0  0  0  0  0  0
  -21.2004   -7.6141   23.9706 H   0  0  0  0  0  0
  -21.1482   -6.0521   25.9075 H   0  0  0  0  0  0
  -22.0597   -2.7599   23.2860 H   0  0  0  0  0  0
  -22.4097  -11.9902   22.4811 H   0  0  0  0  0  0
  -21.1070  -13.1234   22.2606 H   0  0  0  0  0  0
  -24.6726  -15.8553   20.5390 H   0  0  0  0  0  0
  -26.2982  -15.6288   20.1351 H   0  0  0  0  0  0
  -26.7182  -32.5422   23.1057 H   0  0  0  0  0  0
  -25.0074  -33.9698   25.0396 H   0  0  0  0  0  0
  -22.7224  -31.2986   21.3929 H   0  0  0  0  0  0
  -23.3757  -35.9603   23.3284 H   0  0  0  0  0  0
  -24.3571  -36.8925   22.2055 H   0  0  0  0  0  0
  -23.7225  -37.6466   23.6679 H   0  0  0  0  0  0
  -26.1063  -31.5342   20.6070 H   0  0  0  0  0  0
  -26.8482  -30.8238   22.0085 H   0  0  0  0  0  0
  -28.1215  -28.9394   21.2059 H   0  0  0  0  0  0
  -25.9870  -25.9099   18.9971 H   0  0  0  0  0  0
  -23.9781  -27.3048   18.9988 H   0  0  0  0  0  0
  -23.7704  -30.5850   19.4002 H   0  0  0  0  0  0
  -22.7650  -29.2418   19.8529 H   0  0  0  0  0  0
  -25.1296  -36.1912   25.0814 H   0  0  0  0  0  0
  -20.9973  -28.3310   24.1388 H   0  0  0  0  0  0
  -20.5687  -26.2327   23.3616 H   0  0  0  0  0  0
  -21.6651  -26.7471   22.1211 H   0  0  0  0  0  0
  -19.6935  -25.6298   21.1260 H   0  0  0  0  0  0
  -19.6713  -27.3188   20.6724 H   0  0  0  0  0  0
  -17.4210  -26.6681   21.4015 H   0  0  0  0  0  0
  -18.0341  -26.0097   22.9016 H   0  0  0  0  0  0
  -19.7938  -30.7280   24.2273 H   0  0  0  0  0  0
  -17.5025  -31.6284   24.5171 H   0  0  0  0  0  0
  -15.5360  -30.3014   23.7669 H   0  0  0  0  0  0
  -15.8662  -28.0842   22.7084 H   0  0  0  0  0  0
  -24.5896  -30.7094   25.7751 H   0  0  0  0  0  0
  -24.8926  -32.2913   26.4830 H   0  0  0  0  0  0
  -25.8038  -30.8921   27.0207 H   0  0  0  0  0  0
  -26.2937  -29.6733   24.1213 H   0  0  0  0  0  0
  -27.4022  -29.7264   25.4722 H   0  0  0  0  0  0
  -27.8821  -30.4256   23.9444 H   0  0  0  0  0  0
  -27.2624  -33.3627   26.2056 H   0  0  0  0  0  0
  -28.3865  -32.6902   25.0341 H   0  0  0  0  0  0
  -28.0693  -31.8468   26.5425 H   0  0  0  0  0  0
  -28.2581  -38.0112   24.7546 H   0  0  0  0  0  0
  -28.1109  -36.2642   24.6243 H   0  0  0  0  0  0
  -27.2307  -37.1391   25.8863 H   0  0  0  0  0  0
  -20.9380  -29.8756   21.6832 H   0  0  0  0  0  0
  -26.0165  -38.2839   24.1444 H   0  0  0  0  0  0
  -30.0970  -19.9516   22.5173 H   0  0  0  0  0  0
  -29.1528  -18.5202   18.6875 H   0  0  0  0  0  0
  -30.7497  -16.0165   22.7877 H   0  0  0  0  0  0
  -30.6135  -18.6428   24.3344 H   0  0  0  0  0  0
  -31.5352  -15.7764   25.0623 H   0  0  0  0  0  0
  -30.5330  -16.7748   26.1260 H   0  0  0  0  0  0
  -32.1864  -17.2674   25.7495 H   0  0  0  0  0  0
  -30.1885  -16.7336   17.9762 H   0  0  0  0  0  0
  -28.6628  -15.8715   18.1944 H   0  0  0  0  0  0
  -30.2125  -15.0481   17.9683 H   0  0  0  0  0  0
  -27.7455  -22.0972   20.9197 H   0  0  0  0  0  0
  -29.2685  -22.3329   21.7217 H   0  0  0  0  0  0
  -28.1433  -24.9954   21.7538 H   0  0  0  0  0  0
  -26.9828  -24.7117   20.4993 H   0  0  0  0  0  0
  -30.4461  -21.3462   19.6341 H   0  0  0  0  0  0
  -28.8938  -20.9901   18.9737 H   0  0  0  0  0  0
  1 25  1  0  0  0
  1 30  2  0  0  0
  1 84  1  0  0  0
  2  3  1  0  0  0
  2 25  1  0  0  0
  2 86  1  0  0  0
  2 87  1  0  0  0
  3  4  1  0  0  0
  3 88  1  0  0  0
  3 89  1  0  0  0
  4  5  1  0  0  0
  4 90  1  0  0  0
  4 91  1  0  0  0
  5  6  1  0  0  0
  5 26  1  0  0  0
  5 92  1  0  0  0
  6 25  1  0  0  0
  6 93  1  0  0  0
  6 94  1  0  0  0
  7  8  2  0  0  0
  7 26  1  0  0  0
  7 29  1  0  0  0
  8  9  1  0  0  0
  8 22  1  0  0  0
  9 10  1  0  0  0
  9 27  2  0  0  0
 10 11  2  0  0  0
 10 15  1  0  0  0
 11 12  1  0  0  0
 11 95  1  0  0  0
 12 13  2  0  0  0
 12 96  1  0  0  0
 13 14  1  0  0  0
 13 31  1  0  0  0
 14 15  2  0  0  0
 14 97  1  0  0  0
 15 98  1  0  0  0
 16 17  2  0  0  0
 16 21  1  0  0  0
 16 31  1  0  0  0
 17 18  1  0  0  0
 17 99  1  0  0  0
 18 19  2  0  0  0
 18100  1  0  0  0
 19 20  1  0  0  0
 19 24  1  0  0  0
 20 21  2  0  0  0
 20101  1  0  0  0
 21 23  1  0  0  0
 22 28  1  0  0  0
 22 32  2  0  0  0
 26 27  1  0  0  0
 28102  1  0  0  0
 28103  1  0  0  0
 29104  1  0  0  0
 29105  1  0  0  0
 33 34  1  0  0  0
 33 66  1  0  0  0
 33 70  2  0  0  0
 34 36  1  0  0  0
 34 59  1  0  0  0
 34106  1  0  0  0
 35 44  2  0  0  0
 35 45  1  0  0  0
 35 68  1  0  0  0
 36 56  1  0  0  0
 36107  1  0  0  0
 37 39  1  0  0  0
 37 47  1  0  0  0
 37 66  1  0  0  0
 37108  1  0  0  0
 38 43  2  0  0  0
 38 46  1  0  0  0
 38 47  1  0  0  0
 39 64  1  0  0  0
 39 67  2  0  0  0
 40 52  1  0  0  0
 40 53  2  0  0  0
 40 58  1  0  0  0
 41109  1  0  0  0
 41110  1  0  0  0
 41111  1  0  0  0
 41 48  1  0  0  0
 42 43  1  0  0  0
 42 66  1  0  0  0
 42112  1  0  0  0
 42113  1  0  0  0
 43 44  1  0  0  0
 44114  1  0  0  0
 45 46  2  0  0  0
 45115  1  0  0  0
 46116  1  0  0  0
 47117  1  0  0  0
 47118  1  0  0  0
 48 56  1  0  0  0
 48 65  1  0  0  0
 48119  1  0  0  0
 49 50  1  0  0  0
 49 53  1  0  0  0
 49 64  1  0  0  0
 49120  1  0  0  0
 50 51  1  0  0  0
 50121  1  0  0  0
 50122  1  0  0  0
 51 52  1  0  0  0
 51123  1  0  0  0
 51124  1  0  0  0
 52125  1  0  0  0
 52126  1  0  0  0
 53 54  1  0  0  0
 54 55  2  0  0  0
 54127  1  0  0  0
 55 57  1  0  0  0
 55128  1  0  0  0
 56 69  2  0  0  0
 57 58  2  0  0  0
 57129  1  0  0  0
 58130  1  0  0  0
 59 60  1  0  0  0
 59 61  1  0  0  0
 59 62  1  0  0  0
 60131  1  0  0  0
 60132  1  0  0  0
 60133  1  0  0  0
 61134  1  0  0  0
 61135  1  0  0  0
 61136  1  0  0  0
 62137  1  0  0  0
 62138  1  0  0  0
 62139  1  0  0  0
 63 65  1  0  0  0
 63140  1  0  0  0
 63141  1  0  0  0
 63142  1  0  0  0
 64143  1  0  0  0
 65144  1  0  0  0
 68 81  1  0  0  0
 71 73  2  0  0  0
 71 83  1  0  0  0
 71145  1  0  0  0
 72 74  2  0  0  0
 72 83  1  0  0  0
 72146  1  0  0  0
 73 74  1  0  0  0
 73 75  1  0  0  0
 74 84  1  0  0  0
 75 76  2  0  0  0
 75147  1  0  0  0
 76 78  1  0  0  0
 76148  1  0  0  0
 77 80  1  0  0  0
 77 81  1  0  0  0
 77 85  2  0  0  0
 78149  1  0  0  0
 78150  1  0  0  0
 78151  1  0  0  0
 79 84  1  0  0  0
 79152  1  0  0  0
 79153  1  0  0  0
 79154  1  0  0  0
 80 82  1  0  0  0
 80155  1  0  0  0
 80156  1  0  0  0
 81157  1  0  0  0
 81158  1  0  0  0
 82 83  1  0  0  0
 82159  1  0  0  0
 82160  1  0  0  0
M  ISO  4   1 100  68 101  81 101  84 100
M  END
> <chiral flag>
0

> <version>
0

> <s_m_source_file>
/data/baiqing/PycharmProjects/Reinvent-master-3.2/result/LINK_invent/BTK/process_docking_weight1_custom_product_contain_oxygen_bond_distance_aromatic_linkinvent_7_9_3/rearranged_h_0112.sdf

> <i_m_source_file_index>
9

> <r_mmod_Potential_Energy-OPLS-2005>
362.493133544922

> <r_mmod_Stretch_Energy-OPLS-2005>
120.021385192871

> <r_mmod_Bend_Energy-OPLS-2005>
187.511856079102

> <r_mmod_Torsional_Energy-OPLS-2005>
322.420989990234

> <r_mmod_Improper_Torsional_Energy-OPLS-2005>
23.7906455993652

> <r_mmod_Van_der_Waal_Energy-OPLS-2005>
126.842819213867

> <r_mmod_Electrostatic_Energy-OPLS-2005>
-306.257568359375

> <r_mmod_Solvation_Energy-OPLS-2005>
-218.103958129883

> <b_mmod_Minimization_Converged-OPLS-2005>
0

> <r_mmod_RMS_Derivative-OPLS-2005>
1.40928614139557

$$$$
9
                    3D
 Structure written by MMmdl.
151159  0  0  1  0            999 V2000
  -30.5366  -14.8066   20.5147 C   0  0  0  0  0  0
  -30.4611  -12.5077   19.4715 C   0  0  0  0  0  0
  -29.5247  -12.5416   18.2377 C   0  0  0  0  0  0
  -28.0460  -12.3535   18.6386 C   0  0  0  0  0  0
  -27.6508  -13.2231   19.8613 C   0  0  2  0  0  0
  -28.6952  -13.0828   20.9871 C   0  0  0  0  0  0
  -25.2547  -13.8160   20.5667 C   0  0  0  0  0  0
  -24.1823  -13.0426   20.9167 C   0  0  0  0  0  0
  -24.6394  -11.6899   20.8695 C   0  0  0  0  0  0
  -23.9067  -10.4282   21.0372 C   0  0  0  0  0  0
  -24.3623   -9.4205   21.9164 C   0  0  0  0  0  0
  -23.6286   -8.2252   22.0749 C   0  0  0  0  0  0
  -22.4261   -8.0292   21.3561 C   0  0  0  0  0  0
  -21.9906   -9.0250   20.4653 C   0  0  0  0  0  0
  -22.7229  -10.2129   20.3034 C   0  0  0  0  0  0
  -21.6859   -6.0727   22.5278 C   0  0  0  0  0  0
  -21.4018   -6.5627   23.8214 C   0  0  0  0  0  0
  -21.3662   -5.6776   24.9174 C   0  0  0  0  0  0
  -21.6038   -4.3037   24.7226 C   0  0  0  0  0  0
  -21.8819   -3.8138   23.4342 C   0  0  0  0  0  0
  -21.9190   -4.6949   22.3397 C   0  0  0  0  0  0
  -22.7843  -13.5212   21.1831 C   0  0  0  0  0  0
  -22.1657   -4.2134   21.0979 F   0  0  0  0  0  0
  -21.5636   -3.4532   25.7739 F   0  0  0  0  0  0
  -29.9907  -13.5305   20.4418 N   0  0  0  0  0  0
  -26.2968  -12.9351   20.3270 N   0  0  0  0  0  0
  -25.9327  -11.6497   20.5704 N   0  0  0  0  0  0
  -22.0500  -12.8230   22.0408 N   0  0  0  0  0  0
  -25.4245  -15.1888   20.4143 N   0  0  0  0  0  0
  -31.6708  -14.9873   20.0556 O   0  0  0  0  0  0
  -21.6650   -6.8878   21.4244 O   0  0  0  0  0  0
  -22.3524  -14.5502   20.6649 O   0  0  0  0  0  0
  -24.6340  -31.8522   23.1965 C   0  0  0  0  0  0
  -25.9154  -32.4739   23.8317 C   0  0  1  0  0  0
  -27.2235  -27.2382   20.1452 C   0  0  0  0  0  0
  -25.5949  -33.8540   24.2255 N   0  0  0  0  0  0
  -23.4327  -30.4740   21.5388 C   0  0  2  0  0  0
  -24.8835  -28.9152   20.1114 C   0  0  0  0  0  0
  -22.7508  -29.4594   22.4896 C   0  0  0  0  0  0
  -18.0295  -28.1396   22.8484 C   0  0  0  0  0  0
  -24.1496  -36.7287   23.2639 C   0  0  0  0  0  0
  -25.9794  -30.7596   21.3790 C   0  0  0  0  0  0
  -26.0543  -29.3778   20.7272 C   0  0  0  0  0  0
  -27.2282  -28.5532   20.7303 C   0  0  0  0  0  0
  -26.0335  -26.8529   19.4908 C   0  0  0  0  0  0
  -24.8792  -27.6605   19.4824 C   0  0  0  0  0  0
  -23.6544  -29.8055   20.1558 C   0  0  0  0  0  0
  -25.4115  -36.3067   24.0328 C   0  0  1  0  0  0
  -20.5905  -28.3714   23.1268 C   0  0  2  0  0  0
  -20.6795  -26.9436   22.5409 C   0  0  0  0  0  0
  -19.5771  -26.6391   21.5216 C   0  0  0  0  0  0
  -18.1945  -26.7942   22.1624 C   0  0  0  0  0  0
  -19.1551  -28.8867   23.2872 C   0  0  0  0  0  0
  -18.9471  -30.1463   23.8899 C   0  0  0  0  0  0
  -17.6470  -30.6596   24.0564 C   0  0  0  0  0  0
  -25.9052  -34.9436   23.5091 C   0  0  0  0  0  0
  -16.5359  -29.9098   23.6335 C   0  0  0  0  0  0
  -16.7279  -28.6516   23.0350 C   0  0  0  0  0  0
  -26.4520  -31.6561   25.0706 C   0  0  0  0  0  0
  -25.3735  -31.3706   26.1416 C   0  0  0  0  0  0
  -27.0366  -30.2978   24.6186 C   0  0  0  0  0  0
  -27.6071  -32.4296   25.7483 C   0  0  0  0  0  0
  -27.5581  -37.1795   24.8457 C   0  0  0  0  0  0
  -21.4215  -29.3053   22.3641 N   0  0  0  0  0  0
  -26.4293  -37.3764   23.9415 N   0  0  0  0  0  0
  -24.7015  -31.0476   22.0943 N   0  0  0  0  0  0
  -23.4196  -28.8149   23.3012 O   0  0  0  0  0  0
  -28.3122  -26.3272   20.1677 O   0  0  0  0  0  0
  -26.5626  -34.8916   22.4656 O   0  0  0  0  0  0
  -23.5481  -32.1360   23.7239 O   0  0  0  0  0  0
  -30.4465  -19.1159   19.3904 C   0  0  0  0  0  0
  -30.2150  -20.5446   19.2803 C   0  0  0  0  0  0
  -29.6974  -18.6104   20.4296 C   0  0  0  0  0  0
  -29.3186  -20.9215   20.2577 C   0  0  0  0  0  0
  -30.8458  -21.4090   18.2572 C   0  0  0  0  0  0
  -29.4557  -17.2747   21.0763 C   0  0  0  0  0  0
  -29.6938  -15.8904   21.1657 C   0  0  0  0  0  0
  -28.9611  -23.6134   20.0202 C   0  0  0  0  0  0
  -28.0766  -24.8814   20.5652 C   0  0  0  0  0  0
  -31.6041  -20.9982   17.3282 N   0  0  0  0  0  0
  -28.7124  -22.2175   20.6000 N   0  0  0  0  0  0
  -28.9999  -19.7375   20.9530 O   0  0  0  0  0  0
  -31.4912  -12.6844   19.1583 H   0  0  0  0  0  0
  -30.4651  -11.5167   19.9292 H   0  0  0  0  0  0
  -29.8194  -11.7709   17.5242 H   0  0  0  0  0  0
  -29.6409  -13.4951   17.7198 H   0  0  0  0  0  0
  -27.8951  -11.2978   18.8695 H   0  0  0  0  0  0
  -27.3943  -12.5731   17.7917 H   0  0  0  0  0  0
  -27.6642  -14.2606   19.5245 H   0  0  0  0  0  0
  -28.7625  -12.0409   21.3036 H   0  0  0  0  0  0
  -28.3801  -13.6142   21.8822 H   0  0  0  0  0  0
  -25.2775   -9.5678   22.4725 H   0  0  0  0  0  0
  -23.9988   -7.4644   22.7463 H   0  0  0  0  0  0
  -21.0841   -8.8757   19.8970 H   0  0  0  0  0  0
  -22.3677  -10.9654   19.6139 H   0  0  0  0  0  0
  -21.2018   -7.6135   23.9707 H   0  0  0  0  0  0
  -21.1487   -6.0522   25.9077 H   0  0  0  0  0  0
  -22.0596   -2.7599   23.2853 H   0  0  0  0  0  0
  -22.4121  -11.9920   22.4836 H   0  0  0  0  0  0
  -21.1109  -13.1254   22.2564 H   0  0  0  0  0  0
  -24.6592  -15.8421   20.5396 H   0  0  0  0  0  0
  -26.2816  -15.6379   20.1184 H   0  0  0  0  0  0
  -26.7214  -32.5390   23.1051 H   0  0  0  0  0  0
  -25.0099  -33.9671   25.0407 H   0  0  0  0  0  0
  -22.7306  -31.2956   21.3884 H   0  0  0  0  0  0
  -23.3758  -35.9617   23.3282 H   0  0  0  0  0  0
  -24.3591  -36.8918   22.2056 H   0  0  0  0  0  0
  -23.7243  -37.6481   23.6669 H   0  0  0  0  0  0
  -26.1140  -31.5161   20.6048 H   0  0  0  0  0  0
  -26.8566  -30.8151   22.0109 H   0  0  0  0  0  0
  -28.1244  -28.9021   21.2243 H   0  0  0  0  0  0
  -25.9822  -25.9014   18.9808 H   0  0  0  0  0  0
  -23.9874  -27.3030   18.9867 H   0  0  0  0  0  0
  -23.7852  -30.5800   19.3993 H   0  0  0  0  0  0
  -22.7716  -29.2408   19.8495 H   0  0  0  0  0  0
  -25.1298  -36.1909   25.0820 H   0  0  0  0  0  0
  -20.9992  -28.3301   24.1390 H   0  0  0  0  0  0
  -20.5720  -26.2322   23.3609 H   0  0  0  0  0  0
  -21.6659  -26.7474   22.1189 H   0  0  0  0  0  0
  -19.6945  -25.6297   21.1253 H   0  0  0  0  0  0
  -19.6720  -27.3192   20.6740 H   0  0  0  0  0  0
  -17.4224  -26.6680   21.4018 H   0  0  0  0  0  0
  -18.0353  -26.0081   22.9020 H   0  0  0  0  0  0
  -19.7936  -30.7276   24.2280 H   0  0  0  0  0  0
  -17.5018  -31.6274   24.5165 H   0  0  0  0  0  0
  -15.5362  -30.3000   23.7646 H   0  0  0  0  0  0
  -15.8678  -28.0828   22.7073 H   0  0  0  0  0  0
  -24.5932  -30.7036   25.7742 H   0  0  0  0  0  0
  -24.8906  -32.2866   26.4823 H   0  0  0  0  0  0
  -25.8048  -30.8899   27.0203 H   0  0  0  0  0  0
  -26.2947  -29.6709   24.1228 H   0  0  0  0  0  0
  -27.4069  -29.7258   25.4702 H   0  0  0  0  0  0
  -27.8816  -30.4256   23.9418 H   0  0  0  0  0  0
  -27.2691  -33.3603   26.2049 H   0  0  0  0  0  0
  -28.3895  -32.6827   25.0321 H   0  0  0  0  0  0
  -28.0724  -31.8418   26.5404 H   0  0  0  0  0  0
  -28.2579  -38.0116   24.7527 H   0  0  0  0  0  0
  -28.1105  -36.2642   24.6257 H   0  0  0  0  0  0
  -27.2307  -37.1404   25.8864 H   0  0  0  0  0  0
  -20.9411  -29.8754   21.6817 H   0  0  0  0  0  0
  -26.0168  -38.2837   24.1417 H   0  0  0  0  0  0
  -31.0930  -18.5175   18.7668 H   0  0  0  0  0  0
  -30.6274  -22.4761   18.3153 H   0  0  0  0  0  0
  -28.7351  -17.4909   21.8531 H   0  0  0  0  0  0
  -29.1118  -15.4995   21.9822 H   0  0  0  0  0  0
  -30.0149  -23.8488   20.1744 H   0  0  0  0  0  0
  -28.8091  -23.5614   18.9427 H   0  0  0  0  0  0
  -28.1842  -24.8866   21.6499 H   0  0  0  0  0  0
  -27.0312  -24.6206   20.4111 H   0  0  0  0  0  0
  -31.7360  -19.9940   17.3659 H   0  0  0  0  0  0
  -28.0220  -22.1937   21.3462 H   0  0  0  0  0  0
  1 25  1  0  0  0
  1 30  2  0  0  0
  1 77  1  0  0  0
  2  3  1  0  0  0
  2 25  1  0  0  0
  2 83  1  0  0  0
  2 84  1  0  0  0
  3  4  1  0  0  0
  3 85  1  0  0  0
  3 86  1  0  0  0
  4  5  1  0  0  0
  4 87  1  0  0  0
  4 88  1  0  0  0
  5  6  1  0  0  0
  5 26  1  0  0  0
  5 89  1  0  0  0
  6 25  1  0  0  0
  6 90  1  0  0  0
  6 91  1  0  0  0
  7  8  2  0  0  0
  7 26  1  0  0  0
  7 29  1  0  0  0
  8  9  1  0  0  0
  8 22  1  0  0  0
  9 10  1  0  0  0
  9 27  2  0  0  0
 10 11  2  0  0  0
 10 15  1  0  0  0
 11 12  1  0  0  0
 11 92  1  0  0  0
 12 13  2  0  0  0
 12 93  1  0  0  0
 13 14  1  0  0  0
 13 31  1  0  0  0
 14 15  2  0  0  0
 14 94  1  0  0  0
 15 95  1  0  0  0
 16 17  2  0  0  0
 16 21  1  0  0  0
 16 31  1  0  0  0
 17 18  1  0  0  0
 17 96  1  0  0  0
 18 19  2  0  0  0
 18 97  1  0  0  0
 19 20  1  0  0  0
 19 24  1  0  0  0
 20 21  2  0  0  0
 20 98  1  0  0  0
 21 23  1  0  0  0
 22 28  1  0  0  0
 22 32  2  0  0  0
 26 27  1  0  0  0
 28 99  1  0  0  0
 28100  1  0  0  0
 29101  1  0  0  0
 29102  1  0  0  0
 33 34  1  0  0  0
 33 66  1  0  0  0
 33 70  2  0  0  0
 34 36  1  0  0  0
 34 59  1  0  0  0
 34103  1  0  0  0
 35 44  2  0  0  0
 35 45  1  0  0  0
 35 68  1  0  0  0
 36 56  1  0  0  0
 36104  1  0  0  0
 37 39  1  0  0  0
 37 47  1  0  0  0
 37 66  1  0  0  0
 37105  1  0  0  0
 38 43  2  0  0  0
 38 46  1  0  0  0
 38 47  1  0  0  0
 39 64  1  0  0  0
 39 67  2  0  0  0
 40 52  1  0  0  0
 40 53  2  0  0  0
 40 58  1  0  0  0
 41106  1  0  0  0
 41107  1  0  0  0
 41108  1  0  0  0
 41 48  1  0  0  0
 42 43  1  0  0  0
 42 66  1  0  0  0
 42109  1  0  0  0
 42110  1  0  0  0
 43 44  1  0  0  0
 44111  1  0  0  0
 45 46  2  0  0  0
 45112  1  0  0  0
 46113  1  0  0  0
 47114  1  0  0  0
 47115  1  0  0  0
 48 56  1  0  0  0
 48 65  1  0  0  0
 48116  1  0  0  0
 49 50  1  0  0  0
 49 53  1  0  0  0
 49 64  1  0  0  0
 49117  1  0  0  0
 50 51  1  0  0  0
 50118  1  0  0  0
 50119  1  0  0  0
 51 52  1  0  0  0
 51120  1  0  0  0
 51121  1  0  0  0
 52122  1  0  0  0
 52123  1  0  0  0
 53 54  1  0  0  0
 54 55  2  0  0  0
 54124  1  0  0  0
 55 57  1  0  0  0
 55125  1  0  0  0
 56 69  2  0  0  0
 57 58  2  0  0  0
 57126  1  0  0  0
 58127  1  0  0  0
 59 60  1  0  0  0
 59 61  1  0  0  0
 59 62  1  0  0  0
 60128  1  0  0  0
 60129  1  0  0  0
 60130  1  0  0  0
 61131  1  0  0  0
 61132  1  0  0  0
 61133  1  0  0  0
 62134  1  0  0  0
 62135  1  0  0  0
 62136  1  0  0  0
 63 65  1  0  0  0
 63137  1  0  0  0
 63138  1  0  0  0
 63139  1  0  0  0
 64140  1  0  0  0
 65141  1  0  0  0
 68 79  1  0  0  0
 71 72  1  0  0  0
 71 73  2  0  0  0
 71142  1  0  0  0
 72 74  2  0  0  0
 72 75  1  0  0  0
 73 76  1  0  0  0
 73 82  1  0  0  0
 74 81  1  0  0  0
 74 82  1  0  0  0
 75 80  2  0  0  0
 75143  1  0  0  0
 76 77  2  0  0  0
 76144  1  0  0  0
 77145  1  0  0  0
 78 79  1  0  0  0
 78 81  1  0  0  0
 78146  1  0  0  0
 78147  1  0  0  0
 79148  1  0  0  0
 79149  1  0  0  0
 80150  1  0  0  0
 81151  1  0  0  0
M  ISO  4   1 100  68 101  77 100  79 101
M  END
> <chiral flag>
0

> <version>
0

> <s_m_source_file>
/data/baiqing/PycharmProjects/Reinvent-master-3.2/result/LINK_invent/BTK/process_docking_weight1_custom_product_contain_oxygen_bond_distance_aromatic_linkinvent_7_9_3/rearranged_h_0112.sdf

> <i_m_source_file_index>
10

> <r_mmod_Potential_Energy-OPLS-2005>
307.241668701172

> <r_mmod_Stretch_Energy-OPLS-2005>
143.981491088867

> <r_mmod_Bend_Energy-OPLS-2005>
282.226013183594

> <r_mmod_Torsional_Energy-OPLS-2005>
190.9541015625

> <r_mmod_Improper_Torsional_Energy-OPLS-2005>
2.11670017242432

> <r_mmod_Van_der_Waal_Energy-OPLS-2005>
125.108573913574

> <r_mmod_Electrostatic_Energy-OPLS-2005>
-311.258636474609

> <r_mmod_Solvation_Energy-OPLS-2005>
-230.747421264648

> <b_mmod_Minimization_Converged-OPLS-2005>
0

> <r_mmod_RMS_Derivative-OPLS-2005>
2.36643195152283

$$$$
10
                    3D
 Structure written by MMmdl.
154162  0  0  1  0            999 V2000
  -30.5454  -14.9777   20.3533 C   0  0  0  0  0  0
  -30.4527  -12.5932   19.4818 C   0  0  0  0  0  0
  -29.5279  -12.4472   18.2504 C   0  0  0  0  0  0
  -28.0459  -12.3027   18.6637 C   0  0  0  0  0  0
  -27.6249  -13.2380   19.8315 C   0  0  2  0  0  0
  -28.6849  -13.2980   20.9484 C   0  0  0  0  0  0
  -25.2484  -13.8172   20.5771 C   0  0  0  0  0  0
  -24.1778  -13.0410   20.9231 C   0  0  0  0  0  0
  -24.6390  -11.6892   20.8767 C   0  0  0  0  0  0
  -23.9076  -10.4271   21.0414 C   0  0  0  0  0  0
  -24.3626   -9.4187   21.9190 C   0  0  0  0  0  0
  -23.6293   -8.2227   22.0765 C   0  0  0  0  0  0
  -22.4274   -8.0276   21.3553 C   0  0  0  0  0  0
  -21.9919   -9.0249   20.4651 C   0  0  0  0  0  0
  -22.7254  -10.2119   20.3054 C   0  0  0  0  0  0
  -21.6848   -6.0732   22.5281 C   0  0  0  0  0  0
  -21.4012   -6.5633   23.8214 C   0  0  0  0  0  0
  -21.3670   -5.6789   24.9176 C   0  0  0  0  0  0
  -21.6047   -4.3053   24.7223 C   0  0  0  0  0  0
  -21.8811   -3.8144   23.4343 C   0  0  0  0  0  0
  -21.9182   -4.6961   22.3399 C   0  0  0  0  0  0
  -22.7794  -13.5201   21.1857 C   0  0  0  0  0  0
  -22.1650   -4.2147   21.0977 F   0  0  0  0  0  0
  -21.5644   -3.4537   25.7737 F   0  0  0  0  0  0
  -29.9414  -13.7179   20.3126 N   0  0  0  0  0  0
  -26.2900  -12.9377   20.3317 N   0  0  0  0  0  0
  -25.9325  -11.6518   20.5795 N   0  0  0  0  0  0
  -22.0427  -12.8193   22.0399 N   0  0  0  0  0  0
  -25.4159  -15.1900   20.4250 N   0  0  0  0  0  0
  -31.7793  -14.9995   20.2708 O   0  0  0  0  0  0
  -21.6636   -6.8876   21.4245 O   0  0  0  0  0  0
  -22.3478  -14.5502   20.6696 O   0  0  0  0  0  0
  -24.6436  -31.8448   23.1894 C   0  0  0  0  0  0
  -25.9210  -32.4698   23.8278 C   0  0  1  0  0  0
  -27.2147  -27.1376   20.1520 C   0  0  0  0  0  0
  -25.5952  -33.8503   24.2183 N   0  0  0  0  0  0
  -23.4456  -30.4653   21.5367 C   0  0  2  0  0  0
  -24.8958  -28.8988   20.1098 C   0  0  0  0  0  0
  -22.7565  -29.4543   22.4877 C   0  0  0  0  0  0
  -18.0294  -28.1389   22.8471 C   0  0  0  0  0  0
  -24.1491  -36.7263   23.2638 C   0  0  0  0  0  0
  -26.0027  -30.7205   21.3878 C   0  0  0  0  0  0
  -26.0745  -29.3323   20.7302 C   0  0  0  0  0  0
  -27.2352  -28.4688   20.7345 C   0  0  0  0  0  0
  -26.0093  -26.8148   19.4846 C   0  0  0  0  0  0
  -24.8777  -27.6543   19.4687 C   0  0  0  0  0  0
  -23.6706  -29.7976   20.1554 C   0  0  0  0  0  0
  -25.4122  -36.3031   24.0308 C   0  0  1  0  0  0
  -20.5906  -28.3705   23.1247 C   0  0  2  0  0  0
  -20.6777  -26.9410   22.5410 C   0  0  0  0  0  0
  -19.5756  -26.6376   21.5210 C   0  0  0  0  0  0
  -18.1937  -26.7925   22.1622 C   0  0  0  0  0  0
  -19.1553  -28.8866   23.2847 C   0  0  0  0  0  0
  -18.9472  -30.1468   23.8861 C   0  0  0  0  0  0
  -17.6471  -30.6588   24.0554 C   0  0  0  0  0  0
  -25.9075  -34.9408   23.5052 C   0  0  0  0  0  0
  -16.5359  -29.9081   23.6341 C   0  0  0  0  0  0
  -16.7279  -28.6505   23.0350 C   0  0  0  0  0  0
  -26.4521  -31.6561   25.0717 C   0  0  0  0  0  0
  -25.3700  -31.3753   26.1404 C   0  0  0  0  0  0
  -27.0382  -30.2955   24.6292 C   0  0  0  0  0  0
  -27.6047  -32.4320   25.7517 C   0  0  0  0  0  0
  -27.5575  -37.1787   24.8457 C   0  0  0  0  0  0
  -21.4256  -29.3036   22.3627 N   0  0  0  0  0  0
  -26.4281  -37.3750   23.9407 N   0  0  0  0  0  0
  -24.7173  -31.0308   22.0931 N   0  0  0  0  0  0
  -23.4214  -28.8084   23.3019 O   0  0  0  0  0  0
  -28.2561  -26.1366   20.2244 O   0  0  0  0  0  0
  -26.5673  -34.8906   22.4638 O   0  0  0  0  0  0
  -23.5558  -32.1324   23.7119 O   0  0  0  0  0  0
  -28.5073  -19.6013   21.3672 C   0  0  0  0  0  0
  -30.3571  -18.6831   19.5735 C   0  0  0  0  0  0
  -28.8198  -18.1742   21.3005 C   0  0  0  0  0  0
  -29.0514  -20.6472   20.5419 C   0  0  0  0  0  0
  -29.7529  -17.6235   20.3530 C   0  0  0  0  0  0
  -30.0381  -20.1036   19.6537 C   0  0  0  0  0  0
  -26.9256  -17.4709   22.8091 C   0  0  0  0  0  0
  -28.0688  -17.2263   22.1452 C   0  0  0  0  0  0
  -28.8570  -23.2825   20.2841 C   0  0  0  0  0  0
  -29.5452  -16.0610   18.4860 C   0  0  0  0  0  0
  -27.8708  -24.6260   20.1919 C   0  0  0  0  0  0
  -28.4567  -22.0285   20.5751 N   0  0  0  0  0  0
  -29.8057  -16.1360   19.9341 N   0  0  0  0  0  0
  -30.6527  -20.9474   18.7906 F   0  0  0  0  0  0
  -31.4773  -12.7706   19.1501 H   0  0  0  0  0  0
  -30.4804  -11.6680   20.0605 H   0  0  0  0  0  0
  -29.8288  -11.5742   17.6687 H   0  0  0  0  0  0
  -29.6599  -13.2897   17.5750 H   0  0  0  0  0  0
  -27.8987  -11.2633   18.9590 H   0  0  0  0  0  0
  -27.3981  -12.4638   17.8011 H   0  0  0  0  0  0
  -27.5509  -14.2334   19.4045 H   0  0  0  0  0  0
  -28.7925  -12.3328   21.4450 H   0  0  0  0  0  0
  -28.3924  -14.0128   21.7169 H   0  0  0  0  0  0
  -25.2770   -9.5666   22.4758 H   0  0  0  0  0  0
  -24.0002   -7.4621   22.7487 H   0  0  0  0  0  0
  -21.0853   -8.8774   19.8945 H   0  0  0  0  0  0
  -22.3731  -10.9662   19.6158 H   0  0  0  0  0  0
  -21.2006   -7.6142   23.9720 H   0  0  0  0  0  0
  -21.1511   -6.0520   25.9085 H   0  0  0  0  0  0
  -22.0580   -2.7605   23.2838 H   0  0  0  0  0  0
  -22.4050  -11.9862   22.4793 H   0  0  0  0  0  0
  -21.1031  -13.1210   22.2567 H   0  0  0  0  0  0
  -24.6607  -15.8468   20.5864 H   0  0  0  0  0  0
  -26.2918  -15.6429   20.1960 H   0  0  0  0  0  0
  -26.7270  -32.5304   23.1004 H   0  0  0  0  0  0
  -25.0040  -33.9613   25.0287 H   0  0  0  0  0  0
  -22.7463  -31.2904   21.3856 H   0  0  0  0  0  0
  -23.3756  -35.9592   23.3281 H   0  0  0  0  0  0
  -24.3575  -36.8924   22.2057 H   0  0  0  0  0  0
  -23.7250  -37.6450   23.6699 H   0  0  0  0  0  0
  -26.1538  -31.4739   20.6131 H   0  0  0  0  0  0
  -26.8745  -30.7731   22.0287 H   0  0  0  0  0  0
  -28.1305  -28.7958   21.2445 H   0  0  0  0  0  0
  -25.8894  -25.8742   18.9726 H   0  0  0  0  0  0
  -23.9818  -27.3212   18.9631 H   0  0  0  0  0  0
  -23.7998  -30.5720   19.3984 H   0  0  0  0  0  0
  -22.7864  -29.2356   19.8489 H   0  0  0  0  0  0
  -25.1312  -36.1849   25.0802 H   0  0  0  0  0  0
  -20.9984  -28.3289   24.1373 H   0  0  0  0  0  0
  -20.5670  -26.2311   23.3621 H   0  0  0  0  0  0
  -21.6646  -26.7418   22.1217 H   0  0  0  0  0  0
  -19.6921  -25.6283   21.1254 H   0  0  0  0  0  0
  -19.6704  -27.3172   20.6731 H   0  0  0  0  0  0
  -17.4206  -26.6654   21.4028 H   0  0  0  0  0  0
  -18.0346  -26.0077   22.9032 H   0  0  0  0  0  0
  -19.7949  -30.7292   24.2215 H   0  0  0  0  0  0
  -17.5025  -31.6265   24.5166 H   0  0  0  0  0  0
  -15.5358  -30.2974   23.7688 H   0  0  0  0  0  0
  -15.8677  -28.0821   22.7078 H   0  0  0  0  0  0
  -24.5886  -30.7092   25.7723 H   0  0  0  0  0  0
  -24.8878  -32.2937   26.4767 H   0  0  0  0  0  0
  -25.7977  -30.8968   27.0222 H   0  0  0  0  0  0
  -26.2993  -29.6686   24.1284 H   0  0  0  0  0  0
  -27.3970  -29.7249   25.4866 H   0  0  0  0  0  0
  -27.8913  -30.4182   23.9617 H   0  0  0  0  0  0
  -27.2631  -33.3636   26.2042 H   0  0  0  0  0  0
  -28.3899  -32.6853   25.0382 H   0  0  0  0  0  0
  -28.0663  -31.8474   26.5484 H   0  0  0  0  0  0
  -28.2570  -38.0104   24.7521 H   0  0  0  0  0  0
  -28.1091  -36.2635   24.6257 H   0  0  0  0  0  0
  -27.2294  -37.1398   25.8859 H   0  0  0  0  0  0
  -20.9463  -29.8742   21.6801 H   0  0  0  0  0  0
  -26.0141  -38.2812   24.1427 H   0  0  0  0  0  0
  -27.7560  -19.9224   22.0713 H   0  0  0  0  0  0
  -31.0536  -18.3978   18.7993 H   0  0  0  0  0  0
  -26.4667  -16.6958   23.4063 H   0  0  0  0  0  0
  -26.4173  -18.4226   22.7767 H   0  0  0  0  0  0
  -28.4955  -16.2406   22.2509 H   0  0  0  0  0  0
  -29.8996  -23.4906   20.0311 H   0  0  0  0  0  0
  -28.9703  -16.9153   18.1264 H   0  0  0  0  0  0
  -28.9595  -15.1977   18.1977 H   0  0  0  0  0  0
  -30.4785  -16.0316   17.9197 H   0  0  0  0  0  0
  -27.1068  -24.4958   20.9589 H   0  0  0  0  0  0
  -27.3570  -24.4671   19.2477 H   0  0  0  0  0  0
  1 25  1  0  0  0
  1 30  2  0  0  0
  1 83  1  0  0  0
  2  3  1  0  0  0
  2 25  1  0  0  0
  2 85  1  0  0  0
  2 86  1  0  0  0
  3  4  1  0  0  0
  3 87  1  0  0  0
  3 88  1  0  0  0
  4  5  1  0  0  0
  4 89  1  0  0  0
  4 90  1  0  0  0
  5  6  1  0  0  0
  5 26  1  0  0  0
  5 91  1  0  0  0
  6 25  1  0  0  0
  6 92  1  0  0  0
  6 93  1  0  0  0
  7  8  2  0  0  0
  7 26  1  0  0  0
  7 29  1  0  0  0
  8  9  1  0  0  0
  8 22  1  0  0  0
  9 10  1  0  0  0
  9 27  2  0  0  0
 10 11  2  0  0  0
 10 15  1  0  0  0
 11 12  1  0  0  0
 11 94  1  0  0  0
 12 13  2  0  0  0
 12 95  1  0  0  0
 13 14  1  0  0  0
 13 31  1  0  0  0
 14 15  2  0  0  0
 14 96  1  0  0  0
 15 97  1  0  0  0
 16 17  2  0  0  0
 16 21  1  0  0  0
 16 31  1  0  0  0
 17 18  1  0  0  0
 17 98  1  0  0  0
 18 19  2  0  0  0
 18 99  1  0  0  0
 19 20  1  0  0  0
 19 24  1  0  0  0
 20 21  2  0  0  0
 20100  1  0  0  0
 21 23  1  0  0  0
 22 28  1  0  0  0
 22 32  2  0  0  0
 26 27  1  0  0  0
 28101  1  0  0  0
 28102  1  0  0  0
 29103  1  0  0  0
 29104  1  0  0  0
 33 34  1  0  0  0
 33 66  1  0  0  0
 33 70  2  0  0  0
 34 36  1  0  0  0
 34 59  1  0  0  0
 34105  1  0  0  0
 35 44  2  0  0  0
 35 45  1  0  0  0
 35 68  1  0  0  0
 36 56  1  0  0  0
 36106  1  0  0  0
 37 39  1  0  0  0
 37 47  1  0  0  0
 37 66  1  0  0  0
 37107  1  0  0  0
 38 43  2  0  0  0
 38 46  1  0  0  0
 38 47  1  0  0  0
 39 64  1  0  0  0
 39 67  2  0  0  0
 40 52  1  0  0  0
 40 53  2  0  0  0
 40 58  1  0  0  0
 41108  1  0  0  0
 41109  1  0  0  0
 41110  1  0  0  0
 41 48  1  0  0  0
 42 43  1  0  0  0
 42 66  1  0  0  0
 42111  1  0  0  0
 42112  1  0  0  0
 43 44  1  0  0  0
 44113  1  0  0  0
 45 46  2  0  0  0
 45114  1  0  0  0
 46115  1  0  0  0
 47116  1  0  0  0
 47117  1  0  0  0
 48 56  1  0  0  0
 48 65  1  0  0  0
 48118  1  0  0  0
 49 50  1  0  0  0
 49 53  1  0  0  0
 49 64  1  0  0  0
 49119  1  0  0  0
 50 51  1  0  0  0
 50120  1  0  0  0
 50121  1  0  0  0
 51 52  1  0  0  0
 51122  1  0  0  0
 51123  1  0  0  0
 52124  1  0  0  0
 52125  1  0  0  0
 53 54  1  0  0  0
 54 55  2  0  0  0
 54126  1  0  0  0
 55 57  1  0  0  0
 55127  1  0  0  0
 56 69  2  0  0  0
 57 58  2  0  0  0
 57128  1  0  0  0
 58129  1  0  0  0
 59 60  1  0  0  0
 59 61  1  0  0  0
 59 62  1  0  0  0
 60130  1  0  0  0
 60131  1  0  0  0
 60132  1  0  0  0
 61133  1  0  0  0
 61134  1  0  0  0
 61135  1  0  0  0
 62136  1  0  0  0
 62137  1  0  0  0
 62138  1  0  0  0
 63 65  1  0  0  0
 63139  1  0  0  0
 63140  1  0  0  0
 63141  1  0  0  0
 64142  1  0  0  0
 65143  1  0  0  0
 68 81  1  0  0  0
 71 73  2  0  0  0
 71 74  1  0  0  0
 71144  1  0  0  0
 72 75  2  0  0  0
 72 76  1  0  0  0
 72145  1  0  0  0
 73 75  1  0  0  0
 73 78  1  0  0  0
 74 76  2  0  0  0
 74 82  1  0  0  0
 75 83  1  0  0  0
 76 84  1  0  0  0
 77 78  2  0  0  0
 77146  1  0  0  0
 77147  1  0  0  0
 78148  1  0  0  0
 79 81  1  0  0  0
 79 82  2  0  0  0
 79149  1  0  0  0
 80 83  1  0  0  0
 80150  1  0  0  0
 80151  1  0  0  0
 80152  1  0  0  0
 81153  1  0  0  0
 81154  1  0  0  0
M  ISO  4   1 100  68 101  81 101  83 100
M  END
> <chiral flag>
0

> <version>
0

> <s_m_source_file>
/data/baiqing/PycharmProjects/Reinvent-master-3.2/result/LINK_invent/BTK/process_docking_weight1_custom_product_contain_oxygen_bond_distance_aromatic_linkinvent_7_9_3/rearranged_h_0112.sdf

> <i_m_source_file_index>
11

> <r_mmod_Potential_Energy-OPLS-2005>
759.529602050781

> <r_mmod_Stretch_Energy-OPLS-2005>
242.363220214844

> <r_mmod_Bend_Energy-OPLS-2005>
286.284088134766

> <r_mmod_Torsional_Energy-OPLS-2005>
342.139862060547

> <r_mmod_Improper_Torsional_Energy-OPLS-2005>
26.0922412872314

> <r_mmod_Van_der_Waal_Energy-OPLS-2005>
141.512634277344

> <r_mmod_Electrostatic_Energy-OPLS-2005>
-296.585906982422

> <r_mmod_Solvation_Energy-OPLS-2005>
-192.920639038086

> <b_mmod_Minimization_Converged-OPLS-2005>
0

> <r_mmod_RMS_Derivative-OPLS-2005>
1.40272676944733

$$$$
11
                    3D
 Structure written by MMmdl.
151159  0  0  1  0            999 V2000
  -30.6217  -14.8525   20.4058 C   0  0  0  0  0  0
  -30.4111  -12.5143   19.5105 C   0  0  0  0  0  0
  -29.5189  -12.5243   18.2544 C   0  0  0  0  0  0
  -28.0425  -12.3492   18.6558 C   0  0  0  0  0  0
  -27.6291  -13.2628   19.8441 C   0  0  2  0  0  0
  -28.6698  -13.2711   20.9842 C   0  0  0  0  0  0
  -25.2428  -13.8275   20.5688 C   0  0  0  0  0  0
  -24.1772  -13.0486   20.9272 C   0  0  0  0  0  0
  -24.6408  -11.6979   20.8792 C   0  0  0  0  0  0
  -23.9078  -10.4345   21.0421 C   0  0  0  0  0  0
  -24.3635   -9.4256   21.9171 C   0  0  0  0  0  0
  -23.6344   -8.2267   22.0715 C   0  0  0  0  0  0
  -22.4309   -8.0293   21.3527 C   0  0  0  0  0  0
  -21.9944   -9.0263   20.4620 C   0  0  0  0  0  0
  -22.7263  -10.2163   20.3044 C   0  0  0  0  0  0
  -21.6892   -6.0739   22.5256 C   0  0  0  0  0  0
  -21.4028   -6.5642   23.8186 C   0  0  0  0  0  0
  -21.3669   -5.6800   24.9154 C   0  0  0  0  0  0
  -21.6041   -4.3056   24.7198 C   0  0  0  0  0  0
  -21.8833   -3.8146   23.4320 C   0  0  0  0  0  0
  -21.9196   -4.6962   22.3381 C   0  0  0  0  0  0
  -22.7773  -13.5204   21.1935 C   0  0  0  0  0  0
  -22.1662   -4.2147   21.0965 F   0  0  0  0  0  0
  -21.5644   -3.4538   25.7702 F   0  0  0  0  0  0
  -29.9601  -13.6293   20.3883 N   0  0  0  0  0  0
  -26.2881  -12.9536   20.3271 N   0  0  0  0  0  0
  -25.9348  -11.6665   20.5807 N   0  0  0  0  0  0
  -22.0392  -12.8177   22.0462 N   0  0  0  0  0  0
  -25.4116  -15.2010   20.4075 N   0  0  0  0  0  0
  -31.8264  -14.8138   20.1508 O   0  0  0  0  0  0
  -21.6681   -6.8884   21.4213 O   0  0  0  0  0  0
  -22.3461  -14.5504   20.6785 O   0  0  0  0  0  0
  -24.6406  -31.8486   23.1923 C   0  0  0  0  0  0
  -25.9204  -32.4730   23.8277 C   0  0  1  0  0  0
  -27.2241  -27.1943   20.1621 C   0  0  0  0  0  0
  -25.5987  -33.8524   24.2174 N   0  0  0  0  0  0
  -23.4391  -30.4717   21.5364 C   0  0  2  0  0  0
  -24.8876  -28.8961   20.1173 C   0  0  0  0  0  0
  -22.7535  -29.4619   22.4882 C   0  0  0  0  0  0
  -18.0308  -28.1447   22.8476 C   0  0  0  0  0  0
  -24.1473  -36.7237   23.2638 C   0  0  0  0  0  0
  -25.9913  -30.7442   21.3781 C   0  0  0  0  0  0
  -26.0629  -29.3583   20.7227 C   0  0  0  0  0  0
  -27.2370  -28.5269   20.7161 C   0  0  0  0  0  0
  -26.0253  -26.8056   19.5319 C   0  0  0  0  0  0
  -24.8780  -27.6302   19.5033 C   0  0  0  0  0  0
  -23.6617  -29.7954   20.1563 C   0  0  0  0  0  0
  -25.4106  -36.3014   24.0301 C   0  0  1  0  0  0
  -20.5916  -28.3763   23.1245 C   0  0  2  0  0  0
  -20.6792  -26.9476   22.5395 C   0  0  0  0  0  0
  -19.5754  -26.6417   21.5221 C   0  0  0  0  0  0
  -18.1943  -26.7986   22.1633 C   0  0  0  0  0  0
  -19.1561  -28.8925   23.2855 C   0  0  0  0  0  0
  -18.9472  -30.1526   23.8884 C   0  0  0  0  0  0
  -17.6467  -30.6642   24.0575 C   0  0  0  0  0  0
  -25.9084  -34.9425   23.5031 C   0  0  0  0  0  0
  -16.5364  -29.9136   23.6346 C   0  0  0  0  0  0
  -16.7291  -28.6558   23.0353 C   0  0  0  0  0  0
  -26.4530  -31.6644   25.0746 C   0  0  0  0  0  0
  -25.3722  -31.3819   26.1441 C   0  0  0  0  0  0
  -27.0401  -30.3062   24.6336 C   0  0  0  0  0  0
  -27.6056  -32.4441   25.7519 C   0  0  0  0  0  0
  -27.5551  -37.1749   24.8445 C   0  0  0  0  0  0
  -21.4241  -29.3088   22.3614 N   0  0  0  0  0  0
  -26.4230  -37.3757   23.9444 N   0  0  0  0  0  0
  -24.7099  -31.0393   22.0925 N   0  0  0  0  0  0
  -23.4198  -28.8175   23.3025 O   0  0  0  0  0  0
  -28.3192  -26.2789   20.1881 O   0  0  0  0  0  0
  -26.5653  -34.8914   22.4598 O   0  0  0  0  0  0
  -23.5541  -32.1352   23.7189 O   0  0  0  0  0  0
  -28.5264  -20.5197   21.2862 C   0  0  0  0  0  0
  -29.0915  -21.0519   20.1420 C   0  0  0  0  0  0
  -29.6202  -18.7790   20.3101 C   0  0  0  0  0  0
  -30.4135  -17.3770   20.2251 C   0  0  0  0  0  0
  -28.7166  -23.6584   19.4978 C   0  0  0  0  0  0
  -27.6831  -21.0890   22.3813 C   0  0  0  0  0  0
  -28.8909  -24.3662   18.1633 C   0  0  0  0  0  0
  -28.1651  -24.7823   20.5288 C   0  0  0  0  0  0
  -29.7772  -19.9342   19.5728 N   0  0  0  0  0  0
  -29.0404  -22.3514   19.4428 N   0  0  0  0  0  0
  -29.9236  -16.0813   20.5033 N   0  0  0  0  0  0
  -31.5731  -17.5184   19.8104 O   0  0  0  0  0  0
  -28.8388  -19.1378   21.3845 O   0  0  0  0  0  0
  -31.4573  -12.6108   19.2161 H   0  0  0  0  0  0
  -30.3334  -11.5566   20.0274 H   0  0  0  0  0  0
  -29.8340  -11.7325   17.5733 H   0  0  0  0  0  0
  -29.6458  -13.4633   17.7190 H   0  0  0  0  0  0
  -27.9053  -11.3041   18.9308 H   0  0  0  0  0  0
  -27.4006  -12.5360   17.7920 H   0  0  0  0  0  0
  -27.5986  -14.2734   19.4371 H   0  0  0  0  0  0
  -28.7283  -12.2988   21.4749 H   0  0  0  0  0  0
  -28.3841  -13.9930   21.7520 H   0  0  0  0  0  0
  -25.2747   -9.5772   22.4772 H   0  0  0  0  0  0
  -24.0066   -7.4655   22.7422 H   0  0  0  0  0  0
  -21.0865   -8.8769   19.8936 H   0  0  0  0  0  0
  -22.3672  -10.9696   19.6166 H   0  0  0  0  0  0
  -21.2018   -7.6140   23.9684 H   0  0  0  0  0  0
  -21.1504   -6.0525   25.9063 H   0  0  0  0  0  0
  -22.0605   -2.7596   23.2814 H   0  0  0  0  0  0
  -22.4025  -11.9908   22.4992 H   0  0  0  0  0  0
  -21.0963  -13.1150   22.2557 H   0  0  0  0  0  0
  -24.6498  -15.8605   20.5278 H   0  0  0  0  0  0
  -26.2542  -15.6341   20.0495 H   0  0  0  0  0  0
  -26.7275  -32.5298   23.0996 H   0  0  0  0  0  0
  -25.0123  -33.9650   25.0316 H   0  0  0  0  0  0
  -22.7417  -31.2986   21.3838 H   0  0  0  0  0  0
  -23.3761  -35.9544   23.3281 H   0  0  0  0  0  0
  -24.3539  -36.8916   22.2056 H   0  0  0  0  0  0
  -23.7226  -37.6404   23.6731 H   0  0  0  0  0  0
  -26.1400  -31.5051   20.6097 H   0  0  0  0  0  0
  -26.8636  -30.7886   22.0198 H   0  0  0  0  0  0
  -28.1420  -28.8910   21.1806 H   0  0  0  0  0  0
  -25.9679  -25.8348   19.0615 H   0  0  0  0  0  0
  -23.9821  -27.2750   19.0123 H   0  0  0  0  0  0
  -23.7921  -30.5697   19.4002 H   0  0  0  0  0  0
  -22.7798  -29.2374   19.8390 H   0  0  0  0  0  0
  -25.1309  -36.1751   25.0790 H   0  0  0  0  0  0
  -21.0033  -28.3338   24.1362 H   0  0  0  0  0  0
  -20.5705  -26.2395   23.3616 H   0  0  0  0  0  0
  -21.6658  -26.7481   22.1191 H   0  0  0  0  0  0
  -19.6914  -25.6306   21.1315 H   0  0  0  0  0  0
  -19.6697  -27.3186   20.6719 H   0  0  0  0  0  0
  -17.4205  -26.6736   21.4044 H   0  0  0  0  0  0
  -18.0334  -26.0133   22.9030 H   0  0  0  0  0  0
  -19.7938  -30.7352   24.2261 H   0  0  0  0  0  0
  -17.5010  -31.6323   24.5188 H   0  0  0  0  0  0
  -15.5357  -30.3030   23.7711 H   0  0  0  0  0  0
  -15.8681  -28.0884   22.7079 H   0  0  0  0  0  0
  -24.5781  -30.7364   25.7681 H   0  0  0  0  0  0
  -24.9067  -32.3017   26.4988 H   0  0  0  0  0  0
  -25.7940  -30.8788   27.0150 H   0  0  0  0  0  0
  -26.3012  -29.6800   24.1326 H   0  0  0  0  0  0
  -27.4009  -29.7351   25.4900 H   0  0  0  0  0  0
  -27.8931  -30.4347   23.9673 H   0  0  0  0  0  0
  -27.2639  -33.3720   26.2110 H   0  0  0  0  0  0
  -28.3832  -32.7073   25.0347 H   0  0  0  0  0  0
  -28.0804  -31.8606   26.5408 H   0  0  0  0  0  0
  -28.2517  -38.0092   24.7560 H   0  0  0  0  0  0
  -28.1083  -36.2628   24.6162 H   0  0  0  0  0  0
  -27.2284  -37.1257   25.8843 H   0  0  0  0  0  0
  -20.9475  -29.8757   21.6740 H   0  0  0  0  0  0
  -26.0060  -38.2785   24.1542 H   0  0  0  0  0  0
  -28.0064  -22.0963   22.6448 H   0  0  0  0  0  0
  -27.7542  -20.4766   23.2806 H   0  0  0  0  0  0
  -26.6311  -21.1217   22.0997 H   0  0  0  0  0  0
  -27.9764  -24.9009   17.8936 H   0  0  0  0  0  0
  -29.1216  -23.6613   17.3622 H   0  0  0  0  0  0
  -29.7057  -25.0904   18.2141 H   0  0  0  0  0  0
  -28.6986  -24.6282   21.4667 H   0  0  0  0  0  0
  -27.1208  -24.5601   20.7440 H   0  0  0  0  0  0
  -28.9485  -16.0353   20.7429 H   0  0  0  0  0  0
  1 25  1  0  0  0
  1 30  2  0  0  0
  1 81  1  0  0  0
  2  3  1  0  0  0
  2 25  1  0  0  0
  2 84  1  0  0  0
  2 85  1  0  0  0
  3  4  1  0  0  0
  3 86  1  0  0  0
  3 87  1  0  0  0
  4  5  1  0  0  0
  4 88  1  0  0  0
  4 89  1  0  0  0
  5  6  1  0  0  0
  5 26  1  0  0  0
  5 90  1  0  0  0
  6 25  1  0  0  0
  6 91  1  0  0  0
  6 92  1  0  0  0
  7  8  2  0  0  0
  7 26  1  0  0  0
  7 29  1  0  0  0
  8  9  1  0  0  0
  8 22  1  0  0  0
  9 10  1  0  0  0
  9 27  2  0  0  0
 10 11  2  0  0  0
 10 15  1  0  0  0
 11 12  1  0  0  0
 11 93  1  0  0  0
 12 13  2  0  0  0
 12 94  1  0  0  0
 13 14  1  0  0  0
 13 31  1  0  0  0
 14 15  2  0  0  0
 14 95  1  0  0  0
 15 96  1  0  0  0
 16 17  2  0  0  0
 16 21  1  0  0  0
 16 31  1  0  0  0
 17 18  1  0  0  0
 17 97  1  0  0  0
 18 19  2  0  0  0
 18 98  1  0  0  0
 19 20  1  0  0  0
 19 24  1  0  0  0
 20 21  2  0  0  0
 20 99  1  0  0  0
 21 23  1  0  0  0
 22 28  1  0  0  0
 22 32  2  0  0  0
 26 27  1  0  0  0
 28100  1  0  0  0
 28101  1  0  0  0
 29102  1  0  0  0
 29103  1  0  0  0
 33 34  1  0  0  0
 33 66  1  0  0  0
 33 70  2  0  0  0
 34 36  1  0  0  0
 34 59  1  0  0  0
 34104  1  0  0  0
 35 44  2  0  0  0
 35 45  1  0  0  0
 35 68  1  0  0  0
 36 56  1  0  0  0
 36105  1  0  0  0
 37 39  1  0  0  0
 37 47  1  0  0  0
 37 66  1  0  0  0
 37106  1  0  0  0
 38 43  2  0  0  0
 38 46  1  0  0  0
 38 47  1  0  0  0
 39 64  1  0  0  0
 39 67  2  0  0  0
 40 52  1  0  0  0
 40 53  2  0  0  0
 40 58  1  0  0  0
 41107  1  0  0  0
 41108  1  0  0  0
 41109  1  0  0  0
 41 48  1  0  0  0
 42 43  1  0  0  0
 42 66  1  0  0  0
 42110  1  0  0  0
 42111  1  0  0  0
 43 44  1  0  0  0
 44112  1  0  0  0
 45 46  2  0  0  0
 45113  1  0  0  0
 46114  1  0  0  0
 47115  1  0  0  0
 47116  1  0  0  0
 48 56  1  0  0  0
 48 65  1  0  0  0
 48117  1  0  0  0
 49 50  1  0  0  0
 49 53  1  0  0  0
 49 64  1  0  0  0
 49118  1  0  0  0
 50 51  1  0  0  0
 50119  1  0  0  0
 50120  1  0  0  0
 51 52  1  0  0  0
 51121  1  0  0  0
 51122  1  0  0  0
 52123  1  0  0  0
 52124  1  0  0  0
 53 54  1  0  0  0
 54 55  2  0  0  0
 54125  1  0  0  0
 55 57  1  0  0  0
 55126  1  0  0  0
 56 69  2  0  0  0
 57 58  2  0  0  0
 57127  1  0  0  0
 58128  1  0  0  0
 59 60  1  0  0  0
 59 61  1  0  0  0
 59 62  1  0  0  0
 60129  1  0  0  0
 60130  1  0  0  0
 60131  1  0  0  0
 61132  1  0  0  0
 61133  1  0  0  0
 61134  1  0  0  0
 62135  1  0  0  0
 62136  1  0  0  0
 62137  1  0  0  0
 63 65  1  0  0  0
 63138  1  0  0  0
 63139  1  0  0  0
 63140  1  0  0  0
 64141  1  0  0  0
 65142  1  0  0  0
 68 78  1  0  0  0
 71 72  2  0  0  0
 71 76  1  0  0  0
 71 83  1  0  0  0
 72 79  1  0  0  0
 72 80  1  0  0  0
 73 74  1  0  0  0
 73 79  2  0  0  0
 73 83  1  0  0  0
 74 81  1  0  0  0
 74 82  2  0  0  0
 75 77  1  0  0  0
 75 78  1  0  0  0
 75 80  2  0  0  0
 76143  1  0  0  0
 76144  1  0  0  0
 76145  1  0  0  0
 77146  1  0  0  0
 77147  1  0  0  0
 77148  1  0  0  0
 78149  1  0  0  0
 78150  1  0  0  0
 81151  1  0  0  0
M  ISO  4   1 100  68 101  78 101  81 100
M  END
> <chiral flag>
0

> <version>
0

> <s_m_source_file>
/data/baiqing/PycharmProjects/Reinvent-master-3.2/result/LINK_invent/BTK/process_docking_weight1_custom_product_contain_oxygen_bond_distance_aromatic_linkinvent_7_9_3/rearranged_h_0112.sdf

> <i_m_source_file_index>
12

> <r_mmod_Potential_Energy-OPLS-2005>
334.019348144531

> <r_mmod_Stretch_Energy-OPLS-2005>
182.64697265625

> <r_mmod_Bend_Energy-OPLS-2005>
350.368225097656

> <r_mmod_Torsional_Energy-OPLS-2005>
240.628463745117

> <r_mmod_Improper_Torsional_Energy-OPLS-2005>
6.60457754135132

> <r_mmod_Van_der_Waal_Energy-OPLS-2005>
117.877822875977

> <r_mmod_Electrostatic_Energy-OPLS-2005>
-442.991058349609

> <r_mmod_Solvation_Energy-OPLS-2005>
-255.06608581543

> <b_mmod_Minimization_Converged-OPLS-2005>
0

> <r_mmod_RMS_Derivative-OPLS-2005>
5.08295106887817

$$$$
12
                    3D
 Structure written by MMmdl.
166175  0  0  1  0            999 V2000
  -30.5598  -14.6060   20.5110 C   0  0  0  0  0  0
  -30.4598  -12.3783   19.4007 C   0  0  0  0  0  0
  -29.5049  -12.4954   18.1899 C   0  0  0  0  0  0
  -28.0277  -12.3482   18.6114 C   0  0  0  0  0  0
  -27.6652  -13.1904   19.8608 C   0  0  2  0  0  0
  -28.7126  -12.9580   20.9724 C   0  0  0  0  0  0
  -25.2687  -13.8076   20.5548 C   0  0  0  0  0  0
  -24.1935  -13.0422   20.9151 C   0  0  0  0  0  0
  -24.6448  -11.6872   20.8740 C   0  0  0  0  0  0
  -23.9049  -10.4314   21.0411 C   0  0  0  0  0  0
  -24.3598   -9.4270   21.9222 C   0  0  0  0  0  0
  -23.6293   -8.2292   22.0792 C   0  0  0  0  0  0
  -22.4287   -8.0305   21.3557 C   0  0  0  0  0  0
  -21.9907   -9.0288   20.4661 C   0  0  0  0  0  0
  -22.7210  -10.2180   20.3072 C   0  0  0  0  0  0
  -21.6877   -6.0741   22.5261 C   0  0  0  0  0  0
  -21.4005   -6.5638   23.8186 C   0  0  0  0  0  0
  -21.3649   -5.6800   24.9147 C   0  0  0  0  0  0
  -21.6053   -4.3062   24.7209 C   0  0  0  0  0  0
  -21.8822   -3.8152   23.4328 C   0  0  0  0  0  0
  -21.9226   -4.6971   22.3392 C   0  0  0  0  0  0
  -22.7973  -13.5278   21.1789 C   0  0  0  0  0  0
  -22.1697   -4.2155   21.0971 F   0  0  0  0  0  0
  -21.5660   -3.4552   25.7725 F   0  0  0  0  0  0
  -30.0222  -13.3502   20.4205 N   0  0  0  0  0  0
  -26.3088  -12.9187   20.3280 N   0  0  0  0  0  0
  -25.9379  -11.6374   20.5788 N   0  0  0  0  0  0
  -22.0512  -12.8316   22.0257 N   0  0  0  0  0  0
  -25.4517  -15.1735   20.3727 N   0  0  0  0  0  0
  -31.7047  -14.8616   20.1195 O   0  0  0  0  0  0
  -21.6661   -6.8890   21.4227 O   0  0  0  0  0  0
  -22.3689  -14.5613   20.6657 O   0  0  0  0  0  0
  -24.6279  -31.8595   23.1953 C   0  0  0  0  0  0
  -25.9140  -32.4768   23.8288 C   0  0  1  0  0  0
  -27.1923  -27.2933   20.1021 C   0  0  0  0  0  0
  -25.5927  -33.8543   24.2233 N   0  0  0  0  0  0
  -23.4182  -30.4879   21.5427 C   0  0  2  0  0  0
  -24.8533  -28.9451   20.1032 C   0  0  0  0  0  0
  -22.7476  -29.4608   22.4882 C   0  0  0  0  0  0
  -18.0296  -28.1447   22.8528 C   0  0  0  0  0  0
  -24.1457  -36.7204   23.2636 C   0  0  0  0  0  0
  -25.9622  -30.7866   21.3656 C   0  0  0  0  0  0
  -26.0342  -29.4138   20.7040 C   0  0  0  0  0  0
  -27.2073  -28.5939   20.6964 C   0  0  0  0  0  0
  -25.9787  -26.8790   19.5024 C   0  0  0  0  0  0
  -24.8308  -27.6861   19.4929 C   0  0  0  0  0  0
  -23.6288  -29.8313   20.1535 C   0  0  0  0  0  0
  -25.4093  -36.3037   24.0323 C   0  0  1  0  0  0
  -20.5901  -28.3682   23.1301 C   0  0  2  0  0  0
  -20.6732  -26.9390   22.5456 C   0  0  0  0  0  0
  -19.5718  -26.6442   21.5227 C   0  0  0  0  0  0
  -18.1917  -26.8002   22.1658 C   0  0  0  0  0  0
  -19.1556  -28.8883   23.2934 C   0  0  0  0  0  0
  -18.9489  -30.1499   23.8900 C   0  0  0  0  0  0
  -17.6495  -30.6621   24.0603 C   0  0  0  0  0  0
  -25.9044  -34.9445   23.5087 C   0  0  0  0  0  0
  -16.5385  -29.9140   23.6366 C   0  0  0  0  0  0
  -16.7295  -28.6584   23.0352 C   0  0  0  0  0  0
  -26.4500  -31.6574   25.0664 C   0  0  0  0  0  0
  -25.3764  -31.3742   26.1435 C   0  0  0  0  0  0
  -27.0340  -30.3004   24.6108 C   0  0  0  0  0  0
  -27.6040  -32.4322   25.7436 C   0  0  0  0  0  0
  -27.5540  -37.1777   24.8483 C   0  0  0  0  0  0
  -21.4193  -29.3025   22.3666 N   0  0  0  0  0  0
  -26.4252  -37.3766   23.9440 N   0  0  0  0  0  0
  -24.6868  -31.0633   22.0905 N   0  0  0  0  0  0
  -23.4212  -28.8145   23.2952 O   0  0  0  0  0  0
  -28.2667  -26.3792   20.1628 O   0  0  0  0  0  0
  -26.5653  -34.8932   22.4664 O   0  0  0  0  0  0
  -23.5482  -32.1372   23.7339 O   0  0  0  0  0  0
  -30.1986  -17.9474   20.3315 C   0  0  0  0  0  0
  -29.5330  -19.1635   20.7774 C   0  0  0  0  0  0
  -29.5293  -16.9124   20.9600 C   0  0  0  0  0  0
  -28.3429  -23.9147   19.4235 C   0  0  0  0  0  0
  -28.2848  -25.2949   19.2641 C   0  0  0  0  0  0
  -27.1625  -22.9856   21.4724 C   0  0  0  0  0  0
  -28.1830  -23.0072   18.2138 C   0  0  0  0  0  0
  -28.3518  -21.5445   18.6774 C   0  0  0  0  0  0
  -28.4823  -22.9648   20.6489 C   0  0  1  0  0  0
  -26.9944  -21.9889   22.6172 C   0  0  0  0  0  0
  -31.1180  -20.8829   19.7259 C   0  0  0  0  0  0
  -27.5091  -16.8575   22.5438 C   0  0  0  0  0  0
  -29.8388  -20.6853   20.5729 C   0  0  1  0  0  0
  -28.5185  -18.8469   21.5794 N   0  0  0  0  0  0
  -28.5126  -17.4921   21.6969 N   0  0  0  0  0  0
  -29.6529  -15.5363   20.9254 N   0  0  0  0  0  0
  -28.6529  -21.5370   20.1298 N   0  3  2  0  0  0
  -26.2212  -23.7520   21.2361 O   0  0  0  0  0  0
  -31.4881  -12.5623   19.0793 H   0  0  0  0  0  0
  -30.4481  -11.3635   19.8042 H   0  0  0  0  0  0
  -29.7487  -11.7336   17.4478 H   0  0  0  0  0  0
  -29.6632  -13.4563   17.6999 H   0  0  0  0  0  0
  -27.8558  -11.2948   18.8209 H   0  0  0  0  0  0
  -27.3670  -12.6047   17.7827 H   0  0  0  0  0  0
  -27.7020  -14.2359   19.5500 H   0  0  0  0  0  0
  -28.7335  -11.9030   21.2546 H   0  0  0  0  0  0
  -28.4612  -13.4943   21.8883 H   0  0  0  0  0  0
  -25.2724   -9.5804   22.4818 H   0  0  0  0  0  0
  -24.0018   -7.4684   22.7508 H   0  0  0  0  0  0
  -21.0858   -8.8780   19.8942 H   0  0  0  0  0  0
  -22.3645  -10.9731   19.6202 H   0  0  0  0  0  0
  -21.1939   -7.6139   23.9667 H   0  0  0  0  0  0
  -21.1470   -6.0535   25.9050 H   0  0  0  0  0  0
  -22.0599   -2.7616   23.2818 H   0  0  0  0  0  0
  -22.3960  -11.9892   22.4609 H   0  0  0  0  0  0
  -21.1151  -13.1481   22.2322 H   0  0  0  0  0  0
  -24.7099  -15.8504   20.5085 H   0  0  0  0  0  0
  -26.2383  -15.5513   19.8613 H   0  0  0  0  0  0
  -26.7165  -32.5420   23.0978 H   0  0  0  0  0  0
  -25.0018  -33.9671   25.0361 H   0  0  0  0  0  0
  -22.7119  -31.3057   21.4013 H   0  0  0  0  0  0
  -23.3722  -35.9533   23.3352 H   0  0  0  0  0  0
  -24.3492  -36.8795   22.2038 H   0  0  0  0  0  0
  -23.7247  -37.6424   23.6614 H   0  0  0  0  0  0
  -26.1065  -31.5529   20.6015 H   0  0  0  0  0  0
  -26.8352  -30.8221   22.0054 H   0  0  0  0  0  0
  -28.1073  -28.9417   21.1855 H   0  0  0  0  0  0
  -25.8722  -25.8961   19.0659 H   0  0  0  0  0  0
  -23.9216  -27.3173   19.0338 H   0  0  0  0  0  0
  -23.7498  -30.6038   19.3943 H   0  0  0  0  0  0
  -22.7435  -29.2677   19.8537 H   0  0  0  0  0  0
  -25.1308  -36.1807   25.0823 H   0  0  0  0  0  0
  -21.0101  -28.3245   24.1378 H   0  0  0  0  0  0
  -20.5610  -26.2267   23.3679 H   0  0  0  0  0  0
  -21.6593  -26.7485   22.1209 H   0  0  0  0  0  0
  -19.6866  -25.6393   21.1138 H   0  0  0  0  0  0
  -19.6607  -27.3298   20.6789 H   0  0  0  0  0  0
  -17.4207  -26.6826   21.4019 H   0  0  0  0  0  0
  -18.0293  -26.0161   22.9066 H   0  0  0  0  0  0
  -19.7958  -30.7347   24.2231 H   0  0  0  0  0  0
  -17.5048  -31.6277   24.5252 H   0  0  0  0  0  0
  -15.5373  -30.3052   23.7687 H   0  0  0  0  0  0
  -15.8705  -28.0918   22.7040 H   0  0  0  0  0  0
  -24.5908  -30.7104   25.7796 H   0  0  0  0  0  0
  -24.9011  -32.2954   26.4837 H   0  0  0  0  0  0
  -25.8179  -30.8955   27.0202 H   0  0  0  0  0  0
  -26.2921  -29.6756   24.1122 H   0  0  0  0  0  0
  -27.4023  -29.7247   25.4594 H   0  0  0  0  0  0
  -27.8774  -30.4240   23.9313 H   0  0  0  0  0  0
  -27.2592  -33.3605   26.1965 H   0  0  0  0  0  0
  -28.3862  -32.6924   25.0305 H   0  0  0  0  0  0
  -28.0637  -31.8488   26.5416 H   0  0  0  0  0  0
  -28.2627  -38.0004   24.7531 H   0  0  0  0  0  0
  -28.0995  -36.2579   24.6328 H   0  0  0  0  0  0
  -27.2270  -37.1494   25.8889 H   0  0  0  0  0  0
  -20.9358  -29.8839   21.6961 H   0  0  0  0  0  0
  -26.0090  -38.2818   24.1492 H   0  0  0  0  0  0
  -31.0435  -17.8601   19.6653 H   0  0  0  0  0  0
  -28.1759  -25.6845   18.2609 H   0  0  0  0  0  0
  -28.8917  -23.2671   17.4267 H   0  0  0  0  0  0
  -27.1882  -23.1346   17.7835 H   0  0  0  0  0  0
  -29.0810  -21.0175   18.0616 H   0  0  0  0  0  0
  -27.4164  -20.9960   18.5472 H   0  0  0  0  0  0
  -29.3212  -23.2725   21.2741 H   0  0  0  0  0  0
  -27.8928  -21.9503   23.2278 H   0  0  0  0  0  0
  -26.7724  -20.9921   22.2333 H   0  0  0  0  0  0
  -26.1644  -22.2844   23.2614 H   0  0  0  0  0  0
  -31.9709  -20.4057   20.2116 H   0  0  0  0  0  0
  -31.3618  -21.9389   19.6136 H   0  0  0  0  0  0
  -31.0549  -20.4454   18.7298 H   0  0  0  0  0  0
  -27.4658  -15.7826   22.3714 H   0  0  0  0  0  0
  -26.5238  -17.2748   22.3335 H   0  0  0  0  0  0
  -27.7445  -17.0177   23.5963 H   0  0  0  0  0  0
  -30.0996  -21.0677   21.5611 H   0  0  0  0  0  0
  -28.8190  -15.0690   21.2463 H   0  0  0  0  0  0
  -27.8846  -21.0214   20.5420 H   0  0  0  0  0  0
  1 25  1  0  0  0
  1 30  2  0  0  0
  1 86  1  0  0  0
  2  3  1  0  0  0
  2 25  1  0  0  0
  2 89  1  0  0  0
  2 90  1  0  0  0
  3  4  1  0  0  0
  3 91  1  0  0  0
  3 92  1  0  0  0
  4  5  1  0  0  0
  4 93  1  0  0  0
  4 94  1  0  0  0
  5  6  1  0  0  0
  5 26  1  0  0  0
  5 95  1  0  0  0
  6 25  1  0  0  0
  6 96  1  0  0  0
  6 97  1  0  0  0
  7  8  2  0  0  0
  7 26  1  0  0  0
  7 29  1  0  0  0
  8  9  1  0  0  0
  8 22  1  0  0  0
  9 10  1  0  0  0
  9 27  2  0  0  0
 10 11  2  0  0  0
 10 15  1  0  0  0
 11 12  1  0  0  0
 11 98  1  0  0  0
 12 13  2  0  0  0
 12 99  1  0  0  0
 13 14  1  0  0  0
 13 31  1  0  0  0
 14 15  2  0  0  0
 14100  1  0  0  0
 15101  1  0  0  0
 16 17  2  0  0  0
 16 21  1  0  0  0
 16 31  1  0  0  0
 17 18  1  0  0  0
 17102  1  0  0  0
 18 19  2  0  0  0
 18103  1  0  0  0
 19 20  1  0  0  0
 19 24  1  0  0  0
 20 21  2  0  0  0
 20104  1  0  0  0
 21 23  1  0  0  0
 22 28  1  0  0  0
 22 32  2  0  0  0
 26 27  1  0  0  0
 28105  1  0  0  0
 28106  1  0  0  0
 29107  1  0  0  0
 29108  1  0  0  0
 33 34  1  0  0  0
 33 66  1  0  0  0
 33 70  2  0  0  0
 34 36  1  0  0  0
 34 59  1  0  0  0
 34109  1  0  0  0
 35 44  2  0  0  0
 35 45  1  0  0  0
 35 68  1  0  0  0
 36 56  1  0  0  0
 36110  1  0  0  0
 37 39  1  0  0  0
 37 47  1  0  0  0
 37 66  1  0  0  0
 37111  1  0  0  0
 38 43  2  0  0  0
 38 46  1  0  0  0
 38 47  1  0  0  0
 39 64  1  0  0  0
 39 67  2  0  0  0
 40 52  1  0  0  0
 40 53  2  0  0  0
 40 58  1  0  0  0
 41112  1  0  0  0
 41113  1  0  0  0
 41114  1  0  0  0
 41 48  1  0  0  0
 42 43  1  0  0  0
 42 66  1  0  0  0
 42115  1  0  0  0
 42116  1  0  0  0
 43 44  1  0  0  0
 44117  1  0  0  0
 45 46  2  0  0  0
 45118  1  0  0  0
 46119  1  0  0  0
 47120  1  0  0  0
 47121  1  0  0  0
 48 56  1  0  0  0
 48 65  1  0  0  0
 48122  1  0  0  0
 49 50  1  0  0  0
 49 53  1  0  0  0
 49 64  1  0  0  0
 49123  1  0  0  0
 50 51  1  0  0  0
 50124  1  0  0  0
 50125  1  0  0  0
 51 52  1  0  0  0
 51126  1  0  0  0
 51127  1  0  0  0
 52128  1  0  0  0
 52129  1  0  0  0
 53 54  1  0  0  0
 54 55  2  0  0  0
 54130  1  0  0  0
 55 57  1  0  0  0
 55131  1  0  0  0
 56 69  2  0  0  0
 57 58  2  0  0  0
 57132  1  0  0  0
 58133  1  0  0  0
 59 60  1  0  0  0
 59 61  1  0  0  0
 59 62  1  0  0  0
 60134  1  0  0  0
 60135  1  0  0  0
 60136  1  0  0  0
 61137  1  0  0  0
 61138  1  0  0  0
 61139  1  0  0  0
 62140  1  0  0  0
 62141  1  0  0  0
 62142  1  0  0  0
 63 65  1  0  0  0
 63143  1  0  0  0
 63144  1  0  0  0
 63145  1  0  0  0
 64146  1  0  0  0
 65147  1  0  0  0
 68 75  1  0  0  0
 71 72  1  0  0  0
 71 73  2  0  0  0
 71148  1  0  0  0
 72 83  1  0  0  0
 72 84  2  0  0  0
 73 85  1  0  0  0
 73 86  1  0  0  0
 74 75  2  0  0  0
 74 77  1  0  0  0
 74 79  1  0  0  0
 75149  1  0  0  0
 76 80  1  0  0  0
 76 88  2  0  0  0
 76 79  1  0  0  0
 77 78  1  0  0  0
 77150  1  0  0  0
 77151  1  0  0  0
 78152  1  0  0  0
 78153  1  0  0  0
 78 87  1  0  0  0
 79 87  1  0  0  0
 79154  1  0  0  0
 80155  1  0  0  0
 80156  1  0  0  0
 80157  1  0  0  0
 81158  1  0  0  0
 81159  1  0  0  0
 81160  1  0  0  0
 81 83  1  0  0  0
 82 85  1  0  0  0
 82161  1  0  0  0
 82162  1  0  0  0
 82163  1  0  0  0
 83 87  1  0  0  0
 83164  1  0  0  0
 84 85  1  0  0  0
 86165  1  0  0  0
 87166  1  0  0  0
M  CHG  1  87   1
M  ISO  4   1 100  68 101  75 101  86 100
M  END
> <chiral flag>
0

> <version>
0

> <s_m_source_file>
/data/baiqing/PycharmProjects/Reinvent-master-3.2/result/LINK_invent/BTK/process_docking_weight1_custom_product_contain_oxygen_bond_distance_aromatic_linkinvent_7_9_3/rearranged_h_0112.sdf

> <i_m_source_file_index>
13

> <r_mmod_Potential_Energy-OPLS-2005>
-181.136657714844

> <r_mmod_Stretch_Energy-OPLS-2005>
78.1088180541992

> <r_mmod_Bend_Energy-OPLS-2005>
207.049774169922

> <r_mmod_Torsional_Energy-OPLS-2005>
267.136779785156

> <r_mmod_Improper_Torsional_Energy-OPLS-2005>
5.0381441116333

> <r_mmod_Van_der_Waal_Energy-OPLS-2005>
115.236465454102

> <r_mmod_Electrostatic_Energy-OPLS-2005>
-468.125640869141

> <r_mmod_Solvation_Energy-OPLS-2005>
-444.001251220703

> <b_mmod_Minimization_Converged-OPLS-2005>
0

> <r_mmod_RMS_Derivative-OPLS-2005>
7.47122669219971

$$$$
13
                    3D
 Structure written by MMmdl.
151159  0  0  1  0            999 V2000
  -30.5444  -14.9417   20.3543 C   0  0  0  0  0  0
  -30.4497  -12.5677   19.4780 C   0  0  0  0  0  0
  -29.5196  -12.4747   18.2450 C   0  0  0  0  0  0
  -28.0486  -12.2805   18.6700 C   0  0  0  0  0  0
  -27.6191  -13.2218   19.8252 C   0  0  2  0  0  0
  -28.6762  -13.2867   20.9460 C   0  0  0  0  0  0
  -25.2475  -13.8104   20.5775 C   0  0  0  0  0  0
  -24.1760  -13.0375   20.9258 C   0  0  0  0  0  0
  -24.6351  -11.6855   20.8784 C   0  0  0  0  0  0
  -23.9034  -10.4251   21.0429 C   0  0  0  0  0  0
  -24.3596   -9.4171   21.9199 C   0  0  0  0  0  0
  -23.6274   -8.2209   22.0758 C   0  0  0  0  0  0
  -22.4258   -8.0257   21.3544 C   0  0  0  0  0  0
  -21.9890   -9.0230   20.4648 C   0  0  0  0  0  0
  -22.7216  -10.2108   20.3065 C   0  0  0  0  0  0
  -21.6841   -6.0723   22.5279 C   0  0  0  0  0  0
  -21.4004   -6.5632   23.8211 C   0  0  0  0  0  0
  -21.3655   -5.6787   24.9176 C   0  0  0  0  0  0
  -21.6044   -4.3051   24.7228 C   0  0  0  0  0  0
  -21.8822   -3.8140   23.4350 C   0  0  0  0  0  0
  -21.9190   -4.6954   22.3404 C   0  0  0  0  0  0
  -22.7793  -13.5188   21.1894 C   0  0  0  0  0  0
  -22.1661   -4.2141   21.0982 F   0  0  0  0  0  0
  -21.5631   -3.4536   25.7742 F   0  0  0  0  0  0
  -29.9562  -13.6761   20.3351 N   0  0  0  0  0  0
  -26.2852  -12.9275   20.3270 N   0  0  0  0  0  0
  -25.9273  -11.6441   20.5775 N   0  0  0  0  0  0
  -22.0425  -12.8192   22.0447 N   0  0  0  0  0  0
  -25.4188  -15.1823   20.4264 N   0  0  0  0  0  0
  -31.7771  -14.9967   20.2958 O   0  0  0  0  0  0
  -21.6621   -6.8859   21.4238 O   0  0  0  0  0  0
  -22.3499  -14.5499   20.6731 O   0  0  0  0  0  0
  -24.6403  -31.8467   23.1900 C   0  0  0  0  0  0
  -25.9186  -32.4710   23.8283 C   0  0  1  0  0  0
  -27.2254  -27.1733   20.1562 C   0  0  0  0  0  0
  -25.5945  -33.8515   24.2203 N   0  0  0  0  0  0
  -23.4429  -30.4649   21.5348 C   0  0  2  0  0  0
  -24.8943  -28.8920   20.1160 C   0  0  0  0  0  0
  -22.7552  -29.4558   22.4878 C   0  0  0  0  0  0
  -18.0300  -28.1394   22.8479 C   0  0  0  0  0  0
  -24.1487  -36.7258   23.2643 C   0  0  0  0  0  0
  -25.9955  -30.7329   21.3825 C   0  0  0  0  0  0
  -26.0704  -29.3452   20.7288 C   0  0  0  0  0  0
  -27.2408  -28.5028   20.7287 C   0  0  0  0  0  0
  -26.0252  -26.8065   19.5130 C   0  0  0  0  0  0
  -24.8817  -27.6338   19.4934 C   0  0  0  0  0  0
  -23.6688  -29.7907   20.1556 C   0  0  0  0  0  0
  -25.4119  -36.3040   24.0319 C   0  0  1  0  0  0
  -20.5910  -28.3716   23.1244 C   0  0  2  0  0  0
  -20.6785  -26.9422   22.5406 C   0  0  0  0  0  0
  -19.5760  -26.6383   21.5212 C   0  0  0  0  0  0
  -18.1940  -26.7933   22.1623 C   0  0  0  0  0  0
  -19.1556  -28.8873   23.2853 C   0  0  0  0  0  0
  -18.9475  -30.1470   23.8879 C   0  0  0  0  0  0
  -17.6473  -30.6593   24.0559 C   0  0  0  0  0  0
  -25.9069  -34.9415   23.5069 C   0  0  0  0  0  0
  -16.5363  -29.9087   23.6336 C   0  0  0  0  0  0
  -16.7285  -28.6504   23.0359 C   0  0  0  0  0  0
  -26.4520  -31.6570   25.0713 C   0  0  0  0  0  0
  -25.3715  -31.3747   26.1414 C   0  0  0  0  0  0
  -27.0386  -30.2974   24.6268 C   0  0  0  0  0  0
  -27.6055  -32.4333   25.7494 C   0  0  0  0  0  0
  -27.5575  -37.1782   24.8465 C   0  0  0  0  0  0
  -21.4248  -29.3046   22.3620 N   0  0  0  0  0  0
  -26.4283  -37.3753   23.9414 N   0  0  0  0  0  0
  -24.7124  -31.0352   22.0916 N   0  0  0  0  0  0
  -23.4205  -28.8110   23.3023 O   0  0  0  0  0  0
  -28.2917  -26.2160   20.1592 O   0  0  0  0  0  0
  -26.5653  -34.8909   22.4646 O   0  0  0  0  0  0
  -23.5529  -32.1325   23.7140 O   0  0  0  0  0  0
  -28.3263  -20.0488   19.7317 C   0  0  0  0  0  0
  -30.2542  -20.0247   21.0577 C   0  0  0  0  0  0
  -29.5224  -17.7731   20.0794 C   0  0  0  0  0  0
  -28.4445  -18.6137   19.5482 C   0  0  0  0  0  0
  -29.2163  -20.8502   20.4945 C   0  0  0  0  0  0
  -30.4141  -18.5875   20.8599 C   0  0  0  0  0  0
  -28.5901  -23.3593   20.1580 C   0  0  0  0  0  0
  -29.6960  -16.1965   19.6846 C   0  0  0  0  0  0
  -27.2925  -18.0235   18.7404 C   0  0  0  0  0  0
  -28.0727  -24.8148   20.7643 C   0  0  0  0  0  0
  -29.1734  -15.8607   18.5803 N   0  0  0  0  0  0
  -29.0027  -22.2845   20.8513 N   0  0  0  0  0  0
  -31.4785  -17.9900   21.4480 F   0  0  0  0  0  0
  -31.4791  -12.7359   19.1569 H   0  0  0  0  0  0
  -30.4553  -11.6284   20.0332 H   0  0  0  0  0  0
  -29.8301  -11.6453   17.6084 H   0  0  0  0  0  0
  -29.6174  -13.3685   17.6298 H   0  0  0  0  0  0
  -27.9407  -11.2434   18.9898 H   0  0  0  0  0  0
  -27.3853  -12.4022   17.8128 H   0  0  0  0  0  0
  -27.5367  -14.2047   19.3783 H   0  0  0  0  0  0
  -28.7649  -12.3273   21.4579 H   0  0  0  0  0  0
  -28.3832  -14.0173   21.7018 H   0  0  0  0  0  0
  -25.2740   -9.5648   22.4776 H   0  0  0  0  0  0
  -23.9981   -7.4596   22.7474 H   0  0  0  0  0  0
  -21.0822   -8.8750   19.8954 H   0  0  0  0  0  0
  -22.3678  -10.9653   19.6179 H   0  0  0  0  0  0
  -21.1990   -7.6139   23.9711 H   0  0  0  0  0  0
  -21.1475   -6.0519   25.9078 H   0  0  0  0  0  0
  -22.0606   -2.7602   23.2853 H   0  0  0  0  0  0
  -22.4032  -11.9852   22.4840 H   0  0  0  0  0  0
  -21.1047  -13.1231   22.2649 H   0  0  0  0  0  0
  -24.6567  -15.8408   20.5447 H   0  0  0  0  0  0
  -26.2765  -15.6146   20.1099 H   0  0  0  0  0  0
  -26.7253  -32.5334   23.1018 H   0  0  0  0  0  0
  -25.0076  -33.9634   25.0339 H   0  0  0  0  0  0
  -22.7439  -31.2894   21.3797 H   0  0  0  0  0  0
  -23.3756  -35.9583   23.3295 H   0  0  0  0  0  0
  -24.3574  -36.8900   22.2059 H   0  0  0  0  0  0
  -23.7234  -37.6449   23.6684 H   0  0  0  0  0  0
  -26.1443  -31.4872   20.6085 H   0  0  0  0  0  0
  -26.8683  -30.7861   22.0217 H   0  0  0  0  0  0
  -28.1424  -28.8492   21.2142 H   0  0  0  0  0  0
  -25.9616  -25.8404   19.0323 H   0  0  0  0  0  0
  -23.9839  -27.2812   19.0044 H   0  0  0  0  0  0
  -23.8030  -30.5630   19.3973 H   0  0  0  0  0  0
  -22.7850  -29.2294   19.8472 H   0  0  0  0  0  0
  -25.1304  -36.1869   25.0810 H   0  0  0  0  0  0
  -21.0000  -28.3304   24.1366 H   0  0  0  0  0  0
  -20.5679  -26.2329   23.3622 H   0  0  0  0  0  0
  -21.6651  -26.7432   22.1205 H   0  0  0  0  0  0
  -19.6921  -25.6289   21.1255 H   0  0  0  0  0  0
  -19.6697  -27.3181   20.6731 H   0  0  0  0  0  0
  -17.4209  -26.6677   21.4027 H   0  0  0  0  0  0
  -18.0339  -26.0079   22.9023 H   0  0  0  0  0  0
  -19.7951  -30.7288   24.2243 H   0  0  0  0  0  0
  -17.5028  -31.6272   24.5162 H   0  0  0  0  0  0
  -15.5363  -30.2984   23.7673 H   0  0  0  0  0  0
  -15.8684  -28.0816   22.7090 H   0  0  0  0  0  0
  -24.5900  -30.7087   25.7737 H   0  0  0  0  0  0
  -24.8896  -32.2924   26.4795 H   0  0  0  0  0  0
  -25.8008  -30.8954   27.0221 H   0  0  0  0  0  0
  -26.2997  -29.6698   24.1272 H   0  0  0  0  0  0
  -27.4012  -29.7268   25.4828 H   0  0  0  0  0  0
  -27.8895  -30.4224   23.9568 H   0  0  0  0  0  0
  -27.2651  -33.3651   26.2024 H   0  0  0  0  0  0
  -28.3888  -32.6869   25.0339 H   0  0  0  0  0  0
  -28.0698  -31.8493   26.5450 H   0  0  0  0  0  0
  -28.2581  -38.0091   24.7524 H   0  0  0  0  0  0
  -28.1082  -36.2621   24.6275 H   0  0  0  0  0  0
  -27.2295  -37.1409   25.8868 H   0  0  0  0  0  0
  -20.9456  -29.8755   21.6798 H   0  0  0  0  0  0
  -26.0150  -38.2818   24.1432 H   0  0  0  0  0  0
  -27.4729  -20.5524   19.2981 H   0  0  0  0  0  0
  -30.9803  -20.5085   21.6942 H   0  0  0  0  0  0
  -28.4939  -23.3033   19.0706 H   0  0  0  0  0  0
  -26.4302  -18.6899   18.7067 H   0  0  0  0  0  0
  -26.9397  -17.0920   19.1770 H   0  0  0  0  0  0
  -27.5993  -17.8375   17.7108 H   0  0  0  0  0  0
  -28.4854  -24.8825   21.7709 H   0  0  0  0  0  0
  -27.0024  -24.6954   20.9319 H   0  0  0  0  0  0
  -29.3710  -14.8873   18.3805 H   0  0  0  0  0  0
  1 25  1  0  0  0
  1 30  2  0  0  0
  1 78  1  0  0  0
  2  3  1  0  0  0
  2 25  1  0  0  0
  2 84  1  0  0  0
  2 85  1  0  0  0
  3  4  1  0  0  0
  3 86  1  0  0  0
  3 87  1  0  0  0
  4  5  1  0  0  0
  4 88  1  0  0  0
  4 89  1  0  0  0
  5  6  1  0  0  0
  5 26  1  0  0  0
  5 90  1  0  0  0
  6 25  1  0  0  0
  6 91  1  0  0  0
  6 92  1  0  0  0
  7  8  2  0  0  0
  7 26  1  0  0  0
  7 29  1  0  0  0
  8  9  1  0  0  0
  8 22  1  0  0  0
  9 10  1  0  0  0
  9 27  2  0  0  0
 10 11  2  0  0  0
 10 15  1  0  0  0
 11 12  1  0  0  0
 11 93  1  0  0  0
 12 13  2  0  0  0
 12 94  1  0  0  0
 13 14  1  0  0  0
 13 31  1  0  0  0
 14 15  2  0  0  0
 14 95  1  0  0  0
 15 96  1  0  0  0
 16 17  2  0  0  0
 16 21  1  0  0  0
 16 31  1  0  0  0
 17 18  1  0  0  0
 17 97  1  0  0  0
 18 19  2  0  0  0
 18 98  1  0  0  0
 19 20  1  0  0  0
 19 24  1  0  0  0
 20 21  2  0  0  0
 20 99  1  0  0  0
 21 23  1  0  0  0
 22 28  1  0  0  0
 22 32  2  0  0  0
 26 27  1  0  0  0
 28100  1  0  0  0
 28101  1  0  0  0
 29102  1  0  0  0
 29103  1  0  0  0
 33 34  1  0  0  0
 33 66  1  0  0  0
 33 70  2  0  0  0
 34 36  1  0  0  0
 34 59  1  0  0  0
 34104  1  0  0  0
 35 44  2  0  0  0
 35 45  1  0  0  0
 35 68  1  0  0  0
 36 56  1  0  0  0
 36105  1  0  0  0
 37 39  1  0  0  0
 37 47  1  0  0  0
 37 66  1  0  0  0
 37106  1  0  0  0
 38 43  2  0  0  0
 38 46  1  0  0  0
 38 47  1  0  0  0
 39 64  1  0  0  0
 39 67  2  0  0  0
 40 52  1  0  0  0
 40 53  2  0  0  0
 40 58  1  0  0  0
 41107  1  0  0  0
 41108  1  0  0  0
 41109  1  0  0  0
 41 48  1  0  0  0
 42 43  1  0  0  0
 42 66  1  0  0  0
 42110  1  0  0  0
 42111  1  0  0  0
 43 44  1  0  0  0
 44112  1  0  0  0
 45 46  2  0  0  0
 45113  1  0  0  0
 46114  1  0  0  0
 47115  1  0  0  0
 47116  1  0  0  0
 48 56  1  0  0  0
 48 65  1  0  0  0
 48117  1  0  0  0
 49 50  1  0  0  0
 49 53  1  0  0  0
 49 64  1  0  0  0
 49118  1  0  0  0
 50 51  1  0  0  0
 50119  1  0  0  0
 50120  1  0  0  0
 51 52  1  0  0  0
 51121  1  0  0  0
 51122  1  0  0  0
 52123  1  0  0  0
 52124  1  0  0  0
 53 54  1  0  0  0
 54 55  2  0  0  0
 54125  1  0  0  0
 55 57  1  0  0  0
 55126  1  0  0  0
 56 69  2  0  0  0
 57 58  2  0  0  0
 57127  1  0  0  0
 58128  1  0  0  0
 59 60  1  0  0  0
 59 61  1  0  0  0
 59 62  1  0  0  0
 60129  1  0  0  0
 60130  1  0  0  0
 60131  1  0  0  0
 61132  1  0  0  0
 61133  1  0  0  0
 61134  1  0  0  0
 62135  1  0  0  0
 62136  1  0  0  0
 62137  1  0  0  0
 63 65  1  0  0  0
 63138  1  0  0  0
 63139  1  0  0  0
 63140  1  0  0  0
 64141  1  0  0  0
 65142  1  0  0  0
 68 80  1  0  0  0
 71 74  2  0  0  0
 71 75  1  0  0  0
 71143  1  0  0  0
 72 75  2  0  0  0
 72 76  1  0  0  0
 72144  1  0  0  0
 73 74  1  0  0  0
 73 76  2  0  0  0
 73 78  1  0  0  0
 74 79  1  0  0  0
 75 82  1  0  0  0
 76 83  1  0  0  0
 77 80  1  0  0  0
 77 82  2  0  0  0
 77145  1  0  0  0
 78 81  2  0  0  0
 79146  1  0  0  0
 79147  1  0  0  0
 79148  1  0  0  0
 80149  1  0  0  0
 80150  1  0  0  0
 81151  1  0  0  0
M  ISO  4   1 100  68 101  78 100  80 101
M  END
> <chiral flag>
0

> <version>
0

> <s_m_source_file>
/data/baiqing/PycharmProjects/Reinvent-master-3.2/result/LINK_invent/BTK/process_docking_weight1_custom_product_contain_oxygen_bond_distance_aromatic_linkinvent_7_9_3/rearranged_h_0112.sdf

> <i_m_source_file_index>
14

> <r_mmod_Potential_Energy-OPLS-2005>
722.701171875

> <r_mmod_Stretch_Energy-OPLS-2005>
236.234786987305

> <r_mmod_Bend_Energy-OPLS-2005>
273.066955566406

> <r_mmod_Torsional_Energy-OPLS-2005>
268.069091796875

> <r_mmod_Improper_Torsional_Energy-OPLS-2005>
28.2658653259277

> <r_mmod_Van_der_Waal_Energy-OPLS-2005>
144.522186279297

> <r_mmod_Electrostatic_Energy-OPLS-2005>
-208.383651733398

> <r_mmod_Solvation_Energy-OPLS-2005>
-201.258499145508

> <b_mmod_Minimization_Converged-OPLS-2005>
0

> <r_mmod_RMS_Derivative-OPLS-2005>
0.224399030208588

$$$$
14
                    3D
 Structure written by MMmdl.
164173  0  0  1  0            999 V2000
  -30.6828  -14.5023   20.4977 C   0  0  0  0  0  0
  -30.4190  -12.3029   19.4212 C   0  0  0  0  0  0
  -29.4904  -12.4998   18.2038 C   0  0  0  0  0  0
  -28.0087  -12.3730   18.6118 C   0  0  0  0  0  0
  -27.6567  -13.2107   19.8704 C   0  0  2  0  0  0
  -28.7055  -13.0109   20.9893 C   0  0  0  0  0  0
  -25.2513  -13.8099   20.5586 C   0  0  0  0  0  0
  -24.1804  -13.0381   20.9151 C   0  0  0  0  0  0
  -24.6400  -11.6870   20.8746 C   0  0  0  0  0  0
  -23.9081  -10.4261   21.0410 C   0  0  0  0  0  0
  -24.3625   -9.4183   21.9187 C   0  0  0  0  0  0
  -23.6296   -8.2220   22.0750 C   0  0  0  0  0  0
  -22.4278   -8.0268   21.3540 C   0  0  0  0  0  0
  -21.9918   -9.0241   20.4642 C   0  0  0  0  0  0
  -22.7247  -10.2115   20.3058 C   0  0  0  0  0  0
  -21.6848   -6.0731   22.5273 C   0  0  0  0  0  0
  -21.4013   -6.5639   23.8212 C   0  0  0  0  0  0
  -21.3659   -5.6799   24.9174 C   0  0  0  0  0  0
  -21.6047   -4.3054   24.7225 C   0  0  0  0  0  0
  -21.8819   -3.8147   23.4345 C   0  0  0  0  0  0
  -21.9193   -4.6968   22.3410 C   0  0  0  0  0  0
  -22.7837  -13.5181   21.1850 C   0  0  0  0  0  0
  -22.1656   -4.2159   21.0984 F   0  0  0  0  0  0
  -21.5635   -3.4542   25.7740 F   0  0  0  0  0  0
  -30.0352  -13.3063   20.4269 N   0  0  0  0  0  0
  -26.3013  -12.9317   20.3389 N   0  0  0  0  0  0
  -25.9342  -11.6473   20.5828 N   0  0  0  0  0  0
  -22.0498  -12.8163   22.0419 N   0  0  0  0  0  0
  -25.4090  -15.1779   20.3839 N   0  0  0  0  0  0
  -31.8422  -14.6486   20.1047 O   0  0  0  0  0  0
  -21.6625   -6.8866   21.4239 O   0  0  0  0  0  0
  -22.3506  -14.5489   20.6719 O   0  0  0  0  0  0
  -24.6186  -31.8622   23.2063 C   0  0  0  0  0  0
  -25.9062  -32.4798   23.8394 C   0  0  1  0  0  0
  -27.2473  -27.4065   20.1164 C   0  0  0  0  0  0
  -25.5901  -33.8602   24.2306 N   0  0  0  0  0  0
  -23.4131  -30.4867   21.5405 C   0  0  2  0  0  0
  -24.8687  -28.9455   20.1131 C   0  0  0  0  0  0
  -22.7447  -29.4651   22.4897 C   0  0  0  0  0  0
  -18.0308  -28.1407   22.8491 C   0  0  0  0  0  0
  -24.1497  -36.7306   23.2639 C   0  0  0  0  0  0
  -25.9447  -30.8213   21.3668 C   0  0  0  0  0  0
  -26.0266  -29.4528   20.7172 C   0  0  0  0  0  0
  -27.2215  -28.6889   20.7185 C   0  0  0  0  0  0
  -26.0764  -26.9212   19.4993 C   0  0  0  0  0  0
  -24.8870  -27.6781   19.5049 C   0  0  0  0  0  0
  -23.6314  -29.8175   20.1566 C   0  0  0  0  0  0
  -25.4107  -36.3083   24.0334 C   0  0  1  0  0  0
  -20.5898  -28.3690   23.1289 C   0  0  2  0  0  0
  -20.6787  -26.9415   22.5404 C   0  0  0  0  0  0
  -19.5756  -26.6386   21.5209 C   0  0  0  0  0  0
  -18.1928  -26.7945   22.1629 C   0  0  0  0  0  0
  -19.1557  -28.8866   23.2899 C   0  0  0  0  0  0
  -18.9478  -30.1453   23.8931 C   0  0  0  0  0  0
  -17.6471  -30.6595   24.0573 C   0  0  0  0  0  0
  -25.9037  -34.9459   23.5133 C   0  0  0  0  0  0
  -16.5363  -29.9095   23.6347 C   0  0  0  0  0  0
  -16.7292  -28.6528   23.0354 C   0  0  0  0  0  0
  -26.4478  -31.6592   25.0746 C   0  0  0  0  0  0
  -25.3722  -31.3720   26.1481 C   0  0  0  0  0  0
  -27.0313  -30.3036   24.6134 C   0  0  0  0  0  0
  -27.6054  -32.4299   25.7508 C   0  0  0  0  0  0
  -27.5576  -37.1804   24.8462 C   0  0  0  0  0  0
  -21.4169  -29.3050   22.3670 N   0  0  0  0  0  0
  -26.4279  -37.3775   23.9413 N   0  0  0  0  0  0
  -24.6764  -31.0722   22.0953 N   0  0  0  0  0  0
  -23.4201  -28.8187   23.2947 O   0  0  0  0  0  0
  -28.3676  -26.5969   20.1254 O   0  0  0  0  0  0
  -26.5586  -34.8917   22.4683 O   0  0  0  0  0  0
  -23.5368  -32.1375   23.7430 O   0  0  0  0  0  0
  -31.1402  -18.9816   19.7660 C   0  0  0  0  0  0
  -31.1604  -17.5993   20.0719 C   0  0  0  0  0  0
  -28.7997  -19.0939   20.3642 C   0  0  0  0  0  0
  -29.9664  -19.7561   19.9146 C   0  0  0  0  0  0
  -29.9941  -16.9424   20.5361 C   0  0  0  0  0  0
  -28.8140  -17.7090   20.6994 C   0  0  0  0  0  0
  -28.8905  -24.3960   21.0879 C   0  0  0  0  0  0
  -26.0123  -16.6213   24.1307 C   0  0  0  0  0  0
  -28.4209  -25.6702   21.1502 C   0  0  0  0  0  0
  -26.9641  -17.2419   23.4176 C   0  0  0  0  0  0
  -29.9511  -21.2106   19.4649 C   0  0  0  0  0  0
  -28.9028  -23.4567   22.2703 C   0  0  0  0  0  0
  -29.4314  -23.6255   19.8956 C   0  0  0  0  0  0
  -29.1508  -22.0462   21.7044 C   0  0  0  0  0  0
  -26.7872  -17.7149   21.9930 C   0  0  0  0  0  0
  -29.4918  -22.1964   20.2873 N   0  0  0  0  0  0
  -29.9068  -15.5435   20.8664 N   0  0  0  0  0  0
  -30.3878  -21.4708   18.3396 O   0  0  0  0  0  0
  -27.6924  -17.0331   21.1282 O   0  0  0  0  0  0
  -31.4633  -12.3933   19.1155 H   0  0  0  0  0  0
  -30.3139  -11.2947   19.8258 H   0  0  0  0  0  0
  -29.7246  -11.7732   17.4249 H   0  0  0  0  0  0
  -29.6650  -13.4835   17.7647 H   0  0  0  0  0  0
  -27.8009  -11.3184   18.7944 H   0  0  0  0  0  0
  -27.3689  -12.6663   17.7786 H   0  0  0  0  0  0
  -27.6890  -14.2563   19.5648 H   0  0  0  0  0  0
  -28.6805  -11.9851   21.3592 H   0  0  0  0  0  0
  -28.4773  -13.6401   21.8505 H   0  0  0  0  0  0
  -25.2773   -9.5665   22.4757 H   0  0  0  0  0  0
  -24.0013   -7.4607   22.7462 H   0  0  0  0  0  0
  -21.0851   -8.8758   19.8937 H   0  0  0  0  0  0
  -22.3709  -10.9660   19.6166 H   0  0  0  0  0  0
  -21.1992   -7.6149   23.9727 H   0  0  0  0  0  0
  -21.1486   -6.0521   25.9086 H   0  0  0  0  0  0
  -22.0599   -2.7618   23.2845 H   0  0  0  0  0  0
  -22.4117  -11.9815   22.4796 H   0  0  0  0  0  0
  -21.1127  -13.1186   22.2656 H   0  0  0  0  0  0
  -24.6355  -15.8212   20.5076 H   0  0  0  0  0  0
  -26.2889  -15.6443   20.1967 H   0  0  0  0  0  0
  -26.7144  -32.5520   23.1162 H   0  0  0  0  0  0
  -25.0076  -33.9762   25.0473 H   0  0  0  0  0  0
  -22.7047  -31.3043   21.3909 H   0  0  0  0  0  0
  -23.3753  -35.9656   23.3300 H   0  0  0  0  0  0
  -24.3596  -36.8925   22.2059 H   0  0  0  0  0  0
  -23.7268  -37.6521   23.6654 H   0  0  0  0  0  0
  -26.0634  -31.5854   20.5983 H   0  0  0  0  0  0
  -26.8304  -30.8722   21.9892 H   0  0  0  0  0  0
  -28.1145  -29.0669   21.1962 H   0  0  0  0  0  0
  -26.0856  -25.9471   19.0320 H   0  0  0  0  0  0
  -23.9951  -27.2792   19.0423 H   0  0  0  0  0  0
  -23.7567  -30.5926   19.3999 H   0  0  0  0  0  0
  -22.7554  -29.2442   19.8494 H   0  0  0  0  0  0
  -25.1286  -36.1926   25.0825 H   0  0  0  0  0  0
  -21.0023  -28.3261   24.1395 H   0  0  0  0  0  0
  -20.5705  -26.2292   23.3603 H   0  0  0  0  0  0
  -21.6646  -26.7447   22.1165 H   0  0  0  0  0  0
  -19.6923  -25.6297   21.1235 H   0  0  0  0  0  0
  -19.6710  -27.3214   20.6753 H   0  0  0  0  0  0
  -17.4197  -26.6731   21.4016 H   0  0  0  0  0  0
  -18.0331  -26.0074   22.9032 H   0  0  0  0  0  0
  -19.7945  -30.7272   24.2300 H   0  0  0  0  0  0
  -17.5025  -31.6280   24.5161 H   0  0  0  0  0  0
  -15.5364  -30.3011   23.7634 H   0  0  0  0  0  0
  -15.8695  -28.0844   22.7044 H   0  0  0  0  0  0
  -24.5908  -30.7046   25.7808 H   0  0  0  0  0  0
  -24.8905  -32.2892   26.4894 H   0  0  0  0  0  0
  -25.8061  -30.8911   27.0259 H   0  0  0  0  0  0
  -26.2869  -29.6806   24.1153 H   0  0  0  0  0  0
  -27.4052  -29.7266   25.4605 H   0  0  0  0  0  0
  -27.8728  -30.4384   23.9326 H   0  0  0  0  0  0
  -27.2695  -33.3606   26.2098 H   0  0  0  0  0  0
  -28.3876  -32.6830   25.0331 H   0  0  0  0  0  0
  -28.0710  -31.8408   26.5421 H   0  0  0  0  0  0
  -28.2560  -38.0126   24.7482 H   0  0  0  0  0  0
  -28.1095  -36.2647   24.6289 H   0  0  0  0  0  0
  -27.2297  -37.1435   25.8867 H   0  0  0  0  0  0
  -20.9319  -29.8804   21.6929 H   0  0  0  0  0  0
  -26.0169  -38.2860   24.1410 H   0  0  0  0  0  0
  -32.0422  -19.4516   19.4010 H   0  0  0  0  0  0
  -32.0869  -17.0636   19.9338 H   0  0  0  0  0  0
  -27.8827  -19.6607   20.3995 H   0  0  0  0  0  0
  -26.1860  -16.3196   25.1554 H   0  0  0  0  0  0
  -25.0399  -16.4051   23.7064 H   0  0  0  0  0  0
  -28.0397  -26.0816   22.0760 H   0  0  0  0  0  0
  -27.9279  -17.4415   23.8660 H   0  0  0  0  0  0
  -27.9707  -23.5078   22.8352 H   0  0  0  0  0  0
  -29.7143  -23.7457   22.9406 H   0  0  0  0  0  0
  -30.4367  -23.9746   19.6580 H   0  0  0  0  0  0
  -28.7966  -23.7797   19.0222 H   0  0  0  0  0  0
  -28.2533  -21.4354   21.8115 H   0  0  0  0  0  0
  -29.9579  -21.5441   22.2457 H   0  0  0  0  0  0
  -26.8733  -18.7985   22.0030 H   0  0  0  0  0  0
  -25.7737  -17.5004   21.6571 H   0  0  0  0  0  0
  -28.9960  -15.2662   21.2012 H   0  0  0  0  0  0
  1 25  1  0  0  0
  1 30  2  0  0  0
  1 87  1  0  0  0
  2  3  1  0  0  0
  2 25  1  0  0  0
  2 90  1  0  0  0
  2 91  1  0  0  0
  3  4  1  0  0  0
  3 92  1  0  0  0
  3 93  1  0  0  0
  4  5  1  0  0  0
  4 94  1  0  0  0
  4 95  1  0  0  0
  5  6  1  0  0  0
  5 26  1  0  0  0
  5 96  1  0  0  0
  6 25  1  0  0  0
  6 97  1  0  0  0
  6 98  1  0  0  0
  7  8  2  0  0  0
  7 26  1  0  0  0
  7 29  1  0  0  0
  8  9  1  0  0  0
  8 22  1  0  0  0
  9 10  1  0  0  0
  9 27  2  0  0  0
 10 11  2  0  0  0
 10 15  1  0  0  0
 11 12  1  0  0  0
 11 99  1  0  0  0
 12 13  2  0  0  0
 12100  1  0  0  0
 13 14  1  0  0  0
 13 31  1  0  0  0
 14 15  2  0  0  0
 14101  1  0  0  0
 15102  1  0  0  0
 16 17  2  0  0  0
 16 21  1  0  0  0
 16 31  1  0  0  0
 17 18  1  0  0  0
 17103  1  0  0  0
 18 19  2  0  0  0
 18104  1  0  0  0
 19 20  1  0  0  0
 19 24  1  0  0  0
 20 21  2  0  0  0
 20105  1  0  0  0
 21 23  1  0  0  0
 22 28  1  0  0  0
 22 32  2  0  0  0
 26 27  1  0  0  0
 28106  1  0  0  0
 28107  1  0  0  0
 29108  1  0  0  0
 29109  1  0  0  0
 33 34  1  0  0  0
 33 66  1  0  0  0
 33 70  2  0  0  0
 34 36  1  0  0  0
 34 59  1  0  0  0
 34110  1  0  0  0
 35 44  2  0  0  0
 35 45  1  0  0  0
 35 68  1  0  0  0
 36 56  1  0  0  0
 36111  1  0  0  0
 37 39  1  0  0  0
 37 47  1  0  0  0
 37 66  1  0  0  0
 37112  1  0  0  0
 38 43  2  0  0  0
 38 46  1  0  0  0
 38 47  1  0  0  0
 39 64  1  0  0  0
 39 67  2  0  0  0
 40 52  1  0  0  0
 40 53  2  0  0  0
 40 58  1  0  0  0
 41113  1  0  0  0
 41114  1  0  0  0
 41115  1  0  0  0
 41 48  1  0  0  0
 42 43  1  0  0  0
 42 66  1  0  0  0
 42116  1  0  0  0
 42117  1  0  0  0
 43 44  1  0  0  0
 44118  1  0  0  0
 45 46  2  0  0  0
 45119  1  0  0  0
 46120  1  0  0  0
 47121  1  0  0  0
 47122  1  0  0  0
 48 56  1  0  0  0
 48 65  1  0  0  0
 48123  1  0  0  0
 49 50  1  0  0  0
 49 53  1  0  0  0
 49 64  1  0  0  0
 49124  1  0  0  0
 50 51  1  0  0  0
 50125  1  0  0  0
 50126  1  0  0  0
 51 52  1  0  0  0
 51127  1  0  0  0
 51128  1  0  0  0
 52129  1  0  0  0
 52130  1  0  0  0
 53 54  1  0  0  0
 54 55  2  0  0  0
 54131  1  0  0  0
 55 57  1  0  0  0
 55132  1  0  0  0
 56 69  2  0  0  0
 57 58  2  0  0  0
 57133  1  0  0  0
 58134  1  0  0  0
 59 60  1  0  0  0
 59 61  1  0  0  0
 59 62  1  0  0  0
 60135  1  0  0  0
 60136  1  0  0  0
 60137  1  0  0  0
 61138  1  0  0  0
 61139  1  0  0  0
 61140  1  0  0  0
 62141  1  0  0  0
 62142  1  0  0  0
 62143  1  0  0  0
 63 65  1  0  0  0
 63144  1  0  0  0
 63145  1  0  0  0
 63146  1  0  0  0
 64147  1  0  0  0
 65148  1  0  0  0
 68 79  1  0  0  0
 71 72  2  0  0  0
 71 74  1  0  0  0
 71149  1  0  0  0
 72 75  1  0  0  0
 72150  1  0  0  0
 73 74  2  0  0  0
 73 76  1  0  0  0
 73151  1  0  0  0
 74 81  1  0  0  0
 75 76  2  0  0  0
 75 87  1  0  0  0
 76 89  1  0  0  0
 77 79  2  0  0  0
 77 82  1  0  0  0
 77 83  1  0  0  0
 78 80  2  0  0  0
 78152  1  0  0  0
 78153  1  0  0  0
 79154  1  0  0  0
 80 85  1  0  0  0
 80155  1  0  0  0
 81 86  1  0  0  0
 81 88  2  0  0  0
 82 84  1  0  0  0
 82156  1  0  0  0
 82157  1  0  0  0
 83 86  1  0  0  0
 83158  1  0  0  0
 83159  1  0  0  0
 84 86  1  0  0  0
 84160  1  0  0  0
 84161  1  0  0  0
 85 89  1  0  0  0
 85162  1  0  0  0
 85163  1  0  0  0
 87164  1  0  0  0
M  ISO  4   1 100  68 101  79 101  87 100
M  END
> <chiral flag>
0

> <version>
0

> <s_m_source_file>
/data/baiqing/PycharmProjects/Reinvent-master-3.2/result/LINK_invent/BTK/process_docking_weight1_custom_product_contain_oxygen_bond_distance_aromatic_linkinvent_7_9_3/rearranged_h_0112.sdf

> <i_m_source_file_index>
15

> <r_mmod_Potential_Energy-OPLS-2005>
29.1191501617432

> <r_mmod_Stretch_Energy-OPLS-2005>
45.1316413879395

> <r_mmod_Bend_Energy-OPLS-2005>
135.847793579102

> <r_mmod_Torsional_Energy-OPLS-2005>
300.330535888672

> <r_mmod_Improper_Torsional_Energy-OPLS-2005>
5.52037239074707

> <r_mmod_Van_der_Waal_Energy-OPLS-2005>
143.372253417969

> <r_mmod_Electrostatic_Energy-OPLS-2005>
-403.656219482422

> <r_mmod_Solvation_Energy-OPLS-2005>
-217.492858886719

> <b_mmod_Minimization_Converged-OPLS-2005>
0

> <r_mmod_RMS_Derivative-OPLS-2005>
3.86076045036316

$$$$
15
                    3D
 Structure written by MMmdl.
164173  0  0  1  0            999 V2000
  -30.6015  -14.7660   20.4389 C   0  0  0  0  0  0
  -30.4235  -12.4674   19.4766 C   0  0  0  0  0  0
  -29.5011  -12.5276   18.2369 C   0  0  0  0  0  0
  -28.0249  -12.3407   18.6407 C   0  0  0  0  0  0
  -27.6227  -13.2317   19.8439 C   0  0  2  0  0  0
  -28.6729  -13.1813   20.9740 C   0  0  0  0  0  0
  -25.2390  -13.8152   20.5656 C   0  0  0  0  0  0
  -24.1693  -13.0391   20.9182 C   0  0  0  0  0  0
  -24.6322  -11.6861   20.8738 C   0  0  0  0  0  0
  -23.9010  -10.4244   21.0397 C   0  0  0  0  0  0
  -24.3582   -9.4185   21.9182 C   0  0  0  0  0  0
  -23.6277   -8.2216   22.0744 C   0  0  0  0  0  0
  -22.4271   -8.0220   21.3525 C   0  0  0  0  0  0
  -21.9869   -9.0176   20.4647 C   0  0  0  0  0  0
  -22.7174  -10.2077   20.3055 C   0  0  0  0  0  0
  -21.6859   -6.0708   22.5284 C   0  0  0  0  0  0
  -21.4000   -6.5657   23.8202 C   0  0  0  0  0  0
  -21.3655   -5.6819   24.9179 C   0  0  0  0  0  0
  -21.6055   -4.3071   24.7263 C   0  0  0  0  0  0
  -21.8808   -3.8149   23.4385 C   0  0  0  0  0  0
  -21.9172   -4.6932   22.3415 C   0  0  0  0  0  0
  -22.7718  -13.5155   21.1867 C   0  0  0  0  0  0
  -22.1626   -4.2111   21.0987 F   0  0  0  0  0  0
  -21.5654   -3.4564   25.7783 F   0  0  0  0  0  0
  -29.9729  -13.5374   20.3947 N   0  0  0  0  0  0
  -26.2833  -12.9357   20.3297 N   0  0  0  0  0  0
  -25.9261  -11.6489   20.5794 N   0  0  0  0  0  0
  -22.0412  -12.8113   22.0456 N   0  0  0  0  0  0
  -25.4087  -15.1882   20.4030 N   0  0  0  0  0  0
  -31.8229  -14.8016   20.2729 O   0  0  0  0  0  0
  -21.6641   -6.8832   21.4234 O   0  0  0  0  0  0
  -22.3384  -14.5443   20.6727 O   0  0  0  0  0  0
  -24.6335  -31.8588   23.1988 C   0  0  0  0  0  0
  -25.9186  -32.4761   23.8325 C   0  0  1  0  0  0
  -27.1998  -27.2630   20.1668 C   0  0  0  0  0  0
  -25.5968  -33.8571   24.2256 N   0  0  0  0  0  0
  -23.4244  -30.4857   21.5422 C   0  0  2  0  0  0
  -24.8653  -28.9265   20.1150 C   0  0  0  0  0  0
  -22.7471  -29.4695   22.4914 C   0  0  0  0  0  0
  -18.0283  -28.1395   22.8486 C   0  0  0  0  0  0
  -24.1469  -36.7245   23.2650 C   0  0  0  0  0  0
  -25.9670  -30.7798   21.3685 C   0  0  0  0  0  0
  -26.0402  -29.4005   20.7178 C   0  0  0  0  0  0
  -27.2137  -28.5844   20.7263 C   0  0  0  0  0  0
  -26.0118  -26.8530   19.5309 C   0  0  0  0  0  0
  -24.8552  -27.6590   19.5122 C   0  0  0  0  0  0
  -23.6391  -29.8186   20.1591 C   0  0  0  0  0  0
  -25.4107  -36.3066   24.0326 C   0  0  1  0  0  0
  -20.5886  -28.3727   23.1248 C   0  0  2  0  0  0
  -20.6781  -26.9445   22.5401 C   0  0  0  0  0  0
  -19.5748  -26.6399   21.5212 C   0  0  0  0  0  0
  -18.1921  -26.7952   22.1594 C   0  0  0  0  0  0
  -19.1542  -28.8877   23.2863 C   0  0  0  0  0  0
  -18.9482  -30.1484   23.8898 C   0  0  0  0  0  0
  -17.6480  -30.6621   24.0587 C   0  0  0  0  0  0
  -25.9071  -34.9453   23.5099 C   0  0  0  0  0  0
  -16.5366  -29.9111   23.6367 C   0  0  0  0  0  0
  -16.7275  -28.6511   23.0408 C   0  0  0  0  0  0
  -26.4547  -31.6586   25.0707 C   0  0  0  0  0  0
  -25.3781  -31.3731   26.1437 C   0  0  0  0  0  0
  -27.0421  -30.3014   24.6206 C   0  0  0  0  0  0
  -27.6090  -32.4341   25.7496 C   0  0  0  0  0  0
  -27.5566  -37.1778   24.8467 C   0  0  0  0  0  0
  -21.4181  -29.3071   22.3624 N   0  0  0  0  0  0
  -26.4248  -37.3788   23.9455 N   0  0  0  0  0  0
  -24.6951  -31.0570   22.0953 N   0  0  0  0  0  0
  -23.4158  -28.8257   23.3060 O   0  0  0  0  0  0
  -28.2705  -26.3478   20.2230 O   0  0  0  0  0  0
  -26.5620  -34.8947   22.4664 O   0  0  0  0  0  0
  -23.5498  -32.1409   23.7308 O   0  0  0  0  0  0
  -29.2871  -19.8984   20.6642 C   0  0  0  0  0  0
  -29.2704  -21.2302   18.6317 C   0  0  0  0  0  0
  -29.9040  -18.8536   18.5482 C   0  0  0  0  0  0
  -29.7079  -18.6896   19.9512 C   0  0  0  0  0  0
  -29.0493  -21.1975   20.0261 C   0  0  0  0  0  0
  -29.7279  -20.1045   17.9071 C   0  0  0  0  0  0
  -29.8115  -17.0562   16.8102 C   0  0  0  0  0  0
  -30.4873  -17.7802   17.7064 C   0  0  0  0  0  0
  -30.1951  -17.3280   20.5279 C   0  0  0  0  0  0
  -29.7782  -16.0267   20.2598 C   0  0  0  0  0  0
  -28.6056  -23.6568   20.2131 C   0  0  0  0  0  0
  -30.6904  -16.1684   15.9687 C   0  0  0  0  0  0
  -31.9688  -17.5047   17.6164 C   0  0  0  0  0  0
  -32.1237  -16.4792   16.4667 C   0  0  0  0  0  0
  -30.4012  -21.4648   16.0414 C   0  0  0  0  0  0
  -28.0038  -25.0011   20.8505 C   0  0  0  0  0  0
  -28.6065  -22.4202   20.7098 N   0  0  0  0  0  0
  -30.0590  -20.1869   16.5710 O   0  0  0  0  0  0
  -31.4642  -12.5901   19.1800 H   0  0  0  0  0  0
  -30.3632  -11.4933   19.9646 H   0  0  0  0  0  0
  -29.7930  -11.7812   17.4998 H   0  0  0  0  0  0
  -29.6178  -13.4965   17.7481 H   0  0  0  0  0  0
  -27.8755  -11.2882   18.8858 H   0  0  0  0  0  0
  -27.3721  -12.5448   17.7928 H   0  0  0  0  0  0
  -27.5922  -14.2451   19.4521 H   0  0  0  0  0  0
  -28.7117  -12.1779   21.4070 H   0  0  0  0  0  0
  -28.4143  -13.8640   21.7840 H   0  0  0  0  0  0
  -25.2739   -9.5659   22.4753 H   0  0  0  0  0  0
  -23.9999   -7.4606   22.7436 H   0  0  0  0  0  0
  -21.0819   -8.8629   19.8965 H   0  0  0  0  0  0
  -22.3595  -10.9566   19.6137 H   0  0  0  0  0  0
  -21.1985   -7.6153   23.9686 H   0  0  0  0  0  0
  -21.1505   -6.0571   25.9074 H   0  0  0  0  0  0
  -22.0595   -2.7587   23.2915 H   0  0  0  0  0  0
  -22.4085  -11.9819   22.4887 H   0  0  0  0  0  0
  -21.1012  -13.1024   22.2685 H   0  0  0  0  0  0
  -24.6467  -15.8462   20.5219 H   0  0  0  0  0  0
  -26.2720  -15.6267   20.1085 H   0  0  0  0  0  0
  -26.7264  -32.5418   23.1079 H   0  0  0  0  0  0
  -25.0201  -33.9707   25.0453 H   0  0  0  0  0  0
  -22.7246  -31.3131   21.3987 H   0  0  0  0  0  0
  -23.3779  -35.9513   23.3260 H   0  0  0  0  0  0
  -24.3575  -36.8946   22.2078 H   0  0  0  0  0  0
  -23.7145  -37.6391   23.6720 H   0  0  0  0  0  0
  -26.0985  -31.5353   20.5930 H   0  0  0  0  0  0
  -26.8488  -30.8311   21.9961 H   0  0  0  0  0  0
  -28.1111  -28.9409   21.2127 H   0  0  0  0  0  0
  -25.9628  -25.8755   19.0749 H   0  0  0  0  0  0
  -23.9499  -27.2779   19.0613 H   0  0  0  0  0  0
  -23.7665  -30.5968   19.4045 H   0  0  0  0  0  0
  -22.7522  -29.2599   19.8529 H   0  0  0  0  0  0
  -25.1297  -36.1892   25.0794 H   0  0  0  0  0  0
  -20.9988  -28.3333   24.1366 H   0  0  0  0  0  0
  -20.5683  -26.2370   23.3623 H   0  0  0  0  0  0
  -21.6655  -26.7485   22.1221 H   0  0  0  0  0  0
  -19.6936  -25.6304   21.1271 H   0  0  0  0  0  0
  -19.6716  -27.3196   20.6726 H   0  0  0  0  0  0
  -17.4222  -26.6773   21.3955 H   0  0  0  0  0  0
  -18.0280  -26.0051   22.8939 H   0  0  0  0  0  0
  -19.7968  -30.7302   24.2244 H   0  0  0  0  0  0
  -17.5056  -31.6311   24.5161 H   0  0  0  0  0  0
  -15.5388  -30.3036   23.7703 H   0  0  0  0  0  0
  -15.8656  -28.0841   22.7173 H   0  0  0  0  0  0
  -24.6008  -30.7001   25.7791 H   0  0  0  0  0  0
  -24.8908  -32.2889   26.4794 H   0  0  0  0  0  0
  -25.8117  -30.9001   27.0259 H   0  0  0  0  0  0
  -26.3019  -29.6715   24.1261 H   0  0  0  0  0  0
  -27.4165  -29.7322   25.4726 H   0  0  0  0  0  0
  -27.8843  -30.4309   23.9406 H   0  0  0  0  0  0
  -27.2725  -33.3725   26.1926 H   0  0  0  0  0  0
  -28.3976  -32.6778   25.0352 H   0  0  0  0  0  0
  -28.0650  -31.8552   26.5545 H   0  0  0  0  0  0
  -28.2548  -38.0116   24.7605 H   0  0  0  0  0  0
  -28.1113  -36.2672   24.6173 H   0  0  0  0  0  0
  -27.2317  -37.1269   25.8874 H   0  0  0  0  0  0
  -20.9364  -29.8760   21.6802 H   0  0  0  0  0  0
  -26.0126  -38.2833   24.1548 H   0  0  0  0  0  0
  -29.1635  -19.8400   21.7368 H   0  0  0  0  0  0
  -29.1043  -22.1449   18.0890 H   0  0  0  0  0  0
  -28.7433  -17.1236   16.6438 H   0  0  0  0  0  0
  -31.1135  -17.4181   21.0919 H   0  0  0  0  0  0
  -28.8334  -15.9232   19.7563 H   0  0  0  0  0  0
  -29.0290  -23.8758   19.2325 H   0  0  0  0  0  0
  -30.5717  -16.4255   14.9152 H   0  0  0  0  0  0
  -30.4140  -15.1210   16.0906 H   0  0  0  0  0  0
  -32.3557  -17.1255   18.5644 H   0  0  0  0  0  0
  -32.4796  -18.4434   17.3912 H   0  0  0  0  0  0
  -32.7220  -16.9033   15.6570 H   0  0  0  0  0  0
  -32.6499  -15.5818   16.8030 H   0  0  0  0  0  0
  -30.9155  -21.3356   15.0886 H   0  0  0  0  0  0
  -31.0723  -22.0243   16.6955 H   0  0  0  0  0  0
  -29.5049  -22.0586   15.8591 H   0  0  0  0  0  0
  -28.3671  -25.0679   21.8753 H   0  0  0  0  0  0
  -26.9322  -24.8427   20.9662 H   0  0  0  0  0  0
  1 25  1  0  0  0
  1 30  2  0  0  0
  1 80  1  0  0  0
  2  3  1  0  0  0
  2 25  1  0  0  0
  2 89  1  0  0  0
  2 90  1  0  0  0
  3  4  1  0  0  0
  3 91  1  0  0  0
  3 92  1  0  0  0
  4  5  1  0  0  0
  4 93  1  0  0  0
  4 94  1  0  0  0
  5  6  1  0  0  0
  5 26  1  0  0  0
  5 95  1  0  0  0
  6 25  1  0  0  0
  6 96  1  0  0  0
  6 97  1  0  0  0
  7  8  2  0  0  0
  7 26  1  0  0  0
  7 29  1  0  0  0
  8  9  1  0  0  0
  8 22  1  0  0  0
  9 10  1  0  0  0
  9 27  2  0  0  0
 10 11  2  0  0  0
 10 15  1  0  0  0
 11 12  1  0  0  0
 11 98  1  0  0  0
 12 13  2  0  0  0
 12 99  1  0  0  0
 13 14  1  0  0  0
 13 31  1  0  0  0
 14 15  2  0  0  0
 14100  1  0  0  0
 15101  1  0  0  0
 16 17  2  0  0  0
 16 21  1  0  0  0
 16 31  1  0  0  0
 17 18  1  0  0  0
 17102  1  0  0  0
 18 19  2  0  0  0
 18103  1  0  0  0
 19 20  1  0  0  0
 19 24  1  0  0  0
 20 21  2  0  0  0
 20104  1  0  0  0
 21 23  1  0  0  0
 22 28  1  0  0  0
 22 32  2  0  0  0
 26 27  1  0  0  0
 28105  1  0  0  0
 28106  1  0  0  0
 29107  1  0  0  0
 29108  1  0  0  0
 33 34  1  0  0  0
 33 66  1  0  0  0
 33 70  2  0  0  0
 34 36  1  0  0  0
 34 59  1  0  0  0
 34109  1  0  0  0
 35 44  2  0  0  0
 35 45  1  0  0  0
 35 68  1  0  0  0
 36 56  1  0  0  0
 36110  1  0  0  0
 37 39  1  0  0  0
 37 47  1  0  0  0
 37 66  1  0  0  0
 37111  1  0  0  0
 38 43  2  0  0  0
 38 46  1  0  0  0
 38 47  1  0  0  0
 39 64  1  0  0  0
 39 67  2  0  0  0
 40 52  1  0  0  0
 40 53  2  0  0  0
 40 58  1  0  0  0
 41112  1  0  0  0
 41113  1  0  0  0
 41114  1  0  0  0
 41 48  1  0  0  0
 42 43  1  0  0  0
 42 66  1  0  0  0
 42115  1  0  0  0
 42116  1  0  0  0
 43 44  1  0  0  0
 44117  1  0  0  0
 45 46  2  0  0  0
 45118  1  0  0  0
 46119  1  0  0  0
 47120  1  0  0  0
 47121  1  0  0  0
 48 56  1  0  0  0
 48 65  1  0  0  0
 48122  1  0  0  0
 49 50  1  0  0  0
 49 53  1  0  0  0
 49 64  1  0  0  0
 49123  1  0  0  0
 50 51  1  0  0  0
 50124  1  0  0  0
 50125  1  0  0  0
 51 52  1  0  0  0
 51126  1  0  0  0
 51127  1  0  0  0
 52128  1  0  0  0
 52129  1  0  0  0
 53 54  1  0  0  0
 54 55  2  0  0  0
 54130  1  0  0  0
 55 57  1  0  0  0
 55131  1  0  0  0
 56 69  2  0  0  0
 57 58  2  0  0  0
 57132  1  0  0  0
 58133  1  0  0  0
 59 60  1  0  0  0
 59 61  1  0  0  0
 59 62  1  0  0  0
 60134  1  0  0  0
 60135  1  0  0  0
 60136  1  0  0  0
 61137  1  0  0  0
 61138  1  0  0  0
 61139  1  0  0  0
 62140  1  0  0  0
 62141  1  0  0  0
 62142  1  0  0  0
 63 65  1  0  0  0
 63143  1  0  0  0
 63144  1  0  0  0
 63145  1  0  0  0
 64146  1  0  0  0
 65147  1  0  0  0
 68 86  1  0  0  0
 71 74  2  0  0  0
 71 75  1  0  0  0
 71148  1  0  0  0
 72 75  2  0  0  0
 72 76  1  0  0  0
 72149  1  0  0  0
 73 74  1  0  0  0
 73 76  2  0  0  0
 73 78  1  0  0  0
 74 79  1  0  0  0
 75 87  1  0  0  0
 76 88  1  0  0  0
 77 78  2  0  0  0
 77 82  1  0  0  0
 77150  1  0  0  0
 78 83  1  0  0  0
 79 80  2  0  0  0
 79151  1  0  0  0
 80152  1  0  0  0
 81 86  1  0  0  0
 81 87  2  0  0  0
 81153  1  0  0  0
 82 84  1  0  0  0
 82154  1  0  0  0
 82155  1  0  0  0
 83 84  1  0  0  0
 83156  1  0  0  0
 83157  1  0  0  0
 84158  1  0  0  0
 84159  1  0  0  0
 85 88  1  0  0  0
 85160  1  0  0  0
 85161  1  0  0  0
 85162  1  0  0  0
 86163  1  0  0  0
 86164  1  0  0  0
M  ISO  4   1 100  68 101  80 100  86 101
M  END
> <chiral flag>
0

> <version>
0

> <s_m_source_file>
/data/baiqing/PycharmProjects/Reinvent-master-3.2/result/LINK_invent/BTK/process_docking_weight1_custom_product_contain_oxygen_bond_distance_aromatic_linkinvent_7_9_3/rearranged_h_0112.sdf

> <i_m_source_file_index>
16

> <r_mmod_Potential_Energy-OPLS-2005>
416.888732910156

> <r_mmod_Stretch_Energy-OPLS-2005>
137.491928100586

> <r_mmod_Bend_Energy-OPLS-2005>
208.432083129883

> <r_mmod_Torsional_Energy-OPLS-2005>
306.048095703125

> <r_mmod_Improper_Torsional_Energy-OPLS-2005>
19.31005859375

> <r_mmod_Van_der_Waal_Energy-OPLS-2005>
142.593109130859

> <r_mmod_Electrostatic_Energy-OPLS-2005>
-291.418426513672

> <r_mmod_Solvation_Energy-OPLS-2005>
-203.240188598633

> <b_mmod_Minimization_Converged-OPLS-2005>
0

> <r_mmod_RMS_Derivative-OPLS-2005>
5.97926950454712

$$$$
16
                    3D
 Structure written by MMmdl.
165174  0  0  1  0            999 V2000
  -30.6791  -14.6314   20.4805 C   0  0  0  0  0  0
  -30.4171  -12.3854   19.4665 C   0  0  0  0  0  0
  -29.5017  -12.4920   18.2293 C   0  0  0  0  0  0
  -28.0257  -12.3387   18.6413 C   0  0  0  0  0  0
  -27.6457  -13.2290   19.8555 C   0  0  2  0  0  0
  -28.6897  -13.1351   20.9907 C   0  0  0  0  0  0
  -25.2522  -13.8205   20.5699 C   0  0  0  0  0  0
  -24.1807  -13.0449   20.9204 C   0  0  0  0  0  0
  -24.6395  -11.6926   20.8748 C   0  0  0  0  0  0
  -23.9073  -10.4299   21.0406 C   0  0  0  0  0  0
  -24.3622   -9.4211   21.9183 C   0  0  0  0  0  0
  -23.6297   -8.2245   22.0753 C   0  0  0  0  0  0
  -22.4278   -8.0283   21.3543 C   0  0  0  0  0  0
  -21.9917   -9.0256   20.4643 C   0  0  0  0  0  0
  -22.7244  -10.2136   20.3054 C   0  0  0  0  0  0
  -21.6853   -6.0739   22.5278 C   0  0  0  0  0  0
  -21.4011   -6.5640   23.8212 C   0  0  0  0  0  0
  -21.3662   -5.6792   24.9174 C   0  0  0  0  0  0
  -21.6046   -4.3055   24.7222 C   0  0  0  0  0  0
  -21.8818   -3.8148   23.4343 C   0  0  0  0  0  0
  -21.9193   -4.6966   22.3400 C   0  0  0  0  0  0
  -22.7826  -13.5229   21.1861 C   0  0  0  0  0  0
  -22.1660   -4.2153   21.0978 F   0  0  0  0  0  0
  -21.5634   -3.4538   25.7736 F   0  0  0  0  0  0
  -30.0023  -13.4427   20.4125 N   0  0  0  0  0  0
  -26.2954  -12.9412   20.3309 N   0  0  0  0  0  0
  -25.9326  -11.6552   20.5767 N   0  0  0  0  0  0
  -22.0470  -12.8218   22.0414 N   0  0  0  0  0  0
  -25.4214  -15.1928   20.4115 N   0  0  0  0  0  0
  -31.8606  -14.6969   20.1335 O   0  0  0  0  0  0
  -21.6641   -6.8879   21.4239 O   0  0  0  0  0  0
  -22.3508  -14.5533   20.6707 O   0  0  0  0  0  0
  -24.6259  -31.8595   23.2043 C   0  0  0  0  0  0
  -25.9115  -32.4772   23.8361 C   0  0  1  0  0  0
  -27.2162  -27.3194   20.1146 C   0  0  0  0  0  0
  -25.5936  -33.8573   24.2287 N   0  0  0  0  0  0
  -23.4186  -30.4854   21.5469 C   0  0  2  0  0  0
  -24.8636  -28.9454   20.1069 C   0  0  0  0  0  0
  -22.7469  -29.4623   22.4932 C   0  0  0  0  0  0
  -18.0279  -28.1388   22.8474 C   0  0  0  0  0  0
  -24.1495  -36.7293   23.2638 C   0  0  0  0  0  0
  -25.9607  -30.7896   21.3771 C   0  0  0  0  0  0
  -26.0322  -29.4189   20.7174 C   0  0  0  0  0  0
  -27.2104  -28.6155   20.7160 C   0  0  0  0  0  0
  -26.0327  -26.9143   19.4540 C   0  0  0  0  0  0
  -24.8661  -27.6981   19.4671 C   0  0  0  0  0  0
  -23.6315  -29.8242   20.1607 C   0  0  0  0  0  0
  -25.4117  -36.3077   24.0331 C   0  0  1  0  0  0
  -20.5881  -28.3688   23.1282 C   0  0  2  0  0  0
  -20.6771  -26.9409   22.5412 C   0  0  0  0  0  0
  -19.5747  -26.6381   21.5213 C   0  0  0  0  0  0
  -18.1922  -26.7927   22.1618 C   0  0  0  0  0  0
  -19.1534  -28.8851   23.2873 C   0  0  0  0  0  0
  -18.9458  -30.1451   23.8891 C   0  0  0  0  0  0
  -17.6462  -30.6587   24.0560 C   0  0  0  0  0  0
  -25.9055  -34.9446   23.5106 C   0  0  0  0  0  0
  -16.5349  -29.9087   23.6334 C   0  0  0  0  0  0
  -16.7267  -28.6509   23.0343 C   0  0  0  0  0  0
  -26.4504  -31.6576   25.0728 C   0  0  0  0  0  0
  -25.3746  -31.3712   26.1462 C   0  0  0  0  0  0
  -27.0342  -30.2992   24.6185 C   0  0  0  0  0  0
  -27.6061  -32.4313   25.7502 C   0  0  0  0  0  0
  -27.5581  -37.1797   24.8464 C   0  0  0  0  0  0
  -21.4182  -29.3043   22.3679 N   0  0  0  0  0  0
  -26.4291  -37.3774   23.9412 N   0  0  0  0  0  0
  -24.6874  -31.0610   22.0997 N   0  0  0  0  0  0
  -23.4194  -28.8148   23.3000 O   0  0  0  0  0  0
  -28.3235  -26.4590   20.1895 O   0  0  0  0  0  0
  -26.5615  -34.8911   22.4668 O   0  0  0  0  0  0
  -23.5425  -32.1399   23.7368 O   0  0  0  0  0  0
  -28.5843  -20.5032   19.7905 C   0  0  0  0  0  0
  -29.7255  -20.6750   21.8969 C   0  0  0  0  0  0
  -29.0271  -19.1443   19.6466 C   0  0  0  0  0  0
  -30.1645  -19.3243   21.7829 C   0  0  0  0  0  0
  -29.8507  -18.5257   20.6425 C   0  0  0  0  0  0
  -28.9236  -21.3049   20.9107 C   0  0  0  0  0  0
  -27.4635  -22.7059   22.1988 C   0  0  0  0  0  0
  -28.2854  -18.9182   17.2526 C   0  0  0  0  0  0
  -28.6779  -18.3911   18.4253 C   0  0  0  0  0  0
  -27.6382  -23.9966   22.9814 C   0  0  0  0  0  0
  -28.9419  -24.5414   22.4010 C   0  0  0  0  0  0
  -28.9501  -23.9853   20.9692 C   0  0  2  0  0  0
  -31.0032  -18.7579   22.9169 C   0  0  0  0  0  0
  -30.5805  -17.1424   20.4034 C   0  0  0  0  0  0
  -28.0978  -24.9939   20.0682 C   0  0  0  0  0  0
  -28.3240  -22.6215   21.1618 N   0  0  0  0  0  0
  -29.9829  -15.7927   20.7025 N   0  0  0  0  0  0
  -26.6240  -21.8583   22.5188 O   0  0  0  0  0  0
  -31.4631  -12.4725   19.1673 H   0  0  0  0  0  0
  -30.3246  -11.4034   19.9329 H   0  0  0  0  0  0
  -29.7661  -11.7281   17.4968 H   0  0  0  0  0  0
  -29.6515  -13.4543   17.7372 H   0  0  0  0  0  0
  -27.8632  -11.2888   18.8881 H   0  0  0  0  0  0
  -27.3724  -12.5542   17.7953 H   0  0  0  0  0  0
  -27.6513  -14.2564   19.4904 H   0  0  0  0  0  0
  -28.6963  -12.1364   21.4299 H   0  0  0  0  0  0
  -28.4453  -13.8244   21.8002 H   0  0  0  0  0  0
  -25.2765   -9.5692   22.4760 H   0  0  0  0  0  0
  -24.0007   -7.4639   22.7474 H   0  0  0  0  0  0
  -21.0850   -8.8769   19.8947 H   0  0  0  0  0  0
  -22.3697  -10.9675   19.6164 H   0  0  0  0  0  0
  -21.1995   -7.6147   23.9717 H   0  0  0  0  0  0
  -21.1490   -6.0521   25.9079 H   0  0  0  0  0  0
  -22.0596   -2.7610   23.2840 H   0  0  0  0  0  0
  -22.4084  -11.9880   22.4805 H   0  0  0  0  0  0
  -21.1085  -13.1239   22.2612 H   0  0  0  0  0  0
  -24.6539  -15.8464   20.5238 H   0  0  0  0  0  0
  -26.2699  -15.6340   20.0814 H   0  0  0  0  0  0
  -26.7175  -32.5442   23.1100 H   0  0  0  0  0  0
  -25.0097  -33.9719   25.0440 H   0  0  0  0  0  0
  -22.7124  -31.3063   21.4055 H   0  0  0  0  0  0
  -23.3757  -35.9626   23.3299 H   0  0  0  0  0  0
  -24.3586  -36.8916   22.2053 H   0  0  0  0  0  0
  -23.7252  -37.6496   23.6661 H   0  0  0  0  0  0
  -26.0956  -31.5537   20.6105 H   0  0  0  0  0  0
  -26.8409  -30.8349   22.0069 H   0  0  0  0  0  0
  -28.1026  -28.9686   21.2137 H   0  0  0  0  0  0
  -25.9796  -25.9747   18.9245 H   0  0  0  0  0  0
  -23.9746  -27.3339   18.9749 H   0  0  0  0  0  0
  -23.7472  -30.6025   19.4061 H   0  0  0  0  0  0
  -22.7517  -29.2534   19.8585 H   0  0  0  0  0  0
  -25.1293  -36.1927   25.0823 H   0  0  0  0  0  0
  -20.9968  -28.3264   24.1406 H   0  0  0  0  0  0
  -20.5681  -26.2291   23.3607 H   0  0  0  0  0  0
  -21.6635  -26.7441   22.1196 H   0  0  0  0  0  0
  -19.6917  -25.6294   21.1235 H   0  0  0  0  0  0
  -19.6696  -27.3193   20.6744 H   0  0  0  0  0  0
  -17.4195  -26.6664   21.4020 H   0  0  0  0  0  0
  -18.0325  -26.0077   22.9023 H   0  0  0  0  0  0
  -19.7937  -30.7262   24.2259 H   0  0  0  0  0  0
  -17.5020  -31.6268   24.5158 H   0  0  0  0  0  0
  -15.5350  -30.2988   23.7672 H   0  0  0  0  0  0
  -15.8661  -28.0835   22.7059 H   0  0  0  0  0  0
  -24.5926  -30.7048   25.7805 H   0  0  0  0  0  0
  -24.8932  -32.2875   26.4884 H   0  0  0  0  0  0
  -25.8082  -30.8901   27.0238 H   0  0  0  0  0  0
  -26.2909  -29.6744   24.1216 H   0  0  0  0  0  0
  -27.4043  -29.7243   25.4686 H   0  0  0  0  0  0
  -27.8785  -30.4273   23.9406 H   0  0  0  0  0  0
  -27.2666  -33.3614   26.2071 H   0  0  0  0  0  0
  -28.3880  -32.6869   25.0338 H   0  0  0  0  0  0
  -28.0724  -31.8446   26.5428 H   0  0  0  0  0  0
  -28.2587  -38.0103   24.7508 H   0  0  0  0  0  0
  -28.1082  -36.2628   24.6286 H   0  0  0  0  0  0
  -27.2294  -37.1446   25.8865 H   0  0  0  0  0  0
  -20.9347  -29.8784   21.6911 H   0  0  0  0  0  0
  -26.0172  -38.2849   24.1407 H   0  0  0  0  0  0
  -27.9373  -20.9386   19.0432 H   0  0  0  0  0  0
  -29.9819  -21.2338   22.7869 H   0  0  0  0  0  0
  -28.0351  -18.2765   16.4194 H   0  0  0  0  0  0
  -28.2088  -19.9827   17.0900 H   0  0  0  0  0  0
  -28.7232  -17.3130   18.4922 H   0  0  0  0  0  0
  -27.7068  -23.8159   24.0543 H   0  0  0  0  0  0
  -26.7962  -24.6611   22.7863 H   0  0  0  0  0  0
  -29.7921  -24.1469   22.9603 H   0  0  0  0  0  0
  -29.0019  -25.6288   22.4499 H   0  0  0  0  0  0
  -29.9704  -23.9027   20.5937 H   0  0  0  0  0  0
  -30.8839  -19.3427   23.8298 H   0  0  0  0  0  0
  -32.0606  -18.7631   22.6517 H   0  0  0  0  0  0
  -30.7071  -17.7342   23.1486 H   0  0  0  0  0  0
  -31.5403  -17.1830   20.9187 H   0  0  0  0  0  0
  -30.8760  -17.1257   19.3533 H   0  0  0  0  0  0
  -27.0585  -24.7728   20.3064 H   0  0  0  0  0  0
  -28.2201  -24.7190   19.0201 H   0  0  0  0  0  0
  -29.0047  -15.7383   20.9415 H   0  0  0  0  0  0
  1 25  1  0  0  0
  1 30  2  0  0  0
  1 87  1  0  0  0
  2  3  1  0  0  0
  2 25  1  0  0  0
  2 89  1  0  0  0
  2 90  1  0  0  0
  3  4  1  0  0  0
  3 91  1  0  0  0
  3 92  1  0  0  0
  4  5  1  0  0  0
  4 93  1  0  0  0
  4 94  1  0  0  0
  5  6  1  0  0  0
  5 26  1  0  0  0
  5 95  1  0  0  0
  6 25  1  0  0  0
  6 96  1  0  0  0
  6 97  1  0  0  0
  7  8  2  0  0  0
  7 26  1  0  0  0
  7 29  1  0  0  0
  8  9  1  0  0  0
  8 22  1  0  0  0
  9 10  1  0  0  0
  9 27  2  0  0  0
 10 11  2  0  0  0
 10 15  1  0  0  0
 11 12  1  0  0  0
 11 98  1  0  0  0
 12 13  2  0  0  0
 12 99  1  0  0  0
 13 14  1  0  0  0
 13 31  1  0  0  0
 14 15  2  0  0  0
 14100  1  0  0  0
 15101  1  0  0  0
 16 17  2  0  0  0
 16 21  1  0  0  0
 16 31  1  0  0  0
 17 18  1  0  0  0
 17102  1  0  0  0
 18 19  2  0  0  0
 18103  1  0  0  0
 19 20  1  0  0  0
 19 24  1  0  0  0
 20 21  2  0  0  0
 20104  1  0  0  0
 21 23  1  0  0  0
 22 28  1  0  0  0
 22 32  2  0  0  0
 26 27  1  0  0  0
 28105  1  0  0  0
 28106  1  0  0  0
 29107  1  0  0  0
 29108  1  0  0  0
 33 34  1  0  0  0
 33 66  1  0  0  0
 33 70  2  0  0  0
 34 36  1  0  0  0
 34 59  1  0  0  0
 34109  1  0  0  0
 35 44  2  0  0  0
 35 45  1  0  0  0
 35 68  1  0  0  0
 36 56  1  0  0  0
 36110  1  0  0  0
 37 39  1  0  0  0
 37 47  1  0  0  0
 37 66  1  0  0  0
 37111  1  0  0  0
 38 43  2  0  0  0
 38 46  1  0  0  0
 38 47  1  0  0  0
 39 64  1  0  0  0
 39 67  2  0  0  0
 40 52  1  0  0  0
 40 53  2  0  0  0
 40 58  1  0  0  0
 41112  1  0  0  0
 41113  1  0  0  0
 41114  1  0  0  0
 41 48  1  0  0  0
 42 43  1  0  0  0
 42 66  1  0  0  0
 42115  1  0  0  0
 42116  1  0  0  0
 43 44  1  0  0  0
 44117  1  0  0  0
 45 46  2  0  0  0
 45118  1  0  0  0
 46119  1  0  0  0
 47120  1  0  0  0
 47121  1  0  0  0
 48 56  1  0  0  0
 48 65  1  0  0  0
 48122  1  0  0  0
 49 50  1  0  0  0
 49 53  1  0  0  0
 49 64  1  0  0  0
 49123  1  0  0  0
 50 51  1  0  0  0
 50124  1  0  0  0
 50125  1  0  0  0
 51 52  1  0  0  0
 51126  1  0  0  0
 51127  1  0  0  0
 52128  1  0  0  0
 52129  1  0  0  0
 53 54  1  0  0  0
 54 55  2  0  0  0
 54130  1  0  0  0
 55 57  1  0  0  0
 55131  1  0  0  0
 56 69  2  0  0  0
 57 58  2  0  0  0
 57132  1  0  0  0
 58133  1  0  0  0
 59 60  1  0  0  0
 59 61  1  0  0  0
 59 62  1  0  0  0
 60134  1  0  0  0
 60135  1  0  0  0
 60136  1  0  0  0
 61137  1  0  0  0
 61138  1  0  0  0
 61139  1  0  0  0
 62140  1  0  0  0
 62141  1  0  0  0
 62142  1  0  0  0
 63 65  1  0  0  0
 63143  1  0  0  0
 63144  1  0  0  0
 63145  1  0  0  0
 64146  1  0  0  0
 65147  1  0  0  0
 68 85  1  0  0  0
 71 73  2  0  0  0
 71 76  1  0  0  0
 71148  1  0  0  0
 72 74  1  0  0  0
 72 76  2  0  0  0
 72149  1  0  0  0
 73 75  1  0  0  0
 73 79  1  0  0  0
 74 75  2  0  0  0
 74 83  1  0  0  0
 75 84  1  0  0  0
 76 86  1  0  0  0
 77 80  1  0  0  0
 77 86  1  0  0  0
 77 88  2  0  0  0
 78 79  2  0  0  0
 78150  1  0  0  0
 78151  1  0  0  0
 79152  1  0  0  0
 80 81  1  0  0  0
 80153  1  0  0  0
 80154  1  0  0  0
 81 82  1  0  0  0
 81155  1  0  0  0
 81156  1  0  0  0
 82 85  1  0  0  0
 82 86  1  0  0  0
 82157  1  0  0  0
 83158  1  0  0  0
 83159  1  0  0  0
 83160  1  0  0  0
 84 87  1  0  0  0
 84161  1  0  0  0
 84162  1  0  0  0
 85163  1  0  0  0
 85164  1  0  0  0
 87165  1  0  0  0
M  ISO  4   1 100  68 101  85 101  87 100
M  END
> <chiral flag>
0

> <version>
0

> <s_m_source_file>
/data/baiqing/PycharmProjects/Reinvent-master-3.2/result/LINK_invent/BTK/process_docking_weight1_custom_product_contain_oxygen_bond_distance_aromatic_linkinvent_7_9_3/rearranged_h_0112.sdf

> <i_m_source_file_index>
17

> <r_mmod_Potential_Energy-OPLS-2005>
182.842742919922

> <r_mmod_Stretch_Energy-OPLS-2005>
86.4022750854492

> <r_mmod_Bend_Energy-OPLS-2005>
176.874176025391

> <r_mmod_Torsional_Energy-OPLS-2005>
321.296234130859

> <r_mmod_Improper_Torsional_Energy-OPLS-2005>
9.59814739227295

> <r_mmod_Van_der_Waal_Energy-OPLS-2005>
152.213577270508

> <r_mmod_Electrostatic_Energy-OPLS-2005>
-398.532501220703

> <r_mmod_Solvation_Energy-OPLS-2005>
-217.263824462891

> <b_mmod_Minimization_Converged-OPLS-2005>
0

> <r_mmod_RMS_Derivative-OPLS-2005>
0.675056576728821

$$$$
17
                    3D
 Structure written by MMmdl.
156164  0  0  1  0            999 V2000
  -30.6724  -14.5088   20.5012 C   0  0  0  0  0  0
  -30.4223  -12.3073   19.4430 C   0  0  0  0  0  0
  -29.5000  -12.4875   18.2175 C   0  0  0  0  0  0
  -28.0207  -12.3486   18.6272 C   0  0  0  0  0  0
  -27.6581  -13.2073   19.8685 C   0  0  2  0  0  0
  -28.6976  -13.0213   20.9982 C   0  0  0  0  0  0
  -25.2579  -13.8166   20.5678 C   0  0  0  0  0  0
  -24.1828  -13.0444   20.9176 C   0  0  0  0  0  0
  -24.6383  -11.6911   20.8728 C   0  0  0  0  0  0
  -23.9056  -10.4294   21.0405 C   0  0  0  0  0  0
  -24.3611   -9.4209   21.9183 C   0  0  0  0  0  0
  -23.6288   -8.2243   22.0757 C   0  0  0  0  0  0
  -22.4267   -8.0280   21.3552 C   0  0  0  0  0  0
  -21.9897   -9.0252   20.4655 C   0  0  0  0  0  0
  -22.7225  -10.2133   20.3062 C   0  0  0  0  0  0
  -21.6847   -6.0734   22.5282 C   0  0  0  0  0  0
  -21.4013   -6.5638   23.8217 C   0  0  0  0  0  0
  -21.3659   -5.6791   24.9177 C   0  0  0  0  0  0
  -21.6044   -4.3054   24.7226 C   0  0  0  0  0  0
  -21.8820   -3.8147   23.4347 C   0  0  0  0  0  0
  -21.9191   -4.6963   22.3404 C   0  0  0  0  0  0
  -22.7851  -13.5245   21.1837 C   0  0  0  0  0  0
  -22.1661   -4.2155   21.0979 F   0  0  0  0  0  0
  -21.5625   -3.4539   25.7737 F   0  0  0  0  0  0
  -30.0287  -13.3119   20.4446 N   0  0  0  0  0  0
  -26.3001  -12.9334   20.3328 N   0  0  0  0  0  0
  -25.9306  -11.6499   20.5746 N   0  0  0  0  0  0
  -22.0488  -12.8253   22.0402 N   0  0  0  0  0  0
  -25.4320  -15.1883   20.4115 N   0  0  0  0  0  0
  -31.8338  -14.6574   20.1097 O   0  0  0  0  0  0
  -21.6637   -6.8873   21.4246 O   0  0  0  0  0  0
  -22.3542  -14.5552   20.6678 O   0  0  0  0  0  0
  -24.6147  -31.8673   23.2088 C   0  0  0  0  0  0
  -25.9033  -32.4824   23.8394 C   0  0  1  0  0  0
  -27.2353  -27.4310   20.1113 C   0  0  0  0  0  0
  -25.5887  -33.8621   24.2328 N   0  0  0  0  0  0
  -23.4043  -30.4889   21.5479 C   0  0  2  0  0  0
  -24.8537  -28.9537   20.1139 C   0  0  0  0  0  0
  -22.7418  -29.4649   22.4978 C   0  0  0  0  0  0
  -18.0273  -28.1385   22.8486 C   0  0  0  0  0  0
  -24.1484  -36.7319   23.2640 C   0  0  0  0  0  0
  -25.9316  -30.8351   21.3600 C   0  0  0  0  0  0
  -26.0129  -29.4678   20.7102 C   0  0  0  0  0  0
  -27.2100  -28.7151   20.7029 C   0  0  0  0  0  0
  -26.0636  -26.9314   19.5061 C   0  0  0  0  0  0
  -24.8746  -27.6854   19.5058 C   0  0  0  0  0  0
  -23.6150  -29.8197   20.1626 C   0  0  0  0  0  0
  -25.4104  -36.3115   24.0339 C   0  0  1  0  0  0
  -20.5861  -28.3671   23.1318 C   0  0  2  0  0  0
  -20.6761  -26.9405   22.5422 C   0  0  0  0  0  0
  -19.5744  -26.6388   21.5214 C   0  0  0  0  0  0
  -18.1921  -26.7930   22.1620 C   0  0  0  0  0  0
  -19.1521  -28.8843   23.2899 C   0  0  0  0  0  0
  -18.9451  -30.1445   23.8915 C   0  0  0  0  0  0
  -17.6454  -30.6586   24.0569 C   0  0  0  0  0  0
  -25.9027  -34.9478   23.5132 C   0  0  0  0  0  0
  -16.5346  -29.9092   23.6322 C   0  0  0  0  0  0
  -16.7261  -28.6511   23.0338 C   0  0  0  0  0  0
  -26.4471  -31.6598   25.0716 C   0  0  0  0  0  0
  -25.3751  -31.3693   26.1477 C   0  0  0  0  0  0
  -27.0294  -30.3046   24.6069 C   0  0  0  0  0  0
  -27.6057  -32.4312   25.7470 C   0  0  0  0  0  0
  -27.5581  -37.1811   24.8464 C   0  0  0  0  0  0
  -21.4142  -29.3035   22.3724 N   0  0  0  0  0  0
  -26.4295  -37.3796   23.9408 N   0  0  0  0  0  0
  -24.6684  -31.0777   22.0985 N   0  0  0  0  0  0
  -23.4186  -28.8198   23.3029 O   0  0  0  0  0  0
  -28.3810  -26.6665   20.1185 O   0  0  0  0  0  0
  -26.5592  -34.8931   22.4694 O   0  0  0  0  0  0
  -23.5335  -32.1427   23.7473 O   0  0  0  0  0  0
  -29.6844  -19.2690   18.6713 C   0  0  0  0  0  0
  -30.1881  -16.8838   18.7367 C   0  0  0  0  0  0
  -29.4706  -18.0350   20.7606 C   0  0  0  0  0  0
  -30.0868  -18.0887   18.0186 C   0  0  0  0  0  0
  -29.3846  -19.2741   20.0587 C   0  0  0  0  0  0
  -29.8819  -16.8326   20.1177 C   0  0  0  0  0  0
  -29.1499  -21.6280   20.3063 C   0  0  0  0  0  0
  -30.4035  -18.1053   16.5352 C   0  0  0  0  0  0
  -28.6876  -22.8993   21.0253 C   0  0  0  0  0  0
  -28.7221  -24.1886   20.1513 C   0  0  0  0  0  0
  -28.3013  -25.4688   20.9160 C   0  0  0  0  0  0
  -28.9695  -20.4372   20.7575 N   0  0  0  0  0  0
  -29.9075  -15.5782   20.8246 N   0  0  0  0  0  0
  -31.4698  -12.3960   19.1477 H   0  0  0  0  0  0
  -30.3157  -11.3048   19.8593 H   0  0  0  0  0  0
  -29.7449  -11.7514   17.4504 H   0  0  0  0  0  0
  -29.6676  -13.4654   17.7640 H   0  0  0  0  0  0
  -27.8386  -11.2949   18.8423 H   0  0  0  0  0  0
  -27.3712  -12.6029   17.7887 H   0  0  0  0  0  0
  -27.6923  -14.2481   19.5461 H   0  0  0  0  0  0
  -28.6717  -11.9974   21.3742 H   0  0  0  0  0  0
  -28.4647  -13.6574   21.8531 H   0  0  0  0  0  0
  -25.2760   -9.5682   22.4751 H   0  0  0  0  0  0
  -24.0003   -7.4630   22.7466 H   0  0  0  0  0  0
  -21.0828   -8.8770   19.8955 H   0  0  0  0  0  0
  -22.3688  -10.9670   19.6167 H   0  0  0  0  0  0
  -21.2011   -7.6149   23.9722 H   0  0  0  0  0  0
  -21.1477   -6.0521   25.9081 H   0  0  0  0  0  0
  -22.0598   -2.7612   23.2845 H   0  0  0  0  0  0
  -22.4105  -11.9931   22.4820 H   0  0  0  0  0  0
  -21.1107  -13.1289   22.2595 H   0  0  0  0  0  0
  -24.6685  -15.8460   20.5268 H   0  0  0  0  0  0
  -26.2880  -15.6274   20.0977 H   0  0  0  0  0  0
  -26.7108  -32.5546   23.1165 H   0  0  0  0  0  0
  -25.0044  -33.9783   25.0479 H   0  0  0  0  0  0
  -22.6932  -31.3051   21.4062 H   0  0  0  0  0  0
  -23.3743  -35.9655   23.3313 H   0  0  0  0  0  0
  -24.3582  -36.8924   22.2053 H   0  0  0  0  0  0
  -23.7244  -37.6529   23.6650 H   0  0  0  0  0  0
  -26.0371  -31.5991   20.5883 H   0  0  0  0  0  0
  -26.8217  -30.8953   21.9745 H   0  0  0  0  0  0
  -28.1054  -29.1055   21.1668 H   0  0  0  0  0  0
  -26.0733  -25.9561   19.0404 H   0  0  0  0  0  0
  -23.9852  -27.2837   19.0401 H   0  0  0  0  0  0
  -23.7235  -30.5942   19.4019 H   0  0  0  0  0  0
  -22.7405  -29.2372   19.8668 H   0  0  0  0  0  0
  -25.1279  -36.1985   25.0834 H   0  0  0  0  0  0
  -20.9945  -28.3240   24.1440 H   0  0  0  0  0  0
  -20.5657  -26.2281   23.3612 H   0  0  0  0  0  0
  -21.6637  -26.7445   22.1224 H   0  0  0  0  0  0
  -19.6906  -25.6303   21.1235 H   0  0  0  0  0  0
  -19.6686  -27.3208   20.6753 H   0  0  0  0  0  0
  -17.4192  -26.6675   21.4022 H   0  0  0  0  0  0
  -18.0320  -26.0074   22.9018 H   0  0  0  0  0  0
  -19.7928  -30.7251   24.2301 H   0  0  0  0  0  0
  -17.5012  -31.6267   24.5171 H   0  0  0  0  0  0
  -15.5347  -30.3001   23.7637 H   0  0  0  0  0  0
  -15.8662  -28.0839   22.7038 H   0  0  0  0  0  0
  -24.5912  -30.7054   25.7818 H   0  0  0  0  0  0
  -24.8958  -32.2842   26.4966 H   0  0  0  0  0  0
  -25.8119  -30.8834   27.0210 H   0  0  0  0  0  0
  -26.2821  -29.6807   24.1152 H   0  0  0  0  0  0
  -27.4113  -29.7282   25.4505 H   0  0  0  0  0  0
  -27.8636  -30.4378   23.9176 H   0  0  0  0  0  0
  -27.2689  -33.3602   26.2082 H   0  0  0  0  0  0
  -28.3844  -32.6886   25.0277 H   0  0  0  0  0  0
  -28.0753  -31.8415   26.5353 H   0  0  0  0  0  0
  -28.2608  -38.0100   24.7504 H   0  0  0  0  0  0
  -28.1066  -36.2632   24.6293 H   0  0  0  0  0  0
  -27.2301  -37.1472   25.8869 H   0  0  0  0  0  0
  -20.9306  -29.8770   21.6955 H   0  0  0  0  0  0
  -26.0185  -38.2876   24.1410 H   0  0  0  0  0  0
  -29.6008  -20.1647   18.0731 H   0  0  0  0  0  0
  -30.4825  -15.9921   18.2008 H   0  0  0  0  0  0
  -29.2184  -18.0107   21.8116 H   0  0  0  0  0  0
  -29.6694  -21.8359   19.3679 H   0  0  0  0  0  0
  -30.1508  -19.0632   16.0783 H   0  0  0  0  0  0
  -29.8405  -17.3286   16.0165 H   0  0  0  0  0  0
  -31.4662  -17.9229   16.3716 H   0  0  0  0  0  0
  -29.3211  -23.0392   21.9016 H   0  0  0  0  0  0
  -27.6769  -22.7384   21.4012 H   0  0  0  0  0  0
  -28.0690  -24.0618   19.2876 H   0  0  0  0  0  0
  -29.7283  -24.3311   19.7562 H   0  0  0  0  0  0
  -28.9640  -25.6082   21.7710 H   0  0  0  0  0  0
  -27.3056  -25.3261   21.3413 H   0  0  0  0  0  0
  -29.0873  -15.3730   21.3751 H   0  0  0  0  0  0
  1 25  1  0  0  0
  1 30  2  0  0  0
  1 83  1  0  0  0
  2  3  1  0  0  0
  2 25  1  0  0  0
  2 84  1  0  0  0
  2 85  1  0  0  0
  3  4  1  0  0  0
  3 86  1  0  0  0
  3 87  1  0  0  0
  4  5  1  0  0  0
  4 88  1  0  0  0
  4 89  1  0  0  0
  5  6  1  0  0  0
  5 26  1  0  0  0
  5 90  1  0  0  0
  6 25  1  0  0  0
  6 91  1  0  0  0
  6 92  1  0  0  0
  7  8  2  0  0  0
  7 26  1  0  0  0
  7 29  1  0  0  0
  8  9  1  0  0  0
  8 22  1  0  0  0
  9 10  1  0  0  0
  9 27  2  0  0  0
 10 11  2  0  0  0
 10 15  1  0  0  0
 11 12  1  0  0  0
 11 93  1  0  0  0
 12 13  2  0  0  0
 12 94  1  0  0  0
 13 14  1  0  0  0
 13 31  1  0  0  0
 14 15  2  0  0  0
 14 95  1  0  0  0
 15 96  1  0  0  0
 16 17  2  0  0  0
 16 21  1  0  0  0
 16 31  1  0  0  0
 17 18  1  0  0  0
 17 97  1  0  0  0
 18 19  2  0  0  0
 18 98  1  0  0  0
 19 20  1  0  0  0
 19 24  1  0  0  0
 20 21  2  0  0  0
 20 99  1  0  0  0
 21 23  1  0  0  0
 22 28  1  0  0  0
 22 32  2  0  0  0
 26 27  1  0  0  0
 28100  1  0  0  0
 28101  1  0  0  0
 29102  1  0  0  0
 29103  1  0  0  0
 33 34  1  0  0  0
 33 66  1  0  0  0
 33 70  2  0  0  0
 34 36  1  0  0  0
 34 59  1  0  0  0
 34104  1  0  0  0
 35 44  2  0  0  0
 35 45  1  0  0  0
 35 68  1  0  0  0
 36 56  1  0  0  0
 36105  1  0  0  0
 37 39  1  0  0  0
 37 47  1  0  0  0
 37 66  1  0  0  0
 37106  1  0  0  0
 38 43  2  0  0  0
 38 46  1  0  0  0
 38 47  1  0  0  0
 39 64  1  0  0  0
 39 67  2  0  0  0
 40 52  1  0  0  0
 40 53  2  0  0  0
 40 58  1  0  0  0
 41107  1  0  0  0
 41108  1  0  0  0
 41109  1  0  0  0
 41 48  1  0  0  0
 42 43  1  0  0  0
 42 66  1  0  0  0
 42110  1  0  0  0
 42111  1  0  0  0
 43 44  1  0  0  0
 44112  1  0  0  0
 45 46  2  0  0  0
 45113  1  0  0  0
 46114  1  0  0  0
 47115  1  0  0  0
 47116  1  0  0  0
 48 56  1  0  0  0
 48 65  1  0  0  0
 48117  1  0  0  0
 49 50  1  0  0  0
 49 53  1  0  0  0
 49 64  1  0  0  0
 49118  1  0  0  0
 50 51  1  0  0  0
 50119  1  0  0  0
 50120  1  0  0  0
 51 52  1  0  0  0
 51121  1  0  0  0
 51122  1  0  0  0
 52123  1  0  0  0
 52124  1  0  0  0
 53 54  1  0  0  0
 54 55  2  0  0  0
 54125  1  0  0  0
 55 57  1  0  0  0
 55126  1  0  0  0
 56 69  2  0  0  0
 57 58  2  0  0  0
 57127  1  0  0  0
 58128  1  0  0  0
 59 60  1  0  0  0
 59 61  1  0  0  0
 59 62  1  0  0  0
 60129  1  0  0  0
 60130  1  0  0  0
 60131  1  0  0  0
 61132  1  0  0  0
 61133  1  0  0  0
 61134  1  0  0  0
 62135  1  0  0  0
 62136  1  0  0  0
 62137  1  0  0  0
 63 65  1  0  0  0
 63138  1  0  0  0
 63139  1  0  0  0
 63140  1  0  0  0
 64141  1  0  0  0
 65142  1  0  0  0
 68 81  1  0  0  0
 71 74  2  0  0  0
 71 75  1  0  0  0
 71143  1  0  0  0
 72 74  1  0  0  0
 72 76  2  0  0  0
 72144  1  0  0  0
 73 75  2  0  0  0
 73 76  1  0  0  0
 73145  1  0  0  0
 74 78  1  0  0  0
 75 82  1  0  0  0
 76 83  1  0  0  0
 77 79  1  0  0  0
 77 82  2  0  0  0
 77146  1  0  0  0
 78147  1  0  0  0
 78148  1  0  0  0
 78149  1  0  0  0
 79 80  1  0  0  0
 79150  1  0  0  0
 79151  1  0  0  0
 80 81  1  0  0  0
 80152  1  0  0  0
 80153  1  0  0  0
 81154  1  0  0  0
 81155  1  0  0  0
 83156  1  0  0  0
M  ISO  4   1 100  68 101  81 101  83 100
M  END
> <chiral flag>
0

> <version>
0

> <s_m_source_file>
/data/baiqing/PycharmProjects/Reinvent-master-3.2/result/LINK_invent/BTK/process_docking_weight1_custom_product_contain_oxygen_bond_distance_aromatic_linkinvent_7_9_3/rearranged_h_0112.sdf

> <i_m_source_file_index>
18

> <r_mmod_Potential_Energy-OPLS-2005>
-8.02582740783691

> <r_mmod_Stretch_Energy-OPLS-2005>
42.822208404541

> <r_mmod_Bend_Energy-OPLS-2005>
95.7251281738281

> <r_mmod_Torsional_Energy-OPLS-2005>
256.464294433594

> <r_mmod_Improper_Torsional_Energy-OPLS-2005>
5.9235053062439

> <r_mmod_Van_der_Waal_Energy-OPLS-2005>
154.56428527832

> <r_mmod_Electrostatic_Energy-OPLS-2005>
-369.8818359375

> <r_mmod_Solvation_Energy-OPLS-2005>
-211.33659362793

> <b_mmod_Minimization_Converged-OPLS-2005>
0

> <r_mmod_RMS_Derivative-OPLS-2005>
1.11925423145294

$$$$
18
                    3D
 Structure written by MMmdl.
160169  0  0  1  0            999 V2000
  -30.6163  -14.7378   20.4462 C   0  0  0  0  0  0
  -30.4321  -12.4455   19.4868 C   0  0  0  0  0  0
  -29.5150  -12.5083   18.2449 C   0  0  0  0  0  0
  -28.0398  -12.3361   18.6533 C   0  0  0  0  0  0
  -27.6453  -13.2343   19.8561 C   0  0  2  0  0  0
  -28.6872  -13.1664   20.9955 C   0  0  0  0  0  0
  -25.2518  -13.8206   20.5698 C   0  0  0  0  0  0
  -24.1807  -13.0448   20.9202 C   0  0  0  0  0  0
  -24.6401  -11.6926   20.8746 C   0  0  0  0  0  0
  -23.9077  -10.4300   21.0407 C   0  0  0  0  0  0
  -24.3625   -9.4211   21.9183 C   0  0  0  0  0  0
  -23.6295   -8.2249   22.0755 C   0  0  0  0  0  0
  -22.4277   -8.0287   21.3546 C   0  0  0  0  0  0
  -21.9915   -9.0263   20.4650 C   0  0  0  0  0  0
  -22.7248  -10.2140   20.3057 C   0  0  0  0  0  0
  -21.6855   -6.0738   22.5278 C   0  0  0  0  0  0
  -21.4018   -6.5640   23.8212 C   0  0  0  0  0  0
  -21.3660   -5.6792   24.9173 C   0  0  0  0  0  0
  -21.6044   -4.3055   24.7223 C   0  0  0  0  0  0
  -21.8819   -3.8147   23.4344 C   0  0  0  0  0  0
  -21.9193   -4.6965   22.3402 C   0  0  0  0  0  0
  -22.7826  -13.5226   21.1860 C   0  0  0  0  0  0
  -22.1660   -4.2151   21.0978 F   0  0  0  0  0  0
  -21.5628   -3.4537   25.7735 F   0  0  0  0  0  0
  -29.9945  -13.5094   20.4217 N   0  0  0  0  0  0
  -26.2954  -12.9420   20.3300 N   0  0  0  0  0  0
  -25.9335  -11.6559   20.5761 N   0  0  0  0  0  0
  -22.0473  -12.8216   22.0419 N   0  0  0  0  0  0
  -25.4213  -15.1932   20.4123 N   0  0  0  0  0  0
  -31.7970  -14.8321   20.0994 O   0  0  0  0  0  0
  -21.6642   -6.8883   21.4241 O   0  0  0  0  0  0
  -22.3508  -14.5529   20.6707 O   0  0  0  0  0  0
  -24.6325  -31.8555   23.2003 C   0  0  0  0  0  0
  -25.9150  -32.4754   23.8344 C   0  0  1  0  0  0
  -27.2120  -27.2492   20.1244 C   0  0  0  0  0  0
  -25.5945  -33.8558   24.2262 N   0  0  0  0  0  0
  -23.4292  -30.4807   21.5440 C   0  0  2  0  0  0
  -24.8759  -28.9343   20.1064 C   0  0  0  0  0  0
  -22.7511  -29.4604   22.4906 C   0  0  0  0  0  0
  -18.0295  -28.1389   22.8481 C   0  0  0  0  0  0
  -24.1492  -36.7282   23.2638 C   0  0  0  0  0  0
  -25.9783  -30.7624   21.3863 C   0  0  0  0  0  0
  -26.0486  -29.3862   20.7246 C   0  0  0  0  0  0
  -27.2177  -28.5550   20.7279 C   0  0  0  0  0  0
  -26.0206  -26.8885   19.4494 C   0  0  0  0  0  0
  -24.8684  -27.6938   19.4572 C   0  0  0  0  0  0
  -23.6477  -29.8216   20.1580 C   0  0  0  0  0  0
  -25.4119  -36.3069   24.0324 C   0  0  1  0  0  0
  -20.5900  -28.3704   23.1262 C   0  0  2  0  0  0
  -20.6784  -26.9419   22.5405 C   0  0  0  0  0  0
  -19.5757  -26.6384   21.5211 C   0  0  0  0  0  0
  -18.1938  -26.7931   22.1623 C   0  0  0  0  0  0
  -19.1549  -28.8864   23.2866 C   0  0  0  0  0  0
  -18.9468  -30.1464   23.8887 C   0  0  0  0  0  0
  -17.6466  -30.6588   24.0562 C   0  0  0  0  0  0
  -25.9061  -34.9439   23.5094 C   0  0  0  0  0  0
  -16.5358  -29.9083   23.6332 C   0  0  0  0  0  0
  -16.7281  -28.6501   23.0353 C   0  0  0  0  0  0
  -26.4509  -31.6583   25.0737 C   0  0  0  0  0  0
  -25.3723  -31.3738   26.1450 C   0  0  0  0  0  0
  -27.0363  -30.2994   24.6248 C   0  0  0  0  0  0
  -27.6061  -32.4328   25.7509 C   0  0  0  0  0  0
  -27.5580  -37.1799   24.8465 C   0  0  0  0  0  0
  -21.4217  -29.3048   22.3649 N   0  0  0  0  0  0
  -26.4293  -37.3768   23.9405 N   0  0  0  0  0  0
  -24.6989  -31.0509   22.0991 N   0  0  0  0  0  0
  -23.4208  -28.8138   23.3004 O   0  0  0  0  0  0
  -28.2814  -26.3169   20.2133 O   0  0  0  0  0  0
  -26.5631  -34.8911   22.4662 O   0  0  0  0  0  0
  -23.5473  -32.1389   23.7287 O   0  0  0  0  0  0
  -29.5586  -18.4925   20.7483 C   0  0  0  0  0  0
  -30.0620  -19.7513   18.7675 C   0  0  0  0  0  0
  -29.5857  -19.8007   20.0941 C   0  0  0  0  0  0
  -29.9823  -17.2587   20.0931 C   0  0  0  0  0  0
  -30.4247  -17.4496   18.7595 C   0  0  0  0  0  0
  -28.7882  -23.6040   20.4964 C   0  0  0  0  0  0
  -28.6877  -22.2876   20.0361 C   0  0  0  0  0  0
  -29.6064  -23.8161   21.7138 C   0  0  0  0  0  0
  -30.4279  -22.6298   22.2383 C   0  0  0  0  0  0
  -29.7225  -21.2712   22.0409 C   0  0  0  0  0  0
  -27.7913  -21.9795   18.8439 C   0  0  0  0  0  0
  -27.9924  -24.8637   19.9033 C   0  0  0  0  0  0
  -30.4614  -18.6313   18.1269 N   0  0  0  0  0  0
  -29.2494  -21.1059   20.6654 N   0  0  0  0  0  0
  -30.8089  -16.4062   17.9378 N   0  0  0  0  0  0
  -29.8602  -15.8811   20.6718 N   0  0  0  0  0  0
  -29.6762  -24.8899   22.3185 O   0  0  0  0  0  0
  -31.4757  -12.5581   19.1880 H   0  0  0  0  0  0
  -30.3660  -11.4681   19.9671 H   0  0  0  0  0  0
  -29.7968  -11.7372   17.5268 H   0  0  0  0  0  0
  -29.6471  -13.4648   17.7361 H   0  0  0  0  0  0
  -27.8926  -11.2869   18.9123 H   0  0  0  0  0  0
  -27.3858  -12.5337   17.8033 H   0  0  0  0  0  0
  -27.6425  -14.2572   19.4783 H   0  0  0  0  0  0
  -28.7153  -12.1696   21.4379 H   0  0  0  0  0  0
  -28.4224  -13.8513   21.8024 H   0  0  0  0  0  0
  -25.2773   -9.5682   22.4756 H   0  0  0  0  0  0
  -24.0004   -7.4638   22.7472 H   0  0  0  0  0  0
  -21.0846   -8.8784   19.8955 H   0  0  0  0  0  0
  -22.3708  -10.9677   19.6164 H   0  0  0  0  0  0
  -21.2014   -7.6149   23.9716 H   0  0  0  0  0  0
  -21.1480   -6.0523   25.9075 H   0  0  0  0  0  0
  -22.0599   -2.7610   23.2844 H   0  0  0  0  0  0
  -22.4088  -11.9877   22.4810 H   0  0  0  0  0  0
  -21.1090  -13.1241   22.2625 H   0  0  0  0  0  0
  -24.6540  -15.8472   20.5224 H   0  0  0  0  0  0
  -26.2684  -15.6314   20.0742 H   0  0  0  0  0  0
  -26.7212  -32.5396   23.1079 H   0  0  0  0  0  0
  -25.0086  -33.9697   25.0403 H   0  0  0  0  0  0
  -22.7261  -31.3039   21.4011 H   0  0  0  0  0  0
  -23.3755  -35.9614   23.3299 H   0  0  0  0  0  0
  -24.3580  -36.8908   22.2053 H   0  0  0  0  0  0
  -23.7245  -37.6481   23.6666 H   0  0  0  0  0  0
  -26.1242  -31.5244   20.6196 H   0  0  0  0  0  0
  -26.8534  -30.8065   22.0229 H   0  0  0  0  0  0
  -28.1089  -28.8904   21.2398 H   0  0  0  0  0  0
  -25.9346  -25.9552   18.9144 H   0  0  0  0  0  0
  -23.9755  -27.3488   18.9539 H   0  0  0  0  0  0
  -23.7727  -30.6017   19.4061 H   0  0  0  0  0  0
  -22.7656  -29.2574   19.8500 H   0  0  0  0  0  0
  -25.1301  -36.1917   25.0817 H   0  0  0  0  0  0
  -20.9992  -28.3284   24.1383 H   0  0  0  0  0  0
  -20.5688  -26.2314   23.3611 H   0  0  0  0  0  0
  -21.6651  -26.7444   22.1197 H   0  0  0  0  0  0
  -19.6921  -25.6294   21.1245 H   0  0  0  0  0  0
  -19.6694  -27.3190   20.6736 H   0  0  0  0  0  0
  -17.4208  -26.6676   21.4026 H   0  0  0  0  0  0
  -18.0340  -26.0075   22.9022 H   0  0  0  0  0  0
  -19.7944  -30.7283   24.2252 H   0  0  0  0  0  0
  -17.5019  -31.6266   24.5166 H   0  0  0  0  0  0
  -15.5358  -30.2981   23.7663 H   0  0  0  0  0  0
  -15.8681  -28.0817   22.7074 H   0  0  0  0  0  0
  -24.5907  -30.7078   25.7773 H   0  0  0  0  0  0
  -24.8905  -32.2909   26.4851 H   0  0  0  0  0  0
  -25.8032  -30.8930   27.0242 H   0  0  0  0  0  0
  -26.2959  -29.6733   24.1256 H   0  0  0  0  0  0
  -27.4012  -29.7267   25.4784 H   0  0  0  0  0  0
  -27.8852  -30.4254   23.9525 H   0  0  0  0  0  0
  -27.2669  -33.3636   26.2066 H   0  0  0  0  0  0
  -28.3881  -32.6875   25.0342 H   0  0  0  0  0  0
  -28.0720  -31.8467   26.5442 H   0  0  0  0  0  0
  -28.2598  -38.0096   24.7510 H   0  0  0  0  0  0
  -28.1078  -36.2627   24.6294 H   0  0  0  0  0  0
  -27.2297  -37.1450   25.8867 H   0  0  0  0  0  0
  -20.9406  -29.8775   21.6854 H   0  0  0  0  0  0
  -26.0171  -38.2843   24.1402 H   0  0  0  0  0  0
  -29.1940  -18.4320   21.7626 H   0  0  0  0  0  0
  -30.1548  -20.6585   18.1890 H   0  0  0  0  0  0
  -30.6542  -22.7828   23.2934 H   0  0  0  0  0  0
  -31.3809  -22.6271   21.7097 H   0  0  0  0  0  0
  -28.8687  -21.1984   22.7166 H   0  0  0  0  0  0
  -30.4141  -20.4786   22.3289 H   0  0  0  0  0  0
  -26.8390  -22.5030   18.9356 H   0  0  0  0  0  0
  -27.5471  -20.9212   18.7548 H   0  0  0  0  0  0
  -28.2639  -22.3027   17.9158 H   0  0  0  0  0  0
  -26.9821  -24.6485   20.2510 H   0  0  0  0  0  0
  -27.9769  -24.7629   18.8178 H   0  0  0  0  0  0
  -31.2804  -15.6625   18.4478 H   0  0  0  0  0  0
  -31.3242  -16.6853   17.1137 H   0  0  0  0  0  0
  -28.9880  -15.7008   21.1456 H   0  0  0  0  0  0
  1 25  1  0  0  0
  1 30  2  0  0  0
  1 86  1  0  0  0
  2  3  1  0  0  0
  2 25  1  0  0  0
  2 88  1  0  0  0
  2 89  1  0  0  0
  3  4  1  0  0  0
  3 90  1  0  0  0
  3 91  1  0  0  0
  4  5  1  0  0  0
  4 92  1  0  0  0
  4 93  1  0  0  0
  5  6  1  0  0  0
  5 26  1  0  0  0
  5 94  1  0  0  0
  6 25  1  0  0  0
  6 95  1  0  0  0
  6 96  1  0  0  0
  7  8  2  0  0  0
  7 26  1  0  0  0
  7 29  1  0  0  0
  8  9  1  0  0  0
  8 22  1  0  0  0
  9 10  1  0  0  0
  9 27  2  0  0  0
 10 11  2  0  0  0
 10 15  1  0  0  0
 11 12  1  0  0  0
 11 97  1  0  0  0
 12 13  2  0  0  0
 12 98  1  0  0  0
 13 14  1  0  0  0
 13 31  1  0  0  0
 14 15  2  0  0  0
 14 99  1  0  0  0
 15100  1  0  0  0
 16 17  2  0  0  0
 16 21  1  0  0  0
 16 31  1  0  0  0
 17 18  1  0  0  0
 17101  1  0  0  0
 18 19  2  0  0  0
 18102  1  0  0  0
 19 20  1  0  0  0
 19 24  1  0  0  0
 20 21  2  0  0  0
 20103  1  0  0  0
 21 23  1  0  0  0
 22 28  1  0  0  0
 22 32  2  0  0  0
 26 27  1  0  0  0
 28104  1  0  0  0
 28105  1  0  0  0
 29106  1  0  0  0
 29107  1  0  0  0
 33 34  1  0  0  0
 33 66  1  0  0  0
 33 70  2  0  0  0
 34 36  1  0  0  0
 34 59  1  0  0  0
 34108  1  0  0  0
 35 44  2  0  0  0
 35 45  1  0  0  0
 35 68  1  0  0  0
 36 56  1  0  0  0
 36109  1  0  0  0
 37 39  1  0  0  0
 37 47  1  0  0  0
 37 66  1  0  0  0
 37110  1  0  0  0
 38 43  2  0  0  0
 38 46  1  0  0  0
 38 47  1  0  0  0
 39 64  1  0  0  0
 39 67  2  0  0  0
 40 52  1  0  0  0
 40 53  2  0  0  0
 40 58  1  0  0  0
 41111  1  0  0  0
 41112  1  0  0  0
 41113  1  0  0  0
 41 48  1  0  0  0
 42 43  1  0  0  0
 42 66  1  0  0  0
 42114  1  0  0  0
 42115  1  0  0  0
 43 44  1  0  0  0
 44116  1  0  0  0
 45 46  2  0  0  0
 45117  1  0  0  0
 46118  1  0  0  0
 47119  1  0  0  0
 47120  1  0  0  0
 48 56  1  0  0  0
 48 65  1  0  0  0
 48121  1  0  0  0
 49 50  1  0  0  0
 49 53  1  0  0  0
 49 64  1  0  0  0
 49122  1  0  0  0
 50 51  1  0  0  0
 50123  1  0  0  0
 50124  1  0  0  0
 51 52  1  0  0  0
 51125  1  0  0  0
 51126  1  0  0  0
 52127  1  0  0  0
 52128  1  0  0  0
 53 54  1  0  0  0
 54 55  2  0  0  0
 54129  1  0  0  0
 55 57  1  0  0  0
 55130  1  0  0  0
 56 69  2  0  0  0
 57 58  2  0  0  0
 57131  1  0  0  0
 58132  1  0  0  0
 59 60  1  0  0  0
 59 61  1  0  0  0
 59 62  1  0  0  0
 60133  1  0  0  0
 60134  1  0  0  0
 60135  1  0  0  0
 61136  1  0  0  0
 61137  1  0  0  0
 61138  1  0  0  0
 62139  1  0  0  0
 62140  1  0  0  0
 62141  1  0  0  0
 63 65  1  0  0  0
 63142  1  0  0  0
 63143  1  0  0  0
 63144  1  0  0  0
 64145  1  0  0  0
 65146  1  0  0  0
 68 82  1  0  0  0
 71 73  2  0  0  0
 71 74  1  0  0  0
 71147  1  0  0  0
 72 73  1  0  0  0
 72 83  2  0  0  0
 72148  1  0  0  0
 73 84  1  0  0  0
 74 75  2  0  0  0
 74 86  1  0  0  0
 75 83  1  0  0  0
 75 85  1  0  0  0
 76 77  2  0  0  0
 76 78  1  0  0  0
 76 82  1  0  0  0
 77 81  1  0  0  0
 77 84  1  0  0  0
 78 79  1  0  0  0
 78 87  2  0  0  0
 79 80  1  0  0  0
 79149  1  0  0  0
 79150  1  0  0  0
 80 84  1  0  0  0
 80151  1  0  0  0
 80152  1  0  0  0
 81153  1  0  0  0
 81154  1  0  0  0
 81155  1  0  0  0
 82156  1  0  0  0
 82157  1  0  0  0
 85158  1  0  0  0
 85159  1  0  0  0
 86160  1  0  0  0
M  ISO  4   1 100  68 101  82 101  86 100
M  END
> <chiral flag>
0

> <version>
0

> <s_m_source_file>
/data/baiqing/PycharmProjects/Reinvent-master-3.2/result/LINK_invent/BTK/process_docking_weight1_custom_product_contain_oxygen_bond_distance_aromatic_linkinvent_7_9_3/rearranged_h_0112.sdf

> <i_m_source_file_index>
19

> <r_mmod_Potential_Energy-OPLS-2005>
-111.136528015137

> <r_mmod_Stretch_Energy-OPLS-2005>
136.115051269531

> <r_mmod_Bend_Energy-OPLS-2005>
169.677154541016

> <r_mmod_Torsional_Energy-OPLS-2005>
229.887603759766

> <r_mmod_Improper_Torsional_Energy-OPLS-2005>
10.8620204925537

> <r_mmod_Van_der_Waal_Energy-OPLS-2005>
172.682861328125

> <r_mmod_Electrostatic_Energy-OPLS-2005>
-681.970397949219

> <r_mmod_Solvation_Energy-OPLS-2005>
-239.558074951172

> <b_mmod_Minimization_Converged-OPLS-2005>
0

> <r_mmod_RMS_Derivative-OPLS-2005>
0.359532088041306

$$$$
19
                    3D
 Structure written by MMmdl.
160168  0  0  1  0            999 V2000
  -30.6864  -14.4513   20.6094 C   0  0  0  0  0  0
  -30.4321  -12.3056   19.4100 C   0  0  0  0  0  0
  -29.4954  -12.5150   18.2013 C   0  0  0  0  0  0
  -28.0158  -12.3722   18.6135 C   0  0  0  0  0  0
  -27.6665  -13.1978   19.8801 C   0  0  2  0  0  0
  -28.7056  -12.9371   20.9934 C   0  0  0  0  0  0
  -25.2615  -13.8141   20.5673 C   0  0  0  0  0  0
  -24.1851  -13.0434   20.9166 C   0  0  0  0  0  0
  -24.6388  -11.6895   20.8725 C   0  0  0  0  0  0
  -23.9050  -10.4288   21.0401 C   0  0  0  0  0  0
  -24.3605   -9.4205   21.9181 C   0  0  0  0  0  0
  -23.6283   -8.2241   22.0752 C   0  0  0  0  0  0
  -22.4266   -8.0278   21.3543 C   0  0  0  0  0  0
  -21.9897   -9.0252   20.4648 C   0  0  0  0  0  0
  -22.7223  -10.2131   20.3053 C   0  0  0  0  0  0
  -21.6852   -6.0731   22.5277 C   0  0  0  0  0  0
  -21.4015   -6.5635   23.8211 C   0  0  0  0  0  0
  -21.3658   -5.6789   24.9174 C   0  0  0  0  0  0
  -21.6044   -4.3051   24.7224 C   0  0  0  0  0  0
  -21.8819   -3.8143   23.4346 C   0  0  0  0  0  0
  -21.9193   -4.6959   22.3403 C   0  0  0  0  0  0
  -22.7875  -13.5244   21.1835 C   0  0  0  0  0  0
  -22.1661   -4.2144   21.0980 F   0  0  0  0  0  0
  -21.5628   -3.4535   25.7737 F   0  0  0  0  0  0
  -30.0412  -13.2626   20.4556 N   0  0  0  0  0  0
  -26.3044  -12.9291   20.3373 N   0  0  0  0  0  0
  -25.9311  -11.6461   20.5753 N   0  0  0  0  0  0
  -22.0512  -12.8244   22.0395 N   0  0  0  0  0  0
  -25.4363  -15.1856   20.4085 N   0  0  0  0  0  0
  -31.7844  -14.6867   20.0950 O   0  0  0  0  0  0
  -21.6634   -6.8873   21.4239 O   0  0  0  0  0  0
  -22.3564  -14.5553   20.6686 O   0  0  0  0  0  0
  -24.6127  -31.8687   23.2100 C   0  0  0  0  0  0
  -25.9022  -32.4827   23.8399 C   0  0  1  0  0  0
  -27.2394  -27.4494   20.0997 C   0  0  0  0  0  0
  -25.5885  -33.8625   24.2335 N   0  0  0  0  0  0
  -23.4012  -30.4901   21.5501 C   0  0  2  0  0  0
  -24.8503  -28.9525   20.1192 C   0  0  0  0  0  0
  -22.7400  -29.4660   22.5001 C   0  0  0  0  0  0
  -18.0271  -28.1375   22.8496 C   0  0  0  0  0  0
  -24.1486  -36.7320   23.2640 C   0  0  0  0  0  0
  -25.9276  -30.8386   21.3607 C   0  0  0  0  0  0
  -26.0082  -29.4716   20.7131 C   0  0  0  0  0  0
  -27.2088  -28.7273   20.6996 C   0  0  0  0  0  0
  -26.0687  -26.9353   19.5073 C   0  0  0  0  0  0
  -24.8738  -27.6820   19.5146 C   0  0  0  0  0  0
  -23.6105  -29.8178   20.1663 C   0  0  0  0  0  0
  -25.4105  -36.3118   24.0343 C   0  0  1  0  0  0
  -20.5859  -28.3660   23.1327 C   0  0  2  0  0  0
  -20.6759  -26.9397   22.5425 C   0  0  0  0  0  0
  -19.5741  -26.6388   21.5216 C   0  0  0  0  0  0
  -18.1919  -26.7923   22.1625 C   0  0  0  0  0  0
  -19.1520  -28.8834   23.2910 C   0  0  0  0  0  0
  -18.9448  -30.1441   23.8918 C   0  0  0  0  0  0
  -17.6452  -30.6583   24.0569 C   0  0  0  0  0  0
  -25.9028  -34.9480   23.5137 C   0  0  0  0  0  0
  -16.5343  -29.9088   23.6324 C   0  0  0  0  0  0
  -16.7262  -28.6504   23.0347 C   0  0  0  0  0  0
  -26.4458  -31.6599   25.0719 C   0  0  0  0  0  0
  -25.3732  -31.3703   26.1476 C   0  0  0  0  0  0
  -27.0286  -30.3047   24.6075 C   0  0  0  0  0  0
  -27.6047  -32.4309   25.7469 C   0  0  0  0  0  0
  -27.5584  -37.1814   24.8465 C   0  0  0  0  0  0
  -21.4130  -29.3030   22.3735 N   0  0  0  0  0  0
  -26.4297  -37.3798   23.9409 N   0  0  0  0  0  0
  -24.6652  -31.0798   22.0994 N   0  0  0  0  0  0
  -23.4174  -28.8208   23.3046 O   0  0  0  0  0  0
  -28.4008  -26.7164   20.0613 O   0  0  0  0  0  0
  -26.5595  -34.8927   22.4701 O   0  0  0  0  0  0
  -23.5320  -32.1435   23.7498 O   0  0  0  0  0  0
  -31.1625  -17.5578   20.9199 C   0  0  0  0  0  0
  -28.9371  -17.4644   21.8942 C   0  0  0  0  0  0
  -31.1685  -18.9738   21.0339 C   0  0  0  0  0  0
  -30.0543  -16.7895   21.3552 C   0  0  0  0  0  0
  -28.9241  -18.8695   22.0077 C   0  0  0  0  0  0
  -30.0339  -19.6310   21.5793 C   0  0  0  0  0  0
  -33.4351  -19.3204   19.9780 C   0  0  0  0  0  0
  -32.3353  -19.7735   20.6052 C   0  0  0  0  0  0
  -28.8287  -24.2983   20.3291 C   0  0  0  0  0  0
  -29.1859  -23.1973   21.3550 C   0  0  0  0  0  0
  -28.4673  -25.6411   21.0037 C   0  0  0  0  0  0
  -29.4948  -21.8063   20.7587 C   0  0  0  0  0  0
  -27.8229  -19.5142   22.5733 N   0  0  0  0  0  0
  -29.9841  -15.3607   21.3137 N   0  0  0  0  0  0
  -30.0315  -20.9925   21.8013 O   0  0  0  0  0  0
  -31.4741  -12.4235   19.1069 H   0  0  0  0  0  0
  -30.3476  -11.2857   19.7883 H   0  0  0  0  0  0
  -29.7335  -11.7997   17.4129 H   0  0  0  0  0  0
  -29.6617  -13.5056   17.7748 H   0  0  0  0  0  0
  -27.8233  -11.3146   18.7983 H   0  0  0  0  0  0
  -27.3649  -12.6580   17.7865 H   0  0  0  0  0  0
  -27.7230  -14.2511   19.6041 H   0  0  0  0  0  0
  -28.6822  -11.8866   21.2876 H   0  0  0  0  0  0
  -28.4541  -13.4861   21.9016 H   0  0  0  0  0  0
  -25.2752   -9.5680   22.4752 H   0  0  0  0  0  0
  -23.9994   -7.4631   22.7468 H   0  0  0  0  0  0
  -21.0828   -8.8769   19.8957 H   0  0  0  0  0  0
  -22.3681  -10.9668   19.6160 H   0  0  0  0  0  0
  -21.2009   -7.6142   23.9713 H   0  0  0  0  0  0
  -21.1480   -6.0519   25.9076 H   0  0  0  0  0  0
  -22.0601   -2.7605   23.2847 H   0  0  0  0  0  0
  -22.4117  -11.9899   22.4779 H   0  0  0  0  0  0
  -21.1137  -13.1285   22.2609 H   0  0  0  0  0  0
  -24.6722  -15.8436   20.5167 H   0  0  0  0  0  0
  -26.2918  -15.6223   20.0884 H   0  0  0  0  0  0
  -26.7094  -32.5553   23.1170 H   0  0  0  0  0  0
  -25.0036  -33.9786   25.0479 H   0  0  0  0  0  0
  -22.6900  -31.3066   21.4089 H   0  0  0  0  0  0
  -23.3741  -35.9662   23.3318 H   0  0  0  0  0  0
  -24.3581  -36.8914   22.2051 H   0  0  0  0  0  0
  -23.7242  -37.6534   23.6637 H   0  0  0  0  0  0
  -26.0348  -31.6023   20.5892 H   0  0  0  0  0  0
  -26.8171  -30.8968   21.9762 H   0  0  0  0  0  0
  -28.1071  -29.1266   21.1496 H   0  0  0  0  0  0
  -26.0862  -25.9618   19.0375 H   0  0  0  0  0  0
  -23.9834  -27.2759   19.0547 H   0  0  0  0  0  0
  -23.7172  -30.5903   19.4038 H   0  0  0  0  0  0
  -22.7357  -29.2349   19.8726 H   0  0  0  0  0  0
  -25.1278  -36.1993   25.0837 H   0  0  0  0  0  0
  -20.9956  -28.3222   24.1444 H   0  0  0  0  0  0
  -20.5663  -26.2265   23.3609 H   0  0  0  0  0  0
  -21.6632  -26.7443   22.1220 H   0  0  0  0  0  0
  -19.6903  -25.6304   21.1232 H   0  0  0  0  0  0
  -19.6681  -27.3209   20.6754 H   0  0  0  0  0  0
  -17.4194  -26.6680   21.4021 H   0  0  0  0  0  0
  -18.0316  -26.0057   22.9012 H   0  0  0  0  0  0
  -19.7925  -30.7252   24.2297 H   0  0  0  0  0  0
  -17.5008  -31.6265   24.5168 H   0  0  0  0  0  0
  -15.5345  -30.3000   23.7632 H   0  0  0  0  0  0
  -15.8661  -28.0832   22.7048 H   0  0  0  0  0  0
  -24.5898  -30.7053   25.7820 H   0  0  0  0  0  0
  -24.8927  -32.2857   26.4939 H   0  0  0  0  0  0
  -25.8092  -30.8867   27.0225 H   0  0  0  0  0  0
  -26.2825  -29.6812   24.1133 H   0  0  0  0  0  0
  -27.4073  -29.7273   25.4519 H   0  0  0  0  0  0
  -27.8650  -30.4379   23.9208 H   0  0  0  0  0  0
  -27.2682  -33.3594   26.2092 H   0  0  0  0  0  0
  -28.3827  -32.6891   25.0273 H   0  0  0  0  0  0
  -28.0748  -31.8404   26.5343 H   0  0  0  0  0  0
  -28.2617  -38.0097   24.7504 H   0  0  0  0  0  0
  -28.1064  -36.2631   24.6300 H   0  0  0  0  0  0
  -27.2305  -37.1479   25.8871 H   0  0  0  0  0  0
  -20.9289  -29.8753   21.6960 H   0  0  0  0  0  0
  -26.0192  -38.2882   24.1397 H   0  0  0  0  0  0
  -32.0304  -17.0595   20.5207 H   0  0  0  0  0  0
  -28.0824  -16.8965   22.2351 H   0  0  0  0  0  0
  -34.2320  -20.0026   19.7169 H   0  0  0  0  0  0
  -33.5760  -18.2846   19.7082 H   0  0  0  0  0  0
  -32.2977  -20.8307   20.8285 H   0  0  0  0  0  0
  -27.9976  -23.9717   19.7034 H   0  0  0  0  0  0
  -29.6778  -24.4474   19.6612 H   0  0  0  0  0  0
  -28.3734  -23.0949   22.0752 H   0  0  0  0  0  0
  -30.0527  -23.5304   21.9273 H   0  0  0  0  0  0
  -29.2358  -25.9017   21.7324 H   0  0  0  0  0  0
  -27.5397  -25.5296   21.5696 H   0  0  0  0  0  0
  -30.2261  -21.8890   19.9539 H   0  0  0  0  0  0
  -28.5903  -21.3653   20.3359 H   0  0  0  0  0  0
  -27.2207  -18.9831   23.1931 H   0  0  0  0  0  0
  -27.9816  -20.4636   22.8955 H   0  0  0  0  0  0
  -29.1478  -14.9667   21.7169 H   0  0  0  0  0  0
  1 25  1  0  0  0
  1 30  2  0  0  0
  1 84  1  0  0  0
  2  3  1  0  0  0
  2 25  1  0  0  0
  2 86  1  0  0  0
  2 87  1  0  0  0
  3  4  1  0  0  0
  3 88  1  0  0  0
  3 89  1  0  0  0
  4  5  1  0  0  0
  4 90  1  0  0  0
  4 91  1  0  0  0
  5  6  1  0  0  0
  5 26  1  0  0  0
  5 92  1  0  0  0
  6 25  1  0  0  0
  6 93  1  0  0  0
  6 94  1  0  0  0
  7  8  2  0  0  0
  7 26  1  0  0  0
  7 29  1  0  0  0
  8  9  1  0  0  0
  8 22  1  0  0  0
  9 10  1  0  0  0
  9 27  2  0  0  0
 10 11  2  0  0  0
 10 15  1  0  0  0
 11 12  1  0  0  0
 11 95  1  0  0  0
 12 13  2  0  0  0
 12 96  1  0  0  0
 13 14  1  0  0  0
 13 31  1  0  0  0
 14 15  2  0  0  0
 14 97  1  0  0  0
 15 98  1  0  0  0
 16 17  2  0  0  0
 16 21  1  0  0  0
 16 31  1  0  0  0
 17 18  1  0  0  0
 17 99  1  0  0  0
 18 19  2  0  0  0
 18100  1  0  0  0
 19 20  1  0  0  0
 19 24  1  0  0  0
 20 21  2  0  0  0
 20101  1  0  0  0
 21 23  1  0  0  0
 22 28  1  0  0  0
 22 32  2  0  0  0
 26 27  1  0  0  0
 28102  1  0  0  0
 28103  1  0  0  0
 29104  1  0  0  0
 29105  1  0  0  0
 33 34  1  0  0  0
 33 66  1  0  0  0
 33 70  2  0  0  0
 34 36  1  0  0  0
 34 59  1  0  0  0
 34106  1  0  0  0
 35 44  2  0  0  0
 35 45  1  0  0  0
 35 68  1  0  0  0
 36 56  1  0  0  0
 36107  1  0  0  0
 37 39  1  0  0  0
 37 47  1  0  0  0
 37 66  1  0  0  0
 37108  1  0  0  0
 38 43  2  0  0  0
 38 46  1  0  0  0
 38 47  1  0  0  0
 39 64  1  0  0  0
 39 67  2  0  0  0
 40 52  1  0  0  0
 40 53  2  0  0  0
 40 58  1  0  0  0
 41109  1  0  0  0
 41110  1  0  0  0
 41111  1  0  0  0
 41 48  1  0  0  0
 42 43  1  0  0  0
 42 66  1  0  0  0
 42112  1  0  0  0
 42113  1  0  0  0
 43 44  1  0  0  0
 44114  1  0  0  0
 45 46  2  0  0  0
 45115  1  0  0  0
 46116  1  0  0  0
 47117  1  0  0  0
 47118  1  0  0  0
 48 56  1  0  0  0
 48 65  1  0  0  0
 48119  1  0  0  0
 49 50  1  0  0  0
 49 53  1  0  0  0
 49 64  1  0  0  0
 49120  1  0  0  0
 50 51  1  0  0  0
 50121  1  0  0  0
 50122  1  0  0  0
 51 52  1  0  0  0
 51123  1  0  0  0
 51124  1  0  0  0
 52125  1  0  0  0
 52126  1  0  0  0
 53 54  1  0  0  0
 54 55  2  0  0  0
 54127  1  0  0  0
 55 57  1  0  0  0
 55128  1  0  0  0
 56 69  2  0  0  0
 57 58  2  0  0  0
 57129  1  0  0  0
 58130  1  0  0  0
 59 60  1  0  0  0
 59 61  1  0  0  0
 59 62  1  0  0  0
 60131  1  0  0  0
 60132  1  0  0  0
 60133  1  0  0  0
 61134  1  0  0  0
 61135  1  0  0  0
 61136  1  0  0  0
 62137  1  0  0  0
 62138  1  0  0  0
 62139  1  0  0  0
 63 65  1  0  0  0
 63140  1  0  0  0
 63141  1  0  0  0
 63142  1  0  0  0
 64143  1  0  0  0
 65144  1  0  0  0
 68 81  1  0  0  0
 71 73  2  0  0  0
 71 74  1  0  0  0
 71145  1  0  0  0
 72 74  2  0  0  0
 72 75  1  0  0  0
 72146  1  0  0  0
 73 76  1  0  0  0
 73 78  1  0  0  0
 74 84  1  0  0  0
 75 76  2  0  0  0
 75 83  1  0  0  0
 76 85  1  0  0  0
 77 78  2  0  0  0
 77147  1  0  0  0
 77148  1  0  0  0
 78149  1  0  0  0
 79 80  1  0  0  0
 79 81  1  0  0  0
 79150  1  0  0  0
 79151  1  0  0  0
 80 82  1  0  0  0
 80152  1  0  0  0
 80153  1  0  0  0
 81154  1  0  0  0
 81155  1  0  0  0
 82 85  1  0  0  0
 82156  1  0  0  0
 82157  1  0  0  0
 83158  1  0  0  0
 83159  1  0  0  0
 84160  1  0  0  0
M  ISO  4   1 100  68 101  81 101  84 100
M  END
> <chiral flag>
0

> <version>
0

> <s_m_source_file>
/data/baiqing/PycharmProjects/Reinvent-master-3.2/result/LINK_invent/BTK/process_docking_weight1_custom_product_contain_oxygen_bond_distance_aromatic_linkinvent_7_9_3/rearranged_h_0112.sdf

> <i_m_source_file_index>
20

> <r_mmod_Potential_Energy-OPLS-2005>
-5.11275434494019

> <r_mmod_Stretch_Energy-OPLS-2005>
36.7401123046875

> <r_mmod_Bend_Energy-OPLS-2005>
101.965644836426

> <r_mmod_Torsional_Energy-OPLS-2005>
270.539916992188

> <r_mmod_Improper_Torsional_Energy-OPLS-2005>
6.81553602218628

> <r_mmod_Van_der_Waal_Energy-OPLS-2005>
151.890869140625

> <r_mmod_Electrostatic_Energy-OPLS-2005>
-372.330657958984

> <r_mmod_Solvation_Energy-OPLS-2005>
-210.144241333008

> <b_mmod_Minimization_Converged-OPLS-2005>
0

> <r_mmod_RMS_Derivative-OPLS-2005>
0.411971002817154

$$$$
21
                    3D
 Structure written by MMmdl.
158167  0  0  1  0            999 V2000
  -30.6469  -14.5939   20.4745 C   0  0  0  0  0  0
  -30.4281  -12.3540   19.4440 C   0  0  0  0  0  0
  -29.5012  -12.4929   18.2165 C   0  0  0  0  0  0
  -28.0249  -12.3382   18.6338 C   0  0  0  0  0  0
  -27.6561  -13.2127   19.8621 C   0  0  2  0  0  0
  -28.7016  -13.0622   20.9904 C   0  0  0  0  0  0
  -25.2606  -13.8168   20.5702 C   0  0  0  0  0  0
  -24.1865  -13.0441   20.9194 C   0  0  0  0  0  0
  -24.6423  -11.6910   20.8751 C   0  0  0  0  0  0
  -23.9086  -10.4294   21.0418 C   0  0  0  0  0  0
  -24.3634   -9.4207   21.9190 C   0  0  0  0  0  0
  -23.6307   -8.2240   22.0753 C   0  0  0  0  0  0
  -22.4283   -8.0289   21.3548 C   0  0  0  0  0  0
  -21.9930   -9.0269   20.4646 C   0  0  0  0  0  0
  -22.7267  -10.2143   20.3061 C   0  0  0  0  0  0
  -21.6853   -6.0752   22.5285 C   0  0  0  0  0  0
  -21.4014   -6.5648   23.8223 C   0  0  0  0  0  0
  -21.3660   -5.6793   24.9180 C   0  0  0  0  0  0
  -21.6037   -4.3055   24.7223 C   0  0  0  0  0  0
  -21.8819   -3.8158   23.4339 C   0  0  0  0  0  0
  -21.9196   -4.6980   22.3399 C   0  0  0  0  0  0
  -22.7890  -13.5246   21.1846 C   0  0  0  0  0  0
  -22.1667   -4.2174   21.0974 F   0  0  0  0  0  0
  -21.5624   -3.4532   25.7735 F   0  0  0  0  0  0
  -30.0214  -13.3787   20.4249 N   0  0  0  0  0  0
  -26.3028  -12.9339   20.3339 N   0  0  0  0  0  0
  -25.9343  -11.6495   20.5761 N   0  0  0  0  0  0
  -22.0504  -12.8244   22.0382 N   0  0  0  0  0  0
  -25.4341  -15.1879   20.4101 N   0  0  0  0  0  0
  -31.8118  -14.7329   20.0869 O   0  0  0  0  0  0
  -21.6631   -6.8900   21.4252 O   0  0  0  0  0  0
  -22.3588  -14.5559   20.6690 O   0  0  0  0  0  0
  -24.6238  -31.8620   23.1978 C   0  0  0  0  0  0
  -25.9102  -32.4790   23.8301 C   0  0  1  0  0  0
  -27.2297  -27.3531   20.1061 C   0  0  0  0  0  0
  -25.5924  -33.8580   24.2249 N   0  0  0  0  0  0
  -23.4147  -30.4830   21.5388 C   0  0  2  0  0  0
  -24.8604  -28.9377   20.1006 C   0  0  0  0  0  0
  -22.7461  -29.4647   22.4917 C   0  0  0  0  0  0
  -18.0291  -28.1408   22.8498 C   0  0  0  0  0  0
  -24.1490  -36.7282   23.2635 C   0  0  0  0  0  0
  -25.9484  -30.8046   21.3572 C   0  0  0  0  0  0
  -26.0220  -29.4332   20.7030 C   0  0  0  0  0  0
  -27.2076  -28.6482   20.6989 C   0  0  0  0  0  0
  -26.0475  -26.8922   19.4880 C   0  0  0  0  0  0
  -24.8726  -27.6737   19.4846 C   0  0  0  0  0  0
  -23.6237  -29.8113   20.1542 C   0  0  0  0  0  0
  -25.4118  -36.3082   24.0327 C   0  0  1  0  0  0
  -20.5896  -28.3700   23.1294 C   0  0  2  0  0  0
  -20.6775  -26.9422   22.5418 C   0  0  0  0  0  0
  -19.5749  -26.6410   21.5218 C   0  0  0  0  0  0
  -18.1933  -26.7954   22.1626 C   0  0  0  0  0  0
  -19.1547  -28.8864   23.2899 C   0  0  0  0  0  0
  -18.9474  -30.1467   23.8924 C   0  0  0  0  0  0
  -17.6474  -30.6601   24.0581 C   0  0  0  0  0  0
  -25.9057  -34.9459   23.5087 C   0  0  0  0  0  0
  -16.5371  -29.9102   23.6328 C   0  0  0  0  0  0
  -16.7285  -28.6518   23.0360 C   0  0  0  0  0  0
  -26.4482  -31.6595   25.0664 C   0  0  0  0  0  0
  -25.3746  -31.3762   26.1422 C   0  0  0  0  0  0
  -27.0285  -30.3026   24.6072 C   0  0  0  0  0  0
  -27.6056  -32.4320   25.7441 C   0  0  0  0  0  0
  -27.5587  -37.1794   24.8462 C   0  0  0  0  0  0
  -21.4176  -29.3044   22.3674 N   0  0  0  0  0  0
  -26.4289  -37.3789   23.9421 N   0  0  0  0  0  0
  -24.6808  -31.0670   22.0888 N   0  0  0  0  0  0
  -23.4202  -28.8192   23.2991 O   0  0  0  0  0  0
  -28.3637  -26.5493   20.2176 O   0  0  0  0  0  0
  -26.5631  -34.8934   22.4656 O   0  0  0  0  0  0
  -23.5416  -32.1393   23.7344 O   0  0  0  0  0  0
  -29.4629  -18.0762   21.1257 C   0  0  0  0  0  0
  -29.9394  -19.2745   20.4707 C   0  0  0  0  0  0
  -30.6783  -18.7895   19.4155 C   0  0  0  0  0  0
  -30.0302  -16.9891   20.4920 C   0  0  0  0  0  0
  -28.6090  -24.0905   20.1650 C   0  0  0  0  0  0
  -28.5003  -25.3191   19.5698 C   0  0  0  0  0  0
  -28.3614  -23.7573   21.6111 C   0  0  0  0  0  0
  -28.9853  -22.7524   19.4899 C   0  0  0  0  0  0
  -27.9269  -22.2759   21.5610 C   0  0  0  0  0  0
  -31.4658  -19.4697   18.3450 C   0  0  0  0  0  0
  -29.8308  -20.7658   20.9164 C   0  0  0  0  0  0
  -29.8755  -15.6602   20.8339 N   0  0  0  0  0  0
  -28.6754  -21.6269   20.4488 N   0  3  2  0  0  0
  -30.7533  -17.4162   19.4230 O   0  0  0  0  0  0
  -31.4726  -12.4533   19.1427 H   0  0  0  0  0  0
  -30.3367  -11.3579   19.8800 H   0  0  0  0  0  0
  -29.7541  -11.7434   17.4645 H   0  0  0  0  0  0
  -29.6533  -13.4646   17.7438 H   0  0  0  0  0  0
  -27.8612  -11.2857   18.8694 H   0  0  0  0  0  0
  -27.3674  -12.5673   17.7939 H   0  0  0  0  0  0
  -27.6787  -14.2475   19.5188 H   0  0  0  0  0  0
  -28.7005  -12.0442   21.3819 H   0  0  0  0  0  0
  -28.4588  -13.7059   21.8365 H   0  0  0  0  0  0
  -25.2780   -9.5673   22.4766 H   0  0  0  0  0  0
  -24.0022   -7.4625   22.7463 H   0  0  0  0  0  0
  -21.0865   -8.8797   19.8944 H   0  0  0  0  0  0
  -22.3742  -10.9686   19.6164 H   0  0  0  0  0  0
  -21.1999   -7.6157   23.9741 H   0  0  0  0  0  0
  -21.1480   -6.0510   25.9086 H   0  0  0  0  0  0
  -22.0594   -2.7621   23.2822 H   0  0  0  0  0  0
  -22.4096  -11.9888   22.4757 H   0  0  0  0  0  0
  -21.1122  -13.1285   22.2558 H   0  0  0  0  0  0
  -24.6651  -15.8419   20.5076 H   0  0  0  0  0  0
  -26.2798  -15.6225   20.0630 H   0  0  0  0  0  0
  -26.7167  -32.5463   23.1043 H   0  0  0  0  0  0
  -25.0072  -33.9702   25.0398 H   0  0  0  0  0  0
  -22.7069  -31.3017   21.3950 H   0  0  0  0  0  0
  -23.3759  -35.9609   23.3297 H   0  0  0  0  0  0
  -24.3585  -36.8907   22.2054 H   0  0  0  0  0  0
  -23.7233  -37.6480   23.6646 H   0  0  0  0  0  0
  -26.0733  -31.5651   20.5850 H   0  0  0  0  0  0
  -26.8331  -30.8597   21.9790 H   0  0  0  0  0  0
  -28.1005  -29.0204   21.1798 H   0  0  0  0  0  0
  -26.0107  -25.9125   19.0329 H   0  0  0  0  0  0
  -23.9790  -27.2861   19.0166 H   0  0  0  0  0  0
  -23.7333  -30.5817   19.3902 H   0  0  0  0  0  0
  -22.7450  -29.2325   19.8606 H   0  0  0  0  0  0
  -25.1302  -36.1919   25.0820 H   0  0  0  0  0  0
  -21.0021  -28.3283   24.1405 H   0  0  0  0  0  0
  -20.5675  -26.2308   23.3615 H   0  0  0  0  0  0
  -21.6644  -26.7445   22.1228 H   0  0  0  0  0  0
  -19.6894  -25.6325   21.1235 H   0  0  0  0  0  0
  -19.6685  -27.3222   20.6752 H   0  0  0  0  0  0
  -17.4206  -26.6729   21.4024 H   0  0  0  0  0  0
  -18.0320  -26.0098   22.9014 H   0  0  0  0  0  0
  -19.7947  -30.7281   24.2308 H   0  0  0  0  0  0
  -17.5027  -31.6281   24.5179 H   0  0  0  0  0  0
  -15.5373  -30.3015   23.7627 H   0  0  0  0  0  0
  -15.8687  -28.0832   22.7081 H   0  0  0  0  0  0
  -24.5891  -30.7115   25.7781 H   0  0  0  0  0  0
  -24.8966  -32.2942   26.4848 H   0  0  0  0  0  0
  -25.8109  -30.8946   27.0181 H   0  0  0  0  0  0
  -26.2792  -29.6808   24.1139 H   0  0  0  0  0  0
  -27.4042  -29.7257   25.4531 H   0  0  0  0  0  0
  -27.8645  -30.4315   23.9199 H   0  0  0  0  0  0
  -27.2673  -33.3637   26.1984 H   0  0  0  0  0  0
  -28.3884  -32.6856   25.0279 H   0  0  0  0  0  0
  -28.0679  -31.8455   26.5389 H   0  0  0  0  0  0
  -28.2607  -38.0093   24.7543 H   0  0  0  0  0  0
  -28.1079  -36.2629   24.6236 H   0  0  0  0  0  0
  -27.2311  -37.1411   25.8868 H   0  0  0  0  0  0
  -20.9344  -29.8746   21.6873 H   0  0  0  0  0  0
  -26.0162  -38.2855   24.1445 H   0  0  0  0  0  0
  -28.8439  -18.0277   22.0105 H   0  0  0  0  0  0
  -28.6765  -25.4602   18.5118 H   0  0  0  0  0  0
  -27.6117  -24.4044   22.0690 H   0  0  0  0  0  0
  -29.2928  -23.8606   22.1692 H   0  0  0  0  0  0
  -30.0375  -22.7734   19.2061 H   0  0  0  0  0  0
  -28.4042  -22.6309   18.5753 H   0  0  0  0  0  0
  -26.8680  -22.2239   21.3013 H   0  0  0  0  0  0
  -28.0233  -21.7748   22.5240 H   0  0  0  0  0  0
  -32.3927  -19.8802   18.7469 H   0  0  0  0  0  0
  -30.8974  -20.2917   17.9093 H   0  0  0  0  0  0
  -31.7262  -18.7811   17.5409 H   0  0  0  0  0  0
  -30.7718  -21.2566   20.6684 H   0  0  0  0  0  0
  -29.8481  -20.7299   22.0056 H   0  0  0  0  0  0
  -29.0057  -15.4203   21.2833 H   0  0  0  0  0  0
  -28.0385  -20.9955   19.9879 H   0  0  0  0  0  0
  1 25  1  0  0  0
  1 30  2  0  0  0
  1 82  1  0  0  0
  2  3  1  0  0  0
  2 25  1  0  0  0
  2 85  1  0  0  0
  2 86  1  0  0  0
  3  4  1  0  0  0
  3 87  1  0  0  0
  3 88  1  0  0  0
  4  5  1  0  0  0
  4 89  1  0  0  0
  4 90  1  0  0  0
  5  6  1  0  0  0
  5 26  1  0  0  0
  5 91  1  0  0  0
  6 25  1  0  0  0
  6 92  1  0  0  0
  6 93  1  0  0  0
  7  8  2  0  0  0
  7 26  1  0  0  0
  7 29  1  0  0  0
  8  9  1  0  0  0
  8 22  1  0  0  0
  9 10  1  0  0  0
  9 27  2  0  0  0
 10 11  2  0  0  0
 10 15  1  0  0  0
 11 12  1  0  0  0
 11 94  1  0  0  0
 12 13  2  0  0  0
 12 95  1  0  0  0
 13 14  1  0  0  0
 13 31  1  0  0  0
 14 15  2  0  0  0
 14 96  1  0  0  0
 15 97  1  0  0  0
 16 17  2  0  0  0
 16 21  1  0  0  0
 16 31  1  0  0  0
 17 18  1  0  0  0
 17 98  1  0  0  0
 18 19  2  0  0  0
 18 99  1  0  0  0
 19 20  1  0  0  0
 19 24  1  0  0  0
 20 21  2  0  0  0
 20100  1  0  0  0
 21 23  1  0  0  0
 22 28  1  0  0  0
 22 32  2  0  0  0
 26 27  1  0  0  0
 28101  1  0  0  0
 28102  1  0  0  0
 29103  1  0  0  0
 29104  1  0  0  0
 33 34  1  0  0  0
 33 66  1  0  0  0
 33 70  2  0  0  0
 34 36  1  0  0  0
 34 59  1  0  0  0
 34105  1  0  0  0
 35 44  2  0  0  0
 35 45  1  0  0  0
 35 68  1  0  0  0
 36 56  1  0  0  0
 36106  1  0  0  0
 37 39  1  0  0  0
 37 47  1  0  0  0
 37 66  1  0  0  0
 37107  1  0  0  0
 38 43  2  0  0  0
 38 46  1  0  0  0
 38 47  1  0  0  0
 39 64  1  0  0  0
 39 67  2  0  0  0
 40 52  1  0  0  0
 40 53  2  0  0  0
 40 58  1  0  0  0
 41108  1  0  0  0
 41109  1  0  0  0
 41110  1  0  0  0
 41 48  1  0  0  0
 42 43  1  0  0  0
 42 66  1  0  0  0
 42111  1  0  0  0
 42112  1  0  0  0
 43 44  1  0  0  0
 44113  1  0  0  0
 45 46  2  0  0  0
 45114  1  0  0  0
 46115  1  0  0  0
 47116  1  0  0  0
 47117  1  0  0  0
 48 56  1  0  0  0
 48 65  1  0  0  0
 48118  1  0  0  0
 49 50  1  0  0  0
 49 53  1  0  0  0
 49 64  1  0  0  0
 49119  1  0  0  0
 50 51  1  0  0  0
 50120  1  0  0  0
 50121  1  0  0  0
 51 52  1  0  0  0
 51122  1  0  0  0
 51123  1  0  0  0
 52124  1  0  0  0
 52125  1  0  0  0
 53 54  1  0  0  0
 54 55  2  0  0  0
 54126  1  0  0  0
 55 57  1  0  0  0
 55127  1  0  0  0
 56 69  2  0  0  0
 57 58  2  0  0  0
 57128  1  0  0  0
 58129  1  0  0  0
 59 60  1  0  0  0
 59 61  1  0  0  0
 59 62  1  0  0  0
 60130  1  0  0  0
 60131  1  0  0  0
 60132  1  0  0  0
 61133  1  0  0  0
 61134  1  0  0  0
 61135  1  0  0  0
 62136  1  0  0  0
 62137  1  0  0  0
 62138  1  0  0  0
 63 65  1  0  0  0
 63139  1  0  0  0
 63140  1  0  0  0
 63141  1  0  0  0
 64142  1  0  0  0
 65143  1  0  0  0
 68 76  1  0  0  0
 71 72  1  0  0  0
 71 74  2  0  0  0
 71144  1  0  0  0
 72 73  2  0  0  0
 72 81  1  0  0  0
 73 80  1  0  0  0
 73 84  1  0  0  0
 74 82  1  0  0  0
 74 84  1  0  0  0
 75 76  2  0  0  0
 75 77  1  0  0  0
 75 78  1  0  0  0
 76145  1  0  0  0
 77 79  1  0  0  0
 77146  1  0  0  0
 77147  1  0  0  0
 78 83  1  0  0  0
 78148  1  0  0  0
 78149  1  0  0  0
 79 83  1  0  0  0
 79150  1  0  0  0
 79151  1  0  0  0
 80152  1  0  0  0
 80153  1  0  0  0
 80154  1  0  0  0
 81155  1  0  0  0
 81156  1  0  0  0
 81 83  1  0  0  0
 82157  1  0  0  0
 83158  1  0  0  0
M  CHG  1  83   1
M  ISO  4   1 100  68 101  76 101  82 100
M  END
> <chiral flag>
0

> <version>
0

> <s_m_source_file>
/data/baiqing/PycharmProjects/Reinvent-master-3.2/result/LINK_invent/BTK/process_docking_weight1_custom_product_contain_oxygen_bond_distance_aromatic_linkinvent_7_9_3/rearranged_h_0112.sdf

> <i_m_source_file_index>
21

> <r_mmod_Potential_Energy-OPLS-2005>
-107.275375366211

> <r_mmod_Stretch_Energy-OPLS-2005>
57.0070686340332

> <r_mmod_Bend_Energy-OPLS-2005>
156.526870727539

> <r_mmod_Torsional_Energy-OPLS-2005>
261.341247558594

> <r_mmod_Improper_Torsional_Energy-OPLS-2005>
5.21812534332275

> <r_mmod_Van_der_Waal_Energy-OPLS-2005>
116.690170288086

> <r_mmod_Electrostatic_Energy-OPLS-2005>
-285.591735839844

> <r_mmod_Solvation_Energy-OPLS-2005>
-456.162750244141

> <b_mmod_Minimization_Converged-OPLS-2005>
0

> <r_mmod_RMS_Derivative-OPLS-2005>
2.36761951446533

$$$$
22
                    3D
 Structure written by MMmdl.
153161  0  0  1  0            999 V2000
  -30.6981  -14.5321   20.6330 C   0  0  0  0  0  0
  -30.4325  -12.3673   19.4350 C   0  0  0  0  0  0
  -29.5030  -12.5360   18.2142 C   0  0  0  0  0  0
  -28.0248  -12.3699   18.6173 C   0  0  0  0  0  0
  -27.6605  -13.2076   19.8699 C   0  0  2  0  0  0
  -28.6944  -12.9866   20.9929 C   0  0  0  0  0  0
  -25.2587  -13.8155   20.5657 C   0  0  0  0  0  0
  -24.1840  -13.0434   20.9164 C   0  0  0  0  0  0
  -24.6393  -11.6901   20.8712 C   0  0  0  0  0  0
  -23.9061  -10.4291   21.0396 C   0  0  0  0  0  0
  -24.3617   -9.4210   21.9177 C   0  0  0  0  0  0
  -23.6293   -8.2245   22.0752 C   0  0  0  0  0  0
  -22.4274   -8.0282   21.3545 C   0  0  0  0  0  0
  -21.9907   -9.0254   20.4646 C   0  0  0  0  0  0
  -22.7233  -10.2133   20.3050 C   0  0  0  0  0  0
  -21.6853   -6.0737   22.5281 C   0  0  0  0  0  0
  -21.4012   -6.5640   23.8215 C   0  0  0  0  0  0
  -21.3660   -5.6793   24.9178 C   0  0  0  0  0  0
  -21.6046   -4.3056   24.7227 C   0  0  0  0  0  0
  -21.8821   -3.8147   23.4347 C   0  0  0  0  0  0
  -21.9193   -4.6965   22.3403 C   0  0  0  0  0  0
  -22.7865  -13.5236   21.1842 C   0  0  0  0  0  0
  -22.1662   -4.2150   21.0981 F   0  0  0  0  0  0
  -21.5630   -3.4539   25.7739 F   0  0  0  0  0  0
  -30.0288  -13.3419   20.4698 N   0  0  0  0  0  0
  -26.3012  -12.9322   20.3299 N   0  0  0  0  0  0
  -25.9314  -11.6483   20.5705 N   0  0  0  0  0  0
  -22.0502  -12.8233   22.0400 N   0  0  0  0  0  0
  -25.4314  -15.1875   20.4087 N   0  0  0  0  0  0
  -31.7395  -14.7863   20.0160 O   0  0  0  0  0  0
  -21.6639   -6.8881   21.4244 O   0  0  0  0  0  0
  -22.3553  -14.5545   20.6695 O   0  0  0  0  0  0
  -24.6210  -31.8628   23.2058 C   0  0  0  0  0  0
  -25.9078  -32.4792   23.8370 C   0  0  1  0  0  0
  -27.2341  -27.3719   20.0956 C   0  0  0  0  0  0
  -25.5912  -33.8593   24.2297 N   0  0  0  0  0  0
  -23.4122  -30.4863   21.5473 C   0  0  2  0  0  0
  -24.8586  -28.9470   20.1114 C   0  0  0  0  0  0
  -22.7444  -29.4633   22.4956 C   0  0  0  0  0  0
  -18.0277  -28.1380   22.8490 C   0  0  0  0  0  0
  -24.1488  -36.7304   23.2639 C   0  0  0  0  0  0
  -25.9484  -30.8083   21.3695 C   0  0  0  0  0  0
  -26.0235  -29.4396   20.7118 C   0  0  0  0  0  0
  -27.2114  -28.6601   20.7001 C   0  0  0  0  0  0
  -26.0405  -26.9108   19.4904 C   0  0  0  0  0  0
  -24.8651  -27.6847   19.4972 C   0  0  0  0  0  0
  -23.6240  -29.8206   20.1619 C   0  0  0  0  0  0
  -25.4110  -36.3093   24.0332 C   0  0  1  0  0  0
  -20.5873  -28.3675   23.1299 C   0  0  2  0  0  0
  -20.6767  -26.9404   22.5413 C   0  0  0  0  0  0
  -19.5744  -26.6383   21.5212 C   0  0  0  0  0  0
  -18.1924  -26.7925   22.1626 C   0  0  0  0  0  0
  -19.1529  -28.8843   23.2891 C   0  0  0  0  0  0
  -18.9455  -30.1449   23.8902 C   0  0  0  0  0  0
  -17.6457  -30.6585   24.0563 C   0  0  0  0  0  0
  -25.9043  -34.9460   23.5112 C   0  0  0  0  0  0
  -16.5347  -29.9085   23.6328 C   0  0  0  0  0  0
  -16.7266  -28.6502   23.0350 C   0  0  0  0  0  0
  -26.4485  -31.6592   25.0723 C   0  0  0  0  0  0
  -25.3738  -31.3716   26.1464 C   0  0  0  0  0  0
  -27.0323  -30.3023   24.6148 C   0  0  0  0  0  0
  -27.6049  -32.4324   25.7493 C   0  0  0  0  0  0
  -27.5579  -37.1805   24.8463 C   0  0  0  0  0  0
  -21.4164  -29.3036   22.3700 N   0  0  0  0  0  0
  -26.4291  -37.3783   23.9408 N   0  0  0  0  0  0
  -24.6790  -31.0679   22.0985 N   0  0  0  0  0  0
  -23.4191  -28.8172   23.3016 O   0  0  0  0  0  0
  -28.3847  -26.5838   20.1425 O   0  0  0  0  0  0
  -26.5610  -34.8920   22.4677 O   0  0  0  0  0  0
  -23.5386  -32.1406   23.7414 O   0  0  0  0  0  0
  -30.0793  -17.8766   20.3145 C   0  0  0  0  0  0
  -29.4567  -19.1297   20.6821 C   0  0  0  0  0  0
  -29.8624  -16.9510   21.3195 C   0  0  0  0  0  0
  -28.8651  -18.8685   21.8914 C   0  0  0  0  0  0
  -28.7162  -24.1602   20.3337 C   0  0  0  0  0  0
  -28.3777  -25.2832   19.6402 C   0  0  0  0  0  0
  -30.1693  -15.5330   21.6920 C   0  0  0  0  0  0
  -27.9849  -19.6354   22.8230 C   0  0  0  0  0  0
  -28.6833  -22.7158   19.7707 C   0  0  0  0  0  0
  -29.4803  -21.6089   20.5508 C   0  0  0  0  0  0
  -30.0080  -15.1632   22.8974 N   0  0  0  0  0  0
  -29.1270  -17.5893   22.2838 O   0  0  0  0  0  0
  -29.3917  -20.2995   19.9193 O   0  0  0  0  0  0
  -31.4746  -12.4880   19.1348 H   0  0  0  0  0  0
  -30.3607  -11.3528   19.8308 H   0  0  0  0  0  0
  -29.7630  -11.8130   17.4401 H   0  0  0  0  0  0
  -29.6542  -13.5232   17.7743 H   0  0  0  0  0  0
  -27.8488  -11.3116   18.8149 H   0  0  0  0  0  0
  -27.3751  -12.6351   17.7824 H   0  0  0  0  0  0
  -27.7052  -14.2567   19.5766 H   0  0  0  0  0  0
  -28.6923  -11.9415   21.3060 H   0  0  0  0  0  0
  -28.3911  -13.5412   21.8773 H   0  0  0  0  0  0
  -25.2765   -9.5688   22.4746 H   0  0  0  0  0  0
  -24.0005   -7.4640   22.7472 H   0  0  0  0  0  0
  -21.0839   -8.8774   19.8951 H   0  0  0  0  0  0
  -22.3695  -10.9672   19.6157 H   0  0  0  0  0  0
  -21.2001   -7.6147   23.9719 H   0  0  0  0  0  0
  -21.1480   -6.0521   25.9081 H   0  0  0  0  0  0
  -22.0599   -2.7609   23.2847 H   0  0  0  0  0  0
  -22.4111  -11.9895   22.4793 H   0  0  0  0  0  0
  -21.1116  -13.1260   22.2594 H   0  0  0  0  0  0
  -24.6677  -15.8447   20.5249 H   0  0  0  0  0  0
  -26.2893  -15.6285   20.1018 H   0  0  0  0  0  0
  -26.7146  -32.5481   23.1125 H   0  0  0  0  0  0
  -25.0056  -33.9746   25.0439 H   0  0  0  0  0  0
  -22.7040  -31.3053   21.4057 H   0  0  0  0  0  0
  -23.3746  -35.9642   23.3304 H   0  0  0  0  0  0
  -24.3580  -36.8921   22.2052 H   0  0  0  0  0  0
  -23.7247  -37.6511   23.6658 H   0  0  0  0  0  0
  -26.0724  -31.5746   20.6031 H   0  0  0  0  0  0
  -26.8318  -30.8570   21.9946 H   0  0  0  0  0  0
  -28.1085  -29.0335   21.1737 H   0  0  0  0  0  0
  -25.9880  -25.9393   19.0219 H   0  0  0  0  0  0
  -23.9682  -27.2979   19.0332 H   0  0  0  0  0  0
  -23.7383  -30.5963   19.4039 H   0  0  0  0  0  0
  -22.7463  -29.2452   19.8624 H   0  0  0  0  0  0
  -25.1289  -36.1949   25.0824 H   0  0  0  0  0  0
  -20.9966  -28.3243   24.1420 H   0  0  0  0  0  0
  -20.5667  -26.2281   23.3605 H   0  0  0  0  0  0
  -21.6636  -26.7437   22.1206 H   0  0  0  0  0  0
  -19.6904  -25.6295   21.1236 H   0  0  0  0  0  0
  -19.6683  -27.3197   20.6746 H   0  0  0  0  0  0
  -17.4192  -26.6671   21.4030 H   0  0  0  0  0  0
  -18.0327  -26.0064   22.9020 H   0  0  0  0  0  0
  -19.7932  -30.7263   24.2276 H   0  0  0  0  0  0
  -17.5012  -31.6266   24.5163 H   0  0  0  0  0  0
  -15.5348  -30.2990   23.7648 H   0  0  0  0  0  0
  -15.8666  -28.0824   22.7062 H   0  0  0  0  0  0
  -24.5903  -30.7074   25.7799 H   0  0  0  0  0  0
  -24.8943  -32.2879   26.4917 H   0  0  0  0  0  0
  -25.8081  -30.8876   27.0221 H   0  0  0  0  0  0
  -26.2885  -29.6778   24.1186 H   0  0  0  0  0  0
  -27.4051  -29.7270   25.4634 H   0  0  0  0  0  0
  -27.8741  -30.4320   23.9340 H   0  0  0  0  0  0
  -27.2655  -33.3613   26.2089 H   0  0  0  0  0  0
  -28.3851  -32.6903   25.0320 H   0  0  0  0  0  0
  -28.0728  -31.8441   26.5397 H   0  0  0  0  0  0
  -28.2593  -38.0105   24.7510 H   0  0  0  0  0  0
  -28.1078  -36.2635   24.6286 H   0  0  0  0  0  0
  -27.2297  -37.1451   25.8866 H   0  0  0  0  0  0
  -20.9330  -29.8769   21.6928 H   0  0  0  0  0  0
  -26.0174  -38.2858   24.1413 H   0  0  0  0  0  0
  -30.6297  -17.6735   19.4071 H   0  0  0  0  0  0
  -29.0110  -24.2583   21.3692 H   0  0  0  0  0  0
  -28.0736  -25.2549   18.6023 H   0  0  0  0  0  0
  -27.2963  -20.2754   22.2714 H   0  0  0  0  0  0
  -28.5751  -20.2604   23.4930 H   0  0  0  0  0  0
  -27.3850  -18.9632   23.4365 H   0  0  0  0  0  0
  -29.0221  -22.7455   18.7346 H   0  0  0  0  0  0
  -27.6365  -22.4130   19.7342 H   0  0  0  0  0  0
  -29.1410  -21.5931   21.5831 H   0  0  0  0  0  0
  -30.5344  -21.8857   20.5903 H   0  0  0  0  0  0
  -29.6614  -15.9472   23.4395 H   0  0  0  0  0  0
  1 25  1  0  0  0
  1 30  2  0  0  0
  1 77  1  0  0  0
  2  3  1  0  0  0
  2 25  1  0  0  0
  2 84  1  0  0  0
  2 85  1  0  0  0
  3  4  1  0  0  0
  3 86  1  0  0  0
  3 87  1  0  0  0
  4  5  1  0  0  0
  4 88  1  0  0  0
  4 89  1  0  0  0
  5  6  1  0  0  0
  5 26  1  0  0  0
  5 90  1  0  0  0
  6 25  1  0  0  0
  6 91  1  0  0  0
  6 92  1  0  0  0
  7  8  2  0  0  0
  7 26  1  0  0  0
  7 29  1  0  0  0
  8  9  1  0  0  0
  8 22  1  0  0  0
  9 10  1  0  0  0
  9 27  2  0  0  0
 10 11  2  0  0  0
 10 15  1  0  0  0
 11 12  1  0  0  0
 11 93  1  0  0  0
 12 13  2  0  0  0
 12 94  1  0  0  0
 13 14  1  0  0  0
 13 31  1  0  0  0
 14 15  2  0  0  0
 14 95  1  0  0  0
 15 96  1  0  0  0
 16 17  2  0  0  0
 16 21  1  0  0  0
 16 31  1  0  0  0
 17 18  1  0  0  0
 17 97  1  0  0  0
 18 19  2  0  0  0
 18 98  1  0  0  0
 19 20  1  0  0  0
 19 24  1  0  0  0
 20 21  2  0  0  0
 20 99  1  0  0  0
 21 23  1  0  0  0
 22 28  1  0  0  0
 22 32  2  0  0  0
 26 27  1  0  0  0
 28100  1  0  0  0
 28101  1  0  0  0
 29102  1  0  0  0
 29103  1  0  0  0
 33 34  1  0  0  0
 33 66  1  0  0  0
 33 70  2  0  0  0
 34 36  1  0  0  0
 34 59  1  0  0  0
 34104  1  0  0  0
 35 44  2  0  0  0
 35 45  1  0  0  0
 35 68  1  0  0  0
 36 56  1  0  0  0
 36105  1  0  0  0
 37 39  1  0  0  0
 37 47  1  0  0  0
 37 66  1  0  0  0
 37106  1  0  0  0
 38 43  2  0  0  0
 38 46  1  0  0  0
 38 47  1  0  0  0
 39 64  1  0  0  0
 39 67  2  0  0  0
 40 52  1  0  0  0
 40 53  2  0  0  0
 40 58  1  0  0  0
 41107  1  0  0  0
 41108  1  0  0  0
 41109  1  0  0  0
 41 48  1  0  0  0
 42 43  1  0  0  0
 42 66  1  0  0  0
 42110  1  0  0  0
 42111  1  0  0  0
 43 44  1  0  0  0
 44112  1  0  0  0
 45 46  2  0  0  0
 45113  1  0  0  0
 46114  1  0  0  0
 47115  1  0  0  0
 47116  1  0  0  0
 48 56  1  0  0  0
 48 65  1  0  0  0
 48117  1  0  0  0
 49 50  1  0  0  0
 49 53  1  0  0  0
 49 64  1  0  0  0
 49118  1  0  0  0
 50 51  1  0  0  0
 50119  1  0  0  0
 50120  1  0  0  0
 51 52  1  0  0  0
 51121  1  0  0  0
 51122  1  0  0  0
 52123  1  0  0  0
 52124  1  0  0  0
 53 54  1  0  0  0
 54 55  2  0  0  0
 54125  1  0  0  0
 55 57  1  0  0  0
 55126  1  0  0  0
 56 69  2  0  0  0
 57 58  2  0  0  0
 57127  1  0  0  0
 58128  1  0  0  0
 59 60  1  0  0  0
 59 61  1  0  0  0
 59 62  1  0  0  0
 60129  1  0  0  0
 60130  1  0  0  0
 60131  1  0  0  0
 61132  1  0  0  0
 61133  1  0  0  0
 61134  1  0  0  0
 62135  1  0  0  0
 62136  1  0  0  0
 62137  1  0  0  0
 63 65  1  0  0  0
 63138  1  0  0  0
 63139  1  0  0  0
 63140  1  0  0  0
 64141  1  0  0  0
 65142  1  0  0  0
 68 76  1  0  0  0
 71 72  1  0  0  0
 71 73  2  0  0  0
 71143  1  0  0  0
 72 74  2  0  0  0
 72 83  1  0  0  0
 73 77  1  0  0  0
 73 82  1  0  0  0
 74 78  1  0  0  0
 74 82  1  0  0  0
 75 76  2  0  0  0
 75 79  1  0  0  0
 75144  1  0  0  0
 76145  1  0  0  0
 77 81  2  0  0  0
 78146  1  0  0  0
 78147  1  0  0  0
 78148  1  0  0  0
 79 80  1  0  0  0
 79149  1  0  0  0
 79150  1  0  0  0
 80 83  1  0  0  0
 80151  1  0  0  0
 80152  1  0  0  0
 81153  1  0  0  0
M  ISO  4   1 100  68 101  76 101  77 100
M  END
> <chiral flag>
0

> <version>
0

> <s_m_source_file>
/data/baiqing/PycharmProjects/Reinvent-master-3.2/result/LINK_invent/BTK/process_docking_weight1_custom_product_contain_oxygen_bond_distance_aromatic_linkinvent_7_9_3/rearranged_h_0112.sdf

> <i_m_source_file_index>
22

> <r_mmod_Potential_Energy-OPLS-2005>
121.984603881836

> <r_mmod_Stretch_Energy-OPLS-2005>
58.7281341552734

> <r_mmod_Bend_Energy-OPLS-2005>
125.972076416016

> <r_mmod_Torsional_Energy-OPLS-2005>
209.598419189453

> <r_mmod_Improper_Torsional_Energy-OPLS-2005>
2.71841669082642

> <r_mmod_Van_der_Waal_Energy-OPLS-2005>
131.900955200195

> <r_mmod_Electrostatic_Energy-OPLS-2005>
-236.412551879883

> <r_mmod_Solvation_Energy-OPLS-2005>
-194.451232910156

> <b_mmod_Minimization_Converged-OPLS-2005>
0

> <r_mmod_RMS_Derivative-OPLS-2005>
0.411335796117783

$$$$
23
                    3D
 Structure written by MMmdl.
162170  0  0  1  0            999 V2000
  -30.6608  -14.5702   20.6361 C   0  0  0  0  0  0
  -30.4298  -12.3791   19.4889 C   0  0  0  0  0  0
  -29.5121  -12.5109   18.2526 C   0  0  0  0  0  0
  -28.0310  -12.3591   18.6413 C   0  0  0  0  0  0
  -27.6547  -13.2193   19.8713 C   0  0  2  0  0  0
  -28.6683  -13.0633   21.0202 C   0  0  0  0  0  0
  -25.2563  -13.8192   20.5575 C   0  0  0  0  0  0
  -24.1776  -13.0379   20.9199 C   0  0  0  0  0  0
  -24.6413  -11.6943   20.8795 C   0  0  0  0  0  0
  -23.9118  -10.4289   21.0500 C   0  0  0  0  0  0
  -24.3692   -9.4167   21.9196 C   0  0  0  0  0  0
  -23.6328   -8.2219   22.0730 C   0  0  0  0  0  0
  -22.4323   -8.0286   21.3562 C   0  0  0  0  0  0
  -22.0028   -9.0307   20.4649 C   0  0  0  0  0  0
  -22.7391  -10.2134   20.3079 C   0  0  0  0  0  0
  -21.6904   -6.0770   22.5315 C   0  0  0  0  0  0
  -21.4010   -6.5677   23.8233 C   0  0  0  0  0  0
  -21.3650   -5.6797   24.9200 C   0  0  0  0  0  0
  -21.6022   -4.3073   24.7209 C   0  0  0  0  0  0
  -21.8829   -3.8168   23.4340 C   0  0  0  0  0  0
  -21.9174   -4.7006   22.3401 C   0  0  0  0  0  0
  -22.7848  -13.5254   21.1770 C   0  0  0  0  0  0
  -22.1629   -4.2188   21.0997 F   0  0  0  0  0  0
  -21.5618   -3.4545   25.7732 F   0  0  0  0  0  0
  -30.0051  -13.3914   20.4893 N   0  0  0  0  0  0
  -26.2971  -12.9312   20.3175 N   0  0  0  0  0  0
  -25.9333  -11.6505   20.5667 N   0  0  0  0  0  0
  -22.0471  -12.8294   22.0310 N   0  0  0  0  0  0
  -25.4008  -15.1745   20.4147 N   0  0  0  0  0  0
  -31.8043  -14.7182   20.1963 O   0  0  0  0  0  0
  -21.6710   -6.8890   21.4205 O   0  0  0  0  0  0
  -22.3472  -14.5541   20.6600 O   0  0  0  0  0  0
  -24.6120  -31.8716   23.2088 C   0  0  0  0  0  0
  -25.9128  -32.4815   23.8418 C   0  0  1  0  0  0
  -27.2427  -27.3851   20.0476 C   0  0  0  0  0  0
  -25.5965  -33.8523   24.2261 N   0  0  0  0  0  0
  -23.4159  -30.4714   21.5360 C   0  0  2  0  0  0
  -24.8599  -28.9552   20.1098 C   0  0  0  0  0  0
  -22.7441  -29.4491   22.4722 C   0  0  0  0  0  0
  -18.0158  -28.1470   22.8257 C   0  0  0  0  0  0
  -24.1474  -36.7296   23.2616 C   0  0  0  0  0  0
  -25.9554  -30.8011   21.3770 C   0  0  0  0  0  0
  -26.0246  -29.4320   20.7089 C   0  0  0  0  0  0
  -27.2247  -28.6781   20.6539 C   0  0  0  0  0  0
  -26.0379  -26.9166   19.4981 C   0  0  0  0  0  0
  -24.8585  -27.6942   19.5063 C   0  0  0  0  0  0
  -23.6319  -29.8011   20.1689 C   0  0  0  0  0  0
  -25.4153  -36.3065   24.0309 C   0  0  1  0  0  0
  -20.5772  -28.3949   23.1238 C   0  0  2  0  0  0
  -20.6627  -26.9598   22.5503 C   0  0  0  0  0  0
  -19.5973  -26.6303   21.5088 C   0  0  0  0  0  0
  -18.2044  -26.8032   22.1357 C   0  0  0  0  0  0
  -19.1389  -28.8907   23.2661 C   0  0  0  0  0  0
  -18.9114  -30.1462   23.8752 C   0  0  0  0  0  0
  -17.6161  -30.6747   24.0499 C   0  0  0  0  0  0
  -25.9118  -34.9399   23.5114 C   0  0  0  0  0  0
  -16.5208  -29.9238   23.6256 C   0  0  0  0  0  0
  -16.7155  -28.6625   23.0148 C   0  0  0  0  0  0
  -26.4550  -31.6644   25.0731 C   0  0  0  0  0  0
  -25.3813  -31.3755   26.1453 C   0  0  0  0  0  0
  -27.0290  -30.3063   24.6161 C   0  0  0  0  0  0
  -27.6028  -32.4400   25.7475 C   0  0  0  0  0  0
  -27.5619  -37.1828   24.8464 C   0  0  0  0  0  0
  -21.4182  -29.3076   22.3386 N   0  0  0  0  0  0
  -26.4319  -37.3830   23.9392 N   0  0  0  0  0  0
  -24.6835  -31.0751   22.0972 N   0  0  0  0  0  0
  -23.4079  -28.8000   23.2918 O   0  0  0  0  0  0
  -28.4053  -26.6100   20.1059 O   0  0  0  0  0  0
  -26.5512  -34.8867   22.4593 O   0  0  0  0  0  0
  -23.5306  -32.1314   23.7621 O   0  0  0  0  0  0
  -26.8262  -19.1716   22.1440 C   0  0  0  0  0  0
  -29.3410  -19.5973   21.0357 C   0  0  0  0  0  0
  -27.1639  -20.4665   21.6723 C   0  0  0  0  0  0
  -28.9697  -18.2740   21.4141 C   0  0  0  0  0  0
  -27.7218  -18.0852   22.0671 C   0  0  0  0  0  0
  -28.4768  -20.7306   21.2201 C   0  0  0  0  0  0
  -25.5284  -22.1098   22.6030 C   0  0  0  0  0  0
  -26.1195  -21.4906   21.5672 C   0  0  0  0  0  0
  -29.9131  -17.1055   21.2360 C   0  0  0  0  0  0
  -29.8332  -15.7249   21.0952 C   0  0  0  0  0  0
  -27.2912  -16.7047   22.5904 C   0  0  0  0  0  0
  -28.8468  -22.7625   19.7478 C   0  0  0  0  0  0
  -28.6182  -25.3898   19.3242 C   0  0  0  0  0  0
  -27.9168  -24.0447   19.7482 C   0  0  1  0  0  0
  -28.9079  -22.0734   21.0681 N   0  0  0  0  0  0
  -26.8864  -23.7729   18.8198 O   0  0  0  0  0  0
  -31.4679  -12.4992   19.2049 H   0  0  0  0  0  0
  -30.3462  -11.3648   19.9094 H   0  0  0  0  0  0
  -29.7739  -11.7526   17.5186 H   0  0  0  0  0  0
  -29.6786  -13.4692   17.7691 H   0  0  0  0  0  0
  -27.8518  -11.3079   18.8498 H   0  0  0  0  0  0
  -27.3929  -12.6010   17.7937 H   0  0  0  0  0  0
  -27.6601  -14.2640   19.5512 H   0  0  0  0  0  0
  -28.6762  -12.0602   21.4245 H   0  0  0  0  0  0
  -28.3969  -13.7099   21.8595 H   0  0  0  0  0  0
  -25.2857   -9.5508   22.4839 H   0  0  0  0  0  0
  -23.9994   -7.4614   22.7606 H   0  0  0  0  0  0
  -21.0877   -8.8939   19.9032 H   0  0  0  0  0  0
  -22.3962  -10.9746   19.6169 H   0  0  0  0  0  0
  -21.2036   -7.6188   23.9785 H   0  0  0  0  0  0
  -21.1451   -6.0502   25.9093 H   0  0  0  0  0  0
  -22.0614   -2.7655   23.2830 H   0  0  0  0  0  0
  -22.4134  -11.9947   22.4696 H   0  0  0  0  0  0
  -21.1099  -13.1335   22.2577 H   0  0  0  0  0  0
  -24.6362  -15.8177   20.5963 H   0  0  0  0  0  0
  -26.2708  -15.6429   20.1702 H   0  0  0  0  0  0
  -26.6882  -32.5411   23.0970 H   0  0  0  0  0  0
  -25.0225  -33.9600   25.0458 H   0  0  0  0  0  0
  -22.6992  -31.2913   21.3999 H   0  0  0  0  0  0
  -23.3795  -35.9609   23.3337 H   0  0  0  0  0  0
  -24.3591  -36.8888   22.2014 H   0  0  0  0  0  0
  -23.7150  -37.6509   23.6590 H   0  0  0  0  0  0
  -26.0482  -31.5765   20.6261 H   0  0  0  0  0  0
  -26.8299  -30.8757   22.0032 H   0  0  0  0  0  0
  -28.1374  -29.0672   21.0886 H   0  0  0  0  0  0
  -25.9537  -25.9160   19.1020 H   0  0  0  0  0  0
  -23.9493  -27.2807   19.0796 H   0  0  0  0  0  0
  -23.7765  -30.5791   19.4189 H   0  0  0  0  0  0
  -22.7758  -29.1988   19.8529 H   0  0  0  0  0  0
  -25.1376  -36.2056   25.0800 H   0  0  0  0  0  0
  -20.9729  -28.3623   24.1432 H   0  0  0  0  0  0
  -20.5678  -26.2213   23.3358 H   0  0  0  0  0  0
  -21.6586  -26.8149   22.1494 H   0  0  0  0  0  0
  -19.6679  -25.6214   21.1158 H   0  0  0  0  0  0
  -19.6939  -27.3158   20.6679 H   0  0  0  0  0  0
  -17.4343  -26.6438   21.3737 H   0  0  0  0  0  0
  -18.0385  -26.0343   22.8810 H   0  0  0  0  0  0
  -19.7347  -30.7278   24.2322 H   0  0  0  0  0  0
  -17.4615  -31.6370   24.5472 H   0  0  0  0  0  0
  -15.5257  -30.2781   23.7645 H   0  0  0  0  0  0
  -15.8740  -28.0869   22.6577 H   0  0  0  0  0  0
  -24.6018  -30.7088   25.7735 H   0  0  0  0  0  0
  -24.8903  -32.2860   26.4866 H   0  0  0  0  0  0
  -25.8182  -30.8892   27.0160 H   0  0  0  0  0  0
  -26.2686  -29.6939   24.1205 H   0  0  0  0  0  0
  -27.3953  -29.7320   25.4656 H   0  0  0  0  0  0
  -27.8669  -30.4348   23.9305 H   0  0  0  0  0  0
  -27.2679  -33.3701   26.2073 H   0  0  0  0  0  0
  -28.3916  -32.6996   25.0413 H   0  0  0  0  0  0
  -28.0679  -31.8522   26.5417 H   0  0  0  0  0  0
  -28.2616  -38.0073   24.7594 H   0  0  0  0  0  0
  -28.1074  -36.2666   24.6310 H   0  0  0  0  0  0
  -27.2289  -37.1555   25.8806 H   0  0  0  0  0  0
  -20.9758  -29.8667   21.6204 H   0  0  0  0  0  0
  -26.0269  -38.2912   24.1512 H   0  0  0  0  0  0
  -25.8246  -18.9584   22.4944 H   0  0  0  0  0  0
  -30.3101  -19.7380   20.5723 H   0  0  0  0  0  0
  -24.7767  -22.8525   22.4233 H   0  0  0  0  0  0
  -25.7824  -21.8724   23.6378 H   0  0  0  0  0  0
  -25.7793  -21.6955   20.5464 H   0  0  0  0  0  0
  -30.0356  -17.0725   22.2999 H   0  0  0  0  0  0
  -29.9515  -15.9698   20.0534 H   0  0  0  0  0  0
  -26.2430  -16.6728   22.9082 H   0  0  0  0  0  0
  -27.9073  -16.3378   23.4234 H   0  0  0  0  0  0
  -27.3573  -15.9715   21.7800 H   0  0  0  0  0  0
  -29.8731  -23.0798   19.5102 H   0  0  0  0  0  0
  -28.5693  -22.0811   18.9291 H   0  0  0  0  0  0
  -28.4122  -25.5602   18.2598 H   0  0  0  0  0  0
  -29.7262  -25.2451   19.3226 H   0  0  0  0  0  0
  -27.4154  -24.1358   20.6961 H   0  0  0  0  0  0
  -28.5176  -22.6406   21.8218 H   0  0  0  0  0  0
  -26.5178  -22.9477   19.0451 H   0  0  0  0  0  0
  1 25  1  0  0  0
  1 30  2  0  0  0
  1 80  1  0  0  0
  2  3  1  0  0  0
  2 25  1  0  0  0
  2 87  1  0  0  0
  2 88  1  0  0  0
  3  4  1  0  0  0
  3 89  1  0  0  0
  3 90  1  0  0  0
  4  5  1  0  0  0
  4 91  1  0  0  0
  4 92  1  0  0  0
  5  6  1  0  0  0
  5 26  1  0  0  0
  5 93  1  0  0  0
  6 25  1  0  0  0
  6 94  1  0  0  0
  6 95  1  0  0  0
  7  8  2  0  0  0
  7 26  1  0  0  0
  7 29  1  0  0  0
  8  9  1  0  0  0
  8 22  1  0  0  0
  9 10  1  0  0  0
  9 27  2  0  0  0
 10 11  2  0  0  0
 10 15  1  0  0  0
 11 12  1  0  0  0
 11 96  1  0  0  0
 12 13  2  0  0  0
 12 97  1  0  0  0
 13 14  1  0  0  0
 13 31  1  0  0  0
 14 15  2  0  0  0
 14 98  1  0  0  0
 15 99  1  0  0  0
 16 17  2  0  0  0
 16 21  1  0  0  0
 16 31  1  0  0  0
 17 18  1  0  0  0
 17100  1  0  0  0
 18 19  2  0  0  0
 18101  1  0  0  0
 19 20  1  0  0  0
 19 24  1  0  0  0
 20 21  2  0  0  0
 20102  1  0  0  0
 21 23  1  0  0  0
 22 28  1  0  0  0
 22 32  2  0  0  0
 26 27  1  0  0  0
 28103  1  0  0  0
 28104  1  0  0  0
 29105  1  0  0  0
 29106  1  0  0  0
 33 34  1  0  0  0
 33 66  1  0  0  0
 33 70  2  0  0  0
 34 36  1  0  0  0
 34 59  1  0  0  0
 34107  1  0  0  0
 35 44  2  0  0  0
 35 45  1  0  0  0
 35 68  1  0  0  0
 36 56  1  0  0  0
 36108  1  0  0  0
 37 39  1  0  0  0
 37 47  1  0  0  0
 37 66  1  0  0  0
 37109  1  0  0  0
 38 43  2  0  0  0
 38 46  1  0  0  0
 38 47  1  0  0  0
 39 64  1  0  0  0
 39 67  2  0  0  0
 40 52  1  0  0  0
 40 53  2  0  0  0
 40 58  1  0  0  0
 41110  1  0  0  0
 41111  1  0  0  0
 41112  1  0  0  0
 41 48  1  0  0  0
 42 43  1  0  0  0
 42 66  1  0  0  0
 42113  1  0  0  0
 42114  1  0  0  0
 43 44  1  0  0  0
 44115  1  0  0  0
 45 46  2  0  0  0
 45116  1  0  0  0
 46117  1  0  0  0
 47118  1  0  0  0
 47119  1  0  0  0
 48 56  1  0  0  0
 48 65  1  0  0  0
 48120  1  0  0  0
 49 50  1  0  0  0
 49 53  1  0  0  0
 49 64  1  0  0  0
 49121  1  0  0  0
 50 51  1  0  0  0
 50122  1  0  0  0
 50123  1  0  0  0
 51 52  1  0  0  0
 51124  1  0  0  0
 51125  1  0  0  0
 52126  1  0  0  0
 52127  1  0  0  0
 53 54  1  0  0  0
 54 55  2  0  0  0
 54128  1  0  0  0
 55 57  1  0  0  0
 55129  1  0  0  0
 56 69  2  0  0  0
 57 58  2  0  0  0
 57130  1  0  0  0
 58131  1  0  0  0
 59 60  1  0  0  0
 59 61  1  0  0  0
 59 62  1  0  0  0
 60132  1  0  0  0
 60133  1  0  0  0
 60134  1  0  0  0
 61135  1  0  0  0
 61136  1  0  0  0
 61137  1  0  0  0
 62138  1  0  0  0
 62139  1  0  0  0
 62140  1  0  0  0
 63 65  1  0  0  0
 63141  1  0  0  0
 63142  1  0  0  0
 63143  1  0  0  0
 64144  1  0  0  0
 65145  1  0  0  0
 68 83  1  0  0  0
 71 73  2  0  0  0
 71 75  1  0  0  0
 71146  1  0  0  0
 72 74  1  0  0  0
 72 76  2  0  0  0
 72147  1  0  0  0
 73 76  1  0  0  0
 73 78  1  0  0  0
 74 75  2  0  0  0
 74 79  1  0  0  0
 75 81  1  0  0  0
 76 85  1  0  0  0
 77 78  2  0  0  0
 77148  1  0  0  0
 77149  1  0  0  0
 78150  1  0  0  0
 79 80  2  0  0  0
 79151  1  0  0  0
 80152  1  0  0  0
 81153  1  0  0  0
 81154  1  0  0  0
 81155  1  0  0  0
 82 84  1  0  0  0
 82 85  1  0  0  0
 82156  1  0  0  0
 82157  1  0  0  0
 83 84  1  0  0  0
 83158  1  0  0  0
 83159  1  0  0  0
 84 86  1  0  0  0
 84160  1  0  0  0
 85161  1  0  0  0
 86162  1  0  0  0
M  ISO  4   1 100  68 101  80 100  83 101
M  END
> <chiral flag>
0

> <version>
0

> <s_m_source_file>
/data/baiqing/PycharmProjects/Reinvent-master-3.2/result/LINK_invent/BTK/process_docking_weight1_custom_product_contain_oxygen_bond_distance_aromatic_linkinvent_7_9_3/rearranged_h_0112.sdf

> <i_m_source_file_index>
23

> <r_mmod_Potential_Energy-OPLS-2005>
602.42431640625

> <r_mmod_Stretch_Energy-OPLS-2005>
78.8489685058594

> <r_mmod_Bend_Energy-OPLS-2005>
394.9482421875

> <r_mmod_Torsional_Energy-OPLS-2005>
391.178894042969

> <r_mmod_Improper_Torsional_Energy-OPLS-2005>
110.550033569336

> <r_mmod_Van_der_Waal_Energy-OPLS-2005>
155.15495300293

> <r_mmod_Electrostatic_Energy-OPLS-2005>
-349.317077636719

> <r_mmod_Solvation_Energy-OPLS-2005>
-210.322067260742

> <b_mmod_Minimization_Converged-OPLS-2005>
0

> <r_mmod_RMS_Derivative-OPLS-2005>
17.5750141143799

$$$$
24
                    3D
 Structure written by MMmdl.
165174  0  0  1  0            999 V2000
  -30.6343  -14.6071   20.5137 C   0  0  0  0  0  0
  -30.4433  -12.3610   19.4792 C   0  0  0  0  0  0
  -29.5241  -12.4909   18.2446 C   0  0  0  0  0  0
  -28.0536  -12.3048   18.6589 C   0  0  0  0  0  0
  -27.6619  -13.2073   19.8577 C   0  0  2  0  0  0
  -28.6922  -13.0691   20.9982 C   0  0  0  0  0  0
  -25.2624  -13.8229   20.5511 C   0  0  0  0  0  0
  -24.1848  -13.0516   20.9066 C   0  0  0  0  0  0
  -24.6397  -11.6975   20.8682 C   0  0  0  0  0  0
  -23.9051  -10.4354   21.0386 C   0  0  0  0  0  0
  -24.3623   -9.4287   21.9185 C   0  0  0  0  0  0
  -23.6338   -8.2304   22.0738 C   0  0  0  0  0  0
  -22.4322   -8.0337   21.3526 C   0  0  0  0  0  0
  -21.9928   -9.0291   20.4628 C   0  0  0  0  0  0
  -22.7209  -10.2199   20.3052 C   0  0  0  0  0  0
  -21.6880   -6.0800   22.5274 C   0  0  0  0  0  0
  -21.4036   -6.5679   23.8224 C   0  0  0  0  0  0
  -21.3640   -5.6813   24.9173 C   0  0  0  0  0  0
  -21.6021   -4.3070   24.7199 C   0  0  0  0  0  0
  -21.8833   -3.8190   23.4308 C   0  0  0  0  0  0
  -21.9220   -4.7033   22.3389 C   0  0  0  0  0  0
  -22.7895  -13.5356   21.1786 C   0  0  0  0  0  0
  -22.1698   -4.2241   21.0967 F   0  0  0  0  0  0
  -21.5611   -3.4525   25.7678 F   0  0  0  0  0  0
  -30.0222  -13.3874   20.4503 N   0  0  0  0  0  0
  -26.3012  -12.9339   20.3222 N   0  0  0  0  0  0
  -25.9317  -11.6507   20.5720 N   0  0  0  0  0  0
  -22.0595  -12.8278   22.0340 N   0  0  0  0  0  0
  -25.4472  -15.1943   20.3876 N   0  0  0  0  0  0
  -31.7947  -14.7677   20.1139 O   0  0  0  0  0  0
  -21.6678   -6.8933   21.4229 O   0  0  0  0  0  0
  -22.3530  -14.5659   20.6685 O   0  0  0  0  0  0
  -24.6216  -31.8668   23.1997 C   0  0  0  0  0  0
  -25.9055  -32.4840   23.8312 C   0  0  1  0  0  0
  -27.2302  -27.3476   20.0881 C   0  0  0  0  0  0
  -25.5857  -33.8628   24.2219 N   0  0  0  0  0  0
  -23.4141  -30.4901   21.5512 C   0  0  2  0  0  0
  -24.8572  -28.9450   20.1119 C   0  0  0  0  0  0
  -22.7471  -29.4651   22.4975 C   0  0  0  0  0  0
  -18.0274  -28.1573   22.8518 C   0  0  0  0  0  0
  -24.1475  -36.7295   23.2638 C   0  0  0  0  0  0
  -25.9530  -30.8005   21.3718 C   0  0  0  0  0  0
  -26.0259  -29.4305   20.7096 C   0  0  0  0  0  0
  -27.2130  -28.6434   20.6867 C   0  0  0  0  0  0
  -26.0223  -26.8946   19.5072 C   0  0  0  0  0  0
  -24.8568  -27.6817   19.5052 C   0  0  0  0  0  0
  -23.6220  -29.8226   20.1662 C   0  0  0  0  0  0
  -25.4132  -36.3101   24.0308 C   0  0  1  0  0  0
  -20.5846  -28.3825   23.1490 C   0  0  2  0  0  0
  -20.6677  -26.9434   22.5945 C   0  0  0  0  0  0
  -19.5881  -26.6588   21.5459 C   0  0  0  0  0  0
  -18.1911  -26.8132   22.1639 C   0  0  0  0  0  0
  -19.1536  -28.9028   23.2885 C   0  0  0  0  0  0
  -18.9533  -30.1684   23.8783 C   0  0  0  0  0  0
  -17.6586  -30.6933   24.0392 C   0  0  0  0  0  0
  -25.9079  -34.9491   23.5082 C   0  0  0  0  0  0
  -16.5446  -29.9434   23.6272 C   0  0  0  0  0  0
  -16.7295  -28.6783   23.0388 C   0  0  0  0  0  0
  -26.4443  -31.6623   25.0678 C   0  0  0  0  0  0
  -25.3610  -31.3815   26.1361 C   0  0  0  0  0  0
  -27.0282  -30.3024   24.6168 C   0  0  0  0  0  0
  -27.6013  -32.4321   25.7455 C   0  0  0  0  0  0
  -27.5582  -37.1789   24.8462 C   0  0  0  0  0  0
  -21.4155  -29.3092   22.3804 N   0  0  0  0  0  0
  -26.4312  -37.3801   23.9384 N   0  0  0  0  0  0
  -24.6838  -31.0667   22.0987 N   0  0  0  0  0  0
  -23.4225  -28.8152   23.2979 O   0  0  0  0  0  0
  -28.3891  -26.5579   20.1163 O   0  0  0  0  0  0
  -26.5732  -34.8950   22.4698 O   0  0  0  0  0  0
  -23.5364  -32.1485   23.7285 O   0  0  0  0  0  0
  -29.0450  -17.9079   21.3222 C   0  0  0  0  0  0
  -29.0793  -19.1229   20.5416 C   0  0  0  0  0  0
  -29.7830  -16.9782   20.6196 C   0  0  0  0  0  0
  -28.0755  -22.9993   20.3195 C   0  0  0  0  0  0
  -28.9099  -24.0064   19.9842 C   0  0  0  0  0  0
  -26.1369  -22.6746   18.8624 C   0  0  0  0  0  0
  -26.6477  -22.9906   20.0641 C   0  0  0  0  0  0
  -30.3492  -23.5447   20.1179 C   0  0  0  0  0  0
  -30.2337  -22.0179   20.3940 C   0  0  0  0  0  0
  -27.0915  -20.2236   21.7078 C   0  0  0  0  0  0
  -31.0502  -17.1694   18.3529 C   0  0  0  0  0  0
  -28.5400  -25.3513   19.2838 C   0  0  0  0  0  0
  -28.2027  -20.4125   20.6421 C   0  0  1  0  0  0
  -29.8540  -18.9281   19.4744 N   0  0  0  0  0  0
  -30.2749  -17.6307   19.4910 N   0  0  0  0  0  0
  -29.8502  -15.6344   20.9457 N   0  0  0  0  0  0
  -28.8324  -21.7835   20.8275 N   0  3  2  0  0  0
  -31.4946  -12.4623   19.2007 H   0  0  0  0  0  0
  -30.3552  -11.3737   19.9333 H   0  0  0  0  0  0
  -29.7965  -11.7531   17.4918 H   0  0  0  0  0  0
  -29.6550  -13.4709   17.7827 H   0  0  0  0  0  0
  -27.9275  -11.2588   18.9403 H   0  0  0  0  0  0
  -27.3844  -12.4744   17.8161 H   0  0  0  0  0  0
  -27.6900  -14.2350   19.4909 H   0  0  0  0  0  0
  -28.6790  -12.0560   21.3978 H   0  0  0  0  0  0
  -28.4321  -13.7131   21.8384 H   0  0  0  0  0  0
  -25.2781   -9.5814   22.4733 H   0  0  0  0  0  0
  -24.0113   -7.4676   22.7392 H   0  0  0  0  0  0
  -21.0908   -8.8753   19.8882 H   0  0  0  0  0  0
  -22.3645  -10.9729   19.6166 H   0  0  0  0  0  0
  -21.2032   -7.6194   23.9742 H   0  0  0  0  0  0
  -21.1432   -6.0537   25.9078 H   0  0  0  0  0  0
  -22.0624   -2.7656   23.2754 H   0  0  0  0  0  0
  -22.4285  -11.9900   22.4545 H   0  0  0  0  0  0
  -21.1241  -13.1260   22.2690 H   0  0  0  0  0  0
  -24.6888  -15.8645   20.4483 H   0  0  0  0  0  0
  -26.3179  -15.6075   20.0726 H   0  0  0  0  0  0
  -26.7073  -32.5505   23.1010 H   0  0  0  0  0  0
  -24.9697  -33.9744   25.0152 H   0  0  0  0  0  0
  -22.7085  -31.3127   21.4120 H   0  0  0  0  0  0
  -23.3739  -35.9627   23.3350 H   0  0  0  0  0  0
  -24.3525  -36.8897   22.2032 H   0  0  0  0  0  0
  -23.7237  -37.6516   23.6651 H   0  0  0  0  0  0
  -26.0886  -31.5668   20.6061 H   0  0  0  0  0  0
  -26.8300  -30.8421   22.0057 H   0  0  0  0  0  0
  -28.1126  -29.0287   21.1426 H   0  0  0  0  0  0
  -25.9174  -25.9175   19.0677 H   0  0  0  0  0  0
  -23.9579  -27.2933   19.0451 H   0  0  0  0  0  0
  -23.7341  -30.6017   19.4108 H   0  0  0  0  0  0
  -22.7371  -29.2571   19.8689 H   0  0  0  0  0  0
  -25.1314  -36.1958   25.0809 H   0  0  0  0  0  0
  -20.9756  -28.3687   24.1697 H   0  0  0  0  0  0
  -20.4932  -26.2589   23.4266 H   0  0  0  0  0  0
  -21.6642  -26.7036   22.2218 H   0  0  0  0  0  0
  -19.7113  -25.6510   21.1524 H   0  0  0  0  0  0
  -19.7209  -27.3481   20.7097 H   0  0  0  0  0  0
  -17.4226  -26.6980   21.3985 H   0  0  0  0  0  0
  -18.0198  -26.0262   22.8990 H   0  0  0  0  0  0
  -19.8008  -30.7528   24.2054 H   0  0  0  0  0  0
  -17.5252  -31.6743   24.4783 H   0  0  0  0  0  0
  -15.5491  -30.3468   23.7579 H   0  0  0  0  0  0
  -15.8591  -28.1209   22.7211 H   0  0  0  0  0  0
  -24.5733  -30.7281   25.7605 H   0  0  0  0  0  0
  -24.8864  -32.3018   26.4746 H   0  0  0  0  0  0
  -25.7794  -30.8926   27.0158 H   0  0  0  0  0  0
  -26.2895  -29.6796   24.1131 H   0  0  0  0  0  0
  -27.3887  -29.7254   25.4690 H   0  0  0  0  0  0
  -27.8769  -30.4270   23.9456 H   0  0  0  0  0  0
  -27.2657  -33.3583   26.2120 H   0  0  0  0  0  0
  -28.3791  -32.6975   25.0281 H   0  0  0  0  0  0
  -28.0753  -31.8418   26.5297 H   0  0  0  0  0  0
  -28.2645  -38.0034   24.7517 H   0  0  0  0  0  0
  -28.1004  -36.2587   24.6283 H   0  0  0  0  0  0
  -27.2278  -37.1459   25.8852 H   0  0  0  0  0  0
  -20.9186  -29.9198   21.7456 H   0  0  0  0  0  0
  -26.0187  -38.2881   24.1357 H   0  0  0  0  0  0
  -28.4764  -17.7281   22.2232 H   0  0  0  0  0  0
  -25.0715  -22.6896   18.6848 H   0  0  0  0  0  0
  -26.7685  -22.3859   18.0276 H   0  0  0  0  0  0
  -25.9779  -23.2632   20.8691 H   0  0  0  0  0  0
  -30.8522  -24.0648   20.9328 H   0  0  0  0  0  0
  -30.9015  -23.7193   19.1963 H   0  0  0  0  0  0
  -30.9547  -21.6897   21.1478 H   0  0  0  0  0  0
  -30.4549  -21.4823   19.4692 H   0  0  0  0  0  0
  -26.4676  -19.3555   21.4855 H   0  0  0  0  0  0
  -26.4054  -21.0696   21.7540 H   0  0  0  0  0  0
  -27.5051  -20.1058   22.7055 H   0  0  0  0  0  0
  -32.1104  -17.3534   18.5320 H   0  0  0  0  0  0
  -30.7535  -17.7027   17.4455 H   0  0  0  0  0  0
  -30.8791  -16.1118   18.1628 H   0  0  0  0  0  0
  -27.7038  -25.1450   18.6240 H   0  0  0  0  0  0
  -29.3391  -25.5674   18.5754 H   0  0  0  0  0  0
  -27.6915  -20.4814   19.6832 H   0  0  0  0  0  0
  -29.0380  -15.3052   21.4463 H   0  0  0  0  0  0
  -28.8919  -21.8752   21.8303 H   0  0  0  0  0  0
  1 25  1  0  0  0
  1 30  2  0  0  0
  1 86  1  0  0  0
  2  3  1  0  0  0
  2 25  1  0  0  0
  2 88  1  0  0  0
  2 89  1  0  0  0
  3  4  1  0  0  0
  3 90  1  0  0  0
  3 91  1  0  0  0
  4  5  1  0  0  0
  4 92  1  0  0  0
  4 93  1  0  0  0
  5  6  1  0  0  0
  5 26  1  0  0  0
  5 94  1  0  0  0
  6 25  1  0  0  0
  6 95  1  0  0  0
  6 96  1  0  0  0
  7  8  2  0  0  0
  7 26  1  0  0  0
  7 29  1  0  0  0
  8  9  1  0  0  0
  8 22  1  0  0  0
  9 10  1  0  0  0
  9 27  2  0  0  0
 10 11  2  0  0  0
 10 15  1  0  0  0
 11 12  1  0  0  0
 11 97  1  0  0  0
 12 13  2  0  0  0
 12 98  1  0  0  0
 13 14  1  0  0  0
 13 31  1  0  0  0
 14 15  2  0  0  0
 14 99  1  0  0  0
 15100  1  0  0  0
 16 17  2  0  0  0
 16 21  1  0  0  0
 16 31  1  0  0  0
 17 18  1  0  0  0
 17101  1  0  0  0
 18 19  2  0  0  0
 18102  1  0  0  0
 19 20  1  0  0  0
 19 24  1  0  0  0
 20 21  2  0  0  0
 20103  1  0  0  0
 21 23  1  0  0  0
 22 28  1  0  0  0
 22 32  2  0  0  0
 26 27  1  0  0  0
 28104  1  0  0  0
 28105  1  0  0  0
 29106  1  0  0  0
 29107  1  0  0  0
 33 34  1  0  0  0
 33 66  1  0  0  0
 33 70  2  0  0  0
 34 36  1  0  0  0
 34 59  1  0  0  0
 34108  1  0  0  0
 35 44  2  0  0  0
 35 45  1  0  0  0
 35 68  1  0  0  0
 36 56  1  0  0  0
 36109  1  0  0  0
 37 39  1  0  0  0
 37 47  1  0  0  0
 37 66  1  0  0  0
 37110  1  0  0  0
 38 43  2  0  0  0
 38 46  1  0  0  0
 38 47  1  0  0  0
 39 64  1  0  0  0
 39 67  2  0  0  0
 40 52  1  0  0  0
 40 53  2  0  0  0
 40 58  1  0  0  0
 41111  1  0  0  0
 41112  1  0  0  0
 41113  1  0  0  0
 41 48  1  0  0  0
 42 43  1  0  0  0
 42 66  1  0  0  0
 42114  1  0  0  0
 42115  1  0  0  0
 43 44  1  0  0  0
 44116  1  0  0  0
 45 46  2  0  0  0
 45117  1  0  0  0
 46118  1  0  0  0
 47119  1  0  0  0
 47120  1  0  0  0
 48 56  1  0  0  0
 48 65  1  0  0  0
 48121  1  0  0  0
 49 50  1  0  0  0
 49 53  1  0  0  0
 49 64  1  0  0  0
 49122  1  0  0  0
 50 51  1  0  0  0
 50123  1  0  0  0
 50124  1  0  0  0
 51 52  1  0  0  0
 51125  1  0  0  0
 51126  1  0  0  0
 52127  1  0  0  0
 52128  1  0  0  0
 53 54  1  0  0  0
 54 55  2  0  0  0
 54129  1  0  0  0
 55 57  1  0  0  0
 55130  1  0  0  0
 56 69  2  0  0  0
 57 58  2  0  0  0
 57131  1  0  0  0
 58132  1  0  0  0
 59 60  1  0  0  0
 59 61  1  0  0  0
 59 62  1  0  0  0
 60133  1  0  0  0
 60134  1  0  0  0
 60135  1  0  0  0
 61136  1  0  0  0
 61137  1  0  0  0
 61138  1  0  0  0
 62139  1  0  0  0
 62140  1  0  0  0
 62141  1  0  0  0
 63 65  1  0  0  0
 63142  1  0  0  0
 63143  1  0  0  0
 63144  1  0  0  0
 64145  1  0  0  0
 65146  1  0  0  0
 68 82  1  0  0  0
 71 72  1  0  0  0
 71 73  2  0  0  0
 71147  1  0  0  0
 72 83  1  0  0  0
 72 84  2  0  0  0
 73 85  1  0  0  0
 73 86  1  0  0  0
 74 75  2  0  0  0
 74 77  1  0  0  0
 74 87  1  0  0  0
 75 78  1  0  0  0
 75 82  1  0  0  0
 76 77  2  0  0  0
 76148  1  0  0  0
 76149  1  0  0  0
 77150  1  0  0  0
 78 79  1  0  0  0
 78151  1  0  0  0
 78152  1  0  0  0
 79153  1  0  0  0
 79154  1  0  0  0
 79 87  1  0  0  0
 80155  1  0  0  0
 80156  1  0  0  0
 80157  1  0  0  0
 80 83  1  0  0  0
 81 85  1  0  0  0
 81158  1  0  0  0
 81159  1  0  0  0
 81160  1  0  0  0
 82161  1  0  0  0
 82162  1  0  0  0
 83 87  1  0  0  0
 83163  1  0  0  0
 84 85  1  0  0  0
 86164  1  0  0  0
 87165  1  0  0  0
M  CHG  1  87   1
M  ISO  4   1 100  68 101  82 101  86 100
M  END
> <chiral flag>
0

> <version>
0

> <s_m_source_file>
/data/baiqing/PycharmProjects/Reinvent-master-3.2/result/LINK_invent/BTK/process_docking_weight1_custom_product_contain_oxygen_bond_distance_aromatic_linkinvent_7_9_3/rearranged_h_0112.sdf

> <i_m_source_file_index>
24

> <r_mmod_Potential_Energy-OPLS-2005>
-116.289176940918

> <r_mmod_Stretch_Energy-OPLS-2005>
64.8958511352539

> <r_mmod_Bend_Energy-OPLS-2005>
210.785598754883

> <r_mmod_Torsional_Energy-OPLS-2005>
259.917877197266

> <r_mmod_Improper_Torsional_Energy-OPLS-2005>
6.11758470535278

> <r_mmod_Van_der_Waal_Energy-OPLS-2005>
125.249992370605

> <r_mmod_Electrostatic_Energy-OPLS-2005>
-392.998443603516

> <r_mmod_Solvation_Energy-OPLS-2005>
-429.524444580078

> <b_mmod_Minimization_Converged-OPLS-2005>
0

> <r_mmod_RMS_Derivative-OPLS-2005>
7.94710683822632

$$$$
25
                    3D
 Structure written by MMmdl.
173181  0  0  1  0            999 V2000
  -30.7672  -14.4299   20.6528 C   0  0  0  0  0  0
  -30.4160  -12.3139   19.4268 C   0  0  0  0  0  0
  -29.4840  -12.4922   18.2134 C   0  0  0  0  0  0
  -28.0133  -12.3444   18.6408 C   0  0  0  0  0  0
  -27.6591  -13.2059   19.8802 C   0  0  2  0  0  0
  -28.6998  -13.0159   21.0063 C   0  0  0  0  0  0
  -25.2577  -13.8173   20.5709 C   0  0  0  0  0  0
  -24.1822  -13.0455   20.9190 C   0  0  0  0  0  0
  -24.6369  -11.6918   20.8765 C   0  0  0  0  0  0
  -23.9047  -10.4303   21.0425 C   0  0  0  0  0  0
  -24.3604   -9.4204   21.9196 C   0  0  0  0  0  0
  -23.6285   -8.2239   22.0756 C   0  0  0  0  0  0
  -22.4268   -8.0278   21.3552 C   0  0  0  0  0  0
  -21.9908   -9.0247   20.4650 C   0  0  0  0  0  0
  -22.7224  -10.2136   20.3068 C   0  0  0  0  0  0
  -21.6845   -6.0746   22.5277 C   0  0  0  0  0  0
  -21.4001   -6.5647   23.8210 C   0  0  0  0  0  0
  -21.3651   -5.6798   24.9171 C   0  0  0  0  0  0
  -21.6045   -4.3062   24.7220 C   0  0  0  0  0  0
  -21.8819   -3.8157   23.4337 C   0  0  0  0  0  0
  -21.9184   -4.6975   22.3394 C   0  0  0  0  0  0
  -22.7841  -13.5246   21.1838 C   0  0  0  0  0  0
  -22.1659   -4.2158   21.0973 F   0  0  0  0  0  0
  -21.5629   -3.4539   25.7735 F   0  0  0  0  0  0
  -30.0360  -13.2996   20.4550 N   0  0  0  0  0  0
  -26.3005  -12.9342   20.3436 N   0  0  0  0  0  0
  -25.9298  -11.6502   20.5834 N   0  0  0  0  0  0
  -22.0480  -12.8249   22.0392 N   0  0  0  0  0  0
  -25.4367  -15.1893   20.4135 N   0  0  0  0  0  0
  -31.8374  -14.6288   20.0727 O   0  0  0  0  0  0
  -21.6627   -6.8875   21.4247 O   0  0  0  0  0  0
  -22.3541  -14.5564   20.6691 O   0  0  0  0  0  0
  -24.6087  -31.8727   23.2142 C   0  0  0  0  0  0
  -25.8989  -32.4864   23.8411 C   0  0  1  0  0  0
  -27.2208  -27.4298   20.1167 C   0  0  0  0  0  0
  -25.5830  -33.8653   24.2334 N   0  0  0  0  0  0
  -23.3983  -30.4922   21.5569 C   0  0  2  0  0  0
  -24.8475  -28.9610   20.1162 C   0  0  0  0  0  0
  -22.7396  -29.4619   22.5038 C   0  0  0  0  0  0
  -18.0247  -28.1305   22.8520 C   0  0  0  0  0  0
  -24.1486  -36.7334   23.2625 C   0  0  0  0  0  0
  -25.9262  -30.8304   21.3732 C   0  0  0  0  0  0
  -26.0023  -29.4614   20.7324 C   0  0  0  0  0  0
  -27.1913  -28.6950   20.7498 C   0  0  0  0  0  0
  -26.0626  -26.9567   19.4724 C   0  0  0  0  0  0
  -24.8692  -27.7047   19.4856 C   0  0  0  0  0  0
  -23.6090  -29.8292   20.1684 C   0  0  0  0  0  0
  -25.4092  -36.3139   24.0352 C   0  0  1  0  0  0
  -20.5857  -28.3583   23.1349 C   0  0  2  0  0  0
  -20.6744  -26.9335   22.5405 C   0  0  0  0  0  0
  -19.5711  -26.6379   21.5191 C   0  0  0  0  0  0
  -18.1893  -26.7871   22.1617 C   0  0  0  0  0  0
  -19.1510  -28.8772   23.2920 C   0  0  0  0  0  0
  -18.9429  -30.1384   23.8920 C   0  0  0  0  0  0
  -17.6440  -30.6534   24.0540 C   0  0  0  0  0  0
  -25.9020  -34.9506   23.5159 C   0  0  0  0  0  0
  -16.5333  -29.9025   23.6316 C   0  0  0  0  0  0
  -16.7245  -28.6426   23.0380 C   0  0  0  0  0  0
  -26.4372  -31.6629   25.0730 C   0  0  0  0  0  0
  -25.3596  -31.3775   26.1463 C   0  0  0  0  0  0
  -27.0166  -30.3062   24.6082 C   0  0  0  0  0  0
  -27.5968  -32.4327   25.7457 C   0  0  0  0  0  0
  -27.5606  -37.1790   24.8432 C   0  0  0  0  0  0
  -21.4128  -29.2972   22.3783 N   0  0  0  0  0  0
  -26.4288  -37.3826   23.9432 N   0  0  0  0  0  0
  -24.6606  -31.0811   22.1060 N   0  0  0  0  0  0
  -23.4196  -28.8155   23.3048 O   0  0  0  0  0  0
  -28.3453  -26.6435   20.0349 O   0  0  0  0  0  0
  -26.5626  -34.8962   22.4744 O   0  0  0  0  0  0
  -23.5278  -32.1482   23.7542 O   0  0  0  0  0  0
  -30.8451  -18.7919   23.0001 C   0  0  0  0  0  0
  -28.7708  -19.6587   21.2892 C   0  0  0  0  0  0
  -30.3145  -17.8787   22.0712 C   0  0  0  0  0  0
  -30.3822  -20.1161   23.0667 C   0  0  0  0  0  0
  -29.2698  -18.3159   21.2122 C   0  0  0  0  0  0
  -29.3455  -20.5802   22.2260 C   0  0  0  0  0  0
  -27.6844  -20.0837   20.3880 C   0  0  0  0  0  0
  -26.5451  -19.4057   20.1670 C   0  0  0  0  0  0
  -25.4337  -19.8847   19.2607 C   0  0  0  0  0  0
  -28.6401  -16.6193   18.0253 C   0  0  0  0  0  0
  -31.0190  -16.5115   21.9938 C   0  0  0  0  0  0
  -28.2092  -25.0967   22.0186 C   0  0  0  0  0  0
  -27.9764  -23.7752   21.2441 C   0  0  0  0  0  0
  -29.2513  -17.6652   18.9560 C   0  0  0  0  0  0
  -28.9551  -26.2198   21.2553 C   0  0  0  0  0  0
  -27.7847  -22.5472   22.1719 C   0  0  0  0  0  0
  -30.9679  -20.9938   23.9794 N   0  0  0  0  0  0
  -30.2745  -15.3317   21.5233 N   0  0  0  0  0  0
  -28.7760  -17.4371   20.2779 O   0  0  0  0  0  0
  -29.0605  -21.9360   22.3948 O   0  0  0  0  0  0
  -31.4564  -12.4067   19.1109 H   0  0  0  0  0  0
  -30.3275  -11.3067   19.8361 H   0  0  0  0  0  0
  -29.7214  -11.7519   17.4476 H   0  0  0  0  0  0
  -29.6441  -13.4680   17.7561 H   0  0  0  0  0  0
  -27.8466  -11.2910   18.8729 H   0  0  0  0  0  0
  -27.3484  -12.5811   17.8104 H   0  0  0  0  0  0
  -27.6916  -14.2483   19.5688 H   0  0  0  0  0  0
  -28.6728  -11.9931   21.3825 H   0  0  0  0  0  0
  -28.4466  -13.6468   21.8595 H   0  0  0  0  0  0
  -25.2737   -9.5681   22.4778 H   0  0  0  0  0  0
  -23.9986   -7.4629   22.7474 H   0  0  0  0  0  0
  -21.0835   -8.8759   19.8952 H   0  0  0  0  0  0
  -22.3665  -10.9684   19.6183 H   0  0  0  0  0  0
  -21.1993   -7.6150   23.9714 H   0  0  0  0  0  0
  -21.1478   -6.0527   25.9072 H   0  0  0  0  0  0
  -22.0609   -2.7620   23.2829 H   0  0  0  0  0  0
  -22.4075  -11.9889   22.4773 H   0  0  0  0  0  0
  -21.1107  -13.1300   22.2609 H   0  0  0  0  0  0
  -24.6847  -15.8575   20.5342 H   0  0  0  0  0  0
  -26.3114  -15.6203   20.1426 H   0  0  0  0  0  0
  -26.7053  -32.5590   23.1173 H   0  0  0  0  0  0
  -24.9912  -33.9779   25.0432 H   0  0  0  0  0  0
  -22.6845  -31.3067   21.4229 H   0  0  0  0  0  0
  -23.3787  -35.9623   23.3219 H   0  0  0  0  0  0
  -24.3584  -36.9000   22.2052 H   0  0  0  0  0  0
  -23.7197  -37.6495   23.6686 H   0  0  0  0  0  0
  -26.0409  -31.5926   20.6011 H   0  0  0  0  0  0
  -26.8129  -30.8874   21.9933 H   0  0  0  0  0  0
  -28.0807  -29.0739   21.2322 H   0  0  0  0  0  0
  -26.0866  -26.0069   18.9560 H   0  0  0  0  0  0
  -23.9864  -27.3176   18.9934 H   0  0  0  0  0  0
  -23.7034  -30.6051   19.4081 H   0  0  0  0  0  0
  -22.7333  -29.2438   19.8828 H   0  0  0  0  0  0
  -25.1260  -36.2002   25.0854 H   0  0  0  0  0  0
  -20.9939  -28.3113   24.1467 H   0  0  0  0  0  0
  -20.5658  -26.2159   23.3547 H   0  0  0  0  0  0
  -21.6602  -26.7386   22.1174 H   0  0  0  0  0  0
  -19.6877  -25.6316   21.1134 H   0  0  0  0  0  0
  -19.6655  -27.3251   20.6772 H   0  0  0  0  0  0
  -17.4173  -26.6650   21.4006 H   0  0  0  0  0  0
  -18.0263  -25.9979   22.8977 H   0  0  0  0  0  0
  -19.7921  -30.7160   24.2344 H   0  0  0  0  0  0
  -17.4993  -31.6234   24.5074 H   0  0  0  0  0  0
  -15.5319  -30.2904   23.7651 H   0  0  0  0  0  0
  -15.8646  -28.0716   22.7136 H   0  0  0  0  0  0
  -24.5793  -30.7079   25.7806 H   0  0  0  0  0  0
  -24.8724  -32.2941   26.4813 H   0  0  0  0  0  0
  -25.7889  -30.9028   27.0296 H   0  0  0  0  0  0
  -26.2735  -29.6921   24.0979 H   0  0  0  0  0  0
  -27.3730  -29.7183   25.4538 H   0  0  0  0  0  0
  -27.8659  -30.4339   23.9361 H   0  0  0  0  0  0
  -27.2624  -33.3663   26.1991 H   0  0  0  0  0  0
  -28.3774  -32.6821   25.0259 H   0  0  0  0  0  0
  -28.0620  -31.8466   26.5381 H   0  0  0  0  0  0
  -28.2542  -38.0177   24.7641 H   0  0  0  0  0  0
  -28.1200  -36.2727   24.6065 H   0  0  0  0  0  0
  -27.2347  -37.1183   25.8829 H   0  0  0  0  0  0
  -20.9279  -29.8744   21.7060 H   0  0  0  0  0  0
  -26.0194  -38.2900   24.1501 H   0  0  0  0  0  0
  -31.6555  -18.4758   23.6430 H   0  0  0  0  0  0
  -27.8465  -21.0191   19.8726 H   0  0  0  0  0  0
  -26.3770  -18.4656   20.6751 H   0  0  0  0  0  0
  -25.7288  -20.7796   18.7109 H   0  0  0  0  0  0
  -24.5490  -20.1246   19.8526 H   0  0  0  0  0  0
  -25.1599  -19.1119   18.5428 H   0  0  0  0  0  0
  -28.9666  -16.7809   16.9989 H   0  0  0  0  0  0
  -27.5494  -16.6593   18.0402 H   0  0  0  0  0  0
  -28.9506  -15.6175   18.3134 H   0  0  0  0  0  0
  -31.3978  -16.2655   22.9873 H   0  0  0  0  0  0
  -31.9157  -16.6772   21.3909 H   0  0  0  0  0  0
  -28.8034  -24.8682   22.9050 H   0  0  0  0  0  0
  -27.2573  -25.4685   22.3965 H   0  0  0  0  0  0
  -28.8039  -23.5827   20.5606 H   0  0  0  0  0  0
  -27.0962  -23.8992   20.6106 H   0  0  0  0  0  0
  -28.9839  -18.6588   18.6004 H   0  0  0  0  0  0
  -30.3394  -17.6001   18.9329 H   0  0  0  0  0  0
  -29.9489  -25.8539   20.9972 H   0  0  0  0  0  0
  -29.1173  -27.0692   21.9196 H   0  0  0  0  0  0
  -26.9994  -21.8901   21.8171 H   0  0  0  0  0  0
  -27.4092  -22.8778   23.1401 H   0  0  0  0  0  0
  -31.2935  -20.6095   24.8596 H   0  0  0  0  0  0
  -30.4707  -21.8716   24.0997 H   0  0  0  0  0  0
  -29.3855  -15.1367   21.9581 H   0  0  0  0  0  0
  1 25  1  0  0  0
  1 30  2  0  0  0
  1 88  1  0  0  0
  2  3  1  0  0  0
  2 25  1  0  0  0
  2 91  1  0  0  0
  2 92  1  0  0  0
  3  4  1  0  0  0
  3 93  1  0  0  0
  3 94  1  0  0  0
  4  5  1  0  0  0
  4 95  1  0  0  0
  4 96  1  0  0  0
  5  6  1  0  0  0
  5 26  1  0  0  0
  5 97  1  0  0  0
  6 25  1  0  0  0
  6 98  1  0  0  0
  6 99  1  0  0  0
  7  8  2  0  0  0
  7 26  1  0  0  0
  7 29  1  0  0  0
  8  9  1  0  0  0
  8 22  1  0  0  0
  9 10  1  0  0  0
  9 27  2  0  0  0
 10 11  2  0  0  0
 10 15  1  0  0  0
 11 12  1  0  0  0
 11100  1  0  0  0
 12 13  2  0  0  0
 12101  1  0  0  0
 13 14  1  0  0  0
 13 31  1  0  0  0
 14 15  2  0  0  0
 14102  1  0  0  0
 15103  1  0  0  0
 16 17  2  0  0  0
 16 21  1  0  0  0
 16 31  1  0  0  0
 17 18  1  0  0  0
 17104  1  0  0  0
 18 19  2  0  0  0
 18105  1  0  0  0
 19 20  1  0  0  0
 19 24  1  0  0  0
 20 21  2  0  0  0
 20106  1  0  0  0
 21 23  1  0  0  0
 22 28  1  0  0  0
 22 32  2  0  0  0
 26 27  1  0  0  0
 28107  1  0  0  0
 28108  1  0  0  0
 29109  1  0  0  0
 29110  1  0  0  0
 33 34  1  0  0  0
 33 66  1  0  0  0
 33 70  2  0  0  0
 34 36  1  0  0  0
 34 59  1  0  0  0
 34111  1  0  0  0
 35 44  2  0  0  0
 35 45  1  0  0  0
 35 68  1  0  0  0
 36 56  1  0  0  0
 36112  1  0  0  0
 37 39  1  0  0  0
 37 47  1  0  0  0
 37 66  1  0  0  0
 37113  1  0  0  0
 38 43  2  0  0  0
 38 46  1  0  0  0
 38 47  1  0  0  0
 39 64  1  0  0  0
 39 67  2  0  0  0
 40 52  1  0  0  0
 40 53  2  0  0  0
 40 58  1  0  0  0
 41114  1  0  0  0
 41115  1  0  0  0
 41116  1  0  0  0
 41 48  1  0  0  0
 42 43  1  0  0  0
 42 66  1  0  0  0
 42117  1  0  0  0
 42118  1  0  0  0
 43 44  1  0  0  0
 44119  1  0  0  0
 45 46  2  0  0  0
 45120  1  0  0  0
 46121  1  0  0  0
 47122  1  0  0  0
 47123  1  0  0  0
 48 56  1  0  0  0
 48 65  1  0  0  0
 48124  1  0  0  0
 49 50  1  0  0  0
 49 53  1  0  0  0
 49 64  1  0  0  0
 49125  1  0  0  0
 50 51  1  0  0  0
 50126  1  0  0  0
 50127  1  0  0  0
 51 52  1  0  0  0
 51128  1  0  0  0
 51129  1  0  0  0
 52130  1  0  0  0
 52131  1  0  0  0
 53 54  1  0  0  0
 54 55  2  0  0  0
 54132  1  0  0  0
 55 57  1  0  0  0
 55133  1  0  0  0
 56 69  2  0  0  0
 57 58  2  0  0  0
 57134  1  0  0  0
 58135  1  0  0  0
 59 60  1  0  0  0
 59 61  1  0  0  0
 59 62  1  0  0  0
 60136  1  0  0  0
 60137  1  0  0  0
 60138  1  0  0  0
 61139  1  0  0  0
 61140  1  0  0  0
 61141  1  0  0  0
 62142  1  0  0  0
 62143  1  0  0  0
 62144  1  0  0  0
 63 65  1  0  0  0
 63145  1  0  0  0
 63146  1  0  0  0
 63147  1  0  0  0
 64148  1  0  0  0
 65149  1  0  0  0
 68 85  1  0  0  0
 71 73  2  0  0  0
 71 74  1  0  0  0
 71150  1  0  0  0
 72 75  2  0  0  0
 72 76  1  0  0  0
 72 77  1  0  0  0
 73 75  1  0  0  0
 73 81  1  0  0  0
 74 76  2  0  0  0
 74 87  1  0  0  0
 75 89  1  0  0  0
 76 90  1  0  0  0
 77 78  2  0  0  0
 77151  1  0  0  0
 78 79  1  0  0  0
 78152  1  0  0  0
 79153  1  0  0  0
 79154  1  0  0  0
 79155  1  0  0  0
 80 84  1  0  0  0
 80156  1  0  0  0
 80157  1  0  0  0
 80158  1  0  0  0
 81 88  1  0  0  0
 81159  1  0  0  0
 81160  1  0  0  0
 82 83  1  0  0  0
 82 85  1  0  0  0
 82161  1  0  0  0
 82162  1  0  0  0
 83 86  1  0  0  0
 83163  1  0  0  0
 83164  1  0  0  0
 84 89  1  0  0  0
 84165  1  0  0  0
 84166  1  0  0  0
 85167  1  0  0  0
 85168  1  0  0  0
 86 90  1  0  0  0
 86169  1  0  0  0
 86170  1  0  0  0
 87171  1  0  0  0
 87172  1  0  0  0
 88173  1  0  0  0
M  ISO  4   1 100  68 101  85 101  88 100
M  END
> <chiral flag>
0

> <version>
0

> <s_m_source_file>
/data/baiqing/PycharmProjects/Reinvent-master-3.2/result/LINK_invent/BTK/process_docking_weight1_custom_product_contain_oxygen_bond_distance_aromatic_linkinvent_7_9_3/rearranged_h_0112.sdf

> <i_m_source_file_index>
25

> <r_mmod_Potential_Energy-OPLS-2005>
-33.9146842956543

> <r_mmod_Stretch_Energy-OPLS-2005>
42.5444107055664

> <r_mmod_Bend_Energy-OPLS-2005>
139.759918212891

> <r_mmod_Torsional_Energy-OPLS-2005>
283.090362548828

> <r_mmod_Improper_Torsional_Energy-OPLS-2005>
6.39297294616699

> <r_mmod_Van_der_Waal_Energy-OPLS-2005>
146.526092529297

> <r_mmod_Electrostatic_Energy-OPLS-2005>
-457.135833740234

> <r_mmod_Solvation_Energy-OPLS-2005>
-207.176498413086

> <b_mmod_Minimization_Converged-OPLS-2005>
0

> <r_mmod_RMS_Derivative-OPLS-2005>
3.41074323654175

$$$$
26
                    3D
 Structure written by MMmdl.
172181  0  0  1  0            999 V2000
  -30.6834  -14.6344   20.4756 C   0  0  0  0  0  0
  -30.4182  -12.3885   19.4640 C   0  0  0  0  0  0
  -29.4992  -12.4859   18.2291 C   0  0  0  0  0  0
  -28.0292  -12.3177   18.6535 C   0  0  0  0  0  0
  -27.6452  -13.2262   19.8517 C   0  0  2  0  0  0
  -28.6893  -13.1450   20.9880 C   0  0  0  0  0  0
  -25.2527  -13.8202   20.5685 C   0  0  0  0  0  0
  -24.1812  -13.0453   20.9203 C   0  0  0  0  0  0
  -24.6393  -11.6927   20.8754 C   0  0  0  0  0  0
  -23.9071  -10.4302   21.0411 C   0  0  0  0  0  0
  -24.3621   -9.4215   21.9187 C   0  0  0  0  0  0
  -23.6296   -8.2250   22.0756 C   0  0  0  0  0  0
  -22.4279   -8.0287   21.3545 C   0  0  0  0  0  0
  -21.9915   -9.0262   20.4647 C   0  0  0  0  0  0
  -22.7245  -10.2142   20.3058 C   0  0  0  0  0  0
  -21.6854   -6.0739   22.5278 C   0  0  0  0  0  0
  -21.4016   -6.5642   23.8213 C   0  0  0  0  0  0
  -21.3659   -5.6793   24.9174 C   0  0  0  0  0  0
  -21.6043   -4.3056   24.7222 C   0  0  0  0  0  0
  -21.8820   -3.8148   23.4343 C   0  0  0  0  0  0
  -21.9194   -4.6966   22.3400 C   0  0  0  0  0  0
  -22.7833  -13.5236   21.1859 C   0  0  0  0  0  0
  -22.1662   -4.2153   21.0977 F   0  0  0  0  0  0
  -21.5627   -3.4538   25.7735 F   0  0  0  0  0  0
  -30.0021  -13.4483   20.4068 N   0  0  0  0  0  0
  -26.2954  -12.9404   20.3287 N   0  0  0  0  0  0
  -25.9322  -11.6551   20.5766 N   0  0  0  0  0  0
  -22.0478  -12.8224   22.0412 N   0  0  0  0  0  0
  -25.4216  -15.1922   20.4086 N   0  0  0  0  0  0
  -31.8668  -14.6948   20.1359 O   0  0  0  0  0  0
  -21.6642   -6.8884   21.4240 O   0  0  0  0  0  0
  -22.3515  -14.5538   20.6703 O   0  0  0  0  0  0
  -24.6253  -31.8607   23.2048 C   0  0  0  0  0  0
  -25.9109  -32.4781   23.8365 C   0  0  1  0  0  0
  -27.2156  -27.3182   20.1176 C   0  0  0  0  0  0
  -25.5925  -33.8583   24.2290 N   0  0  0  0  0  0
  -23.4184  -30.4855   21.5474 C   0  0  2  0  0  0
  -24.8638  -28.9461   20.1083 C   0  0  0  0  0  0
  -22.7472  -29.4624   22.4942 C   0  0  0  0  0  0
  -18.0283  -28.1382   22.8484 C   0  0  0  0  0  0
  -24.1490  -36.7293   23.2636 C   0  0  0  0  0  0
  -25.9594  -30.7902   21.3782 C   0  0  0  0  0  0
  -26.0317  -29.4185   20.7198 C   0  0  0  0  0  0
  -27.2093  -28.6136   20.7203 C   0  0  0  0  0  0
  -26.0331  -26.9164   19.4527 C   0  0  0  0  0  0
  -24.8665  -27.7005   19.4655 C   0  0  0  0  0  0
  -23.6322  -29.8249   20.1607 C   0  0  0  0  0  0
  -25.4114  -36.3086   24.0326 C   0  0  1  0  0  0
  -20.5883  -28.3688   23.1280 C   0  0  2  0  0  0
  -20.6776  -26.9412   22.5406 C   0  0  0  0  0  0
  -19.5751  -26.6384   21.5206 C   0  0  0  0  0  0
  -18.1930  -26.7927   22.1619 C   0  0  0  0  0  0
  -19.1535  -28.8850   23.2878 C   0  0  0  0  0  0
  -18.9463  -30.1453   23.8897 C   0  0  0  0  0  0
  -17.6464  -30.6589   24.0560 C   0  0  0  0  0  0
  -25.9048  -34.9453   23.5108 C   0  0  0  0  0  0
  -16.5354  -29.9086   23.6329 C   0  0  0  0  0  0
  -16.7271  -28.6502   23.0352 C   0  0  0  0  0  0
  -26.4498  -31.6584   25.0730 C   0  0  0  0  0  0
  -25.3733  -31.3718   26.1458 C   0  0  0  0  0  0
  -27.0339  -30.3006   24.6178 C   0  0  0  0  0  0
  -27.6061  -32.4315   25.7499 C   0  0  0  0  0  0
  -27.5582  -37.1799   24.8463 C   0  0  0  0  0  0
  -21.4186  -29.3043   22.3682 N   0  0  0  0  0  0
  -26.4294  -37.3778   23.9407 N   0  0  0  0  0  0
  -24.6863  -31.0622   22.1000 N   0  0  0  0  0  0
  -23.4198  -28.8157   23.3014 O   0  0  0  0  0  0
  -28.3238  -26.4575   20.1961 O   0  0  0  0  0  0
  -26.5618  -34.8918   22.4676 O   0  0  0  0  0  0
  -23.5421  -32.1405   23.7382 O   0  0  0  0  0  0
  -30.3981  -19.4631   21.5785 C   0  0  0  0  0  0
  -29.9390  -20.8060   21.6694 C   0  0  0  0  0  0
  -28.3776  -20.3667   19.8929 C   0  0  0  0  0  0
  -28.8573  -19.0177   19.7655 C   0  0  0  0  0  0
  -29.8811  -18.5314   20.6371 C   0  0  0  0  0  0
  -28.9033  -21.2924   20.8353 C   0  0  0  0  0  0
  -27.3661  -22.6408   22.0677 C   0  0  0  0  0  0
  -28.3666  -18.1563   18.6688 C   0  0  0  0  0  0
  -27.6856  -18.5767   17.5822 C   0  0  0  0  0  0
  -27.2371  -17.6938   16.4857 C   0  0  0  0  0  0
  -27.4788  -23.9108   22.8950 C   0  0  0  0  0  0
  -28.8114  -24.4817   22.4146 C   0  0  0  0  0  0
  -28.9127  -23.9689   20.9712 C   0  0  2  0  0  0
  -26.9330  -18.3845   15.1639 C   0  0  0  0  0  0
  -26.7010  -14.3808   15.7520 C   0  0  0  0  0  0
  -30.6207  -17.1490   20.4703 C   0  0  0  0  0  0
  -28.1097  -24.9938   20.0442 C   0  0  0  0  0  0
  -27.1181  -16.4354   16.6538 N   0  0  0  0  0  0
  -28.2823  -22.5976   21.0775 N   0  0  0  0  0  0
  -29.9927  -15.7990   20.6979 N   0  0  0  0  0  0
  -26.5219  -21.7747   22.3174 O   0  0  0  0  0  0
  -26.6809  -15.7752   15.4958 O   0  0  0  0  0  0
  -31.4629  -12.4771   19.1617 H   0  0  0  0  0  0
  -30.3290  -11.4088   19.9362 H   0  0  0  0  0  0
  -29.7667  -11.7213   17.4986 H   0  0  0  0  0  0
  -29.6372  -13.4484   17.7337 H   0  0  0  0  0  0
  -27.8901  -11.2714   18.9277 H   0  0  0  0  0  0
  -27.3626  -12.4936   17.8109 H   0  0  0  0  0  0
  -27.6485  -14.2485   19.4717 H   0  0  0  0  0  0
  -28.6981  -12.1517   21.4389 H   0  0  0  0  0  0
  -28.4433  -13.8433   21.7894 H   0  0  0  0  0  0
  -25.2765   -9.5691   22.4763 H   0  0  0  0  0  0
  -24.0003   -7.4642   22.7478 H   0  0  0  0  0  0
  -21.0847   -8.8782   19.8951 H   0  0  0  0  0  0
  -22.3704  -10.9681   19.6167 H   0  0  0  0  0  0
  -21.2010   -7.6151   23.9717 H   0  0  0  0  0  0
  -21.1479   -6.0523   25.9077 H   0  0  0  0  0  0
  -22.0599   -2.7612   23.2841 H   0  0  0  0  0  0
  -22.4092  -11.9885   22.4799 H   0  0  0  0  0  0
  -21.1096  -13.1250   22.2615 H   0  0  0  0  0  0
  -24.6492  -15.8411   20.5101 H   0  0  0  0  0  0
  -26.2591  -15.6295   20.0472 H   0  0  0  0  0  0
  -26.7175  -32.5453   23.1112 H   0  0  0  0  0  0
  -25.0072  -33.9725   25.0435 H   0  0  0  0  0  0
  -22.7117  -31.3062   21.4076 H   0  0  0  0  0  0
  -23.3752  -35.9625   23.3297 H   0  0  0  0  0  0
  -24.3585  -36.8917   22.2053 H   0  0  0  0  0  0
  -23.7240  -37.6491   23.6662 H   0  0  0  0  0  0
  -26.0916  -31.5546   20.6111 H   0  0  0  0  0  0
  -26.8393  -30.8371   22.0078 H   0  0  0  0  0  0
  -28.1021  -28.9653   21.2185 H   0  0  0  0  0  0
  -25.9789  -25.9818   18.9151 H   0  0  0  0  0  0
  -23.9761  -27.3412   18.9679 H   0  0  0  0  0  0
  -23.7509  -30.6035   19.4060 H   0  0  0  0  0  0
  -22.7522  -29.2545   19.8583 H   0  0  0  0  0  0
  -25.1293  -36.1943   25.0817 H   0  0  0  0  0  0
  -20.9967  -28.3269   24.1401 H   0  0  0  0  0  0
  -20.5678  -26.2298   23.3606 H   0  0  0  0  0  0
  -21.6646  -26.7448   22.1197 H   0  0  0  0  0  0
  -19.6912  -25.6295   21.1236 H   0  0  0  0  0  0
  -19.6687  -27.3197   20.6739 H   0  0  0  0  0  0
  -17.4197  -26.6668   21.4026 H   0  0  0  0  0  0
  -18.0336  -26.0069   22.9017 H   0  0  0  0  0  0
  -19.7941  -30.7262   24.2270 H   0  0  0  0  0  0
  -17.5023  -31.6268   24.5166 H   0  0  0  0  0  0
  -15.5354  -30.2990   23.7657 H   0  0  0  0  0  0
  -15.8669  -28.0822   22.7067 H   0  0  0  0  0  0
  -24.5919  -30.7049   25.7792 H   0  0  0  0  0  0
  -24.8906  -32.2879   26.4876 H   0  0  0  0  0  0
  -25.8063  -30.8911   27.0239 H   0  0  0  0  0  0
  -26.2911  -29.6754   24.1209 H   0  0  0  0  0  0
  -27.4043  -29.7263   25.4679 H   0  0  0  0  0  0
  -27.8780  -30.4286   23.9397 H   0  0  0  0  0  0
  -27.2680  -33.3623   26.2065 H   0  0  0  0  0  0
  -28.3880  -32.6859   25.0329 H   0  0  0  0  0  0
  -28.0717  -31.8441   26.5424 H   0  0  0  0  0  0
  -28.2592  -38.0107   24.7527 H   0  0  0  0  0  0
  -28.1085  -36.2636   24.6271 H   0  0  0  0  0  0
  -27.2297  -37.1426   25.8865 H   0  0  0  0  0  0
  -20.9370  -29.8774   21.6897 H   0  0  0  0  0  0
  -26.0176  -38.2848   24.1423 H   0  0  0  0  0  0
  -31.1986  -19.1564   22.2379 H   0  0  0  0  0  0
  -30.3646  -21.4533   22.4244 H   0  0  0  0  0  0
  -27.5697  -20.7127   19.2659 H   0  0  0  0  0  0
  -28.5775  -17.1007   18.7592 H   0  0  0  0  0  0
  -27.4458  -19.6185   17.4390 H   0  0  0  0  0  0
  -27.4780  -23.7003   23.9648 H   0  0  0  0  0  0
  -26.6450  -24.5741   22.6644 H   0  0  0  0  0  0
  -29.6281  -24.0754   23.0138 H   0  0  0  0  0  0
  -28.8602  -25.5676   22.4985 H   0  0  0  0  0  0
  -29.9542  -23.9032   20.6550 H   0  0  0  0  0  0
  -27.1542  -19.4507   15.2078 H   0  0  0  0  0  0
  -25.8799  -18.2663   14.9090 H   0  0  0  0  0  0
  -27.5353  -17.9532   14.3641 H   0  0  0  0  0  0
  -26.3544  -13.8384   14.8716 H   0  0  0  0  0  0
  -26.0445  -14.1163   16.5832 H   0  0  0  0  0  0
  -27.7111  -14.0329   15.9756 H   0  0  0  0  0  0
  -31.5103  -17.1831   21.1016 H   0  0  0  0  0  0
  -31.0142  -17.1495   19.4519 H   0  0  0  0  0  0
  -27.0627  -24.7585   20.2243 H   0  0  0  0  0  0
  -28.2878  -24.7375   18.9993 H   0  0  0  0  0  0
  -29.0142  -15.7513   20.9358 H   0  0  0  0  0  0
  1 25  1  0  0  0
  1 30  2  0  0  0
  1 90  1  0  0  0
  2  3  1  0  0  0
  2 25  1  0  0  0
  2 93  1  0  0  0
  2 94  1  0  0  0
  3  4  1  0  0  0
  3 95  1  0  0  0
  3 96  1  0  0  0
  4  5  1  0  0  0
  4 97  1  0  0  0
  4 98  1  0  0  0
  5  6  1  0  0  0
  5 26  1  0  0  0
  5 99  1  0  0  0
  6 25  1  0  0  0
  6100  1  0  0  0
  6101  1  0  0  0
  7  8  2  0  0  0
  7 26  1  0  0  0
  7 29  1  0  0  0
  8  9  1  0  0  0
  8 22  1  0  0  0
  9 10  1  0  0  0
  9 27  2  0  0  0
 10 11  2  0  0  0
 10 15  1  0  0  0
 11 12  1  0  0  0
 11102  1  0  0  0
 12 13  2  0  0  0
 12103  1  0  0  0
 13 14  1  0  0  0
 13 31  1  0  0  0
 14 15  2  0  0  0
 14104  1  0  0  0
 15105  1  0  0  0
 16 17  2  0  0  0
 16 21  1  0  0  0
 16 31  1  0  0  0
 17 18  1  0  0  0
 17106  1  0  0  0
 18 19  2  0  0  0
 18107  1  0  0  0
 19 20  1  0  0  0
 19 24  1  0  0  0
 20 21  2  0  0  0
 20108  1  0  0  0
 21 23  1  0  0  0
 22 28  1  0  0  0
 22 32  2  0  0  0
 26 27  1  0  0  0
 28109  1  0  0  0
 28110  1  0  0  0
 29111  1  0  0  0
 29112  1  0  0  0
 33 34  1  0  0  0
 33 66  1  0  0  0
 33 70  2  0  0  0
 34 36  1  0  0  0
 34 59  1  0  0  0
 34113  1  0  0  0
 35 44  2  0  0  0
 35 45  1  0  0  0
 35 68  1  0  0  0
 36 56  1  0  0  0
 36114  1  0  0  0
 37 39  1  0  0  0
 37 47  1  0  0  0
 37 66  1  0  0  0
 37115  1  0  0  0
 38 43  2  0  0  0
 38 46  1  0  0  0
 38 47  1  0  0  0
 39 64  1  0  0  0
 39 67  2  0  0  0
 40 52  1  0  0  0
 40 53  2  0  0  0
 40 58  1  0  0  0
 41116  1  0  0  0
 41117  1  0  0  0
 41118  1  0  0  0
 41 48  1  0  0  0
 42 43  1  0  0  0
 42 66  1  0  0  0
 42119  1  0  0  0
 42120  1  0  0  0
 43 44  1  0  0  0
 44121  1  0  0  0
 45 46  2  0  0  0
 45122  1  0  0  0
 46123  1  0  0  0
 47124  1  0  0  0
 47125  1  0  0  0
 48 56  1  0  0  0
 48 65  1  0  0  0
 48126  1  0  0  0
 49 50  1  0  0  0
 49 53  1  0  0  0
 49 64  1  0  0  0
 49127  1  0  0  0
 50 51  1  0  0  0
 50128  1  0  0  0
 50129  1  0  0  0
 51 52  1  0  0  0
 51130  1  0  0  0
 51131  1  0  0  0
 52132  1  0  0  0
 52133  1  0  0  0
 53 54  1  0  0  0
 54 55  2  0  0  0
 54134  1  0  0  0
 55 57  1  0  0  0
 55135  1  0  0  0
 56 69  2  0  0  0
 57 58  2  0  0  0
 57136  1  0  0  0
 58137  1  0  0  0
 59 60  1  0  0  0
 59 61  1  0  0  0
 59 62  1  0  0  0
 60138  1  0  0  0
 60139  1  0  0  0
 60140  1  0  0  0
 61141  1  0  0  0
 61142  1  0  0  0
 61143  1  0  0  0
 62144  1  0  0  0
 62145  1  0  0  0
 62146  1  0  0  0
 63 65  1  0  0  0
 63147  1  0  0  0
 63148  1  0  0  0
 63149  1  0  0  0
 64150  1  0  0  0
 65151  1  0  0  0
 68 87  1  0  0  0
 71 72  2  0  0  0
 71 75  1  0  0  0
 71152  1  0  0  0
 72 76  1  0  0  0
 72153  1  0  0  0
 73 74  1  0  0  0
 73 76  2  0  0  0
 73154  1  0  0  0
 74 75  2  0  0  0
 74 78  1  0  0  0
 75 86  1  0  0  0
 76 89  1  0  0  0
 77 81  1  0  0  0
 77 89  1  0  0  0
 77 91  2  0  0  0
 78 79  2  0  0  0
 78155  1  0  0  0
 79 80  1  0  0  0
 79156  1  0  0  0
 80 84  1  0  0  0
 80 88  2  0  0  0
 81 82  1  0  0  0
 81157  1  0  0  0
 81158  1  0  0  0
 82 83  1  0  0  0
 82159  1  0  0  0
 82160  1  0  0  0
 83 87  1  0  0  0
 83 89  1  0  0  0
 83161  1  0  0  0
 84162  1  0  0  0
 84163  1  0  0  0
 84164  1  0  0  0
 85 92  1  0  0  0
 85165  1  0  0  0
 85166  1  0  0  0
 85167  1  0  0  0
 86 90  1  0  0  0
 86168  1  0  0  0
 86169  1  0  0  0
 87170  1  0  0  0
 87171  1  0  0  0
 88 92  1  0  0  0
 90172  1  0  0  0
M  ISO  4   1 100  68 101  87 101  90 100
M  END
> <chiral flag>
0

> <version>
0

> <s_m_source_file>
/data/baiqing/PycharmProjects/Reinvent-master-3.2/result/LINK_invent/BTK/process_docking_weight1_custom_product_contain_oxygen_bond_distance_aromatic_linkinvent_7_9_3/rearranged_h_0112.sdf

> <i_m_source_file_index>
26

> <r_mmod_Potential_Energy-OPLS-2005>
148.348693847656

> <r_mmod_Stretch_Energy-OPLS-2005>
85.0325012207031

> <r_mmod_Bend_Energy-OPLS-2005>
182.260070800781

> <r_mmod_Torsional_Energy-OPLS-2005>
327.121490478516

> <r_mmod_Improper_Torsional_Energy-OPLS-2005>
9.53044986724854

> <r_mmod_Van_der_Waal_Energy-OPLS-2005>
148.062210083008

> <r_mmod_Electrostatic_Energy-OPLS-2005>
-424.325622558594

> <r_mmod_Solvation_Energy-OPLS-2005>
-233.546234130859

> <b_mmod_Minimization_Converged-OPLS-2005>
0

> <r_mmod_RMS_Derivative-OPLS-2005>
0.571706652641296

$$$$
27
                    3D
 Structure written by MMmdl.
158166  0  0  1  0            999 V2000
  -30.6504  -14.7968   20.5418 C   0  0  0  0  0  0
  -30.4268  -12.5062   19.5212 C   0  0  0  0  0  0
  -29.5182  -12.5585   18.2708 C   0  0  0  0  0  0
  -28.0482  -12.3480   18.6738 C   0  0  0  0  0  0
  -27.6416  -13.2501   19.8687 C   0  0  2  0  0  0
  -28.6788  -13.2096   21.0180 C   0  0  0  0  0  0
  -25.2443  -13.8215   20.5771 C   0  0  0  0  0  0
  -24.1751  -13.0429   20.9218 C   0  0  0  0  0  0
  -24.6361  -11.6909   20.8714 C   0  0  0  0  0  0
  -23.9026  -10.4275   21.0344 C   0  0  0  0  0  0
  -24.3598   -9.4212   21.9150 C   0  0  0  0  0  0
  -23.6292   -8.2231   22.0718 C   0  0  0  0  0  0
  -22.4281   -8.0236   21.3510 C   0  0  0  0  0  0
  -21.9892   -9.0182   20.4609 C   0  0  0  0  0  0
  -22.7181  -10.2086   20.3000 C   0  0  0  0  0  0
  -21.6861   -6.0694   22.5264 C   0  0  0  0  0  0
  -21.4031   -6.5623   23.8207 C   0  0  0  0  0  0
  -21.3674   -5.6773   24.9176 C   0  0  0  0  0  0
  -21.6052   -4.3023   24.7233 C   0  0  0  0  0  0
  -21.8813   -3.8112   23.4359 C   0  0  0  0  0  0
  -21.9212   -4.6931   22.3406 C   0  0  0  0  0  0
  -22.7764  -13.5183   21.1898 C   0  0  0  0  0  0
  -22.1658   -4.2112   21.0988 F   0  0  0  0  0  0
  -21.5651   -3.4533   25.7756 F   0  0  0  0  0  0
  -29.9915  -13.5755   20.4642 N   0  0  0  0  0  0
  -26.2921  -12.9461   20.3366 N   0  0  0  0  0  0
  -25.9314  -11.6577   20.5758 N   0  0  0  0  0  0
  -22.0428  -12.8120   22.0457 N   0  0  0  0  0  0
  -25.4121  -15.1933   20.4262 N   0  0  0  0  0  0
  -31.7867  -14.8560   20.0622 O   0  0  0  0  0  0
  -21.6653   -6.8814   21.4209 O   0  0  0  0  0  0
  -22.3443  -14.5500   20.6750 O   0  0  0  0  0  0
  -24.6327  -31.8538   23.2007 C   0  0  0  0  0  0
  -25.9161  -32.4711   23.8337 C   0  0  1  0  0  0
  -27.2125  -27.2354   20.1445 C   0  0  0  0  0  0
  -25.5968  -33.8514   24.2262 N   0  0  0  0  0  0
  -23.4298  -30.4798   21.5404 C   0  0  2  0  0  0
  -24.8787  -28.9331   20.1002 C   0  0  0  0  0  0
  -22.7490  -29.4605   22.4873 C   0  0  0  0  0  0
  -18.0271  -28.1427   22.8483 C   0  0  0  0  0  0
  -24.1504  -36.7280   23.2634 C   0  0  0  0  0  0
  -25.9765  -30.7623   21.3829 C   0  0  0  0  0  0
  -26.0473  -29.3805   20.7318 C   0  0  0  0  0  0
  -27.2116  -28.5424   20.7521 C   0  0  0  0  0  0
  -26.0338  -26.8896   19.4420 C   0  0  0  0  0  0
  -24.8817  -27.6999   19.4369 C   0  0  0  0  0  0
  -23.6520  -29.8243   20.1516 C   0  0  0  0  0  0
  -25.4123  -36.3031   24.0325 C   0  0  1  0  0  0
  -20.5879  -28.3751   23.1269 C   0  0  2  0  0  0
  -20.6777  -26.9469   22.5408 C   0  0  0  0  0  0
  -19.5754  -26.6422   21.5208 C   0  0  0  0  0  0
  -18.1938  -26.7972   22.1613 C   0  0  0  0  0  0
  -19.1530  -28.8890   23.2885 C   0  0  0  0  0  0
  -18.9461  -30.1484   23.8931 C   0  0  0  0  0  0
  -17.6454  -30.6627   24.0585 C   0  0  0  0  0  0
  -25.9076  -34.9403   23.5092 C   0  0  0  0  0  0
  -16.5350  -29.9134   23.6329 C   0  0  0  0  0  0
  -16.7263  -28.6548   23.0362 C   0  0  0  0  0  0
  -26.4570  -31.6491   25.0677 C   0  0  0  0  0  0
  -25.3814  -31.3593   26.1388 C   0  0  0  0  0  0
  -27.0388  -30.2898   24.6128 C   0  0  0  0  0  0
  -27.6193  -32.4165   25.7423 C   0  0  0  0  0  0
  -27.5582  -37.1779   24.8457 C   0  0  0  0  0  0
  -21.4186  -29.3086   22.3631 N   0  0  0  0  0  0
  -26.4280  -37.3748   23.9428 N   0  0  0  0  0  0
  -24.6988  -31.0510   22.0976 N   0  0  0  0  0  0
  -23.4185  -28.8151   23.2984 O   0  0  0  0  0  0
  -28.2813  -26.2985   20.2601 O   0  0  0  0  0  0
  -26.5660  -34.8889   22.4664 O   0  0  0  0  0  0
  -23.5476  -32.1375   23.7282 O   0  0  0  0  0  0
  -29.7739  -20.7833   22.2640 C   0  0  0  0  0  0
  -30.1583  -19.4001   22.4148 C   0  0  0  0  0  0
  -29.3514  -21.0299   20.9872 C   0  0  0  0  0  0
  -29.9355  -18.7594   21.2059 C   0  0  0  0  0  0
  -34.2353  -21.8952   25.2460 C   0  0  0  0  0  0
  -28.8575  -22.2847   20.3212 C   0  0  0  0  0  0
  -30.2430  -17.3587   20.7189 C   0  0  0  0  0  0
  -33.0505  -21.2625   25.3497 C   0  0  0  0  0  0
  -30.0103  -16.0417   21.1438 C   0  0  0  0  0  0
  -28.7312  -23.6219   20.7151 C   0  0  0  0  0  0
  -32.7350  -20.1143   24.5151 C   0  0  0  0  0  0
  -30.7593  -18.8251   23.6862 C   0  0  0  0  0  0
  -28.0443  -24.8351   19.9298 C   0  0  0  0  0  0
  -31.4240  -19.8422   24.5109 N   0  0  0  0  0  0
  -33.5523  -19.4588   23.8673 O   0  0  0  0  0  0
  -29.4581  -19.7743   20.3290 O   0  0  0  0  0  0
  -31.4721  -12.6048   19.2244 H   0  0  0  0  0  0
  -30.3577  -11.5295   20.0036 H   0  0  0  0  0  0
  -29.8230  -11.8039   17.5456 H   0  0  0  0  0  0
  -29.6223  -13.5261   17.7757 H   0  0  0  0  0  0
  -27.9280  -11.2982   18.9428 H   0  0  0  0  0  0
  -27.3844  -12.5166   17.8243 H   0  0  0  0  0  0
  -27.6252  -14.2716   19.4868 H   0  0  0  0  0  0
  -28.7172  -12.2154   21.4643 H   0  0  0  0  0  0
  -28.3847  -13.8918   21.8176 H   0  0  0  0  0  0
  -25.2723   -9.5750   22.4741 H   0  0  0  0  0  0
  -24.0030   -7.4643   22.7445 H   0  0  0  0  0  0
  -21.0819   -8.8629   19.8923 H   0  0  0  0  0  0
  -22.3557  -10.9600   19.6116 H   0  0  0  0  0  0
  -21.1985   -7.6121   23.9706 H   0  0  0  0  0  0
  -21.1526   -6.0508   25.9089 H   0  0  0  0  0  0
  -22.0582   -2.7575   23.2878 H   0  0  0  0  0  0
  -22.4084  -11.9804   22.4852 H   0  0  0  0  0  0
  -21.1010  -13.1061   22.2631 H   0  0  0  0  0  0
  -24.6455  -15.8466   20.5539 H   0  0  0  0  0  0
  -26.2761  -15.6398   20.1424 H   0  0  0  0  0  0
  -26.7208  -32.5379   23.1071 H   0  0  0  0  0  0
  -25.0084  -33.9654   25.0380 H   0  0  0  0  0  0
  -22.7270  -31.3044   21.3937 H   0  0  0  0  0  0
  -23.3749  -35.9614   23.3205 H   0  0  0  0  0  0
  -24.3641  -36.8991   22.2070 H   0  0  0  0  0  0
  -23.7244  -37.6443   23.6735 H   0  0  0  0  0  0
  -26.1049  -31.5142   20.6025 H   0  0  0  0  0  0
  -26.8589  -30.8219   22.0089 H   0  0  0  0  0  0
  -28.0933  -28.8708   21.2853 H   0  0  0  0  0  0
  -25.9575  -25.9663   18.8884 H   0  0  0  0  0  0
  -24.0004  -27.3688   18.9035 H   0  0  0  0  0  0
  -23.7859  -30.6075   19.4031 H   0  0  0  0  0  0
  -22.7684  -29.2673   19.8328 H   0  0  0  0  0  0
  -25.1280  -36.1868   25.0812 H   0  0  0  0  0  0
  -20.9982  -28.3345   24.1382 H   0  0  0  0  0  0
  -20.5698  -26.2364   23.3625 H   0  0  0  0  0  0
  -21.6658  -26.7539   22.1197 H   0  0  0  0  0  0
  -19.6961  -25.6330   21.1252 H   0  0  0  0  0  0
  -19.6707  -27.3227   20.6749 H   0  0  0  0  0  0
  -17.4216  -26.6715   21.4008 H   0  0  0  0  0  0
  -18.0356  -26.0101   22.9001 H   0  0  0  0  0  0
  -19.7927  -30.7278   24.2352 H   0  0  0  0  0  0
  -17.5015  -31.6300   24.5183 H   0  0  0  0  0  0
  -15.5356  -30.3081   23.7617 H   0  0  0  0  0  0
  -15.8640  -28.0867   22.7115 H   0  0  0  0  0  0
  -24.6089  -30.6828   25.7709 H   0  0  0  0  0  0
  -24.8895  -32.2700   26.4795 H   0  0  0  0  0  0
  -25.8153  -30.8803   27.0164 H   0  0  0  0  0  0
  -26.2918  -29.6598   24.1273 H   0  0  0  0  0  0
  -27.4179  -29.7198   25.4621 H   0  0  0  0  0  0
  -27.8768  -30.4120   23.9266 H   0  0  0  0  0  0
  -27.2945  -33.3556   26.1914 H   0  0  0  0  0  0
  -28.4076  -32.6509   25.0252 H   0  0  0  0  0  0
  -28.0768  -31.8266   26.5376 H   0  0  0  0  0  0
  -28.2532  -38.0142   24.7557 H   0  0  0  0  0  0
  -28.1129  -36.2661   24.6176 H   0  0  0  0  0  0
  -27.2322  -37.1308   25.8864 H   0  0  0  0  0  0
  -20.9379  -29.8777   21.6792 H   0  0  0  0  0  0
  -26.0112  -38.2786   24.1463 H   0  0  0  0  0  0
  -29.8254  -21.5435   23.0326 H   0  0  0  0  0  0
  -34.4609  -22.7478   25.8709 H   0  0  0  0  0  0
  -34.9977  -21.5882   24.5431 H   0  0  0  0  0  0
  -28.4891  -22.0841   19.3261 H   0  0  0  0  0  0
  -30.8816  -17.4074   19.8491 H   0  0  0  0  0  0
  -32.3317  -21.6212   26.0743 H   0  0  0  0  0  0
  -29.3726  -15.9042   22.0030 H   0  0  0  0  0  0
  -29.0810  -23.8814   21.7024 H   0  0  0  0  0  0
  -31.4497  -18.0188   23.4369 H   0  0  0  0  0  0
  -29.9635  -18.3761   24.2798 H   0  0  0  0  0  0
  -26.9915  -24.6150   20.0960 H   0  0  0  0  0  0
  -28.2297  -24.6996   18.8641 H   0  0  0  0  0  0
  -30.8306  -20.4389   25.0698 H   0  0  0  0  0  0
  1 25  1  0  0  0
  1 30  2  0  0  0
  1 79  1  0  0  0
  2  3  1  0  0  0
  2 25  1  0  0  0
  2 87  1  0  0  0
  2 88  1  0  0  0
  3  4  1  0  0  0
  3 89  1  0  0  0
  3 90  1  0  0  0
  4  5  1  0  0  0
  4 91  1  0  0  0
  4 92  1  0  0  0
  5  6  1  0  0  0
  5 26  1  0  0  0
  5 93  1  0  0  0
  6 25  1  0  0  0
  6 94  1  0  0  0
  6 95  1  0  0  0
  7  8  2  0  0  0
  7 26  1  0  0  0
  7 29  1  0  0  0
  8  9  1  0  0  0
  8 22  1  0  0  0
  9 10  1  0  0  0
  9 27  2  0  0  0
 10 11  2  0  0  0
 10 15  1  0  0  0
 11 12  1  0  0  0
 11 96  1  0  0  0
 12 13  2  0  0  0
 12 97  1  0  0  0
 13 14  1  0  0  0
 13 31  1  0  0  0
 14 15  2  0  0  0
 14 98  1  0  0  0
 15 99  1  0  0  0
 16 17  2  0  0  0
 16 21  1  0  0  0
 16 31  1  0  0  0
 17 18  1  0  0  0
 17100  1  0  0  0
 18 19  2  0  0  0
 18101  1  0  0  0
 19 20  1  0  0  0
 19 24  1  0  0  0
 20 21  2  0  0  0
 20102  1  0  0  0
 21 23  1  0  0  0
 22 28  1  0  0  0
 22 32  2  0  0  0
 26 27  1  0  0  0
 28103  1  0  0  0
 28104  1  0  0  0
 29105  1  0  0  0
 29106  1  0  0  0
 33 34  1  0  0  0
 33 66  1  0  0  0
 33 70  2  0  0  0
 34 36  1  0  0  0
 34 59  1  0  0  0
 34107  1  0  0  0
 35 44  2  0  0  0
 35 45  1  0  0  0
 35 68  1  0  0  0
 36 56  1  0  0  0
 36108  1  0  0  0
 37 39  1  0  0  0
 37 47  1  0  0  0
 37 66  1  0  0  0
 37109  1  0  0  0
 38 43  2  0  0  0
 38 46  1  0  0  0
 38 47  1  0  0  0
 39 64  1  0  0  0
 39 67  2  0  0  0
 40 52  1  0  0  0
 40 53  2  0  0  0
 40 58  1  0  0  0
 41110  1  0  0  0
 41111  1  0  0  0
 41112  1  0  0  0
 41 48  1  0  0  0
 42 43  1  0  0  0
 42 66  1  0  0  0
 42113  1  0  0  0
 42114  1  0  0  0
 43 44  1  0  0  0
 44115  1  0  0  0
 45 46  2  0  0  0
 45116  1  0  0  0
 46117  1  0  0  0
 47118  1  0  0  0
 47119  1  0  0  0
 48 56  1  0  0  0
 48 65  1  0  0  0
 48120  1  0  0  0
 49 50  1  0  0  0
 49 53  1  0  0  0
 49 64  1  0  0  0
 49121  1  0  0  0
 50 51  1  0  0  0
 50122  1  0  0  0
 50123  1  0  0  0
 51 52  1  0  0  0
 51124  1  0  0  0
 51125  1  0  0  0
 52126  1  0  0  0
 52127  1  0  0  0
 53 54  1  0  0  0
 54 55  2  0  0  0
 54128  1  0  0  0
 55 57  1  0  0  0
 55129  1  0  0  0
 56 69  2  0  0  0
 57 58  2  0  0  0
 57130  1  0  0  0
 58131  1  0  0  0
 59 60  1  0  0  0
 59 61  1  0  0  0
 59 62  1  0  0  0
 60132  1  0  0  0
 60133  1  0  0  0
 60134  1  0  0  0
 61135  1  0  0  0
 61136  1  0  0  0
 61137  1  0  0  0
 62138  1  0  0  0
 62139  1  0  0  0
 62140  1  0  0  0
 63 65  1  0  0  0
 63141  1  0  0  0
 63142  1  0  0  0
 63143  1  0  0  0
 64144  1  0  0  0
 65145  1  0  0  0
 68 83  1  0  0  0
 71 72  1  0  0  0
 71 73  2  0  0  0
 71146  1  0  0  0
 72 74  2  0  0  0
 72 82  1  0  0  0
 73 76  1  0  0  0
 73 86  1  0  0  0
 74 77  1  0  0  0
 74 86  1  0  0  0
 75 78  2  0  0  0
 75147  1  0  0  0
 75148  1  0  0  0
 76 80  2  0  0  0
 76149  1  0  0  0
 77 79  2  0  0  0
 77150  1  0  0  0
 78 81  1  0  0  0
 78151  1  0  0  0
 79152  1  0  0  0
 80 83  1  0  0  0
 80153  1  0  0  0
 81 84  1  0  0  0
 81 85  2  0  0  0
 82 84  1  0  0  0
 82154  1  0  0  0
 82155  1  0  0  0
 83156  1  0  0  0
 83157  1  0  0  0
 84158  1  0  0  0
M  ISO  4   1 100  68 101  79 100  83 101
M  END
> <chiral flag>
0

> <version>
0

> <s_m_source_file>
/data/baiqing/PycharmProjects/Reinvent-master-3.2/result/LINK_invent/BTK/process_docking_weight1_custom_product_contain_oxygen_bond_distance_aromatic_linkinvent_7_9_3/rearranged_h_0112.sdf

> <i_m_source_file_index>
27

> <r_mmod_Potential_Energy-OPLS-2005>
92.1690826416016

> <r_mmod_Stretch_Energy-OPLS-2005>
142.990844726562

> <r_mmod_Bend_Energy-OPLS-2005>
180.32536315918

> <r_mmod_Torsional_Energy-OPLS-2005>
201.452590942383

> <r_mmod_Improper_Torsional_Energy-OPLS-2005>
4.24714088439941

> <r_mmod_Van_der_Waal_Energy-OPLS-2005>
125.444534301758

> <r_mmod_Electrostatic_Energy-OPLS-2005>
-432.244171142578

> <r_mmod_Solvation_Energy-OPLS-2005>
-238.655395507812

> <b_mmod_Minimization_Converged-OPLS-2005>
0

> <r_mmod_RMS_Derivative-OPLS-2005>
4.81448841094971

$$$$
28
                    3D
 Structure written by MMmdl.
151159  0  0  1  0            999 V2000
  -30.5186  -14.9187   20.4356 C   0  0  0  0  0  0
  -30.4524  -12.5653   19.4965 C   0  0  0  0  0  0
  -29.5274  -12.5358   18.2555 C   0  0  0  0  0  0
  -28.0573  -12.3262   18.6682 C   0  0  0  0  0  0
  -27.6400  -13.2402   19.8494 C   0  0  2  0  0  0
  -28.6833  -13.2207   20.9885 C   0  0  0  0  0  0
  -25.2511  -13.8201   20.5705 C   0  0  0  0  0  0
  -24.1806  -13.0441   20.9211 C   0  0  0  0  0  0
  -24.6405  -11.6919   20.8742 C   0  0  0  0  0  0
  -23.9078  -10.4293   21.0401 C   0  0  0  0  0  0
  -24.3623   -9.4208   21.9182 C   0  0  0  0  0  0
  -23.6293   -8.2246   22.0755 C   0  0  0  0  0  0
  -22.4276   -8.0284   21.3546 C   0  0  0  0  0  0
  -21.9913   -9.0259   20.4651 C   0  0  0  0  0  0
  -22.7248  -10.2134   20.3054 C   0  0  0  0  0  0
  -21.6856   -6.0732   22.5279 C   0  0  0  0  0  0
  -21.4017   -6.5636   23.8211 C   0  0  0  0  0  0
  -21.3659   -5.6790   24.9173 C   0  0  0  0  0  0
  -21.6043   -4.3052   24.7226 C   0  0  0  0  0  0
  -21.8819   -3.8144   23.4347 C   0  0  0  0  0  0
  -21.9197   -4.6960   22.3404 C   0  0  0  0  0  0
  -22.7828  -13.5222   21.1871 C   0  0  0  0  0  0
  -22.1662   -4.2146   21.0981 F   0  0  0  0  0  0
  -21.5628   -3.4537   25.7738 F   0  0  0  0  0  0
  -29.9689  -13.6391   20.4085 N   0  0  0  0  0  0
  -26.2938  -12.9417   20.3268 N   0  0  0  0  0  0
  -25.9341  -11.6553   20.5734 N   0  0  0  0  0  0
  -22.0471  -12.8211   22.0422 N   0  0  0  0  0  0
  -25.4197  -15.1927   20.4126 N   0  0  0  0  0  0
  -31.6964  -15.0520   20.0829 O   0  0  0  0  0  0
  -21.6642   -6.8880   21.4241 O   0  0  0  0  0  0
  -22.3511  -14.5526   20.6716 O   0  0  0  0  0  0
  -24.6439  -31.8441   23.1903 C   0  0  0  0  0  0
  -25.9216  -32.4691   23.8282 C   0  0  1  0  0  0
  -27.2190  -27.1344   20.1434 C   0  0  0  0  0  0
  -25.5965  -33.8497   24.2200 N   0  0  0  0  0  0
  -23.4472  -30.4645   21.5353 C   0  0  2  0  0  0
  -24.8978  -28.8947   20.1094 C   0  0  0  0  0  0
  -22.7566  -29.4546   22.4859 C   0  0  0  0  0  0
  -18.0307  -28.1395   22.8472 C   0  0  0  0  0  0
  -24.1490  -36.7251   23.2642 C   0  0  0  0  0  0
  -26.0043  -30.7123   21.3962 C   0  0  0  0  0  0
  -26.0729  -29.3235   20.7392 C   0  0  0  0  0  0
  -27.2295  -28.4552   20.7508 C   0  0  0  0  0  0
  -26.0273  -26.8292   19.4440 C   0  0  0  0  0  0
  -24.8880  -27.6596   19.4481 C   0  0  0  0  0  0
  -23.6745  -29.7961   20.1539 C   0  0  0  0  0  0
  -25.4122  -36.3027   24.0316 C   0  0  1  0  0  0
  -20.5917  -28.3721   23.1226 C   0  0  2  0  0  0
  -20.6787  -26.9424   22.5397 C   0  0  0  0  0  0
  -19.5762  -26.6381   21.5202 C   0  0  0  0  0  0
  -18.1945  -26.7930   22.1619 C   0  0  0  0  0  0
  -19.1562  -28.8876   23.2839 C   0  0  0  0  0  0
  -18.9481  -30.1472   23.8865 C   0  0  0  0  0  0
  -17.6477  -30.6588   24.0560 C   0  0  0  0  0  0
  -25.9072  -34.9402   23.5063 C   0  0  0  0  0  0
  -16.5367  -29.9079   23.6341 C   0  0  0  0  0  0
  -16.7291  -28.6501   23.0354 C   0  0  0  0  0  0
  -26.4536  -31.6562   25.0729 C   0  0  0  0  0  0
  -25.3720  -31.3757   26.1425 C   0  0  0  0  0  0
  -27.0408  -30.2952   24.6337 C   0  0  0  0  0  0
  -27.6061  -32.4336   25.7517 C   0  0  0  0  0  0
  -27.5574  -37.1785   24.8469 C   0  0  0  0  0  0
  -21.4257  -29.3046   22.3598 N   0  0  0  0  0  0
  -26.4287  -37.3741   23.9407 N   0  0  0  0  0  0
  -24.7177  -31.0286   22.0951 N   0  0  0  0  0  0
  -23.4205  -28.8092   23.3013 O   0  0  0  0  0  0
  -28.2709  -26.1426   20.2099 O   0  0  0  0  0  0
  -26.5651  -34.8898   22.4639 O   0  0  0  0  0  0
  -23.5557  -32.1328   23.7114 O   0  0  0  0  0  0
  -28.6988  -18.2703   21.4634 C   0  0  0  0  0  0
  -30.2609  -18.4442   19.7195 C   0  0  0  0  0  0
  -28.3913  -19.6921   21.3859 C   0  0  0  0  0  0
  -28.9948  -20.5841   20.4185 C   0  0  0  0  0  0
  -29.6143  -17.5439   20.6357 C   0  0  0  0  0  0
  -29.9581  -19.8730   19.6072 C   0  0  0  0  0  0
  -26.9911  -19.6612   23.4936 C   0  0  0  0  0  0
  -27.4072  -20.2397   22.3531 C   0  0  0  0  0  0
  -28.8378  -23.5396   20.3048 C   0  0  0  0  0  0
  -28.0278  -24.6937   20.1180 C   0  0  0  0  0  0
  -28.3563  -22.0380   20.0639 C   0  0  0  0  0  0
  -29.6733  -16.0112   20.7448 N   0  0  0  0  0  0
  -27.2533  -21.9516   19.5143 O   0  0  0  0  0  0
  -30.5882  -20.5629   18.6252 F   0  0  0  0  0  0
  -31.4856  -12.7312   19.1879 H   0  0  0  0  0  0
  -30.4463  -11.6003   20.0057 H   0  0  0  0  0  0
  -29.8400  -11.7485   17.5683 H   0  0  0  0  0  0
  -29.6223  -13.4742   17.7069 H   0  0  0  0  0  0
  -27.9411  -11.2807   18.9555 H   0  0  0  0  0  0
  -27.3972  -12.4820   17.8144 H   0  0  0  0  0  0
  -27.6179  -14.2522   19.4451 H   0  0  0  0  0  0
  -28.7604  -12.2259   21.4297 H   0  0  0  0  0  0
  -28.3838  -13.8871   21.7985 H   0  0  0  0  0  0
  -25.2767   -9.5682   22.4758 H   0  0  0  0  0  0
  -24.0002   -7.4638   22.7474 H   0  0  0  0  0  0
  -21.0846   -8.8785   19.8957 H   0  0  0  0  0  0
  -22.3713  -10.9673   19.6160 H   0  0  0  0  0  0
  -21.2009   -7.6144   23.9711 H   0  0  0  0  0  0
  -21.1479   -6.0519   25.9074 H   0  0  0  0  0  0
  -22.0599   -2.7607   23.2849 H   0  0  0  0  0  0
  -22.4089  -11.9875   22.4811 H   0  0  0  0  0  0
  -21.1088  -13.1237   22.2624 H   0  0  0  0  0  0
  -24.6490  -15.8430   20.5218 H   0  0  0  0  0  0
  -26.2578  -15.6321   20.0546 H   0  0  0  0  0  0
  -26.7280  -32.5298   23.1004 H   0  0  0  0  0  0
  -25.0102  -33.9609   25.0341 H   0  0  0  0  0  0
  -22.7500  -31.2907   21.3814 H   0  0  0  0  0  0
  -23.3754  -35.9582   23.3299 H   0  0  0  0  0  0
  -24.3577  -36.8886   22.2059 H   0  0  0  0  0  0
  -23.7243  -37.6445   23.6680 H   0  0  0  0  0  0
  -26.1653  -31.4659   20.6239 H   0  0  0  0  0  0
  -26.8729  -30.7594   22.0411 H   0  0  0  0  0  0
  -28.1203  -28.7735   21.2733 H   0  0  0  0  0  0
  -25.9349  -25.9113   18.8849 H   0  0  0  0  0  0
  -23.9989  -27.3346   18.9251 H   0  0  0  0  0  0
  -23.8107  -30.5714   19.3991 H   0  0  0  0  0  0
  -22.7898  -29.2374   19.8431 H   0  0  0  0  0  0
  -25.1310  -36.1854   25.0808 H   0  0  0  0  0  0
  -21.0009  -28.3312   24.1346 H   0  0  0  0  0  0
  -20.5672  -26.2336   23.3616 H   0  0  0  0  0  0
  -21.6653  -26.7420   22.1203 H   0  0  0  0  0  0
  -19.6922  -25.6286   21.1248 H   0  0  0  0  0  0
  -19.6697  -27.3175   20.6718 H   0  0  0  0  0  0
  -17.4212  -26.6666   21.4027 H   0  0  0  0  0  0
  -18.0355  -26.0079   22.9026 H   0  0  0  0  0  0
  -19.7959  -30.7293   24.2215 H   0  0  0  0  0  0
  -17.5034  -31.6262   24.5171 H   0  0  0  0  0  0
  -15.5364  -30.2969   23.7680 H   0  0  0  0  0  0
  -15.8695  -28.0806   22.7083 H   0  0  0  0  0  0
  -24.5890  -30.7117   25.7744 H   0  0  0  0  0  0
  -24.8925  -32.2944   26.4811 H   0  0  0  0  0  0
  -25.8000  -30.8948   27.0230 H   0  0  0  0  0  0
  -26.3037  -29.6665   24.1333 H   0  0  0  0  0  0
  -27.3989  -29.7262   25.4926 H   0  0  0  0  0  0
  -27.8958  -30.4171   23.9685 H   0  0  0  0  0  0
  -27.2647  -33.3651   26.2041 H   0  0  0  0  0  0
  -28.3901  -32.6875   25.0370 H   0  0  0  0  0  0
  -28.0701  -31.8505   26.5482 H   0  0  0  0  0  0
  -28.2588  -38.0084   24.7505 H   0  0  0  0  0  0
  -28.1068  -36.2610   24.6305 H   0  0  0  0  0  0
  -27.2290  -37.1450   25.8872 H   0  0  0  0  0  0
  -20.9471  -29.8756   21.6770 H   0  0  0  0  0  0
  -26.0151  -38.2809   24.1403 H   0  0  0  0  0  0
  -28.1554  -17.6731   22.1794 H   0  0  0  0  0  0
  -30.9730  -18.0310   19.0207 H   0  0  0  0  0  0
  -26.2561  -20.1534   24.1147 H   0  0  0  0  0  0
  -27.3601  -18.7088   23.8438 H   0  0  0  0  0  0
  -26.9593  -21.1953   22.1232 H   0  0  0  0  0  0
  -29.8631  -23.6651   20.6178 H   0  0  0  0  0  0
  -27.0069  -24.4950   19.8406 H   0  0  0  0  0  0
  -28.8194  -15.6396   21.1336 H   0  0  0  0  0  0
  1 25  1  0  0  0
  1 30  2  0  0  0
  1 82  1  0  0  0
  2  3  1  0  0  0
  2 25  1  0  0  0
  2 85  1  0  0  0
  2 86  1  0  0  0
  3  4  1  0  0  0
  3 87  1  0  0  0
  3 88  1  0  0  0
  4  5  1  0  0  0
  4 89  1  0  0  0
  4 90  1  0  0  0
  5  6  1  0  0  0
  5 26  1  0  0  0
  5 91  1  0  0  0
  6 25  1  0  0  0
  6 92  1  0  0  0
  6 93  1  0  0  0
  7  8  2  0  0  0
  7 26  1  0  0  0
  7 29  1  0  0  0
  8  9  1  0  0  0
  8 22  1  0  0  0
  9 10  1  0  0  0
  9 27  2  0  0  0
 10 11  2  0  0  0
 10 15  1  0  0  0
 11 12  1  0  0  0
 11 94  1  0  0  0
 12 13  2  0  0  0
 12 95  1  0  0  0
 13 14  1  0  0  0
 13 31  1  0  0  0
 14 15  2  0  0  0
 14 96  1  0  0  0
 15 97  1  0  0  0
 16 17  2  0  0  0
 16 21  1  0  0  0
 16 31  1  0  0  0
 17 18  1  0  0  0
 17 98  1  0  0  0
 18 19  2  0  0  0
 18 99  1  0  0  0
 19 20  1  0  0  0
 19 24  1  0  0  0
 20 21  2  0  0  0
 20100  1  0  0  0
 21 23  1  0  0  0
 22 28  1  0  0  0
 22 32  2  0  0  0
 26 27  1  0  0  0
 28101  1  0  0  0
 28102  1  0  0  0
 29103  1  0  0  0
 29104  1  0  0  0
 33 34  1  0  0  0
 33 66  1  0  0  0
 33 70  2  0  0  0
 34 36  1  0  0  0
 34 59  1  0  0  0
 34105  1  0  0  0
 35 44  2  0  0  0
 35 45  1  0  0  0
 35 68  1  0  0  0
 36 56  1  0  0  0
 36106  1  0  0  0
 37 39  1  0  0  0
 37 47  1  0  0  0
 37 66  1  0  0  0
 37107  1  0  0  0
 38 43  2  0  0  0
 38 46  1  0  0  0
 38 47  1  0  0  0
 39 64  1  0  0  0
 39 67  2  0  0  0
 40 52  1  0  0  0
 40 53  2  0  0  0
 40 58  1  0  0  0
 41108  1  0  0  0
 41109  1  0  0  0
 41110  1  0  0  0
 41 48  1  0  0  0
 42 43  1  0  0  0
 42 66  1  0  0  0
 42111  1  0  0  0
 42112  1  0  0  0
 43 44  1  0  0  0
 44113  1  0  0  0
 45 46  2  0  0  0
 45114  1  0  0  0
 46115  1  0  0  0
 47116  1  0  0  0
 47117  1  0  0  0
 48 56  1  0  0  0
 48 65  1  0  0  0
 48118  1  0  0  0
 49 50  1  0  0  0
 49 53  1  0  0  0
 49 64  1  0  0  0
 49119  1  0  0  0
 50 51  1  0  0  0
 50120  1  0  0  0
 50121  1  0  0  0
 51 52  1  0  0  0
 51122  1  0  0  0
 51123  1  0  0  0
 52124  1  0  0  0
 52125  1  0  0  0
 53 54  1  0  0  0
 54 55  2  0  0  0
 54126  1  0  0  0
 55 57  1  0  0  0
 55127  1  0  0  0
 56 69  2  0  0  0
 57 58  2  0  0  0
 57128  1  0  0  0
 58129  1  0  0  0
 59 60  1  0  0  0
 59 61  1  0  0  0
 59 62  1  0  0  0
 60130  1  0  0  0
 60131  1  0  0  0
 60132  1  0  0  0
 61133  1  0  0  0
 61134  1  0  0  0
 61135  1  0  0  0
 62136  1  0  0  0
 62137  1  0  0  0
 62138  1  0  0  0
 63 65  1  0  0  0
 63139  1  0  0  0
 63140  1  0  0  0
 63141  1  0  0  0
 64142  1  0  0  0
 65143  1  0  0  0
 68 80  1  0  0  0
 71 73  2  0  0  0
 71 75  1  0  0  0
 71144  1  0  0  0
 72 75  2  0  0  0
 72 76  1  0  0  0
 72145  1  0  0  0
 73 74  1  0  0  0
 73 78  1  0  0  0
 74 76  2  0  0  0
 74 81  1  0  0  0
 75 82  1  0  0  0
 76 84  1  0  0  0
 77 78  2  0  0  0
 77146  1  0  0  0
 77147  1  0  0  0
 78148  1  0  0  0
 79 80  2  0  0  0
 79 81  1  0  0  0
 79149  1  0  0  0
 80150  1  0  0  0
 81 83  2  0  0  0
 82151  1  0  0  0
M  ISO  4   1 100  68 101  80 101  82 100
M  END
> <chiral flag>
0

> <version>
0

> <s_m_source_file>
/data/baiqing/PycharmProjects/Reinvent-master-3.2/result/LINK_invent/BTK/process_docking_weight1_custom_product_contain_oxygen_bond_distance_aromatic_linkinvent_7_9_3/rearranged_h_0112.sdf

> <i_m_source_file_index>
28

> <r_mmod_Potential_Energy-OPLS-2005>
538.180419921875

> <r_mmod_Stretch_Energy-OPLS-2005>
226.376617431641

> <r_mmod_Bend_Energy-OPLS-2005>
260.517150878906

> <r_mmod_Torsional_Energy-OPLS-2005>
255.631286621094

> <r_mmod_Improper_Torsional_Energy-OPLS-2005>
6.74104261398315

> <r_mmod_Van_der_Waal_Energy-OPLS-2005>
144.083862304688

> <r_mmod_Electrostatic_Energy-OPLS-2005>
-325.653198242188

> <r_mmod_Solvation_Energy-OPLS-2005>
-212.511047363281

> <b_mmod_Minimization_Converged-OPLS-2005>
0

> <r_mmod_RMS_Derivative-OPLS-2005>
0.726000666618347

$$$$
29
                    3D
 Structure written by MMmdl.
153161  0  0  1  0            999 V2000
  -30.7104  -14.6465   20.4920 C   0  0  0  0  0  0
  -30.4066  -12.4039   19.4567 C   0  0  0  0  0  0
  -29.4926  -12.4981   18.2199 C   0  0  0  0  0  0
  -28.0189  -12.3424   18.6359 C   0  0  0  0  0  0
  -27.6397  -13.2347   19.8489 C   0  0  2  0  0  0
  -28.6891  -13.1681   20.9807 C   0  0  0  0  0  0
  -25.2504  -13.8202   20.5700 C   0  0  0  0  0  0
  -24.1802  -13.0448   20.9218 C   0  0  0  0  0  0
  -24.6399  -11.6926   20.8763 C   0  0  0  0  0  0
  -23.9067  -10.4301   21.0417 C   0  0  0  0  0  0
  -24.3620   -9.4217   21.9191 C   0  0  0  0  0  0
  -23.6302   -8.2245   22.0751 C   0  0  0  0  0  0
  -22.4286   -8.0284   21.3543 C   0  0  0  0  0  0
  -21.9917   -9.0256   20.4637 C   0  0  0  0  0  0
  -22.7241  -10.2140   20.3056 C   0  0  0  0  0  0
  -21.6856   -6.0746   22.5283 C   0  0  0  0  0  0
  -21.4008   -6.5648   23.8217 C   0  0  0  0  0  0
  -21.3657   -5.6799   24.9178 C   0  0  0  0  0  0
  -21.6040   -4.3060   24.7227 C   0  0  0  0  0  0
  -21.8822   -3.8154   23.4346 C   0  0  0  0  0  0
  -21.9191   -4.6973   22.3404 C   0  0  0  0  0  0
  -22.7822  -13.5236   21.1862 C   0  0  0  0  0  0
  -22.1668   -4.2158   21.0982 F   0  0  0  0  0  0
  -21.5621   -3.4541   25.7734 F   0  0  0  0  0  0
  -29.9940  -13.4792   20.3867 N   0  0  0  0  0  0
  -26.2939  -12.9422   20.3305 N   0  0  0  0  0  0
  -25.9336  -11.6562   20.5778 N   0  0  0  0  0  0
  -22.0470  -12.8214   22.0414 N   0  0  0  0  0  0
  -25.4184  -15.1913   20.4072 N   0  0  0  0  0  0
  -31.9023  -14.6321   20.1760 O   0  0  0  0  0  0
  -21.6646   -6.8888   21.4246 O   0  0  0  0  0  0
  -22.3502  -14.5545   20.6721 O   0  0  0  0  0  0
  -24.6296  -31.8602   23.2058 C   0  0  0  0  0  0
  -25.9150  -32.4772   23.8375 C   0  0  1  0  0  0
  -27.2015  -27.2918   20.1152 C   0  0  0  0  0  0
  -25.5970  -33.8577   24.2299 N   0  0  0  0  0  0
  -23.4209  -30.4915   21.5490 C   0  0  2  0  0  0
  -24.8621  -28.9547   20.1078 C   0  0  0  0  0  0
  -22.7466  -29.4669   22.4928 C   0  0  0  0  0  0
  -18.0283  -28.1394   22.8475 C   0  0  0  0  0  0
  -24.1488  -36.7275   23.2643 C   0  0  0  0  0  0
  -25.9690  -30.7815   21.3843 C   0  0  0  0  0  0
  -26.0374  -29.4125   20.7177 C   0  0  0  0  0  0
  -27.2114  -28.5941   20.7139 C   0  0  0  0  0  0
  -26.0017  -26.9163   19.4593 C   0  0  0  0  0  0
  -24.8486  -27.7126   19.4677 C   0  0  0  0  0  0
  -23.6335  -29.8360   20.1618 C   0  0  0  0  0  0
  -25.4114  -36.3075   24.0338 C   0  0  1  0  0  0
  -20.5883  -28.3712   23.1249 C   0  0  2  0  0  0
  -20.6768  -26.9434   22.5396 C   0  0  0  0  0  0
  -19.5762  -26.6388   21.5185 C   0  0  0  0  0  0
  -18.1936  -26.7941   22.1597 C   0  0  0  0  0  0
  -19.1537  -28.8865   23.2859 C   0  0  0  0  0  0
  -18.9463  -30.1458   23.8894 C   0  0  0  0  0  0
  -17.6466  -30.6598   24.0558 C   0  0  0  0  0  0
  -25.9060  -34.9450   23.5104 C   0  0  0  0  0  0
  -16.5352  -29.9093   23.6345 C   0  0  0  0  0  0
  -16.7269  -28.6503   23.0377 C   0  0  0  0  0  0
  -26.4515  -31.6594   25.0759 C   0  0  0  0  0  0
  -25.3743  -31.3734   26.1481 C   0  0  0  0  0  0
  -27.0383  -30.3017   24.6272 C   0  0  0  0  0  0
  -27.6074  -32.4345   25.7513 C   0  0  0  0  0  0
  -27.5579  -37.1790   24.8466 C   0  0  0  0  0  0
  -21.4189  -29.3072   22.3648 N   0  0  0  0  0  0
  -26.4281  -37.3775   23.9420 N   0  0  0  0  0  0
  -24.6918  -31.0612   22.1016 N   0  0  0  0  0  0
  -23.4178  -28.8205   23.3017 O   0  0  0  0  0  0
  -28.2720  -26.3719   20.1965 O   0  0  0  0  0  0
  -26.5614  -34.8914   22.4662 O   0  0  0  0  0  0
  -23.5458  -32.1416   23.7378 O   0  0  0  0  0  0
  -28.1690  -20.1534   21.1929 C   0  0  0  0  0  0
  -30.6278  -19.5114   20.1286 C   0  0  0  0  0  0
  -28.6488  -18.8013   21.3177 C   0  0  0  0  0  0
  -29.9110  -18.4432   20.7462 C   0  0  0  0  0  0
  -28.8971  -21.2182   20.5857 C   0  0  0  0  0  0
  -30.1573  -20.8519   20.0512 C   0  0  0  0  0  0
  -26.5190  -17.8939   22.3255 C   0  0  0  0  0  0
  -27.8298  -17.8032   22.0422 C   0  0  0  0  0  0
  -28.7983  -23.7039   20.3556 C   0  0  0  0  0  0
  -30.6389  -17.0794   20.8866 C   0  0  0  0  0  0
  -27.8832  -24.9413   20.0084 C   0  0  0  0  0  0
  -28.2714  -22.5125   20.4601 N   0  0  0  0  0  0
  -30.0468  -15.8418   20.7114 N   0  0  0  0  0  0
  -31.8448  -17.1824   21.1449 O   0  0  0  0  0  0
  -30.9256  -21.7797   19.4312 F   0  0  0  0  0  0
  -31.4510  -12.4778   19.1505 H   0  0  0  0  0  0
  -30.3086  -11.4268   19.9334 H   0  0  0  0  0  0
  -29.7577  -11.7297   17.4927 H   0  0  0  0  0  0
  -29.6379  -13.4570   17.7192 H   0  0  0  0  0  0
  -27.8561  -11.2927   18.8824 H   0  0  0  0  0  0
  -27.3633  -12.5598   17.7915 H   0  0  0  0  0  0
  -27.6356  -14.2581   19.4739 H   0  0  0  0  0  0
  -28.7061  -12.1789   21.4409 H   0  0  0  0  0  0
  -28.4419  -13.8738   21.7751 H   0  0  0  0  0  0
  -25.2764   -9.5702   22.4769 H   0  0  0  0  0  0
  -24.0015   -7.4636   22.7465 H   0  0  0  0  0  0
  -21.0849   -8.8763   19.8942 H   0  0  0  0  0  0
  -22.3691  -10.9677   19.6163 H   0  0  0  0  0  0
  -21.2002   -7.6159   23.9728 H   0  0  0  0  0  0
  -21.1472   -6.0527   25.9083 H   0  0  0  0  0  0
  -22.0601   -2.7616   23.2840 H   0  0  0  0  0  0
  -22.4088  -11.9874   22.4787 H   0  0  0  0  0  0
  -21.1087  -13.1222   22.2625 H   0  0  0  0  0  0
  -24.6543  -15.8465   20.5243 H   0  0  0  0  0  0
  -26.2709  -15.6351   20.0936 H   0  0  0  0  0  0
  -26.7220  -32.5425   23.1121 H   0  0  0  0  0  0
  -25.0178  -33.9720   25.0483 H   0  0  0  0  0  0
  -22.7175  -31.3147   21.4108 H   0  0  0  0  0  0
  -23.3766  -35.9592   23.3286 H   0  0  0  0  0  0
  -24.3579  -36.8905   22.2058 H   0  0  0  0  0  0
  -23.7217  -37.6464   23.6674 H   0  0  0  0  0  0
  -26.1143  -31.5494   20.6229 H   0  0  0  0  0  0
  -26.8440  -30.8174   22.0216 H   0  0  0  0  0  0
  -28.1061  -28.9368   21.2143 H   0  0  0  0  0  0
  -25.8948  -25.9764   18.9419 H   0  0  0  0  0  0
  -23.9513  -27.3565   18.9803 H   0  0  0  0  0  0
  -23.7510  -30.6160   19.4091 H   0  0  0  0  0  0
  -22.7517  -29.2679   19.8589 H   0  0  0  0  0  0
  -25.1288  -36.1914   25.0830 H   0  0  0  0  0  0
  -20.9970  -28.3287   24.1368 H   0  0  0  0  0  0
  -20.5648  -26.2332   23.3601 H   0  0  0  0  0  0
  -21.6645  -26.7454   22.1199 H   0  0  0  0  0  0
  -19.6920  -25.6289   21.1247 H   0  0  0  0  0  0
  -19.6702  -27.3170   20.6698 H   0  0  0  0  0  0
  -17.4205  -26.6692   21.4005 H   0  0  0  0  0  0
  -18.0339  -26.0082   22.8980 H   0  0  0  0  0  0
  -19.7941  -30.7263   24.2275 H   0  0  0  0  0  0
  -17.5034  -31.6290   24.5142 H   0  0  0  0  0  0
  -15.5358  -30.3001   23.7697 H   0  0  0  0  0  0
  -15.8659  -28.0816   22.7134 H   0  0  0  0  0  0
  -24.5976  -30.7004   25.7828 H   0  0  0  0  0  0
  -24.8865  -32.2886   26.4851 H   0  0  0  0  0  0
  -25.8086  -30.8988   27.0292 H   0  0  0  0  0  0
  -26.2991  -29.6736   24.1297 H   0  0  0  0  0  0
  -27.4046  -29.7314   25.4818 H   0  0  0  0  0  0
  -27.8869  -30.4274   23.9544 H   0  0  0  0  0  0
  -27.2705  -33.3682   26.2024 H   0  0  0  0  0  0
  -28.3911  -32.6840   25.0347 H   0  0  0  0  0  0
  -28.0721  -31.8515   26.5472 H   0  0  0  0  0  0
  -28.2585  -38.0100   24.7543 H   0  0  0  0  0  0
  -28.1085  -36.2636   24.6252 H   0  0  0  0  0  0
  -27.2311  -37.1374   25.8871 H   0  0  0  0  0  0
  -20.9364  -29.8780   21.6842 H   0  0  0  0  0  0
  -26.0158  -38.2846   24.1437 H   0  0  0  0  0  0
  -27.2034  -20.4048   21.6044 H   0  0  0  0  0  0
  -31.6015  -19.3065   19.7076 H   0  0  0  0  0  0
  -26.0263  -17.1074   22.8813 H   0  0  0  0  0  0
  -25.9057  -18.7275   22.0186 H   0  0  0  0  0  0
  -28.3356  -16.9232   22.4096 H   0  0  0  0  0  0
  -29.8674  -23.9039   20.4648 H   0  0  0  0  0  0
  -26.9663  -24.7732   20.5759 H   0  0  0  0  0  0
  -27.6369  -24.8056   18.9551 H   0  0  0  0  0  0
  -29.0430  -15.8193   20.6731 H   0  0  0  0  0  0
  1 25  1  0  0  0
  1 30  2  0  0  0
  1 83  1  0  0  0
  2  3  1  0  0  0
  2 25  1  0  0  0
  2 86  1  0  0  0
  2 87  1  0  0  0
  3  4  1  0  0  0
  3 88  1  0  0  0
  3 89  1  0  0  0
  4  5  1  0  0  0
  4 90  1  0  0  0
  4 91  1  0  0  0
  5  6  1  0  0  0
  5 26  1  0  0  0
  5 92  1  0  0  0
  6 25  1  0  0  0
  6 93  1  0  0  0
  6 94  1  0  0  0
  7  8  2  0  0  0
  7 26  1  0  0  0
  7 29  1  0  0  0
  8  9  1  0  0  0
  8 22  1  0  0  0
  9 10  1  0  0  0
  9 27  2  0  0  0
 10 11  2  0  0  0
 10 15  1  0  0  0
 11 12  1  0  0  0
 11 95  1  0  0  0
 12 13  2  0  0  0
 12 96  1  0  0  0
 13 14  1  0  0  0
 13 31  1  0  0  0
 14 15  2  0  0  0
 14 97  1  0  0  0
 15 98  1  0  0  0
 16 17  2  0  0  0
 16 21  1  0  0  0
 16 31  1  0  0  0
 17 18  1  0  0  0
 17 99  1  0  0  0
 18 19  2  0  0  0
 18100  1  0  0  0
 19 20  1  0  0  0
 19 24  1  0  0  0
 20 21  2  0  0  0
 20101  1  0  0  0
 21 23  1  0  0  0
 22 28  1  0  0  0
 22 32  2  0  0  0
 26 27  1  0  0  0
 28102  1  0  0  0
 28103  1  0  0  0
 29104  1  0  0  0
 29105  1  0  0  0
 33 34  1  0  0  0
 33 66  1  0  0  0
 33 70  2  0  0  0
 34 36  1  0  0  0
 34 59  1  0  0  0
 34106  1  0  0  0
 35 44  2  0  0  0
 35 45  1  0  0  0
 35 68  1  0  0  0
 36 56  1  0  0  0
 36107  1  0  0  0
 37 39  1  0  0  0
 37 47  1  0  0  0
 37 66  1  0  0  0
 37108  1  0  0  0
 38 43  2  0  0  0
 38 46  1  0  0  0
 38 47  1  0  0  0
 39 64  1  0  0  0
 39 67  2  0  0  0
 40 52  1  0  0  0
 40 53  2  0  0  0
 40 58  1  0  0  0
 41109  1  0  0  0
 41110  1  0  0  0
 41111  1  0  0  0
 41 48  1  0  0  0
 42 43  1  0  0  0
 42 66  1  0  0  0
 42112  1  0  0  0
 42113  1  0  0  0
 43 44  1  0  0  0
 44114  1  0  0  0
 45 46  2  0  0  0
 45115  1  0  0  0
 46116  1  0  0  0
 47117  1  0  0  0
 47118  1  0  0  0
 48 56  1  0  0  0
 48 65  1  0  0  0
 48119  1  0  0  0
 49 50  1  0  0  0
 49 53  1  0  0  0
 49 64  1  0  0  0
 49120  1  0  0  0
 50 51  1  0  0  0
 50121  1  0  0  0
 50122  1  0  0  0
 51 52  1  0  0  0
 51123  1  0  0  0
 51124  1  0  0  0
 52125  1  0  0  0
 52126  1  0  0  0
 53 54  1  0  0  0
 54 55  2  0  0  0
 54127  1  0  0  0
 55 57  1  0  0  0
 55128  1  0  0  0
 56 69  2  0  0  0
 57 58  2  0  0  0
 57129  1  0  0  0
 58130  1  0  0  0
 59 60  1  0  0  0
 59 61  1  0  0  0
 59 62  1  0  0  0
 60131  1  0  0  0
 60132  1  0  0  0
 60133  1  0  0  0
 61134  1  0  0  0
 61135  1  0  0  0
 61136  1  0  0  0
 62137  1  0  0  0
 62138  1  0  0  0
 62139  1  0  0  0
 63 65  1  0  0  0
 63140  1  0  0  0
 63141  1  0  0  0
 63142  1  0  0  0
 64143  1  0  0  0
 65144  1  0  0  0
 68 81  1  0  0  0
 71 73  2  0  0  0
 71 75  1  0  0  0
 71145  1  0  0  0
 72 74  2  0  0  0
 72 76  1  0  0  0
 72146  1  0  0  0
 73 74  1  0  0  0
 73 78  1  0  0  0
 74 80  1  0  0  0
 75 76  2  0  0  0
 75 82  1  0  0  0
 76 85  1  0  0  0
 77 78  2  0  0  0
 77147  1  0  0  0
 77148  1  0  0  0
 78149  1  0  0  0
 79 81  1  0  0  0
 79 82  2  0  0  0
 79150  1  0  0  0
 80 83  1  0  0  0
 80 84  2  0  0  0
 81151  1  0  0  0
 81152  1  0  0  0
 83153  1  0  0  0
M  ISO  4   1 100  68 101  81 101  83 100
M  END
> <chiral flag>
0

> <version>
0

> <s_m_source_file>
/data/baiqing/PycharmProjects/Reinvent-master-3.2/result/LINK_invent/BTK/process_docking_weight1_custom_product_contain_oxygen_bond_distance_aromatic_linkinvent_7_9_3/rearranged_h_0112.sdf

> <i_m_source_file_index>
29

> <r_mmod_Potential_Energy-OPLS-2005>
101.973983764648

> <r_mmod_Stretch_Energy-OPLS-2005>
91.898681640625

> <r_mmod_Bend_Energy-OPLS-2005>
181.491577148438

> <r_mmod_Torsional_Energy-OPLS-2005>
233.131042480469

> <r_mmod_Improper_Torsional_Energy-OPLS-2005>
6.61895942687988

> <r_mmod_Van_der_Waal_Energy-OPLS-2005>
169.586334228516

> <r_mmod_Electrostatic_Energy-OPLS-2005>
-428.739013671875

> <r_mmod_Solvation_Energy-OPLS-2005>
-219.997497558594

> <b_mmod_Minimization_Converged-OPLS-2005>
0

> <r_mmod_RMS_Derivative-OPLS-2005>
1.8789165019989

$$$$
30
                    3D
 Structure written by MMmdl.
159167  0  0  1  0            999 V2000
  -30.7622  -14.4416   20.4790 C   0  0  0  0  0  0
  -30.3980  -12.2622   19.4554 C   0  0  0  0  0  0
  -29.4980  -12.4832   18.2237 C   0  0  0  0  0  0
  -28.0172  -12.3634   18.6289 C   0  0  0  0  0  0
  -27.6610  -13.2211   19.8729 C   0  0  2  0  0  0
  -28.7008  -13.0585   21.0060 C   0  0  0  0  0  0
  -25.2574  -13.8183   20.5690 C   0  0  0  0  0  0
  -24.1843  -13.0446   20.9184 C   0  0  0  0  0  0
  -24.6403  -11.6923   20.8722 C   0  0  0  0  0  0
  -23.9072  -10.4294   21.0366 C   0  0  0  0  0  0
  -24.3629   -9.4212   21.9136 C   0  0  0  0  0  0
  -23.6307   -8.2257   22.0730 C   0  0  0  0  0  0
  -22.4285   -8.0282   21.3532 C   0  0  0  0  0  0
  -21.9920   -9.0260   20.4646 C   0  0  0  0  0  0
  -22.7245  -10.2132   20.3027 C   0  0  0  0  0  0
  -21.6865   -6.0701   22.5261 C   0  0  0  0  0  0
  -21.4003   -6.5614   23.8191 C   0  0  0  0  0  0
  -21.3662   -5.6782   24.9167 C   0  0  0  0  0  0
  -21.6069   -4.3049   24.7231 C   0  0  0  0  0  0
  -21.8815   -3.8116   23.4349 C   0  0  0  0  0  0
  -21.9198   -4.6922   22.3389 C   0  0  0  0  0  0
  -22.7864  -13.5238   21.1849 C   0  0  0  0  0  0
  -22.1668   -4.2088   21.0965 F   0  0  0  0  0  0
  -21.5656   -3.4541   25.7748 F   0  0  0  0  0  0
  -30.0390  -13.2916   20.4462 N   0  0  0  0  0  0
  -26.3023  -12.9404   20.3354 N   0  0  0  0  0  0
  -25.9329  -11.6546   20.5757 N   0  0  0  0  0  0
  -22.0528  -12.8212   22.0416 N   0  0  0  0  0  0
  -25.4274  -15.1884   20.4079 N   0  0  0  0  0  0
  -31.9440  -14.4578   20.1297 O   0  0  0  0  0  0
  -21.6658   -6.8871   21.4235 O   0  0  0  0  0  0
  -22.3538  -14.5535   20.6696 O   0  0  0  0  0  0
  -24.6128  -31.8711   23.2137 C   0  0  0  0  0  0
  -25.9050  -32.4821   23.8405 C   0  0  1  0  0  0
  -27.2123  -27.4492   20.0886 C   0  0  0  0  0  0
  -25.5946  -33.8614   24.2350 N   0  0  0  0  0  0
  -23.3963  -30.4992   21.5541 C   0  0  2  0  0  0
  -24.8389  -28.9800   20.1035 C   0  0  0  0  0  0
  -22.7401  -29.4669   22.4989 C   0  0  0  0  0  0
  -18.0264  -28.1378   22.8469 C   0  0  0  0  0  0
  -24.1500  -36.7291   23.2633 C   0  0  0  0  0  0
  -25.9273  -30.8401   21.3698 C   0  0  0  0  0  0
  -26.0001  -29.4817   20.7069 C   0  0  0  0  0  0
  -27.1934  -28.7229   20.6980 C   0  0  0  0  0  0
  -26.0380  -26.9721   19.4611 C   0  0  0  0  0  0
  -24.8521  -27.7250   19.4758 C   0  0  0  0  0  0
  -23.5988  -29.8415   20.1637 C   0  0  0  0  0  0
  -25.4110  -36.3089   24.0341 C   0  0  1  0  0  0
  -20.5858  -28.3645   23.1334 C   0  0  2  0  0  0
  -20.6743  -26.9378   22.5453 C   0  0  0  0  0  0
  -19.5767  -26.6384   21.5201 C   0  0  0  0  0  0
  -18.1903  -26.7951   22.1544 C   0  0  0  0  0  0
  -19.1511  -28.8829   23.2896 C   0  0  0  0  0  0
  -18.9438  -30.1428   23.8917 C   0  0  0  0  0  0
  -17.6442  -30.6583   24.0541 C   0  0  0  0  0  0
  -25.9034  -34.9468   23.5128 C   0  0  0  0  0  0
  -16.5330  -29.9066   23.6345 C   0  0  0  0  0  0
  -16.7250  -28.6486   23.0363 C   0  0  0  0  0  0
  -26.4497  -31.6591   25.0727 C   0  0  0  0  0  0
  -25.3769  -31.3732   26.1487 C   0  0  0  0  0  0
  -27.0272  -30.3003   24.6129 C   0  0  0  0  0  0
  -27.6125  -32.4273   25.7444 C   0  0  0  0  0  0
  -27.5604  -37.1766   24.8435 C   0  0  0  0  0  0
  -21.4130  -29.3010   22.3731 N   0  0  0  0  0  0
  -26.4292  -37.3773   23.9411 N   0  0  0  0  0  0
  -24.6626  -31.0843   22.1025 N   0  0  0  0  0  0
  -23.4196  -28.8218   23.3014 O   0  0  0  0  0  0
  -28.3417  -26.6609   20.1238 O   0  0  0  0  0  0
  -26.5557  -34.8902   22.4660 O   0  0  0  0  0  0
  -23.5336  -32.1453   23.7559 O   0  0  0  0  0  0
  -28.4824  -20.0094   20.4464 C   0  0  0  0  0  0
  -28.6949  -18.6218   20.2410 C   0  0  0  0  0  0
  -29.9305  -18.0602   20.6670 C   0  0  0  0  0  0
  -29.4665  -20.8319   21.0550 C   0  0  0  0  0  0
  -30.6219  -20.2272   21.5850 C   0  0  0  0  0  0
  -30.8500  -18.8488   21.3914 C   0  0  0  0  0  0
  -26.6968  -18.2968   18.7276 C   0  0  0  0  0  0
  -27.6978  -17.8219   19.4900 C   0  0  0  0  0  0
  -28.8484  -24.3143   20.0085 C   0  0  0  0  0  0
  -28.1103  -25.3441   20.4463 C   0  0  0  0  0  0
  -30.4460  -16.7644   20.1135 C   0  0  0  0  0  0
  -32.6305  -21.4055   21.4224 C   0  0  0  0  0  0
  -28.4785  -22.8625   20.2520 C   0  0  0  0  0  0
  -30.0849  -15.5914   20.6880 N   0  0  0  0  0  0
  -31.1722  -16.8634   19.1147 O   0  0  0  0  0  0
  -31.5475  -20.9947   22.2440 O   0  0  0  0  0  0
  -29.3880  -22.2103   21.1303 O   0  0  0  0  0  0
  -32.0139  -18.3106   21.8363 F   0  0  0  0  0  0
  -31.4484  -12.2891   19.1622 H   0  0  0  0  0  0
  -30.2427  -11.2676   19.8750 H   0  0  0  0  0  0
  -29.7347  -11.7548   17.4456 H   0  0  0  0  0  0
  -29.6881  -13.4686   17.7931 H   0  0  0  0  0  0
  -27.8263  -11.3111   18.8391 H   0  0  0  0  0  0
  -27.3716  -12.6308   17.7910 H   0  0  0  0  0  0
  -27.6954  -14.2613   19.5465 H   0  0  0  0  0  0
  -28.6510  -12.0566   21.4374 H   0  0  0  0  0  0
  -28.4873  -13.7498   21.8214 H   0  0  0  0  0  0
  -25.2765   -9.5714   22.4714 H   0  0  0  0  0  0
  -24.0009   -7.4666   22.7462 H   0  0  0  0  0  0
  -21.0833   -8.8809   19.8975 H   0  0  0  0  0  0
  -22.3690  -10.9678   19.6158 H   0  0  0  0  0  0
  -21.1974   -7.6122   23.9666 H   0  0  0  0  0  0
  -21.1501   -6.0517   25.9073 H   0  0  0  0  0  0
  -22.0583   -2.7574   23.2859 H   0  0  0  0  0  0
  -22.4176  -11.9855   22.4741 H   0  0  0  0  0  0
  -21.1167  -13.1260   22.2689 H   0  0  0  0  0  0
  -24.6581  -15.8429   20.4963 H   0  0  0  0  0  0
  -26.2790  -15.6249   20.0864 H   0  0  0  0  0  0
  -26.7110  -32.5531   23.1150 H   0  0  0  0  0  0
  -25.0208  -33.9790   25.0573 H   0  0  0  0  0  0
  -22.6820  -31.3150   21.4240 H   0  0  0  0  0  0
  -23.3774  -35.9609   23.3273 H   0  0  0  0  0  0
  -24.3621  -36.8924   22.2054 H   0  0  0  0  0  0
  -23.7240  -37.6484   23.6654 H   0  0  0  0  0  0
  -26.0545  -31.6185   20.6153 H   0  0  0  0  0  0
  -26.8093  -30.8741   21.9974 H   0  0  0  0  0  0
  -28.0883  -29.0978   21.1726 H   0  0  0  0  0  0
  -26.0284  -26.0083   18.9711 H   0  0  0  0  0  0
  -23.9612  -27.3418   18.9964 H   0  0  0  0  0  0
  -23.6871  -30.6190   19.4029 H   0  0  0  0  0  0
  -22.7256  -29.2514   19.8791 H   0  0  0  0  0  0
  -25.1290  -36.1946   25.0836 H   0  0  0  0  0  0
  -20.9931  -28.3207   24.1466 H   0  0  0  0  0  0
  -20.5585  -26.2254   23.3626 H   0  0  0  0  0  0
  -21.6627  -26.7388   22.1319 H   0  0  0  0  0  0
  -19.6919  -25.6283   21.1258 H   0  0  0  0  0  0
  -19.6799  -27.3168   20.6713 H   0  0  0  0  0  0
  -17.4240  -26.6795   21.3851 H   0  0  0  0  0  0
  -18.0209  -26.0056   22.8891 H   0  0  0  0  0  0
  -19.7907  -30.7217   24.2333 H   0  0  0  0  0  0
  -17.4998  -31.6284   24.5089 H   0  0  0  0  0  0
  -15.5319  -30.2948   23.7686 H   0  0  0  0  0  0
  -15.8657  -28.0781   22.7102 H   0  0  0  0  0  0
  -24.6133  -30.6801   25.7935 H   0  0  0  0  0  0
  -24.8693  -32.2848   26.4644 H   0  0  0  0  0  0
  -25.8182  -30.9257   27.0404 H   0  0  0  0  0  0
  -26.2782  -29.6798   24.1195 H   0  0  0  0  0  0
  -27.3993  -29.7231   25.4605 H   0  0  0  0  0  0
  -27.8666  -30.4247   23.9281 H   0  0  0  0  0  0
  -27.2810  -33.3563   26.2079 H   0  0  0  0  0  0
  -28.3887  -32.6840   25.0223 H   0  0  0  0  0  0
  -28.0852  -31.8353   26.5290 H   0  0  0  0  0  0
  -28.2613  -38.0075   24.7504 H   0  0  0  0  0  0
  -28.1113  -36.2613   24.6202 H   0  0  0  0  0  0
  -27.2364  -37.1360   25.8851 H   0  0  0  0  0  0
  -20.9266  -29.8698   21.6941 H   0  0  0  0  0  0
  -26.0199  -38.2852   24.1430 H   0  0  0  0  0  0
  -27.5642  -20.4525   20.0934 H   0  0  0  0  0  0
  -26.0194  -17.6182   18.2309 H   0  0  0  0  0  0
  -26.5213  -19.3512   18.5692 H   0  0  0  0  0  0
  -27.7690  -16.7468   19.5801 H   0  0  0  0  0  0
  -29.7328  -24.4929   19.4154 H   0  0  0  0  0  0
  -27.2349  -25.2069   21.0703 H   0  0  0  0  0  0
  -33.3494  -21.9717   22.0162 H   0  0  0  0  0  0
  -32.2866  -22.0555   20.6152 H   0  0  0  0  0  0
  -33.1534  -20.5501   20.9907 H   0  0  0  0  0  0
  -28.4588  -22.3900   19.2681 H   0  0  0  0  0  0
  -27.4734  -22.7981   20.6688 H   0  0  0  0  0  0
  -29.2808  -15.5786   21.2914 H   0  0  0  0  0  0
  1 25  1  0  0  0
  1 30  2  0  0  0
  1 84  1  0  0  0
  2  3  1  0  0  0
  2 25  1  0  0  0
  2 89  1  0  0  0
  2 90  1  0  0  0
  3  4  1  0  0  0
  3 91  1  0  0  0
  3 92  1  0  0  0
  4  5  1  0  0  0
  4 93  1  0  0  0
  4 94  1  0  0  0
  5  6  1  0  0  0
  5 26  1  0  0  0
  5 95  1  0  0  0
  6 25  1  0  0  0
  6 96  1  0  0  0
  6 97  1  0  0  0
  7  8  2  0  0  0
  7 26  1  0  0  0
  7 29  1  0  0  0
  8  9  1  0  0  0
  8 22  1  0  0  0
  9 10  1  0  0  0
  9 27  2  0  0  0
 10 11  2  0  0  0
 10 15  1  0  0  0
 11 12  1  0  0  0
 11 98  1  0  0  0
 12 13  2  0  0  0
 12 99  1  0  0  0
 13 14  1  0  0  0
 13 31  1  0  0  0
 14 15  2  0  0  0
 14100  1  0  0  0
 15101  1  0  0  0
 16 17  2  0  0  0
 16 21  1  0  0  0
 16 31  1  0  0  0
 17 18  1  0  0  0
 17102  1  0  0  0
 18 19  2  0  0  0
 18103  1  0  0  0
 19 20  1  0  0  0
 19 24  1  0  0  0
 20 21  2  0  0  0
 20104  1  0  0  0
 21 23  1  0  0  0
 22 28  1  0  0  0
 22 32  2  0  0  0
 26 27  1  0  0  0
 28105  1  0  0  0
 28106  1  0  0  0
 29107  1  0  0  0
 29108  1  0  0  0
 33 34  1  0  0  0
 33 66  1  0  0  0
 33 70  2  0  0  0
 34 36  1  0  0  0
 34 59  1  0  0  0
 34109  1  0  0  0
 35 44  2  0  0  0
 35 45  1  0  0  0
 35 68  1  0  0  0
 36 56  1  0  0  0
 36110  1  0  0  0
 37 39  1  0  0  0
 37 47  1  0  0  0
 37 66  1  0  0  0
 37111  1  0  0  0
 38 43  2  0  0  0
 38 46  1  0  0  0
 38 47  1  0  0  0
 39 64  1  0  0  0
 39 67  2  0  0  0
 40 52  1  0  0  0
 40 53  2  0  0  0
 40 58  1  0  0  0
 41112  1  0  0  0
 41113  1  0  0  0
 41114  1  0  0  0
 41 48  1  0  0  0
 42 43  1  0  0  0
 42 66  1  0  0  0
 42115  1  0  0  0
 42116  1  0  0  0
 43 44  1  0  0  0
 44117  1  0  0  0
 45 46  2  0  0  0
 45118  1  0  0  0
 46119  1  0  0  0
 47120  1  0  0  0
 47121  1  0  0  0
 48 56  1  0  0  0
 48 65  1  0  0  0
 48122  1  0  0  0
 49 50  1  0  0  0
 49 53  1  0  0  0
 49 64  1  0  0  0
 49123  1  0  0  0
 50 51  1  0  0  0
 50124  1  0  0  0
 50125  1  0  0  0
 51 52  1  0  0  0
 51126  1  0  0  0
 51127  1  0  0  0
 52128  1  0  0  0
 52129  1  0  0  0
 53 54  1  0  0  0
 54 55  2  0  0  0
 54130  1  0  0  0
 55 57  1  0  0  0
 55131  1  0  0  0
 56 69  2  0  0  0
 57 58  2  0  0  0
 57132  1  0  0  0
 58133  1  0  0  0
 59 60  1  0  0  0
 59 61  1  0  0  0
 59 62  1  0  0  0
 60134  1  0  0  0
 60135  1  0  0  0
 60136  1  0  0  0
 61137  1  0  0  0
 61138  1  0  0  0
 61139  1  0  0  0
 62140  1  0  0  0
 62141  1  0  0  0
 62142  1  0  0  0
 63 65  1  0  0  0
 63143  1  0  0  0
 63144  1  0  0  0
 63145  1  0  0  0
 64146  1  0  0  0
 65147  1  0  0  0
 68 80  1  0  0  0
 71 72  2  0  0  0
 71 74  1  0  0  0
 71148  1  0  0  0
 72 73  1  0  0  0
 72 78  1  0  0  0
 73 76  2  0  0  0
 73 81  1  0  0  0
 74 75  2  0  0  0
 74 87  1  0  0  0
 75 76  1  0  0  0
 75 86  1  0  0  0
 76 88  1  0  0  0
 77 78  2  0  0  0
 77149  1  0  0  0
 77150  1  0  0  0
 78151  1  0  0  0
 79 80  2  0  0  0
 79 83  1  0  0  0
 79152  1  0  0  0
 80153  1  0  0  0
 81 84  1  0  0  0
 81 85  2  0  0  0
 82 86  1  0  0  0
 82154  1  0  0  0
 82155  1  0  0  0
 82156  1  0  0  0
 83 87  1  0  0  0
 83157  1  0  0  0
 83158  1  0  0  0
 84159  1  0  0  0
M  ISO  4   1 100  68 101  80 101  84 100
M  END
> <chiral flag>
0

> <version>
0

> <s_m_source_file>
/data/baiqing/PycharmProjects/Reinvent-master-3.2/result/LINK_invent/BTK/process_docking_weight1_custom_product_contain_oxygen_bond_distance_aromatic_linkinvent_7_9_3/rearranged_h_0112.sdf

> <i_m_source_file_index>
30

> <r_mmod_Potential_Energy-OPLS-2005>
54.179027557373

> <r_mmod_Stretch_Energy-OPLS-2005>
35.9592247009277

> <r_mmod_Bend_Energy-OPLS-2005>
102.268074035645

> <r_mmod_Torsional_Energy-OPLS-2005>
314.215240478516

> <r_mmod_Improper_Torsional_Energy-OPLS-2005>
8.42172718048096

> <r_mmod_Van_der_Waal_Energy-OPLS-2005>
174.439422607422

> <r_mmod_Electrostatic_Energy-OPLS-2005>
-377.072082519531

> <r_mmod_Solvation_Energy-OPLS-2005>
-228.655899047852

> <b_mmod_Minimization_Converged-OPLS-2005>
0

> <r_mmod_RMS_Derivative-OPLS-2005>
3.66639685630798

$$$$
31
                    3D
 Structure written by MMmdl.
164172  0  0  1  0            999 V2000
  -30.6485  -14.7882   20.3521 C   0  0  0  0  0  0
  -30.4355  -12.4649   19.4446 C   0  0  0  0  0  0
  -29.4767  -12.3115   18.2360 C   0  0  0  0  0  0
  -28.0105  -12.2276   18.6811 C   0  0  0  0  0  0
  -27.6302  -13.2171   19.8145 C   0  0  2  0  0  0
  -28.6955  -13.2579   20.9302 C   0  0  0  0  0  0
  -25.2549  -13.8216   20.5715 C   0  0  0  0  0  0
  -24.1793  -13.0512   20.9228 C   0  0  0  0  0  0
  -24.6341  -11.6962   20.8814 C   0  0  0  0  0  0
  -23.9023  -10.4328   21.0457 C   0  0  0  0  0  0
  -24.3583   -9.4216   21.9196 C   0  0  0  0  0  0
  -23.6269   -8.2242   22.0757 C   0  0  0  0  0  0
  -22.4247   -8.0291   21.3557 C   0  0  0  0  0  0
  -21.9891   -9.0271   20.4655 C   0  0  0  0  0  0
  -22.7212  -10.2157   20.3083 C   0  0  0  0  0  0
  -21.6844   -6.0749   22.5299 C   0  0  0  0  0  0
  -21.4008   -6.5644   23.8230 C   0  0  0  0  0  0
  -21.3652   -5.6790   24.9182 C   0  0  0  0  0  0
  -21.6034   -4.3052   24.7226 C   0  0  0  0  0  0
  -21.8810   -3.8155   23.4342 C   0  0  0  0  0  0
  -21.9175   -4.6975   22.3408 C   0  0  0  0  0  0
  -22.7824  -13.5338   21.1861 C   0  0  0  0  0  0
  -22.1636   -4.2162   21.0980 F   0  0  0  0  0  0
  -21.5623   -3.4534   25.7735 F   0  0  0  0  0  0
  -29.9735  -13.5854   20.2910 N   0  0  0  0  0  0
  -26.2927  -12.9391   20.3300 N   0  0  0  0  0  0
  -25.9264  -11.6570   20.5858 N   0  0  0  0  0  0
  -22.0419  -12.8376   22.0395 N   0  0  0  0  0  0
  -25.4391  -15.1909   20.4042 N   0  0  0  0  0  0
  -31.8816  -14.7831   20.3063 O   0  0  0  0  0  0
  -21.6620   -6.8887   21.4249 O   0  0  0  0  0  0
  -22.3551  -14.5648   20.6682 O   0  0  0  0  0  0
  -24.6274  -31.8565   23.2012 C   0  0  0  0  0  0
  -25.9104  -32.4746   23.8342 C   0  0  1  0  0  0
  -27.2148  -27.2876   20.1362 C   0  0  0  0  0  0
  -25.5930  -33.8545   24.2280 N   0  0  0  0  0  0
  -23.4250  -30.4800   21.5417 C   0  0  2  0  0  0
  -24.8722  -28.9290   20.1098 C   0  0  0  0  0  0
  -22.7470  -29.4629   22.4917 C   0  0  0  0  0  0
  -18.0304  -28.1372   22.8452 C   0  0  0  0  0  0
  -24.1499  -36.7281   23.2639 C   0  0  0  0  0  0
  -25.9675  -30.7797   21.3746 C   0  0  0  0  0  0
  -26.0426  -29.4039   20.7176 C   0  0  0  0  0  0
  -27.2210  -28.5965   20.7166 C   0  0  0  0  0  0
  -26.0289  -26.8719   19.4977 C   0  0  0  0  0  0
  -24.8700  -27.6723   19.4856 C   0  0  0  0  0  0
  -23.6434  -29.8138   20.1566 C   0  0  0  0  0  0
  -25.4122  -36.3055   24.0330 C   0  0  1  0  0  0
  -20.5890  -28.3719   23.1256 C   0  0  2  0  0  0
  -20.6810  -26.9430   22.5389 C   0  0  0  0  0  0
  -19.5785  -26.6406   21.5199 C   0  0  0  0  0  0
  -18.1964  -26.7922   22.1599 C   0  0  0  0  0  0
  -19.1528  -28.8867   23.2845 C   0  0  0  0  0  0
  -18.9456  -30.1468   23.8858 C   0  0  0  0  0  0
  -17.6442  -30.6582   24.0524 C   0  0  0  0  0  0
  -25.9046  -34.9424   23.5108 C   0  0  0  0  0  0
  -16.5347  -29.9047   23.6323 C   0  0  0  0  0  0
  -16.7285  -28.6460   23.0348 C   0  0  0  0  0  0
  -26.4496  -31.6549   25.0705 C   0  0  0  0  0  0
  -25.3740  -31.3712   26.1449 C   0  0  0  0  0  0
  -27.0313  -30.2962   24.6169 C   0  0  0  0  0  0
  -27.6039  -32.4308   25.7489 C   0  0  0  0  0  0
  -27.5588  -37.1805   24.8468 C   0  0  0  0  0  0
  -21.4180  -29.3086   22.3652 N   0  0  0  0  0  0
  -26.4290  -37.3755   23.9413 N   0  0  0  0  0  0
  -24.6925  -31.0567   22.0965 N   0  0  0  0  0  0
  -23.4155  -28.8167   23.3031 O   0  0  0  0  0  0
  -28.2949  -26.3875   20.1715 O   0  0  0  0  0  0
  -26.5601  -34.8891   22.4658 O   0  0  0  0  0  0
  -23.5422  -32.1358   23.7335 O   0  0  0  0  0  0
  -28.8255  -17.4720   21.3665 C   0  0  0  0  0  0
  -29.8939  -19.7914   20.2147 C   0  0  0  0  0  0
  -28.3952  -18.7701   21.7981 C   0  0  0  0  0  0
  -28.9004  -19.9782   21.2036 C   0  0  0  0  0  0
  -29.7976  -17.2662   20.3596 C   0  0  0  0  0  0
  -30.3546  -18.4841   19.8118 C   0  0  0  0  0  0
  -26.6363  -17.8598   23.3867 C   0  0  0  0  0  0
  -27.3752  -18.8585   22.8760 C   0  0  0  0  0  0
  -28.3692  -22.5284   21.5254 C   0  0  0  0  0  0
  -28.8827  -16.4785   17.6013 C   0  0  0  0  0  0
  -31.6373  -19.4648   18.0151 C   0  0  0  0  0  0
  -28.6587  -23.6379   20.4358 C   0  0  0  0  0  0
  -30.1143  -15.8862   18.3083 C   0  0  0  0  0  0
  -28.0440  -25.0814   20.8564 C   0  0  0  0  0  0
  -28.4524  -21.2383   21.7569 N   0  0  0  0  0  0
  -30.0107  -15.8990   19.7863 N   0  0  0  0  0  0
  -31.3847  -18.3780   18.9015 O   0  0  0  0  0  0
  -31.4535  -12.6136   19.0809 H   0  0  0  0  0  0
  -30.4591  -11.5508   20.0380 H   0  0  0  0  0  0
  -29.7339  -11.3950   17.6999 H   0  0  0  0  0  0
  -29.5791  -13.0848   17.4862 H   0  0  0  0  0  0
  -27.8623  -11.2052   19.0310 H   0  0  0  0  0  0
  -27.3415  -12.3449   17.8264 H   0  0  0  0  0  0
  -27.5949  -14.2012   19.3494 H   0  0  0  0  0  0
  -28.7635  -12.3074   21.4584 H   0  0  0  0  0  0
  -28.4363  -14.0180   21.6694 H   0  0  0  0  0  0
  -25.2720   -9.5696   22.4767 H   0  0  0  0  0  0
  -23.9972   -7.4644   22.7491 H   0  0  0  0  0  0
  -21.0796   -8.8792   19.8977 H   0  0  0  0  0  0
  -22.3654  -10.9693   19.6190 H   0  0  0  0  0  0
  -21.2015   -7.6149   23.9743 H   0  0  0  0  0  0
  -21.1470   -6.0520   25.9092 H   0  0  0  0  0  0
  -22.0590   -2.7625   23.2843 H   0  0  0  0  0  0
  -22.3978  -12.0031   22.4815 H   0  0  0  0  0  0
  -21.1055  -13.1482   22.2559 H   0  0  0  0  0  0
  -24.6914  -15.8679   20.5066 H   0  0  0  0  0  0
  -26.3037  -15.6039   20.0794 H   0  0  0  0  0  0
  -26.7167  -32.5407   23.1085 H   0  0  0  0  0  0
  -25.0087  -33.9691   25.0443 H   0  0  0  0  0  0
  -22.7179  -31.2973   21.3931 H   0  0  0  0  0  0
  -23.3745  -35.9631   23.3286 H   0  0  0  0  0  0
  -24.3595  -36.8912   22.2055 H   0  0  0  0  0  0
  -23.7276  -37.6493   23.6662 H   0  0  0  0  0  0
  -26.0988  -31.5418   20.6051 H   0  0  0  0  0  0
  -26.8469  -30.8322   22.0050 H   0  0  0  0  0  0
  -28.1202  -28.9525   21.1996 H   0  0  0  0  0  0
  -25.9874  -25.9019   19.0193 H   0  0  0  0  0  0
  -23.9734  -27.3046   19.0063 H   0  0  0  0  0  0
  -23.7694  -30.5890   19.4006 H   0  0  0  0  0  0
  -22.7633  -29.2437   19.8502 H   0  0  0  0  0  0
  -25.1312  -36.1900   25.0826 H   0  0  0  0  0  0
  -20.9984  -28.3320   24.1383 H   0  0  0  0  0  0
  -20.5773  -26.2333   23.3604 H   0  0  0  0  0  0
  -21.6668  -26.7508   22.1116 H   0  0  0  0  0  0
  -19.6929  -25.6327   21.1199 H   0  0  0  0  0  0
  -19.6723  -27.3227   20.6732 H   0  0  0  0  0  0
  -17.4234  -26.6654   21.4006 H   0  0  0  0  0  0
  -18.0373  -26.0055   22.9005 H   0  0  0  0  0  0
  -19.7931  -30.7287   24.2186 H   0  0  0  0  0  0
  -17.4994  -31.6277   24.5098 H   0  0  0  0  0  0
  -15.5338  -30.2927   23.7680 H   0  0  0  0  0  0
  -15.8681  -28.0783   22.7081 H   0  0  0  0  0  0
  -24.5910  -30.7039   25.7837 H   0  0  0  0  0  0
  -24.8911  -32.2871   26.4882 H   0  0  0  0  0  0
  -25.8083  -30.8926   27.0238 H   0  0  0  0  0  0
  -26.2878  -29.6743   24.1161 H   0  0  0  0  0  0
  -27.3962  -29.7209   25.4690 H   0  0  0  0  0  0
  -27.8781  -30.4252   23.9419 H   0  0  0  0  0  0
  -27.2629  -33.3631   26.2035 H   0  0  0  0  0  0
  -28.3859  -32.6860   25.0316 H   0  0  0  0  0  0
  -28.0680  -31.8446   26.5438 H   0  0  0  0  0  0
  -28.2598  -38.0109   24.7497 H   0  0  0  0  0  0
  -28.1089  -36.2633   24.6309 H   0  0  0  0  0  0
  -27.2290  -37.1470   25.8867 H   0  0  0  0  0  0
  -20.9368  -29.8775   21.6826 H   0  0  0  0  0  0
  -26.0158  -38.2833   24.1400 H   0  0  0  0  0  0
  -28.3789  -16.5923   21.8001 H   0  0  0  0  0  0
  -30.3366  -20.6840   19.7985 H   0  0  0  0  0  0
  -25.9342  -18.0653   24.1810 H   0  0  0  0  0  0
  -26.6986  -16.8389   23.0470 H   0  0  0  0  0  0
  -27.2059  -19.8316   23.3139 H   0  0  0  0  0  0
  -27.9199  -23.0583   22.3696 H   0  0  0  0  0  0
  -28.8207  -17.5617   17.7020 H   0  0  0  0  0  0
  -27.9559  -16.0533   17.9847 H   0  0  0  0  0  0
  -28.9222  -16.2572   16.5355 H   0  0  0  0  0  0
  -30.7225  -19.8404   17.5512 H   0  0  0  0  0  0
  -32.2903  -19.1223   17.2106 H   0  0  0  0  0  0
  -32.1402  -20.2898   18.5187 H   0  0  0  0  0  0
  -28.2407  -23.3108   19.4836 H   0  0  0  0  0  0
  -29.7369  -23.7207   20.3073 H   0  0  0  0  0  0
  -31.0313  -16.3531   17.9619 H   0  0  0  0  0  0
  -30.2579  -14.8918   17.9217 H   0  0  0  0  0  0
  -28.3811  -25.2739   21.8764 H   0  0  0  0  0  0
  -26.9691  -24.9334   20.9676 H   0  0  0  0  0  0
  1 25  1  0  0  0
  1 30  2  0  0  0
  1 86  1  0  0  0
  2  3  1  0  0  0
  2 25  1  0  0  0
  2 88  1  0  0  0
  2 89  1  0  0  0
  3  4  1  0  0  0
  3 90  1  0  0  0
  3 91  1  0  0  0
  4  5  1  0  0  0
  4 92  1  0  0  0
  4 93  1  0  0  0
  5  6  1  0  0  0
  5 26  1  0  0  0
  5 94  1  0  0  0
  6 25  1  0  0  0
  6 95  1  0  0  0
  6 96  1  0  0  0
  7  8  2  0  0  0
  7 26  1  0  0  0
  7 29  1  0  0  0
  8  9  1  0  0  0
  8 22  1  0  0  0
  9 10  1  0  0  0
  9 27  2  0  0  0
 10 11  2  0  0  0
 10 15  1  0  0  0
 11 12  1  0  0  0
 11 97  1  0  0  0
 12 13  2  0  0  0
 12 98  1  0  0  0
 13 14  1  0  0  0
 13 31  1  0  0  0
 14 15  2  0  0  0
 14 99  1  0  0  0
 15100  1  0  0  0
 16 17  2  0  0  0
 16 21  1  0  0  0
 16 31  1  0  0  0
 17 18  1  0  0  0
 17101  1  0  0  0
 18 19  2  0  0  0
 18102  1  0  0  0
 19 20  1  0  0  0
 19 24  1  0  0  0
 20 21  2  0  0  0
 20103  1  0  0  0
 21 23  1  0  0  0
 22 28  1  0  0  0
 22 32  2  0  0  0
 26 27  1  0  0  0
 28104  1  0  0  0
 28105  1  0  0  0
 29106  1  0  0  0
 29107  1  0  0  0
 33 34  1  0  0  0
 33 66  1  0  0  0
 33 70  2  0  0  0
 34 36  1  0  0  0
 34 59  1  0  0  0
 34108  1  0  0  0
 35 44  2  0  0  0
 35 45  1  0  0  0
 35 68  1  0  0  0
 36 56  1  0  0  0
 36109  1  0  0  0
 37 39  1  0  0  0
 37 47  1  0  0  0
 37 66  1  0  0  0
 37110  1  0  0  0
 38 43  2  0  0  0
 38 46  1  0  0  0
 38 47  1  0  0  0
 39 64  1  0  0  0
 39 67  2  0  0  0
 40 52  1  0  0  0
 40 53  2  0  0  0
 40 58  1  0  0  0
 41111  1  0  0  0
 41112  1  0  0  0
 41113  1  0  0  0
 41 48  1  0  0  0
 42 43  1  0  0  0
 42 66  1  0  0  0
 42114  1  0  0  0
 42115  1  0  0  0
 43 44  1  0  0  0
 44116  1  0  0  0
 45 46  2  0  0  0
 45117  1  0  0  0
 46118  1  0  0  0
 47119  1  0  0  0
 47120  1  0  0  0
 48 56  1  0  0  0
 48 65  1  0  0  0
 48121  1  0  0  0
 49 50  1  0  0  0
 49 53  1  0  0  0
 49 64  1  0  0  0
 49122  1  0  0  0
 50 51  1  0  0  0
 50123  1  0  0  0
 50124  1  0  0  0
 51 52  1  0  0  0
 51125  1  0  0  0
 51126  1  0  0  0
 52127  1  0  0  0
 52128  1  0  0  0
 53 54  1  0  0  0
 54 55  2  0  0  0
 54129  1  0  0  0
 55 57  1  0  0  0
 55130  1  0  0  0
 56 69  2  0  0  0
 57 58  2  0  0  0
 57131  1  0  0  0
 58132  1  0  0  0
 59 60  1  0  0  0
 59 61  1  0  0  0
 59 62  1  0  0  0
 60133  1  0  0  0
 60134  1  0  0  0
 60135  1  0  0  0
 61136  1  0  0  0
 61137  1  0  0  0
 61138  1  0  0  0
 62139  1  0  0  0
 62140  1  0  0  0
 62141  1  0  0  0
 63 65  1  0  0  0
 63142  1  0  0  0
 63143  1  0  0  0
 63144  1  0  0  0
 64145  1  0  0  0
 65146  1  0  0  0
 68 84  1  0  0  0
 71 73  2  0  0  0
 71 75  1  0  0  0
 71147  1  0  0  0
 72 74  2  0  0  0
 72 76  1  0  0  0
 72148  1  0  0  0
 73 74  1  0  0  0
 73 78  1  0  0  0
 74 85  1  0  0  0
 75 76  2  0  0  0
 75 86  1  0  0  0
 76 87  1  0  0  0
 77 78  2  0  0  0
 77149  1  0  0  0
 77150  1  0  0  0
 78151  1  0  0  0
 79 82  1  0  0  0
 79 85  2  0  0  0
 79152  1  0  0  0
 80 83  1  0  0  0
 80153  1  0  0  0
 80154  1  0  0  0
 80155  1  0  0  0
 81 87  1  0  0  0
 81156  1  0  0  0
 81157  1  0  0  0
 81158  1  0  0  0
 82 84  1  0  0  0
 82159  1  0  0  0
 82160  1  0  0  0
 83 86  1  0  0  0
 83161  1  0  0  0
 83162  1  0  0  0
 84163  1  0  0  0
 84164  1  0  0  0
M  ISO  4   1 100  68 101  84 101  86 100
M  END
> <chiral flag>
0

> <version>
0

> <s_m_source_file>
/data/baiqing/PycharmProjects/Reinvent-master-3.2/result/LINK_invent/BTK/process_docking_weight1_custom_product_contain_oxygen_bond_distance_aromatic_linkinvent_7_9_3/rearranged_h_0112.sdf

> <i_m_source_file_index>
31

> <r_mmod_Potential_Energy-OPLS-2005>
539.921508789062

> <r_mmod_Stretch_Energy-OPLS-2005>
118.099426269531

> <r_mmod_Bend_Energy-OPLS-2005>
286.398956298828

> <r_mmod_Torsional_Energy-OPLS-2005>
351.769226074219

> <r_mmod_Improper_Torsional_Energy-OPLS-2005>
28.9478302001953

> <r_mmod_Van_der_Waal_Energy-OPLS-2005>
159.190582275391

> <r_mmod_Electrostatic_Energy-OPLS-2005>
-315.237060546875

> <r_mmod_Solvation_Energy-OPLS-2005>
-203.328826904297

> <b_mmod_Minimization_Converged-OPLS-2005>
0

> <r_mmod_RMS_Derivative-OPLS-2005>
3.88890266418457

$$$$
32
                    3D
 Structure written by MMmdl.
169178  0  0  1  0            999 V2000
  -30.6233  -14.6909   20.4757 C   0  0  0  0  0  0
  -30.4411  -12.4269   19.4529 C   0  0  0  0  0  0
  -29.5098  -12.5242   18.2243 C   0  0  0  0  0  0
  -28.0318  -12.3541   18.6323 C   0  0  0  0  0  0
  -27.6477  -13.2205   19.8602 C   0  0  2  0  0  0
  -28.7007  -13.1110   20.9882 C   0  0  0  0  0  0
  -25.2420  -13.8033   20.5708 C   0  0  0  0  0  0
  -24.1758  -13.0288   20.9242 C   0  0  0  0  0  0
  -24.6411  -11.6806   20.8780 C   0  0  0  0  0  0
  -23.9092  -10.4213   21.0432 C   0  0  0  0  0  0
  -24.3634   -9.4137   21.9215 C   0  0  0  0  0  0
  -23.6289   -8.2190   22.0766 C   0  0  0  0  0  0
  -22.4266   -8.0263   21.3554 C   0  0  0  0  0  0
  -21.9924   -9.0232   20.4649 C   0  0  0  0  0  0
  -22.7274  -10.2090   20.3065 C   0  0  0  0  0  0
  -21.6826   -6.0740   22.5301 C   0  0  0  0  0  0
  -21.3986   -6.5642   23.8238 C   0  0  0  0  0  0
  -21.3641   -5.6793   24.9198 C   0  0  0  0  0  0
  -21.6049   -4.3061   24.7242 C   0  0  0  0  0  0
  -21.8818   -3.8157   23.4360 C   0  0  0  0  0  0
  -21.9184   -4.6974   22.3417 C   0  0  0  0  0  0
  -22.7783  -13.5108   21.1871 C   0  0  0  0  0  0
  -22.1661   -4.2156   21.0995 F   0  0  0  0  0  0
  -21.5632   -3.4542   25.7751 F   0  0  0  0  0  0
  -30.0112  -13.4619   20.4153 N   0  0  0  0  0  0
  -26.2944  -12.9322   20.3322 N   0  0  0  0  0  0
  -25.9347  -11.6465   20.5781 N   0  0  0  0  0  0
  -22.0412  -12.8135   22.0439 N   0  0  0  0  0  0
  -25.3747  -15.1731   20.4093 N   0  0  0  0  0  0
  -31.8054  -14.8297   20.1447 O   0  0  0  0  0  0
  -21.6621   -6.8875   21.4258 O   0  0  0  0  0  0
  -22.3507  -14.5440   20.6728 O   0  0  0  0  0  0
  -24.6277  -31.8563   23.2029 C   0  0  0  0  0  0
  -25.9138  -32.4740   23.8366 C   0  0  1  0  0  0
  -27.2297  -27.3131   20.1301 C   0  0  0  0  0  0
  -25.5959  -33.8540   24.2302 N   0  0  0  0  0  0
  -23.4213  -30.4814   21.5409 C   0  0  2  0  0  0
  -24.8693  -28.9295   20.1153 C   0  0  0  0  0  0
  -22.7456  -29.4652   22.4916 C   0  0  0  0  0  0
  -18.0276  -28.1393   22.8475 C   0  0  0  0  0  0
  -24.1482  -36.7257   23.2652 C   0  0  0  0  0  0
  -25.9621  -30.7899   21.3705 C   0  0  0  0  0  0
  -26.0387  -29.4151   20.7161 C   0  0  0  0  0  0
  -27.2237  -28.6190   20.7105 C   0  0  0  0  0  0
  -26.0406  -26.8835   19.4994 C   0  0  0  0  0  0
  -24.8724  -27.6687   19.4977 C   0  0  0  0  0  0
  -23.6366  -29.8094   20.1593 C   0  0  0  0  0  0
  -25.4107  -36.3056   24.0352 C   0  0  1  0  0  0
  -20.5876  -28.3718   23.1253 C   0  0  2  0  0  0
  -20.6759  -26.9433   22.5392 C   0  0  0  0  0  0
  -19.5744  -26.6385   21.5192 C   0  0  0  0  0  0
  -18.1924  -26.7938   22.1599 C   0  0  0  0  0  0
  -19.1525  -28.8865   23.2861 C   0  0  0  0  0  0
  -18.9454  -30.1457   23.8905 C   0  0  0  0  0  0
  -17.6456  -30.6600   24.0555 C   0  0  0  0  0  0
  -25.9049  -34.9425   23.5110 C   0  0  0  0  0  0
  -16.5346  -29.9092   23.6343 C   0  0  0  0  0  0
  -16.7262  -28.6498   23.0380 C   0  0  0  0  0  0
  -26.4539  -31.6552   25.0727 C   0  0  0  0  0  0
  -25.3805  -31.3621   26.1458 C   0  0  0  0  0  0
  -27.0440  -30.3005   24.6190 C   0  0  0  0  0  0
  -27.6088  -32.4306   25.7510 C   0  0  0  0  0  0
  -27.5568  -37.1785   24.8471 C   0  0  0  0  0  0
  -21.4172  -29.3066   22.3631 N   0  0  0  0  0  0
  -26.4273  -37.3764   23.9430 N   0  0  0  0  0  0
  -24.6889  -31.0596   22.0952 N   0  0  0  0  0  0
  -23.4158  -28.8194   23.3018 O   0  0  0  0  0  0
  -28.3450  -26.4609   20.1514 O   0  0  0  0  0  0
  -26.5573  -34.8895   22.4649 O   0  0  0  0  0  0
  -23.5443  -32.1357   23.7365 O   0  0  0  0  0  0
  -31.1479  -19.3853   20.8954 C   0  0  0  0  0  0
  -31.0955  -17.9559   20.9618 C   0  0  0  0  0  0
  -28.9212  -19.4653   20.0409 C   0  0  0  0  0  0
  -28.8653  -18.0369   20.0802 C   0  0  0  0  0  0
  -30.0648  -20.1971   20.4349 C   0  0  0  0  0  0
  -29.9469  -17.2275   20.5591 C   0  0  0  0  0  0
  -29.0513  -23.9140   20.0473 C   0  0  0  0  0  0
  -29.2090  -22.6661   20.6449 C   0  0  0  0  0  0
  -31.2567  -22.3395   18.1705 C   0  0  0  0  0  0
  -27.0980  -16.1860   17.3626 C   0  0  0  0  0  0
  -27.6800  -17.1963   18.0270 C   0  0  0  0  0  0
  -29.7114  -24.3293   18.7274 C   0  0  0  0  0  0
  -30.0741  -23.1994   17.7387 C   0  0  0  0  0  0
  -31.4086  -22.0523   19.6600 C   0  0  0  0  0  0
  -28.4409  -22.3413   21.9190 C   0  0  0  0  0  0
  -27.6129  -17.3950   19.5271 C   0  0  0  0  0  0
  -28.1385  -25.0663   20.6263 C   0  0  0  0  0  0
  -30.1446  -21.6380   20.2805 N   0  0  0  0  0  0
  -29.7987  -15.7663   20.7120 N   0  0  0  0  0  0
  -32.0502  -21.8867   17.3412 O   0  0  0  0  0  0
  -31.4798  -12.5585   19.1477 H   0  0  0  0  0  0
  -30.3887  -11.4352   19.9044 H   0  0  0  0  0  0
  -29.7839  -11.7767   17.4788 H   0  0  0  0  0  0
  -29.6414  -13.4970   17.7443 H   0  0  0  0  0  0
  -27.8662  -11.2989   18.8538 H   0  0  0  0  0  0
  -27.3805  -12.5898   17.7897 H   0  0  0  0  0  0
  -27.6536  -14.2497   19.5104 H   0  0  0  0  0  0
  -28.7259  -12.1000   21.3968 H   0  0  0  0  0  0
  -28.4438  -13.7658   21.8223 H   0  0  0  0  0  0
  -25.2768   -9.5592   22.4806 H   0  0  0  0  0  0
  -23.9966   -7.4568   22.7492 H   0  0  0  0  0  0
  -21.0856   -8.8772   19.8957 H   0  0  0  0  0  0
  -22.3760  -10.9644   19.6181 H   0  0  0  0  0  0
  -21.1954   -7.6150   23.9738 H   0  0  0  0  0  0
  -21.1463   -6.0529   25.9098 H   0  0  0  0  0  0
  -22.0609   -2.7617   23.2866 H   0  0  0  0  0  0
  -22.3984  -11.9787   22.4833 H   0  0  0  0  0  0
  -21.1046  -13.1207   22.2636 H   0  0  0  0  0  0
  -24.5595  -15.7710   20.4695 H   0  0  0  0  0  0
  -26.1523  -15.6159   19.9447 H   0  0  0  0  0  0
  -26.7205  -32.5428   23.1112 H   0  0  0  0  0  0
  -25.0207  -33.9675   25.0516 H   0  0  0  0  0  0
  -22.7210  -31.3051   21.3921 H   0  0  0  0  0  0
  -23.3759  -35.9570   23.3282 H   0  0  0  0  0  0
  -24.3592  -36.8896   22.2072 H   0  0  0  0  0  0
  -23.7200  -37.6434   23.6689 H   0  0  0  0  0  0
  -26.0912  -31.5546   20.6027 H   0  0  0  0  0  0
  -26.8424  -30.8415   22.0004 H   0  0  0  0  0  0
  -28.1215  -28.9873   21.1873 H   0  0  0  0  0  0
  -26.0029  -25.9217   19.0090 H   0  0  0  0  0  0
  -23.9778  -27.2899   19.0231 H   0  0  0  0  0  0
  -23.7540  -30.5792   19.3955 H   0  0  0  0  0  0
  -22.7586  -29.2339   19.8603 H   0  0  0  0  0  0
  -25.1284  -36.1894   25.0846 H   0  0  0  0  0  0
  -20.9982  -28.3291   24.1368 H   0  0  0  0  0  0
  -20.5629  -26.2340   23.3599 H   0  0  0  0  0  0
  -21.6630  -26.7443   22.1196 H   0  0  0  0  0  0
  -19.6895  -25.6286   21.1239 H   0  0  0  0  0  0
  -19.6678  -27.3179   20.6707 H   0  0  0  0  0  0
  -17.4188  -26.6696   21.4002 H   0  0  0  0  0  0
  -18.0316  -26.0077   22.8986 H   0  0  0  0  0  0
  -19.7938  -30.7245   24.2300 H   0  0  0  0  0  0
  -17.5027  -31.6297   24.5117 H   0  0  0  0  0  0
  -15.5347  -30.2993   23.7693 H   0  0  0  0  0  0
  -15.8649  -28.0799   22.7154 H   0  0  0  0  0  0
  -24.6028  -30.6912   25.7785 H   0  0  0  0  0  0
  -24.8937  -32.2734   26.4944 H   0  0  0  0  0  0
  -25.8174  -30.8777   27.0202 H   0  0  0  0  0  0
  -26.3029  -29.6665   24.1308 H   0  0  0  0  0  0
  -27.4256  -29.7348   25.4700 H   0  0  0  0  0  0
  -27.8836  -30.4305   23.9358 H   0  0  0  0  0  0
  -27.2713  -33.3641   26.2027 H   0  0  0  0  0  0
  -28.3949  -32.6793   25.0367 H   0  0  0  0  0  0
  -28.0709  -31.8464   26.5475 H   0  0  0  0  0  0
  -28.2546  -38.0122   24.7568 H   0  0  0  0  0  0
  -28.1102  -36.2652   24.6239 H   0  0  0  0  0  0
  -27.2291  -37.1340   25.8873 H   0  0  0  0  0  0
  -20.9355  -29.8773   21.6819 H   0  0  0  0  0  0
  -26.0134  -38.2819   24.1481 H   0  0  0  0  0  0
  -32.0574  -19.8557   21.2391 H   0  0  0  0  0  0
  -31.9530  -17.4214   21.3461 H   0  0  0  0  0  0
  -28.0744  -20.0143   19.6541 H   0  0  0  0  0  0
  -27.1819  -16.1049   16.2884 H   0  0  0  0  0  0
  -26.5273  -15.4221   17.8689 H   0  0  0  0  0  0
  -28.2271  -17.9465   17.4703 H   0  0  0  0  0  0
  -30.5805  -24.9489   18.9478 H   0  0  0  0  0  0
  -29.0116  -24.9795   18.2017 H   0  0  0  0  0  0
  -29.2128  -22.5520   17.5803 H   0  0  0  0  0  0
  -30.3182  -23.6312   16.7673 H   0  0  0  0  0  0
  -31.7695  -22.9560   20.1514 H   0  0  0  0  0  0
  -32.2076  -21.3241   19.7730 H   0  0  0  0  0  0
  -27.3656  -22.4052   21.7475 H   0  0  0  0  0  0
  -28.6996  -23.0506   22.7056 H   0  0  0  0  0  0
  -28.6524  -21.3494   22.3176 H   0  0  0  0  0  0
  -26.7490  -18.0211   19.7603 H   0  0  0  0  0  0
  -27.4557  -16.4510   20.0284 H   0  0  0  0  0  0
  -28.2772  -25.0933   21.7073 H   0  0  0  0  0  0
  -27.1088  -24.7407   20.4851 H   0  0  0  0  0  0
  -28.8524  -15.4701   20.8868 H   0  0  0  0  0  0
  1 25  1  0  0  0
  1 30  2  0  0  0
  1 89  1  0  0  0
  2  3  1  0  0  0
  2 25  1  0  0  0
  2 91  1  0  0  0
  2 92  1  0  0  0
  3  4  1  0  0  0
  3 93  1  0  0  0
  3 94  1  0  0  0
  4  5  1  0  0  0
  4 95  1  0  0  0
  4 96  1  0  0  0
  5  6  1  0  0  0
  5 26  1  0  0  0
  5 97  1  0  0  0
  6 25  1  0  0  0
  6 98  1  0  0  0
  6 99  1  0  0  0
  7  8  2  0  0  0
  7 26  1  0  0  0
  7 29  1  0  0  0
  8  9  1  0  0  0
  8 22  1  0  0  0
  9 10  1  0  0  0
  9 27  2  0  0  0
 10 11  2  0  0  0
 10 15  1  0  0  0
 11 12  1  0  0  0
 11100  1  0  0  0
 12 13  2  0  0  0
 12101  1  0  0  0
 13 14  1  0  0  0
 13 31  1  0  0  0
 14 15  2  0  0  0
 14102  1  0  0  0
 15103  1  0  0  0
 16 17  2  0  0  0
 16 21  1  0  0  0
 16 31  1  0  0  0
 17 18  1  0  0  0
 17104  1  0  0  0
 18 19  2  0  0  0
 18105  1  0  0  0
 19 20  1  0  0  0
 19 24  1  0  0  0
 20 21  2  0  0  0
 20106  1  0  0  0
 21 23  1  0  0  0
 22 28  1  0  0  0
 22 32  2  0  0  0
 26 27  1  0  0  0
 28107  1  0  0  0
 28108  1  0  0  0
 29109  1  0  0  0
 29110  1  0  0  0
 33 34  1  0  0  0
 33 66  1  0  0  0
 33 70  2  0  0  0
 34 36  1  0  0  0
 34 59  1  0  0  0
 34111  1  0  0  0
 35 44  2  0  0  0
 35 45  1  0  0  0
 35 68  1  0  0  0
 36 56  1  0  0  0
 36112  1  0  0  0
 37 39  1  0  0  0
 37 47  1  0  0  0
 37 66  1  0  0  0
 37113  1  0  0  0
 38 43  2  0  0  0
 38 46  1  0  0  0
 38 47  1  0  0  0
 39 64  1  0  0  0
 39 67  2  0  0  0
 40 52  1  0  0  0
 40 53  2  0  0  0
 40 58  1  0  0  0
 41114  1  0  0  0
 41115  1  0  0  0
 41116  1  0  0  0
 41 48  1  0  0  0
 42 43  1  0  0  0
 42 66  1  0  0  0
 42117  1  0  0  0
 42118  1  0  0  0
 43 44  1  0  0  0
 44119  1  0  0  0
 45 46  2  0  0  0
 45120  1  0  0  0
 46121  1  0  0  0
 47122  1  0  0  0
 47123  1  0  0  0
 48 56  1  0  0  0
 48 65  1  0  0  0
 48124  1  0  0  0
 49 50  1  0  0  0
 49 53  1  0  0  0
 49 64  1  0  0  0
 49125  1  0  0  0
 50 51  1  0  0  0
 50126  1  0  0  0
 50127  1  0  0  0
 51 52  1  0  0  0
 51128  1  0  0  0
 51129  1  0  0  0
 52130  1  0  0  0
 52131  1  0  0  0
 53 54  1  0  0  0
 54 55  2  0  0  0
 54132  1  0  0  0
 55 57  1  0  0  0
 55133  1  0  0  0
 56 69  2  0  0  0
 57 58  2  0  0  0
 57134  1  0  0  0
 58135  1  0  0  0
 59 60  1  0  0  0
 59 61  1  0  0  0
 59 62  1  0  0  0
 60136  1  0  0  0
 60137  1  0  0  0
 60138  1  0  0  0
 61139  1  0  0  0
 61140  1  0  0  0
 61141  1  0  0  0
 62142  1  0  0  0
 62143  1  0  0  0
 62144  1  0  0  0
 63 65  1  0  0  0
 63145  1  0  0  0
 63146  1  0  0  0
 63147  1  0  0  0
 64148  1  0  0  0
 65149  1  0  0  0
 68 87  1  0  0  0
 71 72  2  0  0  0
 71 75  1  0  0  0
 71150  1  0  0  0
 72 76  1  0  0  0
 72151  1  0  0  0
 73 74  1  0  0  0
 73 75  2  0  0  0
 73152  1  0  0  0
 74 76  2  0  0  0
 74 86  1  0  0  0
 75 88  1  0  0  0
 76 89  1  0  0  0
 77 78  2  0  0  0
 77 82  1  0  0  0
 77 87  1  0  0  0
 78 85  1  0  0  0
 78 88  1  0  0  0
 79 83  1  0  0  0
 79 84  1  0  0  0
 79 90  2  0  0  0
 80 81  2  0  0  0
 80153  1  0  0  0
 80154  1  0  0  0
 81 86  1  0  0  0
 81155  1  0  0  0
 82 83  1  0  0  0
 82156  1  0  0  0
 82157  1  0  0  0
 83158  1  0  0  0
 83159  1  0  0  0
 84 88  1  0  0  0
 84160  1  0  0  0
 84161  1  0  0  0
 85162  1  0  0  0
 85163  1  0  0  0
 85164  1  0  0  0
 86165  1  0  0  0
 86166  1  0  0  0
 87167  1  0  0  0
 87168  1  0  0  0
 89169  1  0  0  0
M  ISO  4   1 100  68 101  87 101  89 100
M  END
> <chiral flag>
0

> <version>
0

> <s_m_source_file>
/data/baiqing/PycharmProjects/Reinvent-master-3.2/result/LINK_invent/BTK/process_docking_weight1_custom_product_contain_oxygen_bond_distance_aromatic_linkinvent_7_9_3/rearranged_h_0112.sdf

> <i_m_source_file_index>
32

> <r_mmod_Potential_Energy-OPLS-2005>
144.783264160156

> <r_mmod_Stretch_Energy-OPLS-2005>
94.4588394165039

> <r_mmod_Bend_Energy-OPLS-2005>
146.296981811523

> <r_mmod_Torsional_Energy-OPLS-2005>
283.036529541016

> <r_mmod_Improper_Torsional_Energy-OPLS-2005>
6.82538843154907

> <r_mmod_Van_der_Waal_Energy-OPLS-2005>
147.910095214844

> <r_mmod_Electrostatic_Energy-OPLS-2005>
-383.424011230469

> <r_mmod_Solvation_Energy-OPLS-2005>
-209.357635498047

> <b_mmod_Minimization_Converged-OPLS-2005>
0

> <r_mmod_RMS_Derivative-OPLS-2005>
2.520840883255

$$$$
33
                    3D
 Structure written by MMmdl.
164173  0  0  1  0            999 V2000
  -30.7245  -14.6867   20.4384 C   0  0  0  0  0  0
  -30.4129  -12.4340   19.4403 C   0  0  0  0  0  0
  -29.4851  -12.4943   18.2123 C   0  0  0  0  0  0
  -28.0235  -12.3161   18.6545 C   0  0  0  0  0  0
  -27.6399  -13.2390   19.8426 C   0  0  2  0  0  0
  -28.7010  -13.2166   20.9684 C   0  0  0  0  0  0
  -25.2537  -13.8213   20.5735 C   0  0  0  0  0  0
  -24.1829  -13.0442   20.9209 C   0  0  0  0  0  0
  -24.6413  -11.6908   20.8734 C   0  0  0  0  0  0
  -23.9100  -10.4276   21.0410 C   0  0  0  0  0  0
  -24.3637   -9.4196   21.9197 C   0  0  0  0  0  0
  -23.6298   -8.2238   22.0769 C   0  0  0  0  0  0
  -22.4281   -8.0282   21.3567 C   0  0  0  0  0  0
  -21.9927   -9.0258   20.4657 C   0  0  0  0  0  0
  -22.7265  -10.2131   20.3063 C   0  0  0  0  0  0
  -21.6868   -6.0728   22.5271 C   0  0  0  0  0  0
  -21.4011   -6.5642   23.8199 C   0  0  0  0  0  0
  -21.3647   -5.6796   24.9168 C   0  0  0  0  0  0
  -21.6051   -4.3051   24.7214 C   0  0  0  0  0  0
  -21.8824   -3.8151   23.4336 C   0  0  0  0  0  0
  -21.9198   -4.6964   22.3400 C   0  0  0  0  0  0
  -22.7830  -13.5196   21.1849 C   0  0  0  0  0  0
  -22.1668   -4.2156   21.0971 F   0  0  0  0  0  0
  -21.5615   -3.4536   25.7724 F   0  0  0  0  0  0
  -29.9981  -13.5223   20.3550 N   0  0  0  0  0  0
  -26.2966  -12.9439   20.3346 N   0  0  0  0  0  0
  -25.9370  -11.6575   20.5793 N   0  0  0  0  0  0
  -22.0494  -12.8181   22.0379 N   0  0  0  0  0  0
  -25.4224  -15.1938   20.4104 N   0  0  0  0  0  0
  -31.9257  -14.6358   20.1765 O   0  0  0  0  0  0
  -21.6660   -6.8876   21.4234 O   0  0  0  0  0  0
  -22.3521  -14.5514   20.6698 O   0  0  0  0  0  0
  -24.6287  -31.8591   23.2044 C   0  0  0  0  0  0
  -25.9106  -32.4789   23.8398 C   0  0  1  0  0  0
  -27.1730  -27.2737   20.0690 C   0  0  0  0  0  0
  -25.5981  -33.8597   24.2383 N   0  0  0  0  0  0
  -23.4196  -30.4880   21.5541 C   0  0  2  0  0  0
  -24.8430  -28.9406   20.1137 C   0  0  0  0  0  0
  -22.7520  -29.4614   22.4989 C   0  0  0  0  0  0
  -18.0266  -28.1396   22.8491 C   0  0  0  0  0  0
  -24.1486  -36.7255   23.2641 C   0  0  0  0  0  0
  -25.9605  -30.7759   21.3638 C   0  0  0  0  0  0
  -26.0238  -29.3966   20.7058 C   0  0  0  0  0  0
  -27.1933  -28.5752   20.6712 C   0  0  0  0  0  0
  -25.9565  -26.8699   19.4750 C   0  0  0  0  0  0
  -24.8089  -27.6833   19.4979 C   0  0  0  0  0  0
  -23.6272  -29.8414   20.1651 C   0  0  0  0  0  0
  -25.4098  -36.3128   24.0373 C   0  0  1  0  0  0
  -20.5885  -28.3695   23.1286 C   0  0  2  0  0  0
  -20.6792  -26.9430   22.5417 C   0  0  0  0  0  0
  -19.5782  -26.6404   21.5222 C   0  0  0  0  0  0
  -18.1928  -26.7948   22.1604 C   0  0  0  0  0  0
  -19.1533  -28.8877   23.2874 C   0  0  0  0  0  0
  -18.9456  -30.1469   23.8915 C   0  0  0  0  0  0
  -17.6460  -30.6612   24.0572 C   0  0  0  0  0  0
  -25.9031  -34.9480   23.5175 C   0  0  0  0  0  0
  -16.5343  -29.9117   23.6334 C   0  0  0  0  0  0
  -16.7268  -28.6520   23.0352 C   0  0  0  0  0  0
  -26.4499  -31.6558   25.0723 C   0  0  0  0  0  0
  -25.3829  -31.3539   26.1521 C   0  0  0  0  0  0
  -27.0255  -30.3038   24.5966 C   0  0  0  0  0  0
  -27.6095  -32.4264   25.7495 C   0  0  0  0  0  0
  -27.5572  -37.1800   24.8512 C   0  0  0  0  0  0
  -21.4224  -29.3053   22.3724 N   0  0  0  0  0  0
  -26.4285  -37.3809   23.9455 N   0  0  0  0  0  0
  -24.6921  -31.0553   22.1004 N   0  0  0  0  0  0
  -23.4231  -28.8148   23.3071 O   0  0  0  0  0  0
  -28.2896  -26.4187   20.0969 O   0  0  0  0  0  0
  -26.5538  -34.8949   22.4705 O   0  0  0  0  0  0
  -23.5426  -32.1407   23.7338 O   0  0  0  0  0  0
  -29.6526  -20.6662   19.1309 C   0  0  0  0  0  0
  -28.5440  -20.3863   21.2410 C   0  0  0  0  0  0
  -29.9406  -18.5012   20.3742 C   0  0  0  0  0  0
  -30.2427  -19.3678   19.2612 C   0  0  0  0  0  0
  -28.7681  -21.2034   20.0985 C   0  0  0  0  0  0
  -29.1027  -19.0756   21.3808 C   0  0  0  0  0  0
  -26.6575  -22.1405   19.5566 C   0  0  0  0  0  0
  -30.6913  -17.1554   20.5800 C   0  0  0  0  0  0
  -25.7123  -23.1144   20.2328 C   0  0  0  0  0  0
  -26.6530  -23.8642   21.1826 C   0  0  0  0  0  0
  -28.0340  -23.7568   20.5156 C   0  0  2  0  0  0
  -31.2136  -18.9742   18.1452 C   0  0  0  0  0  0
  -28.6567  -19.3883   24.2220 C   0  0  0  0  0  0
  -28.2628  -25.0265   19.5539 C   0  0  0  0  0  0
  -27.9531  -22.3992   19.8402 N   0  0  0  0  0  0
  -30.0794  -15.9089   20.5500 N   0  0  0  0  0  0
  -26.2354  -21.2083   18.8652 O   0  0  0  0  0  0
  -31.9065  -17.2844   20.7728 O   0  0  0  0  0  0
  -28.7616  -18.1765   22.8720 S   0  0  0  0  0  0
  -31.4488  -12.5204   19.1103 H   0  0  0  0  0  0
  -30.3346  -11.4647   19.9358 H   0  0  0  0  0  0
  -29.7530  -11.7164   17.4960 H   0  0  0  0  0  0
  -29.6077  -13.4460   17.6904 H   0  0  0  0  0  0
  -27.9010  -11.2709   18.9456 H   0  0  0  0  0  0
  -27.3481  -12.4772   17.8131 H   0  0  0  0  0  0
  -27.6190  -14.2508   19.4385 H   0  0  0  0  0  0
  -28.7369  -12.2430   21.4603 H   0  0  0  0  0  0
  -28.4575  -13.9503   21.7391 H   0  0  0  0  0  0
  -25.2778   -9.5668   22.4764 H   0  0  0  0  0  0
  -24.0012   -7.4643   22.7488 H   0  0  0  0  0  0
  -21.0870   -8.8773   19.8948 H   0  0  0  0  0  0
  -22.3747  -10.9671   19.6159 H   0  0  0  0  0  0
  -21.1997   -7.6151   23.9705 H   0  0  0  0  0  0
  -21.1456   -6.0525   25.9076 H   0  0  0  0  0  0
  -22.0607   -2.7611   23.2838 H   0  0  0  0  0  0
  -22.4128  -11.9842   22.4762 H   0  0  0  0  0  0
  -21.1100  -13.1199   22.2581 H   0  0  0  0  0  0
  -24.6516  -15.8457   20.4996 H   0  0  0  0  0  0
  -26.2724  -15.6317   20.0795 H   0  0  0  0  0  0
  -26.7129  -32.5473   23.1097 H   0  0  0  0  0  0
  -25.0504  -33.9778   25.0789 H   0  0  0  0  0  0
  -22.7108  -31.3084   21.4217 H   0  0  0  0  0  0
  -23.3825  -35.9528   23.3364 H   0  0  0  0  0  0
  -24.3621  -36.8772   22.2053 H   0  0  0  0  0  0
  -23.7102  -37.6429   23.6579 H   0  0  0  0  0  0
  -26.0575  -31.5243   20.5758 H   0  0  0  0  0  0
  -26.8546  -30.8477   21.9686 H   0  0  0  0  0  0
  -28.1151  -28.9080   21.1260 H   0  0  0  0  0  0
  -25.8392  -25.9096   18.9989 H   0  0  0  0  0  0
  -23.8857  -27.3398   19.0468 H   0  0  0  0  0  0
  -23.7744  -30.6327   19.4287 H   0  0  0  0  0  0
  -22.7320  -29.3058   19.8443 H   0  0  0  0  0  0
  -25.1213  -36.2045   25.0842 H   0  0  0  0  0  0
  -20.9891  -28.3242   24.1430 H   0  0  0  0  0  0
  -20.5742  -26.2285   23.3595 H   0  0  0  0  0  0
  -21.6651  -26.7498   22.1179 H   0  0  0  0  0  0
  -19.6967  -25.6320   21.1250 H   0  0  0  0  0  0
  -19.6723  -27.3259   20.6785 H   0  0  0  0  0  0
  -17.4196  -26.6690   21.3988 H   0  0  0  0  0  0
  -18.0317  -26.0050   22.8962 H   0  0  0  0  0  0
  -19.7931  -30.7272   24.2280 H   0  0  0  0  0  0
  -17.5017  -31.6313   24.5185 H   0  0  0  0  0  0
  -15.5355  -30.3043   23.7671 H   0  0  0  0  0  0
  -15.8628  -28.0880   22.7044 H   0  0  0  0  0  0
  -24.6241  -30.6552   25.7962 H   0  0  0  0  0  0
  -24.8742  -32.2562   26.4925 H   0  0  0  0  0  0
  -25.8341  -30.8918   27.0318 H   0  0  0  0  0  0
  -26.2693  -29.6891   24.1062 H   0  0  0  0  0  0
  -27.4120  -29.7146   25.4278 H   0  0  0  0  0  0
  -27.8521  -30.4417   23.9003 H   0  0  0  0  0  0
  -27.2812  -33.3694   26.1896 H   0  0  0  0  0  0
  -28.4018  -32.6567   25.0361 H   0  0  0  0  0  0
  -28.0637  -31.8474   26.5539 H   0  0  0  0  0  0
  -28.2608  -38.0089   24.7570 H   0  0  0  0  0  0
  -28.1027  -36.2601   24.6338 H   0  0  0  0  0  0
  -27.2296  -37.1439   25.8921 H   0  0  0  0  0  0
  -20.9427  -29.8802   21.6952 H   0  0  0  0  0  0
  -26.0207  -38.2892   24.1525 H   0  0  0  0  0  0
  -29.8712  -21.2534   18.2486 H   0  0  0  0  0  0
  -27.8786  -20.7584   22.0048 H   0  0  0  0  0  0
  -24.9209  -22.5871   20.7684 H   0  0  0  0  0  0
  -25.2552  -23.7443   19.4713 H   0  0  0  0  0  0
  -26.6792  -23.3384   22.1396 H   0  0  0  0  0  0
  -26.3479  -24.8905   21.3930 H   0  0  0  0  0  0
  -28.8211  -23.7442   21.2702 H   0  0  0  0  0  0
  -31.9916  -19.7332   18.0426 H   0  0  0  0  0  0
  -30.6938  -18.9240   17.1873 H   0  0  0  0  0  0
  -31.7210  -18.0213   18.2896 H   0  0  0  0  0  0
  -28.7496  -18.8917   25.1887 H   0  0  0  0  0  0
  -27.6980  -19.9067   24.2056 H   0  0  0  0  0  0
  -29.4548  -20.1273   24.1404 H   0  0  0  0  0  0
  -27.6239  -24.9532   18.6748 H   0  0  0  0  0  0
  -29.2525  -24.8804   19.1222 H   0  0  0  0  0  0
  -29.0728  -15.9050   20.5526 H   0  0  0  0  0  0
  1 25  1  0  0  0
  1 30  2  0  0  0
  1 86  1  0  0  0
  2  3  1  0  0  0
  2 25  1  0  0  0
  2 90  1  0  0  0
  2 91  1  0  0  0
  3  4  1  0  0  0
  3 92  1  0  0  0
  3 93  1  0  0  0
  4  5  1  0  0  0
  4 94  1  0  0  0
  4 95  1  0  0  0
  5  6  1  0  0  0
  5 26  1  0  0  0
  5 96  1  0  0  0
  6 25  1  0  0  0
  6 97  1  0  0  0
  6 98  1  0  0  0
  7  8  2  0  0  0
  7 26  1  0  0  0
  7 29  1  0  0  0
  8  9  1  0  0  0
  8 22  1  0  0  0
  9 10  1  0  0  0
  9 27  2  0  0  0
 10 11  2  0  0  0
 10 15  1  0  0  0
 11 12  1  0  0  0
 11 99  1  0  0  0
 12 13  2  0  0  0
 12100  1  0  0  0
 13 14  1  0  0  0
 13 31  1  0  0  0
 14 15  2  0  0  0
 14101  1  0  0  0
 15102  1  0  0  0
 16 17  2  0  0  0
 16 21  1  0  0  0
 16 31  1  0  0  0
 17 18  1  0  0  0
 17103  1  0  0  0
 18 19  2  0  0  0
 18104  1  0  0  0
 19 20  1  0  0  0
 19 24  1  0  0  0
 20 21  2  0  0  0
 20105  1  0  0  0
 21 23  1  0  0  0
 22 28  1  0  0  0
 22 32  2  0  0  0
 26 27  1  0  0  0
 28106  1  0  0  0
 28107  1  0  0  0
 29108  1  0  0  0
 29109  1  0  0  0
 33 34  1  0  0  0
 33 66  1  0  0  0
 33 70  2  0  0  0
 34 36  1  0  0  0
 34 59  1  0  0  0
 34110  1  0  0  0
 35 44  2  0  0  0
 35 45  1  0  0  0
 35 68  1  0  0  0
 36 56  1  0  0  0
 36111  1  0  0  0
 37 39  1  0  0  0
 37 47  1  0  0  0
 37 66  1  0  0  0
 37112  1  0  0  0
 38 43  2  0  0  0
 38 46  1  0  0  0
 38 47  1  0  0  0
 39 64  1  0  0  0
 39 67  2  0  0  0
 40 52  1  0  0  0
 40 53  2  0  0  0
 40 58  1  0  0  0
 41113  1  0  0  0
 41114  1  0  0  0
 41115  1  0  0  0
 41 48  1  0  0  0
 42 43  1  0  0  0
 42 66  1  0  0  0
 42116  1  0  0  0
 42117  1  0  0  0
 43 44  1  0  0  0
 44118  1  0  0  0
 45 46  2  0  0  0
 45119  1  0  0  0
 46120  1  0  0  0
 47121  1  0  0  0
 47122  1  0  0  0
 48 56  1  0  0  0
 48 65  1  0  0  0
 48123  1  0  0  0
 49 50  1  0  0  0
 49 53  1  0  0  0
 49 64  1  0  0  0
 49124  1  0  0  0
 50 51  1  0  0  0
 50125  1  0  0  0
 50126  1  0  0  0
 51 52  1  0  0  0
 51127  1  0  0  0
 51128  1  0  0  0
 52129  1  0  0  0
 52130  1  0  0  0
 53 54  1  0  0  0
 54 55  2  0  0  0
 54131  1  0  0  0
 55 57  1  0  0  0
 55132  1  0  0  0
 56 69  2  0  0  0
 57 58  2  0  0  0
 57133  1  0  0  0
 58134  1  0  0  0
 59 60  1  0  0  0
 59 61  1  0  0  0
 59 62  1  0  0  0
 60135  1  0  0  0
 60136  1  0  0  0
 60137  1  0  0  0
 61138  1  0  0  0
 61139  1  0  0  0
 61140  1  0  0  0
 62141  1  0  0  0
 62142  1  0  0  0
 62143  1  0  0  0
 63 65  1  0  0  0
 63144  1  0  0  0
 63145  1  0  0  0
 63146  1  0  0  0
 64147  1  0  0  0
 65148  1  0  0  0
 68 84  1  0  0  0
 71 74  2  0  0  0
 71 75  1  0  0  0
 71149  1  0  0  0
 72 75  2  0  0  0
 72 76  1  0  0  0
 72150  1  0  0  0
 73 74  1  0  0  0
 73 76  2  0  0  0
 73 78  1  0  0  0
 74 82  1  0  0  0
 75 85  1  0  0  0
 76 89  1  0  0  0
 77 79  1  0  0  0
 77 85  1  0  0  0
 77 87  2  0  0  0
 78 86  1  0  0  0
 78 88  2  0  0  0
 79 80  1  0  0  0
 79151  1  0  0  0
 79152  1  0  0  0
 80 81  1  0  0  0
 80153  1  0  0  0
 80154  1  0  0  0
 81 84  1  0  0  0
 81 85  1  0  0  0
 81155  1  0  0  0
 82156  1  0  0  0
 82157  1  0  0  0
 82158  1  0  0  0
 83 89  1  0  0  0
 83159  1  0  0  0
 83160  1  0  0  0
 83161  1  0  0  0
 84162  1  0  0  0
 84163  1  0  0  0
 86164  1  0  0  0
M  ISO  4   1 100  68 101  84 101  86 100
M  END
> <chiral flag>
0

> <version>
0

> <s_m_source_file>
/data/baiqing/PycharmProjects/Reinvent-master-3.2/result/LINK_invent/BTK/process_docking_weight1_custom_product_contain_oxygen_bond_distance_aromatic_linkinvent_7_9_3/rearranged_h_0112.sdf

> <i_m_source_file_index>
33

> <r_mmod_Potential_Energy-OPLS-2005>
280.75390625

> <r_mmod_Stretch_Energy-OPLS-2005>
101.175857543945

> <r_mmod_Bend_Energy-OPLS-2005>
199.642440795898

> <r_mmod_Torsional_Energy-OPLS-2005>
336.474609375

> <r_mmod_Improper_Torsional_Energy-OPLS-2005>
10.7543239593506

> <r_mmod_Van_der_Waal_Energy-OPLS-2005>
146.674819946289

> <r_mmod_Electrostatic_Energy-OPLS-2005>
-358.439605712891

> <r_mmod_Solvation_Energy-OPLS-2005>
-233.370666503906

> <b_mmod_Minimization_Converged-OPLS-2005>
0

> <r_mmod_RMS_Derivative-OPLS-2005>
5.80266952514648

$$$$
34
                    3D
 Structure written by MMmdl.
161169  0  0  1  0            999 V2000
  -30.6890  -14.5038   20.6190 C   0  0  0  0  0  0
  -30.4255  -12.3411   19.4183 C   0  0  0  0  0  0
  -29.4979  -12.5654   18.2051 C   0  0  0  0  0  0
  -28.0110  -12.4078   18.5963 C   0  0  0  0  0  0
  -27.6595  -13.1910   19.8866 C   0  0  2  0  0  0
  -28.7090  -12.8947   20.9830 C   0  0  0  0  0  0
  -25.2608  -13.8079   20.5752 C   0  0  0  0  0  0
  -24.1799  -13.0400   20.9119 C   0  0  0  0  0  0
  -24.6316  -11.6834   20.8660 C   0  0  0  0  0  0
  -23.8957  -10.4261   21.0357 C   0  0  0  0  0  0
  -24.3519   -9.4203   21.9157 C   0  0  0  0  0  0
  -23.6215   -8.2237   22.0760 C   0  0  0  0  0  0
  -22.4209   -8.0246   21.3533 C   0  0  0  0  0  0
  -21.9816   -9.0196   20.4616 C   0  0  0  0  0  0
  -22.7119  -10.2091   20.3020 C   0  0  0  0  0  0
  -21.6824   -6.0680   22.5260 C   0  0  0  0  0  0
  -21.3997   -6.5598   23.8186 C   0  0  0  0  0  0
  -21.3662   -5.6761   24.9167 C   0  0  0  0  0  0
  -21.6062   -4.3033   24.7232 C   0  0  0  0  0  0
  -21.8825   -3.8120   23.4358 C   0  0  0  0  0  0
  -21.9185   -4.6917   22.3397 C   0  0  0  0  0  0
  -22.7853  -13.5215   21.1828 C   0  0  0  0  0  0
  -22.1649   -4.2085   21.0965 F   0  0  0  0  0  0
  -21.5640   -3.4545   25.7768 F   0  0  0  0  0  0
  -30.0249  -13.3052   20.4618 N   0  0  0  0  0  0
  -26.2993  -12.9198   20.3401 N   0  0  0  0  0  0
  -25.9239  -11.6361   20.5694 N   0  0  0  0  0  0
  -22.0522  -12.8194   22.0363 N   0  0  0  0  0  0
  -25.4491  -15.1805   20.4414 N   0  0  0  0  0  0
  -31.8376  -14.6606   20.1887 O   0  0  0  0  0  0
  -21.6603   -6.8826   21.4224 O   0  0  0  0  0  0
  -22.3546  -14.5547   20.6733 O   0  0  0  0  0  0
  -24.6110  -31.8659   23.2083 C   0  0  0  0  0  0
  -25.9007  -32.4825   23.8374 C   0  0  1  0  0  0
  -27.2436  -27.4293   20.1087 C   0  0  0  0  0  0
  -25.5891  -33.8624   24.2319 N   0  0  0  0  0  0
  -23.4026  -30.4838   21.5496 C   0  0  2  0  0  0
  -24.8531  -28.9471   20.1182 C   0  0  0  0  0  0
  -22.7400  -29.4610   22.5004 C   0  0  0  0  0  0
  -18.0263  -28.1370   22.8483 C   0  0  0  0  0  0
  -24.1484  -36.7307   23.2656 C   0  0  0  0  0  0
  -25.9291  -30.8315   21.3626 C   0  0  0  0  0  0
  -26.0122  -29.4625   20.7134 C   0  0  0  0  0  0
  -27.2111  -28.7128   20.7022 C   0  0  0  0  0  0
  -26.0715  -26.9303   19.5004 C   0  0  0  0  0  0
  -24.8777  -27.6800   19.5072 C   0  0  0  0  0  0
  -23.6133  -29.8119   20.1657 C   0  0  0  0  0  0
  -25.4130  -36.3120   24.0324 C   0  0  1  0  0  0
  -20.5851  -28.3633   23.1320 C   0  0  2  0  0  0
  -20.6757  -26.9370   22.5419 C   0  0  0  0  0  0
  -19.5748  -26.6346   21.5217 C   0  0  0  0  0  0
  -18.1905  -26.7916   22.1591 C   0  0  0  0  0  0
  -19.1505  -28.8826   23.2884 C   0  0  0  0  0  0
  -18.9453  -30.1446   23.8866 C   0  0  0  0  0  0
  -17.6463  -30.6597   24.0557 C   0  0  0  0  0  0
  -25.9044  -34.9475   23.5122 C   0  0  0  0  0  0
  -16.5343  -29.9084   23.6355 C   0  0  0  0  0  0
  -16.7260  -28.6499   23.0360 C   0  0  0  0  0  0
  -26.4445  -31.6596   25.0695 C   0  0  0  0  0  0
  -25.3720  -31.3727   26.1456 C   0  0  0  0  0  0
  -27.0247  -30.3030   24.6075 C   0  0  0  0  0  0
  -27.6008  -32.4300   25.7499 C   0  0  0  0  0  0
  -27.5575  -37.1841   24.8502 C   0  0  0  0  0  0
  -21.4126  -29.2988   22.3736 N   0  0  0  0  0  0
  -26.4338  -37.3784   23.9374 N   0  0  0  0  0  0
  -24.6650  -31.0749   22.0984 N   0  0  0  0  0  0
  -23.4161  -28.8148   23.3053 O   0  0  0  0  0  0
  -28.3982  -26.6743   20.0956 O   0  0  0  0  0  0
  -26.5632  -34.8914   22.4695 O   0  0  0  0  0  0
  -23.5304  -32.1411   23.7479 O   0  0  0  0  0  0
  -30.4529  -17.5986   22.7259 C   0  0  0  0  0  0
  -31.1983  -19.3447   20.6960 C   0  0  0  0  0  0
  -30.5603  -17.0732   21.4103 C   0  0  0  0  0  0
  -31.0219  -17.9679   20.3900 C   0  0  0  0  0  0
  -30.8742  -19.8849   21.9620 C   0  0  0  0  0  0
  -30.5947  -18.9727   23.0010 C   0  0  0  0  0  0
  -29.9034  -15.7307   21.2030 C   0  0  0  0  0  0
  -30.6505  -18.4070   17.8707 C   0  0  0  0  0  0
  -31.3252  -17.5433   18.9497 C   0  0  0  0  0  0
  -29.4051  -24.4249   20.5183 C   0  0  0  0  0  0
  -29.5524  -23.2581   21.5391 C   0  0  0  0  0  0
  -28.3638  -25.5006   20.9310 C   0  0  0  0  0  0
  -30.6190  -22.1930   21.1649 C   0  0  0  0  0  0
  -28.6792  -15.7180   21.5336 N   0  0  0  0  0  0
  -30.8126  -21.2469   22.2369 O   0  0  0  0  0  0
  -30.4009  -19.4198   24.2668 F   0  0  0  0  0  0
  -31.4742  -12.4408   19.1404 H   0  0  0  0  0  0
  -30.3201  -11.3160   19.7799 H   0  0  0  0  0  0
  -29.7532  -11.8806   17.3955 H   0  0  0  0  0  0
  -29.6611  -13.5724   17.8189 H   0  0  0  0  0  0
  -27.8024  -11.3483   18.7373 H   0  0  0  0  0  0
  -27.3740  -12.7372   17.7750 H   0  0  0  0  0  0
  -27.7066  -14.2451   19.6195 H   0  0  0  0  0  0
  -28.7052  -11.8206   21.1845 H   0  0  0  0  0  0
  -28.4714  -13.3243   21.9538 H   0  0  0  0  0  0
  -25.2646   -9.5707   22.4721 H   0  0  0  0  0  0
  -23.9934   -7.4627   22.7486 H   0  0  0  0  0  0
  -21.0772   -8.8637   19.8903 H   0  0  0  0  0  0
  -22.3527  -10.9600   19.6126 H   0  0  0  0  0  0
  -21.1969   -7.6103   23.9689 H   0  0  0  0  0  0
  -21.1474   -6.0493   25.9057 H   0  0  0  0  0  0
  -22.0608   -2.7572   23.2882 H   0  0  0  0  0  0
  -22.4161  -11.9785   22.4606 H   0  0  0  0  0  0
  -21.1142  -13.1194   22.2671 H   0  0  0  0  0  0
  -24.7430  -15.8399   20.7496 H   0  0  0  0  0  0
  -26.3853  -15.5716   20.4400 H   0  0  0  0  0  0
  -26.7062  -32.5548   23.1130 H   0  0  0  0  0  0
  -25.0112  -33.9806   25.0508 H   0  0  0  0  0  0
  -22.6898  -31.2978   21.4048 H   0  0  0  0  0  0
  -23.3791  -35.9588   23.3264 H   0  0  0  0  0  0
  -24.3533  -36.9013   22.2071 H   0  0  0  0  0  0
  -23.7176  -37.6448   23.6738 H   0  0  0  0  0  0
  -26.0344  -31.5957   20.5913 H   0  0  0  0  0  0
  -26.8167  -30.8893   21.9805 H   0  0  0  0  0  0
  -28.1080  -29.1079   21.1594 H   0  0  0  0  0  0
  -26.0841  -25.9620   19.0205 H   0  0  0  0  0  0
  -23.9899  -27.2755   19.0439 H   0  0  0  0  0  0
  -23.7191  -30.5848   19.4035 H   0  0  0  0  0  0
  -22.7373  -29.2307   19.8734 H   0  0  0  0  0  0
  -25.1320  -36.2016   25.0826 H   0  0  0  0  0  0
  -20.9919  -28.3186   24.1442 H   0  0  0  0  0  0
  -20.5704  -26.2218   23.3586 H   0  0  0  0  0  0
  -21.6629  -26.7413   22.1215 H   0  0  0  0  0  0
  -19.6914  -25.6254   21.1250 H   0  0  0  0  0  0
  -19.6726  -27.3144   20.6740 H   0  0  0  0  0  0
  -17.4205  -26.6715   21.3957 H   0  0  0  0  0  0
  -18.0236  -26.0040   22.8956 H   0  0  0  0  0  0
  -19.7936  -30.7280   24.2189 H   0  0  0  0  0  0
  -17.5024  -31.6273   24.5152 H   0  0  0  0  0  0
  -15.5358  -30.2983   23.7707 H   0  0  0  0  0  0
  -15.8659  -28.0849   22.7064 H   0  0  0  0  0  0
  -24.5803  -30.7191   25.7776 H   0  0  0  0  0  0
  -24.9041  -32.2911   26.4997 H   0  0  0  0  0  0
  -25.8074  -30.8782   27.0148 H   0  0  0  0  0  0
  -26.2755  -29.6788   24.1192 H   0  0  0  0  0  0
  -27.4046  -29.7291   25.4543 H   0  0  0  0  0  0
  -27.8578  -30.4318   23.9161 H   0  0  0  0  0  0
  -27.2654  -33.3671   26.1948 H   0  0  0  0  0  0
  -28.3928  -32.6712   25.0394 H   0  0  0  0  0  0
  -28.0494  -31.8443   26.5538 H   0  0  0  0  0  0
  -28.2697  -38.0035   24.7434 H   0  0  0  0  0  0
  -28.0971  -36.2554   24.6549 H   0  0  0  0  0  0
  -27.2230  -37.1794   25.8893 H   0  0  0  0  0  0
  -20.9286  -29.8732   21.6985 H   0  0  0  0  0  0
  -26.0239  -38.2870   24.1325 H   0  0  0  0  0  0
  -30.1411  -16.9551   23.5360 H   0  0  0  0  0  0
  -31.5567  -20.0091   19.9272 H   0  0  0  0  0  0
  -30.9759  -18.0911   16.8781 H   0  0  0  0  0  0
  -30.8991  -19.4651   17.9538 H   0  0  0  0  0  0
  -29.5650  -18.3096   17.9093 H   0  0  0  0  0  0
  -31.0446  -16.5150   18.7497 H   0  0  0  0  0  0
  -32.4096  -17.5925   18.8240 H   0  0  0  0  0  0
  -29.1207  -24.0175   19.5465 H   0  0  0  0  0  0
  -30.3785  -24.8984   20.3767 H   0  0  0  0  0  0
  -28.5885  -22.7601   21.6557 H   0  0  0  0  0  0
  -29.7955  -23.6738   22.5169 H   0  0  0  0  0  0
  -28.5622  -25.8232   21.9535 H   0  0  0  0  0  0
  -27.3727  -25.0425   20.9396 H   0  0  0  0  0  0
  -31.5725  -22.6801   20.9624 H   0  0  0  0  0  0
  -30.2925  -21.7259   20.2375 H   0  0  0  0  0  0
  -28.4061  -16.6247   21.8900 H   0  0  0  0  0  0
  1 25  1  0  0  0
  1 30  2  0  0  0
  1 77  1  0  0  0
  2  3  1  0  0  0
  2 25  1  0  0  0
  2 87  1  0  0  0
  2 88  1  0  0  0
  3  4  1  0  0  0
  3 89  1  0  0  0
  3 90  1  0  0  0
  4  5  1  0  0  0
  4 91  1  0  0  0
  4 92  1  0  0  0
  5  6  1  0  0  0
  5 26  1  0  0  0
  5 93  1  0  0  0
  6 25  1  0  0  0
  6 94  1  0  0  0
  6 95  1  0  0  0
  7  8  2  0  0  0
  7 26  1  0  0  0
  7 29  1  0  0  0
  8  9  1  0  0  0
  8 22  1  0  0  0
  9 10  1  0  0  0
  9 27  2  0  0  0
 10 11  2  0  0  0
 10 15  1  0  0  0
 11 12  1  0  0  0
 11 96  1  0  0  0
 12 13  2  0  0  0
 12 97  1  0  0  0
 13 14  1  0  0  0
 13 31  1  0  0  0
 14 15  2  0  0  0
 14 98  1  0  0  0
 15 99  1  0  0  0
 16 17  2  0  0  0
 16 21  1  0  0  0
 16 31  1  0  0  0
 17 18  1  0  0  0
 17100  1  0  0  0
 18 19  2  0  0  0
 18101  1  0  0  0
 19 20  1  0  0  0
 19 24  1  0  0  0
 20 21  2  0  0  0
 20102  1  0  0  0
 21 23  1  0  0  0
 22 28  1  0  0  0
 22 32  2  0  0  0
 26 27  1  0  0  0
 28103  1  0  0  0
 28104  1  0  0  0
 29105  1  0  0  0
 29106  1  0  0  0
 33 34  1  0  0  0
 33 66  1  0  0  0
 33 70  2  0  0  0
 34 36  1  0  0  0
 34 59  1  0  0  0
 34107  1  0  0  0
 35 44  2  0  0  0
 35 45  1  0  0  0
 35 68  1  0  0  0
 36 56  1  0  0  0
 36108  1  0  0  0
 37 39  1  0  0  0
 37 47  1  0  0  0
 37 66  1  0  0  0
 37109  1  0  0  0
 38 43  2  0  0  0
 38 46  1  0  0  0
 38 47  1  0  0  0
 39 64  1  0  0  0
 39 67  2  0  0  0
 40 52  1  0  0  0
 40 53  2  0  0  0
 40 58  1  0  0  0
 41110  1  0  0  0
 41111  1  0  0  0
 41112  1  0  0  0
 41 48  1  0  0  0
 42 43  1  0  0  0
 42 66  1  0  0  0
 42113  1  0  0  0
 42114  1  0  0  0
 43 44  1  0  0  0
 44115  1  0  0  0
 45 46  2  0  0  0
 45116  1  0  0  0
 46117  1  0  0  0
 47118  1  0  0  0
 47119  1  0  0  0
 48 56  1  0  0  0
 48 65  1  0  0  0
 48120  1  0  0  0
 49 50  1  0  0  0
 49 53  1  0  0  0
 49 64  1  0  0  0
 49121  1  0  0  0
 50 51  1  0  0  0
 50122  1  0  0  0
 50123  1  0  0  0
 51 52  1  0  0  0
 51124  1  0  0  0
 51125  1  0  0  0
 52126  1  0  0  0
 52127  1  0  0  0
 53 54  1  0  0  0
 54 55  2  0  0  0
 54128  1  0  0  0
 55 57  1  0  0  0
 55129  1  0  0  0
 56 69  2  0  0  0
 57 58  2  0  0  0
 57130  1  0  0  0
 58131  1  0  0  0
 59 60  1  0  0  0
 59 61  1  0  0  0
 59 62  1  0  0  0
 60132  1  0  0  0
 60133  1  0  0  0
 60134  1  0  0  0
 61135  1  0  0  0
 61136  1  0  0  0
 61137  1  0  0  0
 62138  1  0  0  0
 62139  1  0  0  0
 62140  1  0  0  0
 63 65  1  0  0  0
 63141  1  0  0  0
 63142  1  0  0  0
 63143  1  0  0  0
 64144  1  0  0  0
 65145  1  0  0  0
 68 82  1  0  0  0
 71 73  2  0  0  0
 71 76  1  0  0  0
 71146  1  0  0  0
 72 74  2  0  0  0
 72 75  1  0  0  0
 72147  1  0  0  0
 73 74  1  0  0  0
 73 77  1  0  0  0
 74 79  1  0  0  0
 75 76  2  0  0  0
 75 85  1  0  0  0
 76 86  1  0  0  0
 77 84  2  0  0  0
 78 79  1  0  0  0
 78148  1  0  0  0
 78149  1  0  0  0
 78150  1  0  0  0
 79151  1  0  0  0
 79152  1  0  0  0
 80 81  1  0  0  0
 80 82  1  0  0  0
 80153  1  0  0  0
 80154  1  0  0  0
 81 83  1  0  0  0
 81155  1  0  0  0
 81156  1  0  0  0
 82157  1  0  0  0
 82158  1  0  0  0
 83 85  1  0  0  0
 83159  1  0  0  0
 83160  1  0  0  0
 84161  1  0  0  0
M  ISO  4   1 100  68 101  77 100  82 101
M  END
> <chiral flag>
0

> <version>
0

> <s_m_source_file>
/data/baiqing/PycharmProjects/Reinvent-master-3.2/result/LINK_invent/BTK/process_docking_weight1_custom_product_contain_oxygen_bond_distance_aromatic_linkinvent_7_9_3/rearranged_h_0112.sdf

> <i_m_source_file_index>
34

> <r_mmod_Potential_Energy-OPLS-2005>
193.095291137695

> <r_mmod_Stretch_Energy-OPLS-2005>
54.9991455078125

> <r_mmod_Bend_Energy-OPLS-2005>
134.087478637695

> <r_mmod_Torsional_Energy-OPLS-2005>
241.474029541016

> <r_mmod_Improper_Torsional_Energy-OPLS-2005>
6.89353466033936

> <r_mmod_Van_der_Waal_Energy-OPLS-2005>
169.537384033203

> <r_mmod_Electrostatic_Energy-OPLS-2005>
-243.783065795898

> <r_mmod_Solvation_Energy-OPLS-2005>
-186.175445556641

> <b_mmod_Minimization_Converged-OPLS-2005>
0

> <r_mmod_RMS_Derivative-OPLS-2005>
4.6079568862915

$$$$
35
                    3D
 Structure written by MMmdl.
158166  0  0  1  0            999 V2000
  -30.6664  -14.6479   20.4971 C   0  0  0  0  0  0
  -30.4194  -12.3909   19.4753 C   0  0  0  0  0  0
  -29.5082  -12.5075   18.2349 C   0  0  0  0  0  0
  -28.0303  -12.3476   18.6386 C   0  0  0  0  0  0
  -27.6466  -13.2324   19.8557 C   0  0  2  0  0  0
  -28.6867  -13.1315   20.9911 C   0  0  0  0  0  0
  -25.2526  -13.8208   20.5700 C   0  0  0  0  0  0
  -24.1805  -13.0445   20.9181 C   0  0  0  0  0  0
  -24.6394  -11.6924   20.8726 C   0  0  0  0  0  0
  -23.9072  -10.4296   21.0398 C   0  0  0  0  0  0
  -24.3620   -9.4213   21.9178 C   0  0  0  0  0  0
  -23.6290   -8.2251   22.0758 C   0  0  0  0  0  0
  -22.4273   -8.0282   21.3548 C   0  0  0  0  0  0
  -21.9912   -9.0255   20.4649 C   0  0  0  0  0  0
  -22.7245  -10.2132   20.3050 C   0  0  0  0  0  0
  -21.6854   -6.0734   22.5276 C   0  0  0  0  0  0
  -21.4016   -6.5636   23.8211 C   0  0  0  0  0  0
  -21.3664   -5.6791   24.9173 C   0  0  0  0  0  0
  -21.6048   -4.3055   24.7227 C   0  0  0  0  0  0
  -21.8819   -3.8145   23.4349 C   0  0  0  0  0  0
  -21.9194   -4.6961   22.3401 C   0  0  0  0  0  0
  -22.7826  -13.5218   21.1854 C   0  0  0  0  0  0
  -22.1657   -4.2145   21.0981 F   0  0  0  0  0  0
  -21.5635   -3.4541   25.7745 F   0  0  0  0  0  0
  -30.0074  -13.4442   20.4299 N   0  0  0  0  0  0
  -26.2959  -12.9419   20.3295 N   0  0  0  0  0  0
  -25.9326  -11.6553   20.5736 N   0  0  0  0  0  0
  -22.0482  -12.8197   22.0412 N   0  0  0  0  0  0
  -25.4236  -15.1933   20.4176 N   0  0  0  0  0  0
  -31.8374  -14.6924   20.1105 O   0  0  0  0  0  0
  -21.6639   -6.8877   21.4240 O   0  0  0  0  0  0
  -22.3498  -14.5525   20.6713 O   0  0  0  0  0  0
  -24.6284  -31.8601   23.2066 C   0  0  0  0  0  0
  -25.9127  -32.4789   23.8381 C   0  0  1  0  0  0
  -27.2056  -27.3000   20.1080 C   0  0  0  0  0  0
  -25.5934  -33.8590   24.2295 N   0  0  0  0  0  0
  -23.4218  -30.4903   21.5501 C   0  0  2  0  0  0
  -24.8653  -28.9584   20.1078 C   0  0  0  0  0  0
  -22.7487  -29.4634   22.4929 C   0  0  0  0  0  0
  -18.0286  -28.1393   22.8496 C   0  0  0  0  0  0
  -24.1486  -36.7297   23.2637 C   0  0  0  0  0  0
  -25.9689  -30.7859   21.3835 C   0  0  0  0  0  0
  -26.0403  -29.4161   20.7185 C   0  0  0  0  0  0
  -27.2149  -28.5989   20.7121 C   0  0  0  0  0  0
  -26.0048  -26.9222   19.4539 C   0  0  0  0  0  0
  -24.8518  -27.7177   19.4652 C   0  0  0  0  0  0
  -23.6363  -29.8395   20.1618 C   0  0  0  0  0  0
  -25.4113  -36.3090   24.0322 C   0  0  1  0  0  0
  -20.5890  -28.3702   23.1276 C   0  0  2  0  0  0
  -20.6778  -26.9423   22.5407 C   0  0  0  0  0  0
  -19.5746  -26.6391   21.5220 C   0  0  0  0  0  0
  -18.1925  -26.7938   22.1629 C   0  0  0  0  0  0
  -19.1539  -28.8866   23.2880 C   0  0  0  0  0  0
  -18.9462  -30.1471   23.8893 C   0  0  0  0  0  0
  -17.6457  -30.6594   24.0571 C   0  0  0  0  0  0
  -25.9048  -34.9459   23.5103 C   0  0  0  0  0  0
  -16.5347  -29.9092   23.6336 C   0  0  0  0  0  0
  -16.7271  -28.6511   23.0358 C   0  0  0  0  0  0
  -26.4503  -31.6604   25.0759 C   0  0  0  0  0  0
  -25.3727  -31.3737   26.1476 C   0  0  0  0  0  0
  -27.0357  -30.3027   24.6234 C   0  0  0  0  0  0
  -27.6054  -32.4350   25.7525 C   0  0  0  0  0  0
  -27.5578  -37.1803   24.8461 C   0  0  0  0  0  0
  -21.4197  -29.3054   22.3669 N   0  0  0  0  0  0
  -26.4292  -37.3785   23.9401 N   0  0  0  0  0  0
  -24.6921  -31.0606   22.1030 N   0  0  0  0  0  0
  -23.4207  -28.8140   23.2983 O   0  0  0  0  0  0
  -28.2821  -26.3860   20.1788 O   0  0  0  0  0  0
  -26.5602  -34.8917   22.4662 O   0  0  0  0  0  0
  -23.5441  -32.1405   23.7378 O   0  0  0  0  0  0
  -28.5042  -20.2868   21.5475 C   0  0  0  0  0  0
  -29.8371  -20.7893   19.6271 C   0  0  0  0  0  0
  -29.7880  -18.4222   20.4903 C   0  0  0  0  0  0
  -28.9469  -21.2667   20.6189 C   0  0  0  0  0  0
  -28.9095  -18.9148   21.5074 C   0  0  0  0  0  0
  -30.2321  -19.4096   19.5439 C   0  0  0  0  0  0
  -30.6700  -18.3062   15.1654 C   0  0  0  0  0  0
  -30.2876  -16.9574   20.3369 C   0  0  0  0  0  0
  -31.4506  -18.7429   16.1669 C   0  0  0  0  0  0
  -28.8476  -23.7254   20.2528 C   0  0  0  0  0  0
  -30.9847  -19.6618   17.2746 C   0  0  0  0  0  0
  -27.9087  -24.9582   19.9571 C   0  0  0  0  0  0
  -28.3508  -22.5782   20.6283 N   0  0  0  0  0  0
  -29.9067  -15.8075   20.8471 N   0  0  0  0  0  0
  -28.4071  -18.0693   22.5025 N   0  0  0  0  0  0
  -31.0547  -18.9805   18.5207 O   0  0  0  0  0  0
  -31.4669  -12.4682   19.1794 H   0  0  0  0  0  0
  -30.3157  -11.4054   19.9331 H   0  0  0  0  0  0
  -29.7774  -11.7523   17.4951 H   0  0  0  0  0  0
  -29.6582  -13.4760   17.7547 H   0  0  0  0  0  0
  -27.8678  -11.2967   18.8799 H   0  0  0  0  0  0
  -27.3796  -12.5677   17.7915 H   0  0  0  0  0  0
  -27.6558  -14.2635   19.5012 H   0  0  0  0  0  0
  -28.6893  -12.1305   21.4254 H   0  0  0  0  0  0
  -28.4322  -13.8147   21.8031 H   0  0  0  0  0  0
  -25.2767   -9.5689   22.4749 H   0  0  0  0  0  0
  -24.0003   -7.4646   22.7480 H   0  0  0  0  0  0
  -21.0846   -8.8773   19.8948 H   0  0  0  0  0  0
  -22.3705  -10.9668   19.6153 H   0  0  0  0  0  0
  -21.2002   -7.6142   23.9713 H   0  0  0  0  0  0
  -21.1489   -6.0521   25.9077 H   0  0  0  0  0  0
  -22.0594   -2.7606   23.2855 H   0  0  0  0  0  0
  -22.4107  -11.9854   22.4781 H   0  0  0  0  0  0
  -21.1104  -13.1220   22.2639 H   0  0  0  0  0  0
  -24.6722  -15.8579   20.5648 H   0  0  0  0  0  0
  -26.3013  -15.6331   20.1680 H   0  0  0  0  0  0
  -26.7193  -32.5451   23.1122 H   0  0  0  0  0  0
  -25.0090  -33.9737   25.0447 H   0  0  0  0  0  0
  -22.7167  -31.3125   21.4137 H   0  0  0  0  0  0
  -23.3755  -35.9625   23.3300 H   0  0  0  0  0  0
  -24.3575  -36.8928   22.2054 H   0  0  0  0  0  0
  -23.7234  -37.6491   23.6671 H   0  0  0  0  0  0
  -26.1048  -31.5515   20.6184 H   0  0  0  0  0  0
  -26.8477  -30.8298   22.0153 H   0  0  0  0  0  0
  -28.1110  -28.9411   21.2112 H   0  0  0  0  0  0
  -25.8975  -25.9863   18.9295 H   0  0  0  0  0  0
  -23.9550  -27.3651   18.9739 H   0  0  0  0  0  0
  -23.7567  -30.6231   19.4123 H   0  0  0  0  0  0
  -22.7547  -29.2737   19.8562 H   0  0  0  0  0  0
  -25.1299  -36.1946   25.0816 H   0  0  0  0  0  0
  -20.9987  -28.3289   24.1390 H   0  0  0  0  0  0
  -20.5702  -26.2307   23.3607 H   0  0  0  0  0  0
  -21.6642  -26.7457   22.1180 H   0  0  0  0  0  0
  -19.6897  -25.6305   21.1245 H   0  0  0  0  0  0
  -19.6680  -27.3206   20.6755 H   0  0  0  0  0  0
  -17.4192  -26.6701   21.4030 H   0  0  0  0  0  0
  -18.0306  -26.0086   22.9029 H   0  0  0  0  0  0
  -19.7934  -30.7300   24.2250 H   0  0  0  0  0  0
  -17.5005  -31.6272   24.5184 H   0  0  0  0  0  0
  -15.5345  -30.2985   23.7674 H   0  0  0  0  0  0
  -15.8675  -28.0834   22.7065 H   0  0  0  0  0  0
  -24.5903  -30.7089   25.7797 H   0  0  0  0  0  0
  -24.8909  -32.2901   26.4902 H   0  0  0  0  0  0
  -25.8038  -30.8910   27.0257 H   0  0  0  0  0  0
  -26.2948  -29.6764   24.1251 H   0  0  0  0  0  0
  -27.4036  -29.7301   25.4759 H   0  0  0  0  0  0
  -27.8829  -30.4308   23.9492 H   0  0  0  0  0  0
  -27.2674  -33.3671   26.2064 H   0  0  0  0  0  0
  -28.3885  -32.6875   25.0364 H   0  0  0  0  0  0
  -28.0704  -31.8500   26.5471 H   0  0  0  0  0  0
  -28.2589  -38.0108   24.7524 H   0  0  0  0  0  0
  -28.1083  -36.2634   24.6287 H   0  0  0  0  0  0
  -27.2283  -37.1460   25.8861 H   0  0  0  0  0  0
  -20.9359  -29.8815   21.6924 H   0  0  0  0  0  0
  -26.0174  -38.2853   24.1434 H   0  0  0  0  0  0
  -27.8067  -20.6000   22.3123 H   0  0  0  0  0  0
  -30.1848  -21.4937   18.8864 H   0  0  0  0  0  0
  -31.0576  -17.6496   14.3995 H   0  0  0  0  0  0
  -29.6308  -18.5962   15.0935 H   0  0  0  0  0  0
  -31.1335  -16.9313   19.6449 H   0  0  0  0  0  0
  -32.4848  -18.4307   16.2117 H   0  0  0  0  0  0
  -29.9096  -23.8754   20.0417 H   0  0  0  0  0  0
  -29.9639  -19.9852   17.0590 H   0  0  0  0  0  0
  -31.6234  -20.5457   17.2945 H   0  0  0  0  0  0
  -26.9906  -24.7610   20.5144 H   0  0  0  0  0  0
  -27.6675  -24.8550   18.8986 H   0  0  0  0  0  0
  -27.5643  -18.3361   23.0013 H   0  0  0  0  0  0
  -28.4919  -17.0654   22.3627 H   0  0  0  0  0  0
  1 25  1  0  0  0
  1 30  2  0  0  0
  1 84  1  0  0  0
  2  3  1  0  0  0
  2 25  1  0  0  0
  2 87  1  0  0  0
  2 88  1  0  0  0
  3  4  1  0  0  0
  3 89  1  0  0  0
  3 90  1  0  0  0
  4  5  1  0  0  0
  4 91  1  0  0  0
  4 92  1  0  0  0
  5  6  1  0  0  0
  5 26  1  0  0  0
  5 93  1  0  0  0
  6 25  1  0  0  0
  6 94  1  0  0  0
  6 95  1  0  0  0
  7  8  2  0  0  0
  7 26  1  0  0  0
  7 29  1  0  0  0
  8  9  1  0  0  0
  8 22  1  0  0  0
  9 10  1  0  0  0
  9 27  2  0  0  0
 10 11  2  0  0  0
 10 15  1  0  0  0
 11 12  1  0  0  0
 11 96  1  0  0  0
 12 13  2  0  0  0
 12 97  1  0  0  0
 13 14  1  0  0  0
 13 31  1  0  0  0
 14 15  2  0  0  0
 14 98  1  0  0  0
 15 99  1  0  0  0
 16 17  2  0  0  0
 16 21  1  0  0  0
 16 31  1  0  0  0
 17 18  1  0  0  0
 17100  1  0  0  0
 18 19  2  0  0  0
 18101  1  0  0  0
 19 20  1  0  0  0
 19 24  1  0  0  0
 20 21  2  0  0  0
 20102  1  0  0  0
 21 23  1  0  0  0
 22 28  1  0  0  0
 22 32  2  0  0  0
 26 27  1  0  0  0
 28103  1  0  0  0
 28104  1  0  0  0
 29105  1  0  0  0
 29106  1  0  0  0
 33 34  1  0  0  0
 33 66  1  0  0  0
 33 70  2  0  0  0
 34 36  1  0  0  0
 34 59  1  0  0  0
 34107  1  0  0  0
 35 44  2  0  0  0
 35 45  1  0  0  0
 35 68  1  0  0  0
 36 56  1  0  0  0
 36108  1  0  0  0
 37 39  1  0  0  0
 37 47  1  0  0  0
 37 66  1  0  0  0
 37109  1  0  0  0
 38 43  2  0  0  0
 38 46  1  0  0  0
 38 47  1  0  0  0
 39 64  1  0  0  0
 39 67  2  0  0  0
 40 52  1  0  0  0
 40 53  2  0  0  0
 40 58  1  0  0  0
 41110  1  0  0  0
 41111  1  0  0  0
 41112  1  0  0  0
 41 48  1  0  0  0
 42 43  1  0  0  0
 42 66  1  0  0  0
 42113  1  0  0  0
 42114  1  0  0  0
 43 44  1  0  0  0
 44115  1  0  0  0
 45 46  2  0  0  0
 45116  1  0  0  0
 46117  1  0  0  0
 47118  1  0  0  0
 47119  1  0  0  0
 48 56  1  0  0  0
 48 65  1  0  0  0
 48120  1  0  0  0
 49 50  1  0  0  0
 49 53  1  0  0  0
 49 64  1  0  0  0
 49121  1  0  0  0
 50 51  1  0  0  0
 50122  1  0  0  0
 50123  1  0  0  0
 51 52  1  0  0  0
 51124  1  0  0  0
 51125  1  0  0  0
 52126  1  0  0  0
 52127  1  0  0  0
 53 54  1  0  0  0
 54 55  2  0  0  0
 54128  1  0  0  0
 55 57  1  0  0  0
 55129  1  0  0  0
 56 69  2  0  0  0
 57 58  2  0  0  0
 57130  1  0  0  0
 58131  1  0  0  0
 59 60  1  0  0  0
 59 61  1  0  0  0
 59 62  1  0  0  0
 60132  1  0  0  0
 60133  1  0  0  0
 60134  1  0  0  0
 61135  1  0  0  0
 61136  1  0  0  0
 61137  1  0  0  0
 62138  1  0  0  0
 62139  1  0  0  0
 62140  1  0  0  0
 63 65  1  0  0  0
 63141  1  0  0  0
 63142  1  0  0  0
 63143  1  0  0  0
 64144  1  0  0  0
 65145  1  0  0  0
 68 82  1  0  0  0
 71 74  2  0  0  0
 71 75  1  0  0  0
 71146  1  0  0  0
 72 74  1  0  0  0
 72 76  2  0  0  0
 72147  1  0  0  0
 73 75  2  0  0  0
 73 76  1  0  0  0
 73 78  1  0  0  0
 74 83  1  0  0  0
 75 85  1  0  0  0
 76 86  1  0  0  0
 77 79  2  0  0  0
 77148  1  0  0  0
 77149  1  0  0  0
 78 84  2  0  0  0
 78150  1  0  0  0
 79 81  1  0  0  0
 79151  1  0  0  0
 80 82  1  0  0  0
 80 83  2  0  0  0
 80152  1  0  0  0
 81 86  1  0  0  0
 81153  1  0  0  0
 81154  1  0  0  0
 82155  1  0  0  0
 82156  1  0  0  0
 85157  1  0  0  0
 85158  1  0  0  0
M  ISO  4   1 100  68 101  82 101  84 100
M  END
> <chiral flag>
0

> <version>
0

> <s_m_source_file>
/data/baiqing/PycharmProjects/Reinvent-master-3.2/result/LINK_invent/BTK/process_docking_weight1_custom_product_contain_oxygen_bond_distance_aromatic_linkinvent_7_9_3/rearranged_h_0112.sdf

> <i_m_source_file_index>
35

> <r_mmod_Potential_Energy-OPLS-2005>
284.916656494141

> <r_mmod_Stretch_Energy-OPLS-2005>
98.9477462768555

> <r_mmod_Bend_Energy-OPLS-2005>
172.61979675293

> <r_mmod_Torsional_Energy-OPLS-2005>
186.945953369141

> <r_mmod_Improper_Torsional_Energy-OPLS-2005>
8.03596496582031

> <r_mmod_Van_der_Waal_Energy-OPLS-2005>
176.170745849609

> <r_mmod_Electrostatic_Energy-OPLS-2005>
-220.328063964844

> <r_mmod_Solvation_Energy-OPLS-2005>
-197.216537475586

> <b_mmod_Minimization_Converged-OPLS-2005>
0

> <r_mmod_RMS_Derivative-OPLS-2005>
1.09683454036713

$$$$
36
                    3D
 Structure written by MMmdl.
150158  0  0  1  0            999 V2000
  -30.6680  -14.7760   20.4533 C   0  0  0  0  0  0
  -30.4124  -12.4762   19.4888 C   0  0  0  0  0  0
  -29.5009  -12.4944   18.2440 C   0  0  0  0  0  0
  -28.0329  -12.3137   18.6668 C   0  0  0  0  0  0
  -27.6318  -13.2451   19.8424 C   0  0  2  0  0  0
  -28.6769  -13.2398   20.9808 C   0  0  0  0  0  0
  -25.2460  -13.8238   20.5704 C   0  0  0  0  0  0
  -24.1783  -13.0457   20.9244 C   0  0  0  0  0  0
  -24.6391  -11.6939   20.8779 C   0  0  0  0  0  0
  -23.9093  -10.4297   21.0420 C   0  0  0  0  0  0
  -24.3633   -9.4203   21.9196 C   0  0  0  0  0  0
  -23.6289   -8.2249   22.0771 C   0  0  0  0  0  0
  -22.4273   -8.0294   21.3562 C   0  0  0  0  0  0
  -21.9916   -9.0282   20.4669 C   0  0  0  0  0  0
  -22.7260  -10.2150   20.3077 C   0  0  0  0  0  0
  -21.6849   -6.0749   22.5279 C   0  0  0  0  0  0
  -21.4002   -6.5647   23.8210 C   0  0  0  0  0  0
  -21.3655   -5.6801   24.9167 C   0  0  0  0  0  0
  -21.6041   -4.3061   24.7212 C   0  0  0  0  0  0
  -21.8825   -3.8161   23.4327 C   0  0  0  0  0  0
  -21.9184   -4.6979   22.3391 C   0  0  0  0  0  0
  -22.7787  -13.5218   21.1876 C   0  0  0  0  0  0
  -22.1659   -4.2161   21.0971 F   0  0  0  0  0  0
  -21.5630   -3.4542   25.7726 F   0  0  0  0  0  0
  -29.9748  -13.5798   20.3872 N   0  0  0  0  0  0
  -26.2891  -12.9477   20.3278 N   0  0  0  0  0  0
  -25.9321  -11.6609   20.5785 N   0  0  0  0  0  0
  -22.0451  -12.8211   22.0435 N   0  0  0  0  0  0
  -25.4131  -15.1965   20.4102 N   0  0  0  0  0  0
  -31.8628  -14.7309   20.1496 O   0  0  0  0  0  0
  -21.6641   -6.8888   21.4245 O   0  0  0  0  0  0
  -22.3475  -14.5530   20.6710 O   0  0  0  0  0  0
  -24.6323  -31.8548   23.1991 C   0  0  0  0  0  0
  -25.9145  -32.4746   23.8356 C   0  0  1  0  0  0
  -27.2081  -27.2366   20.1443 C   0  0  0  0  0  0
  -25.5928  -33.8555   24.2242 N   0  0  0  0  0  0
  -23.4322  -30.4807   21.5412 C   0  0  2  0  0  0
  -24.8804  -28.9335   20.1052 C   0  0  0  0  0  0
  -22.7542  -29.4599   22.4881 C   0  0  0  0  0  0
  -18.0305  -28.1413   22.8473 C   0  0  0  0  0  0
  -24.1491  -36.7293   23.2642 C   0  0  0  0  0  0
  -25.9816  -30.7608   21.3878 C   0  0  0  0  0  0
  -26.0528  -29.3844   20.7257 C   0  0  0  0  0  0
  -27.2196  -28.5481   20.7368 C   0  0  0  0  0  0
  -26.0186  -26.8811   19.4655 C   0  0  0  0  0  0
  -24.8698  -27.6909   19.4603 C   0  0  0  0  0  0
  -23.6536  -29.8235   20.1555 C   0  0  0  0  0  0
  -25.4119  -36.3058   24.0309 C   0  0  1  0  0  0
  -20.5912  -28.3736   23.1255 C   0  0  2  0  0  0
  -20.6807  -26.9454   22.5422 C   0  0  0  0  0  0
  -19.5783  -26.6394   21.5227 C   0  0  0  0  0  0
  -18.1948  -26.7956   22.1611 C   0  0  0  0  0  0
  -19.1557  -28.8888   23.2853 C   0  0  0  0  0  0
  -18.9484  -30.1476   23.8885 C   0  0  0  0  0  0
  -17.6490  -30.6603   24.0575 C   0  0  0  0  0  0
  -25.9067  -34.9432   23.5080 C   0  0  0  0  0  0
  -16.5367  -29.9110   23.6351 C   0  0  0  0  0  0
  -16.7291  -28.6531   23.0346 C   0  0  0  0  0  0
  -26.4521  -31.6579   25.0750 C   0  0  0  0  0  0
  -25.3721  -31.3732   26.1442 C   0  0  0  0  0  0
  -27.0403  -30.2986   24.6284 C   0  0  0  0  0  0
  -27.6068  -32.4345   25.7506 C   0  0  0  0  0  0
  -27.5582  -37.1771   24.8458 C   0  0  0  0  0  0
  -21.4244  -29.3058   22.3618 N   0  0  0  0  0  0
  -26.4290  -37.3755   23.9407 N   0  0  0  0  0  0
  -24.7000  -31.0505   22.0980 N   0  0  0  0  0  0
  -23.4235  -28.8145   23.2997 O   0  0  0  0  0  0
  -28.2635  -26.2866   20.2505 O   0  0  0  0  0  0
  -26.5664  -34.8908   22.4664 O   0  0  0  0  0  0
  -23.5457  -32.1381   23.7254 O   0  0  0  0  0  0
  -29.1045  -19.6258   20.0200 C   0  0  0  0  0  0
  -29.8979  -18.6847   20.8062 C   0  0  0  0  0  0
  -29.1114  -20.9086   20.5889 C   0  0  0  0  0  0
  -30.2878  -19.4873   21.8631 C   0  0  0  0  0  0
  -28.5782  -22.2589   20.2036 C   0  0  0  0  0  0
  -28.7534  -23.5929   20.5677 C   0  0  0  0  0  0
  -30.5707  -17.2879   20.5605 C   0  0  0  0  0  0
  -31.1660  -19.2619   23.0550 C   0  0  0  0  0  0
  -27.9311  -24.8321   19.9869 C   0  0  0  0  0  0
  -30.0126  -16.0044   20.6611 N   0  0  0  0  0  0
  -31.7594  -17.4121   20.2469 O   0  0  0  0  0  0
  -29.8353  -20.7928   21.7387 O   0  0  0  0  0  0
  -31.4542  -12.5609   19.1777 H   0  0  0  0  0  0
  -30.3429  -11.5180   20.0054 H   0  0  0  0  0  0
  -29.7871  -11.6982   17.5550 H   0  0  0  0  0  0
  -29.6185  -13.4327   17.7015 H   0  0  0  0  0  0
  -27.9102  -11.2712   18.9665 H   0  0  0  0  0  0
  -27.3657  -12.4604   17.8155 H   0  0  0  0  0  0
  -27.6079  -14.2530   19.4269 H   0  0  0  0  0  0
  -28.7208  -12.2636   21.4662 H   0  0  0  0  0  0
  -28.4059  -13.9573   21.7568 H   0  0  0  0  0  0
  -25.2774   -9.5666   22.4783 H   0  0  0  0  0  0
  -23.9985   -7.4644   22.7500 H   0  0  0  0  0  0
  -21.0851   -8.8823   19.8977 H   0  0  0  0  0  0
  -22.3725  -10.9705   19.6207 H   0  0  0  0  0  0
  -21.1994   -7.6151   23.9712 H   0  0  0  0  0  0
  -21.1471   -6.0526   25.9075 H   0  0  0  0  0  0
  -22.0603   -2.7616   23.2829 H   0  0  0  0  0  0
  -22.4060  -11.9849   22.4782 H   0  0  0  0  0  0
  -21.1095  -13.1271   22.2694 H   0  0  0  0  0  0
  -24.6444  -15.8474   20.5303 H   0  0  0  0  0  0
  -26.2505  -15.6373   20.0511 H   0  0  0  0  0  0
  -26.7206  -32.5391   23.1093 H   0  0  0  0  0  0
  -24.9977  -33.9693   25.0317 H   0  0  0  0  0  0
  -22.7247  -31.3000   21.3999 H   0  0  0  0  0  0
  -23.3749  -35.9631   23.3283 H   0  0  0  0  0  0
  -24.3581  -36.8965   22.2067 H   0  0  0  0  0  0
  -23.7252  -37.6476   23.6711 H   0  0  0  0  0  0
  -26.1294  -31.5232   20.6218 H   0  0  0  0  0  0
  -26.8542  -30.8039   22.0283 H   0  0  0  0  0  0
  -28.1094  -28.8806   21.2538 H   0  0  0  0  0  0
  -25.9278  -25.9413   18.9444 H   0  0  0  0  0  0
  -23.9766  -27.3453   18.9586 H   0  0  0  0  0  0
  -23.7833  -30.6048   19.4059 H   0  0  0  0  0  0
  -22.7696  -29.2640   19.8462 H   0  0  0  0  0  0
  -25.1302  -36.1880   25.0801 H   0  0  0  0  0  0
  -20.9999  -28.3359   24.1376 H   0  0  0  0  0  0
  -20.5738  -26.2368   23.3643 H   0  0  0  0  0  0
  -21.6673  -26.7494   22.1201 H   0  0  0  0  0  0
  -19.6956  -25.6303   21.1266 H   0  0  0  0  0  0
  -19.6716  -27.3194   20.6752 H   0  0  0  0  0  0
  -17.4242  -26.6720   21.3991 H   0  0  0  0  0  0
  -18.0304  -26.0098   22.8996 H   0  0  0  0  0  0
  -19.7964  -30.7282   24.2258 H   0  0  0  0  0  0
  -17.5050  -31.6275   24.5202 H   0  0  0  0  0  0
  -15.5369  -30.3007   23.7683 H   0  0  0  0  0  0
  -15.8692  -28.0851   22.7059 H   0  0  0  0  0  0
  -24.5958  -30.7014   25.7763 H   0  0  0  0  0  0
  -24.8844  -32.2896   26.4765 H   0  0  0  0  0  0
  -25.8033  -30.8993   27.0267 H   0  0  0  0  0  0
  -26.3021  -29.6652   24.1344 H   0  0  0  0  0  0
  -27.4108  -29.7326   25.4844 H   0  0  0  0  0  0
  -27.8888  -30.4265   23.9563 H   0  0  0  0  0  0
  -27.2704  -33.3674   26.2038 H   0  0  0  0  0  0
  -28.3884  -32.6842   25.0325 H   0  0  0  0  0  0
  -28.0733  -31.8501   26.5438 H   0  0  0  0  0  0
  -28.2565  -38.0096   24.7519 H   0  0  0  0  0  0
  -28.1112  -36.2620   24.6266 H   0  0  0  0  0  0
  -27.2310  -37.1401   25.8863 H   0  0  0  0  0  0
  -20.9439  -29.8772   21.6798 H   0  0  0  0  0  0
  -26.0164  -38.2822   24.1418 H   0  0  0  0  0  0
  -28.6584  -19.4083   19.0604 H   0  0  0  0  0  0
  -27.8147  -22.1479   19.4439 H   0  0  0  0  0  0
  -29.4832  -23.8316   21.3293 H   0  0  0  0  0  0
  -30.6196  -18.7625   23.8553 H   0  0  0  0  0  0
  -31.5379  -20.2061   23.4538 H   0  0  0  0  0  0
  -32.0350  -18.6520   22.8038 H   0  0  0  0  0  0
  -26.9289  -24.6391   20.3705 H   0  0  0  0  0  0
  -27.8760  -24.6981   18.9055 H   0  0  0  0  0  0
  -29.0343  -15.9649   20.8915 H   0  0  0  0  0  0
  1 25  1  0  0  0
  1 30  2  0  0  0
  1 80  1  0  0  0
  2  3  1  0  0  0
  2 25  1  0  0  0
  2 83  1  0  0  0
  2 84  1  0  0  0
  3  4  1  0  0  0
  3 85  1  0  0  0
  3 86  1  0  0  0
  4  5  1  0  0  0
  4 87  1  0  0  0
  4 88  1  0  0  0
  5  6  1  0  0  0
  5 26  1  0  0  0
  5 89  1  0  0  0
  6 25  1  0  0  0
  6 90  1  0  0  0
  6 91  1  0  0  0
  7  8  2  0  0  0
  7 26  1  0  0  0
  7 29  1  0  0  0
  8  9  1  0  0  0
  8 22  1  0  0  0
  9 10  1  0  0  0
  9 27  2  0  0  0
 10 11  2  0  0  0
 10 15  1  0  0  0
 11 12  1  0  0  0
 11 92  1  0  0  0
 12 13  2  0  0  0
 12 93  1  0  0  0
 13 14  1  0  0  0
 13 31  1  0  0  0
 14 15  2  0  0  0
 14 94  1  0  0  0
 15 95  1  0  0  0
 16 17  2  0  0  0
 16 21  1  0  0  0
 16 31  1  0  0  0
 17 18  1  0  0  0
 17 96  1  0  0  0
 18 19  2  0  0  0
 18 97  1  0  0  0
 19 20  1  0  0  0
 19 24  1  0  0  0
 20 21  2  0  0  0
 20 98  1  0  0  0
 21 23  1  0  0  0
 22 28  1  0  0  0
 22 32  2  0  0  0
 26 27  1  0  0  0
 28 99  1  0  0  0
 28100  1  0  0  0
 29101  1  0  0  0
 29102  1  0  0  0
 33 34  1  0  0  0
 33 66  1  0  0  0
 33 70  2  0  0  0
 34 36  1  0  0  0
 34 59  1  0  0  0
 34103  1  0  0  0
 35 44  2  0  0  0
 35 45  1  0  0  0
 35 68  1  0  0  0
 36 56  1  0  0  0
 36104  1  0  0  0
 37 39  1  0  0  0
 37 47  1  0  0  0
 37 66  1  0  0  0
 37105  1  0  0  0
 38 43  2  0  0  0
 38 46  1  0  0  0
 38 47  1  0  0  0
 39 64  1  0  0  0
 39 67  2  0  0  0
 40 52  1  0  0  0
 40 53  2  0  0  0
 40 58  1  0  0  0
 41106  1  0  0  0
 41107  1  0  0  0
 41108  1  0  0  0
 41 48  1  0  0  0
 42 43  1  0  0  0
 42 66  1  0  0  0
 42109  1  0  0  0
 42110  1  0  0  0
 43 44  1  0  0  0
 44111  1  0  0  0
 45 46  2  0  0  0
 45112  1  0  0  0
 46113  1  0  0  0
 47114  1  0  0  0
 47115  1  0  0  0
 48 56  1  0  0  0
 48 65  1  0  0  0
 48116  1  0  0  0
 49 50  1  0  0  0
 49 53  1  0  0  0
 49 64  1  0  0  0
 49117  1  0  0  0
 50 51  1  0  0  0
 50118  1  0  0  0
 50119  1  0  0  0
 51 52  1  0  0  0
 51120  1  0  0  0
 51121  1  0  0  0
 52122  1  0  0  0
 52123  1  0  0  0
 53 54  1  0  0  0
 54 55  2  0  0  0
 54124  1  0  0  0
 55 57  1  0  0  0
 55125  1  0  0  0
 56 69  2  0  0  0
 57 58  2  0  0  0
 57126  1  0  0  0
 58127  1  0  0  0
 59 60  1  0  0  0
 59 61  1  0  0  0
 59 62  1  0  0  0
 60128  1  0  0  0
 60129  1  0  0  0
 60130  1  0  0  0
 61131  1  0  0  0
 61132  1  0  0  0
 61133  1  0  0  0
 62134  1  0  0  0
 62135  1  0  0  0
 62136  1  0  0  0
 63 65  1  0  0  0
 63137  1  0  0  0
 63138  1  0  0  0
 63139  1  0  0  0
 64140  1  0  0  0
 65141  1  0  0  0
 68 79  1  0  0  0
 71 72  1  0  0  0
 71 73  2  0  0  0
 71142  1  0  0  0
 72 74  2  0  0  0
 72 77  1  0  0  0
 73 75  1  0  0  0
 73 82  1  0  0  0
 74 78  1  0  0  0
 74 82  1  0  0  0
 75 76  2  0  0  0
 75143  1  0  0  0
 76 79  1  0  0  0
 76144  1  0  0  0
 77 80  1  0  0  0
 77 81  2  0  0  0
 78145  1  0  0  0
 78146  1  0  0  0
 78147  1  0  0  0
 79148  1  0  0  0
 79149  1  0  0  0
 80150  1  0  0  0
M  ISO  4   1 100  68 101  79 101  80 100
M  END
> <chiral flag>
0

> <version>
0

> <s_m_source_file>
/data/baiqing/PycharmProjects/Reinvent-master-3.2/result/LINK_invent/BTK/process_docking_weight1_custom_product_contain_oxygen_bond_distance_aromatic_linkinvent_7_9_3/rearranged_h_0112.sdf

> <i_m_source_file_index>
36

> <r_mmod_Potential_Energy-OPLS-2005>
159.913879394531

> <r_mmod_Stretch_Energy-OPLS-2005>
130.290237426758

> <r_mmod_Bend_Energy-OPLS-2005>
186.993423461914

> <r_mmod_Torsional_Energy-OPLS-2005>
243.539505004883

> <r_mmod_Improper_Torsional_Energy-OPLS-2005>
8.07226753234863

> <r_mmod_Van_der_Waal_Energy-OPLS-2005>
135.438552856445

> <r_mmod_Electrostatic_Energy-OPLS-2005>
-422.943145751953

> <r_mmod_Solvation_Energy-OPLS-2005>
-230.638244628906

> <b_mmod_Minimization_Converged-OPLS-2005>
0

> <r_mmod_RMS_Derivative-OPLS-2005>
2.64005279541016

$$$$
37
                    3D
 Structure written by MMmdl.
167175  0  0  1  0            999 V2000
  -30.6571  -14.5570   20.5561 C   0  0  0  0  0  0
  -30.4450  -12.3520   19.4302 C   0  0  0  0  0  0
  -29.5104  -12.5206   18.2111 C   0  0  0  0  0  0
  -28.0281  -12.3779   18.6184 C   0  0  0  0  0  0
  -27.6672  -13.2116   19.8754 C   0  0  2  0  0  0
  -28.7137  -13.0046   20.9929 C   0  0  0  0  0  0
  -25.2614  -13.8139   20.5620 C   0  0  0  0  0  0
  -24.1887  -13.0423   20.9175 C   0  0  0  0  0  0
  -24.6437  -11.6895   20.8747 C   0  0  0  0  0  0
  -23.9084  -10.4294   21.0402 C   0  0  0  0  0  0
  -24.3616   -9.4203   21.9161 C   0  0  0  0  0  0
  -23.6281   -8.2248   22.0729 C   0  0  0  0  0  0
  -22.4260   -8.0298   21.3510 C   0  0  0  0  0  0
  -21.9911   -9.0291   20.4614 C   0  0  0  0  0  0
  -22.7269  -10.2155   20.3034 C   0  0  0  0  0  0
  -21.6838   -6.0763   22.5278 C   0  0  0  0  0  0
  -21.4018   -6.5648   23.8231 C   0  0  0  0  0  0
  -21.3670   -5.6779   24.9180 C   0  0  0  0  0  0
  -21.6051   -4.3044   24.7202 C   0  0  0  0  0  0
  -21.8805   -3.8147   23.4311 C   0  0  0  0  0  0
  -21.9185   -4.6990   22.3384 C   0  0  0  0  0  0
  -22.7900  -13.5237   21.1823 C   0  0  0  0  0  0
  -22.1630   -4.2188   21.0958 F   0  0  0  0  0  0
  -21.5638   -3.4511   25.7700 F   0  0  0  0  0  0
  -30.0374  -13.3429   20.4392 N   0  0  0  0  0  0
  -26.3085  -12.9328   20.3356 N   0  0  0  0  0  0
  -25.9377  -11.6483   20.5770 N   0  0  0  0  0  0
  -22.0521  -12.8247   22.0370 N   0  0  0  0  0  0
  -25.4226  -15.1858   20.3873 N   0  0  0  0  0  0
  -31.8009  -14.7620   20.1415 O   0  0  0  0  0  0
  -21.6603   -6.8905   21.4237 O   0  0  0  0  0  0
  -22.3617  -14.5548   20.6680 O   0  0  0  0  0  0
  -24.6234  -31.8630   23.2061 C   0  0  0  0  0  0
  -25.9105  -32.4793   23.8368 C   0  0  1  0  0  0
  -27.2275  -27.3648   20.1306 C   0  0  0  0  0  0
  -25.5940  -33.8591   24.2309 N   0  0  0  0  0  0
  -23.4161  -30.4853   21.5475 C   0  0  2  0  0  0
  -24.8662  -28.9480   20.1099 C   0  0  0  0  0  0
  -22.7464  -29.4630   22.4950 C   0  0  0  0  0  0
  -18.0307  -28.1384   22.8460 C   0  0  0  0  0  0
  -24.1485  -36.7306   23.2642 C   0  0  0  0  0  0
  -25.9515  -30.8069   21.3737 C   0  0  0  0  0  0
  -26.0284  -29.4358   20.7227 C   0  0  0  0  0  0
  -27.2175  -28.6552   20.7290 C   0  0  0  0  0  0
  -26.0617  -26.9249   19.4726 C   0  0  0  0  0  0
  -24.8834  -27.6964   19.4717 C   0  0  0  0  0  0
  -23.6294  -29.8197   20.1610 C   0  0  0  0  0  0
  -25.4104  -36.3098   24.0344 C   0  0  1  0  0  0
  -20.5906  -28.3688   23.1317 C   0  0  2  0  0  0
  -20.6823  -26.9419   22.5439 C   0  0  0  0  0  0
  -19.5802  -26.6358   21.5225 C   0  0  0  0  0  0
  -18.1949  -26.7938   22.1564 C   0  0  0  0  0  0
  -19.1543  -28.8853   23.2900 C   0  0  0  0  0  0
  -18.9441  -30.1467   23.8910 C   0  0  0  0  0  0
  -17.6437  -30.6593   24.0568 C   0  0  0  0  0  0
  -25.9026  -34.9467   23.5111 C   0  0  0  0  0  0
  -16.5349  -29.9071   23.6323 C   0  0  0  0  0  0
  -16.7287  -28.6506   23.0309 C   0  0  0  0  0  0
  -26.4510  -31.6582   25.0721 C   0  0  0  0  0  0
  -25.3759  -31.3698   26.1446 C   0  0  0  0  0  0
  -27.0323  -30.2990   24.6149 C   0  0  0  0  0  0
  -27.6077  -32.4295   25.7489 C   0  0  0  0  0  0
  -27.5585  -37.1802   24.8467 C   0  0  0  0  0  0
  -21.4174  -29.3049   22.3721 N   0  0  0  0  0  0
  -26.4291  -37.3784   23.9416 N   0  0  0  0  0  0
  -24.6822  -31.0660   22.1001 N   0  0  0  0  0  0
  -23.4201  -28.8173   23.3021 O   0  0  0  0  0  0
  -28.3282  -26.5213   20.1029 O   0  0  0  0  0  0
  -26.5569  -34.8936   22.4661 O   0  0  0  0  0  0
  -23.5417  -32.1401   23.7424 O   0  0  0  0  0  0
  -28.8317  -19.1286   20.5719 C   0  0  0  0  0  0
  -30.8691  -17.6829   21.8664 C   0  0  0  0  0  0
  -29.6473  -19.8150   21.5031 C   0  0  0  0  0  0
  -29.9696  -16.9829   21.0260 C   0  0  0  0  0  0
  -28.9851  -17.7332   20.3396 C   0  0  0  0  0  0
  -30.7112  -19.0833   22.1145 C   0  0  0  0  0  0
  -26.4549  -24.7566   22.2185 C   0  0  0  0  0  0
  -28.0320  -23.0344   21.6604 C   0  0  0  0  0  0
  -29.1840  -21.1448   22.1022 C   0  0  0  0  0  0
  -27.6741  -24.5200   21.6658 C   0  0  0  0  0  0
  -25.8223  -26.0766   22.6099 C   0  0  0  0  0  0
  -27.5398  -16.4537   17.2817 C   0  0  0  0  0  0
  -31.8978  -19.0701   24.1924 C   0  0  0  0  0  0
  -28.6504  -25.6636   21.2502 C   0  0  0  0  0  0
  -28.0110  -17.5845   18.1998 C   0  0  0  0  0  0
  -29.1044  -22.3618   21.3732 N   0  0  0  0  0  0
  -29.8516  -15.5444   21.0174 N   0  0  0  0  0  0
  -28.8790  -21.0634   23.2984 O   0  0  0  0  0  0
  -31.5256  -19.7571   23.0016 O   0  0  0  0  0  0
  -28.1331  -17.0478   19.5098 O   0  0  0  0  0  0
  -31.4885  -12.4736   19.1344 H   0  0  0  0  0  0
  -30.3657  -11.3447   19.8449 H   0  0  0  0  0  0
  -29.7577  -11.7847   17.4440 H   0  0  0  0  0  0
  -29.6753  -13.5021   17.7603 H   0  0  0  0  0  0
  -27.8366  -11.3211   18.8069 H   0  0  0  0  0  0
  -27.3764  -12.6594   17.7894 H   0  0  0  0  0  0
  -27.7038  -14.2601   19.5810 H   0  0  0  0  0  0
  -28.7099  -11.9657   21.3261 H   0  0  0  0  0  0
  -28.4643  -13.5947   21.8761 H   0  0  0  0  0  0
  -25.2765   -9.5661   22.4733 H   0  0  0  0  0  0
  -23.9981   -7.4628   22.7441 H   0  0  0  0  0  0
  -21.0842   -8.8850   19.8904 H   0  0  0  0  0  0
  -22.3749  -10.9706   19.6141 H   0  0  0  0  0  0
  -21.1999   -7.6148   23.9759 H   0  0  0  0  0  0
  -21.1504   -6.0481   25.9097 H   0  0  0  0  0  0
  -22.0565   -2.7614   23.2780 H   0  0  0  0  0  0
  -22.4106  -11.9932   22.4806 H   0  0  0  0  0  0
  -21.1147  -13.1282   22.2557 H   0  0  0  0  0  0
  -24.6234  -15.8090   20.4407 H   0  0  0  0  0  0
  -26.2446  -15.6325   19.9986 H   0  0  0  0  0  0
  -26.7193  -32.5496   23.1149 H   0  0  0  0  0  0
  -25.0164  -33.9722   25.0512 H   0  0  0  0  0  0
  -22.7105  -31.3063   21.4069 H   0  0  0  0  0  0
  -23.3755  -35.9629   23.3301 H   0  0  0  0  0  0
  -24.3594  -36.8898   22.2053 H   0  0  0  0  0  0
  -23.7205  -37.6516   23.6633 H   0  0  0  0  0  0
  -26.0709  -31.5681   20.6038 H   0  0  0  0  0  0
  -26.8371  -30.8600   21.9959 H   0  0  0  0  0  0
  -28.1152  -29.0250   21.2038 H   0  0  0  0  0  0
  -26.0561  -25.9597   18.9860 H   0  0  0  0  0  0
  -23.9952  -27.3202   18.9832 H   0  0  0  0  0  0
  -23.7415  -30.5968   19.4032 H   0  0  0  0  0  0
  -22.7512  -29.2421   19.8650 H   0  0  0  0  0  0
  -25.1275  -36.1973   25.0837 H   0  0  0  0  0  0
  -20.9992  -28.3247   24.1447 H   0  0  0  0  0  0
  -20.5746  -26.2313   23.3641 H   0  0  0  0  0  0
  -21.6691  -26.7451   22.1238 H   0  0  0  0  0  0
  -19.6996  -25.6256   21.1296 H   0  0  0  0  0  0
  -19.6780  -27.3129   20.6730 H   0  0  0  0  0  0
  -18.0251  -26.0041   22.8888 H   0  0  0  0  0  0
  -17.4283  -26.6747   21.3887 H   0  0  0  0  0  0
  -19.7893  -30.7322   24.2288 H   0  0  0  0  0  0
  -17.4951  -31.6267   24.5167 H   0  0  0  0  0  0
  -15.5342  -30.2950   23.7655 H   0  0  0  0  0  0
  -15.8694  -28.0850   22.6972 H   0  0  0  0  0  0
  -24.5950  -30.7018   25.7787 H   0  0  0  0  0  0
  -24.8949  -32.2862   26.4868 H   0  0  0  0  0  0
  -25.8098  -30.8884   27.0214 H   0  0  0  0  0  0
  -26.2871  -29.6746   24.1190 H   0  0  0  0  0  0
  -27.4040  -29.7216   25.4635 H   0  0  0  0  0  0
  -27.8752  -30.4257   23.9339 H   0  0  0  0  0  0
  -27.2689  -33.3587   26.2066 H   0  0  0  0  0  0
  -28.3891  -32.6830   25.0321 H   0  0  0  0  0  0
  -28.0753  -31.8413   26.5393 H   0  0  0  0  0  0
  -28.2597  -38.0105   24.7521 H   0  0  0  0  0  0
  -28.1069  -36.2630   24.6275 H   0  0  0  0  0  0
  -27.2307  -37.1447   25.8870 H   0  0  0  0  0  0
  -20.9326  -29.8767   21.6963 H   0  0  0  0  0  0
  -26.0191  -38.2869   24.1409 H   0  0  0  0  0  0
  -27.9944  -19.6490   20.1264 H   0  0  0  0  0  0
  -31.6279  -17.1174   22.3871 H   0  0  0  0  0  0
  -25.8049  -23.9297   22.4713 H   0  0  0  0  0  0
  -27.1802  -22.4587   22.0450 H   0  0  0  0  0  0
  -26.5385  -26.8941   22.6522 H   0  0  0  0  0  0
  -25.3846  -25.9887   23.6047 H   0  0  0  0  0  0
  -25.0123  -26.3284   21.9261 H   0  0  0  0  0  0
  -27.4924  -16.7782   16.2425 H   0  0  0  0  0  0
  -26.5477  -16.1052   17.5646 H   0  0  0  0  0  0
  -28.2191  -15.6024   17.3339 H   0  0  0  0  0  0
  -32.3778  -19.7728   24.8757 H   0  0  0  0  0  0
  -32.6099  -18.2666   24.0067 H   0  0  0  0  0  0
  -31.0240  -18.6610   24.7049 H   0  0  0  0  0  0
  -29.6217  -25.2119   21.0462 H   0  0  0  0  0  0
  -28.8080  -26.2989   22.1223 H   0  0  0  0  0  0
  -27.2972  -18.4092   18.1886 H   0  0  0  0  0  0
  -28.9689  -17.9708   17.8427 H   0  0  0  0  0  0
  -28.9106  -15.2186   21.1745 H   0  0  0  0  0  0
  1 25  1  0  0  0
  1 30  2  0  0  0
  1 87  1  0  0  0
  2  3  1  0  0  0
  2 25  1  0  0  0
  2 91  1  0  0  0
  2 92  1  0  0  0
  3  4  1  0  0  0
  3 93  1  0  0  0
  3 94  1  0  0  0
  4  5  1  0  0  0
  4 95  1  0  0  0
  4 96  1  0  0  0
  5  6  1  0  0  0
  5 26  1  0  0  0
  5 97  1  0  0  0
  6 25  1  0  0  0
  6 98  1  0  0  0
  6 99  1  0  0  0
  7  8  2  0  0  0
  7 26  1  0  0  0
  7 29  1  0  0  0
  8  9  1  0  0  0
  8 22  1  0  0  0
  9 10  1  0  0  0
  9 27  2  0  0  0
 10 11  2  0  0  0
 10 15  1  0  0  0
 11 12  1  0  0  0
 11100  1  0  0  0
 12 13  2  0  0  0
 12101  1  0  0  0
 13 14  1  0  0  0
 13 31  1  0  0  0
 14 15  2  0  0  0
 14102  1  0  0  0
 15103  1  0  0  0
 16 17  2  0  0  0
 16 21  1  0  0  0
 16 31  1  0  0  0
 17 18  1  0  0  0
 17104  1  0  0  0
 18 19  2  0  0  0
 18105  1  0  0  0
 19 20  1  0  0  0
 19 24  1  0  0  0
 20 21  2  0  0  0
 20106  1  0  0  0
 21 23  1  0  0  0
 22 28  1  0  0  0
 22 32  2  0  0  0
 26 27  1  0  0  0
 28107  1  0  0  0
 28108  1  0  0  0
 29109  1  0  0  0
 29110  1  0  0  0
 33 34  1  0  0  0
 33 66  1  0  0  0
 33 70  2  0  0  0
 34 36  1  0  0  0
 34 59  1  0  0  0
 34111  1  0  0  0
 35 44  2  0  0  0
 35 45  1  0  0  0
 35 68  1  0  0  0
 36 56  1  0  0  0
 36112  1  0  0  0
 37 39  1  0  0  0
 37 47  1  0  0  0
 37 66  1  0  0  0
 37113  1  0  0  0
 38 43  2  0  0  0
 38 46  1  0  0  0
 38 47  1  0  0  0
 39 64  1  0  0  0
 39 67  2  0  0  0
 40 52  1  0  0  0
 40 53  2  0  0  0
 40 58  1  0  0  0
 41114  1  0  0  0
 41115  1  0  0  0
 41116  1  0  0  0
 41 48  1  0  0  0
 42 43  1  0  0  0
 42 66  1  0  0  0
 42117  1  0  0  0
 42118  1  0  0  0
 43 44  1  0  0  0
 44119  1  0  0  0
 45 46  2  0  0  0
 45120  1  0  0  0
 46121  1  0  0  0
 47122  1  0  0  0
 47123  1  0  0  0
 48 56  1  0  0  0
 48 65  1  0  0  0
 48124  1  0  0  0
 49 50  1  0  0  0
 49 53  1  0  0  0
 49 64  1  0  0  0
 49125  1  0  0  0
 50 51  1  0  0  0
 50126  1  0  0  0
 50127  1  0  0  0
 51 52  1  0  0  0
 51128  1  0  0  0
 51129  1  0  0  0
 52130  1  0  0  0
 52131  1  0  0  0
 53 54  1  0  0  0
 54 55  2  0  0  0
 54132  1  0  0  0
 55 57  1  0  0  0
 55133  1  0  0  0
 56 69  2  0  0  0
 57 58  2  0  0  0
 57134  1  0  0  0
 58135  1  0  0  0
 59 60  1  0  0  0
 59 61  1  0  0  0
 59 62  1  0  0  0
 60136  1  0  0  0
 60137  1  0  0  0
 60138  1  0  0  0
 61139  1  0  0  0
 61140  1  0  0  0
 61141  1  0  0  0
 62142  1  0  0  0
 62143  1  0  0  0
 62144  1  0  0  0
 63 65  1  0  0  0
 63145  1  0  0  0
 63146  1  0  0  0
 63147  1  0  0  0
 64148  1  0  0  0
 65149  1  0  0  0
 68 84  1  0  0  0
 71 73  2  0  0  0
 71 75  1  0  0  0
 71150  1  0  0  0
 72 74  1  0  0  0
 72 76  2  0  0  0
 72151  1  0  0  0
 73 76  1  0  0  0
 73 79  1  0  0  0
 74 75  2  0  0  0
 74 87  1  0  0  0
 75 90  1  0  0  0
 76 89  1  0  0  0
 77 80  2  0  0  0
 77 81  1  0  0  0
 77152  1  0  0  0
 78 80  1  0  0  0
 78 86  2  0  0  0
 78153  1  0  0  0
 79 86  1  0  0  0
 79 88  2  0  0  0
 80 84  1  0  0  0
 81154  1  0  0  0
 81155  1  0  0  0
 81156  1  0  0  0
 82 85  1  0  0  0
 82157  1  0  0  0
 82158  1  0  0  0
 82159  1  0  0  0
 83 89  1  0  0  0
 83160  1  0  0  0
 83161  1  0  0  0
 83162  1  0  0  0
 84163  1  0  0  0
 84164  1  0  0  0
 85 90  1  0  0  0
 85165  1  0  0  0
 85166  1  0  0  0
 87167  1  0  0  0
M  ISO  4   1 100  68 101  84 101  87 100
M  END
> <chiral flag>
0

> <version>
0

> <s_m_source_file>
/data/baiqing/PycharmProjects/Reinvent-master-3.2/result/LINK_invent/BTK/process_docking_weight1_custom_product_contain_oxygen_bond_distance_aromatic_linkinvent_7_9_3/rearranged_h_0112.sdf

> <i_m_source_file_index>
37

> <r_mmod_Potential_Energy-OPLS-2005>
142.799926757812

> <r_mmod_Stretch_Energy-OPLS-2005>
68.4357681274414

> <r_mmod_Bend_Energy-OPLS-2005>
164.496322631836

> <r_mmod_Torsional_Energy-OPLS-2005>
340.651306152344

> <r_mmod_Improper_Torsional_Energy-OPLS-2005>
11.9140539169312

> <r_mmod_Van_der_Waal_Energy-OPLS-2005>
147.616516113281

> <r_mmod_Electrostatic_Energy-OPLS-2005>
-411.750427246094

> <r_mmod_Solvation_Energy-OPLS-2005>
-207.207763671875

> <b_mmod_Minimization_Converged-OPLS-2005>
0

> <r_mmod_RMS_Derivative-OPLS-2005>
3.46207857131958

$$$$
38
                    3D
 Structure written by MMmdl.
177187  0  0  1  0            999 V2000
  -30.5725  -14.7620   20.4342 C   0  0  0  0  0  0
  -30.4487  -12.4493   19.4919 C   0  0  0  0  0  0
  -29.5305  -12.4969   18.2500 C   0  0  0  0  0  0
  -28.0543  -12.3196   18.6616 C   0  0  0  0  0  0
  -27.6542  -13.2178   19.8633 C   0  0  2  0  0  0
  -28.6953  -13.1417   21.0012 C   0  0  0  0  0  0
  -25.2593  -13.8156   20.5689 C   0  0  0  0  0  0
  -24.1843  -13.0439   20.9179 C   0  0  0  0  0  0
  -24.6406  -11.6909   20.8717 C   0  0  0  0  0  0
  -23.9073  -10.4301   21.0402 C   0  0  0  0  0  0
  -24.3610   -9.4224   21.9200 C   0  0  0  0  0  0
  -23.6287   -8.2252   22.0764 C   0  0  0  0  0  0
  -22.4249   -8.0284   21.3573 C   0  0  0  0  0  0
  -21.9905   -9.0259   20.4656 C   0  0  0  0  0  0
  -22.7239  -10.2140   20.3065 C   0  0  0  0  0  0
  -21.6863   -6.0729   22.5281 C   0  0  0  0  0  0
  -21.4017   -6.5634   23.8206 C   0  0  0  0  0  0
  -21.3684   -5.6788   24.9179 C   0  0  0  0  0  0
  -21.6047   -4.3053   24.7219 C   0  0  0  0  0  0
  -21.8820   -3.8141   23.4347 C   0  0  0  0  0  0
  -21.9187   -4.6962   22.3394 C   0  0  0  0  0  0
  -22.7859  -13.5238   21.1845 C   0  0  0  0  0  0
  -22.1660   -4.2150   21.0974 F   0  0  0  0  0  0
  -21.5653   -3.4536   25.7743 F   0  0  0  0  0  0
  -29.9965  -13.5093   20.4269 N   0  0  0  0  0  0
  -26.3008  -12.9338   20.3301 N   0  0  0  0  0  0
  -25.9337  -11.6496   20.5710 N   0  0  0  0  0  0
  -22.0468  -12.8228   22.0375 N   0  0  0  0  0  0
  -25.4337  -15.1876   20.4168 N   0  0  0  0  0  0
  -31.7437  -14.8950   20.0635 O   0  0  0  0  0  0
  -21.6650   -6.8872   21.4237 O   0  0  0  0  0  0
  -22.3565  -14.5561   20.6723 O   0  0  0  0  0  0
  -24.6371  -31.8566   23.1975 C   0  0  0  0  0  0
  -25.9190  -32.4755   23.8338 C   0  0  1  0  0  0
  -27.2085  -27.2475   20.1359 C   0  0  0  0  0  0
  -25.5970  -33.8551   24.2265 N   0  0  0  0  0  0
  -23.4300  -30.4814   21.5452 C   0  0  2  0  0  0
  -24.8728  -28.9336   20.1084 C   0  0  0  0  0  0
  -22.7535  -29.4593   22.4928 C   0  0  0  0  0  0
  -18.0297  -28.1414   22.8455 C   0  0  0  0  0  0
  -24.1480  -36.7258   23.2634 C   0  0  0  0  0  0
  -25.9785  -30.7679   21.3764 C   0  0  0  0  0  0
  -26.0487  -29.3913   20.7156 C   0  0  0  0  0  0
  -27.2224  -28.5650   20.7112 C   0  0  0  0  0  0
  -26.0092  -26.8724   19.4840 C   0  0  0  0  0  0
  -24.8599  -27.6826   19.4795 C   0  0  0  0  0  0
  -23.6463  -29.8247   20.1583 C   0  0  0  0  0  0
  -25.4109  -36.3052   24.0328 C   0  0  1  0  0  0
  -20.5904  -28.3708   23.1257 C   0  0  2  0  0  0
  -20.6786  -26.9426   22.5402 C   0  0  0  0  0  0
  -19.5759  -26.6395   21.5204 C   0  0  0  0  0  0
  -18.1937  -26.7947   22.1604 C   0  0  0  0  0  0
  -19.1553  -28.8879   23.2842 C   0  0  0  0  0  0
  -18.9475  -30.1478   23.8867 C   0  0  0  0  0  0
  -17.6473  -30.6593   24.0564 C   0  0  0  0  0  0
  -25.9061  -34.9441   23.5089 C   0  0  0  0  0  0
  -16.5366  -29.9089   23.6330 C   0  0  0  0  0  0
  -16.7289  -28.6519   23.0332 C   0  0  0  0  0  0
  -26.4541  -31.6577   25.0741 C   0  0  0  0  0  0
  -25.3755  -31.3749   26.1455 C   0  0  0  0  0  0
  -27.0376  -30.2981   24.6239 C   0  0  0  0  0  0
  -27.6081  -32.4323   25.7529 C   0  0  0  0  0  0
  -27.5577  -37.1771   24.8457 C   0  0  0  0  0  0
  -21.4249  -29.3042   22.3661 N   0  0  0  0  0  0
  -26.4265  -37.3770   23.9434 N   0  0  0  0  0  0
  -24.7012  -31.0536   22.0951 N   0  0  0  0  0  0
  -23.4235  -28.8144   23.3037 O   0  0  0  0  0  0
  -28.2752  -26.3116   20.2358 O   0  0  0  0  0  0
  -26.5625  -34.8920   22.4652 O   0  0  0  0  0  0
  -23.5520  -32.1396   23.7264 O   0  0  0  0  0  0
  -29.2674  -19.7055   18.7695 C   0  0  0  0  0  0
  -29.5865  -18.4766   20.8244 C   0  0  0  0  0  0
  -29.3011  -18.5017   18.0409 C   0  0  0  0  0  0
  -29.3536  -19.7638   20.1693 C   0  0  0  0  0  0
  -29.6616  -17.1994   20.1150 C   0  0  0  0  0  0
  -29.4251  -17.2474   18.7104 C   0  0  0  0  0  0
  -28.8220  -23.6012   20.5625 C   0  0  0  0  0  0
  -28.5172  -22.2626   20.3055 C   0  0  0  0  0  0
  -30.0488  -23.8571   21.3548 C   0  0  0  0  0  0
  -30.0090  -17.3940   14.5287 C   0  0  0  0  0  0
  -30.9570  -22.6590   21.6868 C   0  0  0  0  0  0
  -31.2888  -16.7848   13.9898 C   0  0  0  0  0  0
  -32.3576  -17.3071   14.9552 C   0  0  0  0  0  0
  -30.1860  -21.3300   21.8667 C   0  0  0  0  0  0
  -31.5924  -17.8361   16.1757 C   0  0  0  0  0  0
  -27.2220  -21.9351   19.5701 C   0  0  0  0  0  0
  -28.0699  -15.8599   17.3315 C   0  0  0  0  0  0
  -29.1965  -18.6481   16.5198 C   0  0  0  0  0  0
  -27.9169  -24.8474   20.1099 C   0  0  0  0  0  0
  -29.2531  -21.0967   20.7654 N   0  0  0  0  0  0
  -30.2030  -17.9202   15.7451 N   0  0  0  0  0  0
  -29.7864  -15.8611   20.7667 N   0  0  0  0  0  0
  -30.3909  -24.9783   21.7442 O   0  0  0  0  0  0
  -28.9518  -17.3943   13.8945 O   0  0  0  0  0  0
  -29.3014  -16.0554   18.0294 O   0  0  0  0  0  0
  -31.4939  -12.5714   19.2000 H   0  0  0  0  0  0
  -30.3921  -11.4714   19.9685 H   0  0  0  0  0  0
  -29.8129  -11.7235   17.5361 H   0  0  0  0  0  0
  -29.6723  -13.4457   17.7352 H   0  0  0  0  0  0
  -27.9139  -11.2685   18.9242 H   0  0  0  0  0  0
  -27.3981  -12.5120   17.8118 H   0  0  0  0  0  0
  -27.6558  -14.2431   19.5026 H   0  0  0  0  0  0
  -28.7323  -12.1373   21.4214 H   0  0  0  0  0  0
  -28.4250  -13.8041   21.8237 H   0  0  0  0  0  0
  -25.2748   -9.5721   22.4778 H   0  0  0  0  0  0
  -24.0032   -7.4634   22.7467 H   0  0  0  0  0  0
  -21.0866   -8.8778   19.8918 H   0  0  0  0  0  0
  -22.3724  -10.9676   19.6174 H   0  0  0  0  0  0
  -21.2013   -7.6140   23.9721 H   0  0  0  0  0  0
  -21.1513   -6.0514   25.9080 H   0  0  0  0  0  0
  -22.0574   -2.7609   23.2840 H   0  0  0  0  0  0
  -22.4011  -11.9845   22.4735 H   0  0  0  0  0  0
  -21.1080  -13.1280   22.2546 H   0  0  0  0  0  0
  -24.6696  -15.8387   20.5552 H   0  0  0  0  0  0
  -26.2916  -15.6360   20.1230 H   0  0  0  0  0  0
  -26.7264  -32.5407   23.1086 H   0  0  0  0  0  0
  -25.0138  -33.9693   25.0422 H   0  0  0  0  0  0
  -22.7249  -31.3045   21.4061 H   0  0  0  0  0  0
  -23.3764  -35.9560   23.3257 H   0  0  0  0  0  0
  -24.3566  -36.8928   22.2052 H   0  0  0  0  0  0
  -23.7211  -37.6436   23.6690 H   0  0  0  0  0  0
  -26.1254  -31.5286   20.6079 H   0  0  0  0  0  0
  -26.8532  -30.8129   22.0139 H   0  0  0  0  0  0
  -28.1212  -28.9143   21.1991 H   0  0  0  0  0  0
  -25.9097  -25.9190   18.9880 H   0  0  0  0  0  0
  -23.9589  -27.3253   19.0008 H   0  0  0  0  0  0
  -23.7805  -30.6076   19.4107 H   0  0  0  0  0  0
  -22.7603  -29.2710   19.8432 H   0  0  0  0  0  0
  -25.1269  -36.1883   25.0815 H   0  0  0  0  0  0
  -20.9971  -28.3302   24.1386 H   0  0  0  0  0  0
  -20.5679  -26.2332   23.3618 H   0  0  0  0  0  0
  -21.6663  -26.7452   22.1207 H   0  0  0  0  0  0
  -19.6916  -25.6296   21.1259 H   0  0  0  0  0  0
  -19.6699  -27.3188   20.6715 H   0  0  0  0  0  0
  -17.4206  -26.6682   21.4009 H   0  0  0  0  0  0
  -18.0327  -26.0120   22.9026 H   0  0  0  0  0  0
  -19.7961  -30.7298   24.2229 H   0  0  0  0  0  0
  -17.5031  -31.6262   24.5196 H   0  0  0  0  0  0
  -15.5358  -30.2978   23.7678 H   0  0  0  0  0  0
  -15.8684  -28.0833   22.7052 H   0  0  0  0  0  0
  -24.5909  -30.7120   25.7792 H   0  0  0  0  0  0
  -24.8984  -32.2938   26.4866 H   0  0  0  0  0  0
  -25.8064  -30.8933   27.0241 H   0  0  0  0  0  0
  -26.2955  -29.6738   24.1251 H   0  0  0  0  0  0
  -27.4031  -29.7240   25.4764 H   0  0  0  0  0  0
  -27.8853  -30.4235   23.9501 H   0  0  0  0  0  0
  -27.2671  -33.3630   26.2076 H   0  0  0  0  0  0
  -28.3906  -32.6872   25.0370 H   0  0  0  0  0  0
  -28.0734  -31.8481   26.5482 H   0  0  0  0  0  0
  -28.2540  -38.0115   24.7539 H   0  0  0  0  0  0
  -28.1113  -36.2641   24.6196 H   0  0  0  0  0  0
  -27.2307  -37.1330   25.8860 H   0  0  0  0  0  0
  -20.9471  -29.8768   21.6845 H   0  0  0  0  0  0
  -26.0134  -38.2827   24.1483 H   0  0  0  0  0  0
  -29.1669  -20.6330   18.2264 H   0  0  0  0  0  0
  -29.6804  -18.4640   21.9001 H   0  0  0  0  0  0
  -31.5374  -22.8757   22.5841 H   0  0  0  0  0  0
  -31.6745  -22.5549   20.8732 H   0  0  0  0  0  0
  -31.4748  -17.0897   12.9606 H   0  0  0  0  0  0
  -31.2100  -15.6976   14.0286 H   0  0  0  0  0  0
  -32.9195  -18.1159   14.4854 H   0  0  0  0  0  0
  -33.0684  -16.5287   15.2321 H   0  0  0  0  0  0
  -29.6189  -21.3597   22.7979 H   0  0  0  0  0  0
  -30.9030  -20.5149   21.9710 H   0  0  0  0  0  0
  -31.9720  -18.8072   16.4982 H   0  0  0  0  0  0
  -31.6855  -17.1438   17.0135 H   0  0  0  0  0  0
  -26.3826  -22.4471   20.0421 H   0  0  0  0  0  0
  -26.9740  -20.8736   19.5759 H   0  0  0  0  0  0
  -27.2793  -22.2646   18.5319 H   0  0  0  0  0  0
  -27.8385  -14.7995   17.2720 H   0  0  0  0  0  0
  -28.1243  -16.1959   16.3000 H   0  0  0  0  0  0
  -27.2236  -16.3490   17.8174 H   0  0  0  0  0  0
  -29.2972  -19.6974   16.2420 H   0  0  0  0  0  0
  -28.1843  -18.3896   16.2094 H   0  0  0  0  0  0
  -26.9891  -24.7021   20.6655 H   0  0  0  0  0  0
  -27.6895  -24.6657   19.0599 H   0  0  0  0  0  0
  -28.9758  -15.6056   21.3107 H   0  0  0  0  0  0
  1 25  1  0  0  0
  1 30  2  0  0  0
  1 92  1  0  0  0
  2  3  1  0  0  0
  2 25  1  0  0  0
  2 96  1  0  0  0
  2 97  1  0  0  0
  3  4  1  0  0  0
  3 98  1  0  0  0
  3 99  1  0  0  0
  4  5  1  0  0  0
  4100  1  0  0  0
  4101  1  0  0  0
  5  6  1  0  0  0
  5 26  1  0  0  0
  5102  1  0  0  0
  6 25  1  0  0  0
  6103  1  0  0  0
  6104  1  0  0  0
  7  8  2  0  0  0
  7 26  1  0  0  0
  7 29  1  0  0  0
  8  9  1  0  0  0
  8 22  1  0  0  0
  9 10  1  0  0  0
  9 27  2  0  0  0
 10 11  2  0  0  0
 10 15  1  0  0  0
 11 12  1  0  0  0
 11105  1  0  0  0
 12 13  2  0  0  0
 12106  1  0  0  0
 13 14  1  0  0  0
 13 31  1  0  0  0
 14 15  2  0  0  0
 14107  1  0  0  0
 15108  1  0  0  0
 16 17  2  0  0  0
 16 21  1  0  0  0
 16 31  1  0  0  0
 17 18  1  0  0  0
 17109  1  0  0  0
 18 19  2  0  0  0
 18110  1  0  0  0
 19 20  1  0  0  0
 19 24  1  0  0  0
 20 21  2  0  0  0
 20111  1  0  0  0
 21 23  1  0  0  0
 22 28  1  0  0  0
 22 32  2  0  0  0
 26 27  1  0  0  0
 28112  1  0  0  0
 28113  1  0  0  0
 29114  1  0  0  0
 29115  1  0  0  0
 33 34  1  0  0  0
 33 66  1  0  0  0
 33 70  2  0  0  0
 34 36  1  0  0  0
 34 59  1  0  0  0
 34116  1  0  0  0
 35 44  2  0  0  0
 35 45  1  0  0  0
 35 68  1  0  0  0
 36 56  1  0  0  0
 36117  1  0  0  0
 37 39  1  0  0  0
 37 47  1  0  0  0
 37 66  1  0  0  0
 37118  1  0  0  0
 38 43  2  0  0  0
 38 46  1  0  0  0
 38 47  1  0  0  0
 39 64  1  0  0  0
 39 67  2  0  0  0
 40 52  1  0  0  0
 40 53  2  0  0  0
 40 58  1  0  0  0
 41119  1  0  0  0
 41120  1  0  0  0
 41121  1  0  0  0
 41 48  1  0  0  0
 42 43  1  0  0  0
 42 66  1  0  0  0
 42122  1  0  0  0
 42123  1  0  0  0
 43 44  1  0  0  0
 44124  1  0  0  0
 45 46  2  0  0  0
 45125  1  0  0  0
 46126  1  0  0  0
 47127  1  0  0  0
 47128  1  0  0  0
 48 56  1  0  0  0
 48 65  1  0  0  0
 48129  1  0  0  0
 49 50  1  0  0  0
 49 53  1  0  0  0
 49 64  1  0  0  0
 49130  1  0  0  0
 50 51  1  0  0  0
 50131  1  0  0  0
 50132  1  0  0  0
 51 52  1  0  0  0
 51133  1  0  0  0
 51134  1  0  0  0
 52135  1  0  0  0
 52136  1  0  0  0
 53 54  1  0  0  0
 54 55  2  0  0  0
 54137  1  0  0  0
 55 57  1  0  0  0
 55138  1  0  0  0
 56 69  2  0  0  0
 57 58  2  0  0  0
 57139  1  0  0  0
 58140  1  0  0  0
 59 60  1  0  0  0
 59 61  1  0  0  0
 59 62  1  0  0  0
 60141  1  0  0  0
 60142  1  0  0  0
 60143  1  0  0  0
 61144  1  0  0  0
 61145  1  0  0  0
 61146  1  0  0  0
 62147  1  0  0  0
 62148  1  0  0  0
 62149  1  0  0  0
 63 65  1  0  0  0
 63150  1  0  0  0
 63151  1  0  0  0
 63152  1  0  0  0
 64153  1  0  0  0
 65154  1  0  0  0
 68 89  1  0  0  0
 71 73  2  0  0  0
 71 74  1  0  0  0
 71155  1  0  0  0
 72 74  2  0  0  0
 72 75  1  0  0  0
 72156  1  0  0  0
 73 76  1  0  0  0
 73 88  1  0  0  0
 74 90  1  0  0  0
 75 76  2  0  0  0
 75 92  1  0  0  0
 76 95  1  0  0  0
 77 78  2  0  0  0
 77 79  1  0  0  0
 77 89  1  0  0  0
 78 86  1  0  0  0
 78 90  1  0  0  0
 79 81  1  0  0  0
 79 93  2  0  0  0
 80 82  1  0  0  0
 80 91  1  0  0  0
 80 94  2  0  0  0
 81 84  1  0  0  0
 81157  1  0  0  0
 81158  1  0  0  0
 82 83  1  0  0  0
 82159  1  0  0  0
 82160  1  0  0  0
 83 85  1  0  0  0
 83161  1  0  0  0
 83162  1  0  0  0
 84 90  1  0  0  0
 84163  1  0  0  0
 84164  1  0  0  0
 85 91  1  0  0  0
 85165  1  0  0  0
 85166  1  0  0  0
 86167  1  0  0  0
 86168  1  0  0  0
 86169  1  0  0  0
 87 95  1  0  0  0
 87170  1  0  0  0
 87171  1  0  0  0
 87172  1  0  0  0
 88 91  1  0  0  0
 88173  1  0  0  0
 88174  1  0  0  0
 89175  1  0  0  0
 89176  1  0  0  0
 92177  1  0  0  0
M  ISO  4   1 100  68 101  89 101  92 100
M  END
> <chiral flag>
0

> <version>
0

> <s_m_source_file>
/data/baiqing/PycharmProjects/Reinvent-master-3.2/result/LINK_invent/BTK/process_docking_weight1_custom_product_contain_oxygen_bond_distance_aromatic_linkinvent_7_9_3/rearranged_h_0112.sdf

> <i_m_source_file_index>
38

> <r_mmod_Potential_Energy-OPLS-2005>
227.615112304688

> <r_mmod_Stretch_Energy-OPLS-2005>
140.684005737305

> <r_mmod_Bend_Energy-OPLS-2005>
200.269943237305

> <r_mmod_Torsional_Energy-OPLS-2005>
295.876037597656

> <r_mmod_Improper_Torsional_Energy-OPLS-2005>
5.31466436386108

> <r_mmod_Van_der_Waal_Energy-OPLS-2005>
151.451324462891

> <r_mmod_Electrostatic_Energy-OPLS-2005>
-409.973205566406

> <r_mmod_Solvation_Energy-OPLS-2005>
-254.680603027344

> <b_mmod_Minimization_Converged-OPLS-2005>
0

> <r_mmod_RMS_Derivative-OPLS-2005>
3.47018909454346

$$$$
39
                    3D
 Structure written by MMmdl.
169178  0  0  1  0            999 V2000
  -30.5262  -14.6689   20.6031 C   0  0  0  0  0  0
  -30.4919  -12.4687   19.4240 C   0  0  0  0  0  0
  -29.5139  -12.5243   18.2206 C   0  0  0  0  0  0
  -28.0294  -12.3545   18.6326 C   0  0  0  0  0  0
  -27.6641  -13.1834   19.8920 C   0  0  2  0  0  0
  -28.7186  -12.8849   20.9789 C   0  0  0  0  0  0
  -25.2616  -13.8094   20.5808 C   0  0  0  0  0  0
  -24.1827  -13.0325   20.9213 C   0  0  0  0  0  0
  -24.6394  -11.6855   20.8714 C   0  0  0  0  0  0
  -23.9038  -10.4247   21.0395 C   0  0  0  0  0  0
  -24.3605   -9.4196   21.9155 C   0  0  0  0  0  0
  -23.6284   -8.2220   22.0705 C   0  0  0  0  0  0
  -22.4238   -8.0294   21.3528 C   0  0  0  0  0  0
  -21.9901   -9.0226   20.4596 C   0  0  0  0  0  0
  -22.7238  -10.2115   20.3030 C   0  0  0  0  0  0
  -21.6840   -6.0773   22.5326 C   0  0  0  0  0  0
  -21.3986   -6.5627   23.8274 C   0  0  0  0  0  0
  -21.3676   -5.6763   24.9221 C   0  0  0  0  0  0
  -21.6057   -4.3014   24.7247 C   0  0  0  0  0  0
  -21.8794   -3.8170   23.4343 C   0  0  0  0  0  0
  -21.9158   -4.7017   22.3440 C   0  0  0  0  0  0
  -22.7859  -13.5156   21.1872 C   0  0  0  0  0  0
  -22.1635   -4.2205   21.0993 F   0  0  0  0  0  0
  -21.5665   -3.4463   25.7742 F   0  0  0  0  0  0
  -30.0032  -13.3958   20.4684 N   0  0  0  0  0  0
  -26.3029  -12.9224   20.3503 N   0  0  0  0  0  0
  -25.9323  -11.6386   20.5760 N   0  0  0  0  0  0
  -22.0508  -12.8133   22.0458 N   0  0  0  0  0  0
  -25.4159  -15.1825   20.4385 N   0  0  0  0  0  0
  -31.6603  -14.9209   20.1706 O   0  0  0  0  0  0
  -21.6609   -6.8897   21.4276 O   0  0  0  0  0  0
  -22.3543  -14.5452   20.6716 O   0  0  0  0  0  0
  -24.6308  -31.8634   23.2057 C   0  0  0  0  0  0
  -25.9099  -32.4836   23.8415 C   0  0  1  0  0  0
  -27.1183  -27.2834   20.1477 C   0  0  0  0  0  0
  -25.5904  -33.8622   24.2367 N   0  0  0  0  0  0
  -23.4237  -30.4995   21.5464 C   0  0  2  0  0  0
  -24.8469  -28.9633   20.0984 C   0  0  0  0  0  0
  -22.7517  -29.4700   22.4864 C   0  0  0  0  0  0
  -18.0329  -28.1450   22.8464 C   0  0  0  0  0  0
  -24.1465  -36.7345   23.2653 C   0  0  0  0  0  0
  -25.9654  -30.7855   21.3681 C   0  0  0  0  0  0
  -26.0207  -29.4104   20.7206 C   0  0  0  0  0  0
  -27.1687  -28.5723   20.7505 C   0  0  0  0  0  0
  -25.9587  -26.9283   19.4254 C   0  0  0  0  0  0
  -24.8131  -27.7275   19.4460 C   0  0  0  0  0  0
  -23.6320  -29.8539   20.1545 C   0  0  0  0  0  0
  -25.4085  -36.3163   24.0375 C   0  0  1  0  0  0
  -20.5935  -28.3777   23.1210 C   0  0  2  0  0  0
  -20.6829  -26.9485   22.5398 C   0  0  0  0  0  0
  -19.5794  -26.6404   21.5229 C   0  0  0  0  0  0
  -18.1961  -26.7976   22.1618 C   0  0  0  0  0  0
  -19.1572  -28.8919   23.2842 C   0  0  0  0  0  0
  -18.9497  -30.1513   23.8891 C   0  0  0  0  0  0
  -17.6492  -30.6616   24.0588 C   0  0  0  0  0  0
  -25.9019  -34.9501   23.5190 C   0  0  0  0  0  0
  -16.5392  -29.9126   23.6342 C   0  0  0  0  0  0
  -16.7306  -28.6562   23.0322 C   0  0  0  0  0  0
  -26.4430  -31.6591   25.0758 C   0  0  0  0  0  0
  -25.3670  -31.3630   26.1499 C   0  0  0  0  0  0
  -27.0286  -30.3100   24.6073 C   0  0  0  0  0  0
  -27.6027  -32.4288   25.7547 C   0  0  0  0  0  0
  -27.5582  -37.1845   24.8463 C   0  0  0  0  0  0
  -21.4231  -29.3113   22.3582 N   0  0  0  0  0  0
  -26.4291  -37.3841   23.9423 N   0  0  0  0  0  0
  -24.6970  -31.0649   22.1007 N   0  0  0  0  0  0
  -23.4236  -28.8209   23.2911 O   0  0  0  0  0  0
  -28.0728  -26.2981   20.3562 O   0  0  0  0  0  0
  -26.5587  -34.8967   22.4758 O   0  0  0  0  0  0
  -23.5461  -32.1417   23.7355 O   0  0  0  0  0  0
  -29.7839  -18.1204   22.1810 C   0  0  0  0  0  0
  -29.7189  -19.5355   22.1661 C   0  0  0  0  0  0
  -29.6707  -19.4759   19.7724 C   0  0  0  0  0  0
  -29.7953  -17.3193   21.0040 C   0  0  0  0  0  0
  -29.7114  -18.0411   19.7665 C   0  0  0  0  0  0
  -29.6453  -20.2554   20.9561 C   0  0  0  0  0  0
  -28.9337  -24.2005   22.5767 C   0  0  0  0  0  0
  -28.3665  -23.9207   21.3720 C   0  0  0  0  0  0
  -29.8199  -23.3356   23.3814 C   0  0  0  0  0  0
  -29.5773  -15.8134   21.2068 C   0  0  0  0  0  0
  -31.0550  -22.7071   22.7454 C   0  0  0  0  0  0
  -30.9001  -22.3422   21.2605 C   0  0  0  0  0  0
  -28.4606  -22.5396   20.6042 C   0  0  1  0  0  0
  -28.3850  -22.7234   19.0559 C   0  0  0  0  0  0
  -29.6739  -18.1365   17.1573 C   0  0  0  0  0  0
  -29.5491  -17.2898   18.4399 C   0  0  0  0  0  0
  -27.4386  -25.0215   20.7900 C   0  0  0  0  0  0
  -28.5615  -15.5887   21.9320 N   0  0  0  0  0  0
  -29.6300  -21.6863   20.9522 N   0  0  0  0  0  0
  -29.6528  -23.1852   24.5959 O   0  0  0  0  0  0
  -31.4900  -12.7484   19.0753 H   0  0  0  0  0  0
  -30.5950  -11.4623   19.8292 H   0  0  0  0  0  0
  -29.7935  -11.7636   17.4884 H   0  0  0  0  0  0
  -29.6322  -13.4845   17.7176 H   0  0  0  0  0  0
  -27.8564  -11.2941   18.8273 H   0  0  0  0  0  0
  -27.3752  -12.6193   17.7998 H   0  0  0  0  0  0
  -27.7044  -14.2376   19.6185 H   0  0  0  0  0  0
  -28.7858  -11.8060   21.1249 H   0  0  0  0  0  0
  -28.4442  -13.2235   21.9758 H   0  0  0  0  0  0
  -25.2778   -9.5637   22.4709 H   0  0  0  0  0  0
  -23.9992   -7.4595   22.7364 H   0  0  0  0  0  0
  -21.0854   -8.8750   19.8880 H   0  0  0  0  0  0
  -22.3721  -10.9634   19.6104 H   0  0  0  0  0  0
  -21.1947   -7.6138   23.9787 H   0  0  0  0  0  0
  -21.1541   -6.0499   25.9126 H   0  0  0  0  0  0
  -22.0559   -2.7619   23.2828 H   0  0  0  0  0  0
  -22.4154  -11.9878   22.4922 H   0  0  0  0  0  0
  -21.1058  -13.1067   22.2543 H   0  0  0  0  0  0
  -24.6446  -15.8138   20.6287 H   0  0  0  0  0  0
  -26.3091  -15.6527   20.3440 H   0  0  0  0  0  0
  -26.7172  -32.5480   23.1168 H   0  0  0  0  0  0
  -25.0055  -33.9730   25.0517 H   0  0  0  0  0  0
  -22.7272  -31.3298   21.4092 H   0  0  0  0  0  0
  -23.3748  -35.9652   23.3299 H   0  0  0  0  0  0
  -24.3579  -36.8961   22.2069 H   0  0  0  0  0  0
  -23.7139  -37.6541   23.6624 H   0  0  0  0  0  0
  -26.0619  -31.5078   20.5579 H   0  0  0  0  0  0
  -26.8724  -30.8735   21.9566 H   0  0  0  0  0  0
  -28.0518  -28.8528   21.3044 H   0  0  0  0  0  0
  -25.8811  -25.9902   18.8955 H   0  0  0  0  0  0
  -23.9014  -27.3811   18.9734 H   0  0  0  0  0  0
  -23.7895  -30.6360   19.4134 H   0  0  0  0  0  0
  -22.7421  -29.3074   19.8343 H   0  0  0  0  0  0
  -25.1225  -36.2105   25.0870 H   0  0  0  0  0  0
  -21.0050  -28.3404   24.1324 H   0  0  0  0  0  0
  -20.5777  -26.2412   23.3632 H   0  0  0  0  0  0
  -21.6684  -26.7515   22.1167 H   0  0  0  0  0  0
  -19.6958  -25.6296   21.1305 H   0  0  0  0  0  0
  -19.6737  -27.3185   20.6735 H   0  0  0  0  0  0
  -17.4247  -26.6744   21.4014 H   0  0  0  0  0  0
  -18.0346  -26.0139   22.9028 H   0  0  0  0  0  0
  -19.7961  -30.7340   24.2249 H   0  0  0  0  0  0
  -17.5041  -31.6281   24.5222 H   0  0  0  0  0  0
  -15.5388  -30.3036   23.7654 H   0  0  0  0  0  0
  -15.8712  -28.0902   22.6994 H   0  0  0  0  0  0
  -24.5869  -30.6971   25.7768 H   0  0  0  0  0  0
  -24.8815  -32.2728   26.5038 H   0  0  0  0  0  0
  -25.8017  -30.8715   27.0215 H   0  0  0  0  0  0
  -26.2825  -29.6892   24.1119 H   0  0  0  0  0  0
  -27.4123  -29.7296   25.4457 H   0  0  0  0  0  0
  -27.8602  -30.4540   23.9186 H   0  0  0  0  0  0
  -27.2699  -33.3591   26.2161 H   0  0  0  0  0  0
  -28.3829  -32.6829   25.0349 H   0  0  0  0  0  0
  -28.0700  -31.8368   26.5430 H   0  0  0  0  0  0
  -28.2593  -38.0160   24.7571 H   0  0  0  0  0  0
  -28.1102  -36.2701   24.6210 H   0  0  0  0  0  0
  -27.2330  -37.1409   25.8880 H   0  0  0  0  0  0
  -20.9460  -29.8811   21.6735 H   0  0  0  0  0  0
  -26.0216  -38.2952   24.1406 H   0  0  0  0  0  0
  -29.7578  -17.6375   23.1469 H   0  0  0  0  0  0
  -29.7004  -20.0577   23.1105 H   0  0  0  0  0  0
  -29.6393  -20.0092   18.8413 H   0  0  0  0  0  0
  -28.7549  -25.1628   23.0306 H   0  0  0  0  0  0
  -31.3287  -21.8210   23.3239 H   0  0  0  0  0  0
  -31.8745  -23.4164   22.8698 H   0  0  0  0  0  0
  -31.7446  -21.7390   20.9348 H   0  0  0  0  0  0
  -30.9551  -23.2593   20.6736 H   0  0  0  0  0  0
  -27.5874  -21.9659   20.9200 H   0  0  0  0  0  0
  -29.0998  -23.4639   18.6986 H   0  0  0  0  0  0
  -27.4124  -23.0542   18.6846 H   0  0  0  0  0  0
  -28.5865  -21.7951   18.5222 H   0  0  0  0  0  0
  -29.5399  -17.5189   16.2687 H   0  0  0  0  0  0
  -30.6550  -18.6121   17.0808 H   0  0  0  0  0  0
  -28.9180  -18.9172   17.1093 H   0  0  0  0  0  0
  -28.5676  -16.8105   18.4374 H   0  0  0  0  0  0
  -30.2846  -16.4903   18.3779 H   0  0  0  0  0  0
  -26.7314  -25.2629   21.5904 H   0  0  0  0  0  0
  -26.7804  -24.5674   20.0457 H   0  0  0  0  0  0
  -28.1303  -16.4656   22.1995 H   0  0  0  0  0  0
  1 25  1  0  0  0
  1 30  2  0  0  0
  1 80  1  0  0  0
  2  3  1  0  0  0
  2 25  1  0  0  0
  2 91  1  0  0  0
  2 92  1  0  0  0
  3  4  1  0  0  0
  3 93  1  0  0  0
  3 94  1  0  0  0
  4  5  1  0  0  0
  4 95  1  0  0  0
  4 96  1  0  0  0
  5  6  1  0  0  0
  5 26  1  0  0  0
  5 97  1  0  0  0
  6 25  1  0  0  0
  6 98  1  0  0  0
  6 99  1  0  0  0
  7  8  2  0  0  0
  7 26  1  0  0  0
  7 29  1  0  0  0
  8  9  1  0  0  0
  8 22  1  0  0  0
  9 10  1  0  0  0
  9 27  2  0  0  0
 10 11  2  0  0  0
 10 15  1  0  0  0
 11 12  1  0  0  0
 11100  1  0  0  0
 12 13  2  0  0  0
 12101  1  0  0  0
 13 14  1  0  0  0
 13 31  1  0  0  0
 14 15  2  0  0  0
 14102  1  0  0  0
 15103  1  0  0  0
 16 17  2  0  0  0
 16 21  1  0  0  0
 16 31  1  0  0  0
 17 18  1  0  0  0
 17104  1  0  0  0
 18 19  2  0  0  0
 18105  1  0  0  0
 19 20  1  0  0  0
 19 24  1  0  0  0
 20 21  2  0  0  0
 20106  1  0  0  0
 21 23  1  0  0  0
 22 28  1  0  0  0
 22 32  2  0  0  0
 26 27  1  0  0  0
 28107  1  0  0  0
 28108  1  0  0  0
 29109  1  0  0  0
 29110  1  0  0  0
 33 34  1  0  0  0
 33 66  1  0  0  0
 33 70  2  0  0  0
 34 36  1  0  0  0
 34 59  1  0  0  0
 34111  1  0  0  0
 35 44  2  0  0  0
 35 45  1  0  0  0
 35 68  1  0  0  0
 36 56  1  0  0  0
 36112  1  0  0  0
 37 39  1  0  0  0
 37 47  1  0  0  0
 37 66  1  0  0  0
 37113  1  0  0  0
 38 43  2  0  0  0
 38 46  1  0  0  0
 38 47  1  0  0  0
 39 64  1  0  0  0
 39 67  2  0  0  0
 40 52  1  0  0  0
 40 53  2  0  0  0
 40 58  1  0  0  0
 41114  1  0  0  0
 41115  1  0  0  0
 41116  1  0  0  0
 41 48  1  0  0  0
 42 43  1  0  0  0
 42 66  1  0  0  0
 42117  1  0  0  0
 42118  1  0  0  0
 43 44  1  0  0  0
 44119  1  0  0  0
 45 46  2  0  0  0
 45120  1  0  0  0
 46121  1  0  0  0
 47122  1  0  0  0
 47123  1  0  0  0
 48 56  1  0  0  0
 48 65  1  0  0  0
 48124  1  0  0  0
 49 50  1  0  0  0
 49 53  1  0  0  0
 49 64  1  0  0  0
 49125  1  0  0  0
 50 51  1  0  0  0
 50126  1  0  0  0
 50127  1  0  0  0
 51 52  1  0  0  0
 51128  1  0  0  0
 51129  1  0  0  0
 52130  1  0  0  0
 52131  1  0  0  0
 53 54  1  0  0  0
 54 55  2  0  0  0
 54132  1  0  0  0
 55 57  1  0  0  0
 55133  1  0  0  0
 56 69  2  0  0  0
 57 58  2  0  0  0
 57134  1  0  0  0
 58135  1  0  0  0
 59 60  1  0  0  0
 59 61  1  0  0  0
 59 62  1  0  0  0
 60136  1  0  0  0
 60137  1  0  0  0
 60138  1  0  0  0
 61139  1  0  0  0
 61140  1  0  0  0
 61141  1  0  0  0
 62142  1  0  0  0
 62143  1  0  0  0
 62144  1  0  0  0
 63 65  1  0  0  0
 63145  1  0  0  0
 63146  1  0  0  0
 63147  1  0  0  0
 64148  1  0  0  0
 65149  1  0  0  0
 68 87  1  0  0  0
 71 72  2  0  0  0
 71 74  1  0  0  0
 71150  1  0  0  0
 72 76  1  0  0  0
 72151  1  0  0  0
 73 75  1  0  0  0
 73 76  2  0  0  0
 73152  1  0  0  0
 74 75  2  0  0  0
 74 80  1  0  0  0
 75 86  1  0  0  0
 76 89  1  0  0  0
 77 78  2  0  0  0
 77 79  1  0  0  0
 77153  1  0  0  0
 78 83  1  0  0  0
 78 87  1  0  0  0
 79 81  1  0  0  0
 79 90  2  0  0  0
 80 88  2  0  0  0
 81 82  1  0  0  0
 81154  1  0  0  0
 81155  1  0  0  0
 82 89  1  0  0  0
 82156  1  0  0  0
 82157  1  0  0  0
 83 84  1  0  0  0
 83 89  1  0  0  0
 83158  1  0  0  0
 84159  1  0  0  0
 84160  1  0  0  0
 84161  1  0  0  0
 85 86  1  0  0  0
 85162  1  0  0  0
 85163  1  0  0  0
 85164  1  0  0  0
 86165  1  0  0  0
 86166  1  0  0  0
 87167  1  0  0  0
 87168  1  0  0  0
 88169  1  0  0  0
M  ISO  4   1 100  68 101  80 100  87 101
M  END
> <chiral flag>
0

> <version>
0

> <s_m_source_file>
/data/baiqing/PycharmProjects/Reinvent-master-3.2/result/LINK_invent/BTK/process_docking_weight1_custom_product_contain_oxygen_bond_distance_aromatic_linkinvent_7_9_3/rearranged_h_0112.sdf

> <i_m_source_file_index>
39

> <r_mmod_Potential_Energy-OPLS-2005>
362.988250732422

> <r_mmod_Stretch_Energy-OPLS-2005>
93.8329315185547

> <r_mmod_Bend_Energy-OPLS-2005>
183.169067382812

> <r_mmod_Torsional_Energy-OPLS-2005>
267.315368652344

> <r_mmod_Improper_Torsional_Energy-OPLS-2005>
7.7428240776062

> <r_mmod_Van_der_Waal_Energy-OPLS-2005>
184.414535522461

> <r_mmod_Electrostatic_Energy-OPLS-2005>
-271.197204589844

> <r_mmod_Solvation_Energy-OPLS-2005>
-202.59407043457

> <b_mmod_Minimization_Converged-OPLS-2005>
0

> <r_mmod_RMS_Derivative-OPLS-2005>
10.0633134841919

$$$$
40
                    3D
 Structure written by MMmdl.
153161  0  0  1  0            999 V2000
  -30.5239  -15.0550   20.3825 C   0  0  0  0  0  0
  -30.4361  -12.6590   19.5161 C   0  0  0  0  0  0
  -29.5302  -12.5441   18.2693 C   0  0  0  0  0  0
  -28.0676  -12.3082   18.6882 C   0  0  0  0  0  0
  -27.6210  -13.2599   19.8264 C   0  0  2  0  0  0
  -28.6568  -13.3574   20.9659 C   0  0  0  0  0  0
  -25.2439  -13.8231   20.5700 C   0  0  0  0  0  0
  -24.1755  -13.0452   20.9205 C   0  0  0  0  0  0
  -24.6375  -11.6935   20.8722 C   0  0  0  0  0  0
  -23.9071  -10.4299   21.0387 C   0  0  0  0  0  0
  -24.3619   -9.4216   21.9178 C   0  0  0  0  0  0
  -23.6279   -8.2252   22.0754 C   0  0  0  0  0  0
  -22.4264   -8.0281   21.3542 C   0  0  0  0  0  0
  -21.9903   -9.0267   20.4653 C   0  0  0  0  0  0
  -22.7240  -10.2135   20.3052 C   0  0  0  0  0  0
  -21.6853   -6.0721   22.5266 C   0  0  0  0  0  0
  -21.4027   -6.5631   23.8196 C   0  0  0  0  0  0
  -21.3665   -5.6784   24.9156 C   0  0  0  0  0  0
  -21.6036   -4.3043   24.7212 C   0  0  0  0  0  0
  -21.8823   -3.8137   23.4334 C   0  0  0  0  0  0
  -21.9199   -4.6952   22.3390 C   0  0  0  0  0  0
  -22.7775  -13.5232   21.1867 C   0  0  0  0  0  0
  -22.1665   -4.2143   21.0968 F   0  0  0  0  0  0
  -21.5630   -3.4523   25.7734 F   0  0  0  0  0  0
  -29.9233  -13.7868   20.3573 N   0  0  0  0  0  0
  -26.2841  -12.9476   20.3185 N   0  0  0  0  0  0
  -25.9311  -11.6599   20.5700 N   0  0  0  0  0  0
  -22.0406  -12.8231   22.0419 N   0  0  0  0  0  0
  -25.4124  -15.1953   20.4132 N   0  0  0  0  0  0
  -31.7456  -15.0456   20.1907 O   0  0  0  0  0  0
  -21.6642   -6.8863   21.4234 O   0  0  0  0  0  0
  -22.3469  -14.5550   20.6727 O   0  0  0  0  0  0
  -24.6514  -31.8367   23.1834 C   0  0  0  0  0  0
  -25.9264  -32.4651   23.8242 C   0  0  1  0  0  0
  -27.2236  -27.0629   20.1607 C   0  0  0  0  0  0
  -25.6007  -33.8461   24.2186 N   0  0  0  0  0  0
  -23.4592  -30.4511   21.5312 C   0  0  2  0  0  0
  -24.9118  -28.8593   20.1167 C   0  0  0  0  0  0
  -22.7608  -29.4505   22.4853 C   0  0  0  0  0  0
  -18.0320  -28.1404   22.8460 C   0  0  0  0  0  0
  -24.1504  -36.7216   23.2635 C   0  0  0  0  0  0
  -26.0196  -30.6828   21.3965 C   0  0  0  0  0  0
  -26.0902  -29.2848   20.7428 C   0  0  0  0  0  0
  -27.2459  -28.4013   20.7495 C   0  0  0  0  0  0
  -26.0183  -26.7584   19.4905 C   0  0  0  0  0  0
  -24.8909  -27.6106   19.4766 C   0  0  0  0  0  0
  -23.6912  -29.7725   20.1546 C   0  0  0  0  0  0
  -25.4124  -36.2994   24.0321 C   0  0  1  0  0  0
  -20.5936  -28.3732   23.1223 C   0  0  2  0  0  0
  -20.6815  -26.9433   22.5396 C   0  0  0  0  0  0
  -19.5797  -26.6384   21.5205 C   0  0  0  0  0  0
  -18.1972  -26.7937   22.1603 C   0  0  0  0  0  0
  -19.1577  -28.8886   23.2832 C   0  0  0  0  0  0
  -18.9476  -30.1481   23.8868 C   0  0  0  0  0  0
  -17.6470  -30.6597   24.0538 C   0  0  0  0  0  0
  -25.9082  -34.9375   23.5041 C   0  0  0  0  0  0
  -16.5366  -29.9067   23.6344 C   0  0  0  0  0  0
  -16.7303  -28.6487   23.0363 C   0  0  0  0  0  0
  -26.4579  -31.6525   25.0698 C   0  0  0  0  0  0
  -25.3762  -31.3732   26.1390 C   0  0  0  0  0  0
  -27.0460  -30.2913   24.6323 C   0  0  0  0  0  0
  -27.6116  -32.4297   25.7483 C   0  0  0  0  0  0
  -27.5581  -37.1755   24.8460 C   0  0  0  0  0  0
  -21.4295  -29.3041   22.3591 N   0  0  0  0  0  0
  -26.4288  -37.3709   23.9418 N   0  0  0  0  0  0
  -24.7299  -31.0131   22.0918 N   0  0  0  0  0  0
  -23.4206  -28.8065   23.3053 O   0  0  0  0  0  0
  -28.2664  -26.0430   20.1668 O   0  0  0  0  0  0
  -26.5640  -34.8887   22.4613 O   0  0  0  0  0  0
  -23.5623  -32.1284   23.7012 O   0  0  0  0  0  0
  -29.2428  -19.0390   20.4947 C   0  0  0  0  0  0
  -31.0934  -19.3790   18.5250 C   0  0  0  0  0  0
  -29.4076  -20.4601   19.9920 C   0  0  0  0  0  0
  -29.9669  -17.7866   20.0529 C   0  0  0  0  0  0
  -30.3963  -20.5307   18.9661 C   0  0  0  0  0  0
  -30.8786  -18.0597   19.0015 C   0  0  0  0  0  0
  -28.8522  -23.4136   20.1528 C   0  0  0  0  0  0
  -28.0311  -24.5799   20.3512 C   0  0  0  0  0  0
  -28.5778  -21.8245   20.4582 C   0  0  0  0  0  0
  -31.4496  -16.9463   16.9868 C   0  0  0  0  0  0
  -30.7162  -21.7094   18.2876 N   0  0  0  0  0  0
  -29.7650  -16.2880   20.4842 N   0  0  0  0  0  0
  -27.5921  -21.5976   21.1661 O   0  0  0  0  0  0
  -31.5470  -17.0211   18.4031 O   0  0  0  0  0  0
  -31.4693  -12.8173   19.2036 H   0  0  0  0  0  0
  -30.4392  -11.7266   20.0824 H   0  0  0  0  0  0
  -29.8735  -11.7372   17.6206 H   0  0  0  0  0  0
  -29.6022  -13.4610   17.6814 H   0  0  0  0  0  0
  -27.9789  -11.2727   19.0194 H   0  0  0  0  0  0
  -27.4094  -12.4112   17.8260 H   0  0  0  0  0  0
  -27.5649  -14.2465   19.3642 H   0  0  0  0  0  0
  -28.7637  -12.4065   21.4894 H   0  0  0  0  0  0
  -28.3325  -14.0869   21.7106 H   0  0  0  0  0  0
  -25.2751   -9.5712   22.4771 H   0  0  0  0  0  0
  -23.9991   -7.4646   22.7475 H   0  0  0  0  0  0
  -21.0837   -8.8788   19.8951 H   0  0  0  0  0  0
  -22.3688  -10.9678   19.6171 H   0  0  0  0  0  0
  -21.2025   -7.6137   23.9706 H   0  0  0  0  0  0
  -21.1484   -6.0504   25.9065 H   0  0  0  0  0  0
  -22.0603   -2.7599   23.2836 H   0  0  0  0  0  0
  -22.3998  -11.9906   22.4844 H   0  0  0  0  0  0
  -21.1034  -13.1287   22.2619 H   0  0  0  0  0  0
  -24.6439  -15.8479   20.5162 H   0  0  0  0  0  0
  -26.2608  -15.6348   20.0811 H   0  0  0  0  0  0
  -26.7318  -32.5244   23.0954 H   0  0  0  0  0  0
  -25.0219  -33.9578   25.0381 H   0  0  0  0  0  0
  -22.7643  -31.2778   21.3695 H   0  0  0  0  0  0
  -23.3791  -35.9519   23.3251 H   0  0  0  0  0  0
  -24.3597  -36.8887   22.2055 H   0  0  0  0  0  0
  -23.7239  -37.6391   23.6702 H   0  0  0  0  0  0
  -26.1834  -31.4290   20.6186 H   0  0  0  0  0  0
  -26.8868  -30.7374   22.0411 H   0  0  0  0  0  0
  -28.1446  -28.7216   21.2579 H   0  0  0  0  0  0
  -25.9297  -25.8038   18.9915 H   0  0  0  0  0  0
  -23.9928  -27.2820   18.9719 H   0  0  0  0  0  0
  -23.8363  -30.5430   19.3968 H   0  0  0  0  0  0
  -22.8048  -29.2174   19.8437 H   0  0  0  0  0  0
  -25.1310  -36.1792   25.0810 H   0  0  0  0  0  0
  -21.0021  -28.3330   24.1346 H   0  0  0  0  0  0
  -20.5742  -26.2330   23.3608 H   0  0  0  0  0  0
  -21.6673  -26.7468   22.1172 H   0  0  0  0  0  0
  -19.6965  -25.6283   21.1268 H   0  0  0  0  0  0
  -19.6745  -27.3162   20.6709 H   0  0  0  0  0  0
  -17.4239  -26.6681   21.4007 H   0  0  0  0  0  0
  -18.0372  -26.0099   22.9016 H   0  0  0  0  0  0
  -19.7948  -30.7311   24.2233 H   0  0  0  0  0  0
  -17.5016  -31.6284   24.5118 H   0  0  0  0  0  0
  -15.5363  -30.2940   23.7710 H   0  0  0  0  0  0
  -15.8703  -28.0789   22.7110 H   0  0  0  0  0  0
  -24.5951  -30.7067   25.7706 H   0  0  0  0  0  0
  -24.8950  -32.2919   26.4744 H   0  0  0  0  0  0
  -25.8038  -30.8942   27.0205 H   0  0  0  0  0  0
  -26.3089  -29.6607   24.1338 H   0  0  0  0  0  0
  -27.4061  -29.7228   25.4904 H   0  0  0  0  0  0
  -27.9001  -30.4121   23.9664 H   0  0  0  0  0  0
  -27.2729  -33.3635   26.1978 H   0  0  0  0  0  0
  -28.3973  -32.6789   25.0342 H   0  0  0  0  0  0
  -28.0740  -31.8475   26.5462 H   0  0  0  0  0  0
  -28.2552  -38.0092   24.7545 H   0  0  0  0  0  0
  -28.1138  -36.2628   24.6246 H   0  0  0  0  0  0
  -27.2314  -37.1326   25.8865 H   0  0  0  0  0  0
  -20.9544  -29.8660   21.6668 H   0  0  0  0  0  0
  -26.0147  -38.2775   24.1427 H   0  0  0  0  0  0
  -28.4964  -18.9069   21.2639 H   0  0  0  0  0  0
  -31.8308  -19.5125   17.7477 H   0  0  0  0  0  0
  -29.8351  -23.6163   19.7608 H   0  0  0  0  0  0
  -27.0333  -24.4274   20.7374 H   0  0  0  0  0  0
  -31.7748  -15.9580   16.6605 H   0  0  0  0  0  0
  -32.0815  -17.6827   16.4913 H   0  0  0  0  0  0
  -30.4199  -17.0767   16.6493 H   0  0  0  0  0  0
  -31.3277  -21.6170   17.4816 H   0  0  0  0  0  0
  -29.9622  -22.3569   18.0802 H   0  0  0  0  0  0
  -28.8302  -16.1078   20.8189 H   0  0  0  0  0  0
  1 25  1  0  0  0
  1 30  2  0  0  0
  1 82  1  0  0  0
  2  3  1  0  0  0
  2 25  1  0  0  0
  2 85  1  0  0  0
  2 86  1  0  0  0
  3  4  1  0  0  0
  3 87  1  0  0  0
  3 88  1  0  0  0
  4  5  1  0  0  0
  4 89  1  0  0  0
  4 90  1  0  0  0
  5  6  1  0  0  0
  5 26  1  0  0  0
  5 91  1  0  0  0
  6 25  1  0  0  0
  6 92  1  0  0  0
  6 93  1  0  0  0
  7  8  2  0  0  0
  7 26  1  0  0  0
  7 29  1  0  0  0
  8  9  1  0  0  0
  8 22  1  0  0  0
  9 10  1  0  0  0
  9 27  2  0  0  0
 10 11  2  0  0  0
 10 15  1  0  0  0
 11 12  1  0  0  0
 11 94  1  0  0  0
 12 13  2  0  0  0
 12 95  1  0  0  0
 13 14  1  0  0  0
 13 31  1  0  0  0
 14 15  2  0  0  0
 14 96  1  0  0  0
 15 97  1  0  0  0
 16 17  2  0  0  0
 16 21  1  0  0  0
 16 31  1  0  0  0
 17 18  1  0  0  0
 17 98  1  0  0  0
 18 19  2  0  0  0
 18 99  1  0  0  0
 19 20  1  0  0  0
 19 24  1  0  0  0
 20 21  2  0  0  0
 20100  1  0  0  0
 21 23  1  0  0  0
 22 28  1  0  0  0
 22 32  2  0  0  0
 26 27  1  0  0  0
 28101  1  0  0  0
 28102  1  0  0  0
 29103  1  0  0  0
 29104  1  0  0  0
 33 34  1  0  0  0
 33 66  1  0  0  0
 33 70  2  0  0  0
 34 36  1  0  0  0
 34 59  1  0  0  0
 34105  1  0  0  0
 35 44  2  0  0  0
 35 45  1  0  0  0
 35 68  1  0  0  0
 36 56  1  0  0  0
 36106  1  0  0  0
 37 39  1  0  0  0
 37 47  1  0  0  0
 37 66  1  0  0  0
 37107  1  0  0  0
 38 43  2  0  0  0
 38 46  1  0  0  0
 38 47  1  0  0  0
 39 64  1  0  0  0
 39 67  2  0  0  0
 40 52  1  0  0  0
 40 53  2  0  0  0
 40 58  1  0  0  0
 41108  1  0  0  0
 41109  1  0  0  0
 41110  1  0  0  0
 41 48  1  0  0  0
 42 43  1  0  0  0
 42 66  1  0  0  0
 42111  1  0  0  0
 42112  1  0  0  0
 43 44  1  0  0  0
 44113  1  0  0  0
 45 46  2  0  0  0
 45114  1  0  0  0
 46115  1  0  0  0
 47116  1  0  0  0
 47117  1  0  0  0
 48 56  1  0  0  0
 48 65  1  0  0  0
 48118  1  0  0  0
 49 50  1  0  0  0
 49 53  1  0  0  0
 49 64  1  0  0  0
 49119  1  0  0  0
 50 51  1  0  0  0
 50120  1  0  0  0
 50121  1  0  0  0
 51 52  1  0  0  0
 51122  1  0  0  0
 51123  1  0  0  0
 52124  1  0  0  0
 52125  1  0  0  0
 53 54  1  0  0  0
 54 55  2  0  0  0
 54126  1  0  0  0
 55 57  1  0  0  0
 55127  1  0  0  0
 56 69  2  0  0  0
 57 58  2  0  0  0
 57128  1  0  0  0
 58129  1  0  0  0
 59 60  1  0  0  0
 59 61  1  0  0  0
 59 62  1  0  0  0
 60130  1  0  0  0
 60131  1  0  0  0
 60132  1  0  0  0
 61133  1  0  0  0
 61134  1  0  0  0
 61135  1  0  0  0
 62136  1  0  0  0
 62137  1  0  0  0
 62138  1  0  0  0
 63 65  1  0  0  0
 63139  1  0  0  0
 63140  1  0  0  0
 63141  1  0  0  0
 64142  1  0  0  0
 65143  1  0  0  0
 68 78  1  0  0  0
 71 73  2  0  0  0
 71 74  1  0  0  0
 71144  1  0  0  0
 72 75  2  0  0  0
 72 76  1  0  0  0
 72145  1  0  0  0
 73 75  1  0  0  0
 73 79  1  0  0  0
 74 76  2  0  0  0
 74 82  1  0  0  0
 75 81  1  0  0  0
 76 84  1  0  0  0
 77 78  2  0  0  0
 77 79  1  0  0  0
 77146  1  0  0  0
 78147  1  0  0  0
 79 83  2  0  0  0
 80 84  1  0  0  0
 80148  1  0  0  0
 80149  1  0  0  0
 80150  1  0  0  0
 81151  1  0  0  0
 81152  1  0  0  0
 82153  1  0  0  0
M  ISO  4   1 100  68 101  78 101  82 100
M  END
> <chiral flag>
0

> <version>
0

> <s_m_source_file>
/data/baiqing/PycharmProjects/Reinvent-master-3.2/result/LINK_invent/BTK/process_docking_weight1_custom_product_contain_oxygen_bond_distance_aromatic_linkinvent_7_9_3/rearranged_h_0112.sdf

> <i_m_source_file_index>
40

> <r_mmod_Potential_Energy-OPLS-2005>
699.39404296875

> <r_mmod_Stretch_Energy-OPLS-2005>
348.545349121094

> <r_mmod_Bend_Energy-OPLS-2005>
271.447601318359

> <r_mmod_Torsional_Energy-OPLS-2005>
247.053695678711

> <r_mmod_Improper_Torsional_Energy-OPLS-2005>
7.8625054359436

> <r_mmod_Van_der_Waal_Energy-OPLS-2005>
141.420486450195

> <r_mmod_Electrostatic_Energy-OPLS-2005>
-344.127685546875

> <r_mmod_Solvation_Energy-OPLS-2005>
-239.992126464844

> <b_mmod_Minimization_Converged-OPLS-2005>
0

> <r_mmod_RMS_Derivative-OPLS-2005>
2.66635179519653

$$$$
41
                    3D
 Structure written by MMmdl.
159167  0  0  1  0            999 V2000
  -30.6725  -14.6132   20.5981 C   0  0  0  0  0  0
  -30.4326  -12.4064   19.4604 C   0  0  0  0  0  0
  -29.5070  -12.5363   18.2309 C   0  0  0  0  0  0
  -28.0301  -12.3649   18.6342 C   0  0  0  0  0  0
  -27.6556  -13.2187   19.8724 C   0  0  2  0  0  0
  -28.6896  -13.0378   21.0025 C   0  0  0  0  0  0
  -25.2552  -13.8178   20.5677 C   0  0  0  0  0  0
  -24.1821  -13.0442   20.9182 C   0  0  0  0  0  0
  -24.6393  -11.6911   20.8735 C   0  0  0  0  0  0
  -23.9061  -10.4293   21.0399 C   0  0  0  0  0  0
  -24.3615   -9.4212   21.9181 C   0  0  0  0  0  0
  -23.6291   -8.2242   22.0752 C   0  0  0  0  0  0
  -22.4272   -8.0280   21.3539 C   0  0  0  0  0  0
  -21.9907   -9.0252   20.4641 C   0  0  0  0  0  0
  -22.7233  -10.2131   20.3050 C   0  0  0  0  0  0
  -21.6851   -6.0730   22.5274 C   0  0  0  0  0  0
  -21.4012   -6.5636   23.8207 C   0  0  0  0  0  0
  -21.3659   -5.6793   24.9168 C   0  0  0  0  0  0
  -21.6044   -4.3053   24.7219 C   0  0  0  0  0  0
  -21.8824   -3.8143   23.4339 C   0  0  0  0  0  0
  -21.9196   -4.6959   22.3395 C   0  0  0  0  0  0
  -22.7842  -13.5229   21.1861 C   0  0  0  0  0  0
  -22.1666   -4.2147   21.0976 F   0  0  0  0  0  0
  -21.5631   -3.4540   25.7732 F   0  0  0  0  0  0
  -30.0157  -13.4062   20.4723 N   0  0  0  0  0  0
  -26.2978  -12.9363   20.3320 N   0  0  0  0  0  0
  -25.9320  -11.6509   20.5737 N   0  0  0  0  0  0
  -22.0496  -12.8210   22.0412 N   0  0  0  0  0  0
  -25.4279  -15.1900   20.4114 N   0  0  0  0  0  0
  -31.7441  -14.8077   20.0144 O   0  0  0  0  0  0
  -21.6645   -6.8875   21.4229 O   0  0  0  0  0  0
  -22.3530  -14.5533   20.6706 O   0  0  0  0  0  0
  -24.6259  -31.8606   23.2047 C   0  0  0  0  0  0
  -25.9116  -32.4767   23.8377 C   0  0  1  0  0  0
  -27.2222  -27.3212   20.1249 C   0  0  0  0  0  0
  -25.5930  -33.8570   24.2299 N   0  0  0  0  0  0
  -23.4196  -30.4861   21.5455 C   0  0  2  0  0  0
  -24.8671  -28.9430   20.1147 C   0  0  0  0  0  0
  -22.7467  -29.4635   22.4926 C   0  0  0  0  0  0
  -18.0282  -28.1354   22.8493 C   0  0  0  0  0  0
  -24.1490  -36.7281   23.2650 C   0  0  0  0  0  0
  -25.9613  -30.7932   21.3753 C   0  0  0  0  0  0
  -26.0373  -29.4210   20.7181 C   0  0  0  0  0  0
  -27.2197  -28.6223   20.7146 C   0  0  0  0  0  0
  -26.0316  -26.9023   19.4859 C   0  0  0  0  0  0
  -24.8656  -27.6874   19.4900 C   0  0  0  0  0  0
  -23.6336  -29.8233   20.1619 C   0  0  0  0  0  0
  -25.4114  -36.3071   24.0339 C   0  0  1  0  0  0
  -20.5880  -28.3673   23.1273 C   0  0  2  0  0  0
  -20.6764  -26.9388   22.5405 C   0  0  0  0  0  0
  -19.5738  -26.6362   21.5199 C   0  0  0  0  0  0
  -18.1920  -26.7894   22.1610 C   0  0  0  0  0  0
  -19.1534  -28.8825   23.2875 C   0  0  0  0  0  0
  -18.9474  -30.1424   23.8887 C   0  0  0  0  0  0
  -17.6474  -30.6575   24.0544 C   0  0  0  0  0  0
  -25.9054  -34.9438   23.5119 C   0  0  0  0  0  0
  -16.5358  -29.9060   23.6341 C   0  0  0  0  0  0
  -16.7273  -28.6468   23.0378 C   0  0  0  0  0  0
  -26.4505  -31.6564   25.0739 C   0  0  0  0  0  0
  -25.3748  -31.3644   26.1473 C   0  0  0  0  0  0
  -27.0408  -30.3009   24.6187 C   0  0  0  0  0  0
  -27.6089  -32.4283   25.7487 C   0  0  0  0  0  0
  -27.5573  -37.1786   24.8471 C   0  0  0  0  0  0
  -21.4181  -29.3028   22.3666 N   0  0  0  0  0  0
  -26.4282  -37.3762   23.9423 N   0  0  0  0  0  0
  -24.6869  -31.0629   22.0985 N   0  0  0  0  0  0
  -23.4191  -28.8176   23.3004 O   0  0  0  0  0  0
  -28.3207  -26.4486   20.1733 O   0  0  0  0  0  0
  -26.5611  -34.8904   22.4680 O   0  0  0  0  0  0
  -23.5433  -32.1392   23.7391 O   0  0  0  0  0  0
  -30.8697  -17.8660   20.2927 C   0  0  0  0  0  0
  -28.8048  -19.4631   21.2818 C   0  0  0  0  0  0
  -29.9079  -17.2034   21.1051 C   0  0  0  0  0  0
  -28.8410  -18.0598   21.5730 C   0  0  0  0  0  0
  -30.8191  -19.2612   20.0039 C   0  0  0  0  0  0
  -29.7972  -20.1113   20.5061 C   0  0  0  0  0  0
  -30.0943  -15.7264   21.5526 C   0  0  0  0  0  0
  -29.1360  -23.9573   20.3082 C   0  0  0  0  0  0
  -27.8364  -17.8436   23.9122 C   0  0  0  0  0  0
  -27.6735  -17.5383   22.4136 C   0  0  0  0  0  0
  -28.0015  -25.0348   20.5090 C   0  0  0  0  0  0
  -28.8393  -22.4450   20.6863 C   0  0  0  0  0  0
  -29.8434  -15.4204   22.7583 N   0  0  0  0  0  0
  -31.8172  -19.8227   19.2106 N   0  0  0  0  0  0
  -30.2403  -24.2878   19.8612 O   0  0  0  0  0  0
  -29.8452  -21.4924   20.2057 O   0  0  0  0  0  0
  -31.4738  -12.5285   19.1579 H   0  0  0  0  0  0
  -30.3729  -11.4015   19.8795 H   0  0  0  0  0  0
  -29.7773  -11.7968   17.4763 H   0  0  0  0  0  0
  -29.6503  -13.5131   17.7672 H   0  0  0  0  0  0
  -27.8669  -11.3088   18.8511 H   0  0  0  0  0  0
  -27.3779  -12.6101   17.7957 H   0  0  0  0  0  0
  -27.6867  -14.2626   19.5607 H   0  0  0  0  0  0
  -28.7034  -12.0004   21.3393 H   0  0  0  0  0  0
  -28.3829  -13.6112   21.8739 H   0  0  0  0  0  0
  -25.2756   -9.5689   22.4760 H   0  0  0  0  0  0
  -24.0000   -7.4634   22.7473 H   0  0  0  0  0  0
  -21.0837   -8.8770   19.8947 H   0  0  0  0  0  0
  -22.3693  -10.9671   19.6163 H   0  0  0  0  0  0
  -21.2003   -7.6146   23.9703 H   0  0  0  0  0  0
  -21.1478   -6.0525   25.9068 H   0  0  0  0  0  0
  -22.0605   -2.7610   23.2842 H   0  0  0  0  0  0
  -22.4117  -11.9870   22.4780 H   0  0  0  0  0  0
  -21.1117  -13.1241   22.2639 H   0  0  0  0  0  0
  -24.6609  -15.8451   20.5114 H   0  0  0  0  0  0
  -26.2808  -15.6240   20.0830 H   0  0  0  0  0  0
  -26.7189  -32.5431   23.1128 H   0  0  0  0  0  0
  -25.0107  -33.9729   25.0466 H   0  0  0  0  0  0
  -22.7139  -31.3080   21.4028 H   0  0  0  0  0  0
  -23.3755  -35.9607   23.3308 H   0  0  0  0  0  0
  -24.3603  -36.8910   22.2067 H   0  0  0  0  0  0
  -23.7251  -37.6482   23.6683 H   0  0  0  0  0  0
  -26.0978  -31.5573   20.6096 H   0  0  0  0  0  0
  -26.8394  -30.8383   22.0062 H   0  0  0  0  0  0
  -28.1146  -28.9816   21.2022 H   0  0  0  0  0  0
  -25.9749  -25.9557   18.9718 H   0  0  0  0  0  0
  -23.9682  -27.3194   19.0114 H   0  0  0  0  0  0
  -23.7490  -30.6001   19.4055 H   0  0  0  0  0  0
  -22.7538  -29.2527   19.8622 H   0  0  0  0  0  0
  -25.1282  -36.1915   25.0823 H   0  0  0  0  0  0
  -20.9985  -28.3240   24.1385 H   0  0  0  0  0  0
  -20.5654  -26.2278   23.3597 H   0  0  0  0  0  0
  -21.6637  -26.7408   22.1191 H   0  0  0  0  0  0
  -19.6917  -25.6277   21.1215 H   0  0  0  0  0  0
  -19.6680  -27.3184   20.6727 H   0  0  0  0  0  0
  -17.4188  -26.6667   21.4001 H   0  0  0  0  0  0
  -18.0322  -26.0017   22.8988 H   0  0  0  0  0  0
  -19.7957  -30.7228   24.2264 H   0  0  0  0  0  0
  -17.5034  -31.6262   24.5126 H   0  0  0  0  0  0
  -15.5359  -30.2951   23.7672 H   0  0  0  0  0  0
  -15.8665  -28.0760   22.7122 H   0  0  0  0  0  0
  -24.5969  -30.6936   25.7791 H   0  0  0  0  0  0
  -24.8869  -32.2756   26.4923 H   0  0  0  0  0  0
  -25.8088  -30.8819   27.0240 H   0  0  0  0  0  0
  -26.2991  -29.6668   24.1307 H   0  0  0  0  0  0
  -27.4248  -29.7342   25.4688 H   0  0  0  0  0  0
  -27.8781  -30.4344   23.9338 H   0  0  0  0  0  0
  -27.2782  -33.3636   26.2004 H   0  0  0  0  0  0
  -28.3924  -32.6742   25.0310 H   0  0  0  0  0  0
  -28.0715  -31.8421   26.5429 H   0  0  0  0  0  0
  -28.2569  -38.0101   24.7546 H   0  0  0  0  0  0
  -28.1086  -36.2636   24.6257 H   0  0  0  0  0  0
  -27.2292  -37.1380   25.8871 H   0  0  0  0  0  0
  -20.9353  -29.8778   21.6899 H   0  0  0  0  0  0
  -26.0161  -38.2831   24.1423 H   0  0  0  0  0  0
  -31.7056  -17.2994   19.9119 H   0  0  0  0  0  0
  -27.9907  -20.0502   21.6828 H   0  0  0  0  0  0
  -26.9823  -17.4741   24.4801 H   0  0  0  0  0  0
  -27.9076  -18.9170   24.0925 H   0  0  0  0  0  0
  -28.7304  -17.3838   24.3305 H   0  0  0  0  0  0
  -27.5030  -16.4742   22.2520 H   0  0  0  0  0  0
  -26.7557  -18.0118   22.0604 H   0  0  0  0  0  0
  -27.6793  -24.9996   21.5496 H   0  0  0  0  0  0
  -27.1635  -24.6674   19.9241 H   0  0  0  0  0  0
  -27.8650  -22.1683   20.2849 H   0  0  0  0  0  0
  -28.7705  -22.3709   21.7718 H   0  0  0  0  0  0
  -29.5136  -16.2303   23.2682 H   0  0  0  0  0  0
  -32.2901  -19.2248   18.5404 H   0  0  0  0  0  0
  -31.6268  -20.7503   18.8433 H   0  0  0  0  0  0
  1 25  1  0  0  0
  1 30  2  0  0  0
  1 77  1  0  0  0
  2  3  1  0  0  0
  2 25  1  0  0  0
  2 87  1  0  0  0
  2 88  1  0  0  0
  3  4  1  0  0  0
  3 89  1  0  0  0
  3 90  1  0  0  0
  4  5  1  0  0  0
  4 91  1  0  0  0
  4 92  1  0  0  0
  5  6  1  0  0  0
  5 26  1  0  0  0
  5 93  1  0  0  0
  6 25  1  0  0  0
  6 94  1  0  0  0
  6 95  1  0  0  0
  7  8  2  0  0  0
  7 26  1  0  0  0
  7 29  1  0  0  0
  8  9  1  0  0  0
  8 22  1  0  0  0
  9 10  1  0  0  0
  9 27  2  0  0  0
 10 11  2  0  0  0
 10 15  1  0  0  0
 11 12  1  0  0  0
 11 96  1  0  0  0
 12 13  2  0  0  0
 12 97  1  0  0  0
 13 14  1  0  0  0
 13 31  1  0  0  0
 14 15  2  0  0  0
 14 98  1  0  0  0
 15 99  1  0  0  0
 16 17  2  0  0  0
 16 21  1  0  0  0
 16 31  1  0  0  0
 17 18  1  0  0  0
 17100  1  0  0  0
 18 19  2  0  0  0
 18101  1  0  0  0
 19 20  1  0  0  0
 19 24  1  0  0  0
 20 21  2  0  0  0
 20102  1  0  0  0
 21 23  1  0  0  0
 22 28  1  0  0  0
 22 32  2  0  0  0
 26 27  1  0  0  0
 28103  1  0  0  0
 28104  1  0  0  0
 29105  1  0  0  0
 29106  1  0  0  0
 33 34  1  0  0  0
 33 66  1  0  0  0
 33 70  2  0  0  0
 34 36  1  0  0  0
 34 59  1  0  0  0
 34107  1  0  0  0
 35 44  2  0  0  0
 35 45  1  0  0  0
 35 68  1  0  0  0
 36 56  1  0  0  0
 36108  1  0  0  0
 37 39  1  0  0  0
 37 47  1  0  0  0
 37 66  1  0  0  0
 37109  1  0  0  0
 38 43  2  0  0  0
 38 46  1  0  0  0
 38 47  1  0  0  0
 39 64  1  0  0  0
 39 67  2  0  0  0
 40 52  1  0  0  0
 40 53  2  0  0  0
 40 58  1  0  0  0
 41110  1  0  0  0
 41111  1  0  0  0
 41112  1  0  0  0
 41 48  1  0  0  0
 42 43  1  0  0  0
 42 66  1  0  0  0
 42113  1  0  0  0
 42114  1  0  0  0
 43 44  1  0  0  0
 44115  1  0  0  0
 45 46  2  0  0  0
 45116  1  0  0  0
 46117  1  0  0  0
 47118  1  0  0  0
 47119  1  0  0  0
 48 56  1  0  0  0
 48 65  1  0  0  0
 48120  1  0  0  0
 49 50  1  0  0  0
 49 53  1  0  0  0
 49 64  1  0  0  0
 49121  1  0  0  0
 50 51  1  0  0  0
 50122  1  0  0  0
 50123  1  0  0  0
 51 52  1  0  0  0
 51124  1  0  0  0
 51125  1  0  0  0
 52126  1  0  0  0
 52127  1  0  0  0
 53 54  1  0  0  0
 54 55  2  0  0  0
 54128  1  0  0  0
 55 57  1  0  0  0
 55129  1  0  0  0
 56 69  2  0  0  0
 57 58  2  0  0  0
 57130  1  0  0  0
 58131  1  0  0  0
 59 60  1  0  0  0
 59 61  1  0  0  0
 59 62  1  0  0  0
 60132  1  0  0  0
 60133  1  0  0  0
 60134  1  0  0  0
 61135  1  0  0  0
 61136  1  0  0  0
 61137  1  0  0  0
 62138  1  0  0  0
 62139  1  0  0  0
 62140  1  0  0  0
 63 65  1  0  0  0
 63141  1  0  0  0
 63142  1  0  0  0
 63143  1  0  0  0
 64144  1  0  0  0
 65145  1  0  0  0
 68 81  1  0  0  0
 71 73  2  0  0  0
 71 75  1  0  0  0
 71146  1  0  0  0
 72 74  2  0  0  0
 72 76  1  0  0  0
 72147  1  0  0  0
 73 74  1  0  0  0
 73 77  1  0  0  0
 74 80  1  0  0  0
 75 76  2  0  0  0
 75 84  1  0  0  0
 76 86  1  0  0  0
 77 83  2  0  0  0
 78 81  1  0  0  0
 78 82  1  0  0  0
 78 85  2  0  0  0
 79 80  1  0  0  0
 79148  1  0  0  0
 79149  1  0  0  0
 79150  1  0  0  0
 80151  1  0  0  0
 80152  1  0  0  0
 81153  1  0  0  0
 81154  1  0  0  0
 82 86  1  0  0  0
 82155  1  0  0  0
 82156  1  0  0  0
 83157  1  0  0  0
 84158  1  0  0  0
 84159  1  0  0  0
M  ISO  4   1 100  68 101  77 100  81 101
M  END
> <chiral flag>
0

> <version>
0

> <s_m_source_file>
/data/baiqing/PycharmProjects/Reinvent-master-3.2/result/LINK_invent/BTK/process_docking_weight1_custom_product_contain_oxygen_bond_distance_aromatic_linkinvent_7_9_3/rearranged_h_0112.sdf

> <i_m_source_file_index>
41

> <r_mmod_Potential_Energy-OPLS-2005>
197.76708984375

> <r_mmod_Stretch_Energy-OPLS-2005>
96.4033355712891

> <r_mmod_Bend_Energy-OPLS-2005>
151.60285949707

> <r_mmod_Torsional_Energy-OPLS-2005>
217.734558105469

> <r_mmod_Improper_Torsional_Energy-OPLS-2005>
6.73724412918091

> <r_mmod_Van_der_Waal_Energy-OPLS-2005>
151.032775878906

> <r_mmod_Electrostatic_Energy-OPLS-2005>
-230.302261352539

> <r_mmod_Solvation_Energy-OPLS-2005>
-239.737640380859

> <b_mmod_Minimization_Converged-OPLS-2005>
0

> <r_mmod_RMS_Derivative-OPLS-2005>
2.53935742378235

$$$$
42
                    3D
 Structure written by MMmdl.
153161  0  0  1  0            999 V2000
  -30.6273  -14.7463   20.4772 C   0  0  0  0  0  0
  -30.4226  -12.4562   19.4941 C   0  0  0  0  0  0
  -29.5161  -12.5302   18.2470 C   0  0  0  0  0  0
  -28.0381  -12.3580   18.6478 C   0  0  0  0  0  0
  -27.6401  -13.2443   19.8594 C   0  0  2  0  0  0
  -28.6802  -13.1822   21.0002 C   0  0  0  0  0  0
  -25.2467  -13.8227   20.5690 C   0  0  0  0  0  0
  -24.1777  -13.0448   20.9212 C   0  0  0  0  0  0
  -24.6389  -11.6939   20.8740 C   0  0  0  0  0  0
  -23.9086  -10.4306   21.0404 C   0  0  0  0  0  0
  -24.3636   -9.4223   21.9187 C   0  0  0  0  0  0
  -23.6301   -8.2262   22.0763 C   0  0  0  0  0  0
  -22.4279   -8.0288   21.3553 C   0  0  0  0  0  0
  -21.9926   -9.0267   20.4653 C   0  0  0  0  0  0
  -22.7262  -10.2144   20.3058 C   0  0  0  0  0  0
  -21.6855   -6.0748   22.5277 C   0  0  0  0  0  0
  -21.4013   -6.5642   23.8213 C   0  0  0  0  0  0
  -21.3654   -5.6788   24.9169 C   0  0  0  0  0  0
  -21.6041   -4.3054   24.7214 C   0  0  0  0  0  0
  -21.8819   -3.8152   23.4332 C   0  0  0  0  0  0
  -21.9190   -4.6974   22.3395 C   0  0  0  0  0  0
  -22.7797  -13.5215   21.1857 C   0  0  0  0  0  0
  -22.1660   -4.2165   21.0973 F   0  0  0  0  0  0
  -21.5625   -3.4535   25.7727 F   0  0  0  0  0  0
  -29.9838  -13.5285   20.4222 N   0  0  0  0  0  0
  -26.2918  -12.9456   20.3313 N   0  0  0  0  0  0
  -25.9325  -11.6584   20.5775 N   0  0  0  0  0  0
  -22.0446  -12.8208   22.0422 N   0  0  0  0  0  0
  -25.4120  -15.1956   20.4077 N   0  0  0  0  0  0
  -31.8116  -14.7876   20.1331 O   0  0  0  0  0  0
  -21.6636   -6.8887   21.4239 O   0  0  0  0  0  0
  -22.3486  -14.5524   20.6708 O   0  0  0  0  0  0
  -24.6259  -31.8537   23.1964 C   0  0  0  0  0  0
  -25.9090  -32.4736   23.8294 C   0  0  1  0  0  0
  -27.2226  -27.2714   20.1201 C   0  0  0  0  0  0
  -25.5897  -33.8542   24.2225 N   0  0  0  0  0  0
  -23.4224  -30.4735   21.5399 C   0  0  2  0  0  0
  -24.8723  -28.9217   20.1006 C   0  0  0  0  0  0
  -22.7460  -29.4569   22.4902 C   0  0  0  0  0  0
  -18.0275  -28.1376   22.8477 C   0  0  0  0  0  0
  -24.1478  -36.7265   23.2652 C   0  0  0  0  0  0
  -25.9654  -30.7653   21.3805 C   0  0  0  0  0  0
  -26.0366  -29.3899   20.7198 C   0  0  0  0  0  0
  -27.2082  -28.5730   20.7263 C   0  0  0  0  0  0
  -26.0394  -26.8664   19.4666 C   0  0  0  0  0  0
  -24.8797  -27.6707   19.4607 C   0  0  0  0  0  0
  -23.6389  -29.8038   20.1546 C   0  0  0  0  0  0
  -25.4115  -36.3074   24.0330 C   0  0  1  0  0  0
  -20.5868  -28.3671   23.1273 C   0  0  2  0  0  0
  -20.6761  -26.9387   22.5418 C   0  0  0  0  0  0
  -19.5760  -26.6363   21.5193 C   0  0  0  0  0  0
  -18.1927  -26.7914   22.1600 C   0  0  0  0  0  0
  -19.1531  -28.8840   23.2862 C   0  0  0  0  0  0
  -18.9477  -30.1432   23.8885 C   0  0  0  0  0  0
  -17.6496  -30.6588   24.0554 C   0  0  0  0  0  0
  -25.9067  -34.9439   23.5089 C   0  0  0  0  0  0
  -16.5370  -29.9089   23.6348 C   0  0  0  0  0  0
  -16.7271  -28.6492   23.0374 C   0  0  0  0  0  0
  -26.4493  -31.6584   25.0688 C   0  0  0  0  0  0
  -25.3717  -31.3708   26.1408 C   0  0  0  0  0  0
  -27.0380  -30.3021   24.6172 C   0  0  0  0  0  0
  -27.6047  -32.4338   25.7458 C   0  0  0  0  0  0
  -27.5572  -37.1778   24.8470 C   0  0  0  0  0  0
  -21.4174  -29.3003   22.3646 N   0  0  0  0  0  0
  -26.4294  -37.3767   23.9411 N   0  0  0  0  0  0
  -24.6893  -31.0487   22.0950 N   0  0  0  0  0  0
  -23.4162  -28.8130   23.3019 O   0  0  0  0  0  0
  -28.3411  -26.4181   20.2210 O   0  0  0  0  0  0
  -26.5653  -34.8914   22.4671 O   0  0  0  0  0  0
  -23.5415  -32.1372   23.7266 O   0  0  0  0  0  0
  -29.3820  -18.5094   20.6141 C   0  0  0  0  0  0
  -31.6705  -17.6911   20.6825 C   0  0  0  0  0  0
  -29.8095  -19.9119   20.5658 C   0  0  0  0  0  0
  -30.2939  -17.3596   20.6563 C   0  0  0  0  0  0
  -32.1182  -19.0207   20.6252 C   0  0  0  0  0  0
  -31.2167  -20.0954   20.5477 C   0  0  0  0  0  0
  -28.8921  -21.1742   20.5870 C   0  0  0  0  0  0
  -29.1284  -22.4829   20.1667 C   0  0  0  0  0  0
  -28.2571  -23.7375   20.3912 C   0  0  0  0  0  0
  -28.4652  -25.0842   19.5465 C   0  0  0  0  0  0
  -33.4882  -19.3114   20.6778 N   0  0  0  0  0  0
  -29.8921  -15.9136   20.7123 N   0  0  0  0  0  0
  -27.3552  -23.7295   21.2356 O   0  0  0  0  0  0
  -31.8204  -21.3127   20.4974 O   0  0  0  0  0  0
  -31.4688  -12.5573   19.2037 H   0  0  0  0  0  0
  -30.3443  -11.4795   19.9747 H   0  0  0  0  0  0
  -29.8018  -11.7683   17.5212 H   0  0  0  0  0  0
  -29.6528  -13.4939   17.7538 H   0  0  0  0  0  0
  -27.8803  -11.3064   18.8893 H   0  0  0  0  0  0
  -27.3912  -12.5794   17.7981 H   0  0  0  0  0  0
  -27.6325  -14.2698   19.4896 H   0  0  0  0  0  0
  -28.7097  -12.1880   21.4490 H   0  0  0  0  0  0
  -28.4165  -13.8724   21.8030 H   0  0  0  0  0  0
  -25.2770   -9.5689   22.4777 H   0  0  0  0  0  0
  -23.9993   -7.4653   22.7491 H   0  0  0  0  0  0
  -21.0854   -8.8798   19.8956 H   0  0  0  0  0  0
  -22.3720  -10.9690   19.6177 H   0  0  0  0  0  0
  -21.2011   -7.6145   23.9719 H   0  0  0  0  0  0
  -21.1471   -6.0514   25.9070 H   0  0  0  0  0  0
  -22.0601   -2.7614   23.2825 H   0  0  0  0  0  0
  -22.4055  -11.9858   22.4797 H   0  0  0  0  0  0
  -21.1078  -13.1257   22.2655 H   0  0  0  0  0  0
  -24.6327  -15.8411   20.4863 H   0  0  0  0  0  0
  -26.2525  -15.6356   20.0545 H   0  0  0  0  0  0
  -26.7137  -32.5395   23.1014 H   0  0  0  0  0  0
  -24.9982  -33.9681   25.0331 H   0  0  0  0  0  0
  -22.7199  -31.2955   21.3912 H   0  0  0  0  0  0
  -23.3753  -35.9583   23.3317 H   0  0  0  0  0  0
  -24.3563  -36.8909   22.2070 H   0  0  0  0  0  0
  -23.7214  -37.6443   23.6699 H   0  0  0  0  0  0
  -26.1098  -31.5277   20.6145 H   0  0  0  0  0  0
  -26.8401  -30.8071   22.0174 H   0  0  0  0  0  0
  -28.0972  -28.9206   21.2346 H   0  0  0  0  0  0
  -25.9755  -25.9070   18.9776 H   0  0  0  0  0  0
  -23.9912  -27.3145   18.9574 H   0  0  0  0  0  0
  -23.7492  -30.5785   19.3950 H   0  0  0  0  0  0
  -22.7596  -29.2282   19.8571 H   0  0  0  0  0  0
  -25.1300  -36.1921   25.0823 H   0  0  0  0  0  0
  -20.9955  -28.3267   24.1394 H   0  0  0  0  0  0
  -20.5639  -26.2273   23.3617 H   0  0  0  0  0  0
  -21.6635  -26.7408   22.1223 H   0  0  0  0  0  0
  -19.6937  -25.6263   21.1240 H   0  0  0  0  0  0
  -19.6734  -27.3154   20.6708 H   0  0  0  0  0  0
  -17.4197  -26.6643   21.4001 H   0  0  0  0  0  0
  -18.0341  -26.0050   22.8994 H   0  0  0  0  0  0
  -19.7974  -30.7219   24.2250 H   0  0  0  0  0  0
  -17.5075  -31.6283   24.5135 H   0  0  0  0  0  0
  -15.5377  -30.3012   23.7688 H   0  0  0  0  0  0
  -15.8650  -28.0823   22.7134 H   0  0  0  0  0  0
  -24.5896  -30.7084   25.7688 H   0  0  0  0  0  0
  -24.8907  -32.2866   26.4848 H   0  0  0  0  0  0
  -25.8016  -30.8845   27.0174 H   0  0  0  0  0  0
  -26.2971  -29.6705   24.1259 H   0  0  0  0  0  0
  -27.4159  -29.7345   25.4680 H   0  0  0  0  0  0
  -27.8797  -30.4311   23.9363 H   0  0  0  0  0  0
  -27.2684  -33.3681   26.1947 H   0  0  0  0  0  0
  -28.3892  -32.6812   25.0302 H   0  0  0  0  0  0
  -28.0656  -31.8511   26.5439 H   0  0  0  0  0  0
  -28.2581  -38.0078   24.7530 H   0  0  0  0  0  0
  -28.1077  -36.2607   24.6300 H   0  0  0  0  0  0
  -27.2282  -37.1442   25.8870 H   0  0  0  0  0  0
  -20.9352  -29.8708   21.6844 H   0  0  0  0  0  0
  -26.0172  -38.2837   24.1430 H   0  0  0  0  0  0
  -28.3185  -18.3155   20.6309 H   0  0  0  0  0  0
  -32.4262  -16.9310   20.7778 H   0  0  0  0  0  0
  -27.9427  -21.0061   21.0745 H   0  0  0  0  0  0
  -30.0472  -22.6887   19.6399 H   0  0  0  0  0  0
  -27.8340  -25.0384   18.6607 H   0  0  0  0  0  0
  -29.4839  -25.0493   19.1581 H   0  0  0  0  0  0
  -33.7559  -19.8982   21.4632 H   0  0  0  0  0  0
  -34.0871  -18.4920   20.6889 H   0  0  0  0  0  0
  -28.9163  -15.7453   20.9080 H   0  0  0  0  0  0
  -32.7440  -21.0782   20.4017 H   0  0  0  0  0  0
  1 25  1  0  0  0
  1 30  2  0  0  0
  1 82  1  0  0  0
  2  3  1  0  0  0
  2 25  1  0  0  0
  2 85  1  0  0  0
  2 86  1  0  0  0
  3  4  1  0  0  0
  3 87  1  0  0  0
  3 88  1  0  0  0
  4  5  1  0  0  0
  4 89  1  0  0  0
  4 90  1  0  0  0
  5  6  1  0  0  0
  5 26  1  0  0  0
  5 91  1  0  0  0
  6 25  1  0  0  0
  6 92  1  0  0  0
  6 93  1  0  0  0
  7  8  2  0  0  0
  7 26  1  0  0  0
  7 29  1  0  0  0
  8  9  1  0  0  0
  8 22  1  0  0  0
  9 10  1  0  0  0
  9 27  2  0  0  0
 10 11  2  0  0  0
 10 15  1  0  0  0
 11 12  1  0  0  0
 11 94  1  0  0  0
 12 13  2  0  0  0
 12 95  1  0  0  0
 13 14  1  0  0  0
 13 31  1  0  0  0
 14 15  2  0  0  0
 14 96  1  0  0  0
 15 97  1  0  0  0
 16 17  2  0  0  0
 16 21  1  0  0  0
 16 31  1  0  0  0
 17 18  1  0  0  0
 17 98  1  0  0  0
 18 19  2  0  0  0
 18 99  1  0  0  0
 19 20  1  0  0  0
 19 24  1  0  0  0
 20 21  2  0  0  0
 20100  1  0  0  0
 21 23  1  0  0  0
 22 28  1  0  0  0
 22 32  2  0  0  0
 26 27  1  0  0  0
 28101  1  0  0  0
 28102  1  0  0  0
 29103  1  0  0  0
 29104  1  0  0  0
 33 34  1  0  0  0
 33 66  1  0  0  0
 33 70  2  0  0  0
 34 36  1  0  0  0
 34 59  1  0  0  0
 34105  1  0  0  0
 35 44  2  0  0  0
 35 45  1  0  0  0
 35 68  1  0  0  0
 36 56  1  0  0  0
 36106  1  0  0  0
 37 39  1  0  0  0
 37 47  1  0  0  0
 37 66  1  0  0  0
 37107  1  0  0  0
 38 43  2  0  0  0
 38 46  1  0  0  0
 38 47  1  0  0  0
 39 64  1  0  0  0
 39 67  2  0  0  0
 40 52  1  0  0  0
 40 53  2  0  0  0
 40 58  1  0  0  0
 41108  1  0  0  0
 41109  1  0  0  0
 41110  1  0  0  0
 41 48  1  0  0  0
 42 43  1  0  0  0
 42 66  1  0  0  0
 42111  1  0  0  0
 42112  1  0  0  0
 43 44  1  0  0  0
 44113  1  0  0  0
 45 46  2  0  0  0
 45114  1  0  0  0
 46115  1  0  0  0
 47116  1  0  0  0
 47117  1  0  0  0
 48 56  1  0  0  0
 48 65  1  0  0  0
 48118  1  0  0  0
 49 50  1  0  0  0
 49 53  1  0  0  0
 49 64  1  0  0  0
 49119  1  0  0  0
 50 51  1  0  0  0
 50120  1  0  0  0
 50121  1  0  0  0
 51 52  1  0  0  0
 51122  1  0  0  0
 51123  1  0  0  0
 52124  1  0  0  0
 52125  1  0  0  0
 53 54  1  0  0  0
 54 55  2  0  0  0
 54126  1  0  0  0
 55 57  1  0  0  0
 55127  1  0  0  0
 56 69  2  0  0  0
 57 58  2  0  0  0
 57128  1  0  0  0
 58129  1  0  0  0
 59 60  1  0  0  0
 59 61  1  0  0  0
 59 62  1  0  0  0
 60130  1  0  0  0
 60131  1  0  0  0
 60132  1  0  0  0
 61133  1  0  0  0
 61134  1  0  0  0
 61135  1  0  0  0
 62136  1  0  0  0
 62137  1  0  0  0
 62138  1  0  0  0
 63 65  1  0  0  0
 63139  1  0  0  0
 63140  1  0  0  0
 63141  1  0  0  0
 64142  1  0  0  0
 65143  1  0  0  0
 68 80  1  0  0  0
 71 73  2  0  0  0
 71 74  1  0  0  0
 71144  1  0  0  0
 72 74  2  0  0  0
 72 75  1  0  0  0
 72145  1  0  0  0
 73 76  1  0  0  0
 73 77  1  0  0  0
 74 82  1  0  0  0
 75 76  2  0  0  0
 75 81  1  0  0  0
 76 84  1  0  0  0
 77 78  2  0  0  0
 77146  1  0  0  0
 78 79  1  0  0  0
 78147  1  0  0  0
 79 80  1  0  0  0
 79 83  2  0  0  0
 80148  1  0  0  0
 80149  1  0  0  0
 81150  1  0  0  0
 81151  1  0  0  0
 82152  1  0  0  0
 84153  1  0  0  0
M  ISO  4   1 100  68 101  80 101  82 100
M  END
> <chiral flag>
0

> <version>
0

> <s_m_source_file>
/data/baiqing/PycharmProjects/Reinvent-master-3.2/result/LINK_invent/BTK/process_docking_weight1_custom_product_contain_oxygen_bond_distance_aromatic_linkinvent_7_9_3/rearranged_h_0112.sdf

> <i_m_source_file_index>
42

> <r_mmod_Potential_Energy-OPLS-2005>
106.882568359375

> <r_mmod_Stretch_Energy-OPLS-2005>
133.482406616211

> <r_mmod_Bend_Energy-OPLS-2005>
177.667053222656

> <r_mmod_Torsional_Energy-OPLS-2005>
230.183181762695

> <r_mmod_Improper_Torsional_Energy-OPLS-2005>
11.4263372421265

> <r_mmod_Van_der_Waal_Energy-OPLS-2005>
159.144668579102

> <r_mmod_Electrostatic_Energy-OPLS-2005>
-437.190277099609

> <r_mmod_Solvation_Energy-OPLS-2005>
-248.845077514648

> <b_mmod_Minimization_Converged-OPLS-2005>
0

> <r_mmod_RMS_Derivative-OPLS-2005>
2.86414074897766

$$$$
43
                    3D
 Structure written by MMmdl.
159168  0  0  1  0            999 V2000
  -30.6962  -14.4823   20.5777 C   0  0  0  0  0  0
  -30.4236  -12.3163   19.4195 C   0  0  0  0  0  0
  -29.4934  -12.5098   18.2045 C   0  0  0  0  0  0
  -28.0147  -12.3702   18.6186 C   0  0  0  0  0  0
  -27.6614  -13.2077   19.8763 C   0  0  2  0  0  0
  -28.7041  -12.9875   20.9953 C   0  0  0  0  0  0
  -25.2592  -13.8158   20.5703 C   0  0  0  0  0  0
  -24.1834  -13.0434   20.9161 C   0  0  0  0  0  0
  -24.6388  -11.6902   20.8711 C   0  0  0  0  0  0
  -23.9059  -10.4290   21.0380 C   0  0  0  0  0  0
  -24.3602   -9.4211   21.9168 C   0  0  0  0  0  0
  -23.6275   -8.2249   22.0754 C   0  0  0  0  0  0
  -22.4258   -8.0282   21.3547 C   0  0  0  0  0  0
  -21.9888   -9.0258   20.4650 C   0  0  0  0  0  0
  -22.7222  -10.2133   20.3043 C   0  0  0  0  0  0
  -21.6861   -6.0722   22.5272 C   0  0  0  0  0  0
  -21.4018   -6.5625   23.8204 C   0  0  0  0  0  0
  -21.3658   -5.6783   24.9170 C   0  0  0  0  0  0
  -21.6047   -4.3047   24.7225 C   0  0  0  0  0  0
  -21.8820   -3.8137   23.4348 C   0  0  0  0  0  0
  -21.9194   -4.6949   22.3399 C   0  0  0  0  0  0
  -22.7857  -13.5241   21.1827 C   0  0  0  0  0  0
  -22.1666   -4.2135   21.0978 F   0  0  0  0  0  0
  -21.5623   -3.4530   25.7739 F   0  0  0  0  0  0
  -30.0320  -13.3011   20.4408 N   0  0  0  0  0  0
  -26.3025  -12.9330   20.3381 N   0  0  0  0  0  0
  -25.9318  -11.6486   20.5746 N   0  0  0  0  0  0
  -22.0493  -12.8246   22.0385 N   0  0  0  0  0  0
  -25.4316  -15.1878   20.4181 N   0  0  0  0  0  0
  -31.8209  -14.6599   20.1032 O   0  0  0  0  0  0
  -21.6642   -6.8864   21.4234 O   0  0  0  0  0  0
  -22.3547  -14.5556   20.6689 O   0  0  0  0  0  0
  -24.6141  -31.8671   23.2100 C   0  0  0  0  0  0
  -25.9027  -32.4823   23.8403 C   0  0  1  0  0  0
  -27.2354  -27.4249   20.1034 C   0  0  0  0  0  0
  -25.5869  -33.8623   24.2322 N   0  0  0  0  0  0
  -23.4049  -30.4891   21.5508 C   0  0  2  0  0  0
  -24.8563  -28.9553   20.1153 C   0  0  0  0  0  0
  -22.7419  -29.4637   22.4989 C   0  0  0  0  0  0
  -18.0266  -28.1393   22.8503 C   0  0  0  0  0  0
  -24.1478  -36.7327   23.2635 C   0  0  0  0  0  0
  -25.9350  -30.8272   21.3696 C   0  0  0  0  0  0
  -26.0143  -29.4597   20.7222 C   0  0  0  0  0  0
  -27.2084  -28.6994   20.7220 C   0  0  0  0  0  0
  -26.0691  -26.9443   19.4793 C   0  0  0  0  0  0
  -24.8784  -27.6956   19.4917 C   0  0  0  0  0  0
  -23.6169  -29.8221   20.1654 C   0  0  0  0  0  0
  -25.4095  -36.3121   24.0335 C   0  0  1  0  0  0
  -20.5859  -28.3673   23.1321 C   0  0  2  0  0  0
  -20.6750  -26.9407   22.5420 C   0  0  0  0  0  0
  -19.5724  -26.6394   21.5220 C   0  0  0  0  0  0
  -18.1906  -26.7942   22.1632 C   0  0  0  0  0  0
  -19.1519  -28.8851   23.2908 C   0  0  0  0  0  0
  -18.9448  -30.1460   23.8913 C   0  0  0  0  0  0
  -17.6448  -30.6596   24.0574 C   0  0  0  0  0  0
  -25.9031  -34.9483   23.5137 C   0  0  0  0  0  0
  -16.5336  -29.9099   23.6338 C   0  0  0  0  0  0
  -16.7252  -28.6518   23.0353 C   0  0  0  0  0  0
  -26.4460  -31.6608   25.0741 C   0  0  0  0  0  0
  -25.3722  -31.3715   26.1492 C   0  0  0  0  0  0
  -27.0290  -30.3041   24.6134 C   0  0  0  0  0  0
  -27.6042  -32.4331   25.7490 C   0  0  0  0  0  0
  -27.5585  -37.1803   24.8450 C   0  0  0  0  0  0
  -21.4142  -29.3032   22.3730 N   0  0  0  0  0  0
  -26.4275  -37.3811   23.9432 N   0  0  0  0  0  0
  -24.6691  -31.0760   22.1016 N   0  0  0  0  0  0
  -23.4185  -28.8166   23.3024 O   0  0  0  0  0  0
  -28.3486  -26.6098   20.0824 O   0  0  0  0  0  0
  -26.5611  -34.8929   22.4714 O   0  0  0  0  0  0
  -23.5322  -32.1427   23.7480 O   0  0  0  0  0  0
  -31.8194  -18.7658   21.5813 C   0  0  0  0  0  0
  -31.5954  -17.4040   21.2853 C   0  0  0  0  0  0
  -29.4408  -19.1177   21.8962 C   0  0  0  0  0  0
  -30.7552  -19.6398   21.9125 C   0  0  0  0  0  0
  -30.2856  -16.8703   21.3138 C   0  0  0  0  0  0
  -29.2147  -17.7495   21.6035 C   0  0  0  0  0  0
  -29.2470  -23.8245   20.6659 C   0  0  0  0  0  0
  -29.3177  -24.8242   21.5660 C   0  0  0  0  0  0
  -31.0924  -20.9862   22.5218 C   0  0  0  0  0  0
  -29.6746  -22.3692   20.9472 C   0  0  0  0  0  0
  -29.8293  -24.5166   22.9511 C   0  0  0  0  0  0
  -30.8278  -23.3492   22.9779 C   0  0  0  0  0  0
  -28.8890  -26.2906   21.3693 C   0  0  0  0  0  0
  -30.4551  -22.1516   22.1892 N   0  0  0  0  0  0
  -29.9771  -15.4798   21.1364 N   0  0  0  0  0  0
  -31.9956  -20.9717   23.3672 O   0  0  0  0  0  0
  -27.9528  -17.2577   21.6440 F   0  0  0  0  0  0
  -31.4668  -12.4173   19.1156 H   0  0  0  0  0  0
  -30.3276  -11.3050   19.8171 H   0  0  0  0  0  0
  -29.7320  -11.7833   17.4265 H   0  0  0  0  0  0
  -29.6619  -13.4944   17.7644 H   0  0  0  0  0  0
  -27.8231  -11.3137   18.8111 H   0  0  0  0  0  0
  -27.3645  -12.6493   17.7884 H   0  0  0  0  0  0
  -27.7048  -14.2557   19.5788 H   0  0  0  0  0  0
  -28.6852  -11.9496   21.3309 H   0  0  0  0  0  0
  -28.4644  -13.5807   21.8786 H   0  0  0  0  0  0
  -25.2739   -9.5692   22.4750 H   0  0  0  0  0  0
  -23.9987   -7.4640   22.7475 H   0  0  0  0  0  0
  -21.0819   -8.8778   19.8957 H   0  0  0  0  0  0
  -22.3675  -10.9671   19.6157 H   0  0  0  0  0  0
  -21.2018   -7.6132   23.9704 H   0  0  0  0  0  0
  -21.1474   -6.0513   25.9073 H   0  0  0  0  0  0
  -22.0601   -2.7597   23.2857 H   0  0  0  0  0  0
  -22.4101  -11.9916   22.4791 H   0  0  0  0  0  0
  -21.1109  -13.1281   22.2575 H   0  0  0  0  0  0
  -24.6759  -15.8461   20.5711 H   0  0  0  0  0  0
  -26.3059  -15.6414   20.1832 H   0  0  0  0  0  0
  -26.7099  -32.5545   23.1167 H   0  0  0  0  0  0
  -24.9982  -33.9788   25.0436 H   0  0  0  0  0  0
  -22.6935  -31.3053   21.4110 H   0  0  0  0  0  0
  -23.3738  -35.9662   23.3284 H   0  0  0  0  0  0
  -24.3570  -36.8964   22.2053 H   0  0  0  0  0  0
  -23.7218  -37.6519   23.6665 H   0  0  0  0  0  0
  -26.0512  -31.5888   20.5973 H   0  0  0  0  0  0
  -26.8198  -30.8814   21.9917 H   0  0  0  0  0  0
  -28.1010  -29.0877   21.1924 H   0  0  0  0  0  0
  -26.0795  -25.9750   19.0005 H   0  0  0  0  0  0
  -23.9904  -27.3018   19.0168 H   0  0  0  0  0  0
  -23.7246  -30.5978   19.4061 H   0  0  0  0  0  0
  -22.7413  -29.2411   19.8695 H   0  0  0  0  0  0
  -25.1258  -36.1991   25.0820 H   0  0  0  0  0  0
  -20.9944  -28.3237   24.1442 H   0  0  0  0  0  0
  -20.5654  -26.2274   23.3603 H   0  0  0  0  0  0
  -21.6619  -26.7448   22.1208 H   0  0  0  0  0  0
  -19.6873  -25.6309   21.1236 H   0  0  0  0  0  0
  -19.6659  -27.3211   20.6756 H   0  0  0  0  0  0
  -17.4171  -26.6703   21.4035 H   0  0  0  0  0  0
  -18.0295  -26.0074   22.9014 H   0  0  0  0  0  0
  -19.7921  -30.7285   24.2274 H   0  0  0  0  0  0
  -17.5001  -31.6276   24.5176 H   0  0  0  0  0  0
  -15.5336  -30.3006   23.7660 H   0  0  0  0  0  0
  -15.8649  -28.0842   22.7063 H   0  0  0  0  0  0
  -24.5869  -30.7094   25.7828 H   0  0  0  0  0  0
  -24.8933  -32.2865   26.4988 H   0  0  0  0  0  0
  -25.8056  -30.8840   27.0232 H   0  0  0  0  0  0
  -26.2836  -29.6810   24.1168 H   0  0  0  0  0  0
  -27.4020  -29.7283   25.4616 H   0  0  0  0  0  0
  -27.8701  -30.4353   23.9319 H   0  0  0  0  0  0
  -27.2669  -33.3620   26.2104 H   0  0  0  0  0  0
  -28.3820  -32.6909   25.0289 H   0  0  0  0  0  0
  -28.0747  -31.8434   26.5368 H   0  0  0  0  0  0
  -28.2571  -38.0135   24.7570 H   0  0  0  0  0  0
  -28.1109  -36.2673   24.6171 H   0  0  0  0  0  0
  -27.2323  -37.1344   25.8854 H   0  0  0  0  0  0
  -20.9300  -29.8782   21.6977 H   0  0  0  0  0  0
  -26.0164  -38.2883   24.1468 H   0  0  0  0  0  0
  -32.8398  -19.1240   21.6251 H   0  0  0  0  0  0
  -32.4546  -16.7781   21.0961 H   0  0  0  0  0  0
  -28.6051  -19.7369   22.1873 H   0  0  0  0  0  0
  -28.8540  -24.0251   19.6781 H   0  0  0  0  0  0
  -30.2761  -22.0302   20.1020 H   0  0  0  0  0  0
  -28.7766  -21.7509   20.9615 H   0  0  0  0  0  0
  -28.9703  -24.2966   23.5868 H   0  0  0  0  0  0
  -30.3084  -25.4020   23.3723 H   0  0  0  0  0  0
  -30.9859  -23.0976   24.0289 H   0  0  0  0  0  0
  -31.7913  -23.6985   22.6020 H   0  0  0  0  0  0
  -29.7547  -26.9312   21.5398 H   0  0  0  0  0  0
  -28.1723  -26.5176   22.1611 H   0  0  0  0  0  0
  -29.0367  -15.2253   21.3992 H   0  0  0  0  0  0
  1 25  1  0  0  0
  1 30  2  0  0  0
  1 85  1  0  0  0
  2  3  1  0  0  0
  2 25  1  0  0  0
  2 88  1  0  0  0
  2 89  1  0  0  0
  3  4  1  0  0  0
  3 90  1  0  0  0
  3 91  1  0  0  0
  4  5  1  0  0  0
  4 92  1  0  0  0
  4 93  1  0  0  0
  5  6  1  0  0  0
  5 26  1  0  0  0
  5 94  1  0  0  0
  6 25  1  0  0  0
  6 95  1  0  0  0
  6 96  1  0  0  0
  7  8  2  0  0  0
  7 26  1  0  0  0
  7 29  1  0  0  0
  8  9  1  0  0  0
  8 22  1  0  0  0
  9 10  1  0  0  0
  9 27  2  0  0  0
 10 11  2  0  0  0
 10 15  1  0  0  0
 11 12  1  0  0  0
 11 97  1  0  0  0
 12 13  2  0  0  0
 12 98  1  0  0  0
 13 14  1  0  0  0
 13 31  1  0  0  0
 14 15  2  0  0  0
 14 99  1  0  0  0
 15100  1  0  0  0
 16 17  2  0  0  0
 16 21  1  0  0  0
 16 31  1  0  0  0
 17 18  1  0  0  0
 17101  1  0  0  0
 18 19  2  0  0  0
 18102  1  0  0  0
 19 20  1  0  0  0
 19 24  1  0  0  0
 20 21  2  0  0  0
 20103  1  0  0  0
 21 23  1  0  0  0
 22 28  1  0  0  0
 22 32  2  0  0  0
 26 27  1  0  0  0
 28104  1  0  0  0
 28105  1  0  0  0
 29106  1  0  0  0
 29107  1  0  0  0
 33 34  1  0  0  0
 33 66  1  0  0  0
 33 70  2  0  0  0
 34 36  1  0  0  0
 34 59  1  0  0  0
 34108  1  0  0  0
 35 44  2  0  0  0
 35 45  1  0  0  0
 35 68  1  0  0  0
 36 56  1  0  0  0
 36109  1  0  0  0
 37 39  1  0  0  0
 37 47  1  0  0  0
 37 66  1  0  0  0
 37110  1  0  0  0
 38 43  2  0  0  0
 38 46  1  0  0  0
 38 47  1  0  0  0
 39 64  1  0  0  0
 39 67  2  0  0  0
 40 52  1  0  0  0
 40 53  2  0  0  0
 40 58  1  0  0  0
 41111  1  0  0  0
 41112  1  0  0  0
 41113  1  0  0  0
 41 48  1  0  0  0
 42 43  1  0  0  0
 42 66  1  0  0  0
 42114  1  0  0  0
 42115  1  0  0  0
 43 44  1  0  0  0
 44116  1  0  0  0
 45 46  2  0  0  0
 45117  1  0  0  0
 46118  1  0  0  0
 47119  1  0  0  0
 47120  1  0  0  0
 48 56  1  0  0  0
 48 65  1  0  0  0
 48121  1  0  0  0
 49 50  1  0  0  0
 49 53  1  0  0  0
 49 64  1  0  0  0
 49122  1  0  0  0
 50 51  1  0  0  0
 50123  1  0  0  0
 50124  1  0  0  0
 51 52  1  0  0  0
 51125  1  0  0  0
 51126  1  0  0  0
 52127  1  0  0  0
 52128  1  0  0  0
 53 54  1  0  0  0
 54 55  2  0  0  0
 54129  1  0  0  0
 55 57  1  0  0  0
 55130  1  0  0  0
 56 69  2  0  0  0
 57 58  2  0  0  0
 57131  1  0  0  0
 58132  1  0  0  0
 59 60  1  0  0  0
 59 61  1  0  0  0
 59 62  1  0  0  0
 60133  1  0  0  0
 60134  1  0  0  0
 60135  1  0  0  0
 61136  1  0  0  0
 61137  1  0  0  0
 61138  1  0  0  0
 62139  1  0  0  0
 62140  1  0  0  0
 62141  1  0  0  0
 63 65  1  0  0  0
 63142  1  0  0  0
 63143  1  0  0  0
 63144  1  0  0  0
 64145  1  0  0  0
 65146  1  0  0  0
 68 83  1  0  0  0
 71 72  2  0  0  0
 71 74  1  0  0  0
 71147  1  0  0  0
 72 75  1  0  0  0
 72148  1  0  0  0
 73 74  2  0  0  0
 73 76  1  0  0  0
 73149  1  0  0  0
 74 79  1  0  0  0
 75 76  2  0  0  0
 75 85  1  0  0  0
 76 87  1  0  0  0
 77 78  2  0  0  0
 77 80  1  0  0  0
 77150  1  0  0  0
 78 81  1  0  0  0
 78 83  1  0  0  0
 79 84  1  0  0  0
 79 86  2  0  0  0
 80 84  1  0  0  0
 80151  1  0  0  0
 80152  1  0  0  0
 81 82  1  0  0  0
 81153  1  0  0  0
 81154  1  0  0  0
 82 84  1  0  0  0
 82155  1  0  0  0
 82156  1  0  0  0
 83157  1  0  0  0
 83158  1  0  0  0
 85159  1  0  0  0
M  ISO  4   1 100  68 101  83 101  85 100
M  END
> <chiral flag>
0

> <version>
0

> <s_m_source_file>
/data/baiqing/PycharmProjects/Reinvent-master-3.2/result/LINK_invent/BTK/process_docking_weight1_custom_product_contain_oxygen_bond_distance_aromatic_linkinvent_7_9_3/rearranged_h_0112.sdf

> <i_m_source_file_index>
43

> <r_mmod_Potential_Energy-OPLS-2005>
28.535758972168

> <r_mmod_Stretch_Energy-OPLS-2005>
44.8678703308105

> <r_mmod_Bend_Energy-OPLS-2005>
122.752342224121

> <r_mmod_Torsional_Energy-OPLS-2005>
283.764404296875

> <r_mmod_Improper_Torsional_Energy-OPLS-2005>
5.54444026947021

> <r_mmod_Van_der_Waal_Energy-OPLS-2005>
167.320816040039

> <r_mmod_Electrostatic_Energy-OPLS-2005>
-395.297180175781

> <r_mmod_Solvation_Energy-OPLS-2005>
-215.018569946289

> <b_mmod_Minimization_Converged-OPLS-2005>
0

> <r_mmod_RMS_Derivative-OPLS-2005>
1.49995970726013

$$$$
44
                    3D
 Structure written by MMmdl.
162170  0  0  1  0            999 V2000
  -30.6962  -14.5224   20.5730 C   0  0  0  0  0  0
  -30.4213  -12.3384   19.4408 C   0  0  0  0  0  0
  -29.5013  -12.5136   18.2136 C   0  0  0  0  0  0
  -28.0171  -12.3743   18.6120 C   0  0  0  0  0  0
  -27.6550  -13.2123   19.8670 C   0  0  2  0  0  0
  -28.6902  -12.9851   20.9859 C   0  0  0  0  0  0
  -25.2549  -13.8173   20.5661 C   0  0  0  0  0  0
  -24.1815  -13.0439   20.9182 C   0  0  0  0  0  0
  -24.6380  -11.6909   20.8738 C   0  0  0  0  0  0
  -23.9058  -10.4294   21.0415 C   0  0  0  0  0  0
  -24.3621   -9.4205   21.9187 C   0  0  0  0  0  0
  -23.6301   -8.2237   22.0752 C   0  0  0  0  0  0
  -22.4279   -8.0278   21.3549 C   0  0  0  0  0  0
  -21.9909   -9.0251   20.4647 C   0  0  0  0  0  0
  -22.7235  -10.2131   20.3057 C   0  0  0  0  0  0
  -21.6847   -6.0736   22.5289 C   0  0  0  0  0  0
  -21.4013   -6.5639   23.8225 C   0  0  0  0  0  0
  -21.3660   -5.6792   24.9186 C   0  0  0  0  0  0
  -21.6044   -4.3052   24.7228 C   0  0  0  0  0  0
  -21.8823   -3.8146   23.4351 C   0  0  0  0  0  0
  -21.9188   -4.6965   22.3408 C   0  0  0  0  0  0
  -22.7838  -13.5230   21.1860 C   0  0  0  0  0  0
  -22.1652   -4.2156   21.0982 F   0  0  0  0  0  0
  -21.5630   -3.4522   25.7735 F   0  0  0  0  0  0
  -30.0162  -13.3370   20.4517 N   0  0  0  0  0  0
  -26.2973  -12.9345   20.3288 N   0  0  0  0  0  0
  -25.9296  -11.6502   20.5721 N   0  0  0  0  0  0
  -22.0479  -12.8221   22.0422 N   0  0  0  0  0  0
  -25.4254  -15.1892   20.4097 N   0  0  0  0  0  0
  -31.8329  -14.6360   20.0984 O   0  0  0  0  0  0
  -21.6645   -6.8873   21.4247 O   0  0  0  0  0  0
  -22.3516  -14.5533   20.6714 O   0  0  0  0  0  0
  -24.6154  -31.8671   23.2077 C   0  0  0  0  0  0
  -25.9046  -32.4820   23.8375 C   0  0  1  0  0  0
  -27.2281  -27.4130   20.1104 C   0  0  0  0  0  0
  -25.5895  -33.8616   24.2310 N   0  0  0  0  0  0
  -23.4042  -30.4889   21.5497 C   0  0  2  0  0  0
  -24.8505  -28.9477   20.1183 C   0  0  0  0  0  0
  -22.7410  -29.4654   22.4993 C   0  0  0  0  0  0
  -18.0274  -28.1371   22.8499 C   0  0  0  0  0  0
  -24.1491  -36.7309   23.2638 C   0  0  0  0  0  0
  -25.9340  -30.8272   21.3621 C   0  0  0  0  0  0
  -26.0121  -29.4582   20.7125 C   0  0  0  0  0  0
  -27.2078  -28.7005   20.6999 C   0  0  0  0  0  0
  -26.0523  -26.9161   19.5150 C   0  0  0  0  0  0
  -24.8662  -27.6767   19.5155 C   0  0  0  0  0  0
  -23.6134  -29.8182   20.1654 C   0  0  0  0  0  0
  -25.4112  -36.3110   24.0337 C   0  0  1  0  0  0
  -20.5865  -28.3661   23.1320 C   0  0  2  0  0  0
  -20.6767  -26.9399   22.5420 C   0  0  0  0  0  0
  -19.5746  -26.6381   21.5216 C   0  0  0  0  0  0
  -18.1922  -26.7919   22.1625 C   0  0  0  0  0  0
  -19.1525  -28.8831   23.2906 C   0  0  0  0  0  0
  -18.9452  -30.1437   23.8917 C   0  0  0  0  0  0
  -17.6456  -30.6583   24.0564 C   0  0  0  0  0  0
  -25.9041  -34.9479   23.5123 C   0  0  0  0  0  0
  -16.5346  -29.9085   23.6327 C   0  0  0  0  0  0
  -16.7263  -28.6496   23.0356 C   0  0  0  0  0  0
  -26.4468  -31.6599   25.0707 C   0  0  0  0  0  0
  -25.3721  -31.3704   26.1444 C   0  0  0  0  0  0
  -27.0301  -30.3045   24.6083 C   0  0  0  0  0  0
  -27.6048  -32.4313   25.7467 C   0  0  0  0  0  0
  -27.5586  -37.1806   24.8464 C   0  0  0  0  0  0
  -21.4141  -29.3028   22.3726 N   0  0  0  0  0  0
  -26.4299  -37.3794   23.9409 N   0  0  0  0  0  0
  -24.6697  -31.0753   22.0986 N   0  0  0  0  0  0
  -23.4176  -28.8208   23.3052 O   0  0  0  0  0  0
  -28.3820  -26.6584   20.0723 O   0  0  0  0  0  0
  -26.5610  -34.8934   22.4691 O   0  0  0  0  0  0
  -23.5342  -32.1438   23.7460 O   0  0  0  0  0  0
  -29.4431  -19.2542   20.4876 C   0  0  0  0  0  0
  -30.6307  -20.7622   21.9605 C   0  0  0  0  0  0
  -30.2525  -18.1525   20.9049 C   0  0  0  0  0  0
  -31.3246  -18.4036   21.8137 C   0  0  0  0  0  0
  -31.4728  -19.7061   22.3584 C   0  0  0  0  0  0
  -29.6291  -20.5755   20.9796 C   0  0  0  0  0  0
  -32.6132  -16.9126   23.3765 C   0  0  0  0  0  0
  -32.3188  -17.3514   22.1404 C   0  0  0  0  0  0
  -30.0490  -16.7825   20.2569 C   0  0  0  0  0  0
  -29.5186  -15.6854   22.3982 C   0  0  0  0  0  0
  -28.3643  -24.1067   20.1860 C   0  0  0  0  0  0
  -28.4146  -25.4868   20.9156 C   0  0  0  0  0  0
  -29.0441  -22.9585   20.9953 C   0  0  0  0  0  0
  -32.4935  -19.9913   23.2669 N   0  0  0  0  0  0
  -30.0168  -15.6329   21.0088 N   0  0  0  0  0  0
  -29.9261  -16.7603   19.0252 O   0  0  0  0  0  0
  -28.8530  -21.6214   20.4710 O   0  0  0  0  0  0
  -31.4672  -12.4297   19.1424 H   0  0  0  0  0  0
  -30.3263  -11.3303   19.8474 H   0  0  0  0  0  0
  -29.7515  -11.7801   17.4459 H   0  0  0  0  0  0
  -29.6709  -13.4943   17.7663 H   0  0  0  0  0  0
  -27.8249  -11.3187   18.8059 H   0  0  0  0  0  0
  -27.3756  -12.6493   17.7737 H   0  0  0  0  0  0
  -27.6992  -14.2626   19.5768 H   0  0  0  0  0  0
  -28.6846  -11.9365   21.2883 H   0  0  0  0  0  0
  -28.4070  -13.5207   21.8848 H   0  0  0  0  0  0
  -25.2767   -9.5678   22.4763 H   0  0  0  0  0  0
  -24.0019   -7.4618   22.7459 H   0  0  0  0  0  0
  -21.0846   -8.8763   19.8945 H   0  0  0  0  0  0
  -22.3701  -10.9672   19.6165 H   0  0  0  0  0  0
  -21.2007   -7.6151   23.9726 H   0  0  0  0  0  0
  -21.1481   -6.0526   25.9093 H   0  0  0  0  0  0
  -22.0605   -2.7609   23.2856 H   0  0  0  0  0  0
  -22.4096  -11.9889   22.4824 H   0  0  0  0  0  0
  -21.1093  -13.1235   22.2621 H   0  0  0  0  0  0
  -24.6560  -15.8418   20.5156 H   0  0  0  0  0  0
  -26.2773  -15.6282   20.0855 H   0  0  0  0  0  0
  -26.7116  -32.5531   23.1134 H   0  0  0  0  0  0
  -25.0033  -33.9776   25.0446 H   0  0  0  0  0  0
  -22.6936  -31.3064   21.4089 H   0  0  0  0  0  0
  -23.3757  -35.9637   23.3312 H   0  0  0  0  0  0
  -24.3582  -36.8914   22.2050 H   0  0  0  0  0  0
  -23.7242  -37.6515   23.6648 H   0  0  0  0  0  0
  -26.0469  -31.5923   20.5928 H   0  0  0  0  0  0
  -26.8211  -30.8818   21.9818 H   0  0  0  0  0  0
  -28.1085  -29.0953   21.1493 H   0  0  0  0  0  0
  -26.0572  -25.9425   19.0460 H   0  0  0  0  0  0
  -23.9734  -27.2784   19.0539 H   0  0  0  0  0  0
  -23.7220  -30.5924   19.4046 H   0  0  0  0  0  0
  -22.7362  -29.2387   19.8715 H   0  0  0  0  0  0
  -25.1291  -36.1976   25.0830 H   0  0  0  0  0  0
  -20.9952  -28.3228   24.1443 H   0  0  0  0  0  0
  -20.5678  -26.2266   23.3606 H   0  0  0  0  0  0
  -21.6638  -26.7450   22.1210 H   0  0  0  0  0  0
  -19.6912  -25.6295   21.1238 H   0  0  0  0  0  0
  -19.6689  -27.3202   20.6755 H   0  0  0  0  0  0
  -17.4197  -26.6674   21.4024 H   0  0  0  0  0  0
  -18.0324  -26.0051   22.9011 H   0  0  0  0  0  0
  -19.7927  -30.7245   24.2298 H   0  0  0  0  0  0
  -17.5014  -31.6271   24.5150 H   0  0  0  0  0  0
  -15.5349  -30.2995   23.7636 H   0  0  0  0  0  0
  -15.8662  -28.0818   22.7068 H   0  0  0  0  0  0
  -24.5893  -30.7062   25.7761 H   0  0  0  0  0  0
  -24.8907  -32.2859   26.4893 H   0  0  0  0  0  0
  -25.8053  -30.8857   27.0199 H   0  0  0  0  0  0
  -26.2847  -29.6804   24.1137 H   0  0  0  0  0  0
  -27.4081  -29.7281   25.4535 H   0  0  0  0  0  0
  -27.8676  -30.4371   23.9229 H   0  0  0  0  0  0
  -27.2680  -33.3605   26.2072 H   0  0  0  0  0  0
  -28.3841  -32.6880   25.0282 H   0  0  0  0  0  0
  -28.0735  -31.8415   26.5354 H   0  0  0  0  0  0
  -28.2605  -38.0103   24.7525 H   0  0  0  0  0  0
  -28.1083  -36.2637   24.6280 H   0  0  0  0  0  0
  -27.2302  -37.1449   25.8866 H   0  0  0  0  0  0
  -20.9299  -29.8737   21.6940 H   0  0  0  0  0  0
  -26.0192  -38.2874   24.1407 H   0  0  0  0  0  0
  -28.6742  -19.0844   19.7470 H   0  0  0  0  0  0
  -30.8008  -21.7305   22.4050 H   0  0  0  0  0  0
  -33.3607  -16.1491   23.5379 H   0  0  0  0  0  0
  -32.1086  -17.3087   24.2466 H   0  0  0  0  0  0
  -32.8567  -16.9269   21.3033 H   0  0  0  0  0  0
  -28.4281  -15.6740   22.4010 H   0  0  0  0  0  0
  -29.8745  -14.8431   22.9951 H   0  0  0  0  0  0
  -29.8054  -16.5776   22.9492 H   0  0  0  0  0  0
  -28.8656  -24.1916   19.2218 H   0  0  0  0  0  0
  -27.3276  -23.8496   19.9699 H   0  0  0  0  0  0
  -27.6351  -25.5271   21.6789 H   0  0  0  0  0  0
  -29.3541  -25.5539   21.4648 H   0  0  0  0  0  0
  -28.6826  -22.9756   22.0252 H   0  0  0  0  0  0
  -30.1077  -23.1967   21.0202 H   0  0  0  0  0  0
  -32.8417  -20.9414   23.3325 H   0  0  0  0  0  0
  -33.2234  -19.2917   23.3597 H   0  0  0  0  0  0
  1 25  1  0  0  0
  1 30  2  0  0  0
  1 85  1  0  0  0
  2  3  1  0  0  0
  2 25  1  0  0  0
  2 88  1  0  0  0
  2 89  1  0  0  0
  3  4  1  0  0  0
  3 90  1  0  0  0
  3 91  1  0  0  0
  4  5  1  0  0  0
  4 92  1  0  0  0
  4 93  1  0  0  0
  5  6  1  0  0  0
  5 26  1  0  0  0
  5 94  1  0  0  0
  6 25  1  0  0  0
  6 95  1  0  0  0
  6 96  1  0  0  0
  7  8  2  0  0  0
  7 26  1  0  0  0
  7 29  1  0  0  0
  8  9  1  0  0  0
  8 22  1  0  0  0
  9 10  1  0  0  0
  9 27  2  0  0  0
 10 11  2  0  0  0
 10 15  1  0  0  0
 11 12  1  0  0  0
 11 97  1  0  0  0
 12 13  2  0  0  0
 12 98  1  0  0  0
 13 14  1  0  0  0
 13 31  1  0  0  0
 14 15  2  0  0  0
 14 99  1  0  0  0
 15100  1  0  0  0
 16 17  2  0  0  0
 16 21  1  0  0  0
 16 31  1  0  0  0
 17 18  1  0  0  0
 17101  1  0  0  0
 18 19  2  0  0  0
 18102  1  0  0  0
 19 20  1  0  0  0
 19 24  1  0  0  0
 20 21  2  0  0  0
 20103  1  0  0  0
 21 23  1  0  0  0
 22 28  1  0  0  0
 22 32  2  0  0  0
 26 27  1  0  0  0
 28104  1  0  0  0
 28105  1  0  0  0
 29106  1  0  0  0
 29107  1  0  0  0
 33 34  1  0  0  0
 33 66  1  0  0  0
 33 70  2  0  0  0
 34 36  1  0  0  0
 34 59  1  0  0  0
 34108  1  0  0  0
 35 44  2  0  0  0
 35 45  1  0  0  0
 35 68  1  0  0  0
 36 56  1  0  0  0
 36109  1  0  0  0
 37 39  1  0  0  0
 37 47  1  0  0  0
 37 66  1  0  0  0
 37110  1  0  0  0
 38 43  2  0  0  0
 38 46  1  0  0  0
 38 47  1  0  0  0
 39 64  1  0  0  0
 39 67  2  0  0  0
 40 52  1  0  0  0
 40 53  2  0  0  0
 40 58  1  0  0  0
 41111  1  0  0  0
 41112  1  0  0  0
 41113  1  0  0  0
 41 48  1  0  0  0
 42 43  1  0  0  0
 42 66  1  0  0  0
 42114  1  0  0  0
 42115  1  0  0  0
 43 44  1  0  0  0
 44116  1  0  0  0
 45 46  2  0  0  0
 45117  1  0  0  0
 46118  1  0  0  0
 47119  1  0  0  0
 47120  1  0  0  0
 48 56  1  0  0  0
 48 65  1  0  0  0
 48121  1  0  0  0
 49 50  1  0  0  0
 49 53  1  0  0  0
 49 64  1  0  0  0
 49122  1  0  0  0
 50 51  1  0  0  0
 50123  1  0  0  0
 50124  1  0  0  0
 51 52  1  0  0  0
 51125  1  0  0  0
 51126  1  0  0  0
 52127  1  0  0  0
 52128  1  0  0  0
 53 54  1  0  0  0
 54 55  2  0  0  0
 54129  1  0  0  0
 55 57  1  0  0  0
 55130  1  0  0  0
 56 69  2  0  0  0
 57 58  2  0  0  0
 57131  1  0  0  0
 58132  1  0  0  0
 59 60  1  0  0  0
 59 61  1  0  0  0
 59 62  1  0  0  0
 60133  1  0  0  0
 60134  1  0  0  0
 60135  1  0  0  0
 61136  1  0  0  0
 61137  1  0  0  0
 61138  1  0  0  0
 62139  1  0  0  0
 62140  1  0  0  0
 62141  1  0  0  0
 63 65  1  0  0  0
 63142  1  0  0  0
 63143  1  0  0  0
 63144  1  0  0  0
 64145  1  0  0  0
 65146  1  0  0  0
 68 82  1  0  0  0
 71 73  2  0  0  0
 71 76  1  0  0  0
 71147  1  0  0  0
 72 75  1  0  0  0
 72 76  2  0  0  0
 72148  1  0  0  0
 73 74  1  0  0  0
 73 79  1  0  0  0
 74 75  2  0  0  0
 74 78  1  0  0  0
 75 84  1  0  0  0
 76 87  1  0  0  0
 77 78  2  0  0  0
 77149  1  0  0  0
 77150  1  0  0  0
 78151  1  0  0  0
 79 85  1  0  0  0
 79 86  2  0  0  0
 80 85  1  0  0  0
 80152  1  0  0  0
 80153  1  0  0  0
 80154  1  0  0  0
 81 82  1  0  0  0
 81 83  1  0  0  0
 81155  1  0  0  0
 81156  1  0  0  0
 82157  1  0  0  0
 82158  1  0  0  0
 83 87  1  0  0  0
 83159  1  0  0  0
 83160  1  0  0  0
 84161  1  0  0  0
 84162  1  0  0  0
M  ISO  4   1 100  68 101  82 101  85 100
M  END
> <chiral flag>
0

> <version>
0

> <s_m_source_file>
/data/baiqing/PycharmProjects/Reinvent-master-3.2/result/LINK_invent/BTK/process_docking_weight1_custom_product_contain_oxygen_bond_distance_aromatic_linkinvent_7_9_3/rearranged_h_0112.sdf

> <i_m_source_file_index>
44

> <r_mmod_Potential_Energy-OPLS-2005>
170.458526611328

> <r_mmod_Stretch_Energy-OPLS-2005>
56.219596862793

> <r_mmod_Bend_Energy-OPLS-2005>
120.923004150391

> <r_mmod_Torsional_Energy-OPLS-2005>
378.563049316406

> <r_mmod_Improper_Torsional_Energy-OPLS-2005>
9.84931659698486

> <r_mmod_Van_der_Waal_Energy-OPLS-2005>
174.109878540039

> <r_mmod_Electrostatic_Energy-OPLS-2005>
-383.247253417969

> <r_mmod_Solvation_Energy-OPLS-2005>
-202.604293823242

> <b_mmod_Minimization_Converged-OPLS-2005>
0

> <r_mmod_RMS_Derivative-OPLS-2005>
1.16037082672119

$$$$
45
                    3D
 Structure written by MMmdl.
166175  0  0  1  0            999 V2000
  -30.5077  -14.9174   20.4413 C   0  0  0  0  0  0
  -30.4541  -12.5667   19.4919 C   0  0  0  0  0  0
  -29.5307  -12.5408   18.2503 C   0  0  0  0  0  0
  -28.0579  -12.3356   18.6581 C   0  0  0  0  0  0
  -27.6385  -13.2437   19.8444 C   0  0  2  0  0  0
  -28.6800  -13.2164   20.9837 C   0  0  0  0  0  0
  -25.2491  -13.8203   20.5670 C   0  0  0  0  0  0
  -24.1803  -13.0434   20.9194 C   0  0  0  0  0  0
  -24.6409  -11.6920   20.8720 C   0  0  0  0  0  0
  -23.9075  -10.4292   21.0380 C   0  0  0  0  0  0
  -24.3614   -9.4213   21.9171 C   0  0  0  0  0  0
  -23.6289   -8.2250   22.0753 C   0  0  0  0  0  0
  -22.4273   -8.0282   21.3542 C   0  0  0  0  0  0
  -21.9902   -9.0253   20.4644 C   0  0  0  0  0  0
  -22.7231  -10.2130   20.3045 C   0  0  0  0  0  0
  -21.6861   -6.0723   22.5275 C   0  0  0  0  0  0
  -21.4016   -6.5624   23.8206 C   0  0  0  0  0  0
  -21.3665   -5.6782   24.9171 C   0  0  0  0  0  0
  -21.6057   -4.3047   24.7217 C   0  0  0  0  0  0
  -21.8823   -3.8131   23.4340 C   0  0  0  0  0  0
  -21.9189   -4.6949   22.3398 C   0  0  0  0  0  0
  -22.7820  -13.5218   21.1851 C   0  0  0  0  0  0
  -22.1659   -4.2132   21.0976 F   0  0  0  0  0  0
  -21.5628   -3.4533   25.7729 F   0  0  0  0  0  0
  -29.9648  -13.6366   20.4037 N   0  0  0  0  0  0
  -26.2931  -12.9433   20.3232 N   0  0  0  0  0  0
  -25.9345  -11.6563   20.5708 N   0  0  0  0  0  0
  -22.0450  -12.8233   22.0416 N   0  0  0  0  0  0
  -25.4142  -15.1933   20.4088 N   0  0  0  0  0  0
  -31.6952  -15.0524   20.1221 O   0  0  0  0  0  0
  -21.6649   -6.8872   21.4239 O   0  0  0  0  0  0
  -22.3501  -14.5502   20.6667 O   0  0  0  0  0  0
  -24.6407  -31.8469   23.1888 C   0  0  0  0  0  0
  -25.9184  -32.4720   23.8278 C   0  0  1  0  0  0
  -27.2216  -27.1584   20.1493 C   0  0  0  0  0  0
  -25.5938  -33.8521   24.2197 N   0  0  0  0  0  0
  -23.4430  -30.4659   21.5359 C   0  0  2  0  0  0
  -24.8923  -28.8922   20.1161 C   0  0  0  0  0  0
  -22.7551  -29.4570   22.4883 C   0  0  0  0  0  0
  -18.0294  -28.1390   22.8479 C   0  0  0  0  0  0
  -24.1487  -36.7270   23.2640 C   0  0  0  0  0  0
  -25.9973  -30.7302   21.3793 C   0  0  0  0  0  0
  -26.0705  -29.3406   20.7267 C   0  0  0  0  0  0
  -27.2377  -28.4906   20.7230 C   0  0  0  0  0  0
  -26.0161  -26.8076   19.5015 C   0  0  0  0  0  0
  -24.8760  -27.6380   19.4892 C   0  0  0  0  0  0
  -23.6673  -29.7914   20.1568 C   0  0  0  0  0  0
  -25.4117  -36.3055   24.0317 C   0  0  1  0  0  0
  -20.5909  -28.3716   23.1243 C   0  0  2  0  0  0
  -20.6780  -26.9420   22.5407 C   0  0  0  0  0  0
  -19.5755  -26.6375   21.5213 C   0  0  0  0  0  0
  -18.1935  -26.7927   22.1624 C   0  0  0  0  0  0
  -19.1552  -28.8869   23.2856 C   0  0  0  0  0  0
  -18.9471  -30.1464   23.8884 C   0  0  0  0  0  0
  -17.6471  -30.6596   24.0553 C   0  0  0  0  0  0
  -25.9071  -34.9423   23.5072 C   0  0  0  0  0  0
  -16.5360  -29.9094   23.6325 C   0  0  0  0  0  0
  -16.7281  -28.6505   23.0358 C   0  0  0  0  0  0
  -26.4503  -31.6571   25.0708 C   0  0  0  0  0  0
  -25.3681  -31.3752   26.1396 C   0  0  0  0  0  0
  -27.0336  -30.2970   24.6243 C   0  0  0  0  0  0
  -27.6044  -32.4315   25.7501 C   0  0  0  0  0  0
  -27.5572  -37.1792   24.8459 C   0  0  0  0  0  0
  -21.4247  -29.3050   22.3624 N   0  0  0  0  0  0
  -26.4286  -37.3764   23.9409 N   0  0  0  0  0  0
  -24.7143  -31.0348   22.0908 N   0  0  0  0  0  0
  -23.4203  -28.8105   23.3018 O   0  0  0  0  0  0
  -28.2939  -26.2006   20.1832 O   0  0  0  0  0  0
  -26.5666  -34.8918   22.4659 O   0  0  0  0  0  0
  -23.5532  -32.1332   23.7128 O   0  0  0  0  0  0
  -28.4628  -19.6341   21.5918 C   0  0  0  0  0  0
  -30.0490  -19.9141   19.8772 C   0  0  0  0  0  0
  -28.6596  -18.1997   21.5864 C   0  0  0  0  0  0
  -29.1559  -20.5928   20.7831 C   0  0  0  0  0  0
  -29.5871  -17.5281   20.7126 C   0  0  0  0  0  0
  -30.2515  -18.4537   19.8255 C   0  0  0  0  0  0
  -29.4527  -22.4777   22.3025 C   0  0  0  0  0  0
  -26.6437  -17.7212   23.0209 C   0  0  0  0  0  0
  -27.8386  -17.3805   22.5061 C   0  0  0  0  0  0
  -30.2723  -23.7599   22.2876 C   0  0  0  0  0  0
  -30.4455  -24.0138   20.7969 C   0  0  0  0  0  0
  -29.1536  -23.4305   20.2265 C   0  0  2  0  0  0
  -31.9464  -17.6111   16.6841 C   0  0  0  0  0  0
  -28.0340  -24.6807   20.3746 C   0  0  0  0  0  0
  -31.3876  -18.5913   17.7168 C   0  0  0  0  0  0
  -29.0280  -22.1063   21.0700 N   0  0  0  0  0  0
  -29.6327  -15.9950   20.7057 N   0  0  0  0  0  0
  -29.2445  -21.8805   23.3629 O   0  0  0  0  0  0
  -31.0824  -17.8634   18.8992 O   0  0  0  0  0  0
  -31.4868  -12.7392   19.1836 H   0  0  0  0  0  0
  -30.4508  -11.5998   19.9988 H   0  0  0  0  0  0
  -29.8448  -11.7543   17.5627 H   0  0  0  0  0  0
  -29.6318  -13.4807   17.7051 H   0  0  0  0  0  0
  -27.9349  -11.2879   18.9350 H   0  0  0  0  0  0
  -27.4040  -12.5036   17.8019 H   0  0  0  0  0  0
  -27.6157  -14.2593   19.4471 H   0  0  0  0  0  0
  -28.7557  -12.2188   21.4188 H   0  0  0  0  0  0
  -28.3808  -13.8816   21.7954 H   0  0  0  0  0  0
  -25.2752   -9.5703   22.4749 H   0  0  0  0  0  0
  -23.9993   -7.4658   22.7499 H   0  0  0  0  0  0
  -21.0815   -8.8769   19.8971 H   0  0  0  0  0  0
  -22.3675  -10.9660   19.6153 H   0  0  0  0  0  0
  -21.2017   -7.6134   23.9696 H   0  0  0  0  0  0
  -21.1487   -6.0517   25.9074 H   0  0  0  0  0  0
  -22.0597   -2.7591   23.2839 H   0  0  0  0  0  0
  -22.4027  -11.9909   22.4865 H   0  0  0  0  0  0
  -21.1069  -13.1288   22.2584 H   0  0  0  0  0  0
  -24.6449  -15.8400   20.5405 H   0  0  0  0  0  0
  -26.2609  -15.6467   20.0919 H   0  0  0  0  0  0
  -26.7249  -32.5346   23.1009 H   0  0  0  0  0  0
  -25.0005  -33.9630   25.0292 H   0  0  0  0  0  0
  -22.7447  -31.2912   21.3804 H   0  0  0  0  0  0
  -23.3762  -35.9591   23.3287 H   0  0  0  0  0  0
  -24.3566  -36.8916   22.2056 H   0  0  0  0  0  0
  -23.7219  -37.6454   23.6684 H   0  0  0  0  0  0
  -26.1379  -31.4813   20.6003 H   0  0  0  0  0  0
  -26.8745  -30.7910   22.0129 H   0  0  0  0  0  0
  -28.1401  -28.8358   21.2069 H   0  0  0  0  0  0
  -25.9255  -25.8597   18.9954 H   0  0  0  0  0  0
  -23.9767  -27.2907   18.9998 H   0  0  0  0  0  0
  -23.7989  -30.5627   19.3968 H   0  0  0  0  0  0
  -22.7831  -29.2282   19.8522 H   0  0  0  0  0  0
  -25.1302  -36.1887   25.0809 H   0  0  0  0  0  0
  -20.9994  -28.3300   24.1367 H   0  0  0  0  0  0
  -20.5657  -26.2333   23.3624 H   0  0  0  0  0  0
  -21.6647  -26.7417   22.1212 H   0  0  0  0  0  0
  -19.6913  -25.6277   21.1263 H   0  0  0  0  0  0
  -19.6695  -27.3165   20.6724 H   0  0  0  0  0  0
  -17.4201  -26.6658   21.4036 H   0  0  0  0  0  0
  -18.0350  -26.0080   22.9033 H   0  0  0  0  0  0
  -19.7951  -30.7274   24.2260 H   0  0  0  0  0  0
  -17.5030  -31.6276   24.5152 H   0  0  0  0  0  0
  -15.5363  -30.2996   23.7654 H   0  0  0  0  0  0
  -15.8676  -28.0815   22.7095 H   0  0  0  0  0  0
  -24.5874  -30.7091   25.7703 H   0  0  0  0  0  0
  -24.8849  -32.2927   26.4764 H   0  0  0  0  0  0
  -25.7952  -30.8955   27.0210 H   0  0  0  0  0  0
  -26.2923  -29.6730   24.1236 H   0  0  0  0  0  0
  -27.3938  -29.7234   25.4792 H   0  0  0  0  0  0
  -27.8843  -30.4214   23.9541 H   0  0  0  0  0  0
  -27.2651  -33.3632   26.2038 H   0  0  0  0  0  0
  -28.3886  -32.6836   25.0352 H   0  0  0  0  0  0
  -28.0673  -31.8453   26.5449 H   0  0  0  0  0  0
  -28.2584  -38.0098   24.7520 H   0  0  0  0  0  0
  -28.1077  -36.2624   24.6274 H   0  0  0  0  0  0
  -27.2291  -37.1424   25.8865 H   0  0  0  0  0  0
  -20.9452  -29.8773   21.6814 H   0  0  0  0  0  0
  -26.0156  -38.2835   24.1431 H   0  0  0  0  0  0
  -27.7706  -20.0403   22.3149 H   0  0  0  0  0  0
  -30.6317  -20.5501   19.2268 H   0  0  0  0  0  0
  -26.1270  -17.0601   23.7039 H   0  0  0  0  0  0
  -26.1495  -18.6498   22.7769 H   0  0  0  0  0  0
  -28.2544  -16.4322   22.8153 H   0  0  0  0  0  0
  -31.2255  -23.6362   22.8008 H   0  0  0  0  0  0
  -29.7148  -24.5613   22.7739 H   0  0  0  0  0  0
  -31.3129  -23.4702   20.4166 H   0  0  0  0  0  0
  -30.5907  -25.0677   20.5624 H   0  0  0  0  0  0
  -29.2963  -23.1899   19.1730 H   0  0  0  0  0  0
  -32.8759  -17.1594   17.0326 H   0  0  0  0  0  0
  -32.1480  -18.1153   15.7386 H   0  0  0  0  0  0
  -31.2387  -16.8054   16.4876 H   0  0  0  0  0  0
  -27.6195  -24.6148   21.3813 H   0  0  0  0  0  0
  -27.2090  -24.3838   19.7319 H   0  0  0  0  0  0
  -30.4931  -19.0663   17.3101 H   0  0  0  0  0  0
  -32.1216  -19.3693   17.9282 H   0  0  0  0  0  0
  -28.7502  -15.6146   21.0089 H   0  0  0  0  0  0
  1 25  1  0  0  0
  1 30  2  0  0  0
  1 87  1  0  0  0
  2  3  1  0  0  0
  2 25  1  0  0  0
  2 90  1  0  0  0
  2 91  1  0  0  0
  3  4  1  0  0  0
  3 92  1  0  0  0
  3 93  1  0  0  0
  4  5  1  0  0  0
  4 94  1  0  0  0
  4 95  1  0  0  0
  5  6  1  0  0  0
  5 26  1  0  0  0
  5 96  1  0  0  0
  6 25  1  0  0  0
  6 97  1  0  0  0
  6 98  1  0  0  0
  7  8  2  0  0  0
  7 26  1  0  0  0
  7 29  1  0  0  0
  8  9  1  0  0  0
  8 22  1  0  0  0
  9 10  1  0  0  0
  9 27  2  0  0  0
 10 11  2  0  0  0
 10 15  1  0  0  0
 11 12  1  0  0  0
 11 99  1  0  0  0
 12 13  2  0  0  0
 12100  1  0  0  0
 13 14  1  0  0  0
 13 31  1  0  0  0
 14 15  2  0  0  0
 14101  1  0  0  0
 15102  1  0  0  0
 16 17  2  0  0  0
 16 21  1  0  0  0
 16 31  1  0  0  0
 17 18  1  0  0  0
 17103  1  0  0  0
 18 19  2  0  0  0
 18104  1  0  0  0
 19 20  1  0  0  0
 19 24  1  0  0  0
 20 21  2  0  0  0
 20105  1  0  0  0
 21 23  1  0  0  0
 22 28  1  0  0  0
 22 32  2  0  0  0
 26 27  1  0  0  0
 28106  1  0  0  0
 28107  1  0  0  0
 29108  1  0  0  0
 29109  1  0  0  0
 33 34  1  0  0  0
 33 66  1  0  0  0
 33 70  2  0  0  0
 34 36  1  0  0  0
 34 59  1  0  0  0
 34110  1  0  0  0
 35 44  2  0  0  0
 35 45  1  0  0  0
 35 68  1  0  0  0
 36 56  1  0  0  0
 36111  1  0  0  0
 37 39  1  0  0  0
 37 47  1  0  0  0
 37 66  1  0  0  0
 37112  1  0  0  0
 38 43  2  0  0  0
 38 46  1  0  0  0
 38 47  1  0  0  0
 39 64  1  0  0  0
 39 67  2  0  0  0
 40 52  1  0  0  0
 40 53  2  0  0  0
 40 58  1  0  0  0
 41113  1  0  0  0
 41114  1  0  0  0
 41115  1  0  0  0
 41 48  1  0  0  0
 42 43  1  0  0  0
 42 66  1  0  0  0
 42116  1  0  0  0
 42117  1  0  0  0
 43 44  1  0  0  0
 44118  1  0  0  0
 45 46  2  0  0  0
 45119  1  0  0  0
 46120  1  0  0  0
 47121  1  0  0  0
 47122  1  0  0  0
 48 56  1  0  0  0
 48 65  1  0  0  0
 48123  1  0  0  0
 49 50  1  0  0  0
 49 53  1  0  0  0
 49 64  1  0  0  0
 49124  1  0  0  0
 50 51  1  0  0  0
 50125  1  0  0  0
 50126  1  0  0  0
 51 52  1  0  0  0
 51127  1  0  0  0
 51128  1  0  0  0
 52129  1  0  0  0
 52130  1  0  0  0
 53 54  1  0  0  0
 54 55  2  0  0  0
 54131  1  0  0  0
 55 57  1  0  0  0
 55132  1  0  0  0
 56 69  2  0  0  0
 57 58  2  0  0  0
 57133  1  0  0  0
 58134  1  0  0  0
 59 60  1  0  0  0
 59 61  1  0  0  0
 59 62  1  0  0  0
 60135  1  0  0  0
 60136  1  0  0  0
 60137  1  0  0  0
 61138  1  0  0  0
 61139  1  0  0  0
 61140  1  0  0  0
 62141  1  0  0  0
 62142  1  0  0  0
 62143  1  0  0  0
 63 65  1  0  0  0
 63144  1  0  0  0
 63145  1  0  0  0
 63146  1  0  0  0
 64147  1  0  0  0
 65148  1  0  0  0
 68 84  1  0  0  0
 71 73  2  0  0  0
 71 74  1  0  0  0
 71149  1  0  0  0
 72 74  2  0  0  0
 72 76  1  0  0  0
 72150  1  0  0  0
 73 75  1  0  0  0
 73 79  1  0  0  0
 74 86  1  0  0  0
 75 76  2  0  0  0
 75 87  1  0  0  0
 76 89  1  0  0  0
 77 80  1  0  0  0
 77 86  1  0  0  0
 77 88  2  0  0  0
 78 79  2  0  0  0
 78151  1  0  0  0
 78152  1  0  0  0
 79153  1  0  0  0
 80 81  1  0  0  0
 80154  1  0  0  0
 80155  1  0  0  0
 81 82  1  0  0  0
 81156  1  0  0  0
 81157  1  0  0  0
 82 84  1  0  0  0
 82 86  1  0  0  0
 82158  1  0  0  0
 83 85  1  0  0  0
 83159  1  0  0  0
 83160  1  0  0  0
 83161  1  0  0  0
 84162  1  0  0  0
 84163  1  0  0  0
 85 89  1  0  0  0
 85164  1  0  0  0
 85165  1  0  0  0
 87166  1  0  0  0
M  ISO  4   1 100  68 101  84 101  87 100
M  END
> <chiral flag>
0

> <version>
0

> <s_m_source_file>
/data/baiqing/PycharmProjects/Reinvent-master-3.2/result/LINK_invent/BTK/process_docking_weight1_custom_product_contain_oxygen_bond_distance_aromatic_linkinvent_7_9_3/rearranged_h_0112.sdf

> <i_m_source_file_index>
45

> <r_mmod_Potential_Energy-OPLS-2005>
550.676818847656

> <r_mmod_Stretch_Energy-OPLS-2005>
234.206314086914

> <r_mmod_Bend_Energy-OPLS-2005>
311.278259277344

> <r_mmod_Torsional_Energy-OPLS-2005>
326.280303955078

> <r_mmod_Improper_Torsional_Energy-OPLS-2005>
6.16617107391357

> <r_mmod_Van_der_Waal_Energy-OPLS-2005>
136.743118286133

> <r_mmod_Electrostatic_Energy-OPLS-2005>
-402.434967041016

> <r_mmod_Solvation_Energy-OPLS-2005>
-230.986099243164

> <b_mmod_Minimization_Converged-OPLS-2005>
0

> <r_mmod_RMS_Derivative-OPLS-2005>
1.81808960437775

$$$$
46
                    3D
 Structure written by MMmdl.
158166  0  0  1  0            999 V2000
  -30.7789  -14.7754   20.5198 C   0  0  0  0  0  0
  -30.4101  -12.4750   19.5600 C   0  0  0  0  0  0
  -29.5205  -12.5256   18.2945 C   0  0  0  0  0  0
  -28.0597  -12.2971   18.7129 C   0  0  0  0  0  0
  -27.6514  -13.2549   19.8639 C   0  0  2  0  0  0
  -28.6990  -13.3206   21.0286 C   0  0  0  0  0  0
  -25.2490  -13.8219   20.5844 C   0  0  0  0  0  0
  -24.1758  -13.0461   20.9332 C   0  0  0  0  0  0
  -24.6347  -11.6936   20.8737 C   0  0  0  0  0  0
  -23.9006  -10.4278   21.0381 C   0  0  0  0  0  0
  -24.3559   -9.4222   21.9179 C   0  0  0  0  0  0
  -23.6264   -8.2254   22.0763 C   0  0  0  0  0  0
  -22.4239   -8.0234   21.3566 C   0  0  0  0  0  0
  -21.9833   -9.0206   20.4670 C   0  0  0  0  0  0
  -22.7151  -10.2113   20.3078 C   0  0  0  0  0  0
  -21.6829   -6.0673   22.5279 C   0  0  0  0  0  0
  -21.3983   -6.5602   23.8218 C   0  0  0  0  0  0
  -21.3677   -5.6768   24.9176 C   0  0  0  0  0  0
  -21.6075   -4.3048   24.7250 C   0  0  0  0  0  0
  -21.8818   -3.8122   23.4398 C   0  0  0  0  0  0
  -21.9182   -4.6893   22.3422 C   0  0  0  0  0  0
  -22.7743  -13.5245   21.1908 C   0  0  0  0  0  0
  -22.1663   -4.2089   21.1004 F   0  0  0  0  0  0
  -21.5650   -3.4522   25.7787 F   0  0  0  0  0  0
  -30.0348  -13.6019   20.4793 N   0  0  0  0  0  0
  -26.2988  -12.9496   20.3449 N   0  0  0  0  0  0
  -25.9329  -11.6640   20.5914 N   0  0  0  0  0  0
  -22.0388  -12.8250   22.0471 N   0  0  0  0  0  0
  -25.4107  -15.1944   20.4220 N   0  0  0  0  0  0
  -31.7789  -14.8337   19.8017 O   0  0  0  0  0  0
  -21.6633   -6.8822   21.4246 O   0  0  0  0  0  0
  -22.3486  -14.5573   20.6756 O   0  0  0  0  0  0
  -24.6380  -31.8504   23.1903 C   0  0  0  0  0  0
  -25.9134  -32.4827   23.8266 C   0  0  1  0  0  0
  -27.2746  -27.2720   20.1404 C   0  0  0  0  0  0
  -25.5955  -33.8668   24.2288 N   0  0  0  0  0  0
  -23.4442  -30.4802   21.5194 C   0  0  2  0  0  0
  -24.9045  -28.9035   20.1157 C   0  0  0  0  0  0
  -22.7553  -29.4534   22.4615 C   0  0  0  0  0  0
  -18.0334  -28.1283   22.8497 C   0  0  0  0  0  0
  -24.1492  -36.7340   23.2658 C   0  0  0  0  0  0
  -25.9914  -30.7771   21.3602 C   0  0  0  0  0  0
  -26.0692  -29.3868   20.7116 C   0  0  0  0  0  0
  -27.2513  -28.5805   20.7022 C   0  0  0  0  0  0
  -26.0739  -26.8431   19.5109 C   0  0  0  0  0  0
  -24.9032  -27.6309   19.5117 C   0  0  0  0  0  0
  -23.6885  -29.8077   20.1379 C   0  0  0  0  0  0
  -25.4104  -36.3164   24.0345 C   0  0  1  0  0  0
  -20.5944  -28.3670   23.0860 C   0  0  2  0  0  0
  -20.6805  -26.9229   22.5300 C   0  0  0  0  0  0
  -19.5727  -26.6248   21.5219 C   0  0  0  0  0  0
  -18.1981  -26.7699   22.1847 C   0  0  0  0  0  0
  -19.1622  -28.8828   23.2577 C   0  0  0  0  0  0
  -18.9582  -30.1528   23.8496 C   0  0  0  0  0  0
  -17.6531  -30.6536   24.0509 C   0  0  0  0  0  0
  -25.9054  -34.9500   23.5115 C   0  0  0  0  0  0
  -16.5375  -29.9097   23.6277 C   0  0  0  0  0  0
  -16.7365  -28.6443   23.0425 C   0  0  0  0  0  0
  -26.4572  -31.6661   25.0610 C   0  0  0  0  0  0
  -25.3857  -31.3677   26.1356 C   0  0  0  0  0  0
  -27.0323  -30.3064   24.6052 C   0  0  0  0  0  0
  -27.6171  -32.4290   25.7438 C   0  0  0  0  0  0
  -27.5594  -37.1818   24.8466 C   0  0  0  0  0  0
  -21.4368  -29.2820   22.2949 N   0  0  0  0  0  0
  -26.4295  -37.3814   23.9435 N   0  0  0  0  0  0
  -24.7100  -31.0501   22.0873 N   0  0  0  0  0  0
  -23.4120  -28.8273   23.2909 O   0  0  0  0  0  0
  -28.4107  -26.4330   20.2128 O   0  0  0  0  0  0
  -26.5573  -34.8972   22.4664 O   0  0  0  0  0  0
  -23.5534  -32.1300   23.7235 O   0  0  0  0  0  0
  -30.3595  -18.5947   20.8713 C   0  0  0  0  0  0
  -28.3121  -19.7376   21.4123 C   0  0  0  0  0  0
  -29.8838  -17.3373   21.4786 C   0  0  0  0  0  0
  -28.7342  -17.4978   22.3086 C   0  0  0  0  0  0
  -27.8334  -18.5994   22.0835 C   0  0  0  0  0  0
  -29.6128  -19.8514   20.9005 C   0  0  0  0  0  0
  -29.2000  -17.4274   24.6896 C   0  0  0  0  0  0
  -28.6766  -16.7617   23.6259 C   0  0  0  0  0  0
  -30.6917  -15.9826   21.5953 C   0  0  0  0  0  0
  -29.5042  -23.9119   20.2603 C   0  0  0  0  0  0
  -28.2747  -24.9434   20.0617 C   0  0  0  0  0  0
  -29.1383  -22.3554   20.5137 C   0  0  0  0  0  0
  -31.4825  -15.8908   22.5871 N   0  0  0  0  0  0
  -26.5337  -18.6666   22.5995 N   0  0  0  0  0  0
  -30.0732  -21.1614   20.5021 O   0  0  0  0  0  0
  -31.4787  -12.4708   19.3091 H   0  0  0  0  0  0
  -30.2521  -11.5108   20.0571 H   0  0  0  0  0  0
  -29.8107  -11.7447   17.5864 H   0  0  0  0  0  0
  -29.6227  -13.4806   17.7766 H   0  0  0  0  0  0
  -27.9691  -11.2655   19.0630 H   0  0  0  0  0  0
  -27.3747  -12.3804   17.8614 H   0  0  0  0  0  0
  -27.5973  -14.2429   19.4084 H   0  0  0  0  0  0
  -28.7151  -12.4048   21.6226 H   0  0  0  0  0  0
  -28.4324  -14.1127   21.7280 H   0  0  0  0  0  0
  -25.2712   -9.5657   22.4747 H   0  0  0  0  0  0
  -23.9968   -7.4603   22.7435 H   0  0  0  0  0  0
  -21.0817   -8.8739   19.8940 H   0  0  0  0  0  0
  -22.3646  -10.9639   19.6204 H   0  0  0  0  0  0
  -21.1960   -7.6107   23.9700 H   0  0  0  0  0  0
  -21.1499   -6.0506   25.9095 H   0  0  0  0  0  0
  -22.0572   -2.7561   23.2928 H   0  0  0  0  0  0
  -22.4031  -11.9943   22.4888 H   0  0  0  0  0  0
  -21.0929  -13.1192   22.2582 H   0  0  0  0  0  0
  -24.6261  -15.8283   20.5369 H   0  0  0  0  0  0
  -26.2612  -15.6549   20.1186 H   0  0  0  0  0  0
  -26.7182  -32.5666   23.1009 H   0  0  0  0  0  0
  -24.9948  -33.9781   25.0324 H   0  0  0  0  0  0
  -22.7562  -31.3185   21.3661 H   0  0  0  0  0  0
  -23.3743  -35.9710   23.3278 H   0  0  0  0  0  0
  -24.3595  -36.8966   22.2101 H   0  0  0  0  0  0
  -23.7221  -37.6516   23.6634 H   0  0  0  0  0  0
  -26.1108  -31.5304   20.5808 H   0  0  0  0  0  0
  -26.8820  -30.8683   21.9707 H   0  0  0  0  0  0
  -28.1555  -28.9710   21.1443 H   0  0  0  0  0  0
  -26.0343  -25.8924   19.0262 H   0  0  0  0  0  0
  -24.0037  -27.2479   19.0477 H   0  0  0  0  0  0
  -23.8830  -30.5759   19.3855 H   0  0  0  0  0  0
  -22.8070  -29.2670   19.8003 H   0  0  0  0  0  0
  -25.1293  -36.2005   25.0829 H   0  0  0  0  0  0
  -21.0135  -28.3609   24.0953 H   0  0  0  0  0  0
  -20.5607  -26.2122   23.3542 H   0  0  0  0  0  0
  -21.6620  -26.7274   22.0976 H   0  0  0  0  0  0
  -19.6877  -25.6223   21.1151 H   0  0  0  0  0  0
  -19.6461  -27.3006   20.6671 H   0  0  0  0  0  0
  -17.4213  -26.5891   21.4534 H   0  0  0  0  0  0
  -18.0962  -26.0026   22.9515 H   0  0  0  0  0  0
  -19.8150  -30.7530   24.1670 H   0  0  0  0  0  0
  -17.5190  -31.6097   24.5250 H   0  0  0  0  0  0
  -15.5378  -30.3059   23.7481 H   0  0  0  0  0  0
  -15.8794  -28.0829   22.6972 H   0  0  0  0  0  0
  -24.6118  -30.6947   25.7649 H   0  0  0  0  0  0
  -24.8979  -32.2751   26.4907 H   0  0  0  0  0  0
  -25.8351  -30.8786   27.0027 H   0  0  0  0  0  0
  -26.2815  -29.6847   24.1167 H   0  0  0  0  0  0
  -27.3983  -29.7379   25.4632 H   0  0  0  0  0  0
  -27.8726  -30.4229   23.9215 H   0  0  0  0  0  0
  -27.2824  -33.3562   26.2102 H   0  0  0  0  0  0
  -28.4000  -32.6897   25.0289 H   0  0  0  0  0  0
  -28.0755  -31.8258   26.5297 H   0  0  0  0  0  0
  -28.2618  -38.0102   24.7527 H   0  0  0  0  0  0
  -28.1053  -36.2663   24.6230 H   0  0  0  0  0  0
  -27.2306  -37.1366   25.8847 H   0  0  0  0  0  0
  -20.9966  -29.7983   21.5435 H   0  0  0  0  0  0
  -26.0204  -38.2914   24.1349 H   0  0  0  0  0  0
  -31.3575  -18.5922   20.4419 H   0  0  0  0  0  0
  -27.6600  -20.5968   21.3702 H   0  0  0  0  0  0
  -29.2872  -17.0828   25.7233 H   0  0  0  0  0  0
  -29.5874  -18.4341   24.5017 H   0  0  0  0  0  0
  -28.2702  -15.7500   23.7409 H   0  0  0  0  0  0
  -30.1258  -24.2741   21.0678 H   0  0  0  0  0  0
  -30.1336  -24.0011   19.3758 H   0  0  0  0  0  0
  -27.9538  -24.8009   19.0329 H   0  0  0  0  0  0
  -27.4472  -24.5941   20.6807 H   0  0  0  0  0  0
  -28.3798  -22.1296   19.7680 H   0  0  0  0  0  0
  -28.6061  -22.4101   21.4771 H   0  0  0  0  0  0
  -31.4363  -16.7210   23.1562 H   0  0  0  0  0  0
  -25.8348  -19.0967   21.9896 H   0  0  0  0  0  0
  -26.1270  -17.8378   23.0210 H   0  0  0  0  0  0
  1 25  1  0  0  0
  1 30  2  0  0  0
  1 79  1  0  0  0
  2  3  1  0  0  0
  2 25  1  0  0  0
  2 86  1  0  0  0
  2 87  1  0  0  0
  3  4  1  0  0  0
  3 88  1  0  0  0
  3 89  1  0  0  0
  4  5  1  0  0  0
  4 90  1  0  0  0
  4 91  1  0  0  0
  5  6  1  0  0  0
  5 26  1  0  0  0
  5 92  1  0  0  0
  6 25  1  0  0  0
  6 93  1  0  0  0
  6 94  1  0  0  0
  7  8  2  0  0  0
  7 26  1  0  0  0
  7 29  1  0  0  0
  8  9  1  0  0  0
  8 22  1  0  0  0
  9 10  1  0  0  0
  9 27  2  0  0  0
 10 11  2  0  0  0
 10 15  1  0  0  0
 11 12  1  0  0  0
 11 95  1  0  0  0
 12 13  2  0  0  0
 12 96  1  0  0  0
 13 14  1  0  0  0
 13 31  1  0  0  0
 14 15  2  0  0  0
 14 97  1  0  0  0
 15 98  1  0  0  0
 16 17  2  0  0  0
 16 21  1  0  0  0
 16 31  1  0  0  0
 17 18  1  0  0  0
 17 99  1  0  0  0
 18 19  2  0  0  0
 18100  1  0  0  0
 19 20  1  0  0  0
 19 24  1  0  0  0
 20 21  2  0  0  0
 20101  1  0  0  0
 21 23  1  0  0  0
 22 28  1  0  0  0
 22 32  2  0  0  0
 26 27  1  0  0  0
 28102  1  0  0  0
 28103  1  0  0  0
 29104  1  0  0  0
 29105  1  0  0  0
 33 34  1  0  0  0
 33 66  1  0  0  0
 33 70  2  0  0  0
 34 36  1  0  0  0
 34 59  1  0  0  0
 34106  1  0  0  0
 35 44  2  0  0  0
 35 45  1  0  0  0
 35 68  1  0  0  0
 36 56  1  0  0  0
 36107  1  0  0  0
 37 39  1  0  0  0
 37 47  1  0  0  0
 37 66  1  0  0  0
 37108  1  0  0  0
 38 43  2  0  0  0
 38 46  1  0  0  0
 38 47  1  0  0  0
 39 64  1  0  0  0
 39 67  2  0  0  0
 40 52  1  0  0  0
 40 53  2  0  0  0
 40 58  1  0  0  0
 41109  1  0  0  0
 41110  1  0  0  0
 41111  1  0  0  0
 41 48  1  0  0  0
 42 43  1  0  0  0
 42 66  1  0  0  0
 42112  1  0  0  0
 42113  1  0  0  0
 43 44  1  0  0  0
 44114  1  0  0  0
 45 46  2  0  0  0
 45115  1  0  0  0
 46116  1  0  0  0
 47117  1  0  0  0
 47118  1  0  0  0
 48 56  1  0  0  0
 48 65  1  0  0  0
 48119  1  0  0  0
 49 50  1  0  0  0
 49 53  1  0  0  0
 49 64  1  0  0  0
 49120  1  0  0  0
 50 51  1  0  0  0
 50121  1  0  0  0
 50122  1  0  0  0
 51 52  1  0  0  0
 51123  1  0  0  0
 51124  1  0  0  0
 52125  1  0  0  0
 52126  1  0  0  0
 53 54  1  0  0  0
 54 55  2  0  0  0
 54127  1  0  0  0
 55 57  1  0  0  0
 55128  1  0  0  0
 56 69  2  0  0  0
 57 58  2  0  0  0
 57129  1  0  0  0
 58130  1  0  0  0
 59 60  1  0  0  0
 59 61  1  0  0  0
 59 62  1  0  0  0
 60131  1  0  0  0
 60132  1  0  0  0
 60133  1  0  0  0
 61134  1  0  0  0
 61135  1  0  0  0
 61136  1  0  0  0
 62137  1  0  0  0
 62138  1  0  0  0
 62139  1  0  0  0
 63 65  1  0  0  0
 63140  1  0  0  0
 63141  1  0  0  0
 63142  1  0  0  0
 64143  1  0  0  0
 65144  1  0  0  0
 68 81  1  0  0  0
 71 73  2  0  0  0
 71 76  1  0  0  0
 71145  1  0  0  0
 72 75  1  0  0  0
 72 76  2  0  0  0
 72146  1  0  0  0
 73 74  1  0  0  0
 73 79  1  0  0  0
 74 75  2  0  0  0
 74 78  1  0  0  0
 75 84  1  0  0  0
 76 85  1  0  0  0
 77 78  2  0  0  0
 77147  1  0  0  0
 77148  1  0  0  0
 78149  1  0  0  0
 79 83  2  0  0  0
 80 81  1  0  0  0
 80 82  1  0  0  0
 80150  1  0  0  0
 80151  1  0  0  0
 81152  1  0  0  0
 81153  1  0  0  0
 82 85  1  0  0  0
 82154  1  0  0  0
 82155  1  0  0  0
 83156  1  0  0  0
 84157  1  0  0  0
 84158  1  0  0  0
M  ISO  4   1 100  68 101  79 100  81 101
M  END
> <chiral flag>
0

> <version>
0

> <s_m_source_file>
/data/baiqing/PycharmProjects/Reinvent-master-3.2/result/LINK_invent/BTK/process_docking_weight1_custom_product_contain_oxygen_bond_distance_aromatic_linkinvent_7_9_3/rearranged_h_0112.sdf

> <i_m_source_file_index>
46

> <r_mmod_Potential_Energy-OPLS-2005>
597.453735351562

> <r_mmod_Stretch_Energy-OPLS-2005>
176.714050292969

> <r_mmod_Bend_Energy-OPLS-2005>
257.285980224609

> <r_mmod_Torsional_Energy-OPLS-2005>
342.0537109375

> <r_mmod_Improper_Torsional_Energy-OPLS-2005>
18.9815273284912

> <r_mmod_Van_der_Waal_Energy-OPLS-2005>
145.986862182617

> <r_mmod_Electrostatic_Energy-OPLS-2005>
-237.247451782227

> <r_mmod_Solvation_Energy-OPLS-2005>
-215.013198852539

> <b_mmod_Minimization_Converged-OPLS-2005>
0

> <r_mmod_RMS_Derivative-OPLS-2005>
23.4915370941162

$$$$
47
                    3D
 Structure written by MMmdl.
165174  0  0  1  0            999 V2000
  -30.5338  -14.9100   20.4252 C   0  0  0  0  0  0
  -30.4487  -12.5561   19.4941 C   0  0  0  0  0  0
  -29.5295  -12.5502   18.2504 C   0  0  0  0  0  0
  -28.0608  -12.3323   18.6599 C   0  0  0  0  0  0
  -27.6378  -13.2452   19.8405 C   0  0  2  0  0  0
  -28.6813  -13.2343   20.9805 C   0  0  0  0  0  0
  -25.2500  -13.8220   20.5658 C   0  0  0  0  0  0
  -24.1811  -13.0446   20.9185 C   0  0  0  0  0  0
  -24.6425  -11.6930   20.8728 C   0  0  0  0  0  0
  -23.9093  -10.4305   21.0402 C   0  0  0  0  0  0
  -24.3646   -9.4217   21.9175 C   0  0  0  0  0  0
  -23.6311   -8.2256   22.0766 C   0  0  0  0  0  0
  -22.4296   -8.0293   21.3544 C   0  0  0  0  0  0
  -21.9925   -9.0260   20.4641 C   0  0  0  0  0  0
  -22.7263  -10.2131   20.3049 C   0  0  0  0  0  0
  -21.6864   -6.0736   22.5280 C   0  0  0  0  0  0
  -21.4012   -6.5637   23.8213 C   0  0  0  0  0  0
  -21.3670   -5.6795   24.9173 C   0  0  0  0  0  0
  -21.6069   -4.3060   24.7223 C   0  0  0  0  0  0
  -21.8822   -3.8144   23.4339 C   0  0  0  0  0  0
  -21.9187   -4.6959   22.3398 C   0  0  0  0  0  0
  -22.7822  -13.5205   21.1842 C   0  0  0  0  0  0
  -22.1658   -4.2159   21.0971 F   0  0  0  0  0  0
  -21.5636   -3.4531   25.7723 F   0  0  0  0  0  0
  -29.9694  -13.6375   20.3968 N   0  0  0  0  0  0
  -26.2930  -12.9438   20.3210 N   0  0  0  0  0  0
  -25.9360  -11.6573   20.5700 N   0  0  0  0  0  0
  -22.0486  -12.8194   22.0411 N   0  0  0  0  0  0
  -25.4155  -15.1952   20.4048 N   0  0  0  0  0  0
  -31.7237  -15.0259   20.1098 O   0  0  0  0  0  0
  -21.6656   -6.8884   21.4251 O   0  0  0  0  0  0
  -22.3491  -14.5492   20.6666 O   0  0  0  0  0  0
  -24.6406  -31.8439   23.1899 C   0  0  0  0  0  0
  -25.9182  -32.4693   23.8296 C   0  0  1  0  0  0
  -27.2254  -27.1557   20.1562 C   0  0  0  0  0  0
  -25.5944  -33.8505   24.2225 N   0  0  0  0  0  0
  -23.4439  -30.4638   21.5361 C   0  0  2  0  0  0
  -24.8938  -28.8860   20.1187 C   0  0  0  0  0  0
  -22.7534  -29.4558   22.4870 C   0  0  0  0  0  0
  -18.0292  -28.1362   22.8482 C   0  0  0  0  0  0
  -24.1500  -36.7284   23.2646 C   0  0  0  0  0  0
  -25.9982  -30.7232   21.3855 C   0  0  0  0  0  0
  -26.0721  -29.3345   20.7313 C   0  0  0  0  0  0
  -27.2391  -28.4878   20.7283 C   0  0  0  0  0  0
  -26.0220  -26.7974   19.5137 C   0  0  0  0  0  0
  -24.8788  -27.6272   19.4979 C   0  0  0  0  0  0
  -23.6692  -29.7863   20.1584 C   0  0  0  0  0  0
  -25.4125  -36.3041   24.0324 C   0  0  1  0  0  0
  -20.5906  -28.3700   23.1231 C   0  0  2  0  0  0
  -20.6800  -26.9403   22.5394 C   0  0  0  0  0  0
  -19.5774  -26.6362   21.5198 C   0  0  0  0  0  0
  -18.1950  -26.7918   22.1600 C   0  0  0  0  0  0
  -19.1550  -28.8846   23.2848 C   0  0  0  0  0  0
  -18.9462  -30.1451   23.8857 C   0  0  0  0  0  0
  -17.6460  -30.6573   24.0542 C   0  0  0  0  0  0
  -25.9058  -34.9409   23.5084 C   0  0  0  0  0  0
  -16.5353  -29.9056   23.6334 C   0  0  0  0  0  0
  -16.7279  -28.6467   23.0373 C   0  0  0  0  0  0
  -26.4503  -31.6549   25.0736 C   0  0  0  0  0  0
  -25.3697  -31.3717   26.1442 C   0  0  0  0  0  0
  -27.0397  -30.2953   24.6323 C   0  0  0  0  0  0
  -27.6045  -32.4321   25.7513 C   0  0  0  0  0  0
  -27.5582  -37.1789   24.8444 C   0  0  0  0  0  0
  -21.4228  -29.3050   22.3615 N   0  0  0  0  0  0
  -26.4292  -37.3745   23.9393 N   0  0  0  0  0  0
  -24.7152  -31.0308   22.0935 N   0  0  0  0  0  0
  -23.4189  -28.8110   23.3014 O   0  0  0  0  0  0
  -28.3073  -26.2103   20.1675 O   0  0  0  0  0  0
  -26.5629  -34.8889   22.4652 O   0  0  0  0  0  0
  -23.5518  -32.1316   23.7117 O   0  0  0  0  0  0
  -29.1030  -19.7228   21.8028 C   0  0  0  0  0  0
  -29.2738  -18.2887   21.7617 C   0  0  0  0  0  0
  -29.7960  -19.8894   19.5612 C   0  0  0  0  0  0
  -29.9646  -18.4287   19.5068 C   0  0  0  0  0  0
  -29.3677  -20.6319   20.7219 C   0  0  0  0  0  0
  -29.7357  -17.5483   20.6312 C   0  0  0  0  0  0
  -30.1984  -22.6071   21.8868 C   0  0  0  0  0  0
  -30.3588  -17.8062   18.2356 C   0  0  0  0  0  0
  -29.7050  -17.9083   17.0601 C   0  0  0  0  0  0
  -30.9166  -23.8876   21.4890 C   0  0  0  0  0  0
  -30.5092  -24.0411   20.0300 C   0  0  0  0  0  0
  -29.1075  -23.4266   20.0239 C   0  0  2  0  0  0
  -30.2310  -17.2495   15.8019 C   0  0  0  0  0  0
  -28.3994  -18.6618   16.8675 C   0  0  0  0  0  0
  -28.1069  -24.7050   20.4903 C   0  0  0  0  0  0
  -29.3364  -22.1625   20.9377 N   0  0  0  0  0  0
  -29.6856  -16.0179   20.6524 N   0  0  0  0  0  0
  -30.4306  -22.0756   22.9772 O   0  0  0  0  0  0
  -31.4893  -12.7049   19.1986 H   0  0  0  0  0  0
  -30.4180  -11.5893   20.0018 H   0  0  0  0  0  0
  -29.8420  -11.7837   17.5403 H   0  0  0  0  0  0
  -29.6248  -13.5063   17.7321 H   0  0  0  0  0  0
  -27.9476  -11.2857   18.9431 H   0  0  0  0  0  0
  -27.4053  -12.4905   17.8023 H   0  0  0  0  0  0
  -27.6104  -14.2552   19.4285 H   0  0  0  0  0  0
  -28.7543  -12.2475   21.4408 H   0  0  0  0  0  0
  -28.3877  -13.9186   21.7779 H   0  0  0  0  0  0
  -25.2803   -9.5676   22.4732 H   0  0  0  0  0  0
  -24.0028   -7.4648   22.7491 H   0  0  0  0  0  0
  -21.0860   -8.8774   19.8942 H   0  0  0  0  0  0
  -22.3743  -10.9662   19.6150 H   0  0  0  0  0  0
  -21.2019   -7.6149   23.9705 H   0  0  0  0  0  0
  -21.1495   -6.0523   25.9071 H   0  0  0  0  0  0
  -22.0594   -2.7608   23.2827 H   0  0  0  0  0  0
  -22.4094  -11.9875   22.4836 H   0  0  0  0  0  0
  -21.1094  -13.1204   22.2603 H   0  0  0  0  0  0
  -24.6387  -15.8397   20.4946 H   0  0  0  0  0  0
  -26.2515  -15.6374   20.0448 H   0  0  0  0  0  0
  -26.7254  -32.5293   23.1027 H   0  0  0  0  0  0
  -25.0066  -33.9657   25.0354 H   0  0  0  0  0  0
  -22.7456  -31.2884   21.3798 H   0  0  0  0  0  0
  -23.3760  -35.9609   23.3258 H   0  0  0  0  0  0
  -24.3573  -36.8973   22.2062 H   0  0  0  0  0  0
  -23.7270  -37.6481   23.6705 H   0  0  0  0  0  0
  -26.1462  -31.4720   20.6066 H   0  0  0  0  0  0
  -26.8735  -30.7781   22.0215 H   0  0  0  0  0  0
  -28.1414  -28.8334   21.2121 H   0  0  0  0  0  0
  -25.9462  -25.8415   19.0159 H   0  0  0  0  0  0
  -23.9819  -27.2768   19.0080 H   0  0  0  0  0  0
  -23.8004  -30.5587   19.3996 H   0  0  0  0  0  0
  -22.7853  -29.2238   19.8526 H   0  0  0  0  0  0
  -25.1303  -36.1877   25.0814 H   0  0  0  0  0  0
  -20.9972  -28.3295   24.1359 H   0  0  0  0  0  0
  -20.5677  -26.2308   23.3607 H   0  0  0  0  0  0
  -21.6677  -26.7414   22.1189 H   0  0  0  0  0  0
  -19.6940  -25.6255   21.1269 H   0  0  0  0  0  0
  -19.6732  -27.3135   20.6691 H   0  0  0  0  0  0
  -17.4226  -26.6641   21.4005 H   0  0  0  0  0  0
  -18.0345  -26.0055   22.8975 H   0  0  0  0  0  0
  -19.7940  -30.7275   24.2223 H   0  0  0  0  0  0
  -17.5011  -31.6255   24.5140 H   0  0  0  0  0  0
  -15.5353  -30.2940   23.7684 H   0  0  0  0  0  0
  -15.8679  -28.0771   22.7105 H   0  0  0  0  0  0
  -24.5844  -30.7113   25.7735 H   0  0  0  0  0  0
  -24.8931  -32.2893   26.4890 H   0  0  0  0  0  0
  -25.7989  -30.8843   27.0204 H   0  0  0  0  0  0
  -26.3031  -29.6643   24.1346 H   0  0  0  0  0  0
  -27.4026  -29.7270   25.4894 H   0  0  0  0  0  0
  -27.8906  -30.4202   23.9638 H   0  0  0  0  0  0
  -27.2640  -33.3606   26.2097 H   0  0  0  0  0  0
  -28.3843  -32.6919   25.0346 H   0  0  0  0  0  0
  -28.0720  -31.8459   26.5426 H   0  0  0  0  0  0
  -28.2562  -38.0120   24.7512 H   0  0  0  0  0  0
  -28.1143  -36.2659   24.6257 H   0  0  0  0  0  0
  -27.2297  -37.1387   25.8845 H   0  0  0  0  0  0
  -20.9405  -29.8770   21.6815 H   0  0  0  0  0  0
  -26.0171  -38.2819   24.1392 H   0  0  0  0  0  0
  -28.7768  -20.1396   22.7456 H   0  0  0  0  0  0
  -29.0229  -17.7408   22.6576 H   0  0  0  0  0  0
  -30.0376  -20.4541   18.6717 H   0  0  0  0  0  0
  -31.2739  -17.2295   18.2738 H   0  0  0  0  0  0
  -31.9964  -23.8067   21.6133 H   0  0  0  0  0  0
  -30.5572  -24.7120   22.1059 H   0  0  0  0  0  0
  -31.1813  -23.4667   19.3888 H   0  0  0  0  0  0
  -30.5362  -25.0757   19.6868 H   0  0  0  0  0  0
  -28.8479  -23.1138   19.0113 H   0  0  0  0  0  0
  -31.1803  -16.7431   15.9786 H   0  0  0  0  0  0
  -30.3835  -17.9890   15.0159 H   0  0  0  0  0  0
  -29.5194  -16.5067   15.4397 H   0  0  0  0  0  0
  -27.9624  -19.0024   17.8063 H   0  0  0  0  0  0
  -27.6637  -18.0132   16.3905 H   0  0  0  0  0  0
  -28.5517  -19.5267   16.2224 H   0  0  0  0  0  0
  -28.0859  -24.6944   21.5800 H   0  0  0  0  0  0
  -27.0928  -24.4133   20.2185 H   0  0  0  0  0  0
  -28.7828  -15.6841   20.9493 H   0  0  0  0  0  0
  1 25  1  0  0  0
  1 30  2  0  0  0
  1 87  1  0  0  0
  2  3  1  0  0  0
  2 25  1  0  0  0
  2 89  1  0  0  0
  2 90  1  0  0  0
  3  4  1  0  0  0
  3 91  1  0  0  0
  3 92  1  0  0  0
  4  5  1  0  0  0
  4 93  1  0  0  0
  4 94  1  0  0  0
  5  6  1  0  0  0
  5 26  1  0  0  0
  5 95  1  0  0  0
  6 25  1  0  0  0
  6 96  1  0  0  0
  6 97  1  0  0  0
  7  8  2  0  0  0
  7 26  1  0  0  0
  7 29  1  0  0  0
  8  9  1  0  0  0
  8 22  1  0  0  0
  9 10  1  0  0  0
  9 27  2  0  0  0
 10 11  2  0  0  0
 10 15  1  0  0  0
 11 12  1  0  0  0
 11 98  1  0  0  0
 12 13  2  0  0  0
 12 99  1  0  0  0
 13 14  1  0  0  0
 13 31  1  0  0  0
 14 15  2  0  0  0
 14100  1  0  0  0
 15101  1  0  0  0
 16 17  2  0  0  0
 16 21  1  0  0  0
 16 31  1  0  0  0
 17 18  1  0  0  0
 17102  1  0  0  0
 18 19  2  0  0  0
 18103  1  0  0  0
 19 20  1  0  0  0
 19 24  1  0  0  0
 20 21  2  0  0  0
 20104  1  0  0  0
 21 23  1  0  0  0
 22 28  1  0  0  0
 22 32  2  0  0  0
 26 27  1  0  0  0
 28105  1  0  0  0
 28106  1  0  0  0
 29107  1  0  0  0
 29108  1  0  0  0
 33 34  1  0  0  0
 33 66  1  0  0  0
 33 70  2  0  0  0
 34 36  1  0  0  0
 34 59  1  0  0  0
 34109  1  0  0  0
 35 44  2  0  0  0
 35 45  1  0  0  0
 35 68  1  0  0  0
 36 56  1  0  0  0
 36110  1  0  0  0
 37 39  1  0  0  0
 37 47  1  0  0  0
 37 66  1  0  0  0
 37111  1  0  0  0
 38 43  2  0  0  0
 38 46  1  0  0  0
 38 47  1  0  0  0
 39 64  1  0  0  0
 39 67  2  0  0  0
 40 52  1  0  0  0
 40 53  2  0  0  0
 40 58  1  0  0  0
 41112  1  0  0  0
 41113  1  0  0  0
 41114  1  0  0  0
 41 48  1  0  0  0
 42 43  1  0  0  0
 42 66  1  0  0  0
 42115  1  0  0  0
 42116  1  0  0  0
 43 44  1  0  0  0
 44117  1  0  0  0
 45 46  2  0  0  0
 45118  1  0  0  0
 46119  1  0  0  0
 47120  1  0  0  0
 47121  1  0  0  0
 48 56  1  0  0  0
 48 65  1  0  0  0
 48122  1  0  0  0
 49 50  1  0  0  0
 49 53  1  0  0  0
 49 64  1  0  0  0
 49123  1  0  0  0
 50 51  1  0  0  0
 50124  1  0  0  0
 50125  1  0  0  0
 51 52  1  0  0  0
 51126  1  0  0  0
 51127  1  0  0  0
 52128  1  0  0  0
 52129  1  0  0  0
 53 54  1  0  0  0
 54 55  2  0  0  0
 54130  1  0  0  0
 55 57  1  0  0  0
 55131  1  0  0  0
 56 69  2  0  0  0
 57 58  2  0  0  0
 57132  1  0  0  0
 58133  1  0  0  0
 59 60  1  0  0  0
 59 61  1  0  0  0
 59 62  1  0  0  0
 60134  1  0  0  0
 60135  1  0  0  0
 60136  1  0  0  0
 61137  1  0  0  0
 61138  1  0  0  0
 61139  1  0  0  0
 62140  1  0  0  0
 62141  1  0  0  0
 62142  1  0  0  0
 63 65  1  0  0  0
 63143  1  0  0  0
 63144  1  0  0  0
 63145  1  0  0  0
 64146  1  0  0  0
 65147  1  0  0  0
 68 85  1  0  0  0
 71 72  2  0  0  0
 71 75  1  0  0  0
 71148  1  0  0  0
 72 76  1  0  0  0
 72149  1  0  0  0
 73 74  1  0  0  0
 73 75  2  0  0  0
 73150  1  0  0  0
 74 76  2  0  0  0
 74 78  1  0  0  0
 75 86  1  0  0  0
 76 87  1  0  0  0
 77 80  1  0  0  0
 77 86  1  0  0  0
 77 88  2  0  0  0
 78 79  2  0  0  0
 78151  1  0  0  0
 79 83  1  0  0  0
 79 84  1  0  0  0
 80 81  1  0  0  0
 80152  1  0  0  0
 80153  1  0  0  0
 81 82  1  0  0  0
 81154  1  0  0  0
 81155  1  0  0  0
 82 85  1  0  0  0
 82 86  1  0  0  0
 82156  1  0  0  0
 83157  1  0  0  0
 83158  1  0  0  0
 83159  1  0  0  0
 84160  1  0  0  0
 84161  1  0  0  0
 84162  1  0  0  0
 85163  1  0  0  0
 85164  1  0  0  0
 87165  1  0  0  0
M  ISO  4   1 100  68 101  85 101  87 100
M  END
> <chiral flag>
0

> <version>
0

> <s_m_source_file>
/data/baiqing/PycharmProjects/Reinvent-master-3.2/result/LINK_invent/BTK/process_docking_weight1_custom_product_contain_oxygen_bond_distance_aromatic_linkinvent_7_9_3/rearranged_h_0112.sdf

> <i_m_source_file_index>
47

> <r_mmod_Potential_Energy-OPLS-2005>
591.699401855469

> <r_mmod_Stretch_Energy-OPLS-2005>
231.715576171875

> <r_mmod_Bend_Energy-OPLS-2005>
305.584259033203

> <r_mmod_Torsional_Energy-OPLS-2005>
354.454956054688

> <r_mmod_Improper_Torsional_Energy-OPLS-2005>
7.46333265304565

> <r_mmod_Van_der_Waal_Energy-OPLS-2005>
129.812927246094

> <r_mmod_Electrostatic_Energy-OPLS-2005>
-387.863922119141

> <r_mmod_Solvation_Energy-OPLS-2005>
-215.235748291016

> <b_mmod_Minimization_Converged-OPLS-2005>
0

> <r_mmod_RMS_Derivative-OPLS-2005>
3.37401080131531

$$$$
48
                    3D
 Structure written by MMmdl.
149157  0  0  1  0            999 V2000
  -30.3901  -15.4387   20.3787 C   0  0  0  0  0  0
  -30.4348  -12.9367   19.5473 C   0  0  0  0  0  0
  -29.5442  -12.6080   18.3178 C   0  0  0  0  0  0
  -28.1102  -12.2888   18.7625 C   0  0  0  0  0  0
  -27.6120  -13.2890   19.8326 C   0  0  2  0  0  0
  -28.6352  -13.5315   20.9671 C   0  0  0  0  0  0
  -25.2413  -13.8285   20.5829 C   0  0  0  0  0  0
  -24.1765  -13.0447   20.9281 C   0  0  0  0  0  0
  -24.6436  -11.6947   20.8778 C   0  0  0  0  0  0
  -23.9133  -10.4295   21.0418 C   0  0  0  0  0  0
  -24.3668   -9.4194   21.9196 C   0  0  0  0  0  0
  -23.6329   -8.2226   22.0752 C   0  0  0  0  0  0
  -22.4308   -8.0275   21.3541 C   0  0  0  0  0  0
  -21.9961   -9.0256   20.4647 C   0  0  0  0  0  0
  -22.7308  -10.2128   20.3062 C   0  0  0  0  0  0
  -21.6845   -6.0738   22.5290 C   0  0  0  0  0  0
  -21.4005   -6.5641   23.8222 C   0  0  0  0  0  0
  -21.3657   -5.6805   24.9186 C   0  0  0  0  0  0
  -21.6044   -4.3061   24.7243 C   0  0  0  0  0  0
  -21.8818   -3.8153   23.4361 C   0  0  0  0  0  0
  -21.9190   -4.6971   22.3413 C   0  0  0  0  0  0
  -22.7779  -13.5175   21.1929 C   0  0  0  0  0  0
  -22.1660   -4.2160   21.0993 F   0  0  0  0  0  0
  -21.5640   -3.4535   25.7751 F   0  0  0  0  0  0
  -29.8476  -14.0971   20.3437 N   0  0  0  0  0  0
  -26.2844  -12.9573   20.3303 N   0  0  0  0  0  0
  -25.9380  -11.6655   20.5764 N   0  0  0  0  0  0
  -22.0440  -12.8137   22.0468 N   0  0  0  0  0  0
  -25.4105  -15.2009   20.4322 N   0  0  0  0  0  0
  -31.5825  -15.4132   20.0244 O   0  0  0  0  0  0
  -21.6634   -6.8887   21.4257 O   0  0  0  0  0  0
  -22.3448  -14.5473   20.6778 O   0  0  0  0  0  0
  -24.6726  -31.8107   23.1624 C   0  0  0  0  0  0
  -25.9356  -32.4527   23.8131 C   0  0  1  0  0  0
  -27.2257  -26.8140   20.2075 C   0  0  0  0  0  0
  -25.5975  -33.8351   24.2026 N   0  0  0  0  0  0
  -23.4944  -30.4169   21.5111 C   0  0  2  0  0  0
  -24.9519  -28.7805   20.1112 C   0  0  0  0  0  0
  -22.7722  -29.4377   22.4734 C   0  0  0  0  0  0
  -18.0340  -28.1404   22.8454 C   0  0  0  0  0  0
  -24.1490  -36.7183   23.2656 C   0  0  0  0  0  0
  -26.0675  -30.5799   21.4085 C   0  0  0  0  0  0
  -26.1350  -29.1569   20.7583 C   0  0  0  0  0  0
  -27.2571  -28.1955   20.7844 C   0  0  0  0  0  0
  -26.0189  -26.6211   19.4934 C   0  0  0  0  0  0
  -24.9261  -27.5351   19.4583 C   0  0  0  0  0  0
  -23.7424  -29.7218   20.1411 C   0  0  0  0  0  0
  -25.4132  -36.2932   24.0298 C   0  0  1  0  0  0
  -20.5955  -28.3773   23.1158 C   0  0  2  0  0  0
  -20.6802  -26.9433   22.5416 C   0  0  0  0  0  0
  -19.5798  -26.6375   21.5199 C   0  0  0  0  0  0
  -18.1978  -26.7932   22.1604 C   0  0  0  0  0  0
  -19.1593  -28.8908   23.2791 C   0  0  0  0  0  0
  -18.9490  -30.1491   23.8827 C   0  0  0  0  0  0
  -17.6476  -30.6584   24.0536 C   0  0  0  0  0  0
  -25.9103  -34.9313   23.4993 C   0  0  0  0  0  0
  -16.5369  -29.9069   23.6336 C   0  0  0  0  0  0
  -16.7320  -28.6496   23.0355 C   0  0  0  0  0  0
  -26.4568  -31.6528   25.0713 C   0  0  0  0  0  0
  -25.3685  -31.3805   26.1369 C   0  0  0  0  0  0
  -27.0488  -30.2888   24.6531 C   0  0  0  0  0  0
  -27.6032  -32.4365   25.7529 C   0  0  0  0  0  0
  -27.5555  -37.1749   24.8469 C   0  0  0  0  0  0
  -21.4371  -29.3064   22.3509 N   0  0  0  0  0  0
  -26.4263  -37.3674   23.9413 N   0  0  0  0  0  0
  -24.7668  -30.9666   22.0808 N   0  0  0  0  0  0
  -23.4213  -28.7946   23.3019 O   0  0  0  0  0  0
  -28.2065  -25.6559   20.3460 O   0  0  0  0  0  0
  -26.5723  -34.8860   22.4593 O   0  0  0  0  0  0
  -23.5769  -32.1125   23.6645 O   0  0  0  0  0  0
  -28.6532  -19.5250   18.1584 C   0  0  0  0  0  0
  -28.5351  -20.8196   18.7472 C   0  0  0  0  0  0
  -29.0751  -18.3324   18.8214 C   0  0  0  0  0  0
  -29.2793  -19.7497   20.7577 C   0  0  0  0  0  0
  -28.8550  -21.1165   20.0916 C   0  0  0  0  0  0
  -29.4152  -18.2787   20.1912 C   0  0  0  0  0  0
  -28.6758  -17.4376   22.9217 C   0  0  0  0  0  0
  -28.7189  -22.8208   20.5060 C   0  0  0  0  0  0
  -29.5508  -16.7121   22.2029 C   0  0  0  0  0  0
  -28.1254  -24.1192   20.0124 C   0  0  0  0  0  0
  -29.7318  -16.7512   20.8073 N   0  0  0  0  0  0
  -31.4399  -13.1653   19.1924 H   0  0  0  0  0  0
  -30.5561  -12.0560   20.1784 H   0  0  0  0  0  0
  -29.9605  -11.7653   17.7621 H   0  0  0  0  0  0
  -29.5373  -13.4546   17.6279 H   0  0  0  0  0  0
  -28.1146  -11.2827   19.1860 H   0  0  0  0  0  0
  -27.4340  -12.2605   17.9086 H   0  0  0  0  0  0
  -27.5077  -14.2331   19.2968 H   0  0  0  0  0  0
  -28.2354  -14.2452   21.6884 H   0  0  0  0  0  0
  -28.8472  -12.6165   21.5224 H   0  0  0  0  0  0
  -25.2788   -9.5650   22.4792 H   0  0  0  0  0  0
  -24.0012   -7.4612   22.7466 H   0  0  0  0  0  0
  -21.0885   -8.8795   19.8962 H   0  0  0  0  0  0
  -22.3777  -10.9673   19.6173 H   0  0  0  0  0  0
  -21.1989   -7.6157   23.9720 H   0  0  0  0  0  0
  -21.1481   -6.0541   25.9088 H   0  0  0  0  0  0
  -22.0604   -2.7614   23.2870 H   0  0  0  0  0  0
  -22.4045  -11.9763   22.4815 H   0  0  0  0  0  0
  -21.1044  -13.1122   22.2668 H   0  0  0  0  0  0
  -24.6590  -15.8675   20.5693 H   0  0  0  0  0  0
  -26.2867  -15.6396   20.1774 H   0  0  0  0  0  0
  -26.7446  -32.5025   23.0852 H   0  0  0  0  0  0
  -25.0058  -33.9415   25.0139 H   0  0  0  0  0  0
  -22.8146  -31.2518   21.3310 H   0  0  0  0  0  0
  -23.3754  -35.9509   23.3285 H   0  0  0  0  0  0
  -24.3570  -36.8867   22.2077 H   0  0  0  0  0  0
  -23.7246  -37.6361   23.6740 H   0  0  0  0  0  0
  -26.2540  -31.3091   20.6194 H   0  0  0  0  0  0
  -26.9255  -30.6480   22.0651 H   0  0  0  0  0  0
  -28.1444  -28.4797   21.3315 H   0  0  0  0  0  0
  -25.8734  -25.6740   18.9952 H   0  0  0  0  0  0
  -24.0293  -27.2379   18.9307 H   0  0  0  0  0  0
  -23.9072  -30.4859   19.3815 H   0  0  0  0  0  0
  -22.8492  -29.1825   19.8211 H   0  0  0  0  0  0
  -25.1333  -36.1709   25.0787 H   0  0  0  0  0  0
  -21.0034  -28.3403   24.1290 H   0  0  0  0  0  0
  -20.5638  -26.2377   23.3666 H   0  0  0  0  0  0
  -21.6675  -26.7358   22.1269 H   0  0  0  0  0  0
  -19.6970  -25.6280   21.1271 H   0  0  0  0  0  0
  -19.6738  -27.3154   20.6707 H   0  0  0  0  0  0
  -17.4234  -26.6654   21.4027 H   0  0  0  0  0  0
  -18.0406  -26.0095   22.9039 H   0  0  0  0  0  0
  -19.7961  -30.7335   24.2160 H   0  0  0  0  0  0
  -17.5009  -31.6263   24.5122 H   0  0  0  0  0  0
  -15.5362  -30.2950   23.7682 H   0  0  0  0  0  0
  -15.8711  -28.0806   22.7101 H   0  0  0  0  0  0
  -24.5897  -30.7110   25.7706 H   0  0  0  0  0  0
  -24.8839  -32.3007   26.4644 H   0  0  0  0  0  0
  -25.7917  -30.9100   27.0260 H   0  0  0  0  0  0
  -26.3189  -29.6540   24.1504 H   0  0  0  0  0  0
  -27.3947  -29.7287   25.5235 H   0  0  0  0  0  0
  -27.9151  -30.4062   24.0018 H   0  0  0  0  0  0
  -27.2592  -33.3726   26.1941 H   0  0  0  0  0  0
  -28.3934  -32.6835   25.0429 H   0  0  0  0  0  0
  -28.0606  -31.8616   26.5597 H   0  0  0  0  0  0
  -28.2554  -38.0056   24.7482 H   0  0  0  0  0  0
  -28.1057  -36.2577   24.6322 H   0  0  0  0  0  0
  -27.2269  -37.1420   25.8870 H   0  0  0  0  0  0
  -20.9639  -29.8775   21.6643 H   0  0  0  0  0  0
  -26.0098  -38.2728   24.1413 H   0  0  0  0  0  0
  -28.3945  -19.4407   17.1125 H   0  0  0  0  0  0
  -28.2138  -21.6317   18.1106 H   0  0  0  0  0  0
  -29.0909  -17.4176   18.2484 H   0  0  0  0  0  0
  -29.5284  -19.8439   21.8037 H   0  0  0  0  0  0
  -28.6491  -17.3383   23.9986 H   0  0  0  0  0  0
  -27.9735  -18.1265   22.4784 H   0  0  0  0  0  0
  -29.3169  -23.0013   21.3884 H   0  0  0  0  0  0
  -30.2198  -16.0330   22.7197 H   0  0  0  0  0  0
  -27.4999  -24.0240   19.1376 H   0  0  0  0  0  0
  1 25  1  0  0  0
  1 30  2  0  0  0
  1 81  1  0  0  0
  2  3  1  0  0  0
  2 25  1  0  0  0
  2 82  1  0  0  0
  2 83  1  0  0  0
  3  4  1  0  0  0
  3 84  1  0  0  0
  3 85  1  0  0  0
  4  5  1  0  0  0
  4 86  1  0  0  0
  4 87  1  0  0  0
  5  6  1  0  0  0
  5 26  1  0  0  0
  5 88  1  0  0  0
  6 25  1  0  0  0
  6 89  1  0  0  0
  6 90  1  0  0  0
  7  8  2  0  0  0
  7 26  1  0  0  0
  7 29  1  0  0  0
  8  9  1  0  0  0
  8 22  1  0  0  0
  9 10  1  0  0  0
  9 27  2  0  0  0
 10 11  2  0  0  0
 10 15  1  0  0  0
 11 12  1  0  0  0
 11 91  1  0  0  0
 12 13  2  0  0  0
 12 92  1  0  0  0
 13 14  1  0  0  0
 13 31  1  0  0  0
 14 15  2  0  0  0
 14 93  1  0  0  0
 15 94  1  0  0  0
 16 17  2  0  0  0
 16 21  1  0  0  0
 16 31  1  0  0  0
 17 18  1  0  0  0
 17 95  1  0  0  0
 18 19  2  0  0  0
 18 96  1  0  0  0
 19 20  1  0  0  0
 19 24  1  0  0  0
 20 21  2  0  0  0
 20 97  1  0  0  0
 21 23  1  0  0  0
 22 28  1  0  0  0
 22 32  2  0  0  0
 26 27  1  0  0  0
 28 98  1  0  0  0
 28 99  1  0  0  0
 29100  1  0  0  0
 29101  1  0  0  0
 33 34  1  0  0  0
 33 66  1  0  0  0
 33 70  2  0  0  0
 34 36  1  0  0  0
 34 59  1  0  0  0
 34102  1  0  0  0
 35 44  2  0  0  0
 35 45  1  0  0  0
 35 68  1  0  0  0
 36 56  1  0  0  0
 36103  1  0  0  0
 37 39  1  0  0  0
 37 47  1  0  0  0
 37 66  1  0  0  0
 37104  1  0  0  0
 38 43  2  0  0  0
 38 46  1  0  0  0
 38 47  1  0  0  0
 39 64  1  0  0  0
 39 67  2  0  0  0
 40 52  1  0  0  0
 40 53  2  0  0  0
 40 58  1  0  0  0
 41105  1  0  0  0
 41106  1  0  0  0
 41107  1  0  0  0
 41 48  1  0  0  0
 42 43  1  0  0  0
 42 66  1  0  0  0
 42108  1  0  0  0
 42109  1  0  0  0
 43 44  1  0  0  0
 44110  1  0  0  0
 45 46  2  0  0  0
 45111  1  0  0  0
 46112  1  0  0  0
 47113  1  0  0  0
 47114  1  0  0  0
 48 56  1  0  0  0
 48 65  1  0  0  0
 48115  1  0  0  0
 49 50  1  0  0  0
 49 53  1  0  0  0
 49 64  1  0  0  0
 49116  1  0  0  0
 50 51  1  0  0  0
 50117  1  0  0  0
 50118  1  0  0  0
 51 52  1  0  0  0
 51119  1  0  0  0
 51120  1  0  0  0
 52121  1  0  0  0
 52122  1  0  0  0
 53 54  1  0  0  0
 54 55  2  0  0  0
 54123  1  0  0  0
 55 57  1  0  0  0
 55124  1  0  0  0
 56 69  2  0  0  0
 57 58  2  0  0  0
 57125  1  0  0  0
 58126  1  0  0  0
 59 60  1  0  0  0
 59 61  1  0  0  0
 59 62  1  0  0  0
 60127  1  0  0  0
 60128  1  0  0  0
 60129  1  0  0  0
 61130  1  0  0  0
 61131  1  0  0  0
 61132  1  0  0  0
 62133  1  0  0  0
 62134  1  0  0  0
 62135  1  0  0  0
 63 65  1  0  0  0
 63136  1  0  0  0
 63137  1  0  0  0
 63138  1  0  0  0
 64139  1  0  0  0
 65140  1  0  0  0
 68 80  1  0  0  0
 71 72  2  0  0  0
 71 73  1  0  0  0
 71141  1  0  0  0
 72 75  1  0  0  0
 72142  1  0  0  0
 73 76  2  0  0  0
 73143  1  0  0  0
 74 75  2  0  0  0
 74 76  1  0  0  0
 74144  1  0  0  0
 75 78  1  0  0  0
 76 81  1  0  0  0
 77 79  2  0  0  0
 77145  1  0  0  0
 77146  1  0  0  0
 78 80  2  0  0  0
 78147  1  0  0  0
 79 81  1  0  0  0
 79148  1  0  0  0
 80149  1  0  0  0
M  ISO  4   1 100  68 101  80 101  81 100
M  END
> <chiral flag>
0

> <version>
0

> <s_m_source_file>
/data/baiqing/PycharmProjects/Reinvent-master-3.2/result/LINK_invent/BTK/process_docking_weight1_custom_product_contain_oxygen_bond_distance_aromatic_linkinvent_7_9_3/rearranged_h_0112.sdf

> <i_m_source_file_index>
48

> <r_mmod_Potential_Energy-OPLS-2005>
1830.21240234375

> <r_mmod_Stretch_Energy-OPLS-2005>
747.990356445312

> <r_mmod_Bend_Energy-OPLS-2005>
458.996154785156

> <r_mmod_Torsional_Energy-OPLS-2005>
302.714660644531

> <r_mmod_Improper_Torsional_Energy-OPLS-2005>
3.34703207015991

> <r_mmod_Van_der_Waal_Energy-OPLS-2005>
130.346298217773

> <r_mmod_Electrostatic_Energy-OPLS-2005>
-271.185668945312

> <r_mmod_Solvation_Energy-OPLS-2005>
-193.640197753906

> <b_mmod_Minimization_Converged-OPLS-2005>
0

> <r_mmod_RMS_Derivative-OPLS-2005>
3.02249336242676

$$$$
49
                    3D
 Structure written by MMmdl.
164172  0  0  1  0            999 V2000
  -30.6686  -14.6466   20.4745 C   0  0  0  0  0  0
  -30.4164  -12.3846   19.4767 C   0  0  0  0  0  0
  -29.5073  -12.5043   18.2350 C   0  0  0  0  0  0
  -28.0284  -12.3482   18.6373 C   0  0  0  0  0  0
  -27.6455  -13.2344   19.8536 C   0  0  2  0  0  0
  -28.6860  -13.1401   20.9891 C   0  0  0  0  0  0
  -25.2518  -13.8215   20.5687 C   0  0  0  0  0  0
  -24.1805  -13.0453   20.9187 C   0  0  0  0  0  0
  -24.6396  -11.6932   20.8735 C   0  0  0  0  0  0
  -23.9075  -10.4303   21.0398 C   0  0  0  0  0  0
  -24.3624   -9.4218   21.9179 C   0  0  0  0  0  0
  -23.6299   -8.2253   22.0752 C   0  0  0  0  0  0
  -22.4282   -8.0288   21.3542 C   0  0  0  0  0  0
  -21.9918   -9.0260   20.4642 C   0  0  0  0  0  0
  -22.7245  -10.2141   20.3048 C   0  0  0  0  0  0
  -21.6859   -6.0738   22.5279 C   0  0  0  0  0  0
  -21.4018   -6.5640   23.8211 C   0  0  0  0  0  0
  -21.3661   -5.6792   24.9175 C   0  0  0  0  0  0
  -21.6044   -4.3054   24.7226 C   0  0  0  0  0  0
  -21.8817   -3.8147   23.4345 C   0  0  0  0  0  0
  -21.9194   -4.6965   22.3402 C   0  0  0  0  0  0
  -22.7826  -13.5232   21.1860 C   0  0  0  0  0  0
  -22.1658   -4.2147   21.0980 F   0  0  0  0  0  0
  -21.5633   -3.4540   25.7738 F   0  0  0  0  0  0
  -30.0076  -13.4441   20.4257 N   0  0  0  0  0  0
  -26.2954  -12.9433   20.3291 N   0  0  0  0  0  0
  -25.9326  -11.6565   20.5745 N   0  0  0  0  0  0
  -22.0475  -12.8208   22.0409 N   0  0  0  0  0  0
  -25.4218  -15.1938   20.4112 N   0  0  0  0  0  0
  -31.8516  -14.6678   20.1244 O   0  0  0  0  0  0
  -21.6646   -6.8882   21.4240 O   0  0  0  0  0  0
  -22.3501  -14.5543   20.6724 O   0  0  0  0  0  0
  -24.6258  -31.8611   23.2039 C   0  0  0  0  0  0
  -25.9107  -32.4787   23.8358 C   0  0  1  0  0  0
  -27.2119  -27.3186   20.1246 C   0  0  0  0  0  0
  -25.5925  -33.8586   24.2289 N   0  0  0  0  0  0
  -23.4189  -30.4861   21.5466 C   0  0  2  0  0  0
  -24.8652  -28.9457   20.1092 C   0  0  0  0  0  0
  -22.7475  -29.4628   22.4937 C   0  0  0  0  0  0
  -18.0287  -28.1389   22.8484 C   0  0  0  0  0  0
  -24.1491  -36.7295   23.2635 C   0  0  0  0  0  0
  -25.9602  -30.7933   21.3744 C   0  0  0  0  0  0
  -26.0345  -29.4202   20.7192 C   0  0  0  0  0  0
  -27.2140  -28.6175   20.7188 C   0  0  0  0  0  0
  -26.0308  -26.9105   19.4664 C   0  0  0  0  0  0
  -24.8662  -27.6969   19.4713 C   0  0  0  0  0  0
  -23.6331  -29.8245   20.1606 C   0  0  0  0  0  0
  -25.4116  -36.3090   24.0334 C   0  0  1  0  0  0
  -20.5886  -28.3689   23.1291 C   0  0  2  0  0  0
  -20.6778  -26.9412   22.5421 C   0  0  0  0  0  0
  -19.5762  -26.6392   21.5214 C   0  0  0  0  0  0
  -18.1932  -26.7935   22.1613 C   0  0  0  0  0  0
  -19.1538  -28.8852   23.2882 C   0  0  0  0  0  0
  -18.9458  -30.1448   23.8910 C   0  0  0  0  0  0
  -17.6461  -30.6587   24.0568 C   0  0  0  0  0  0
  -25.9054  -34.9458   23.5112 C   0  0  0  0  0  0
  -16.5351  -29.9090   23.6329 C   0  0  0  0  0  0
  -16.7275  -28.6508   23.0351 C   0  0  0  0  0  0
  -26.4493  -31.6584   25.0716 C   0  0  0  0  0  0
  -25.3724  -31.3702   26.1436 C   0  0  0  0  0  0
  -27.0331  -30.3014   24.6144 C   0  0  0  0  0  0
  -27.6067  -32.4297   25.7485 C   0  0  0  0  0  0
  -27.5581  -37.1803   24.8459 C   0  0  0  0  0  0
  -21.4190  -29.3041   22.3684 N   0  0  0  0  0  0
  -26.4291  -37.3785   23.9409 N   0  0  0  0  0  0
  -24.6875  -31.0623   22.0992 N   0  0  0  0  0  0
  -23.4205  -28.8162   23.3005 O   0  0  0  0  0  0
  -28.3037  -26.4408   20.1707 O   0  0  0  0  0  0
  -26.5618  -34.8918   22.4675 O   0  0  0  0  0  0
  -23.5423  -32.1406   23.7372 O   0  0  0  0  0  0
  -28.7036  -18.8117   21.0812 C   0  0  0  0  0  0
  -29.8941  -18.4261   20.4258 C   0  0  0  0  0  0
  -30.2387  -20.8773   19.9261 C   0  0  0  0  0  0
  -28.2729  -20.1782   21.1599 C   0  0  0  0  0  0
  -30.6321  -19.4973   19.8234 C   0  0  0  0  0  0
  -29.0286  -21.2512   20.5946 C   0  0  0  0  0  0
  -31.1392  -20.2893   15.8851 C   0  0  0  0  0  0
  -30.4017  -16.9711   20.3624 C   0  0  0  0  0  0
  -31.9816  -19.7523   16.7814 C   0  0  0  0  0  0
  -31.1526  -21.9314   19.3104 C   0  0  0  0  0  0
  -26.2855  -19.5331   22.3653 C   0  0  0  0  0  0
  -31.5904  -18.7140   17.8102 C   0  0  0  0  0  0
  -28.0105  -25.0544   20.6219 C   0  0  0  0  0  0
  -28.9793  -23.8408   20.2794 C   0  0  0  0  0  0
  -29.8985  -15.8223   20.7462 N   0  0  0  0  0  0
  -27.1043  -20.5475   21.7953 O   0  0  0  0  0  0
  -31.7880  -19.2049   19.1353 O   0  0  0  0  0  0
  -28.4781  -22.5494   20.7769 O   0  0  0  0  0  0
  -31.4652  -12.4526   19.1826 H   0  0  0  0  0  0
  -30.3061  -11.4021   19.9386 H   0  0  0  0  0  0
  -29.7752  -11.7490   17.4947 H   0  0  0  0  0  0
  -29.6596  -13.4729   17.7568 H   0  0  0  0  0  0
  -27.8634  -11.2976   18.8773 H   0  0  0  0  0  0
  -27.3797  -12.5713   17.7897 H   0  0  0  0  0  0
  -27.6535  -14.2638   19.4952 H   0  0  0  0  0  0
  -28.6862  -12.1425   21.4314 H   0  0  0  0  0  0
  -28.4360  -13.8318   21.7958 H   0  0  0  0  0  0
  -25.2766   -9.5701   22.4753 H   0  0  0  0  0  0
  -24.0011   -7.4648   22.7473 H   0  0  0  0  0  0
  -21.0848   -8.8778   19.8946 H   0  0  0  0  0  0
  -22.3701  -10.9678   19.6157 H   0  0  0  0  0  0
  -21.2010   -7.6145   23.9717 H   0  0  0  0  0  0
  -21.1486   -6.0521   25.9077 H   0  0  0  0  0  0
  -22.0594   -2.7608   23.2848 H   0  0  0  0  0  0
  -22.4100  -11.9861   22.4773 H   0  0  0  0  0  0
  -21.1091  -13.1219   22.2626 H   0  0  0  0  0  0
  -24.6598  -15.8541   20.5175 H   0  0  0  0  0  0
  -26.2897  -15.6269   20.1198 H   0  0  0  0  0  0
  -26.7173  -32.5469   23.1106 H   0  0  0  0  0  0
  -25.0077  -33.9734   25.0435 H   0  0  0  0  0  0
  -22.7129  -31.3075   21.4062 H   0  0  0  0  0  0
  -23.3758  -35.9619   23.3298 H   0  0  0  0  0  0
  -24.3582  -36.8923   22.2049 H   0  0  0  0  0  0
  -23.7239  -37.6495   23.6657 H   0  0  0  0  0  0
  -26.0853  -31.5549   20.6030 H   0  0  0  0  0  0
  -26.8436  -30.8466   21.9990 H   0  0  0  0  0  0
  -28.1088  -28.9714   21.2120 H   0  0  0  0  0  0
  -25.9887  -25.9661   18.9435 H   0  0  0  0  0  0
  -23.9744  -27.3356   18.9766 H   0  0  0  0  0  0
  -23.7500  -30.6037   19.4067 H   0  0  0  0  0  0
  -22.7528  -29.2542   19.8577 H   0  0  0  0  0  0
  -25.1292  -36.1948   25.0826 H   0  0  0  0  0  0
  -20.9975  -28.3272   24.1412 H   0  0  0  0  0  0
  -20.5692  -26.2293   23.3618 H   0  0  0  0  0  0
  -21.6645  -26.7457   22.1205 H   0  0  0  0  0  0
  -19.6934  -25.6307   21.1235 H   0  0  0  0  0  0
  -19.6713  -27.3213   20.6754 H   0  0  0  0  0  0
  -17.4213  -26.6697   21.4001 H   0  0  0  0  0  0
  -18.0315  -26.0072   22.8998 H   0  0  0  0  0  0
  -19.7929  -30.7255   24.2297 H   0  0  0  0  0  0
  -17.5012  -31.6271   24.5161 H   0  0  0  0  0  0
  -15.5350  -30.2994   23.7649 H   0  0  0  0  0  0
  -15.8673  -28.0833   22.7064 H   0  0  0  0  0  0
  -24.5972  -30.6961   25.7773 H   0  0  0  0  0  0
  -24.8811  -32.2842   26.4779 H   0  0  0  0  0  0
  -25.8052  -30.8972   27.0260 H   0  0  0  0  0  0
  -26.2897  -29.6772   24.1171 H   0  0  0  0  0  0
  -27.4054  -29.7255   25.4624 H   0  0  0  0  0  0
  -27.8753  -30.4312   23.9344 H   0  0  0  0  0  0
  -27.2711  -33.3618   26.2035 H   0  0  0  0  0  0
  -28.3889  -32.6815   25.0312 H   0  0  0  0  0  0
  -28.0711  -31.8425   26.5417 H   0  0  0  0  0  0
  -28.2593  -38.0103   24.7510 H   0  0  0  0  0  0
  -28.1081  -36.2638   24.6277 H   0  0  0  0  0  0
  -27.2297  -37.1445   25.8859 H   0  0  0  0  0  0
  -20.9366  -29.8757   21.6893 H   0  0  0  0  0  0
  -26.0181  -38.2863   24.1410 H   0  0  0  0  0  0
  -28.1263  -18.0191   21.5327 H   0  0  0  0  0  0
  -31.4814  -21.0265   15.1729 H   0  0  0  0  0  0
  -30.0972  -20.0037   15.8481 H   0  0  0  0  0  0
  -31.3884  -16.9572   19.8926 H   0  0  0  0  0  0
  -33.0164  -20.0650   16.7935 H   0  0  0  0  0  0
  -32.0964  -21.5266   18.9516 H   0  0  0  0  0  0
  -31.4329  -22.6809   20.0464 H   0  0  0  0  0  0
  -30.6732  -22.4090   18.4568 H   0  0  0  0  0  0
  -25.3986  -19.9923   22.8025 H   0  0  0  0  0  0
  -26.8037  -18.9987   23.1633 H   0  0  0  0  0  0
  -25.9464  -18.8195   21.6126 H   0  0  0  0  0  0
  -32.2187  -17.8345   17.6688 H   0  0  0  0  0  0
  -30.5618  -18.3908   17.6362 H   0  0  0  0  0  0
  -27.9253  -25.1052   21.7077 H   0  0  0  0  0  0
  -27.0279  -24.7281   20.2913 H   0  0  0  0  0  0
  -29.9471  -24.0567   20.7273 H   0  0  0  0  0  0
  -29.1007  -23.7938   19.1989 H   0  0  0  0  0  0
  1 25  1  0  0  0
  1 30  2  0  0  0
  1 85  1  0  0  0
  2  3  1  0  0  0
  2 25  1  0  0  0
  2 89  1  0  0  0
  2 90  1  0  0  0
  3  4  1  0  0  0
  3 91  1  0  0  0
  3 92  1  0  0  0
  4  5  1  0  0  0
  4 93  1  0  0  0
  4 94  1  0  0  0
  5  6  1  0  0  0
  5 26  1  0  0  0
  5 95  1  0  0  0
  6 25  1  0  0  0
  6 96  1  0  0  0
  6 97  1  0  0  0
  7  8  2  0  0  0
  7 26  1  0  0  0
  7 29  1  0  0  0
  8  9  1  0  0  0
  8 22  1  0  0  0
  9 10  1  0  0  0
  9 27  2  0  0  0
 10 11  2  0  0  0
 10 15  1  0  0  0
 11 12  1  0  0  0
 11 98  1  0  0  0
 12 13  2  0  0  0
 12 99  1  0  0  0
 13 14  1  0  0  0
 13 31  1  0  0  0
 14 15  2  0  0  0
 14100  1  0  0  0
 15101  1  0  0  0
 16 17  2  0  0  0
 16 21  1  0  0  0
 16 31  1  0  0  0
 17 18  1  0  0  0
 17102  1  0  0  0
 18 19  2  0  0  0
 18103  1  0  0  0
 19 20  1  0  0  0
 19 24  1  0  0  0
 20 21  2  0  0  0
 20104  1  0  0  0
 21 23  1  0  0  0
 22 28  1  0  0  0
 22 32  2  0  0  0
 26 27  1  0  0  0
 28105  1  0  0  0
 28106  1  0  0  0
 29107  1  0  0  0
 29108  1  0  0  0
 33 34  1  0  0  0
 33 66  1  0  0  0
 33 70  2  0  0  0
 34 36  1  0  0  0
 34 59  1  0  0  0
 34109  1  0  0  0
 35 44  2  0  0  0
 35 45  1  0  0  0
 35 68  1  0  0  0
 36 56  1  0  0  0
 36110  1  0  0  0
 37 39  1  0  0  0
 37 47  1  0  0  0
 37 66  1  0  0  0
 37111  1  0  0  0
 38 43  2  0  0  0
 38 46  1  0  0  0
 38 47  1  0  0  0
 39 64  1  0  0  0
 39 67  2  0  0  0
 40 52  1  0  0  0
 40 53  2  0  0  0
 40 58  1  0  0  0
 41112  1  0  0  0
 41113  1  0  0  0
 41114  1  0  0  0
 41 48  1  0  0  0
 42 43  1  0  0  0
 42 66  1  0  0  0
 42115  1  0  0  0
 42116  1  0  0  0
 43 44  1  0  0  0
 44117  1  0  0  0
 45 46  2  0  0  0
 45118  1  0  0  0
 46119  1  0  0  0
 47120  1  0  0  0
 47121  1  0  0  0
 48 56  1  0  0  0
 48 65  1  0  0  0
 48122  1  0  0  0
 49 50  1  0  0  0
 49 53  1  0  0  0
 49 64  1  0  0  0
 49123  1  0  0  0
 50 51  1  0  0  0
 50124  1  0  0  0
 50125  1  0  0  0
 51 52  1  0  0  0
 51126  1  0  0  0
 51127  1  0  0  0
 52128  1  0  0  0
 52129  1  0  0  0
 53 54  1  0  0  0
 54 55  2  0  0  0
 54130  1  0  0  0
 55 57  1  0  0  0
 55131  1  0  0  0
 56 69  2  0  0  0
 57 58  2  0  0  0
 57132  1  0  0  0
 58133  1  0  0  0
 59 60  1  0  0  0
 59 61  1  0  0  0
 59 62  1  0  0  0
 60134  1  0  0  0
 60135  1  0  0  0
 60136  1  0  0  0
 61137  1  0  0  0
 61138  1  0  0  0
 61139  1  0  0  0
 62140  1  0  0  0
 62141  1  0  0  0
 62142  1  0  0  0
 63 65  1  0  0  0
 63143  1  0  0  0
 63144  1  0  0  0
 63145  1  0  0  0
 64146  1  0  0  0
 65147  1  0  0  0
 68 83  1  0  0  0
 71 72  2  0  0  0
 71 74  1  0  0  0
 71148  1  0  0  0
 72 75  1  0  0  0
 72 78  1  0  0  0
 73 75  2  0  0  0
 73 76  1  0  0  0
 73 80  1  0  0  0
 74 76  2  0  0  0
 74 86  1  0  0  0
 75 87  1  0  0  0
 76 88  1  0  0  0
 77 79  2  0  0  0
 77149  1  0  0  0
 77150  1  0  0  0
 78 85  2  0  0  0
 78151  1  0  0  0
 79 82  1  0  0  0
 79152  1  0  0  0
 80153  1  0  0  0
 80154  1  0  0  0
 80155  1  0  0  0
 81 86  1  0  0  0
 81156  1  0  0  0
 81157  1  0  0  0
 81158  1  0  0  0
 82 87  1  0  0  0
 82159  1  0  0  0
 82160  1  0  0  0
 83 84  1  0  0  0
 83161  1  0  0  0
 83162  1  0  0  0
 84 88  1  0  0  0
 84163  1  0  0  0
 84164  1  0  0  0
M  ISO  4   1 100  68 101  83 101  85 100
M  END
> <chiral flag>
0

> <version>
0

> <s_m_source_file>
/data/baiqing/PycharmProjects/Reinvent-master-3.2/result/LINK_invent/BTK/process_docking_weight1_custom_product_contain_oxygen_bond_distance_aromatic_linkinvent_7_9_3/rearranged_h_0112.sdf

> <i_m_source_file_index>
49

> <r_mmod_Potential_Energy-OPLS-2005>
166.530242919922

> <r_mmod_Stretch_Energy-OPLS-2005>
93.6599884033203

> <r_mmod_Bend_Energy-OPLS-2005>
174.420761108398

> <r_mmod_Torsional_Energy-OPLS-2005>
206.981079101562

> <r_mmod_Improper_Torsional_Energy-OPLS-2005>
4.02322769165039

> <r_mmod_Van_der_Waal_Energy-OPLS-2005>
174.613464355469

> <r_mmod_Electrostatic_Energy-OPLS-2005>
-347.981842041016

> <r_mmod_Solvation_Energy-OPLS-2005>
-193.129684448242

> <b_mmod_Minimization_Converged-OPLS-2005>
0

> <r_mmod_RMS_Derivative-OPLS-2005>
1.08806526660919

$$$$
50
                    3D
 Structure written by MMmdl.
166175  0  0  1  0            999 V2000
  -30.7963  -14.4038   20.6082 C   0  0  0  0  0  0
  -30.3992  -12.2790   19.4191 C   0  0  0  0  0  0
  -29.4847  -12.5094   18.2015 C   0  0  0  0  0  0
  -28.0065  -12.3764   18.6139 C   0  0  0  0  0  0
  -27.6611  -13.2203   19.8732 C   0  0  2  0  0  0
  -28.7067  -13.0143   20.9944 C   0  0  0  0  0  0
  -25.2554  -13.8205   20.5713 C   0  0  0  0  0  0
  -24.1799  -13.0464   20.9202 C   0  0  0  0  0  0
  -24.6368  -11.6941   20.8741 C   0  0  0  0  0  0
  -23.9023  -10.4321   21.0400 C   0  0  0  0  0  0
  -24.3586   -9.4237   21.9167 C   0  0  0  0  0  0
  -23.6283   -8.2257   22.0728 C   0  0  0  0  0  0
  -22.4255   -8.0285   21.3544 C   0  0  0  0  0  0
  -21.9892   -9.0243   20.4632 C   0  0  0  0  0  0
  -22.7200  -10.2137   20.3046 C   0  0  0  0  0  0
  -21.6843   -6.0741   22.5283 C   0  0  0  0  0  0
  -21.4017   -6.5640   23.8223 C   0  0  0  0  0  0
  -21.3662   -5.6785   24.9184 C   0  0  0  0  0  0
  -21.6049   -4.3047   24.7224 C   0  0  0  0  0  0
  -21.8819   -3.8146   23.4339 C   0  0  0  0  0  0
  -21.9190   -4.6971   22.3404 C   0  0  0  0  0  0
  -22.7807  -13.5241   21.1880 C   0  0  0  0  0  0
  -22.1656   -4.2151   21.0983 F   0  0  0  0  0  0
  -21.5627   -3.4531   25.7740 F   0  0  0  0  0  0
  -30.0449  -13.2808   20.4385 N   0  0  0  0  0  0
  -26.3023  -12.9407   20.3400 N   0  0  0  0  0  0
  -25.9312  -11.6550   20.5779 N   0  0  0  0  0  0
  -22.0448  -12.8225   22.0442 N   0  0  0  0  0  0
  -25.4283  -15.1916   20.4121 N   0  0  0  0  0  0
  -31.8684  -14.5034   20.0195 O   0  0  0  0  0  0
  -21.6631   -6.8876   21.4237 O   0  0  0  0  0  0
  -22.3490  -14.5548   20.6738 O   0  0  0  0  0  0
  -24.6100  -31.8720   23.2149 C   0  0  0  0  0  0
  -25.9017  -32.4836   23.8413 C   0  0  1  0  0  0
  -27.2414  -27.4760   20.0857 C   0  0  0  0  0  0
  -25.5899  -33.8631   24.2351 N   0  0  0  0  0  0
  -23.3957  -30.4997   21.5531 C   0  0  2  0  0  0
  -24.8424  -28.9692   20.1169 C   0  0  0  0  0  0
  -22.7362  -29.4697   22.4977 C   0  0  0  0  0  0
  -18.0267  -28.1399   22.8482 C   0  0  0  0  0  0
  -24.1484  -36.7309   23.2635 C   0  0  0  0  0  0
  -25.9218  -30.8470   21.3648 C   0  0  0  0  0  0
  -26.0010  -29.4825   20.7163 C   0  0  0  0  0  0
  -27.2028  -28.7425   20.7030 C   0  0  0  0  0  0
  -26.0673  -26.9711   19.4786 C   0  0  0  0  0  0
  -24.8687  -27.7068   19.5003 C   0  0  0  0  0  0
  -23.6054  -29.8377   20.1646 C   0  0  0  0  0  0
  -25.4101  -36.3109   24.0331 C   0  0  1  0  0  0
  -20.5843  -28.3688   23.1315 C   0  0  2  0  0  0
  -20.6757  -26.9432   22.5412 C   0  0  0  0  0  0
  -19.5734  -26.6411   21.5205 C   0  0  0  0  0  0
  -18.1915  -26.7943   22.1620 C   0  0  0  0  0  0
  -19.1516  -28.8853   23.2898 C   0  0  0  0  0  0
  -18.9459  -30.1450   23.8917 C   0  0  0  0  0  0
  -17.6471  -30.6601   24.0583 C   0  0  0  0  0  0
  -25.9036  -34.9477   23.5143 C   0  0  0  0  0  0
  -16.5352  -29.9112   23.6333 C   0  0  0  0  0  0
  -16.7262  -28.6531   23.0339 C   0  0  0  0  0  0
  -26.4488  -31.6580   25.0709 C   0  0  0  0  0  0
  -25.3780  -31.3670   26.1481 C   0  0  0  0  0  0
  -27.0303  -30.3019   24.6045 C   0  0  0  0  0  0
  -27.6076  -32.4269   25.7479 C   0  0  0  0  0  0
  -27.5573  -37.1817   24.8470 C   0  0  0  0  0  0
  -21.4098  -29.3048   22.3710 N   0  0  0  0  0  0
  -26.4280  -37.3796   23.9416 N   0  0  0  0  0  0
  -24.6606  -31.0865   22.1028 N   0  0  0  0  0  0
  -23.4149  -28.8240   23.3005 O   0  0  0  0  0  0
  -28.4093  -26.7487   20.0623 O   0  0  0  0  0  0
  -26.5587  -34.8925   22.4697 O   0  0  0  0  0  0
  -23.5300  -32.1453   23.7564 O   0  0  0  0  0  0
  -30.8397  -19.8707   20.6671 C   0  0  0  0  0  0
  -30.8400  -18.0584   19.1426 C   0  0  0  0  0  0
  -29.2577  -18.8648   22.0181 C   0  0  0  0  0  0
  -29.5577  -19.7952   21.0720 C   0  0  0  0  0  0
  -30.4534  -19.2785   19.5320 C   0  0  0  0  0  0
  -29.5972  -17.5365   22.1745 C   0  0  0  0  0  0
  -31.3986  -17.2243   20.1905 C   0  0  0  0  0  0
  -30.4291  -16.6675   21.2277 C   0  0  0  0  0  0
  -32.7458  -17.2006   20.3475 C   0  0  0  0  0  0
  -28.2813  -25.4069   20.3112 C   0  0  0  0  0  0
  -28.9324  -24.4570   19.6157 C   0  0  0  0  0  0
  -28.6707  -23.0223   19.8801 C   0  0  0  0  0  0
  -33.5598  -16.6041   21.4865 C   0  0  0  0  0  0
  -28.5534  -17.5039   24.3637 C   0  0  0  0  0  0
  -29.0357  -22.0085   18.7811 C   0  0  0  0  0  0
  -28.3988  -20.6070   18.9323 C   0  0  0  0  0  0
  -30.2227  -15.3965   21.3999 N   0  0  0  0  0  0
  -29.1558  -19.6398   19.7371 N   0  0  0  0  0  0
  -28.1205  -22.6327   20.9148 O   0  0  0  0  0  0
  -29.8208  -24.7698   18.6603 O   0  0  0  0  0  0
  -29.0235  -16.8095   23.2094 O   0  0  0  0  0  0
  -31.4491  -12.3092   19.1197 H   0  0  0  0  0  0
  -30.2509  -11.2792   19.8292 H   0  0  0  0  0  0
  -29.7179  -11.7959   17.4109 H   0  0  0  0  0  0
  -29.6609  -13.5005   17.7809 H   0  0  0  0  0  0
  -27.8157  -11.3202   18.8146 H   0  0  0  0  0  0
  -27.3519  -12.6511   17.7834 H   0  0  0  0  0  0
  -27.7033  -14.2692   19.5721 H   0  0  0  0  0  0
  -28.6726  -11.9889   21.3657 H   0  0  0  0  0  0
  -28.4731  -13.6499   21.8504 H   0  0  0  0  0  0
  -25.2737   -9.5717   22.4721 H   0  0  0  0  0  0
  -24.0001   -7.4652   22.7445 H   0  0  0  0  0  0
  -21.0816   -8.8743   19.8938 H   0  0  0  0  0  0
  -22.3641  -10.9657   19.6136 H   0  0  0  0  0  0
  -21.2009   -7.6145   23.9730 H   0  0  0  0  0  0
  -21.1484   -6.0515   25.9089 H   0  0  0  0  0  0
  -22.0592   -2.7602   23.2843 H   0  0  0  0  0  0
  -22.4050  -11.9859   22.4783 H   0  0  0  0  0  0
  -21.1070  -13.1240   22.2677 H   0  0  0  0  0  0
  -24.6713  -15.8577   20.5229 H   0  0  0  0  0  0
  -26.3059  -15.6238   20.1490 H   0  0  0  0  0  0
  -26.7087  -32.5585   23.1180 H   0  0  0  0  0  0
  -25.0076  -33.9795   25.0514 H   0  0  0  0  0  0
  -22.6829  -31.3171   21.4194 H   0  0  0  0  0  0
  -23.3735  -35.9661   23.3315 H   0  0  0  0  0  0
  -24.3591  -36.8902   22.2052 H   0  0  0  0  0  0
  -23.7251  -37.6523   23.6636 H   0  0  0  0  0  0
  -26.0312  -31.6154   20.5975 H   0  0  0  0  0  0
  -26.8081  -30.9001   21.9845 H   0  0  0  0  0  0
  -28.0967  -29.1410   21.1650 H   0  0  0  0  0  0
  -26.0807  -26.0111   18.9806 H   0  0  0  0  0  0
  -23.9818  -27.3014   19.0334 H   0  0  0  0  0  0
  -23.7227  -30.6194   19.4120 H   0  0  0  0  0  0
  -22.7268  -29.2659   19.8598 H   0  0  0  0  0  0
  -25.1284  -36.1979   25.0818 H   0  0  0  0  0  0
  -20.9956  -28.3275   24.1426 H   0  0  0  0  0  0
  -20.5674  -26.2310   23.3601 H   0  0  0  0  0  0
  -21.6643  -26.7491   22.1218 H   0  0  0  0  0  0
  -19.6918  -25.6327   21.1219 H   0  0  0  0  0  0
  -19.6682  -27.3231   20.6737 H   0  0  0  0  0  0
  -17.4197  -26.6667   21.4016 H   0  0  0  0  0  0
  -18.0345  -26.0083   22.9016 H   0  0  0  0  0  0
  -19.7942  -30.7254   24.2293 H   0  0  0  0  0  0
  -17.5042  -31.6287   24.5187 H   0  0  0  0  0  0
  -15.5358  -30.3052   23.7651 H   0  0  0  0  0  0
  -15.8647  -28.0888   22.7038 H   0  0  0  0  0  0
  -24.5988  -30.6965   25.7858 H   0  0  0  0  0  0
  -24.8944  -32.2810   26.4919 H   0  0  0  0  0  0
  -25.8183  -30.8887   27.0236 H   0  0  0  0  0  0
  -26.2836  -29.6813   24.1078 H   0  0  0  0  0  0
  -27.4061  -29.7236   25.4497 H   0  0  0  0  0  0
  -27.8686  -30.4347   23.9199 H   0  0  0  0  0  0
  -27.2714  -33.3566   26.2083 H   0  0  0  0  0  0
  -28.3894  -32.6809   25.0306 H   0  0  0  0  0  0
  -28.0721  -31.8347   26.5376 H   0  0  0  0  0  0
  -28.2615  -38.0099   24.7509 H   0  0  0  0  0  0
  -28.1046  -36.2627   24.6304 H   0  0  0  0  0  0
  -27.2298  -37.1489   25.8879 H   0  0  0  0  0  0
  -20.9246  -29.8785   21.6958 H   0  0  0  0  0  0
  -26.0166  -38.2872   24.1428 H   0  0  0  0  0  0
  -31.7579  -19.7456   21.2385 H   0  0  0  0  0  0
  -30.2385  -17.5481   18.4025 H   0  0  0  0  0  0
  -28.5432  -19.2774   22.7120 H   0  0  0  0  0  0
  -33.3455  -17.6899   19.5932 H   0  0  0  0  0  0
  -27.5755  -25.1984   21.1050 H   0  0  0  0  0  0
  -32.9489  -16.1929   22.2903 H   0  0  0  0  0  0
  -34.1954  -17.3803   21.9141 H   0  0  0  0  0  0
  -34.2143  -15.8153   21.1101 H   0  0  0  0  0  0
  -28.4341  -16.8101   25.1969 H   0  0  0  0  0  0
  -27.5846  -17.9670   24.1876 H   0  0  0  0  0  0
  -29.2635  -18.2652   24.6865 H   0  0  0  0  0  0
  -30.1179  -21.9317   18.6762 H   0  0  0  0  0  0
  -28.6708  -22.4312   17.8432 H   0  0  0  0  0  0
  -28.2836  -20.1791   17.9365 H   0  0  0  0  0  0
  -27.3854  -20.6967   19.3282 H   0  0  0  0  0  0
  -30.2156  -23.9571   18.3714 H   0  0  0  0  0  0
  1 25  1  0  0  0
  1 30  2  0  0  0
  1 87  1  0  0  0
  2  3  1  0  0  0
  2 25  1  0  0  0
  2 92  1  0  0  0
  2 93  1  0  0  0
  3  4  1  0  0  0
  3 94  1  0  0  0
  3 95  1  0  0  0
  4  5  1  0  0  0
  4 96  1  0  0  0
  4 97  1  0  0  0
  5  6  1  0  0  0
  5 26  1  0  0  0
  5 98  1  0  0  0
  6 25  1  0  0  0
  6 99  1  0  0  0
  6100  1  0  0  0
  7  8  2  0  0  0
  7 26  1  0  0  0
  7 29  1  0  0  0
  8  9  1  0  0  0
  8 22  1  0  0  0
  9 10  1  0  0  0
  9 27  2  0  0  0
 10 11  2  0  0  0
 10 15  1  0  0  0
 11 12  1  0  0  0
 11101  1  0  0  0
 12 13  2  0  0  0
 12102  1  0  0  0
 13 14  1  0  0  0
 13 31  1  0  0  0
 14 15  2  0  0  0
 14103  1  0  0  0
 15104  1  0  0  0
 16 17  2  0  0  0
 16 21  1  0  0  0
 16 31  1  0  0  0
 17 18  1  0  0  0
 17105  1  0  0  0
 18 19  2  0  0  0
 18106  1  0  0  0
 19 20  1  0  0  0
 19 24  1  0  0  0
 20 21  2  0  0  0
 20107  1  0  0  0
 21 23  1  0  0  0
 22 28  1  0  0  0
 22 32  2  0  0  0
 26 27  1  0  0  0
 28108  1  0  0  0
 28109  1  0  0  0
 29110  1  0  0  0
 29111  1  0  0  0
 33 34  1  0  0  0
 33 66  1  0  0  0
 33 70  2  0  0  0
 34 36  1  0  0  0
 34 59  1  0  0  0
 34112  1  0  0  0
 35 44  2  0  0  0
 35 45  1  0  0  0
 35 68  1  0  0  0
 36 56  1  0  0  0
 36113  1  0  0  0
 37 39  1  0  0  0
 37 47  1  0  0  0
 37 66  1  0  0  0
 37114  1  0  0  0
 38 43  2  0  0  0
 38 46  1  0  0  0
 38 47  1  0  0  0
 39 64  1  0  0  0
 39 67  2  0  0  0
 40 52  1  0  0  0
 40 53  2  0  0  0
 40 58  1  0  0  0
 41115  1  0  0  0
 41116  1  0  0  0
 41117  1  0  0  0
 41 48  1  0  0  0
 42 43  1  0  0  0
 42 66  1  0  0  0
 42118  1  0  0  0
 42119  1  0  0  0
 43 44  1  0  0  0
 44120  1  0  0  0
 45 46  2  0  0  0
 45121  1  0  0  0
 46122  1  0  0  0
 47123  1  0  0  0
 47124  1  0  0  0
 48 56  1  0  0  0
 48 65  1  0  0  0
 48125  1  0  0  0
 49 50  1  0  0  0
 49 53  1  0  0  0
 49 64  1  0  0  0
 49126  1  0  0  0
 50 51  1  0  0  0
 50127  1  0  0  0
 50128  1  0  0  0
 51 52  1  0  0  0
 51129  1  0  0  0
 51130  1  0  0  0
 52131  1  0  0  0
 52132  1  0  0  0
 53 54  1  0  0  0
 54 55  2  0  0  0
 54133  1  0  0  0
 55 57  1  0  0  0
 55134  1  0  0  0
 56 69  2  0  0  0
 57 58  2  0  0  0
 57135  1  0  0  0
 58136  1  0  0  0
 59 60  1  0  0  0
 59 61  1  0  0  0
 59 62  1  0  0  0
 60137  1  0  0  0
 60138  1  0  0  0
 60139  1  0  0  0
 61140  1  0  0  0
 61141  1  0  0  0
 61142  1  0  0  0
 62143  1  0  0  0
 62144  1  0  0  0
 62145  1  0  0  0
 63 65  1  0  0  0
 63146  1  0  0  0
 63147  1  0  0  0
 63148  1  0  0  0
 64149  1  0  0  0
 65150  1  0  0  0
 68 80  1  0  0  0
 71 74  2  0  0  0
 71 75  1  0  0  0
 71151  1  0  0  0
 72 75  2  0  0  0
 72 77  1  0  0  0
 72152  1  0  0  0
 73 74  1  0  0  0
 73 76  2  0  0  0
 73153  1  0  0  0
 74 88  1  0  0  0
 75 88  1  0  0  0
 76 78  1  0  0  0
 76 91  1  0  0  0
 77 78  1  0  0  0
 77 79  2  0  0  0
 78 87  2  0  0  0
 79 83  1  0  0  0
 79154  1  0  0  0
 80 81  2  0  0  0
 80155  1  0  0  0
 81 82  1  0  0  0
 81 90  1  0  0  0
 82 85  1  0  0  0
 82 89  2  0  0  0
 83156  1  0  0  0
 83157  1  0  0  0
 83158  1  0  0  0
 84 91  1  0  0  0
 84159  1  0  0  0
 84160  1  0  0  0
 84161  1  0  0  0
 85 86  1  0  0  0
 85162  1  0  0  0
 85163  1  0  0  0
 86 88  1  0  0  0
 86164  1  0  0  0
 86165  1  0  0  0
 90166  1  0  0  0
M  ISO  4   1 100  68 101  80 101  87 100
M  END
> <chiral flag>
0

> <version>
0

> <s_m_source_file>
/data/baiqing/PycharmProjects/Reinvent-master-3.2/result/LINK_invent/BTK/process_docking_weight1_custom_product_contain_oxygen_bond_distance_aromatic_linkinvent_7_9_3/rearranged_h_0112.sdf

> <i_m_source_file_index>
50

> <r_mmod_Potential_Energy-OPLS-2005>
600.433410644531

> <r_mmod_Stretch_Energy-OPLS-2005>
55.7627830505371

> <r_mmod_Bend_Energy-OPLS-2005>
185.70491027832

> <r_mmod_Torsional_Energy-OPLS-2005>
652.049926757812

> <r_mmod_Improper_Torsional_Energy-OPLS-2005>
28.1993560791016

> <r_mmod_Van_der_Waal_Energy-OPLS-2005>
208.459289550781

> <r_mmod_Electrostatic_Energy-OPLS-2005>
-332.983734130859

> <r_mmod_Solvation_Energy-OPLS-2005>
-208.812774658203

> <b_mmod_Minimization_Converged-OPLS-2005>
0

> <r_mmod_RMS_Derivative-OPLS-2005>
3.85661697387695

$$$$
51
                    3D
 Structure written by MMmdl.
172181  0  0  1  0            999 V2000
  -30.5867  -14.7524   20.4207 C   0  0  0  0  0  0
  -30.4302  -12.4455   19.4727 C   0  0  0  0  0  0
  -29.5025  -12.4994   18.2383 C   0  0  0  0  0  0
  -28.0185  -12.3723   18.6402 C   0  0  0  0  0  0
  -27.6378  -13.2396   19.8776 C   0  0  2  0  0  0
  -28.6941  -13.1345   21.0005 C   0  0  0  0  0  0
  -25.2436  -13.8270   20.5859 C   0  0  0  0  0  0
  -24.1692  -13.0430   20.9230 C   0  0  0  0  0  0
  -24.6309  -11.6941   20.8705 C   0  0  0  0  0  0
  -23.9000  -10.4307   21.0337 C   0  0  0  0  0  0
  -24.3559   -9.4229   21.9103 C   0  0  0  0  0  0
  -23.6283   -8.2236   22.0615 C   0  0  0  0  0  0
  -22.4221   -8.0288   21.3488 C   0  0  0  0  0  0
  -21.9844   -9.0252   20.4553 C   0  0  0  0  0  0
  -22.7178  -10.2139   20.2967 C   0  0  0  0  0  0
  -21.6873   -6.0751   22.5256 C   0  0  0  0  0  0
  -21.4026   -6.5598   23.8210 C   0  0  0  0  0  0
  -21.3638   -5.6701   24.9128 C   0  0  0  0  0  0
  -21.6080   -4.2979   24.7164 C   0  0  0  0  0  0
  -21.8865   -3.8142   23.4264 C   0  0  0  0  0  0
  -21.9202   -4.6973   22.3337 C   0  0  0  0  0  0
  -22.7735  -13.5171   21.1921 C   0  0  0  0  0  0
  -22.1608   -4.2193   21.0885 F   0  0  0  0  0  0
  -21.5656   -3.4444   25.7657 F   0  0  0  0  0  0
  -29.9911  -13.5050   20.4118 N   0  0  0  0  0  0
  -26.2891  -12.9460   20.3527 N   0  0  0  0  0  0
  -25.9270  -11.6583   20.5837 N   0  0  0  0  0  0
  -22.0427  -12.8080   22.0452 N   0  0  0  0  0  0
  -25.4108  -15.2026   20.4502 N   0  0  0  0  0  0
  -31.7656  -14.8664   20.0771 O   0  0  0  0  0  0
  -21.6608   -6.8883   21.4203 O   0  0  0  0  0  0
  -22.3433  -14.5491   20.6806 O   0  0  0  0  0  0
  -24.6359  -31.8563   23.2017 C   0  0  0  0  0  0
  -25.9179  -32.4759   23.8365 C   0  0  1  0  0  0
  -27.2113  -27.2492   20.1294 C   0  0  0  0  0  0
  -25.5950  -33.8571   24.2252 N   0  0  0  0  0  0
  -23.4326  -30.4821   21.5454 C   0  0  2  0  0  0
  -24.8751  -28.9300   20.1141 C   0  0  0  0  0  0
  -22.7521  -29.4671   22.4960 C   0  0  0  0  0  0
  -18.0297  -28.1423   22.8522 C   0  0  0  0  0  0
  -24.1475  -36.7245   23.2667 C   0  0  0  0  0  0
  -25.9837  -30.7556   21.3931 C   0  0  0  0  0  0
  -26.0506  -29.3850   20.7229 C   0  0  0  0  0  0
  -27.2230  -28.5606   20.7153 C   0  0  0  0  0  0
  -26.0142  -26.8755   19.4713 C   0  0  0  0  0  0
  -24.8639  -27.6840   19.4755 C   0  0  0  0  0  0
  -23.6464  -29.8172   20.1621 C   0  0  0  0  0  0
  -25.4120  -36.3074   24.0338 C   0  0  1  0  0  0
  -20.5913  -28.3747   23.1225 C   0  0  2  0  0  0
  -20.6787  -26.9460   22.5394 C   0  0  0  0  0  0
  -19.5737  -26.6397   21.5238 C   0  0  0  0  0  0
  -18.1918  -26.7973   22.1649 C   0  0  0  0  0  0
  -19.1556  -28.8910   23.2860 C   0  0  0  0  0  0
  -18.9484  -30.1514   23.8883 C   0  0  0  0  0  0
  -17.6479  -30.6632   24.0578 C   0  0  0  0  0  0
  -25.9067  -34.9450   23.5101 C   0  0  0  0  0  0
  -16.5371  -29.9115   23.6371 C   0  0  0  0  0  0
  -16.7289  -28.6522   23.0428 C   0  0  0  0  0  0
  -26.4501  -31.6641   25.0812 C   0  0  0  0  0  0
  -25.3682  -31.3723   26.1486 C   0  0  0  0  0  0
  -27.0443  -30.3095   24.6374 C   0  0  0  0  0  0
  -27.6022  -32.4468   25.7563 C   0  0  0  0  0  0
  -27.5574  -37.1764   24.8490 C   0  0  0  0  0  0
  -21.4243  -29.3092   22.3643 N   0  0  0  0  0  0
  -26.4284  -37.3784   23.9458 N   0  0  0  0  0  0
  -24.7027  -31.0490   22.1019 N   0  0  0  0  0  0
  -23.4173  -28.8202   23.3083 O   0  0  0  0  0  0
  -28.2833  -26.3212   20.2070 O   0  0  0  0  0  0
  -26.5642  -34.8924   22.4677 O   0  0  0  0  0  0
  -23.5500  -32.1427   23.7262 O   0  0  0  0  0  0
  -29.6623  -18.4861   20.7441 C   0  0  0  0  0  0
  -29.0796  -18.5604   18.0178 C   0  0  0  0  0  0
  -29.1950  -19.7852   18.7298 C   0  0  0  0  0  0
  -29.4364  -17.3195   18.6188 C   0  0  0  0  0  0
  -29.4323  -19.7979   20.1376 C   0  0  0  0  0  0
  -29.7142  -17.2240   20.0156 C   0  0  0  0  0  0
  -30.2489  -24.0150   20.4097 C   0  0  0  0  0  0
  -28.9426  -23.6691   20.5192 C   0  0  0  0  0  0
  -28.5095  -22.2034   20.6976 C   0  0  0  0  0  0
  -31.4180  -23.1160   20.4491 C   0  0  0  0  0  0
  -27.1747  -21.9692   20.7978 C   0  0  0  0  0  0
  -31.6055  -22.1074   21.5884 C   0  0  0  0  0  0
  -30.3944  -21.2135   21.9373 C   0  0  0  0  0  0
  -28.5249  -18.5668   16.5827 C   0  0  0  0  0  0
  -29.1003  -21.0807   17.9209 C   0  0  0  0  0  0
  -29.5099  -16.0759   17.7394 C   0  0  0  0  0  0
  -26.4474  -20.6582   21.0861 C   0  0  0  0  0  0
  -27.8937  -24.8674   20.3686 C   0  0  0  0  0  0
  -29.4079  -21.0775   20.8578 N   0  0  0  0  0  0
  -29.7893  -15.8692   20.6590 N   0  0  0  0  0  0
  -32.3128  -23.2012   19.6008 O   0  0  0  0  0  0
  -31.4702  -12.5716   19.1674 H   0  0  0  0  0  0
  -30.3724  -11.4642   19.9436 H   0  0  0  0  0  0
  -29.7592  -11.7142   17.5282 H   0  0  0  0  0  0
  -29.6694  -13.4293   17.7053 H   0  0  0  0  0  0
  -27.8324  -11.3223   18.8647 H   0  0  0  0  0  0
  -27.3738  -12.6198   17.7931 H   0  0  0  0  0  0
  -27.6276  -14.2785   19.5544 H   0  0  0  0  0  0
  -28.7245  -12.1156   21.3970 H   0  0  0  0  0  0
  -28.4438  -13.7769   21.8451 H   0  0  0  0  0  0
  -25.2659   -9.5724   22.4730 H   0  0  0  0  0  0
  -24.0128   -7.4600   22.7206 H   0  0  0  0  0  0
  -21.0797   -8.8721   19.8828 H   0  0  0  0  0  0
  -22.3643  -10.9664   19.6060 H   0  0  0  0  0  0
  -21.1985   -7.6099   23.9764 H   0  0  0  0  0  0
  -21.1396   -6.0341   25.9047 H   0  0  0  0  0  0
  -22.0679   -2.7621   23.2743 H   0  0  0  0  0  0
  -22.4097  -11.9701   22.4719 H   0  0  0  0  0  0
  -21.1119  -13.1157   22.2917 H   0  0  0  0  0  0
  -24.6374  -15.8498   20.5681 H   0  0  0  0  0  0
  -26.2907  -15.6703   20.2699 H   0  0  0  0  0  0
  -26.7254  -32.5354   23.1109 H   0  0  0  0  0  0
  -25.0159  -33.9715   25.0437 H   0  0  0  0  0  0
  -22.7355  -31.3087   21.3971 H   0  0  0  0  0  0
  -23.3796  -35.9509   23.3300 H   0  0  0  0  0  0
  -24.3563  -36.8924   22.2088 H   0  0  0  0  0  0
  -23.7128  -37.6389   23.6724 H   0  0  0  0  0  0
  -26.1518  -31.5174   20.6315 H   0  0  0  0  0  0
  -26.8501  -30.7809   22.0438 H   0  0  0  0  0  0
  -28.1246  -28.9052   21.2031 H   0  0  0  0  0  0
  -25.9213  -25.9425   18.9402 H   0  0  0  0  0  0
  -23.9652  -27.3345   18.9854 H   0  0  0  0  0  0
  -23.7662  -30.5929   19.4049 H   0  0  0  0  0  0
  -22.7641  -29.2485   19.8618 H   0  0  0  0  0  0
  -25.1296  -36.1938   25.0820 H   0  0  0  0  0  0
  -20.9993  -28.3340   24.1348 H   0  0  0  0  0  0
  -20.5746  -26.2388   23.3631 H   0  0  0  0  0  0
  -21.6631  -26.7518   22.1132 H   0  0  0  0  0  0
  -19.6883  -25.6276   21.1342 H   0  0  0  0  0  0
  -19.6656  -27.3160   20.6720 H   0  0  0  0  0  0
  -17.4194  -26.6798   21.4035 H   0  0  0  0  0  0
  -18.0283  -26.0076   22.9008 H   0  0  0  0  0  0
  -19.7957  -30.7358   24.2234 H   0  0  0  0  0  0
  -17.5030  -31.6330   24.5168 H   0  0  0  0  0  0
  -15.5380  -30.3021   23.7713 H   0  0  0  0  0  0
  -15.8699  -28.0834   22.7202 H   0  0  0  0  0  0
  -24.5886  -30.7089   25.7717 H   0  0  0  0  0  0
  -24.8846  -32.2855   26.4970 H   0  0  0  0  0  0
  -25.7968  -30.8814   27.0240 H   0  0  0  0  0  0
  -26.3085  -29.6789   24.1394 H   0  0  0  0  0  0
  -27.4121  -29.7440   25.4946 H   0  0  0  0  0  0
  -27.8933  -30.4440   23.9678 H   0  0  0  0  0  0
  -27.2623  -33.3821   26.2030 H   0  0  0  0  0  0
  -28.3831  -32.6995   25.0377 H   0  0  0  0  0  0
  -28.0690  -31.8707   26.5564 H   0  0  0  0  0  0
  -28.2552  -38.0092   24.7677 H   0  0  0  0  0  0
  -28.1110  -36.2663   24.6191 H   0  0  0  0  0  0
  -27.2307  -37.1260   25.8880 H   0  0  0  0  0  0
  -20.9502  -29.8752   21.6753 H   0  0  0  0  0  0
  -26.0169  -38.2850   24.1518 H   0  0  0  0  0  0
  -29.7652  -18.4406   21.8185 H   0  0  0  0  0  0
  -30.4907  -25.0511   20.2386 H   0  0  0  0  0  0
  -26.4725  -22.7847   20.7186 H   0  0  0  0  0  0
  -31.9427  -22.6493   22.4737 H   0  0  0  0  0  0
  -32.4433  -21.4693   21.3065 H   0  0  0  0  0  0
  -29.8921  -21.6136   22.8224 H   0  0  0  0  0  0
  -30.7864  -20.2534   22.2641 H   0  0  0  0  0  0
  -27.9976  -19.4760   16.2921 H   0  0  0  0  0  0
  -27.7643  -17.7903   16.4794 H   0  0  0  0  0  0
  -29.3122  -18.3902   15.8488 H   0  0  0  0  0  0
  -29.5730  -20.9606   16.9454 H   0  0  0  0  0  0
  -29.6257  -21.9150   18.3769 H   0  0  0  0  0  0
  -28.0604  -21.3668   17.7743 H   0  0  0  0  0  0
  -29.3789  -16.2451   16.6748 H   0  0  0  0  0  0
  -28.7417  -15.3678   18.0291 H   0  0  0  0  0  0
  -30.4952  -15.6207   17.8182 H   0  0  0  0  0  0
  -27.0929  -19.7881   21.1299 H   0  0  0  0  0  0
  -25.6871  -20.4624   20.3295 H   0  0  0  0  0  0
  -25.9341  -20.7142   22.0461 H   0  0  0  0  0  0
  -27.2366  -24.8252   21.2376 H   0  0  0  0  0  0
  -27.3016  -24.5566   19.5103 H   0  0  0  0  0  0
  -28.9203  -15.6044   21.0956 H   0  0  0  0  0  0
  1 25  1  0  0  0
  1 30  2  0  0  0
  1 90  1  0  0  0
  2  3  1  0  0  0
  2 25  1  0  0  0
  2 92  1  0  0  0
  2 93  1  0  0  0
  3  4  1  0  0  0
  3 94  1  0  0  0
  3 95  1  0  0  0
  4  5  1  0  0  0
  4 96  1  0  0  0
  4 97  1  0  0  0
  5  6  1  0  0  0
  5 26  1  0  0  0
  5 98  1  0  0  0
  6 25  1  0  0  0
  6 99  1  0  0  0
  6100  1  0  0  0
  7  8  2  0  0  0
  7 26  1  0  0  0
  7 29  1  0  0  0
  8  9  1  0  0  0
  8 22  1  0  0  0
  9 10  1  0  0  0
  9 27  2  0  0  0
 10 11  2  0  0  0
 10 15  1  0  0  0
 11 12  1  0  0  0
 11101  1  0  0  0
 12 13  2  0  0  0
 12102  1  0  0  0
 13 14  1  0  0  0
 13 31  1  0  0  0
 14 15  2  0  0  0
 14103  1  0  0  0
 15104  1  0  0  0
 16 17  2  0  0  0
 16 21  1  0  0  0
 16 31  1  0  0  0
 17 18  1  0  0  0
 17105  1  0  0  0
 18 19  2  0  0  0
 18106  1  0  0  0
 19 20  1  0  0  0
 19 24  1  0  0  0
 20 21  2  0  0  0
 20107  1  0  0  0
 21 23  1  0  0  0
 22 28  1  0  0  0
 22 32  2  0  0  0
 26 27  1  0  0  0
 28108  1  0  0  0
 28109  1  0  0  0
 29110  1  0  0  0
 29111  1  0  0  0
 33 34  1  0  0  0
 33 66  1  0  0  0
 33 70  2  0  0  0
 34 36  1  0  0  0
 34 59  1  0  0  0
 34112  1  0  0  0
 35 44  2  0  0  0
 35 45  1  0  0  0
 35 68  1  0  0  0
 36 56  1  0  0  0
 36113  1  0  0  0
 37 39  1  0  0  0
 37 47  1  0  0  0
 37 66  1  0  0  0
 37114  1  0  0  0
 38 43  2  0  0  0
 38 46  1  0  0  0
 38 47  1  0  0  0
 39 64  1  0  0  0
 39 67  2  0  0  0
 40 52  1  0  0  0
 40 53  2  0  0  0
 40 58  1  0  0  0
 41115  1  0  0  0
 41116  1  0  0  0
 41117  1  0  0  0
 41 48  1  0  0  0
 42 43  1  0  0  0
 42 66  1  0  0  0
 42118  1  0  0  0
 42119  1  0  0  0
 43 44  1  0  0  0
 44120  1  0  0  0
 45 46  2  0  0  0
 45121  1  0  0  0
 46122  1  0  0  0
 47123  1  0  0  0
 47124  1  0  0  0
 48 56  1  0  0  0
 48 65  1  0  0  0
 48125  1  0  0  0
 49 50  1  0  0  0
 49 53  1  0  0  0
 49 64  1  0  0  0
 49126  1  0  0  0
 50 51  1  0  0  0
 50127  1  0  0  0
 50128  1  0  0  0
 51 52  1  0  0  0
 51129  1  0  0  0
 51130  1  0  0  0
 52131  1  0  0  0
 52132  1  0  0  0
 53 54  1  0  0  0
 54 55  2  0  0  0
 54133  1  0  0  0
 55 57  1  0  0  0
 55134  1  0  0  0
 56 69  2  0  0  0
 57 58  2  0  0  0
 57135  1  0  0  0
 58136  1  0  0  0
 59 60  1  0  0  0
 59 61  1  0  0  0
 59 62  1  0  0  0
 60137  1  0  0  0
 60138  1  0  0  0
 60139  1  0  0  0
 61140  1  0  0  0
 61141  1  0  0  0
 61142  1  0  0  0
 62143  1  0  0  0
 62144  1  0  0  0
 62145  1  0  0  0
 63 65  1  0  0  0
 63146  1  0  0  0
 63147  1  0  0  0
 63148  1  0  0  0
 64149  1  0  0  0
 65150  1  0  0  0
 68 88  1  0  0  0
 71 75  2  0  0  0
 71 76  1  0  0  0
 71151  1  0  0  0
 72 73  2  0  0  0
 72 74  1  0  0  0
 72 84  1  0  0  0
 73 75  1  0  0  0
 73 85  1  0  0  0
 74 76  2  0  0  0
 74 86  1  0  0  0
 75 89  1  0  0  0
 76 90  1  0  0  0
 77 78  2  0  0  0
 77 80  1  0  0  0
 77152  1  0  0  0
 78 79  1  0  0  0
 78 88  1  0  0  0
 79 81  2  0  0  0
 79 89  1  0  0  0
 80 82  1  0  0  0
 80 91  2  0  0  0
 81 87  1  0  0  0
 81153  1  0  0  0
 82 83  1  0  0  0
 82154  1  0  0  0
 82155  1  0  0  0
 83 89  1  0  0  0
 83156  1  0  0  0
 83157  1  0  0  0
 84158  1  0  0  0
 84159  1  0  0  0
 84160  1  0  0  0
 85161  1  0  0  0
 85162  1  0  0  0
 85163  1  0  0  0
 86164  1  0  0  0
 86165  1  0  0  0
 86166  1  0  0  0
 87167  1  0  0  0
 87168  1  0  0  0
 87169  1  0  0  0
 88170  1  0  0  0
 88171  1  0  0  0
 90172  1  0  0  0
M  ISO  4   1 100  68 101  88 101  90 100
M  END
> <chiral flag>
0

> <version>
0

> <s_m_source_file>
/data/baiqing/PycharmProjects/Reinvent-master-3.2/result/LINK_invent/BTK/process_docking_weight1_custom_product_contain_oxygen_bond_distance_aromatic_linkinvent_7_9_3/rearranged_h_0112.sdf

> <i_m_source_file_index>
51

> <r_mmod_Potential_Energy-OPLS-2005>
259.486572265625

> <r_mmod_Stretch_Energy-OPLS-2005>
151.324172973633

> <r_mmod_Bend_Energy-OPLS-2005>
191.463745117188

> <r_mmod_Torsional_Energy-OPLS-2005>
298.243499755859

> <r_mmod_Improper_Torsional_Energy-OPLS-2005>
7.08273935317993

> <r_mmod_Van_der_Waal_Energy-OPLS-2005>
179.672714233398

> <r_mmod_Electrostatic_Energy-OPLS-2005>
-439.5439453125

> <r_mmod_Solvation_Energy-OPLS-2005>
-222.321762084961

> <b_mmod_Minimization_Converged-OPLS-2005>
0

> <r_mmod_RMS_Derivative-OPLS-2005>
6.89512395858765

$$$$
52
                    3D
 Structure written by MMmdl.
168177  0  0  1  0            999 V2000
  -30.6139  -14.6515   20.5157 C   0  0  0  0  0  0
  -30.4404  -12.4046   19.4562 C   0  0  0  0  0  0
  -29.5103  -12.5192   18.2275 C   0  0  0  0  0  0
  -28.0338  -12.3507   18.6369 C   0  0  0  0  0  0
  -27.6550  -13.2182   19.8664 C   0  0  2  0  0  0
  -28.6971  -13.0679   20.9973 C   0  0  0  0  0  0
  -25.2568  -13.8173   20.5674 C   0  0  0  0  0  0
  -24.1830  -13.0441   20.9174 C   0  0  0  0  0  0
  -24.6396  -11.6911   20.8726 C   0  0  0  0  0  0
  -23.9061  -10.4296   21.0397 C   0  0  0  0  0  0
  -24.3612   -9.4212   21.9176 C   0  0  0  0  0  0
  -23.6288   -8.2248   22.0751 C   0  0  0  0  0  0
  -22.4270   -8.0282   21.3544 C   0  0  0  0  0  0
  -21.9901   -9.0256   20.4649 C   0  0  0  0  0  0
  -22.7228  -10.2135   20.3053 C   0  0  0  0  0  0
  -21.6855   -6.0731   22.5277 C   0  0  0  0  0  0
  -21.4017   -6.5636   23.8209 C   0  0  0  0  0  0
  -21.3660   -5.6789   24.9172 C   0  0  0  0  0  0
  -21.6042   -4.3053   24.7224 C   0  0  0  0  0  0
  -21.8820   -3.8143   23.4347 C   0  0  0  0  0  0
  -21.9194   -4.6959   22.3400 C   0  0  0  0  0  0
  -22.7854  -13.5241   21.1842 C   0  0  0  0  0  0
  -22.1663   -4.2144   21.0979 F   0  0  0  0  0  0
  -21.5627   -3.4538   25.7739 F   0  0  0  0  0  0
  -30.0133  -13.4200   20.4407 N   0  0  0  0  0  0
  -26.2997  -12.9355   20.3318 N   0  0  0  0  0  0
  -25.9325  -11.6508   20.5744 N   0  0  0  0  0  0
  -22.0495  -12.8242   22.0405 N   0  0  0  0  0  0
  -25.4303  -15.1892   20.4092 N   0  0  0  0  0  0
  -31.7599  -14.8312   20.0912 O   0  0  0  0  0  0
  -21.6641   -6.8874   21.4238 O   0  0  0  0  0  0
  -22.3542  -14.5549   20.6694 O   0  0  0  0  0  0
  -24.6265  -31.8590   23.2018 C   0  0  0  0  0  0
  -25.9109  -32.4775   23.8351 C   0  0  1  0  0  0
  -27.2232  -27.3129   20.1283 C   0  0  0  0  0  0
  -25.5923  -33.8575   24.2279 N   0  0  0  0  0  0
  -23.4212  -30.4815   21.5443 C   0  0  2  0  0  0
  -24.8693  -28.9346   20.1124 C   0  0  0  0  0  0
  -22.7479  -29.4615   22.4935 C   0  0  0  0  0  0
  -18.0288  -28.1386   22.8484 C   0  0  0  0  0  0
  -24.1490  -36.7294   23.2637 C   0  0  0  0  0  0
  -25.9623  -30.7887   21.3740 C   0  0  0  0  0  0
  -26.0377  -29.4146   20.7186 C   0  0  0  0  0  0
  -27.2203  -28.6160   20.7149 C   0  0  0  0  0  0
  -26.0385  -26.8904   19.4876 C   0  0  0  0  0  0
  -24.8717  -27.6781   19.4865 C   0  0  0  0  0  0
  -23.6370  -29.8147   20.1601 C   0  0  0  0  0  0
  -25.4112  -36.3081   24.0329 C   0  0  1  0  0  0
  -20.5887  -28.3689   23.1283 C   0  0  2  0  0  0
  -20.6776  -26.9409   22.5415 C   0  0  0  0  0  0
  -19.5756  -26.6384   21.5212 C   0  0  0  0  0  0
  -18.1932  -26.7931   22.1615 C   0  0  0  0  0  0
  -19.1539  -28.8854   23.2879 C   0  0  0  0  0  0
  -18.9462  -30.1456   23.8895 C   0  0  0  0  0  0
  -17.6461  -30.6586   24.0562 C   0  0  0  0  0  0
  -25.9049  -34.9449   23.5104 C   0  0  0  0  0  0
  -16.5353  -29.9083   23.6329 C   0  0  0  0  0  0
  -16.7275  -28.6502   23.0348 C   0  0  0  0  0  0
  -26.4491  -31.6587   25.0725 C   0  0  0  0  0  0
  -25.3727  -31.3741   26.1459 C   0  0  0  0  0  0
  -27.0322  -30.3005   24.6185 C   0  0  0  0  0  0
  -27.6060  -32.4316   25.7484 C   0  0  0  0  0  0
  -27.5583  -37.1797   24.8458 C   0  0  0  0  0  0
  -21.4192  -29.3040   22.3676 N   0  0  0  0  0  0
  -26.4290  -37.3776   23.9408 N   0  0  0  0  0  0
  -24.6887  -31.0599   22.0969 N   0  0  0  0  0  0
  -23.4199  -28.8156   23.3017 O   0  0  0  0  0  0
  -28.3307  -26.4525   20.1520 O   0  0  0  0  0  0
  -26.5619  -34.8916   22.4673 O   0  0  0  0  0  0
  -23.5426  -32.1387   23.7344 O   0  0  0  0  0  0
  -30.2572  -18.0612   21.6958 C   0  0  0  0  0  0
  -29.2255  -19.0483   19.3131 C   0  0  0  0  0  0
  -30.1576  -19.4809   21.5030 C   0  0  0  0  0  0
  -29.6185  -20.0124   20.2874 C   0  0  0  0  0  0
  -29.8717  -17.1115   20.7123 C   0  0  0  0  0  0
  -29.3264  -17.6296   19.5104 C   0  0  0  0  0  0
  -28.9804  -23.8403   20.1142 C   0  0  0  0  0  0
  -28.8228  -22.5039   20.4838 C   0  0  0  0  0  0
  -30.0628  -24.1555   19.1452 C   0  0  0  0  0  0
  -31.0989  -20.0832   23.7755 C   0  0  0  0  0  0
  -27.8103  -22.5682   22.7323 C   0  0  0  0  0  0
  -30.6330  -20.4072   22.5558 C   0  0  0  0  0  0
  -27.8000  -22.1548   21.4550 C   0  0  0  0  0  0
  -31.1239  -23.0836   18.9039 C   0  0  0  0  0  0
  -30.4990  -21.6856   18.8241 C   0  0  0  0  0  0
  -28.2658  -17.1531   17.4026 C   0  0  0  0  0  0
  -28.1059  -25.0597   20.6334 C   0  0  0  0  0  0
  -29.6069  -21.4242   19.9544 N   0  0  0  0  0  0
  -29.8436  -15.6763   20.9979 N   0  0  0  0  0  0
  -30.1675  -25.2203   18.5293 O   0  0  0  0  0  0
  -28.8953  -16.6945   18.5910 O   0  0  0  0  0  0
  -31.4810  -12.5357   19.1544 H   0  0  0  0  0  0
  -30.3808  -11.4072   19.8942 H   0  0  0  0  0  0
  -29.7787  -11.7716   17.4798 H   0  0  0  0  0  0
  -29.6488  -13.4917   17.7520 H   0  0  0  0  0  0
  -27.8736  -11.2965   18.8660 H   0  0  0  0  0  0
  -27.3801  -12.5818   17.7950 H   0  0  0  0  0  0
  -27.6760  -14.2548   19.5298 H   0  0  0  0  0  0
  -28.7110  -12.0433   21.3713 H   0  0  0  0  0  0
  -28.4342  -13.6893   21.8544 H   0  0  0  0  0  0
  -25.2756   -9.5692   22.4749 H   0  0  0  0  0  0
  -24.0000   -7.4640   22.7472 H   0  0  0  0  0  0
  -21.0828   -8.8772   19.8959 H   0  0  0  0  0  0
  -22.3680  -10.9671   19.6165 H   0  0  0  0  0  0
  -21.2013   -7.6144   23.9712 H   0  0  0  0  0  0
  -21.1479   -6.0520   25.9074 H   0  0  0  0  0  0
  -22.0599   -2.7605   23.2851 H   0  0  0  0  0  0
  -22.4102  -11.9906   22.4801 H   0  0  0  0  0  0
  -21.1116  -13.1283   22.2610 H   0  0  0  0  0  0
  -24.6650  -15.8457   20.5179 H   0  0  0  0  0  0
  -26.2823  -15.6256   20.0810 H   0  0  0  0  0  0
  -26.7178  -32.5444   23.1101 H   0  0  0  0  0  0
  -25.0073  -33.9718   25.0425 H   0  0  0  0  0  0
  -22.7154  -31.3019   21.3997 H   0  0  0  0  0  0
  -23.3751  -35.9627   23.3293 H   0  0  0  0  0  0
  -24.3588  -36.8923   22.2054 H   0  0  0  0  0  0
  -23.7242  -37.6493   23.6665 H   0  0  0  0  0  0
  -26.0938  -31.5515   20.6053 H   0  0  0  0  0  0
  -26.8423  -30.8388   22.0036 H   0  0  0  0  0  0
  -28.1176  -28.9794   21.1960 H   0  0  0  0  0  0
  -26.0044  -25.9336   18.9866 H   0  0  0  0  0  0
  -23.9788  -27.3081   19.0016 H   0  0  0  0  0  0
  -23.7560  -30.5898   19.4021 H   0  0  0  0  0  0
  -22.7576  -29.2430   19.8585 H   0  0  0  0  0  0
  -25.1289  -36.1935   25.0820 H   0  0  0  0  0  0
  -20.9978  -28.3267   24.1404 H   0  0  0  0  0  0
  -20.5669  -26.2297   23.3616 H   0  0  0  0  0  0
  -21.6648  -26.7436   22.1215 H   0  0  0  0  0  0
  -19.6916  -25.6292   21.1247 H   0  0  0  0  0  0
  -19.6699  -27.3192   20.6742 H   0  0  0  0  0  0
  -17.4206  -26.6687   21.4011 H   0  0  0  0  0  0
  -18.0321  -26.0071   22.9007 H   0  0  0  0  0  0
  -19.7937  -30.7276   24.2262 H   0  0  0  0  0  0
  -17.5014  -31.6266   24.5165 H   0  0  0  0  0  0
  -15.5352  -30.2983   23.7654 H   0  0  0  0  0  0
  -15.8676  -28.0821   22.7061 H   0  0  0  0  0  0
  -24.5905  -30.7076   25.7805 H   0  0  0  0  0  0
  -24.8911  -32.2913   26.4861 H   0  0  0  0  0  0
  -25.8055  -30.8947   27.0248 H   0  0  0  0  0  0
  -26.2889  -29.6764   24.1209 H   0  0  0  0  0  0
  -27.4009  -29.7257   25.4691 H   0  0  0  0  0  0
  -27.8768  -30.4281   23.9411 H   0  0  0  0  0  0
  -27.2682  -33.3619   26.2063 H   0  0  0  0  0  0
  -28.3862  -32.6870   25.0301 H   0  0  0  0  0  0
  -28.0736  -31.8440   26.5395 H   0  0  0  0  0  0
  -28.2596  -38.0097   24.7511 H   0  0  0  0  0  0
  -28.1082  -36.2632   24.6268 H   0  0  0  0  0  0
  -27.2310  -37.1432   25.8863 H   0  0  0  0  0  0
  -20.9371  -29.8764   21.6887 H   0  0  0  0  0  0
  -26.0174  -38.2850   24.1414 H   0  0  0  0  0  0
  -30.6409  -17.6725   22.6256 H   0  0  0  0  0  0
  -28.8294  -19.4333   18.3866 H   0  0  0  0  0  0
  -31.4200  -20.8589   24.4562 H   0  0  0  0  0  0
  -31.1737  -19.0668   24.1305 H   0  0  0  0  0  0
  -27.0220  -22.2832   23.4142 H   0  0  0  0  0  0
  -28.6041  -23.1905   23.1202 H   0  0  0  0  0  0
  -30.6065  -21.4596   22.3129 H   0  0  0  0  0  0
  -26.9803  -21.5285   21.1288 H   0  0  0  0  0  0
  -31.8388  -23.1245   19.7254 H   0  0  0  0  0  0
  -31.6734  -23.3037   17.9888 H   0  0  0  0  0  0
  -31.2994  -20.9447   18.7786 H   0  0  0  0  0  0
  -29.9320  -21.5903   17.8968 H   0  0  0  0  0  0
  -27.9499  -16.2944   16.8104 H   0  0  0  0  0  0
  -28.9500  -17.7412   16.7894 H   0  0  0  0  0  0
  -27.3760  -17.7452   17.6217 H   0  0  0  0  0  0
  -28.2578  -25.1117   21.7109 H   0  0  0  0  0  0
  -27.0662  -24.7588   20.5163 H   0  0  0  0  0  0
  -28.9668  -15.3514   21.3747 H   0  0  0  0  0  0
  1 25  1  0  0  0
  1 30  2  0  0  0
  1 89  1  0  0  0
  2  3  1  0  0  0
  2 25  1  0  0  0
  2 92  1  0  0  0
  2 93  1  0  0  0
  3  4  1  0  0  0
  3 94  1  0  0  0
  3 95  1  0  0  0
  4  5  1  0  0  0
  4 96  1  0  0  0
  4 97  1  0  0  0
  5  6  1  0  0  0
  5 26  1  0  0  0
  5 98  1  0  0  0
  6 25  1  0  0  0
  6 99  1  0  0  0
  6100  1  0  0  0
  7  8  2  0  0  0
  7 26  1  0  0  0
  7 29  1  0  0  0
  8  9  1  0  0  0
  8 22  1  0  0  0
  9 10  1  0  0  0
  9 27  2  0  0  0
 10 11  2  0  0  0
 10 15  1  0  0  0
 11 12  1  0  0  0
 11101  1  0  0  0
 12 13  2  0  0  0
 12102  1  0  0  0
 13 14  1  0  0  0
 13 31  1  0  0  0
 14 15  2  0  0  0
 14103  1  0  0  0
 15104  1  0  0  0
 16 17  2  0  0  0
 16 21  1  0  0  0
 16 31  1  0  0  0
 17 18  1  0  0  0
 17105  1  0  0  0
 18 19  2  0  0  0
 18106  1  0  0  0
 19 20  1  0  0  0
 19 24  1  0  0  0
 20 21  2  0  0  0
 20107  1  0  0  0
 21 23  1  0  0  0
 22 28  1  0  0  0
 22 32  2  0  0  0
 26 27  1  0  0  0
 28108  1  0  0  0
 28109  1  0  0  0
 29110  1  0  0  0
 29111  1  0  0  0
 33 34  1  0  0  0
 33 66  1  0  0  0
 33 70  2  0  0  0
 34 36  1  0  0  0
 34 59  1  0  0  0
 34112  1  0  0  0
 35 44  2  0  0  0
 35 45  1  0  0  0
 35 68  1  0  0  0
 36 56  1  0  0  0
 36113  1  0  0  0
 37 39  1  0  0  0
 37 47  1  0  0  0
 37 66  1  0  0  0
 37114  1  0  0  0
 38 43  2  0  0  0
 38 46  1  0  0  0
 38 47  1  0  0  0
 39 64  1  0  0  0
 39 67  2  0  0  0
 40 52  1  0  0  0
 40 53  2  0  0  0
 40 58  1  0  0  0
 41115  1  0  0  0
 41116  1  0  0  0
 41117  1  0  0  0
 41 48  1  0  0  0
 42 43  1  0  0  0
 42 66  1  0  0  0
 42118  1  0  0  0
 42119  1  0  0  0
 43 44  1  0  0  0
 44120  1  0  0  0
 45 46  2  0  0  0
 45121  1  0  0  0
 46122  1  0  0  0
 47123  1  0  0  0
 47124  1  0  0  0
 48 56  1  0  0  0
 48 65  1  0  0  0
 48125  1  0  0  0
 49 50  1  0  0  0
 49 53  1  0  0  0
 49 64  1  0  0  0
 49126  1  0  0  0
 50 51  1  0  0  0
 50127  1  0  0  0
 50128  1  0  0  0
 51 52  1  0  0  0
 51129  1  0  0  0
 51130  1  0  0  0
 52131  1  0  0  0
 52132  1  0  0  0
 53 54  1  0  0  0
 54 55  2  0  0  0
 54133  1  0  0  0
 55 57  1  0  0  0
 55134  1  0  0  0
 56 69  2  0  0  0
 57 58  2  0  0  0
 57135  1  0  0  0
 58136  1  0  0  0
 59 60  1  0  0  0
 59 61  1  0  0  0
 59 62  1  0  0  0
 60137  1  0  0  0
 60138  1  0  0  0
 60139  1  0  0  0
 61140  1  0  0  0
 61141  1  0  0  0
 61142  1  0  0  0
 62143  1  0  0  0
 62144  1  0  0  0
 62145  1  0  0  0
 63 65  1  0  0  0
 63146  1  0  0  0
 63147  1  0  0  0
 63148  1  0  0  0
 64149  1  0  0  0
 65150  1  0  0  0
 68 87  1  0  0  0
 71 73  2  0  0  0
 71 75  1  0  0  0
 71151  1  0  0  0
 72 74  2  0  0  0
 72 76  1  0  0  0
 72152  1  0  0  0
 73 74  1  0  0  0
 73 82  1  0  0  0
 74 88  1  0  0  0
 75 76  2  0  0  0
 75 89  1  0  0  0
 76 91  1  0  0  0
 77 78  2  0  0  0
 77 79  1  0  0  0
 77 87  1  0  0  0
 78 83  1  0  0  0
 78 88  1  0  0  0
 79 84  1  0  0  0
 79 90  2  0  0  0
 80 82  2  0  0  0
 80153  1  0  0  0
 80154  1  0  0  0
 81 83  2  0  0  0
 81155  1  0  0  0
 81156  1  0  0  0
 82157  1  0  0  0
 83158  1  0  0  0
 84 85  1  0  0  0
 84159  1  0  0  0
 84160  1  0  0  0
 85 88  1  0  0  0
 85161  1  0  0  0
 85162  1  0  0  0
 86 91  1  0  0  0
 86163  1  0  0  0
 86164  1  0  0  0
 86165  1  0  0  0
 87166  1  0  0  0
 87167  1  0  0  0
 89168  1  0  0  0
M  ISO  4   1 100  68 101  87 101  89 100
M  END
> <chiral flag>
0

> <version>
0

> <s_m_source_file>
/data/baiqing/PycharmProjects/Reinvent-master-3.2/result/LINK_invent/BTK/process_docking_weight1_custom_product_contain_oxygen_bond_distance_aromatic_linkinvent_7_9_3/rearranged_h_0112.sdf

> <i_m_source_file_index>
52

> <r_mmod_Potential_Energy-OPLS-2005>
104.303092956543

> <r_mmod_Stretch_Energy-OPLS-2005>
94.3697662353516

> <r_mmod_Bend_Energy-OPLS-2005>
145.035751342773

> <r_mmod_Torsional_Energy-OPLS-2005>
282.056884765625

> <r_mmod_Improper_Torsional_Energy-OPLS-2005>
5.23222684860229

> <r_mmod_Van_der_Waal_Energy-OPLS-2005>
160.39665222168

> <r_mmod_Electrostatic_Energy-OPLS-2005>
-406.567260742188

> <r_mmod_Solvation_Energy-OPLS-2005>
-227.704803466797

> <b_mmod_Minimization_Converged-OPLS-2005>
0

> <r_mmod_RMS_Derivative-OPLS-2005>
0.536091148853302

$$$$
53
                    3D
 Structure written by MMmdl.
158166  0  0  1  0            999 V2000
  -30.6937  -14.5235   20.5015 C   0  0  0  0  0  0
  -30.4206  -12.3248   19.4260 C   0  0  0  0  0  0
  -29.4889  -12.4884   18.2072 C   0  0  0  0  0  0
  -28.0126  -12.3456   18.6258 C   0  0  0  0  0  0
  -27.6523  -13.2098   19.8658 C   0  0  2  0  0  0
  -28.7018  -13.0428   20.9878 C   0  0  0  0  0  0
  -25.2530  -13.8131   20.5717 C   0  0  0  0  0  0
  -24.1782  -13.0409   20.9172 C   0  0  0  0  0  0
  -24.6355  -11.6884   20.8738 C   0  0  0  0  0  0
  -23.9033  -10.4271   21.0398 C   0  0  0  0  0  0
  -24.3593   -9.4193   21.9176 C   0  0  0  0  0  0
  -23.6270   -8.2229   22.0758 C   0  0  0  0  0  0
  -22.4256   -8.0261   21.3548 C   0  0  0  0  0  0
  -21.9889   -9.0224   20.4649 C   0  0  0  0  0  0
  -22.7209  -10.2105   20.3047 C   0  0  0  0  0  0
  -21.6848   -6.0721   22.5270 C   0  0  0  0  0  0
  -21.4005   -6.5631   23.8203 C   0  0  0  0  0  0
  -21.3645   -5.6785   24.9165 C   0  0  0  0  0  0
  -21.6046   -4.3049   24.7215 C   0  0  0  0  0  0
  -21.8825   -3.8142   23.4338 C   0  0  0  0  0  0
  -21.9193   -4.6952   22.3397 C   0  0  0  0  0  0
  -22.7801  -13.5225   21.1821 C   0  0  0  0  0  0
  -22.1664   -4.2146   21.0968 F   0  0  0  0  0  0
  -21.5623   -3.4522   25.7724 F   0  0  0  0  0  0
  -30.0249  -13.3392   20.4162 N   0  0  0  0  0  0
  -26.2980  -12.9329   20.3376 N   0  0  0  0  0  0
  -25.9300  -11.6493   20.5813 N   0  0  0  0  0  0
  -22.0437  -12.8254   22.0399 N   0  0  0  0  0  0
  -25.4162  -15.1847   20.4201 N   0  0  0  0  0  0
  -31.8611  -14.6426   20.1281 O   0  0  0  0  0  0
  -21.6629   -6.8853   21.4233 O   0  0  0  0  0  0
  -22.3494  -14.5531   20.6661 O   0  0  0  0  0  0
  -24.6170  -31.8662   23.2045 C   0  0  0  0  0  0
  -25.9048  -32.4814   23.8362 C   0  0  1  0  0  0
  -27.2388  -27.4094   20.1008 C   0  0  0  0  0  0
  -25.5894  -33.8613   24.2301 N   0  0  0  0  0  0
  -23.4063  -30.4872   21.5459 C   0  0  2  0  0  0
  -24.8553  -28.9438   20.1159 C   0  0  0  0  0  0
  -22.7414  -29.4654   22.4966 C   0  0  0  0  0  0
  -18.0278  -28.1333   22.8508 C   0  0  0  0  0  0
  -24.1491  -36.7316   23.2638 C   0  0  0  0  0  0
  -25.9385  -30.8224   21.3616 C   0  0  0  0  0  0
  -26.0174  -29.4546   20.7077 C   0  0  0  0  0  0
  -27.2154  -28.6987   20.6881 C   0  0  0  0  0  0
  -26.0578  -26.9146   19.5095 C   0  0  0  0  0  0
  -24.8717  -27.6746   19.5108 C   0  0  0  0  0  0
  -23.6166  -29.8122   20.1650 C   0  0  0  0  0  0
  -25.4115  -36.3108   24.0334 C   0  0  1  0  0  0
  -20.5877  -28.3661   23.1304 C   0  0  2  0  0  0
  -20.6773  -26.9364   22.5477 C   0  0  0  0  0  0
  -19.5751  -26.6354   21.5261 C   0  0  0  0  0  0
  -18.1945  -26.7856   22.1697 C   0  0  0  0  0  0
  -19.1520  -28.8806   23.2909 C   0  0  0  0  0  0
  -18.9436  -30.1394   23.8929 C   0  0  0  0  0  0
  -17.6434  -30.6526   24.0594 C   0  0  0  0  0  0
  -25.9037  -34.9473   23.5116 C   0  0  0  0  0  0
  -16.5332  -29.9040   23.6317 C   0  0  0  0  0  0
  -16.7262  -28.6461   23.0329 C   0  0  0  0  0  0
  -26.4470  -31.6604   25.0706 C   0  0  0  0  0  0
  -25.3721  -31.3723   26.1446 C   0  0  0  0  0  0
  -27.0300  -30.3033   24.6120 C   0  0  0  0  0  0
  -27.6032  -32.4341   25.7483 C   0  0  0  0  0  0
  -27.5587  -37.1824   24.8466 C   0  0  0  0  0  0
  -21.4142  -29.3024   22.3689 N   0  0  0  0  0  0
  -26.4305  -37.3792   23.9398 N   0  0  0  0  0  0
  -24.6721  -31.0746   22.0950 N   0  0  0  0  0  0
  -23.4176  -28.8213   23.3026 O   0  0  0  0  0  0
  -28.4004  -26.6563   20.0808 O   0  0  0  0  0  0
  -26.5610  -34.8938   22.4694 O   0  0  0  0  0  0
  -23.5358  -32.1407   23.7442 O   0  0  0  0  0  0
  -31.5763  -17.4465   21.1328 C   0  0  0  0  0  0
  -31.0152  -19.7623   20.5980 C   0  0  0  0  0  0
  -29.3828  -17.9824   20.1989 C   0  0  0  0  0  0
  -30.3078  -17.0060   20.6924 C   0  0  0  0  0  0
  -29.7334  -19.3749   20.1493 C   0  0  0  0  0  0
  -31.9266  -18.8064   21.0788 C   0  0  0  0  0  0
  -26.8909  -18.1623   19.9424 C   0  0  0  0  0  0
  -28.0565  -17.5257   19.7398 C   0  0  0  0  0  0
  -28.7512  -24.1930   19.6007 C   0  0  0  0  0  0
  -28.8024  -22.7548   20.2102 C   0  0  0  0  0  0
  -28.3192  -25.3070   20.6011 C   0  0  0  0  0  0
  -29.1966  -21.6221   19.2190 C   0  0  0  0  0  0
  -29.9400  -15.6105   20.8033 N   0  0  0  0  0  0
  -28.8125  -20.3033   19.6669 O   0  0  0  0  0  0
  -33.1508  -19.2009   21.5014 F   0  0  0  0  0  0
  -31.4632  -12.4210   19.1186 H   0  0  0  0  0  0
  -30.3277  -11.3238   19.8511 H   0  0  0  0  0  0
  -29.7305  -11.7449   17.4460 H   0  0  0  0  0  0
  -29.6491  -13.4629   17.7443 H   0  0  0  0  0  0
  -27.8346  -11.2915   18.8467 H   0  0  0  0  0  0
  -27.3574  -12.5927   17.7900 H   0  0  0  0  0  0
  -27.6765  -14.2476   19.5347 H   0  0  0  0  0  0
  -28.6867  -12.0221   21.3744 H   0  0  0  0  0  0
  -28.4750  -13.6830   21.8419 H   0  0  0  0  0  0
  -25.2730   -9.5682   22.4750 H   0  0  0  0  0  0
  -23.9978   -7.4623   22.7482 H   0  0  0  0  0  0
  -21.0820   -8.8724   19.8956 H   0  0  0  0  0  0
  -22.3647  -10.9631   19.6155 H   0  0  0  0  0  0
  -21.1995   -7.6136   23.9706 H   0  0  0  0  0  0
  -21.1464   -6.0509   25.9069 H   0  0  0  0  0  0
  -22.0627   -2.7603   23.2834 H   0  0  0  0  0  0
  -22.4058  -11.9939   22.4825 H   0  0  0  0  0  0
  -21.1037  -13.1272   22.2571 H   0  0  0  0  0  0
  -24.6400  -15.8257   20.5436 H   0  0  0  0  0  0
  -26.2785  -15.6516   20.1755 H   0  0  0  0  0  0
  -26.7127  -32.5508   23.1122 H   0  0  0  0  0  0
  -25.0032  -33.9762   25.0434 H   0  0  0  0  0  0
  -22.6966  -31.3049   21.4010 H   0  0  0  0  0  0
  -23.3744  -35.9660   23.3310 H   0  0  0  0  0  0
  -24.3572  -36.8924   22.2048 H   0  0  0  0  0  0
  -23.7258  -37.6534   23.6647 H   0  0  0  0  0  0
  -26.0622  -31.5876   20.5947 H   0  0  0  0  0  0
  -26.8222  -30.8715   21.9855 H   0  0  0  0  0  0
  -28.1162  -29.0927   21.1372 H   0  0  0  0  0  0
  -26.0532  -25.9411   19.0404 H   0  0  0  0  0  0
  -23.9798  -27.2741   19.0478 H   0  0  0  0  0  0
  -23.7224  -30.5812   19.3982 H   0  0  0  0  0  0
  -22.7396  -29.2305   19.8736 H   0  0  0  0  0  0
  -25.1298  -36.1972   25.0829 H   0  0  0  0  0  0
  -21.0001  -28.3234   24.1405 H   0  0  0  0  0  0
  -20.5686  -26.2281   23.3710 H   0  0  0  0  0  0
  -21.6641  -26.7415   22.1273 H   0  0  0  0  0  0
  -19.6680  -27.3207   20.6828 H   0  0  0  0  0  0
  -19.6904  -25.6275   21.1271 H   0  0  0  0  0  0
  -17.4162  -26.6513   21.4165 H   0  0  0  0  0  0
  -18.0440  -26.0042   22.9179 H   0  0  0  0  0  0
  -19.7911  -30.7188   24.2332 H   0  0  0  0  0  0
  -17.4979  -31.6185   24.5235 H   0  0  0  0  0  0
  -15.5331  -30.2926   23.7659 H   0  0  0  0  0  0
  -15.8658  -28.0808   22.7006 H   0  0  0  0  0  0
  -24.5883  -30.7098   25.7764 H   0  0  0  0  0  0
  -24.8929  -32.2886   26.4908 H   0  0  0  0  0  0
  -25.8051  -30.8868   27.0193 H   0  0  0  0  0  0
  -26.2847  -29.6809   24.1159 H   0  0  0  0  0  0
  -27.4016  -29.7284   25.4611 H   0  0  0  0  0  0
  -27.8713  -30.4328   23.9305 H   0  0  0  0  0  0
  -27.2628  -33.3623   26.2091 H   0  0  0  0  0  0
  -28.3828  -32.6945   25.0306 H   0  0  0  0  0  0
  -28.0719  -31.8454   26.5378 H   0  0  0  0  0  0
  -28.2624  -38.0108   24.7497 H   0  0  0  0  0  0
  -28.1074  -36.2639   24.6314 H   0  0  0  0  0  0
  -27.2300  -37.1496   25.8871 H   0  0  0  0  0  0
  -20.9285  -29.8675   21.6858 H   0  0  0  0  0  0
  -26.0193  -38.2880   24.1375 H   0  0  0  0  0  0
  -32.2976  -16.7451   21.5290 H   0  0  0  0  0  0
  -31.3203  -20.7974   20.5957 H   0  0  0  0  0  0
  -26.8353  -19.0759   20.5184 H   0  0  0  0  0  0
  -25.9666  -17.7814   19.5349 H   0  0  0  0  0  0
  -28.0436  -16.6152   19.1583 H   0  0  0  0  0  0
  -28.0611  -24.2000   18.7581 H   0  0  0  0  0  0
  -29.7328  -24.4383   19.1925 H   0  0  0  0  0  0
  -27.8210  -22.5215   20.6260 H   0  0  0  0  0  0
  -29.4972  -22.7421   21.0507 H   0  0  0  0  0  0
  -28.9841  -25.2682   21.4633 H   0  0  0  0  0  0
  -27.3267  -25.0823   20.9976 H   0  0  0  0  0  0
  -30.2459  -21.6867   18.9286 H   0  0  0  0  0  0
  -28.6454  -21.7784   18.2900 H   0  0  0  0  0  0
  -28.9656  -15.4212   20.9745 H   0  0  0  0  0  0
  1 25  1  0  0  0
  1 30  2  0  0  0
  1 83  1  0  0  0
  2  3  1  0  0  0
  2 25  1  0  0  0
  2 86  1  0  0  0
  2 87  1  0  0  0
  3  4  1  0  0  0
  3 88  1  0  0  0
  3 89  1  0  0  0
  4  5  1  0  0  0
  4 90  1  0  0  0
  4 91  1  0  0  0
  5  6  1  0  0  0
  5 26  1  0  0  0
  5 92  1  0  0  0
  6 25  1  0  0  0
  6 93  1  0  0  0
  6 94  1  0  0  0
  7  8  2  0  0  0
  7 26  1  0  0  0
  7 29  1  0  0  0
  8  9  1  0  0  0
  8 22  1  0  0  0
  9 10  1  0  0  0
  9 27  2  0  0  0
 10 11  2  0  0  0
 10 15  1  0  0  0
 11 12  1  0  0  0
 11 95  1  0  0  0
 12 13  2  0  0  0
 12 96  1  0  0  0
 13 14  1  0  0  0
 13 31  1  0  0  0
 14 15  2  0  0  0
 14 97  1  0  0  0
 15 98  1  0  0  0
 16 17  2  0  0  0
 16 21  1  0  0  0
 16 31  1  0  0  0
 17 18  1  0  0  0
 17 99  1  0  0  0
 18 19  2  0  0  0
 18100  1  0  0  0
 19 20  1  0  0  0
 19 24  1  0  0  0
 20 21  2  0  0  0
 20101  1  0  0  0
 21 23  1  0  0  0
 22 28  1  0  0  0
 22 32  2  0  0  0
 26 27  1  0  0  0
 28102  1  0  0  0
 28103  1  0  0  0
 29104  1  0  0  0
 29105  1  0  0  0
 33 34  1  0  0  0
 33 66  1  0  0  0
 33 70  2  0  0  0
 34 36  1  0  0  0
 34 59  1  0  0  0
 34106  1  0  0  0
 35 44  2  0  0  0
 35 45  1  0  0  0
 35 68  1  0  0  0
 36 56  1  0  0  0
 36107  1  0  0  0
 37 39  1  0  0  0
 37 47  1  0  0  0
 37 66  1  0  0  0
 37108  1  0  0  0
 38 43  2  0  0  0
 38 46  1  0  0  0
 38 47  1  0  0  0
 39 64  1  0  0  0
 39 67  2  0  0  0
 40 52  1  0  0  0
 40 53  2  0  0  0
 40 58  1  0  0  0
 41109  1  0  0  0
 41110  1  0  0  0
 41111  1  0  0  0
 41 48  1  0  0  0
 42 43  1  0  0  0
 42 66  1  0  0  0
 42112  1  0  0  0
 42113  1  0  0  0
 43 44  1  0  0  0
 44114  1  0  0  0
 45 46  2  0  0  0
 45115  1  0  0  0
 46116  1  0  0  0
 47117  1  0  0  0
 47118  1  0  0  0
 48 56  1  0  0  0
 48 65  1  0  0  0
 48119  1  0  0  0
 49 50  1  0  0  0
 49 53  1  0  0  0
 49 64  1  0  0  0
 49120  1  0  0  0
 50 51  1  0  0  0
 50121  1  0  0  0
 50122  1  0  0  0
 51 52  1  0  0  0
 51123  1  0  0  0
 51124  1  0  0  0
 52125  1  0  0  0
 52126  1  0  0  0
 53 54  1  0  0  0
 54 55  2  0  0  0
 54127  1  0  0  0
 55 57  1  0  0  0
 55128  1  0  0  0
 56 69  2  0  0  0
 57 58  2  0  0  0
 57129  1  0  0  0
 58130  1  0  0  0
 59 60  1  0  0  0
 59 61  1  0  0  0
 59 62  1  0  0  0
 60131  1  0  0  0
 60132  1  0  0  0
 60133  1  0  0  0
 61134  1  0  0  0
 61135  1  0  0  0
 61136  1  0  0  0
 62137  1  0  0  0
 62138  1  0  0  0
 62139  1  0  0  0
 63 65  1  0  0  0
 63140  1  0  0  0
 63141  1  0  0  0
 63142  1  0  0  0
 64143  1  0  0  0
 65144  1  0  0  0
 68 81  1  0  0  0
 71 74  2  0  0  0
 71 76  1  0  0  0
 71145  1  0  0  0
 72 75  1  0  0  0
 72 76  2  0  0  0
 72146  1  0  0  0
 73 74  1  0  0  0
 73 75  2  0  0  0
 73 78  1  0  0  0
 74 83  1  0  0  0
 75 84  1  0  0  0
 76 85  1  0  0  0
 77 78  2  0  0  0
 77147  1  0  0  0
 77148  1  0  0  0
 78149  1  0  0  0
 79 80  1  0  0  0
 79 81  1  0  0  0
 79150  1  0  0  0
 79151  1  0  0  0
 80 82  1  0  0  0
 80152  1  0  0  0
 80153  1  0  0  0
 81154  1  0  0  0
 81155  1  0  0  0
 82 84  1  0  0  0
 82156  1  0  0  0
 82157  1  0  0  0
 83158  1  0  0  0
M  ISO  4   1 100  68 101  81 101  83 100
M  END
> <chiral flag>
0

> <version>
0

> <s_m_source_file>
/data/baiqing/PycharmProjects/Reinvent-master-3.2/result/LINK_invent/BTK/process_docking_weight1_custom_product_contain_oxygen_bond_distance_aromatic_linkinvent_7_9_3/rearranged_h_0112.sdf

> <i_m_source_file_index>
53

> <r_mmod_Potential_Energy-OPLS-2005>
29.4175720214844

> <r_mmod_Stretch_Energy-OPLS-2005>
48.8457870483398

> <r_mmod_Bend_Energy-OPLS-2005>
110.299652099609

> <r_mmod_Torsional_Energy-OPLS-2005>
251.939804077148

> <r_mmod_Improper_Torsional_Energy-OPLS-2005>
5.4234561920166

> <r_mmod_Van_der_Waal_Energy-OPLS-2005>
151.242385864258

> <r_mmod_Electrostatic_Energy-OPLS-2005>
-360.110382080078

> <r_mmod_Solvation_Energy-OPLS-2005>
-198.779632568359

> <b_mmod_Minimization_Converged-OPLS-2005>
0

> <r_mmod_RMS_Derivative-OPLS-2005>
3.12467074394226

$$$$
54
                    3D
 Structure written by MMmdl.
151159  0  0  1  0            999 V2000
  -30.4366  -15.0119   20.4009 C   0  0  0  0  0  0
  -30.4543  -12.6450   19.4497 C   0  0  0  0  0  0
  -29.5138  -12.5164   18.2241 C   0  0  0  0  0  0
  -28.0451  -12.2994   18.6508 C   0  0  0  0  0  0
  -27.6174  -13.2291   19.8189 C   0  0  2  0  0  0
  -28.6692  -13.2530   20.9445 C   0  0  0  0  0  0
  -25.2393  -13.8114   20.5589 C   0  0  0  0  0  0
  -24.1723  -13.0375   20.9195 C   0  0  0  0  0  0
  -24.6349  -11.6859   20.8757 C   0  0  0  0  0  0
  -23.9059  -10.4258   21.0428 C   0  0  0  0  0  0
  -24.3601   -9.4172   21.9209 C   0  0  0  0  0  0
  -23.6281   -8.2221   22.0803 C   0  0  0  0  0  0
  -22.4278   -8.0273   21.3563 C   0  0  0  0  0  0
  -21.9884   -9.0243   20.4671 C   0  0  0  0  0  0
  -22.7237  -10.2116   20.3061 C   0  0  0  0  0  0
  -21.6838   -6.0723   22.5272 C   0  0  0  0  0  0
  -21.4021   -6.5621   23.8202 C   0  0  0  0  0  0
  -21.3664   -5.6776   24.9170 C   0  0  0  0  0  0
  -21.6033   -4.3034   24.7202 C   0  0  0  0  0  0
  -21.8838   -3.8134   23.4319 C   0  0  0  0  0  0
  -21.9198   -4.6959   22.3385 C   0  0  0  0  0  0
  -22.7770  -13.5190   21.1832 C   0  0  0  0  0  0
  -22.1661   -4.2143   21.0962 F   0  0  0  0  0  0
  -21.5617   -3.4520   25.7719 F   0  0  0  0  0  0
  -29.9147  -13.7220   20.3287 N   0  0  0  0  0  0
  -26.2796  -12.9314   20.3128 N   0  0  0  0  0  0
  -25.9235  -11.6464   20.5663 N   0  0  0  0  0  0
  -22.0406  -12.8244   22.0418 N   0  0  0  0  0  0
  -25.3977  -15.1855   20.3900 N   0  0  0  0  0  0
  -31.6567  -15.1319   20.2389 O   0  0  0  0  0  0
  -21.6650   -6.8865   21.4248 O   0  0  0  0  0  0
  -22.3475  -14.5504   20.6694 O   0  0  0  0  0  0
  -24.6483  -31.8392   23.1919 C   0  0  0  0  0  0
  -25.9224  -32.4683   23.8288 C   0  0  1  0  0  0
  -27.1801  -27.0586   20.1831 C   0  0  0  0  0  0
  -25.5943  -33.8495   24.2198 N   0  0  0  0  0  0
  -23.4510  -30.4644   21.5372 C   0  0  2  0  0  0
  -24.8944  -28.8819   20.1195 C   0  0  0  0  0  0
  -22.7579  -29.4536   22.4850 C   0  0  0  0  0  0
  -18.0316  -28.1346   22.8551 C   0  0  0  0  0  0
  -24.1481  -36.7261   23.2660 C   0  0  0  0  0  0
  -26.0151  -30.6921   21.4009 C   0  0  0  0  0  0
  -26.0804  -29.2958   20.7437 C   0  0  0  0  0  0
  -27.2230  -28.4014   20.7548 C   0  0  0  0  0  0
  -25.9691  -26.7649   19.5126 C   0  0  0  0  0  0
  -24.8569  -27.6291   19.4908 C   0  0  0  0  0  0
  -23.6801  -29.7983   20.1546 C   0  0  0  0  0  0
  -25.4122  -36.3056   24.0347 C   0  0  1  0  0  0
  -20.5919  -28.3695   23.1136 C   0  0  2  0  0  0
  -20.6805  -26.9422   22.5185 C   0  0  0  0  0  0
  -19.5634  -26.6409   21.5134 C   0  0  0  0  0  0
  -18.1957  -26.7819   22.1826 C   0  0  0  0  0  0
  -19.1571  -28.8845   23.2839 C   0  0  0  0  0  0
  -18.9518  -30.1466   23.8826 C   0  0  0  0  0  0
  -17.6532  -30.6579   24.0560 C   0  0  0  0  0  0
  -25.9074  -34.9416   23.5091 C   0  0  0  0  0  0
  -16.5415  -29.9072   23.6381 C   0  0  0  0  0  0
  -16.7299  -28.6486   23.0425 C   0  0  0  0  0  0
  -26.4526  -31.6578   25.0743 C   0  0  0  0  0  0
  -25.3685  -31.3778   26.1418 C   0  0  0  0  0  0
  -27.0416  -30.2968   24.6396 C   0  0  0  0  0  0
  -27.6023  -32.4369   25.7530 C   0  0  0  0  0  0
  -27.5567  -37.1820   24.8483 C   0  0  0  0  0  0
  -21.4272  -29.3080   22.3592 N   0  0  0  0  0  0
  -26.4297  -37.3751   23.9394 N   0  0  0  0  0  0
  -24.7256  -31.0205   22.0955 N   0  0  0  0  0  0
  -23.4215  -28.8060   23.3006 O   0  0  0  0  0  0
  -28.1748  -26.0030   20.2801 O   0  0  0  0  0  0
  -26.5659  -34.8896   22.4675 O   0  0  0  0  0  0
  -23.5607  -32.1284   23.7112 O   0  0  0  0  0  0
  -29.1320  -18.8918   20.1481 C   0  0  0  0  0  0
  -29.6277  -17.7205   22.1931 C   0  0  0  0  0  0
  -28.9064  -20.1904   20.8598 C   0  0  0  0  0  0
  -29.5002  -17.5906   20.8058 C   0  0  0  0  0  0
  -28.9978  -19.9945   22.2622 C   0  0  0  0  0  0
  -28.5791  -21.7190   20.3893 C   0  0  0  0  0  0
  -28.7022  -23.1471   20.5806 C   0  0  0  0  0  0
  -27.5602  -20.7170   24.0105 C   0  0  0  0  0  0
  -27.7612  -24.4744   20.2226 C   0  0  0  0  0  0
  -29.3707  -18.8515   22.8873 N   0  0  0  0  0  0
  -29.5448  -16.1334   20.2890 N   0  0  0  0  0  0
  -28.6308  -21.0184   23.1046 O   0  0  0  0  0  0
  -31.4622  -12.8872   19.1068 H   0  0  0  0  0  0
  -30.5389  -11.6980   19.9825 H   0  0  0  0  0  0
  -29.8352  -11.6926   17.5830 H   0  0  0  0  0  0
  -29.5854  -13.4172   17.6082 H   0  0  0  0  0  0
  -27.9343  -11.2546   18.9490 H   0  0  0  0  0  0
  -27.3852  -12.4393   17.7939 H   0  0  0  0  0  0
  -27.5716  -14.2289   19.3885 H   0  0  0  0  0  0
  -28.7972  -12.2631   21.3863 H   0  0  0  0  0  0
  -28.3599  -13.9228   21.7491 H   0  0  0  0  0  0
  -25.2742   -9.5677   22.4747 H   0  0  0  0  0  0
  -23.9998   -7.4619   22.7514 H   0  0  0  0  0  0
  -21.0812   -8.8740   19.8951 H   0  0  0  0  0  0
  -22.3701  -10.9641   19.6137 H   0  0  0  0  0  0
  -21.2037   -7.6132   23.9680 H   0  0  0  0  0  0
  -21.1464   -6.0523   25.9063 H   0  0  0  0  0  0
  -22.0628   -2.7588   23.2823 H   0  0  0  0  0  0
  -22.4057  -11.9934   22.4832 H   0  0  0  0  0  0
  -21.1009  -13.1272   22.2540 H   0  0  0  0  0  0
  -24.6024  -15.8127   20.4603 H   0  0  0  0  0  0
  -26.2265  -15.6362   20.0296 H   0  0  0  0  0  0
  -26.7230  -32.5256   23.0961 H   0  0  0  0  0  0
  -25.0023  -33.9555   25.0304 H   0  0  0  0  0  0
  -22.7533  -31.2904   21.3870 H   0  0  0  0  0  0
  -23.3744  -35.9582   23.3359 H   0  0  0  0  0  0
  -24.3548  -36.8858   22.2054 H   0  0  0  0  0  0
  -23.7209  -37.6471   23.6666 H   0  0  0  0  0  0
  -26.1798  -31.4457   20.6290 H   0  0  0  0  0  0
  -26.8811  -30.7386   22.0512 H   0  0  0  0  0  0
  -28.1175  -28.7023   21.2853 H   0  0  0  0  0  0
  -25.8295  -25.8049   19.0384 H   0  0  0  0  0  0
  -23.9471  -27.3131   18.9982 H   0  0  0  0  0  0
  -23.8313  -30.5777   19.4058 H   0  0  0  0  0  0
  -22.7847  -29.2573   19.8385 H   0  0  0  0  0  0
  -25.1307  -36.1923   25.0842 H   0  0  0  0  0  0
  -21.0031  -28.3172   24.1238 H   0  0  0  0  0  0
  -20.5817  -26.2227   23.3345 H   0  0  0  0  0  0
  -21.6645  -26.7457   22.0861 H   0  0  0  0  0  0
  -19.6705  -25.6377   21.1096 H   0  0  0  0  0  0
  -19.6325  -27.3276   20.6709 H   0  0  0  0  0  0
  -17.4043  -26.6312   21.4462 H   0  0  0  0  0  0
  -18.0681  -26.0061   22.9379 H   0  0  0  0  0  0
  -19.8001  -30.7313   24.2076 H   0  0  0  0  0  0
  -17.5100  -31.6231   24.5168 H   0  0  0  0  0  0
  -15.5434  -30.2987   23.7765 H   0  0  0  0  0  0
  -15.8667  -28.0826   22.7192 H   0  0  0  0  0  0
  -24.5881  -30.7113   25.7731 H   0  0  0  0  0  0
  -24.8863  -32.2969   26.4756 H   0  0  0  0  0  0
  -25.7949  -30.9004   27.0249 H   0  0  0  0  0  0
  -26.3072  -29.6655   24.1391 H   0  0  0  0  0  0
  -27.3952  -29.7316   25.5027 H   0  0  0  0  0  0
  -27.9008  -30.4150   23.9784 H   0  0  0  0  0  0
  -27.2584  -33.3687   26.2011 H   0  0  0  0  0  0
  -28.3892  -32.6911   25.0423 H   0  0  0  0  0  0
  -28.0627  -31.8582   26.5539 H   0  0  0  0  0  0
  -28.2666  -38.0041   24.7469 H   0  0  0  0  0  0
  -28.1000  -36.2591   24.6435 H   0  0  0  0  0  0
  -27.2279  -37.1609   25.8884 H   0  0  0  0  0  0
  -20.9487  -29.8810   21.6797 H   0  0  0  0  0  0
  -26.0213  -38.2857   24.1310 H   0  0  0  0  0  0
  -29.0023  -18.8926   19.0739 H   0  0  0  0  0  0
  -29.8492  -16.8489   22.7944 H   0  0  0  0  0  0
  -29.6466  -21.7347   20.5640 H   0  0  0  0  0  0
  -29.5713  -23.4953   21.1322 H   0  0  0  0  0  0
  -26.6521  -21.2129   23.6627 H   0  0  0  0  0  0
  -27.7966  -21.1012   25.0011 H   0  0  0  0  0  0
  -27.3323  -19.6505   24.1175 H   0  0  0  0  0  0
  -26.9383  -24.3935   20.9363 H   0  0  0  0  0  0
  -27.3184  -24.2728   19.2495 H   0  0  0  0  0  0
  -28.6137  -15.7937   20.0929 H   0  0  0  0  0  0
  1 25  1  0  0  0
  1 30  2  0  0  0
  1 81  1  0  0  0
  2  3  1  0  0  0
  2 25  1  0  0  0
  2 83  1  0  0  0
  2 84  1  0  0  0
  3  4  1  0  0  0
  3 85  1  0  0  0
  3 86  1  0  0  0
  4  5  1  0  0  0
  4 87  1  0  0  0
  4 88  1  0  0  0
  5  6  1  0  0  0
  5 26  1  0  0  0
  5 89  1  0  0  0
  6 25  1  0  0  0
  6 90  1  0  0  0
  6 91  1  0  0  0
  7  8  2  0  0  0
  7 26  1  0  0  0
  7 29  1  0  0  0
  8  9  1  0  0  0
  8 22  1  0  0  0
  9 10  1  0  0  0
  9 27  2  0  0  0
 10 11  2  0  0  0
 10 15  1  0  0  0
 11 12  1  0  0  0
 11 92  1  0  0  0
 12 13  2  0  0  0
 12 93  1  0  0  0
 13 14  1  0  0  0
 13 31  1  0  0  0
 14 15  2  0  0  0
 14 94  1  0  0  0
 15 95  1  0  0  0
 16 17  2  0  0  0
 16 21  1  0  0  0
 16 31  1  0  0  0
 17 18  1  0  0  0
 17 96  1  0  0  0
 18 19  2  0  0  0
 18 97  1  0  0  0
 19 20  1  0  0  0
 19 24  1  0  0  0
 20 21  2  0  0  0
 20 98  1  0  0  0
 21 23  1  0  0  0
 22 28  1  0  0  0
 22 32  2  0  0  0
 26 27  1  0  0  0
 28 99  1  0  0  0
 28100  1  0  0  0
 29101  1  0  0  0
 29102  1  0  0  0
 33 34  1  0  0  0
 33 66  1  0  0  0
 33 70  2  0  0  0
 34 36  1  0  0  0
 34 59  1  0  0  0
 34103  1  0  0  0
 35 44  2  0  0  0
 35 45  1  0  0  0
 35 68  1  0  0  0
 36 56  1  0  0  0
 36104  1  0  0  0
 37 39  1  0  0  0
 37 47  1  0  0  0
 37 66  1  0  0  0
 37105  1  0  0  0
 38 43  2  0  0  0
 38 46  1  0  0  0
 38 47  1  0  0  0
 39 64  1  0  0  0
 39 67  2  0  0  0
 40 52  1  0  0  0
 40 53  2  0  0  0
 40 58  1  0  0  0
 41106  1  0  0  0
 41107  1  0  0  0
 41108  1  0  0  0
 41 48  1  0  0  0
 42 43  1  0  0  0
 42 66  1  0  0  0
 42109  1  0  0  0
 42110  1  0  0  0
 43 44  1  0  0  0
 44111  1  0  0  0
 45 46  2  0  0  0
 45112  1  0  0  0
 46113  1  0  0  0
 47114  1  0  0  0
 47115  1  0  0  0
 48 56  1  0  0  0
 48 65  1  0  0  0
 48116  1  0  0  0
 49 50  1  0  0  0
 49 53  1  0  0  0
 49 64  1  0  0  0
 49117  1  0  0  0
 50 51  1  0  0  0
 50118  1  0  0  0
 50119  1  0  0  0
 51 52  1  0  0  0
 51120  1  0  0  0
 51121  1  0  0  0
 52122  1  0  0  0
 52123  1  0  0  0
 53 54  1  0  0  0
 54 55  2  0  0  0
 54124  1  0  0  0
 55 57  1  0  0  0
 55125  1  0  0  0
 56 69  2  0  0  0
 57 58  2  0  0  0
 57126  1  0  0  0
 58127  1  0  0  0
 59 60  1  0  0  0
 59 61  1  0  0  0
 59 62  1  0  0  0
 60128  1  0  0  0
 60129  1  0  0  0
 60130  1  0  0  0
 61131  1  0  0  0
 61132  1  0  0  0
 61133  1  0  0  0
 62134  1  0  0  0
 62135  1  0  0  0
 62136  1  0  0  0
 63 65  1  0  0  0
 63137  1  0  0  0
 63138  1  0  0  0
 63139  1  0  0  0
 64140  1  0  0  0
 65141  1  0  0  0
 68 79  1  0  0  0
 71 73  2  0  0  0
 71 74  1  0  0  0
 71142  1  0  0  0
 72 74  2  0  0  0
 72 80  1  0  0  0
 72143  1  0  0  0
 73 75  1  0  0  0
 73 76  1  0  0  0
 74 81  1  0  0  0
 75 80  2  0  0  0
 75 82  1  0  0  0
 76 77  2  0  0  0
 76144  1  0  0  0
 77 79  1  0  0  0
 77145  1  0  0  0
 78 82  1  0  0  0
 78146  1  0  0  0
 78147  1  0  0  0
 78148  1  0  0  0
 79149  1  0  0  0
 79150  1  0  0  0
 81151  1  0  0  0
M  ISO  4   1 100  68 101  79 101  81 100
M  END
> <chiral flag>
0

> <version>
0

> <s_m_source_file>
/data/baiqing/PycharmProjects/Reinvent-master-3.2/result/LINK_invent/BTK/process_docking_weight1_custom_product_contain_oxygen_bond_distance_aromatic_linkinvent_7_9_3/rearranged_h_0112.sdf

> <i_m_source_file_index>
54

> <r_mmod_Potential_Energy-OPLS-2005>
784.817810058594

> <r_mmod_Stretch_Energy-OPLS-2005>
301.741546630859

> <r_mmod_Bend_Energy-OPLS-2005>
450.028594970703

> <r_mmod_Torsional_Energy-OPLS-2005>
324.402801513672

> <r_mmod_Improper_Torsional_Energy-OPLS-2005>
30.5748329162598

> <r_mmod_Van_der_Waal_Energy-OPLS-2005>
142.868362426758

> <r_mmod_Electrostatic_Energy-OPLS-2005>
-514.250122070312

> <r_mmod_Solvation_Energy-OPLS-2005>
-221.552612304688

> <b_mmod_Minimization_Converged-OPLS-2005>
0

> <r_mmod_RMS_Derivative-OPLS-2005>
7.65390491485596

$$$$
55
                    3D
 Structure written by MMmdl.
172181  0  0  1  0            999 V2000
  -30.8140  -14.3567   20.6875 C   0  0  0  0  0  0
  -30.4030  -12.2765   19.4354 C   0  0  0  0  0  0
  -29.4961  -12.5137   18.2144 C   0  0  0  0  0  0
  -28.0167  -12.3747   18.6113 C   0  0  0  0  0  0
  -27.6640  -13.2103   19.8686 C   0  0  2  0  0  0
  -28.6885  -12.9847   20.9976 C   0  0  0  0  0  0
  -25.2575  -13.8161   20.5591 C   0  0  0  0  0  0
  -24.1838  -13.0436   20.9127 C   0  0  0  0  0  0
  -24.6402  -11.6915   20.8699 C   0  0  0  0  0  0
  -23.9069  -10.4305   21.0385 C   0  0  0  0  0  0
  -24.3623   -9.4230   21.9175 C   0  0  0  0  0  0
  -23.6302   -8.2263   22.0763 C   0  0  0  0  0  0
  -22.4272   -8.0300   21.3558 C   0  0  0  0  0  0
  -21.9912   -9.0266   20.4644 C   0  0  0  0  0  0
  -22.7242  -10.2142   20.3036 C   0  0  0  0  0  0
  -21.6860   -6.0757   22.5306 C   0  0  0  0  0  0
  -21.4012   -6.5649   23.8238 C   0  0  0  0  0  0
  -21.3658   -5.6795   24.9198 C   0  0  0  0  0  0
  -21.6045   -4.3062   24.7242 C   0  0  0  0  0  0
  -21.8812   -3.8157   23.4361 C   0  0  0  0  0  0
  -21.9189   -4.6979   22.3423 C   0  0  0  0  0  0
  -22.7868  -13.5258   21.1822 C   0  0  0  0  0  0
  -22.1640   -4.2171   21.0993 F   0  0  0  0  0  0
  -21.5634   -3.4534   25.7745 F   0  0  0  0  0  0
  -30.0482  -13.2439   20.4913 N   0  0  0  0  0  0
  -26.3022  -12.9348   20.3282 N   0  0  0  0  0  0
  -25.9334  -11.6500   20.5735 N   0  0  0  0  0  0
  -22.0497  -12.8260   22.0380 N   0  0  0  0  0  0
  -25.4284  -15.1863   20.3976 N   0  0  0  0  0  0
  -31.7815  -14.5962   19.9582 O   0  0  0  0  0  0
  -21.6637   -6.8899   21.4259 O   0  0  0  0  0  0
  -22.3560  -14.5580   20.6707 O   0  0  0  0  0  0
  -24.6123  -31.8696   23.2123 C   0  0  0  0  0  0
  -25.9030  -32.4824   23.8403 C   0  0  1  0  0  0
  -27.2334  -27.4496   20.0997 C   0  0  0  0  0  0
  -25.5904  -33.8629   24.2332 N   0  0  0  0  0  0
  -23.3983  -30.4938   21.5519 C   0  0  2  0  0  0
  -24.8446  -28.9631   20.1148 C   0  0  0  0  0  0
  -22.7395  -29.4671   22.5005 C   0  0  0  0  0  0
  -18.0269  -28.1373   22.8494 C   0  0  0  0  0  0
  -24.1489  -36.7317   23.2635 C   0  0  0  0  0  0
  -25.9251  -30.8412   21.3622 C   0  0  0  0  0  0
  -26.0028  -29.4766   20.7106 C   0  0  0  0  0  0
  -27.1996  -28.7273   20.6994 C   0  0  0  0  0  0
  -26.0609  -26.9568   19.4815 C   0  0  0  0  0  0
  -24.8671  -27.7012   19.4967 C   0  0  0  0  0  0
  -23.6048  -29.8262   20.1667 C   0  0  0  0  0  0
  -25.4105  -36.3113   24.0338 C   0  0  1  0  0  0
  -20.5860  -28.3657   23.1331 C   0  0  2  0  0  0
  -20.6764  -26.9397   22.5428 C   0  0  0  0  0  0
  -19.5752  -26.6379   21.5219 C   0  0  0  0  0  0
  -18.1923  -26.7925   22.1611 C   0  0  0  0  0  0
  -19.1518  -28.8830   23.2911 C   0  0  0  0  0  0
  -18.9448  -30.1439   23.8917 C   0  0  0  0  0  0
  -17.6450  -30.6581   24.0568 C   0  0  0  0  0  0
  -25.9036  -34.9479   23.5127 C   0  0  0  0  0  0
  -16.5341  -29.9080   23.6327 C   0  0  0  0  0  0
  -16.7258  -28.6500   23.0344 C   0  0  0  0  0  0
  -26.4472  -31.6591   25.0717 C   0  0  0  0  0  0
  -25.3750  -31.3681   26.1469 C   0  0  0  0  0  0
  -27.0298  -30.3038   24.6068 C   0  0  0  0  0  0
  -27.6053  -32.4303   25.7477 C   0  0  0  0  0  0
  -27.5586  -37.1806   24.8459 C   0  0  0  0  0  0
  -21.4129  -29.3027   22.3741 N   0  0  0  0  0  0
  -26.4291  -37.3797   23.9414 N   0  0  0  0  0  0
  -24.6633  -31.0824   22.1007 N   0  0  0  0  0  0
  -23.4176  -28.8209   23.3041 O   0  0  0  0  0  0
  -28.4111  -26.7318   20.1164 O   0  0  0  0  0  0
  -26.5600  -34.8931   22.4688 O   0  0  0  0  0  0
  -23.5322  -32.1441   23.7538 O   0  0  0  0  0  0
  -32.5320  -18.3822   21.0502 C   0  0  0  0  0  0
  -31.0264  -18.5940   19.1021 C   0  0  0  0  0  0
  -29.0433  -18.4855   20.5349 C   0  0  0  0  0  0
  -31.9909  -17.1584   21.5421 C   0  0  0  0  0  0
  -31.9240  -19.2161   20.1106 C   0  0  0  0  0  0
  -29.9416  -19.2983   19.8370 C   0  0  0  0  0  0
  -30.6416  -16.6160   21.4273 C   0  0  0  0  0  0
  -29.3683  -17.2166   21.0932 C   0  0  0  0  0  0
  -34.2997  -16.1841   21.8296 C   0  0  0  0  0  0
  -33.0251  -16.3386   22.2280 C   0  0  0  0  0  0
  -31.1225  -23.1012   21.6006 C   0  0  0  0  0  0
  -30.5738  -24.5083   21.2299 C   0  0  0  0  0  0
  -30.3759  -14.7763   23.0995 C   0  0  0  0  0  0
  -27.5134  -16.8201   22.4770 C   0  0  0  0  0  0
  -30.1304  -21.9661   21.9332 C   0  0  0  0  0  0
  -29.1093  -24.8495   21.5262 C   0  0  0  0  0  0
  -30.7371  -20.5428   21.9331 C   0  0  0  0  0  0
  -28.3089  -25.3111   20.2949 C   0  0  0  0  0  0
  -30.8863  -20.0332   20.5673 N   0  0  0  0  0  0
  -30.5011  -15.2112   21.6978 N   0  0  0  0  0  0
  -32.3463  -22.9172   21.6527 O   0  0  0  0  0  0
  -31.3208  -25.3509   20.7145 O   0  0  0  0  0  0
  -28.2632  -16.4312   21.3324 O   0  0  0  0  0  0
  -31.4529  -12.3304   19.1424 H   0  0  0  0  0  0
  -30.2698  -11.2614   19.8112 H   0  0  0  0  0  0
  -29.7397  -11.7966   17.4296 H   0  0  0  0  0  0
  -29.6830  -13.5062   17.7995 H   0  0  0  0  0  0
  -27.8204  -11.3190   18.8012 H   0  0  0  0  0  0
  -27.3751  -12.6590   17.7770 H   0  0  0  0  0  0
  -27.7168  -14.2623   19.5836 H   0  0  0  0  0  0
  -28.6333  -11.9605   21.3698 H   0  0  0  0  0  0
  -28.3967  -13.6202   21.8242 H   0  0  0  0  0  0
  -25.2772   -9.5724   22.4749 H   0  0  0  0  0  0
  -24.0021   -7.4662   22.7496 H   0  0  0  0  0  0
  -21.0844   -8.8791   19.8950 H   0  0  0  0  0  0
  -22.3718  -10.9678   19.6131 H   0  0  0  0  0  0
  -21.1995   -7.6157   23.9764 H   0  0  0  0  0  0
  -21.1465   -6.0513   25.9112 H   0  0  0  0  0  0
  -22.0586   -2.7617   23.2853 H   0  0  0  0  0  0
  -22.4064  -11.9888   22.4732 H   0  0  0  0  0  0
  -21.1132  -13.1332   22.2610 H   0  0  0  0  0  0
  -24.6688  -15.8458   20.5224 H   0  0  0  0  0  0
  -26.3184  -15.6272   20.1964 H   0  0  0  0  0  0
  -26.7100  -32.5548   23.1169 H   0  0  0  0  0  0
  -25.0086  -33.9796   25.0497 H   0  0  0  0  0  0
  -22.6860  -31.3105   21.4139 H   0  0  0  0  0  0
  -23.3756  -35.9645   23.3288 H   0  0  0  0  0  0
  -24.3596  -36.8941   22.2055 H   0  0  0  0  0  0
  -23.7238  -37.6515   23.6659 H   0  0  0  0  0  0
  -26.0349  -31.6083   20.5946 H   0  0  0  0  0  0
  -26.8144  -30.8944   21.9784 H   0  0  0  0  0  0
  -28.0930  -29.1205   21.1643 H   0  0  0  0  0  0
  -26.0583  -26.0028   18.9740 H   0  0  0  0  0  0
  -23.9791  -27.3026   19.0248 H   0  0  0  0  0  0
  -23.7094  -30.6004   19.4062 H   0  0  0  0  0  0
  -22.7304  -29.2431   19.8718 H   0  0  0  0  0  0
  -25.1280  -36.1972   25.0832 H   0  0  0  0  0  0
  -20.9951  -28.3217   24.1452 H   0  0  0  0  0  0
  -20.5666  -26.2264   23.3607 H   0  0  0  0  0  0
  -21.6630  -26.7451   22.1209 H   0  0  0  0  0  0
  -19.6914  -25.6296   21.1229 H   0  0  0  0  0  0
  -19.6698  -27.3209   20.6768 H   0  0  0  0  0  0
  -17.4201  -26.6707   21.3997 H   0  0  0  0  0  0
  -18.0299  -26.0048   22.8981 H   0  0  0  0  0  0
  -19.7928  -30.7257   24.2283 H   0  0  0  0  0  0
  -17.5007  -31.6267   24.5165 H   0  0  0  0  0  0
  -15.5341  -30.2991   23.7651 H   0  0  0  0  0  0
  -15.8652  -28.0833   22.7038 H   0  0  0  0  0  0
  -24.5961  -30.6974   25.7827 H   0  0  0  0  0  0
  -24.8888  -32.2814   26.4898 H   0  0  0  0  0  0
  -25.8118  -30.8890   27.0235 H   0  0  0  0  0  0
  -26.2826  -29.6801   24.1139 H   0  0  0  0  0  0
  -27.4103  -29.7270   25.4510 H   0  0  0  0  0  0
  -27.8648  -30.4368   23.9184 H   0  0  0  0  0  0
  -27.2680  -33.3600   26.2074 H   0  0  0  0  0  0
  -28.3856  -32.6860   25.0295 H   0  0  0  0  0  0
  -28.0726  -31.8407   26.5375 H   0  0  0  0  0  0
  -28.2582  -38.0127   24.7531 H   0  0  0  0  0  0
  -28.1101  -36.2656   24.6232 H   0  0  0  0  0  0
  -27.2316  -37.1387   25.8866 H   0  0  0  0  0  0
  -20.9285  -29.8749   21.6966 H   0  0  0  0  0  0
  -26.0177  -38.2873   24.1426 H   0  0  0  0  0  0
  -33.5312  -18.6695   21.3455 H   0  0  0  0  0  0
  -31.1795  -18.8784   18.0727 H   0  0  0  0  0  0
  -28.0005  -18.7555   20.4507 H   0  0  0  0  0  0
  -34.9875  -15.5796   22.4046 H   0  0  0  0  0  0
  -34.6770  -16.6444   20.9276 H   0  0  0  0  0  0
  -32.7394  -15.8480   23.1446 H   0  0  0  0  0  0
  -29.3503  -14.5609   23.3887 H   0  0  0  0  0  0
  -30.6980  -15.5610   23.7824 H   0  0  0  0  0  0
  -30.9853  -13.8941   23.3000 H   0  0  0  0  0  0
  -26.8073  -16.0304   22.7324 H   0  0  0  0  0  0
  -26.9412  -17.7303   22.2966 H   0  0  0  0  0  0
  -28.1570  -16.9772   23.3432 H   0  0  0  0  0  0
  -29.2846  -22.0051   21.2464 H   0  0  0  0  0  0
  -29.7324  -22.1777   22.9255 H   0  0  0  0  0  0
  -29.0768  -25.6167   22.2992 H   0  0  0  0  0  0
  -28.6164  -23.9787   21.9548 H   0  0  0  0  0  0
  -30.1053  -19.8686   22.5123 H   0  0  0  0  0  0
  -31.7067  -20.5417   22.4359 H   0  0  0  0  0  0
  -27.2866  -24.9724   20.4594 H   0  0  0  0  0  0
  -28.6502  -24.8119   19.3864 H   0  0  0  0  0  0
  1 25  1  0  0  0
  1 30  2  0  0  0
  1 90  1  0  0  0
  2  3  1  0  0  0
  2 25  1  0  0  0
  2 94  1  0  0  0
  2 95  1  0  0  0
  3  4  1  0  0  0
  3 96  1  0  0  0
  3 97  1  0  0  0
  4  5  1  0  0  0
  4 98  1  0  0  0
  4 99  1  0  0  0
  5  6  1  0  0  0
  5 26  1  0  0  0
  5100  1  0  0  0
  6 25  1  0  0  0
  6101  1  0  0  0
  6102  1  0  0  0
  7  8  2  0  0  0
  7 26  1  0  0  0
  7 29  1  0  0  0
  8  9  1  0  0  0
  8 22  1  0  0  0
  9 10  1  0  0  0
  9 27  2  0  0  0
 10 11  2  0  0  0
 10 15  1  0  0  0
 11 12  1  0  0  0
 11103  1  0  0  0
 12 13  2  0  0  0
 12104  1  0  0  0
 13 14  1  0  0  0
 13 31  1  0  0  0
 14 15  2  0  0  0
 14105  1  0  0  0
 15106  1  0  0  0
 16 17  2  0  0  0
 16 21  1  0  0  0
 16 31  1  0  0  0
 17 18  1  0  0  0
 17107  1  0  0  0
 18 19  2  0  0  0
 18108  1  0  0  0
 19 20  1  0  0  0
 19 24  1  0  0  0
 20 21  2  0  0  0
 20109  1  0  0  0
 21 23  1  0  0  0
 22 28  1  0  0  0
 22 32  2  0  0  0
 26 27  1  0  0  0
 28110  1  0  0  0
 28111  1  0  0  0
 29112  1  0  0  0
 29113  1  0  0  0
 33 34  1  0  0  0
 33 66  1  0  0  0
 33 70  2  0  0  0
 34 36  1  0  0  0
 34 59  1  0  0  0
 34114  1  0  0  0
 35 44  2  0  0  0
 35 45  1  0  0  0
 35 68  1  0  0  0
 36 56  1  0  0  0
 36115  1  0  0  0
 37 39  1  0  0  0
 37 47  1  0  0  0
 37 66  1  0  0  0
 37116  1  0  0  0
 38 43  2  0  0  0
 38 46  1  0  0  0
 38 47  1  0  0  0
 39 64  1  0  0  0
 39 67  2  0  0  0
 40 52  1  0  0  0
 40 53  2  0  0  0
 40 58  1  0  0  0
 41117  1  0  0  0
 41118  1  0  0  0
 41119  1  0  0  0
 41 48  1  0  0  0
 42 43  1  0  0  0
 42 66  1  0  0  0
 42120  1  0  0  0
 42121  1  0  0  0
 43 44  1  0  0  0
 44122  1  0  0  0
 45 46  2  0  0  0
 45123  1  0  0  0
 46124  1  0  0  0
 47125  1  0  0  0
 47126  1  0  0  0
 48 56  1  0  0  0
 48 65  1  0  0  0
 48127  1  0  0  0
 49 50  1  0  0  0
 49 53  1  0  0  0
 49 64  1  0  0  0
 49128  1  0  0  0
 50 51  1  0  0  0
 50129  1  0  0  0
 50130  1  0  0  0
 51 52  1  0  0  0
 51131  1  0  0  0
 51132  1  0  0  0
 52133  1  0  0  0
 52134  1  0  0  0
 53 54  1  0  0  0
 54 55  2  0  0  0
 54135  1  0  0  0
 55 57  1  0  0  0
 55136  1  0  0  0
 56 69  2  0  0  0
 57 58  2  0  0  0
 57137  1  0  0  0
 58138  1  0  0  0
 59 60  1  0  0  0
 59 61  1  0  0  0
 59 62  1  0  0  0
 60139  1  0  0  0
 60140  1  0  0  0
 60141  1  0  0  0
 61142  1  0  0  0
 61143  1  0  0  0
 61144  1  0  0  0
 62145  1  0  0  0
 62146  1  0  0  0
 62147  1  0  0  0
 63 65  1  0  0  0
 63148  1  0  0  0
 63149  1  0  0  0
 63150  1  0  0  0
 64151  1  0  0  0
 65152  1  0  0  0
 68 88  1  0  0  0
 71 74  1  0  0  0
 71 75  2  0  0  0
 71153  1  0  0  0
 72 75  1  0  0  0
 72 76  2  0  0  0
 72154  1  0  0  0
 73 76  1  0  0  0
 73 78  2  0  0  0
 73155  1  0  0  0
 74 77  2  0  0  0
 74 80  1  0  0  0
 75 89  1  0  0  0
 76 89  1  0  0  0
 77 78  1  0  0  0
 77 90  1  0  0  0
 78 93  1  0  0  0
 79 80  2  0  0  0
 79156  1  0  0  0
 79157  1  0  0  0
 80158  1  0  0  0
 81 82  1  0  0  0
 81 85  1  0  0  0
 81 91  2  0  0  0
 82 86  1  0  0  0
 82 92  2  0  0  0
 83 90  1  0  0  0
 83159  1  0  0  0
 83160  1  0  0  0
 83161  1  0  0  0
 84 93  1  0  0  0
 84162  1  0  0  0
 84163  1  0  0  0
 84164  1  0  0  0
 85 87  1  0  0  0
 85165  1  0  0  0
 85166  1  0  0  0
 86 88  1  0  0  0
 86167  1  0  0  0
 86168  1  0  0  0
 87 89  1  0  0  0
 87169  1  0  0  0
 87170  1  0  0  0
 88171  1  0  0  0
 88172  1  0  0  0
M  ISO  4   1 100  68 101  88 101  90 100
M  END
> <chiral flag>
0

> <version>
0

> <s_m_source_file>
/data/baiqing/PycharmProjects/Reinvent-master-3.2/result/LINK_invent/BTK/process_docking_weight1_custom_product_contain_oxygen_bond_distance_aromatic_linkinvent_7_9_3/rearranged_h_0112.sdf

> <i_m_source_file_index>
55

> <r_mmod_Potential_Energy-OPLS-2005>
1131.08947753906

> <r_mmod_Stretch_Energy-OPLS-2005>
53.3710975646973

> <r_mmod_Bend_Energy-OPLS-2005>
550.076049804688

> <r_mmod_Torsional_Energy-OPLS-2005>
781.069580078125

> <r_mmod_Improper_Torsional_Energy-OPLS-2005>
83.3138656616211

> <r_mmod_Van_der_Waal_Energy-OPLS-2005>
171.671127319336

> <r_mmod_Electrostatic_Energy-OPLS-2005>
-280.343811035156

> <r_mmod_Solvation_Energy-OPLS-2005>
-238.30207824707

> <b_mmod_Minimization_Converged-OPLS-2005>
0

> <r_mmod_RMS_Derivative-OPLS-2005>
2.16021180152893

$$$$
56
                    3D
 Structure written by MMmdl.
164172  0  0  1  0            999 V2000
  -30.5768  -14.8197   20.4498 C   0  0  0  0  0  0
  -30.4343  -12.5015   19.4997 C   0  0  0  0  0  0
  -29.5203  -12.5354   18.2520 C   0  0  0  0  0  0
  -28.0447  -12.3493   18.6552 C   0  0  0  0  0  0
  -27.6411  -13.2446   19.8584 C   0  0  2  0  0  0
  -28.6812  -13.1918   20.9992 C   0  0  0  0  0  0
  -25.2486  -13.8224   20.5720 C   0  0  0  0  0  0
  -24.1767  -13.0460   20.9188 C   0  0  0  0  0  0
  -24.6376  -11.6941   20.8724 C   0  0  0  0  0  0
  -23.9058  -10.4306   21.0397 C   0  0  0  0  0  0
  -24.3606   -9.4222   21.9172 C   0  0  0  0  0  0
  -23.6287   -8.2250   22.0750 C   0  0  0  0  0  0
  -22.4263   -8.0286   21.3552 C   0  0  0  0  0  0
  -21.9903   -9.0256   20.4654 C   0  0  0  0  0  0
  -22.7232  -10.2130   20.3061 C   0  0  0  0  0  0
  -21.6855   -6.0723   22.5269 C   0  0  0  0  0  0
  -21.4033   -6.5633   23.8202 C   0  0  0  0  0  0
  -21.3660   -5.6777   24.9163 C   0  0  0  0  0  0
  -21.6038   -4.3036   24.7216 C   0  0  0  0  0  0
  -21.8823   -3.8138   23.4338 C   0  0  0  0  0  0
  -21.9199   -4.6954   22.3399 C   0  0  0  0  0  0
  -22.7787  -13.5235   21.1850 C   0  0  0  0  0  0
  -22.1661   -4.2145   21.0971 F   0  0  0  0  0  0
  -21.5629   -3.4524   25.7735 F   0  0  0  0  0  0
  -29.9801  -13.5704   20.4293 N   0  0  0  0  0  0
  -26.2928  -12.9450   20.3311 N   0  0  0  0  0  0
  -25.9319  -11.6578   20.5733 N   0  0  0  0  0  0
  -22.0422  -12.8246   22.0408 N   0  0  0  0  0  0
  -25.4206  -15.1952   20.4208 N   0  0  0  0  0  0
  -31.7464  -14.9204   20.0655 O   0  0  0  0  0  0
  -21.6646   -6.8867   21.4231 O   0  0  0  0  0  0
  -22.3472  -14.5526   20.6679 O   0  0  0  0  0  0
  -24.6371  -31.8489   23.1927 C   0  0  0  0  0  0
  -25.9172  -32.4721   23.8285 C   0  0  1  0  0  0
  -27.2170  -27.1952   20.1492 C   0  0  0  0  0  0
  -25.5956  -33.8520   24.2217 N   0  0  0  0  0  0
  -23.4371  -30.4711   21.5365 C   0  0  2  0  0  0
  -24.8858  -28.9064   20.1118 C   0  0  0  0  0  0
  -22.7529  -29.4571   22.4866 C   0  0  0  0  0  0
  -18.0306  -28.1402   22.8480 C   0  0  0  0  0  0
  -24.1492  -36.7271   23.2637 C   0  0  0  0  0  0
  -25.9881  -30.7441   21.3809 C   0  0  0  0  0  0
  -26.0602  -29.3595   20.7255 C   0  0  0  0  0  0
  -27.2282  -28.5197   20.7277 C   0  0  0  0  0  0
  -26.0168  -26.8251   19.5038 C   0  0  0  0  0  0
  -24.8740  -27.6506   19.4860 C   0  0  0  0  0  0
  -23.6615  -29.8043   20.1537 C   0  0  0  0  0  0
  -25.4121  -36.3044   24.0312 C   0  0  1  0  0  0
  -20.5914  -28.3719   23.1264 C   0  0  2  0  0  0
  -20.6797  -26.9427   22.5425 C   0  0  0  0  0  0
  -19.5770  -26.6385   21.5228 C   0  0  0  0  0  0
  -18.1946  -26.7942   22.1628 C   0  0  0  0  0  0
  -19.1560  -28.8877   23.2868 C   0  0  0  0  0  0
  -18.9478  -30.1475   23.8890 C   0  0  0  0  0  0
  -17.6473  -30.6598   24.0568 C   0  0  0  0  0  0
  -25.9069  -34.9420   23.5068 C   0  0  0  0  0  0
  -16.5365  -29.9096   23.6335 C   0  0  0  0  0  0
  -16.7287  -28.6522   23.0340 C   0  0  0  0  0  0
  -26.4520  -31.6559   25.0695 C   0  0  0  0  0  0
  -25.3730  -31.3741   26.1409 C   0  0  0  0  0  0
  -27.0369  -30.2963   24.6215 C   0  0  0  0  0  0
  -27.6052  -32.4310   25.7494 C   0  0  0  0  0  0
  -27.5578  -37.1793   24.8461 C   0  0  0  0  0  0
  -21.4234  -29.3051   22.3631 N   0  0  0  0  0  0
  -26.4287  -37.3756   23.9409 N   0  0  0  0  0  0
  -24.7066  -31.0402   22.0937 N   0  0  0  0  0  0
  -23.4202  -28.8105   23.2983 O   0  0  0  0  0  0
  -28.2979  -26.2625   20.2097 O   0  0  0  0  0  0
  -26.5639  -34.8902   22.4639 O   0  0  0  0  0  0
  -23.5508  -32.1337   23.7199 O   0  0  0  0  0  0
  -29.8662  -17.3448   18.7239 C   0  0  0  0  0  0
  -29.4379  -18.6287   20.7408 C   0  0  0  0  0  0
  -29.6192  -18.5116   17.9651 C   0  0  0  0  0  0
  -29.7622  -17.3250   20.1292 C   0  0  0  0  0  0
  -29.2592  -19.8911   19.9946 C   0  0  0  0  0  0
  -29.3415  -19.7586   18.5828 C   0  0  0  0  0  0
  -29.3166  -23.7610   20.2404 C   0  0  0  0  0  0
  -29.6485  -22.3925   20.3682 C   0  0  0  0  0  0
  -31.1328  -22.0436   20.3778 C   0  0  0  0  0  0
  -28.0830  -18.4266   14.4686 C   0  0  0  0  0  0
  -27.2877  -17.3337   16.5188 C   0  0  0  0  0  0
  -29.5543  -18.3770   16.4456 C   0  0  0  0  0  0
  -28.0557  -24.7470   20.1611 C   0  0  0  0  0  0
  -29.8307  -15.9657   20.7824 N   0  0  0  0  0  0
  -28.1523  -18.3953   15.9450 N   0  3  0  0  0  0
  -28.8727  -21.1908   20.5200 O   0  0  0  0  0  0
  -28.9769  -21.1186   17.5701 Cl  0  0  0  0  0  0
  -31.4780  -12.6270   19.2050 H   0  0  0  0  0  0
  -30.3847  -11.5281   19.9903 H   0  0  0  0  0  0
  -29.8190  -11.7633   17.5407 H   0  0  0  0  0  0
  -29.6397  -13.4883   17.7339 H   0  0  0  0  0  0
  -27.9014  -11.3000   18.9120 H   0  0  0  0  0  0
  -27.3930  -12.5481   17.8043 H   0  0  0  0  0  0
  -27.6319  -14.2666   19.4771 H   0  0  0  0  0  0
  -28.7257  -12.1939   21.4401 H   0  0  0  0  0  0
  -28.4002  -13.8659   21.8092 H   0  0  0  0  0  0
  -25.2755   -9.5703   22.4737 H   0  0  0  0  0  0
  -24.0015   -7.4640   22.7464 H   0  0  0  0  0  0
  -21.0840   -8.8772   19.8956 H   0  0  0  0  0  0
  -22.3695  -10.9660   19.6164 H   0  0  0  0  0  0
  -21.2038   -7.6140   23.9713 H   0  0  0  0  0  0
  -21.1473   -6.0498   25.9055 H   0  0  0  0  0  0
  -22.0607   -2.7610   23.2830 H   0  0  0  0  0  0
  -22.4036  -11.9945   22.4862 H   0  0  0  0  0  0
  -21.1028  -13.1271   22.2574 H   0  0  0  0  0  0
  -24.6610  -15.8539   20.5551 H   0  0  0  0  0  0
  -26.2900  -15.6397   20.1579 H   0  0  0  0  0  0
  -26.7234  -32.5349   23.1011 H   0  0  0  0  0  0
  -25.0110  -33.9651   25.0366 H   0  0  0  0  0  0
  -22.7362  -31.2958   21.3885 H   0  0  0  0  0  0
  -23.3751  -35.9610   23.3295 H   0  0  0  0  0  0
  -24.3583  -36.8911   22.2058 H   0  0  0  0  0  0
  -23.7253  -37.6463   23.6682 H   0  0  0  0  0  0
  -26.1332  -31.4997   20.6074 H   0  0  0  0  0  0
  -26.8631  -30.7978   22.0171 H   0  0  0  0  0  0
  -28.1241  -28.8623   21.2263 H   0  0  0  0  0  0
  -25.9292  -25.8651   19.0189 H   0  0  0  0  0  0
  -23.9753  -27.3003   18.9976 H   0  0  0  0  0  0
  -23.8024  -30.5833   19.4035 H   0  0  0  0  0  0
  -22.7764  -29.2499   19.8365 H   0  0  0  0  0  0
  -25.1307  -36.1877   25.0801 H   0  0  0  0  0  0
  -21.0013  -28.3317   24.1381 H   0  0  0  0  0  0
  -20.5724  -26.2316   23.3629 H   0  0  0  0  0  0
  -21.6662  -26.7456   22.1208 H   0  0  0  0  0  0
  -19.6934  -25.6290   21.1268 H   0  0  0  0  0  0
  -19.6720  -27.3188   20.6751 H   0  0  0  0  0  0
  -17.4218  -26.6694   21.4024 H   0  0  0  0  0  0
  -18.0338  -26.0094   22.9036 H   0  0  0  0  0  0
  -19.7950  -30.7303   24.2246 H   0  0  0  0  0  0
  -17.5026  -31.6270   24.5183 H   0  0  0  0  0  0
  -15.5365  -30.2996   23.7668 H   0  0  0  0  0  0
  -15.8688  -28.0850   22.7036 H   0  0  0  0  0  0
  -24.5900  -30.7091   25.7748 H   0  0  0  0  0  0
  -24.8927  -32.2928   26.4787 H   0  0  0  0  0  0
  -25.8036  -30.8949   27.0212 H   0  0  0  0  0  0
  -26.2961  -29.6698   24.1232 H   0  0  0  0  0  0
  -27.4031  -29.7238   25.4748 H   0  0  0  0  0  0
  -27.8852  -30.4216   23.9482 H   0  0  0  0  0  0
  -27.2633  -33.3619   26.2032 H   0  0  0  0  0  0
  -28.3897  -32.6851   25.0354 H   0  0  0  0  0  0
  -28.0675  -31.8453   26.5450 H   0  0  0  0  0  0
  -28.2577  -38.0104   24.7506 H   0  0  0  0  0  0
  -28.1089  -36.2632   24.6284 H   0  0  0  0  0  0
  -27.2300  -37.1445   25.8863 H   0  0  0  0  0  0
  -20.9415  -29.8761   21.6831 H   0  0  0  0  0  0
  -26.0150  -38.2824   24.1414 H   0  0  0  0  0  0
  -30.0512  -16.4209   18.1929 H   0  0  0  0  0  0
  -29.3031  -18.6643   21.8124 H   0  0  0  0  0  0
  -30.1950  -24.3836   20.1410 H   0  0  0  0  0  0
  -31.7372  -22.8702   20.7523 H   0  0  0  0  0  0
  -31.4759  -21.8071   19.3709 H   0  0  0  0  0  0
  -31.3398  -21.1907   21.0241 H   0  0  0  0  0  0
  -27.0503  -18.5199   14.1299 H   0  0  0  0  0  0
  -28.5022  -17.5188   14.0350 H   0  0  0  0  0  0
  -28.6332  -19.2782   14.0679 H   0  0  0  0  0  0
  -26.2730  -17.4059   16.1275 H   0  0  0  0  0  0
  -27.2088  -17.4138   17.6029 H   0  0  0  0  0  0
  -27.6705  -16.3412   16.2825 H   0  0  0  0  0  0
  -30.0436  -17.4557   16.1245 H   0  0  0  0  0  0
  -30.1271  -19.1854   15.9878 H   0  0  0  0  0  0
  -27.3497  -24.4697   20.9444 H   0  0  0  0  0  0
  -27.5741  -24.5046   19.2143 H   0  0  0  0  0  0
  -29.0488  -15.7637   21.3879 H   0  0  0  0  0  0
  -27.7630  -19.2746   16.2540 H   0  0  0  0  0  0
  1 25  1  0  0  0
  1 30  2  0  0  0
  1 84  1  0  0  0
  2  3  1  0  0  0
  2 25  1  0  0  0
  2 88  1  0  0  0
  2 89  1  0  0  0
  3  4  1  0  0  0
  3 90  1  0  0  0
  3 91  1  0  0  0
  4  5  1  0  0  0
  4 92  1  0  0  0
  4 93  1  0  0  0
  5  6  1  0  0  0
  5 26  1  0  0  0
  5 94  1  0  0  0
  6 25  1  0  0  0
  6 95  1  0  0  0
  6 96  1  0  0  0
  7  8  2  0  0  0
  7 26  1  0  0  0
  7 29  1  0  0  0
  8  9  1  0  0  0
  8 22  1  0  0  0
  9 10  1  0  0  0
  9 27  2  0  0  0
 10 11  2  0  0  0
 10 15  1  0  0  0
 11 12  1  0  0  0
 11 97  1  0  0  0
 12 13  2  0  0  0
 12 98  1  0  0  0
 13 14  1  0  0  0
 13 31  1  0  0  0
 14 15  2  0  0  0
 14 99  1  0  0  0
 15100  1  0  0  0
 16 17  2  0  0  0
 16 21  1  0  0  0
 16 31  1  0  0  0
 17 18  1  0  0  0
 17101  1  0  0  0
 18 19  2  0  0  0
 18102  1  0  0  0
 19 20  1  0  0  0
 19 24  1  0  0  0
 20 21  2  0  0  0
 20103  1  0  0  0
 21 23  1  0  0  0
 22 28  1  0  0  0
 22 32  2  0  0  0
 26 27  1  0  0  0
 28104  1  0  0  0
 28105  1  0  0  0
 29106  1  0  0  0
 29107  1  0  0  0
 33 34  1  0  0  0
 33 66  1  0  0  0
 33 70  2  0  0  0
 34 36  1  0  0  0
 34 59  1  0  0  0
 34108  1  0  0  0
 35 44  2  0  0  0
 35 45  1  0  0  0
 35 68  1  0  0  0
 36 56  1  0  0  0
 36109  1  0  0  0
 37 39  1  0  0  0
 37 47  1  0  0  0
 37 66  1  0  0  0
 37110  1  0  0  0
 38 43  2  0  0  0
 38 46  1  0  0  0
 38 47  1  0  0  0
 39 64  1  0  0  0
 39 67  2  0  0  0
 40 52  1  0  0  0
 40 53  2  0  0  0
 40 58  1  0  0  0
 41111  1  0  0  0
 41112  1  0  0  0
 41113  1  0  0  0
 41 48  1  0  0  0
 42 43  1  0  0  0
 42 66  1  0  0  0
 42114  1  0  0  0
 42115  1  0  0  0
 43 44  1  0  0  0
 44116  1  0  0  0
 45 46  2  0  0  0
 45117  1  0  0  0
 46118  1  0  0  0
 47119  1  0  0  0
 47120  1  0  0  0
 48 56  1  0  0  0
 48 65  1  0  0  0
 48121  1  0  0  0
 49 50  1  0  0  0
 49 53  1  0  0  0
 49 64  1  0  0  0
 49122  1  0  0  0
 50 51  1  0  0  0
 50123  1  0  0  0
 50124  1  0  0  0
 51 52  1  0  0  0
 51125  1  0  0  0
 51126  1  0  0  0
 52127  1  0  0  0
 52128  1  0  0  0
 53 54  1  0  0  0
 54 55  2  0  0  0
 54129  1  0  0  0
 55 57  1  0  0  0
 55130  1  0  0  0
 56 69  2  0  0  0
 57 58  2  0  0  0
 57131  1  0  0  0
 58132  1  0  0  0
 59 60  1  0  0  0
 59 61  1  0  0  0
 59 62  1  0  0  0
 60133  1  0  0  0
 60134  1  0  0  0
 60135  1  0  0  0
 61136  1  0  0  0
 61137  1  0  0  0
 61138  1  0  0  0
 62139  1  0  0  0
 62140  1  0  0  0
 62141  1  0  0  0
 63 65  1  0  0  0
 63142  1  0  0  0
 63143  1  0  0  0
 63144  1  0  0  0
 64145  1  0  0  0
 65146  1  0  0  0
 68 83  1  0  0  0
 71 73  2  0  0  0
 71 74  1  0  0  0
 71147  1  0  0  0
 72 74  2  0  0  0
 72 75  1  0  0  0
 72148  1  0  0  0
 73 76  1  0  0  0
 73 82  1  0  0  0
 74 84  1  0  0  0
 75 76  2  0  0  0
 75 86  1  0  0  0
 76 87  1  0  0  0
 77 78  2  0  0  0
 77 83  1  0  0  0
 77149  1  0  0  0
 78 79  1  0  0  0
 78 86  1  0  0  0
 79150  1  0  0  0
 79151  1  0  0  0
 79152  1  0  0  0
 80153  1  0  0  0
 80154  1  0  0  0
 80155  1  0  0  0
 80 85  1  0  0  0
 81 85  1  0  0  0
 81156  1  0  0  0
 81157  1  0  0  0
 81158  1  0  0  0
 82 85  1  0  0  0
 82159  1  0  0  0
 82160  1  0  0  0
 83161  1  0  0  0
 83162  1  0  0  0
 84163  1  0  0  0
 85164  1  0  0  0
M  CHG  1  85   1
M  ISO  4   1 100  68 101  83 101  84 100
M  END
> <chiral flag>
0

> <version>
0

> <s_m_source_file>
/data/baiqing/PycharmProjects/Reinvent-master-3.2/result/LINK_invent/BTK/process_docking_weight1_custom_product_contain_oxygen_bond_distance_aromatic_linkinvent_7_9_3/rearranged_h_0112.sdf

> <i_m_source_file_index>
56

> <r_mmod_Potential_Energy-OPLS-2005>
183.244934082031

> <r_mmod_Stretch_Energy-OPLS-2005>
177.351165771484

> <r_mmod_Bend_Energy-OPLS-2005>
224.733383178711

> <r_mmod_Torsional_Energy-OPLS-2005>
250.444976806641

> <r_mmod_Improper_Torsional_Energy-OPLS-2005>
5.38756942749023

> <r_mmod_Van_der_Waal_Energy-OPLS-2005>
140.886337280273

> <r_mmod_Electrostatic_Energy-OPLS-2005>
-283.730072021484

> <r_mmod_Solvation_Energy-OPLS-2005>
-455.446563720703

> <b_mmod_Minimization_Converged-OPLS-2005>
0

> <r_mmod_RMS_Derivative-OPLS-2005>
2.13931226730347

$$$$
57
                    3D
 Structure written by MMmdl.
155163  0  0  1  0            999 V2000
  -30.7158  -14.5370   20.6227 C   0  0  0  0  0  0
  -30.4280  -12.3710   19.4373 C   0  0  0  0  0  0
  -29.4968  -12.5402   18.2204 C   0  0  0  0  0  0
  -28.0213  -12.3806   18.6347 C   0  0  0  0  0  0
  -27.6634  -13.2176   19.8932 C   0  0  2  0  0  0
  -28.7119  -13.0003   21.0102 C   0  0  0  0  0  0
  -25.2477  -13.8103   20.5562 C   0  0  0  0  0  0
  -24.1761  -13.0370   20.9067 C   0  0  0  0  0  0
  -24.6391  -11.6864   20.8717 C   0  0  0  0  0  0
  -23.9067  -10.4256   21.0399 C   0  0  0  0  0  0
  -24.3612   -9.4181   21.9188 C   0  0  0  0  0  0
  -23.6282   -8.2222   22.0760 C   0  0  0  0  0  0
  -22.4266   -8.0265   21.3546 C   0  0  0  0  0  0
  -21.9908   -9.0231   20.4642 C   0  0  0  0  0  0
  -22.7241  -10.2104   20.3046 C   0  0  0  0  0  0
  -21.6844   -6.0729   22.5284 C   0  0  0  0  0  0
  -21.4009   -6.5632   23.8218 C   0  0  0  0  0  0
  -21.3665   -5.6786   24.9181 C   0  0  0  0  0  0
  -21.6047   -4.3050   24.7229 C   0  0  0  0  0  0
  -21.8813   -3.8139   23.4351 C   0  0  0  0  0  0
  -21.9188   -4.6957   22.3407 C   0  0  0  0  0  0
  -22.7797  -13.5175   21.1780 C   0  0  0  0  0  0
  -22.1656   -4.2143   21.0985 F   0  0  0  0  0  0
  -21.5635   -3.4535   25.7743 F   0  0  0  0  0  0
  -30.0326  -13.3553   20.4664 N   0  0  0  0  0  0
  -26.3035  -12.9349   20.3502 N   0  0  0  0  0  0
  -25.9356  -11.6490   20.5869 N   0  0  0  0  0  0
  -22.0467  -12.8185   22.0374 N   0  0  0  0  0  0
  -25.4065  -15.1783   20.3862 N   0  0  0  0  0  0
  -31.7535  -14.7741   19.9941 O   0  0  0  0  0  0
  -21.6624   -6.8868   21.4247 O   0  0  0  0  0  0
  -22.3490  -14.5516   20.6690 O   0  0  0  0  0  0
  -24.6200  -31.8642   23.2037 C   0  0  0  0  0  0
  -25.9069  -32.4810   23.8352 C   0  0  1  0  0  0
  -27.2339  -27.3697   20.0982 C   0  0  0  0  0  0
  -25.5915  -33.8603   24.2294 N   0  0  0  0  0  0
  -23.4104  -30.4861   21.5460 C   0  0  2  0  0  0
  -24.8563  -28.9447   20.1103 C   0  0  0  0  0  0
  -22.7441  -29.4636   22.4957 C   0  0  0  0  0  0
  -18.0282  -28.1385   22.8495 C   0  0  0  0  0  0
  -24.1485  -36.7286   23.2632 C   0  0  0  0  0  0
  -25.9447  -30.8102   21.3638 C   0  0  0  0  0  0
  -26.0206  -29.4393   20.7098 C   0  0  0  0  0  0
  -27.2088  -28.6598   20.6993 C   0  0  0  0  0  0
  -26.0422  -26.9062   19.4929 C   0  0  0  0  0  0
  -24.8655  -27.6804   19.4978 C   0  0  0  0  0  0
  -23.6212  -29.8184   20.1607 C   0  0  0  0  0  0
  -25.4110  -36.3098   24.0334 C   0  0  1  0  0  0
  -20.5878  -28.3673   23.1313 C   0  0  2  0  0  0
  -20.6773  -26.9406   22.5421 C   0  0  0  0  0  0
  -19.5755  -26.6396   21.5214 C   0  0  0  0  0  0
  -18.1933  -26.7932   22.1626 C   0  0  0  0  0  0
  -19.1534  -28.8847   23.2906 C   0  0  0  0  0  0
  -18.9462  -30.1448   23.8916 C   0  0  0  0  0  0
  -17.6465  -30.6593   24.0569 C   0  0  0  0  0  0
  -25.9048  -34.9469   23.5109 C   0  0  0  0  0  0
  -16.5351  -29.9099   23.6328 C   0  0  0  0  0  0
  -16.7273  -28.6516   23.0354 C   0  0  0  0  0  0
  -26.4475  -31.6601   25.0692 C   0  0  0  0  0  0
  -25.3728  -31.3722   26.1438 C   0  0  0  0  0  0
  -27.0296  -30.3042   24.6071 C   0  0  0  0  0  0
  -27.6042  -32.4318   25.7475 C   0  0  0  0  0  0
  -27.5578  -37.1800   24.8462 C   0  0  0  0  0  0
  -21.4159  -29.3035   22.3706 N   0  0  0  0  0  0
  -26.4285  -37.3795   23.9414 N   0  0  0  0  0  0
  -24.6774  -31.0690   22.0965 N   0  0  0  0  0  0
  -23.4192  -28.8181   23.3023 O   0  0  0  0  0  0
  -28.3879  -26.5866   20.1523 O   0  0  0  0  0  0
  -26.5612  -34.8931   22.4673 O   0  0  0  0  0  0
  -23.5380  -32.1423   23.7400 O   0  0  0  0  0  0
  -27.3680  -18.0533   21.5386 C   0  0  0  0  0  0
  -27.9766  -19.2110   21.0332 C   0  0  0  0  0  0
  -30.0739  -17.9850   20.8531 C   0  0  0  0  0  0
  -29.4821  -16.7880   21.3833 C   0  0  0  0  0  0
  -28.1082  -16.8754   21.7539 C   0  0  0  0  0  0
  -29.3473  -19.2160   20.7126 C   0  0  0  0  0  0
  -28.8285  -24.1879   20.3643 C   0  0  0  0  0  0
  -28.4113  -25.2798   19.6621 C   0  0  0  0  0  0
  -30.2831  -15.5318   21.7248 C   0  0  0  0  0  0
  -28.9175  -22.7267   19.8404 C   0  0  0  0  0  0
  -29.5847  -21.6818   20.8098 C   0  0  0  0  0  0
  -30.6123  -15.3057   22.9312 N   0  0  0  0  0  0
  -27.4345  -15.8386   22.3997 N   0  0  0  0  0  0
  -29.9550  -20.3843   20.2462 O   0  0  0  0  0  0
  -31.4702  -12.4799   19.1341 H   0  0  0  0  0  0
  -30.3491  -11.3600   19.8397 H   0  0  0  0  0  0
  -29.7510  -11.8143   17.4475 H   0  0  0  0  0  0
  -29.6496  -13.5254   17.7773 H   0  0  0  0  0  0
  -27.8475  -11.3227   18.8343 H   0  0  0  0  0  0
  -27.3650  -12.6458   17.8054 H   0  0  0  0  0  0
  -27.7013  -14.2687   19.6046 H   0  0  0  0  0  0
  -28.7124  -11.9549   21.3227 H   0  0  0  0  0  0
  -28.4629  -13.5548   21.9096 H   0  0  0  0  0  0
  -25.2757   -9.5653   22.4766 H   0  0  0  0  0  0
  -23.9982   -7.4612   22.7485 H   0  0  0  0  0  0
  -21.0843   -8.8747   19.8942 H   0  0  0  0  0  0
  -22.3710  -10.9635   19.6144 H   0  0  0  0  0  0
  -21.1996   -7.6138   23.9722 H   0  0  0  0  0  0
  -21.1501   -6.0517   25.9088 H   0  0  0  0  0  0
  -22.0588   -2.7599   23.2850 H   0  0  0  0  0  0
  -22.4077  -11.9821   22.4719 H   0  0  0  0  0  0
  -21.1112  -13.1248   22.2645 H   0  0  0  0  0  0
  -24.6251  -15.7379   20.7051 H   0  0  0  0  0  0
  -26.2790  -15.5103   20.8045 H   0  0  0  0  0  0
  -26.7122  -32.5495   23.1092 H   0  0  0  0  0  0
  -25.0086  -33.9759   25.0451 H   0  0  0  0  0  0
  -22.7020  -31.3052   21.4051 H   0  0  0  0  0  0
  -23.3761  -35.9603   23.3306 H   0  0  0  0  0  0
  -24.3581  -36.8897   22.2044 H   0  0  0  0  0  0
  -23.7222  -37.6484   23.6643 H   0  0  0  0  0  0
  -26.0618  -31.5735   20.5931 H   0  0  0  0  0  0
  -26.8310  -30.8668   21.9842 H   0  0  0  0  0  0
  -28.1043  -29.0366   21.1732 H   0  0  0  0  0  0
  -25.9934  -25.9324   19.0282 H   0  0  0  0  0  0
  -23.9685  -27.2911   19.0351 H   0  0  0  0  0  0
  -23.7314  -30.5936   19.4014 H   0  0  0  0  0  0
  -22.7436  -29.2419   19.8642 H   0  0  0  0  0  0
  -25.1291  -36.1953   25.0830 H   0  0  0  0  0  0
  -20.9976  -28.3237   24.1434 H   0  0  0  0  0  0
  -20.5686  -26.2275   23.3608 H   0  0  0  0  0  0
  -21.6643  -26.7467   22.1207 H   0  0  0  0  0  0
  -19.6920  -25.6319   21.1225 H   0  0  0  0  0  0
  -19.6697  -27.3223   20.6755 H   0  0  0  0  0  0
  -17.4211  -26.6696   21.4016 H   0  0  0  0  0  0
  -18.0331  -26.0072   22.9020 H   0  0  0  0  0  0
  -19.7936  -30.7258   24.2300 H   0  0  0  0  0  0
  -17.5025  -31.6272   24.5173 H   0  0  0  0  0  0
  -15.5358  -30.3014   23.7638 H   0  0  0  0  0  0
  -15.8673  -28.0839   22.7064 H   0  0  0  0  0  0
  -24.5910  -30.7058   25.7781 H   0  0  0  0  0  0
  -24.8893  -32.2879   26.4849 H   0  0  0  0  0  0
  -25.8072  -30.8926   27.0216 H   0  0  0  0  0  0
  -26.2838  -29.6838   24.1087 H   0  0  0  0  0  0
  -27.4040  -29.7251   25.4517 H   0  0  0  0  0  0
  -27.8692  -30.4371   23.9242 H   0  0  0  0  0  0
  -27.2661  -33.3628   26.2032 H   0  0  0  0  0  0
  -28.3870  -32.6861   25.0319 H   0  0  0  0  0  0
  -28.0678  -31.8445   26.5409 H   0  0  0  0  0  0
  -28.2592  -38.0103   24.7543 H   0  0  0  0  0  0
  -28.1090  -36.2642   24.6259 H   0  0  0  0  0  0
  -27.2304  -37.1417   25.8867 H   0  0  0  0  0  0
  -20.9322  -29.8757   21.6927 H   0  0  0  0  0  0
  -26.0174  -38.2869   24.1444 H   0  0  0  0  0  0
  -26.3200  -18.0946   21.8006 H   0  0  0  0  0  0
  -27.3743  -20.0986   20.9052 H   0  0  0  0  0  0
  -31.1268  -17.9744   20.6089 H   0  0  0  0  0  0
  -29.1338  -24.3329   21.3912 H   0  0  0  0  0  0
  -28.0846  -25.2266   18.6321 H   0  0  0  0  0  0
  -29.4724  -22.7473   18.9023 H   0  0  0  0  0  0
  -27.9119  -22.3880   19.5887 H   0  0  0  0  0  0
  -28.9794  -21.5721   21.7098 H   0  0  0  0  0  0
  -30.5213  -22.1140   21.1634 H   0  0  0  0  0  0
  -30.2742  -16.0432   23.5379 H   0  0  0  0  0  0
  -26.5835  -16.0867   22.8931 H   0  0  0  0  0  0
  -28.0014  -15.2096   22.9586 H   0  0  0  0  0  0
  1 25  1  0  0  0
  1 30  2  0  0  0
  1 79  1  0  0  0
  2  3  1  0  0  0
  2 25  1  0  0  0
  2 85  1  0  0  0
  2 86  1  0  0  0
  3  4  1  0  0  0
  3 87  1  0  0  0
  3 88  1  0  0  0
  4  5  1  0  0  0
  4 89  1  0  0  0
  4 90  1  0  0  0
  5  6  1  0  0  0
  5 26  1  0  0  0
  5 91  1  0  0  0
  6 25  1  0  0  0
  6 92  1  0  0  0
  6 93  1  0  0  0
  7  8  2  0  0  0
  7 26  1  0  0  0
  7 29  1  0  0  0
  8  9  1  0  0  0
  8 22  1  0  0  0
  9 10  1  0  0  0
  9 27  2  0  0  0
 10 11  2  0  0  0
 10 15  1  0  0  0
 11 12  1  0  0  0
 11 94  1  0  0  0
 12 13  2  0  0  0
 12 95  1  0  0  0
 13 14  1  0  0  0
 13 31  1  0  0  0
 14 15  2  0  0  0
 14 96  1  0  0  0
 15 97  1  0  0  0
 16 17  2  0  0  0
 16 21  1  0  0  0
 16 31  1  0  0  0
 17 18  1  0  0  0
 17 98  1  0  0  0
 18 19  2  0  0  0
 18 99  1  0  0  0
 19 20  1  0  0  0
 19 24  1  0  0  0
 20 21  2  0  0  0
 20100  1  0  0  0
 21 23  1  0  0  0
 22 28  1  0  0  0
 22 32  2  0  0  0
 26 27  1  0  0  0
 28101  1  0  0  0
 28102  1  0  0  0
 29103  1  0  0  0
 29104  1  0  0  0
 33 34  1  0  0  0
 33 66  1  0  0  0
 33 70  2  0  0  0
 34 36  1  0  0  0
 34 59  1  0  0  0
 34105  1  0  0  0
 35 44  2  0  0  0
 35 45  1  0  0  0
 35 68  1  0  0  0
 36 56  1  0  0  0
 36106  1  0  0  0
 37 39  1  0  0  0
 37 47  1  0  0  0
 37 66  1  0  0  0
 37107  1  0  0  0
 38 43  2  0  0  0
 38 46  1  0  0  0
 38 47  1  0  0  0
 39 64  1  0  0  0
 39 67  2  0  0  0
 40 52  1  0  0  0
 40 53  2  0  0  0
 40 58  1  0  0  0
 41108  1  0  0  0
 41109  1  0  0  0
 41110  1  0  0  0
 41 48  1  0  0  0
 42 43  1  0  0  0
 42 66  1  0  0  0
 42111  1  0  0  0
 42112  1  0  0  0
 43 44  1  0  0  0
 44113  1  0  0  0
 45 46  2  0  0  0
 45114  1  0  0  0
 46115  1  0  0  0
 47116  1  0  0  0
 47117  1  0  0  0
 48 56  1  0  0  0
 48 65  1  0  0  0
 48118  1  0  0  0
 49 50  1  0  0  0
 49 53  1  0  0  0
 49 64  1  0  0  0
 49119  1  0  0  0
 50 51  1  0  0  0
 50120  1  0  0  0
 50121  1  0  0  0
 51 52  1  0  0  0
 51122  1  0  0  0
 51123  1  0  0  0
 52124  1  0  0  0
 52125  1  0  0  0
 53 54  1  0  0  0
 54 55  2  0  0  0
 54126  1  0  0  0
 55 57  1  0  0  0
 55127  1  0  0  0
 56 69  2  0  0  0
 57 58  2  0  0  0
 57128  1  0  0  0
 58129  1  0  0  0
 59 60  1  0  0  0
 59 61  1  0  0  0
 59 62  1  0  0  0
 60130  1  0  0  0
 60131  1  0  0  0
 60132  1  0  0  0
 61133  1  0  0  0
 61134  1  0  0  0
 61135  1  0  0  0
 62136  1  0  0  0
 62137  1  0  0  0
 62138  1  0  0  0
 63 65  1  0  0  0
 63139  1  0  0  0
 63140  1  0  0  0
 63141  1  0  0  0
 64142  1  0  0  0
 65143  1  0  0  0
 68 78  1  0  0  0
 71 72  2  0  0  0
 71 75  1  0  0  0
 71144  1  0  0  0
 72 76  1  0  0  0
 72145  1  0  0  0
 73 74  1  0  0  0
 73 76  2  0  0  0
 73146  1  0  0  0
 74 75  2  0  0  0
 74 79  1  0  0  0
 75 83  1  0  0  0
 76 84  1  0  0  0
 77 78  2  0  0  0
 77 80  1  0  0  0
 77147  1  0  0  0
 78148  1  0  0  0
 79 82  2  0  0  0
 80 81  1  0  0  0
 80149  1  0  0  0
 80150  1  0  0  0
 81 84  1  0  0  0
 81151  1  0  0  0
 81152  1  0  0  0
 82153  1  0  0  0
 83154  1  0  0  0
 83155  1  0  0  0
M  ISO  4   1 100  68 101  78 101  79 100
M  END
> <chiral flag>
0

> <version>
0

> <s_m_source_file>
/data/baiqing/PycharmProjects/Reinvent-master-3.2/result/LINK_invent/BTK/process_docking_weight1_custom_product_contain_oxygen_bond_distance_aromatic_linkinvent_7_9_3/rearranged_h_0112.sdf

> <i_m_source_file_index>
57

> <r_mmod_Potential_Energy-OPLS-2005>
207.679428100586

> <r_mmod_Stretch_Energy-OPLS-2005>
66.1189804077148

> <r_mmod_Bend_Energy-OPLS-2005>
124.273590087891

> <r_mmod_Torsional_Energy-OPLS-2005>
265.338928222656

> <r_mmod_Improper_Torsional_Energy-OPLS-2005>
13.7623453140259

> <r_mmod_Van_der_Waal_Energy-OPLS-2005>
149.215606689453

> <r_mmod_Electrostatic_Energy-OPLS-2005>
-235.997528076172

> <r_mmod_Solvation_Energy-OPLS-2005>
-199.778762817383

> <b_mmod_Minimization_Converged-OPLS-2005>
0

> <r_mmod_RMS_Derivative-OPLS-2005>
1.23481798171997

$$$$
58
                    3D
 Structure written by MMmdl.
162171  0  0  1  0            999 V2000
  -30.6181  -14.7256   20.4600 C   0  0  0  0  0  0
  -30.4328  -12.4384   19.4936 C   0  0  0  0  0  0
  -29.5244  -12.5103   18.2487 C   0  0  0  0  0  0
  -28.0440  -12.3487   18.6456 C   0  0  0  0  0  0
  -27.6462  -13.2355   19.8572 C   0  0  2  0  0  0
  -28.6857  -13.1607   20.9979 C   0  0  0  0  0  0
  -25.2528  -13.8200   20.5663 C   0  0  0  0  0  0
  -24.1820  -13.0445   20.9169 C   0  0  0  0  0  0
  -24.6407  -11.6925   20.8726 C   0  0  0  0  0  0
  -23.9080  -10.4296   21.0371 C   0  0  0  0  0  0
  -24.3647   -9.4221   21.9151 C   0  0  0  0  0  0
  -23.6314   -8.2260   22.0742 C   0  0  0  0  0  0
  -22.4287   -8.0287   21.3544 C   0  0  0  0  0  0
  -21.9912   -9.0256   20.4642 C   0  0  0  0  0  0
  -22.7243  -10.2131   20.3031 C   0  0  0  0  0  0
  -21.6870   -6.0733   22.5261 C   0  0  0  0  0  0
  -21.4030   -6.5634   23.8195 C   0  0  0  0  0  0
  -21.3669   -5.6782   24.9157 C   0  0  0  0  0  0
  -21.6043   -4.3038   24.7200 C   0  0  0  0  0  0
  -21.8831   -3.8140   23.4318 C   0  0  0  0  0  0
  -21.9203   -4.6964   22.3383 C   0  0  0  0  0  0
  -22.7840  -13.5231   21.1815 C   0  0  0  0  0  0
  -22.1656   -4.2151   21.0957 F   0  0  0  0  0  0
  -21.5635   -3.4523   25.7711 F   0  0  0  0  0  0
  -29.9931  -13.5016   20.4273 N   0  0  0  0  0  0
  -26.2959  -12.9419   20.3285 N   0  0  0  0  0  0
  -25.9343  -11.6557   20.5757 N   0  0  0  0  0  0
  -22.0485  -12.8236   22.0384 N   0  0  0  0  0  0
  -25.4205  -15.1929   20.4056 N   0  0  0  0  0  0
  -31.8035  -14.8072   20.1220 O   0  0  0  0  0  0
  -21.6667   -6.8877   21.4222 O   0  0  0  0  0  0
  -22.3500  -14.5507   20.6627 O   0  0  0  0  0  0
  -24.6326  -31.8575   23.2010 C   0  0  0  0  0  0
  -25.9162  -32.4753   23.8339 C   0  0  1  0  0  0
  -27.2086  -27.2708   20.1312 C   0  0  0  0  0  0
  -25.5975  -33.8557   24.2277 N   0  0  0  0  0  0
  -23.4256  -30.4846   21.5439 C   0  0  2  0  0  0
  -24.8715  -28.9421   20.1073 C   0  0  0  0  0  0
  -22.7511  -29.4610   22.4897 C   0  0  0  0  0  0
  -18.0299  -28.1348   22.8489 C   0  0  0  0  0  0
  -24.1495  -36.7290   23.2632 C   0  0  0  0  0  0
  -25.9723  -30.7775   21.3761 C   0  0  0  0  0  0
  -26.0444  -29.4019   20.7182 C   0  0  0  0  0  0
  -27.2176  -28.5790   20.7200 C   0  0  0  0  0  0
  -26.0102  -26.8871   19.4802 C   0  0  0  0  0  0
  -24.8605  -27.6923   19.4762 C   0  0  0  0  0  0
  -23.6428  -29.8268   20.1571 C   0  0  0  0  0  0
  -25.4114  -36.3058   24.0321 C   0  0  1  0  0  0
  -20.5909  -28.3671   23.1257 C   0  0  2  0  0  0
  -20.6782  -26.9381   22.5401 C   0  0  0  0  0  0
  -19.5750  -26.6346   21.5211 C   0  0  0  0  0  0
  -18.1932  -26.7888   22.1616 C   0  0  0  0  0  0
  -19.1555  -28.8828   23.2867 C   0  0  0  0  0  0
  -18.9466  -30.1433   23.8870 C   0  0  0  0  0  0
  -17.6464  -30.6555   24.0545 C   0  0  0  0  0  0
  -25.9066  -34.9435   23.5093 C   0  0  0  0  0  0
  -16.5359  -29.9050   23.6313 C   0  0  0  0  0  0
  -16.7282  -28.6464   23.0343 C   0  0  0  0  0  0
  -26.4524  -31.6557   25.0720 C   0  0  0  0  0  0
  -25.3771  -31.3684   26.1456 C   0  0  0  0  0  0
  -27.0389  -30.2987   24.6171 C   0  0  0  0  0  0
  -27.6046  -32.4308   25.7532 C   0  0  0  0  0  0
  -27.5570  -37.1809   24.8454 C   0  0  0  0  0  0
  -21.4213  -29.3042   22.3659 N   0  0  0  0  0  0
  -26.4274  -37.3771   23.9414 N   0  0  0  0  0  0
  -24.6965  -31.0569   22.0969 N   0  0  0  0  0  0
  -23.4223  -28.8138   23.2968 O   0  0  0  0  0  0
  -28.2844  -26.3541   20.2140 O   0  0  0  0  0  0
  -26.5606  -34.8909   22.4643 O   0  0  0  0  0  0
  -23.5479  -32.1372   23.7323 O   0  0  0  0  0  0
  -30.9628  -18.7092   18.4257 C   0  0  0  0  0  0
  -30.4146  -19.8646   19.0151 C   0  0  0  0  0  0
  -30.7772  -17.4365   18.9953 C   0  0  0  0  0  0
  -29.4633  -18.4630   20.7591 C   0  0  0  0  0  0
  -29.6312  -19.7962   20.1846 C   0  0  0  0  0  0
  -30.0429  -17.2513   20.1902 C   0  0  0  0  0  0
  -30.1640  -24.0735   20.9210 C   0  0  0  0  0  0
  -28.9692  -23.7376   20.3840 C   0  0  0  0  0  0
  -31.2539  -23.1544   21.3047 C   0  0  0  0  0  0
  -31.0163  -21.8902   22.1479 C   0  0  0  0  0  0
  -29.6056  -21.2857   22.1225 C   0  0  0  0  0  0
  -28.4959  -22.2386   20.0870 C   0  0  1  0  0  0
  -28.1885  -22.0224   18.5931 C   0  0  0  0  0  0
  -27.9588  -24.9022   20.0142 C   0  0  0  0  0  0
  -29.1505  -21.0423   20.7623 N   0  0  0  0  0  0
  -29.8664  -15.8680   20.7132 N   0  0  0  0  0  0
  -32.4200  -23.4166   20.9990 O   0  0  0  0  0  0
  -31.4799  -12.5459   19.2060 H   0  0  0  0  0  0
  -30.3534  -11.4593   19.9679 H   0  0  0  0  0  0
  -29.8092  -11.7379   17.5336 H   0  0  0  0  0  0
  -29.6727  -13.4670   17.7442 H   0  0  0  0  0  0
  -27.8786  -11.2973   18.8855 H   0  0  0  0  0  0
  -27.4032  -12.5697   17.7917 H   0  0  0  0  0  0
  -27.6438  -14.2617   19.4911 H   0  0  0  0  0  0
  -28.7100  -12.1633   21.4382 H   0  0  0  0  0  0
  -28.4220  -13.8407   21.8090 H   0  0  0  0  0  0
  -25.2805   -9.5704   22.4706 H   0  0  0  0  0  0
  -24.0034   -7.4659   22.7456 H   0  0  0  0  0  0
  -21.0849   -8.8770   19.8952 H   0  0  0  0  0  0
  -22.3692  -10.9671   19.6143 H   0  0  0  0  0  0
  -21.2025   -7.6140   23.9698 H   0  0  0  0  0  0
  -21.1479   -6.0506   25.9062 H   0  0  0  0  0  0
  -22.0605   -2.7600   23.2815 H   0  0  0  0  0  0
  -22.4130  -11.9968   22.4881 H   0  0  0  0  0  0
  -21.1070  -13.1217   22.2504 H   0  0  0  0  0  0
  -24.6541  -15.8469   20.5216 H   0  0  0  0  0  0
  -26.2664  -15.6337   20.0660 H   0  0  0  0  0  0
  -26.7237  -32.5416   23.1085 H   0  0  0  0  0  0
  -25.0201  -33.9686   25.0473 H   0  0  0  0  0  0
  -22.7215  -31.3066   21.4016 H   0  0  0  0  0  0
  -23.3746  -35.9629   23.3259 H   0  0  0  0  0  0
  -24.3580  -36.8947   22.2048 H   0  0  0  0  0  0
  -23.7250  -37.6487   23.6675 H   0  0  0  0  0  0
  -26.1043  -31.5382   20.6047 H   0  0  0  0  0  0
  -26.8537  -30.8304   22.0030 H   0  0  0  0  0  0
  -28.1142  -28.9239   21.2144 H   0  0  0  0  0  0
  -25.9132  -25.9357   18.9814 H   0  0  0  0  0  0
  -23.9640  -27.3369   18.9861 H   0  0  0  0  0  0
  -23.7661  -30.6062   19.4037 H   0  0  0  0  0  0
  -22.7610  -29.2604   19.8497 H   0  0  0  0  0  0
  -25.1294  -36.1888   25.0808 H   0  0  0  0  0  0
  -21.0008  -28.3236   24.1371 H   0  0  0  0  0  0
  -20.5665  -26.2290   23.3610 H   0  0  0  0  0  0
  -21.6653  -26.7383   22.1202 H   0  0  0  0  0  0
  -19.6915  -25.6255   21.1238 H   0  0  0  0  0  0
  -19.6680  -27.3160   20.6739 H   0  0  0  0  0  0
  -17.4215  -26.6653   21.4004 H   0  0  0  0  0  0
  -18.0315  -26.0009   22.8983 H   0  0  0  0  0  0
  -19.7953  -30.7264   24.2211 H   0  0  0  0  0  0
  -17.5015  -31.6232   24.5148 H   0  0  0  0  0  0
  -15.5355  -30.2941   23.7630 H   0  0  0  0  0  0
  -15.8682  -28.0769   22.7057 H   0  0  0  0  0  0
  -24.5926  -30.7051   25.7793 H   0  0  0  0  0  0
  -24.8999  -32.2861   26.4922 H   0  0  0  0  0  0
  -25.8132  -30.8834   27.0205 H   0  0  0  0  0  0
  -26.2990  -29.6724   24.1185 H   0  0  0  0  0  0
  -27.4091  -29.7228   25.4663 H   0  0  0  0  0  0
  -27.8844  -30.4266   23.9404 H   0  0  0  0  0  0
  -27.2600  -33.3569   26.2139 H   0  0  0  0  0  0
  -28.3880  -32.6944   25.0415 H   0  0  0  0  0  0
  -28.0703  -31.8433   26.5453 H   0  0  0  0  0  0
  -28.2572  -38.0123   24.7512 H   0  0  0  0  0  0
  -28.1086  -36.2658   24.6264 H   0  0  0  0  0  0
  -27.2289  -37.1425   25.8854 H   0  0  0  0  0  0
  -20.9384  -29.8819   21.6933 H   0  0  0  0  0  0
  -26.0137  -38.2841   24.1423 H   0  0  0  0  0  0
  -31.5514  -18.8051   17.5254 H   0  0  0  0  0  0
  -30.6396  -20.8189   18.5636 H   0  0  0  0  0  0
  -31.2182  -16.5968   18.4805 H   0  0  0  0  0  0
  -28.8780  -18.3701   21.6636 H   0  0  0  0  0  0
  -30.3810  -25.1224   21.0577 H   0  0  0  0  0  0
  -31.3012  -22.1074   23.1770 H   0  0  0  0  0  0
  -31.7192  -21.1338   21.7969 H   0  0  0  0  0  0
  -28.9112  -21.9607   22.6267 H   0  0  0  0  0  0
  -29.5951  -20.3647   22.7065 H   0  0  0  0  0  0
  -27.5069  -22.2217   20.5498 H   0  0  0  0  0  0
  -29.0668  -22.1616   17.9650 H   0  0  0  0  0  0
  -27.4396  -22.7301   18.2391 H   0  0  0  0  0  0
  -27.7755  -21.0316   18.4003 H   0  0  0  0  0  0
  -27.0394  -24.6703   20.5560 H   0  0  0  0  0  0
  -27.7430  -24.7838   18.9551 H   0  0  0  0  0  0
  -28.9934  -15.6967   21.1895 H   0  0  0  0  0  0
  1 25  1  0  0  0
  1 30  2  0  0  0
  1 86  1  0  0  0
  2  3  1  0  0  0
  2 25  1  0  0  0
  2 88  1  0  0  0
  2 89  1  0  0  0
  3  4  1  0  0  0
  3 90  1  0  0  0
  3 91  1  0  0  0
  4  5  1  0  0  0
  4 92  1  0  0  0
  4 93  1  0  0  0
  5  6  1  0  0  0
  5 26  1  0  0  0
  5 94  1  0  0  0
  6 25  1  0  0  0
  6 95  1  0  0  0
  6 96  1  0  0  0
  7  8  2  0  0  0
  7 26  1  0  0  0
  7 29  1  0  0  0
  8  9  1  0  0  0
  8 22  1  0  0  0
  9 10  1  0  0  0
  9 27  2  0  0  0
 10 11  2  0  0  0
 10 15  1  0  0  0
 11 12  1  0  0  0
 11 97  1  0  0  0
 12 13  2  0  0  0
 12 98  1  0  0  0
 13 14  1  0  0  0
 13 31  1  0  0  0
 14 15  2  0  0  0
 14 99  1  0  0  0
 15100  1  0  0  0
 16 17  2  0  0  0
 16 21  1  0  0  0
 16 31  1  0  0  0
 17 18  1  0  0  0
 17101  1  0  0  0
 18 19  2  0  0  0
 18102  1  0  0  0
 19 20  1  0  0  0
 19 24  1  0  0  0
 20 21  2  0  0  0
 20103  1  0  0  0
 21 23  1  0  0  0
 22 28  1  0  0  0
 22 32  2  0  0  0
 26 27  1  0  0  0
 28104  1  0  0  0
 28105  1  0  0  0
 29106  1  0  0  0
 29107  1  0  0  0
 33 34  1  0  0  0
 33 66  1  0  0  0
 33 70  2  0  0  0
 34 36  1  0  0  0
 34 59  1  0  0  0
 34108  1  0  0  0
 35 44  2  0  0  0
 35 45  1  0  0  0
 35 68  1  0  0  0
 36 56  1  0  0  0
 36109  1  0  0  0
 37 39  1  0  0  0
 37 47  1  0  0  0
 37 66  1  0  0  0
 37110  1  0  0  0
 38 43  2  0  0  0
 38 46  1  0  0  0
 38 47  1  0  0  0
 39 64  1  0  0  0
 39 67  2  0  0  0
 40 52  1  0  0  0
 40 53  2  0  0  0
 40 58  1  0  0  0
 41111  1  0  0  0
 41112  1  0  0  0
 41113  1  0  0  0
 41 48  1  0  0  0
 42 43  1  0  0  0
 42 66  1  0  0  0
 42114  1  0  0  0
 42115  1  0  0  0
 43 44  1  0  0  0
 44116  1  0  0  0
 45 46  2  0  0  0
 45117  1  0  0  0
 46118  1  0  0  0
 47119  1  0  0  0
 47120  1  0  0  0
 48 56  1  0  0  0
 48 65  1  0  0  0
 48121  1  0  0  0
 49 50  1  0  0  0
 49 53  1  0  0  0
 49 64  1  0  0  0
 49122  1  0  0  0
 50 51  1  0  0  0
 50123  1  0  0  0
 50124  1  0  0  0
 51 52  1  0  0  0
 51125  1  0  0  0
 51126  1  0  0  0
 52127  1  0  0  0
 52128  1  0  0  0
 53 54  1  0  0  0
 54 55  2  0  0  0
 54129  1  0  0  0
 55 57  1  0  0  0
 55130  1  0  0  0
 56 69  2  0  0  0
 57 58  2  0  0  0
 57131  1  0  0  0
 58132  1  0  0  0
 59 60  1  0  0  0
 59 61  1  0  0  0
 59 62  1  0  0  0
 60133  1  0  0  0
 60134  1  0  0  0
 60135  1  0  0  0
 61136  1  0  0  0
 61137  1  0  0  0
 61138  1  0  0  0
 62139  1  0  0  0
 62140  1  0  0  0
 62141  1  0  0  0
 63 65  1  0  0  0
 63142  1  0  0  0
 63143  1  0  0  0
 63144  1  0  0  0
 64145  1  0  0  0
 65146  1  0  0  0
 68 84  1  0  0  0
 71 72  2  0  0  0
 71 73  1  0  0  0
 71147  1  0  0  0
 72 75  1  0  0  0
 72148  1  0  0  0
 73 76  2  0  0  0
 73149  1  0  0  0
 74 75  2  0  0  0
 74 76  1  0  0  0
 74150  1  0  0  0
 75 85  1  0  0  0
 76 86  1  0  0  0
 77 78  2  0  0  0
 77 79  1  0  0  0
 77151  1  0  0  0
 78 82  1  0  0  0
 78 84  1  0  0  0
 79 80  1  0  0  0
 79 87  2  0  0  0
 80 81  1  0  0  0
 80152  1  0  0  0
 80153  1  0  0  0
 81 85  1  0  0  0
 81154  1  0  0  0
 81155  1  0  0  0
 82 83  1  0  0  0
 82 85  1  0  0  0
 82156  1  0  0  0
 83157  1  0  0  0
 83158  1  0  0  0
 83159  1  0  0  0
 84160  1  0  0  0
 84161  1  0  0  0
 86162  1  0  0  0
M  ISO  4   1 100  68 101  84 101  86 100
M  END
> <chiral flag>
0

> <version>
0

> <s_m_source_file>
/data/baiqing/PycharmProjects/Reinvent-master-3.2/result/LINK_invent/BTK/process_docking_weight1_custom_product_contain_oxygen_bond_distance_aromatic_linkinvent_7_9_3/rearranged_h_0112.sdf

> <i_m_source_file_index>
58

> <r_mmod_Potential_Energy-OPLS-2005>
181.18815612793

> <r_mmod_Stretch_Energy-OPLS-2005>
121.916854858398

> <r_mmod_Bend_Energy-OPLS-2005>
191.648422241211

> <r_mmod_Torsional_Energy-OPLS-2005>
238.84130859375

> <r_mmod_Improper_Torsional_Energy-OPLS-2005>
5.07342195510864

> <r_mmod_Van_der_Waal_Energy-OPLS-2005>
156.472259521484

> <r_mmod_Electrostatic_Energy-OPLS-2005>
-381.366516113281

> <r_mmod_Solvation_Energy-OPLS-2005>
-233.148239135742

> <b_mmod_Minimization_Converged-OPLS-2005>
0

> <r_mmod_RMS_Derivative-OPLS-2005>
2.76649284362793

$$$$
59
                    3D
 Structure written by MMmdl.
164173  0  0  1  0            999 V2000
  -30.6972  -14.5367   20.5467 C   0  0  0  0  0  0
  -30.4165  -12.3400   19.4390 C   0  0  0  0  0  0
  -29.4944  -12.5013   18.2137 C   0  0  0  0  0  0
  -28.0174  -12.3532   18.6261 C   0  0  0  0  0  0
  -27.6530  -13.2156   19.8649 C   0  0  2  0  0  0
  -28.6960  -13.0526   20.9937 C   0  0  0  0  0  0
  -25.2549  -13.8183   20.5676 C   0  0  0  0  0  0
  -24.1823  -13.0444   20.9192 C   0  0  0  0  0  0
  -24.6390  -11.6914   20.8743 C   0  0  0  0  0  0
  -23.9063  -10.4296   21.0405 C   0  0  0  0  0  0
  -24.3616   -9.4209   21.9181 C   0  0  0  0  0  0
  -23.6293   -8.2244   22.0752 C   0  0  0  0  0  0
  -22.4275   -8.0283   21.3545 C   0  0  0  0  0  0
  -21.9911   -9.0253   20.4641 C   0  0  0  0  0  0
  -22.7237  -10.2134   20.3051 C   0  0  0  0  0  0
  -21.6851   -6.0738   22.5279 C   0  0  0  0  0  0
  -21.4012   -6.5638   23.8213 C   0  0  0  0  0  0
  -21.3663   -5.6793   24.9174 C   0  0  0  0  0  0
  -21.6045   -4.3056   24.7224 C   0  0  0  0  0  0
  -21.8821   -3.8150   23.4345 C   0  0  0  0  0  0
  -21.9192   -4.6966   22.3400 C   0  0  0  0  0  0
  -22.7845  -13.5231   21.1854 C   0  0  0  0  0  0
  -22.1660   -4.2154   21.0978 F   0  0  0  0  0  0
  -21.5630   -3.4536   25.7739 F   0  0  0  0  0  0
  -30.0181  -13.3582   20.4282 N   0  0  0  0  0  0
  -26.2978  -12.9366   20.3326 N   0  0  0  0  0  0
  -25.9316  -11.6522   20.5757 N   0  0  0  0  0  0
  -22.0488  -12.8216   22.0408 N   0  0  0  0  0  0
  -25.4254  -15.1902   20.4071 N   0  0  0  0  0  0
  -31.8457  -14.6598   20.1134 O   0  0  0  0  0  0
  -21.6639   -6.8882   21.4245 O   0  0  0  0  0  0
  -22.3532  -14.5538   20.6706 O   0  0  0  0  0  0
  -24.6191  -31.8641   23.2070 C   0  0  0  0  0  0
  -25.9066  -32.4802   23.8384 C   0  0  1  0  0  0
  -27.2278  -27.3946   20.1089 C   0  0  0  0  0  0
  -25.5907  -33.8601   24.2312 N   0  0  0  0  0  0
  -23.4099  -30.4864   21.5487 C   0  0  2  0  0  0
  -24.8592  -28.9511   20.1094 C   0  0  0  0  0  0
  -22.7432  -29.4634   22.4974 C   0  0  0  0  0  0
  -18.0270  -28.1384   22.8485 C   0  0  0  0  0  0
  -24.1489  -36.7306   23.2638 C   0  0  0  0  0  0
  -25.9429  -30.8185   21.3666 C   0  0  0  0  0  0
  -26.0222  -29.4514   20.7107 C   0  0  0  0  0  0
  -27.2144  -28.6816   20.7061 C   0  0  0  0  0  0
  -26.0534  -26.9235   19.4887 C   0  0  0  0  0  0
  -24.8724  -27.6892   19.4902 C   0  0  0  0  0  0
  -23.6204  -29.8191   20.1631 C   0  0  0  0  0  0
  -25.4111  -36.3099   24.0333 C   0  0  1  0  0  0
  -20.5863  -28.3676   23.1310 C   0  0  2  0  0  0
  -20.6758  -26.9409   22.5419 C   0  0  0  0  0  0
  -19.5737  -26.6386   21.5214 C   0  0  0  0  0  0
  -18.1911  -26.7930   22.1617 C   0  0  0  0  0  0
  -19.1520  -28.8849   23.2886 C   0  0  0  0  0  0
  -18.9446  -30.1452   23.8900 C   0  0  0  0  0  0
  -17.6451  -30.6588   24.0570 C   0  0  0  0  0  0
  -25.9039  -34.9465   23.5121 C   0  0  0  0  0  0
  -16.5343  -29.9088   23.6338 C   0  0  0  0  0  0
  -16.7262  -28.6505   23.0358 C   0  0  0  0  0  0
  -26.4482  -31.6592   25.0725 C   0  0  0  0  0  0
  -25.3735  -31.3690   26.1456 C   0  0  0  0  0  0
  -27.0327  -30.3032   24.6123 C   0  0  0  0  0  0
  -27.6050  -32.4318   25.7490 C   0  0  0  0  0  0
  -27.5585  -37.1798   24.8458 C   0  0  0  0  0  0
  -21.4154  -29.3033   22.3714 N   0  0  0  0  0  0
  -26.4294  -37.3790   23.9410 N   0  0  0  0  0  0
  -24.6758  -31.0706   22.0989 N   0  0  0  0  0  0
  -23.4181  -28.8179   23.3038 O   0  0  0  0  0  0
  -28.3295  -26.5573   20.1517 O   0  0  0  0  0  0
  -26.5608  -34.8922   22.4684 O   0  0  0  0  0  0
  -23.5372  -32.1415   23.7434 O   0  0  0  0  0  0
  -31.3264  -19.5852   21.9145 C   0  0  0  0  0  0
  -31.7746  -17.2007   21.6619 C   0  0  0  0  0  0
  -29.5705  -18.0922   21.1237 C   0  0  0  0  0  0
  -32.2117  -18.4947   21.9998 C   0  0  0  0  0  0
  -29.9997  -19.4173   21.4598 C   0  0  0  0  0  0
  -30.4486  -16.9649   21.2258 C   0  0  0  0  0  0
  -28.7275  -24.0768   20.6927 C   0  0  0  0  0  0
  -28.1077  -22.8824   20.7617 C   0  0  0  0  0  0
  -30.1716  -23.8911   20.3188 C   0  0  0  0  0  0
  -30.3326  -22.3492   20.1802 C   0  0  0  0  0  0
  -33.6292  -18.7030   22.4971 C   0  0  0  0  0  0
  -26.6784  -22.5324   21.1413 C   0  0  0  0  0  0
  -29.0240  -20.6277   21.5502 C   0  0  0  0  0  0
  -28.1631  -25.4618   21.0923 C   0  0  0  0  0  0
  -29.9844  -15.6146   20.9777 N   0  0  0  0  0  0
  -29.0208  -21.7108   20.4955 N   0  3  1  0  0  0
  -31.4611  -12.4313   19.1370 H   0  0  0  0  0  0
  -30.3175  -11.3407   19.8657 H   0  0  0  0  0  0
  -29.7444  -11.7625   17.4511 H   0  0  0  0  0  0
  -29.6551  -13.4795   17.7575 H   0  0  0  0  0  0
  -27.8410  -11.2992   18.8440 H   0  0  0  0  0  0
  -27.3649  -12.6025   17.7887 H   0  0  0  0  0  0
  -27.6795  -14.2541   19.5349 H   0  0  0  0  0  0
  -28.6849  -12.0326   21.3809 H   0  0  0  0  0  0
  -28.4536  -13.6940   21.8420 H   0  0  0  0  0  0
  -25.2762   -9.5684   22.4756 H   0  0  0  0  0  0
  -24.0004   -7.4635   22.7471 H   0  0  0  0  0  0
  -21.0850   -8.8771   19.8942 H   0  0  0  0  0  0
  -22.3700  -10.9673   19.6160 H   0  0  0  0  0  0
  -21.2003   -7.6145   23.9719 H   0  0  0  0  0  0
  -21.1480   -6.0521   25.9081 H   0  0  0  0  0  0
  -22.0595   -2.7611   23.2847 H   0  0  0  0  0  0
  -22.4099  -11.9866   22.4778 H   0  0  0  0  0  0
  -21.1107  -13.1248   22.2616 H   0  0  0  0  0  0
  -24.6550  -15.8427   20.5037 H   0  0  0  0  0  0
  -26.2707  -15.6263   20.0613 H   0  0  0  0  0  0
  -26.7137  -32.5501   23.1145 H   0  0  0  0  0  0
  -25.0076  -33.9764   25.0470 H   0  0  0  0  0  0
  -22.7006  -31.3045   21.4089 H   0  0  0  0  0  0
  -23.3756  -35.9631   23.3295 H   0  0  0  0  0  0
  -24.3587  -36.8936   22.2053 H   0  0  0  0  0  0
  -23.7227  -37.6500   23.6668 H   0  0  0  0  0  0
  -26.0615  -31.5836   20.5982 H   0  0  0  0  0  0
  -26.8269  -30.8702   21.9902 H   0  0  0  0  0  0
  -28.1071  -29.0555   21.1877 H   0  0  0  0  0  0
  -26.0479  -25.9471   19.0241 H   0  0  0  0  0  0
  -23.9805  -27.2992   19.0198 H   0  0  0  0  0  0
  -23.7274  -30.5936   19.4029 H   0  0  0  0  0  0
  -22.7438  -29.2389   19.8694 H   0  0  0  0  0  0
  -25.1285  -36.1964   25.0827 H   0  0  0  0  0  0
  -20.9947  -28.3250   24.1436 H   0  0  0  0  0  0
  -20.5670  -26.2284   23.3604 H   0  0  0  0  0  0
  -21.6632  -26.7444   22.1226 H   0  0  0  0  0  0
  -19.6904  -25.6297   21.1245 H   0  0  0  0  0  0
  -19.6683  -27.3197   20.6742 H   0  0  0  0  0  0
  -17.4185  -26.6692   21.4012 H   0  0  0  0  0  0
  -18.0298  -26.0066   22.9005 H   0  0  0  0  0  0
  -19.7919  -30.7266   24.2280 H   0  0  0  0  0  0
  -17.5006  -31.6271   24.5165 H   0  0  0  0  0  0
  -15.5347  -30.3000   23.7651 H   0  0  0  0  0  0
  -15.8657  -28.0831   22.7081 H   0  0  0  0  0  0
  -24.5941  -30.7000   25.7792 H   0  0  0  0  0  0
  -24.8882  -32.2831   26.4878 H   0  0  0  0  0  0
  -25.8084  -30.8891   27.0230 H   0  0  0  0  0  0
  -26.2883  -29.6772   24.1182 H   0  0  0  0  0  0
  -27.4099  -29.7284   25.4594 H   0  0  0  0  0  0
  -27.8721  -30.4355   23.9289 H   0  0  0  0  0  0
  -27.2674  -33.3620   26.2069 H   0  0  0  0  0  0
  -28.3855  -32.6864   25.0310 H   0  0  0  0  0  0
  -28.0722  -31.8438   26.5400 H   0  0  0  0  0  0
  -28.2581  -38.0119   24.7550 H   0  0  0  0  0  0
  -28.1106  -36.2649   24.6240 H   0  0  0  0  0  0
  -27.2306  -37.1398   25.8862 H   0  0  0  0  0  0
  -20.9318  -29.8772   21.6946 H   0  0  0  0  0  0
  -26.0181  -38.2864   24.1433 H   0  0  0  0  0  0
  -31.6683  -20.5509   22.2575 H   0  0  0  0  0  0
  -32.4720  -16.3838   21.7818 H   0  0  0  0  0  0
  -28.5423  -17.9322   20.8293 H   0  0  0  0  0  0
  -30.8133  -24.2871   21.1063 H   0  0  0  0  0  0
  -30.4001  -24.4131   19.3887 H   0  0  0  0  0  0
  -31.1383  -22.0122   20.8231 H   0  0  0  0  0  0
  -30.6130  -22.0861   19.1603 H   0  0  0  0  0  0
  -33.7756  -19.7122   22.8845 H   0  0  0  0  0  0
  -34.3444  -18.5446   21.6891 H   0  0  0  0  0  0
  -33.8599  -18.0018   23.2998 H   0  0  0  0  0  0
  -26.0012  -23.3447   20.8764 H   0  0  0  0  0  0
  -26.5997  -22.3638   22.2155 H   0  0  0  0  0  0
  -26.3319  -21.6376   20.6227 H   0  0  0  0  0  0
  -29.1976  -21.1081   22.5140 H   0  0  0  0  0  0
  -28.0165  -20.2171   21.6153 H   0  0  0  0  0  0
  -28.6675  -25.7583   22.0122 H   0  0  0  0  0  0
  -27.1167  -25.3332   21.3751 H   0  0  0  0  0  0
  -29.0025  -15.4418   21.1294 H   0  0  0  0  0  0
  -28.7264  -21.2585   19.6437 H   0  0  0  0  0  0
  1 25  1  0  0  0
  1 30  2  0  0  0
  1 85  1  0  0  0
  2  3  1  0  0  0
  2 25  1  0  0  0
  2 87  1  0  0  0
  2 88  1  0  0  0
  3  4  1  0  0  0
  3 89  1  0  0  0
  3 90  1  0  0  0
  4  5  1  0  0  0
  4 91  1  0  0  0
  4 92  1  0  0  0
  5  6  1  0  0  0
  5 26  1  0  0  0
  5 93  1  0  0  0
  6 25  1  0  0  0
  6 94  1  0  0  0
  6 95  1  0  0  0
  7  8  2  0  0  0
  7 26  1  0  0  0
  7 29  1  0  0  0
  8  9  1  0  0  0
  8 22  1  0  0  0
  9 10  1  0  0  0
  9 27  2  0  0  0
 10 11  2  0  0  0
 10 15  1  0  0  0
 11 12  1  0  0  0
 11 96  1  0  0  0
 12 13  2  0  0  0
 12 97  1  0  0  0
 13 14  1  0  0  0
 13 31  1  0  0  0
 14 15  2  0  0  0
 14 98  1  0  0  0
 15 99  1  0  0  0
 16 17  2  0  0  0
 16 21  1  0  0  0
 16 31  1  0  0  0
 17 18  1  0  0  0
 17100  1  0  0  0
 18 19  2  0  0  0
 18101  1  0  0  0
 19 20  1  0  0  0
 19 24  1  0  0  0
 20 21  2  0  0  0
 20102  1  0  0  0
 21 23  1  0  0  0
 22 28  1  0  0  0
 22 32  2  0  0  0
 26 27  1  0  0  0
 28103  1  0  0  0
 28104  1  0  0  0
 29105  1  0  0  0
 29106  1  0  0  0
 33 34  1  0  0  0
 33 66  1  0  0  0
 33 70  2  0  0  0
 34 36  1  0  0  0
 34 59  1  0  0  0
 34107  1  0  0  0
 35 44  2  0  0  0
 35 45  1  0  0  0
 35 68  1  0  0  0
 36 56  1  0  0  0
 36108  1  0  0  0
 37 39  1  0  0  0
 37 47  1  0  0  0
 37 66  1  0  0  0
 37109  1  0  0  0
 38 43  2  0  0  0
 38 46  1  0  0  0
 38 47  1  0  0  0
 39 64  1  0  0  0
 39 67  2  0  0  0
 40 52  1  0  0  0
 40 53  2  0  0  0
 40 58  1  0  0  0
 41110  1  0  0  0
 41111  1  0  0  0
 41112  1  0  0  0
 41 48  1  0  0  0
 42 43  1  0  0  0
 42 66  1  0  0  0
 42113  1  0  0  0
 42114  1  0  0  0
 43 44  1  0  0  0
 44115  1  0  0  0
 45 46  2  0  0  0
 45116  1  0  0  0
 46117  1  0  0  0
 47118  1  0  0  0
 47119  1  0  0  0
 48 56  1  0  0  0
 48 65  1  0  0  0
 48120  1  0  0  0
 49 50  1  0  0  0
 49 53  1  0  0  0
 49 64  1  0  0  0
 49121  1  0  0  0
 50 51  1  0  0  0
 50122  1  0  0  0
 50123  1  0  0  0
 51 52  1  0  0  0
 51124  1  0  0  0
 51125  1  0  0  0
 52126  1  0  0  0
 52127  1  0  0  0
 53 54  1  0  0  0
 54 55  2  0  0  0
 54128  1  0  0  0
 55 57  1  0  0  0
 55129  1  0  0  0
 56 69  2  0  0  0
 57 58  2  0  0  0
 57130  1  0  0  0
 58131  1  0  0  0
 59 60  1  0  0  0
 59 61  1  0  0  0
 59 62  1  0  0  0
 60132  1  0  0  0
 60133  1  0  0  0
 60134  1  0  0  0
 61135  1  0  0  0
 61136  1  0  0  0
 61137  1  0  0  0
 62138  1  0  0  0
 62139  1  0  0  0
 62140  1  0  0  0
 63 65  1  0  0  0
 63141  1  0  0  0
 63142  1  0  0  0
 63143  1  0  0  0
 64144  1  0  0  0
 65145  1  0  0  0
 68 84  1  0  0  0
 71 74  2  0  0  0
 71 75  1  0  0  0
 71146  1  0  0  0
 72 74  1  0  0  0
 72 76  2  0  0  0
 72147  1  0  0  0
 73 75  2  0  0  0
 73 76  1  0  0  0
 73148  1  0  0  0
 74 81  1  0  0  0
 75 83  1  0  0  0
 76 85  1  0  0  0
 77 78  2  0  0  0
 77 79  1  0  0  0
 77 84  1  0  0  0
 78 82  1  0  0  0
 78 86  1  0  0  0
 79 80  1  0  0  0
 79149  1  0  0  0
 79150  1  0  0  0
 80 86  1  0  0  0
 80151  1  0  0  0
 80152  1  0  0  0
 81153  1  0  0  0
 81154  1  0  0  0
 81155  1  0  0  0
 82156  1  0  0  0
 82157  1  0  0  0
 82158  1  0  0  0
 83159  1  0  0  0
 83160  1  0  0  0
 83 86  1  0  0  0
 84161  1  0  0  0
 84162  1  0  0  0
 85163  1  0  0  0
 86164  1  0  0  0
M  CHG  1  86   1
M  ISO  4   1 100  68 101  84 101  85 100
M  END
> <chiral flag>
0

> <version>
0

> <s_m_source_file>
/data/baiqing/PycharmProjects/Reinvent-master-3.2/result/LINK_invent/BTK/process_docking_weight1_custom_product_contain_oxygen_bond_distance_aromatic_linkinvent_7_9_3/rearranged_h_0112.sdf

> <i_m_source_file_index>
59

> <r_mmod_Potential_Energy-OPLS-2005>
-73.4519805908203

> <r_mmod_Stretch_Energy-OPLS-2005>
54.572135925293

> <r_mmod_Bend_Energy-OPLS-2005>
159.272598266602

> <r_mmod_Torsional_Energy-OPLS-2005>
254.174407958984

> <r_mmod_Improper_Torsional_Energy-OPLS-2005>
5.70010232925415

> <r_mmod_Van_der_Waal_Energy-OPLS-2005>
145.626007080078

> <r_mmod_Electrostatic_Energy-OPLS-2005>
-275.903015136719

> <r_mmod_Solvation_Energy-OPLS-2005>
-442.148956298828

> <b_mmod_Minimization_Converged-OPLS-2005>
0

> <r_mmod_RMS_Derivative-OPLS-2005>
0.994860768318176

$$$$
60
                    3D
 Structure written by MMmdl.
170179  0  0  1  0            999 V2000
  -30.5771  -14.7312   20.5128 C   0  0  0  0  0  0
  -30.4509  -12.4564   19.4640 C   0  0  0  0  0  0
  -29.5161  -12.5281   18.2340 C   0  0  0  0  0  0
  -28.0398  -12.3473   18.6432 C   0  0  0  0  0  0
  -27.6503  -13.2220   19.8643 C   0  0  2  0  0  0
  -28.6961  -13.0980   20.9946 C   0  0  0  0  0  0
  -25.2452  -13.8079   20.5479 C   0  0  0  0  0  0
  -24.1777  -13.0364   20.9125 C   0  0  0  0  0  0
  -24.6401  -11.6861   20.8749 C   0  0  0  0  0  0
  -23.9067  -10.4258   21.0413 C   0  0  0  0  0  0
  -24.3615   -9.4180   21.9197 C   0  0  0  0  0  0
  -23.6279   -8.2220   22.0761 C   0  0  0  0  0  0
  -22.4267   -8.0265   21.3540 C   0  0  0  0  0  0
  -21.9899   -9.0241   20.4646 C   0  0  0  0  0  0
  -22.7233  -10.2113   20.3058 C   0  0  0  0  0  0
  -21.6846   -6.0725   22.5276 C   0  0  0  0  0  0
  -21.4011   -6.5633   23.8208 C   0  0  0  0  0  0
  -21.3654   -5.6784   24.9169 C   0  0  0  0  0  0
  -21.6047   -4.3049   24.7223 C   0  0  0  0  0  0
  -21.8821   -3.8136   23.4345 C   0  0  0  0  0  0
  -21.9192   -4.6952   22.3400 C   0  0  0  0  0  0
  -22.7810  -13.5179   21.1813 C   0  0  0  0  0  0
  -22.1665   -4.2133   21.0980 F   0  0  0  0  0  0
  -21.5623   -3.4538   25.7740 F   0  0  0  0  0  0
  -30.0029  -13.4804   20.4337 N   0  0  0  0  0  0
  -26.2974  -12.9331   20.3319 N   0  0  0  0  0  0
  -25.9354  -11.6487   20.5825 N   0  0  0  0  0  0
  -22.0470  -12.8200   22.0405 N   0  0  0  0  0  0
  -25.3946  -15.1746   20.3602 N   0  0  0  0  0  0
  -31.7378  -14.9148   20.1330 O   0  0  0  0  0  0
  -21.6628   -6.8867   21.4237 O   0  0  0  0  0  0
  -22.3498  -14.5495   20.6675 O   0  0  0  0  0  0
  -24.6299  -31.8569   23.2014 C   0  0  0  0  0  0
  -25.9128  -32.4764   23.8357 C   0  0  1  0  0  0
  -27.2340  -27.2775   20.1464 C   0  0  0  0  0  0
  -25.5923  -33.8568   24.2277 N   0  0  0  0  0  0
  -23.4291  -30.4784   21.5425 C   0  0  2  0  0  0
  -24.8835  -28.9168   20.1319 C   0  0  0  0  0  0
  -22.7501  -29.4612   22.4917 C   0  0  0  0  0  0
  -18.0293  -28.1395   22.8478 C   0  0  0  0  0  0
  -24.1483  -36.7289   23.2637 C   0  0  0  0  0  0
  -25.9746  -30.7704   21.3858 C   0  0  0  0  0  0
  -26.0529  -29.3856   20.7491 C   0  0  0  0  0  0
  -27.2358  -28.5751   20.7561 C   0  0  0  0  0  0
  -26.0446  -26.8696   19.5121 C   0  0  0  0  0  0
  -24.8794  -27.6595   19.5100 C   0  0  0  0  0  0
  -23.6558  -29.8081   20.1627 C   0  0  0  0  0  0
  -25.4107  -36.3073   24.0330 C   0  0  1  0  0  0
  -20.5894  -28.3707   23.1260 C   0  0  2  0  0  0
  -20.6777  -26.9423   22.5405 C   0  0  0  0  0  0
  -19.5756  -26.6390   21.5205 C   0  0  0  0  0  0
  -18.1936  -26.7935   22.1618 C   0  0  0  0  0  0
  -19.1544  -28.8868   23.2867 C   0  0  0  0  0  0
  -18.9467  -30.1460   23.8899 C   0  0  0  0  0  0
  -17.6465  -30.6588   24.0572 C   0  0  0  0  0  0
  -25.9050  -34.9442   23.5109 C   0  0  0  0  0  0
  -16.5358  -29.9093   23.6326 C   0  0  0  0  0  0
  -16.7279  -28.6512   23.0346 C   0  0  0  0  0  0
  -26.4502  -31.6578   25.0736 C   0  0  0  0  0  0
  -25.3730  -31.3731   26.1461 C   0  0  0  0  0  0
  -27.0337  -30.2986   24.6216 C   0  0  0  0  0  0
  -27.6056  -32.4316   25.7504 C   0  0  0  0  0  0
  -27.5576  -37.1796   24.8461 C   0  0  0  0  0  0
  -21.4207  -29.3053   22.3648 N   0  0  0  0  0  0
  -26.4279  -37.3774   23.9415 N   0  0  0  0  0  0
  -24.6963  -31.0540   22.0996 N   0  0  0  0  0  0
  -23.4190  -28.8158   23.3023 O   0  0  0  0  0  0
  -28.3184  -26.4054   19.9525 O   0  0  0  0  0  0
  -26.5628  -34.8915   22.4676 O   0  0  0  0  0  0
  -23.5447  -32.1386   23.7304 O   0  0  0  0  0  0
  -30.7551  -18.1581   20.6330 C   0  0  0  0  0  0
  -28.2614  -19.2615   21.1424 C   0  0  0  0  0  0
  -30.5912  -19.5941   20.7460 C   0  0  0  0  0  0
  -29.3135  -20.2115   21.0022 C   0  0  0  0  0  0
  -29.6902  -17.2355   20.8497 C   0  0  0  0  0  0
  -28.4379  -17.8394   21.1367 C   0  0  0  0  0  0
  -28.7543  -24.1110   21.3498 C   0  0  0  0  0  0
  -29.1661  -22.9054   20.7499 C   0  0  0  0  0  0
  -28.1919  -24.0006   22.7141 C   0  0  0  0  0  0
  -30.8603  -23.6482   19.1038 C   0  0  0  0  0  0
  -29.7547  -22.9548   19.4224 C   0  0  0  0  0  0
  -28.6703  -22.8299   23.5507 C   0  0  0  0  0  0
  -28.4819  -21.5417   22.7597 C   0  0  0  0  0  0
  -32.5451  -20.5365   22.0496 C   0  0  0  0  0  0
  -26.3657  -17.4873   22.2848 C   0  0  0  0  0  0
  -31.8617  -20.4231   20.6828 C   0  0  0  0  0  0
  -29.0276  -25.6563   21.0014 C   0  0  0  0  0  0
  -29.0438  -21.6010   21.3984 N   0  0  0  0  0  0
  -29.7260  -15.7528   20.8861 N   0  0  0  0  0  0
  -27.3894  -24.8018   23.2048 O   0  0  0  0  0  0
  -27.4096  -16.9791   21.4552 O   0  0  0  0  0  0
  -31.4862  -12.6129   19.1564 H   0  0  0  0  0  0
  -30.4191  -11.4646   19.9182 H   0  0  0  0  0  0
  -29.7977  -11.7705   17.5013 H   0  0  0  0  0  0
  -29.6392  -13.4924   17.7379 H   0  0  0  0  0  0
  -27.8889  -11.2941   18.8816 H   0  0  0  0  0  0
  -27.3851  -12.5653   17.7986 H   0  0  0  0  0  0
  -27.6567  -14.2547   19.5155 H   0  0  0  0  0  0
  -28.7319  -12.0759   21.3745 H   0  0  0  0  0  0
  -28.4224  -13.7208   21.8476 H   0  0  0  0  0  0
  -25.2759   -9.5651   22.4772 H   0  0  0  0  0  0
  -23.9978   -7.4614   22.7490 H   0  0  0  0  0  0
  -21.0820   -8.8767   19.8956 H   0  0  0  0  0  0
  -22.3699  -10.9655   19.6166 H   0  0  0  0  0  0
  -21.2007   -7.6142   23.9707 H   0  0  0  0  0  0
  -21.1472   -6.0516   25.9070 H   0  0  0  0  0  0
  -22.0606   -2.7594   23.2854 H   0  0  0  0  0  0
  -22.4075  -11.9858   22.4784 H   0  0  0  0  0  0
  -21.1104  -13.1264   22.2645 H   0  0  0  0  0  0
  -24.6138  -15.8127   20.4562 H   0  0  0  0  0  0
  -26.2684  -15.6466   20.1601 H   0  0  0  0  0  0
  -26.7200  -32.5445   23.1112 H   0  0  0  0  0  0
  -25.0053  -33.9702   25.0407 H   0  0  0  0  0  0
  -22.7254  -31.2994   21.3913 H   0  0  0  0  0  0
  -23.3742  -35.9622   23.3293 H   0  0  0  0  0  0
  -24.3573  -36.8914   22.2052 H   0  0  0  0  0  0
  -23.7238  -37.6489   23.6666 H   0  0  0  0  0  0
  -26.1069  -31.5207   20.6049 H   0  0  0  0  0  0
  -26.8543  -30.8324   22.0147 H   0  0  0  0  0  0
  -28.1428  -28.9451   21.2142 H   0  0  0  0  0  0
  -26.0226  -25.9135   19.0077 H   0  0  0  0  0  0
  -23.9878  -27.2941   19.0190 H   0  0  0  0  0  0
  -23.7932  -30.5818   19.4066 H   0  0  0  0  0  0
  -22.7745  -29.2459   19.8491 H   0  0  0  0  0  0
  -25.1280  -36.1922   25.0821 H   0  0  0  0  0  0
  -20.9985  -28.3295   24.1380 H   0  0  0  0  0  0
  -20.5659  -26.2322   23.3613 H   0  0  0  0  0  0
  -21.6649  -26.7437   22.1212 H   0  0  0  0  0  0
  -19.6917  -25.6300   21.1236 H   0  0  0  0  0  0
  -19.6694  -27.3198   20.6734 H   0  0  0  0  0  0
  -17.4200  -26.6669   21.4032 H   0  0  0  0  0  0
  -18.0353  -26.0084   22.9023 H   0  0  0  0  0  0
  -19.7944  -30.7274   24.2276 H   0  0  0  0  0  0
  -17.5020  -31.6264   24.5186 H   0  0  0  0  0  0
  -15.5358  -30.2998   23.7650 H   0  0  0  0  0  0
  -15.8676  -28.0834   22.7058 H   0  0  0  0  0  0
  -24.5907  -30.7073   25.7799 H   0  0  0  0  0  0
  -24.8927  -32.2903   26.4878 H   0  0  0  0  0  0
  -25.8056  -30.8920   27.0243 H   0  0  0  0  0  0
  -26.2915  -29.6740   24.1235 H   0  0  0  0  0  0
  -27.3998  -29.7245   25.4739 H   0  0  0  0  0  0
  -27.8806  -30.4242   23.9467 H   0  0  0  0  0  0
  -27.2662  -33.3619   26.2072 H   0  0  0  0  0  0
  -28.3874  -32.6870   25.0339 H   0  0  0  0  0  0
  -28.0714  -31.8449   26.5432 H   0  0  0  0  0  0
  -28.2586  -38.0101   24.7513 H   0  0  0  0  0  0
  -28.1076  -36.2634   24.6267 H   0  0  0  0  0  0
  -27.2301  -37.1425   25.8865 H   0  0  0  0  0  0
  -20.9397  -29.8771   21.6845 H   0  0  0  0  0  0
  -26.0157  -38.2838   24.1443 H   0  0  0  0  0  0
  -31.7423  -17.7601   20.4468 H   0  0  0  0  0  0
  -27.2763  -19.6520   21.3397 H   0  0  0  0  0  0
  -31.2379  -23.6516   18.0913 H   0  0  0  0  0  0
  -31.4122  -24.2138   19.8394 H   0  0  0  0  0  0
  -29.2649  -22.4015   18.6327 H   0  0  0  0  0  0
  -28.1283  -22.7867   24.4955 H   0  0  0  0  0  0
  -29.7247  -22.9759   23.7846 H   0  0  0  0  0  0
  -27.4120  -21.3368   22.6999 H   0  0  0  0  0  0
  -28.9265  -20.7253   23.3327 H   0  0  0  0  0  0
  -33.4760  -21.0979   21.9697 H   0  0  0  0  0  0
  -32.7844  -19.5531   22.4548 H   0  0  0  0  0  0
  -31.9054  -21.0504   22.7683 H   0  0  0  0  0  0
  -25.6699  -18.1045   21.7149 H   0  0  0  0  0  0
  -26.7527  -18.0665   23.1249 H   0  0  0  0  0  0
  -25.7964  -16.6574   22.7038 H   0  0  0  0  0  0
  -31.6545  -21.4153   20.3007 H   0  0  0  0  0  0
  -32.5453  -19.9703   19.9631 H   0  0  0  0  0  0
  -30.0802  -25.7223   20.7357 H   0  0  0  0  0  0
  -28.9811  -26.2659   21.9059 H   0  0  0  0  0  0
  -28.8303  -15.3795   21.1619 H   0  0  0  0  0  0
  1 25  1  0  0  0
  1 30  2  0  0  0
  1 89  1  0  0  0
  2  3  1  0  0  0
  2 25  1  0  0  0
  2 92  1  0  0  0
  2 93  1  0  0  0
  3  4  1  0  0  0
  3 94  1  0  0  0
  3 95  1  0  0  0
  4  5  1  0  0  0
  4 96  1  0  0  0
  4 97  1  0  0  0
  5  6  1  0  0  0
  5 26  1  0  0  0
  5 98  1  0  0  0
  6 25  1  0  0  0
  6 99  1  0  0  0
  6100  1  0  0  0
  7  8  2  0  0  0
  7 26  1  0  0  0
  7 29  1  0  0  0
  8  9  1  0  0  0
  8 22  1  0  0  0
  9 10  1  0  0  0
  9 27  2  0  0  0
 10 11  2  0  0  0
 10 15  1  0  0  0
 11 12  1  0  0  0
 11101  1  0  0  0
 12 13  2  0  0  0
 12102  1  0  0  0
 13 14  1  0  0  0
 13 31  1  0  0  0
 14 15  2  0  0  0
 14103  1  0  0  0
 15104  1  0  0  0
 16 17  2  0  0  0
 16 21  1  0  0  0
 16 31  1  0  0  0
 17 18  1  0  0  0
 17105  1  0  0  0
 18 19  2  0  0  0
 18106  1  0  0  0
 19 20  1  0  0  0
 19 24  1  0  0  0
 20 21  2  0  0  0
 20107  1  0  0  0
 21 23  1  0  0  0
 22 28  1  0  0  0
 22 32  2  0  0  0
 26 27  1  0  0  0
 28108  1  0  0  0
 28109  1  0  0  0
 29110  1  0  0  0
 29111  1  0  0  0
 33 34  1  0  0  0
 33 66  1  0  0  0
 33 70  2  0  0  0
 34 36  1  0  0  0
 34 59  1  0  0  0
 34112  1  0  0  0
 35 44  2  0  0  0
 35 45  1  0  0  0
 35 68  1  0  0  0
 36 56  1  0  0  0
 36113  1  0  0  0
 37 39  1  0  0  0
 37 47  1  0  0  0
 37 66  1  0  0  0
 37114  1  0  0  0
 38 43  2  0  0  0
 38 46  1  0  0  0
 38 47  1  0  0  0
 39 64  1  0  0  0
 39 67  2  0  0  0
 40 52  1  0  0  0
 40 53  2  0  0  0
 40 58  1  0  0  0
 41115  1  0  0  0
 41116  1  0  0  0
 41117  1  0  0  0
 41 48  1  0  0  0
 42 43  1  0  0  0
 42 66  1  0  0  0
 42118  1  0  0  0
 42119  1  0  0  0
 43 44  1  0  0  0
 44120  1  0  0  0
 45 46  2  0  0  0
 45121  1  0  0  0
 46122  1  0  0  0
 47123  1  0  0  0
 47124  1  0  0  0
 48 56  1  0  0  0
 48 65  1  0  0  0
 48125  1  0  0  0
 49 50  1  0  0  0
 49 53  1  0  0  0
 49 64  1  0  0  0
 49126  1  0  0  0
 50 51  1  0  0  0
 50127  1  0  0  0
 50128  1  0  0  0
 51 52  1  0  0  0
 51129  1  0  0  0
 51130  1  0  0  0
 52131  1  0  0  0
 52132  1  0  0  0
 53 54  1  0  0  0
 54 55  2  0  0  0
 54133  1  0  0  0
 55 57  1  0  0  0
 55134  1  0  0  0
 56 69  2  0  0  0
 57 58  2  0  0  0
 57135  1  0  0  0
 58136  1  0  0  0
 59 60  1  0  0  0
 59 61  1  0  0  0
 59 62  1  0  0  0
 60137  1  0  0  0
 60138  1  0  0  0
 60139  1  0  0  0
 61140  1  0  0  0
 61141  1  0  0  0
 61142  1  0  0  0
 62143  1  0  0  0
 62144  1  0  0  0
 62145  1  0  0  0
 63 65  1  0  0  0
 63146  1  0  0  0
 63147  1  0  0  0
 63148  1  0  0  0
 64149  1  0  0  0
 65150  1  0  0  0
 68 87  1  0  0  0
 71 73  2  0  0  0
 71 75  1  0  0  0
 71151  1  0  0  0
 72 74  2  0  0  0
 72 76  1  0  0  0
 72152  1  0  0  0
 73 74  1  0  0  0
 73 86  1  0  0  0
 74 88  1  0  0  0
 75 76  2  0  0  0
 75 89  1  0  0  0
 76 91  1  0  0  0
 77 78  2  0  0  0
 77 79  1  0  0  0
 77 87  1  0  0  0
 78 81  1  0  0  0
 78 88  1  0  0  0
 79 82  1  0  0  0
 79 90  2  0  0  0
 80 81  2  0  0  0
 80153  1  0  0  0
 80154  1  0  0  0
 81155  1  0  0  0
 82 83  1  0  0  0
 82156  1  0  0  0
 82157  1  0  0  0
 83 88  1  0  0  0
 83158  1  0  0  0
 83159  1  0  0  0
 84 86  1  0  0  0
 84160  1  0  0  0
 84161  1  0  0  0
 84162  1  0  0  0
 85 91  1  0  0  0
 85163  1  0  0  0
 85164  1  0  0  0
 85165  1  0  0  0
 86166  1  0  0  0
 86167  1  0  0  0
 87168  1  0  0  0
 87169  1  0  0  0
 89170  1  0  0  0
M  ISO  4   1 100  68 101  87 101  89 100
M  END
> <chiral flag>
0

> <version>
0

> <s_m_source_file>
/data/baiqing/PycharmProjects/Reinvent-master-3.2/result/LINK_invent/BTK/process_docking_weight1_custom_product_contain_oxygen_bond_distance_aromatic_linkinvent_7_9_3/rearranged_h_0112.sdf

> <i_m_source_file_index>
60

> <r_mmod_Potential_Energy-OPLS-2005>
220.412139892578

> <r_mmod_Stretch_Energy-OPLS-2005>
123.824478149414

> <r_mmod_Bend_Energy-OPLS-2005>
234.519134521484

> <r_mmod_Torsional_Energy-OPLS-2005>
275.232177734375

> <r_mmod_Improper_Torsional_Energy-OPLS-2005>
7.44156169891357

> <r_mmod_Van_der_Waal_Energy-OPLS-2005>
157.924819946289

> <r_mmod_Electrostatic_Energy-OPLS-2005>
-440.636962890625

> <r_mmod_Solvation_Energy-OPLS-2005>
-213.146499633789

> <b_mmod_Minimization_Converged-OPLS-2005>
0

> <r_mmod_RMS_Derivative-OPLS-2005>
1.29767024517059

$$$$
61
                    3D
 Structure written by MMmdl.
172181  0  0  1  0            999 V2000
  -30.7176  -14.5066   20.5573 C   0  0  0  0  0  0
  -30.4127  -12.3342   19.4226 C   0  0  0  0  0  0
  -29.4889  -12.5040   18.2020 C   0  0  0  0  0  0
  -28.0138  -12.3541   18.6205 C   0  0  0  0  0  0
  -27.6504  -13.2156   19.8596 C   0  0  2  0  0  0
  -28.6960  -13.0555   20.9848 C   0  0  0  0  0  0
  -25.2567  -13.8173   20.5688 C   0  0  0  0  0  0
  -24.1835  -13.0439   20.9191 C   0  0  0  0  0  0
  -24.6393  -11.6909   20.8731 C   0  0  0  0  0  0
  -23.9062  -10.4294   21.0404 C   0  0  0  0  0  0
  -24.3616   -9.4212   21.9182 C   0  0  0  0  0  0
  -23.6295   -8.2244   22.0756 C   0  0  0  0  0  0
  -22.4282   -8.0281   21.3543 C   0  0  0  0  0  0
  -21.9913   -9.0252   20.4646 C   0  0  0  0  0  0
  -22.7238  -10.2133   20.3054 C   0  0  0  0  0  0
  -21.6851   -6.0741   22.5278 C   0  0  0  0  0  0
  -21.4013   -6.5643   23.8212 C   0  0  0  0  0  0
  -21.3656   -5.6796   24.9169 C   0  0  0  0  0  0
  -21.6040   -4.3058   24.7223 C   0  0  0  0  0  0
  -21.8821   -3.8153   23.4341 C   0  0  0  0  0  0
  -21.9197   -4.6973   22.3399 C   0  0  0  0  0  0
  -22.7861  -13.5241   21.1853 C   0  0  0  0  0  0
  -22.1665   -4.2160   21.0974 F   0  0  0  0  0  0
  -21.5626   -3.4544   25.7735 F   0  0  0  0  0  0
  -30.0142  -13.3502   20.4088 N   0  0  0  0  0  0
  -26.2983  -12.9347   20.3313 N   0  0  0  0  0  0
  -25.9317  -11.6502   20.5742 N   0  0  0  0  0  0
  -22.0504  -12.8225   22.0404 N   0  0  0  0  0  0
  -25.4301  -15.1891   20.4102 N   0  0  0  0  0  0
  -31.8933  -14.5886   20.1905 O   0  0  0  0  0  0
  -21.6640   -6.8882   21.4243 O   0  0  0  0  0  0
  -22.3558  -14.5559   20.6718 O   0  0  0  0  0  0
  -24.6170  -31.8668   23.2088 C   0  0  0  0  0  0
  -25.9051  -32.4814   23.8389 C   0  0  1  0  0  0
  -27.2306  -27.4032   20.0927 C   0  0  0  0  0  0
  -25.5904  -33.8618   24.2320 N   0  0  0  0  0  0
  -23.4061  -30.4907   21.5501 C   0  0  2  0  0  0
  -24.8503  -28.9535   20.1124 C   0  0  0  0  0  0
  -22.7410  -29.4666   22.4986 C   0  0  0  0  0  0
  -18.0268  -28.1381   22.8505 C   0  0  0  0  0  0
  -24.1482  -36.7306   23.2643 C   0  0  0  0  0  0
  -25.9377  -30.8189   21.3678 C   0  0  0  0  0  0
  -26.0114  -29.4499   20.7177 C   0  0  0  0  0  0
  -27.1994  -28.6776   20.7154 C   0  0  0  0  0  0
  -26.0458  -26.9294   19.4904 C   0  0  0  0  0  0
  -24.8629  -27.6904   19.4989 C   0  0  0  0  0  0
  -23.6146  -29.8248   20.1642 C   0  0  0  0  0  0
  -25.4105  -36.3111   24.0340 C   0  0  1  0  0  0
  -20.5856  -28.3679   23.1320 C   0  0  2  0  0  0
  -20.6759  -26.9412   22.5424 C   0  0  0  0  0  0
  -19.5739  -26.6391   21.5218 C   0  0  0  0  0  0
  -18.1916  -26.7932   22.1625 C   0  0  0  0  0  0
  -19.1518  -28.8842   23.2917 C   0  0  0  0  0  0
  -18.9443  -30.1449   23.8934 C   0  0  0  0  0  0
  -17.6449  -30.6594   24.0571 C   0  0  0  0  0  0
  -25.9039  -34.9475   23.5129 C   0  0  0  0  0  0
  -16.5343  -29.9096   23.6329 C   0  0  0  0  0  0
  -16.7262  -28.6507   23.0366 C   0  0  0  0  0  0
  -26.4467  -31.6591   25.0724 C   0  0  0  0  0  0
  -25.3720  -31.3675   26.1456 C   0  0  0  0  0  0
  -27.0299  -30.3035   24.6105 C   0  0  0  0  0  0
  -27.6049  -32.4304   25.7480 C   0  0  0  0  0  0
  -27.5580  -37.1800   24.8467 C   0  0  0  0  0  0
  -21.4134  -29.3050   22.3717 N   0  0  0  0  0  0
  -26.4286  -37.3795   23.9422 N   0  0  0  0  0  0
  -24.6721  -31.0729   22.1008 N   0  0  0  0  0  0
  -23.4165  -28.8207   23.3041 O   0  0  0  0  0  0
  -28.3932  -26.6479   20.1200 O   0  0  0  0  0  0
  -26.5606  -34.8929   22.4697 O   0  0  0  0  0  0
  -23.5356  -32.1439   23.7466 O   0  0  0  0  0  0
  -29.4585  -19.8717   19.1434 C   0  0  0  0  0  0
  -28.6547  -20.1857   21.4064 C   0  0  0  0  0  0
  -27.3660  -22.1898   18.8250 C   0  0  0  0  0  0
  -29.7949  -18.0786   20.7955 C   0  0  0  0  0  0
  -29.9304  -18.5777   19.4672 C   0  0  0  0  0  0
  -28.2976  -24.2212   19.2500 C   0  0  0  0  0  0
  -28.8530  -20.7022   20.1081 C   0  0  0  0  0  0
  -29.0995  -18.8743   21.7499 C   0  0  0  0  0  0
  -27.2983  -23.5150   18.5073 C   0  0  0  0  0  0
  -28.9408  -23.2600   20.0131 C   0  0  0  0  0  0
  -27.0720  -17.5118   25.8271 C   0  0  0  0  0  0
  -27.1874  -17.5312   24.4902 C   0  0  0  0  0  0
  -30.5218  -16.8127   21.2207 C   0  0  0  0  0  0
  -30.0985  -23.3900   20.9521 C   0  0  0  0  0  0
  -29.5786  -16.8591   17.6411 C   0  0  0  0  0  0
  -30.5887  -17.7684   18.3532 C   0  0  0  0  0  0
  -28.6660  -25.7085   19.0570 C   0  0  0  0  0  0
  -27.6929  -18.7062   23.6808 C   0  0  0  0  0  0
  -28.4047  -22.0001   19.7104 N   0  0  0  0  0  0
  -29.9999  -15.6095   20.8849 N   0  0  0  0  0  0
  -31.6004  -16.9442   21.8118 O   0  0  0  0  0  0
  -26.4510  -24.0475   17.5813 O   0  0  0  0  0  0
  -28.8876  -18.3361   23.0009 O   0  0  0  0  0  0
  -31.4572  -12.4214   19.1192 H   0  0  0  0  0  0
  -30.3080  -11.3350   19.8489 H   0  0  0  0  0  0
  -29.7374  -11.7718   17.4327 H   0  0  0  0  0  0
  -29.6454  -13.4855   17.7513 H   0  0  0  0  0  0
  -27.8409  -11.2996   18.8405 H   0  0  0  0  0  0
  -27.3575  -12.6005   17.7844 H   0  0  0  0  0  0
  -27.6740  -14.2536   19.5280 H   0  0  0  0  0  0
  -28.6835  -12.0382   21.3791 H   0  0  0  0  0  0
  -28.4657  -13.7067   21.8295 H   0  0  0  0  0  0
  -25.2753   -9.5686   22.4766 H   0  0  0  0  0  0
  -24.0001   -7.4639   22.7477 H   0  0  0  0  0  0
  -21.0847   -8.8768   19.8951 H   0  0  0  0  0  0
  -22.3697  -10.9672   19.6171 H   0  0  0  0  0  0
  -21.2003   -7.6151   23.9714 H   0  0  0  0  0  0
  -21.1473   -6.0526   25.9072 H   0  0  0  0  0  0
  -22.0605   -2.7618   23.2838 H   0  0  0  0  0  0
  -22.4115  -11.9865   22.4748 H   0  0  0  0  0  0
  -21.1130  -13.1256   22.2620 H   0  0  0  0  0  0
  -24.6600  -15.8411   20.5095 H   0  0  0  0  0  0
  -26.2699  -15.6236   20.0526 H   0  0  0  0  0  0
  -26.7123  -32.5509   23.1150 H   0  0  0  0  0  0
  -25.0028  -33.9780   25.0447 H   0  0  0  0  0  0
  -22.6976  -31.3106   21.4111 H   0  0  0  0  0  0
  -23.3751  -35.9629   23.3305 H   0  0  0  0  0  0
  -24.3582  -36.8932   22.2061 H   0  0  0  0  0  0
  -23.7220  -37.6503   23.6656 H   0  0  0  0  0  0
  -26.0528  -31.5794   20.5945 H   0  0  0  0  0  0
  -26.8256  -30.8755   21.9853 H   0  0  0  0  0  0
  -28.0936  -29.0568   21.1903 H   0  0  0  0  0  0
  -26.0138  -25.9585   19.0302 H   0  0  0  0  0  0
  -23.9690  -27.2973   19.0344 H   0  0  0  0  0  0
  -23.7258  -30.6017   19.4068 H   0  0  0  0  0  0
  -22.7358  -29.2490   19.8673 H   0  0  0  0  0  0
  -25.1271  -36.1982   25.0830 H   0  0  0  0  0  0
  -20.9953  -28.3253   24.1437 H   0  0  0  0  0  0
  -20.5659  -26.2292   23.3614 H   0  0  0  0  0  0
  -21.6635  -26.7452   22.1221 H   0  0  0  0  0  0
  -19.6907  -25.6303   21.1245 H   0  0  0  0  0  0
  -19.6678  -27.3214   20.6755 H   0  0  0  0  0  0
  -17.4182  -26.6708   21.4023 H   0  0  0  0  0  0
  -18.0307  -26.0057   22.9002 H   0  0  0  0  0  0
  -19.7914  -30.7264   24.2317 H   0  0  0  0  0  0
  -17.4997  -31.6274   24.5175 H   0  0  0  0  0  0
  -15.5349  -30.3014   23.7628 H   0  0  0  0  0  0
  -15.8658  -28.0834   22.7076 H   0  0  0  0  0  0
  -24.5966  -30.6935   25.7790 H   0  0  0  0  0  0
  -24.8806  -32.2796   26.4849 H   0  0  0  0  0  0
  -25.8075  -30.8907   27.0247 H   0  0  0  0  0  0
  -26.2841  -29.6796   24.1160 H   0  0  0  0  0  0
  -27.4076  -29.7273   25.4561 H   0  0  0  0  0  0
  -27.8670  -30.4363   23.9250 H   0  0  0  0  0  0
  -27.2704  -33.3624   26.2047 H   0  0  0  0  0  0
  -28.3859  -32.6831   25.0294 H   0  0  0  0  0  0
  -28.0709  -31.8422   26.5397 H   0  0  0  0  0  0
  -28.2590  -38.0104   24.7533 H   0  0  0  0  0  0
  -28.1086  -36.2640   24.6256 H   0  0  0  0  0  0
  -27.2305  -37.1416   25.8873 H   0  0  0  0  0  0
  -20.9291  -29.8788   21.6952 H   0  0  0  0  0  0
  -26.0179  -38.2873   24.1430 H   0  0  0  0  0  0
  -29.5787  -20.2476   18.1363 H   0  0  0  0  0  0
  -28.1608  -20.8112   22.1355 H   0  0  0  0  0  0
  -26.8091  -21.3381   18.4575 H   0  0  0  0  0  0
  -26.7000  -16.6350   26.3390 H   0  0  0  0  0  0
  -27.3445  -18.3660   26.4315 H   0  0  0  0  0  0
  -26.9042  -16.6554   23.9219 H   0  0  0  0  0  0
  -30.4090  -24.4297   21.0575 H   0  0  0  0  0  0
  -30.9577  -22.8204   20.5961 H   0  0  0  0  0  0
  -29.8379  -23.0212   21.9444 H   0  0  0  0  0  0
  -30.0639  -16.2800   16.8555 H   0  0  0  0  0  0
  -28.7838  -17.4443   17.1773 H   0  0  0  0  0  0
  -29.1102  -16.1545   18.3273 H   0  0  0  0  0  0
  -31.4288  -17.1831   18.7265 H   0  0  0  0  0  0
  -31.0281  -18.4523   17.6252 H   0  0  0  0  0  0
  -28.2442  -26.0669   18.1170 H   0  0  0  0  0  0
  -29.7444  -25.7385   18.8990 H   0  0  0  0  0  0
  -27.8895  -19.5633   24.3259 H   0  0  0  0  0  0
  -26.8942  -18.9833   22.9900 H   0  0  0  0  0  0
  -29.0039  -15.5625   20.7593 H   0  0  0  0  0  0
  -25.8593  -23.4046   17.2010 H   0  0  0  0  0  0
  1 25  1  0  0  0
  1 30  2  0  0  0
  1 90  1  0  0  0
  2  3  1  0  0  0
  2 25  1  0  0  0
  2 94  1  0  0  0
  2 95  1  0  0  0
  3  4  1  0  0  0
  3 96  1  0  0  0
  3 97  1  0  0  0
  4  5  1  0  0  0
  4 98  1  0  0  0
  4 99  1  0  0  0
  5  6  1  0  0  0
  5 26  1  0  0  0
  5100  1  0  0  0
  6 25  1  0  0  0
  6101  1  0  0  0
  6102  1  0  0  0
  7  8  2  0  0  0
  7 26  1  0  0  0
  7 29  1  0  0  0
  8  9  1  0  0  0
  8 22  1  0  0  0
  9 10  1  0  0  0
  9 27  2  0  0  0
 10 11  2  0  0  0
 10 15  1  0  0  0
 11 12  1  0  0  0
 11103  1  0  0  0
 12 13  2  0  0  0
 12104  1  0  0  0
 13 14  1  0  0  0
 13 31  1  0  0  0
 14 15  2  0  0  0
 14105  1  0  0  0
 15106  1  0  0  0
 16 17  2  0  0  0
 16 21  1  0  0  0
 16 31  1  0  0  0
 17 18  1  0  0  0
 17107  1  0  0  0
 18 19  2  0  0  0
 18108  1  0  0  0
 19 20  1  0  0  0
 19 24  1  0  0  0
 20 21  2  0  0  0
 20109  1  0  0  0
 21 23  1  0  0  0
 22 28  1  0  0  0
 22 32  2  0  0  0
 26 27  1  0  0  0
 28110  1  0  0  0
 28111  1  0  0  0
 29112  1  0  0  0
 29113  1  0  0  0
 33 34  1  0  0  0
 33 66  1  0  0  0
 33 70  2  0  0  0
 34 36  1  0  0  0
 34 59  1  0  0  0
 34114  1  0  0  0
 35 44  2  0  0  0
 35 45  1  0  0  0
 35 68  1  0  0  0
 36 56  1  0  0  0
 36115  1  0  0  0
 37 39  1  0  0  0
 37 47  1  0  0  0
 37 66  1  0  0  0
 37116  1  0  0  0
 38 43  2  0  0  0
 38 46  1  0  0  0
 38 47  1  0  0  0
 39 64  1  0  0  0
 39 67  2  0  0  0
 40 52  1  0  0  0
 40 53  2  0  0  0
 40 58  1  0  0  0
 41117  1  0  0  0
 41118  1  0  0  0
 41119  1  0  0  0
 41 48  1  0  0  0
 42 43  1  0  0  0
 42 66  1  0  0  0
 42120  1  0  0  0
 42121  1  0  0  0
 43 44  1  0  0  0
 44122  1  0  0  0
 45 46  2  0  0  0
 45123  1  0  0  0
 46124  1  0  0  0
 47125  1  0  0  0
 47126  1  0  0  0
 48 56  1  0  0  0
 48 65  1  0  0  0
 48127  1  0  0  0
 49 50  1  0  0  0
 49 53  1  0  0  0
 49 64  1  0  0  0
 49128  1  0  0  0
 50 51  1  0  0  0
 50129  1  0  0  0
 50130  1  0  0  0
 51 52  1  0  0  0
 51131  1  0  0  0
 51132  1  0  0  0
 52133  1  0  0  0
 52134  1  0  0  0
 53 54  1  0  0  0
 54 55  2  0  0  0
 54135  1  0  0  0
 55 57  1  0  0  0
 55136  1  0  0  0
 56 69  2  0  0  0
 57 58  2  0  0  0
 57137  1  0  0  0
 58138  1  0  0  0
 59 60  1  0  0  0
 59 61  1  0  0  0
 59 62  1  0  0  0
 60139  1  0  0  0
 60140  1  0  0  0
 60141  1  0  0  0
 61142  1  0  0  0
 61143  1  0  0  0
 61144  1  0  0  0
 62145  1  0  0  0
 62146  1  0  0  0
 62147  1  0  0  0
 63 65  1  0  0  0
 63148  1  0  0  0
 63149  1  0  0  0
 63150  1  0  0  0
 64151  1  0  0  0
 65152  1  0  0  0
 68 87  1  0  0  0
 71 75  2  0  0  0
 71 77  1  0  0  0
 71153  1  0  0  0
 72 77  2  0  0  0
 72 78  1  0  0  0
 72154  1  0  0  0
 73 79  2  0  0  0
 73 89  1  0  0  0
 73155  1  0  0  0
 74 75  1  0  0  0
 74 78  2  0  0  0
 74 83  1  0  0  0
 75 86  1  0  0  0
 76 79  1  0  0  0
 76 80  2  0  0  0
 76 87  1  0  0  0
 77 89  1  0  0  0
 78 93  1  0  0  0
 79 92  1  0  0  0
 80 84  1  0  0  0
 80 89  1  0  0  0
 81 82  2  0  0  0
 81156  1  0  0  0
 81157  1  0  0  0
 82 88  1  0  0  0
 82158  1  0  0  0
 83 90  1  0  0  0
 83 91  2  0  0  0
 84159  1  0  0  0
 84160  1  0  0  0
 84161  1  0  0  0
 85 86  1  0  0  0
 85162  1  0  0  0
 85163  1  0  0  0
 85164  1  0  0  0
 86165  1  0  0  0
 86166  1  0  0  0
 87167  1  0  0  0
 87168  1  0  0  0
 88 93  1  0  0  0
 88169  1  0  0  0
 88170  1  0  0  0
 90171  1  0  0  0
 92172  1  0  0  0
M  ISO  4   1 100  68 101  87 101  90 100
M  END
> <chiral flag>
0

> <version>
0

> <s_m_source_file>
/data/baiqing/PycharmProjects/Reinvent-master-3.2/result/LINK_invent/BTK/process_docking_weight1_custom_product_contain_oxygen_bond_distance_aromatic_linkinvent_7_9_3/rearranged_h_0112.sdf

> <i_m_source_file_index>
61

> <r_mmod_Potential_Energy-OPLS-2005>
5.17818117141724

> <r_mmod_Stretch_Energy-OPLS-2005>
46.2698860168457

> <r_mmod_Bend_Energy-OPLS-2005>
115.733192443848

> <r_mmod_Torsional_Energy-OPLS-2005>
300.149200439453

> <r_mmod_Improper_Torsional_Energy-OPLS-2005>
8.16539287567139

> <r_mmod_Van_der_Waal_Energy-OPLS-2005>
139.635635375977

> <r_mmod_Electrostatic_Energy-OPLS-2005>
-386.77392578125

> <r_mmod_Solvation_Energy-OPLS-2005>
-240.440582275391

> <b_mmod_Minimization_Converged-OPLS-2005>
0

> <r_mmod_RMS_Derivative-OPLS-2005>
1.39706540107727

$$$$
62
                    3D
 Structure written by MMmdl.
156164  0  0  1  0            999 V2000
  -30.5347  -14.8189   20.3572 C   0  0  0  0  0  0
  -30.4418  -12.4718   19.4892 C   0  0  0  0  0  0
  -29.5323  -12.5041   18.2404 C   0  0  0  0  0  0
  -28.0576  -12.3068   18.6481 C   0  0  0  0  0  0
  -27.6385  -13.2232   19.8296 C   0  0  2  0  0  0
  -28.6781  -13.2043   20.9697 C   0  0  0  0  0  0
  -25.2562  -13.8142   20.5667 C   0  0  0  0  0  0
  -24.1843  -13.0403   20.9216 C   0  0  0  0  0  0
  -24.6424  -11.6889   20.8738 C   0  0  0  0  0  0
  -23.9111  -10.4278   21.0394 C   0  0  0  0  0  0
  -24.3644   -9.4198   21.9182 C   0  0  0  0  0  0
  -23.6307   -8.2243   22.0762 C   0  0  0  0  0  0
  -22.4290   -8.0287   21.3546 C   0  0  0  0  0  0
  -21.9939   -9.0267   20.4658 C   0  0  0  0  0  0
  -22.7283  -10.2134   20.3052 C   0  0  0  0  0  0
  -21.6856   -6.0769   22.5302 C   0  0  0  0  0  0
  -21.4014   -6.5663   23.8238 C   0  0  0  0  0  0
  -21.3650   -5.6799   24.9187 C   0  0  0  0  0  0
  -21.6043   -4.3068   24.7228 C   0  0  0  0  0  0
  -21.8812   -3.8174   23.4344 C   0  0  0  0  0  0
  -21.9186   -4.7002   22.3416 C   0  0  0  0  0  0
  -22.7872  -13.5230   21.1875 C   0  0  0  0  0  0
  -22.1643   -4.2203   21.0987 F   0  0  0  0  0  0
  -21.5633   -3.4535   25.7727 F   0  0  0  0  0  0
  -29.9803  -13.5534   20.3893 N   0  0  0  0  0  0
  -26.2942  -12.9316   20.3161 N   0  0  0  0  0  0
  -25.9342  -11.6469   20.5676 N   0  0  0  0  0  0
  -22.0508  -12.8215   22.0426 N   0  0  0  0  0  0
  -25.4291  -15.1853   20.4106 N   0  0  0  0  0  0
  -31.7335  -14.9231   20.0762 O   0  0  0  0  0  0
  -21.6630   -6.8897   21.4260 O   0  0  0  0  0  0
  -22.3563  -14.5534   20.6734 O   0  0  0  0  0  0
  -24.6397  -31.8520   23.1988 C   0  0  0  0  0  0
  -25.9192  -32.4723   23.8373 C   0  0  1  0  0  0
  -27.2293  -27.2456   20.1072 C   0  0  0  0  0  0
  -25.6003  -33.8538   24.2301 N   0  0  0  0  0  0
  -23.4370  -30.4752   21.5406 C   0  0  2  0  0  0
  -24.8868  -28.9139   20.1191 C   0  0  0  0  0  0
  -22.7552  -29.4601   22.4896 C   0  0  0  0  0  0
  -18.0289  -28.1358   22.8481 C   0  0  0  0  0  0
  -24.1479  -36.7237   23.2650 C   0  0  0  0  0  0
  -25.9885  -30.7567   21.3824 C   0  0  0  0  0  0
  -26.0641  -29.3792   20.7189 C   0  0  0  0  0  0
  -27.2446  -28.5589   20.6985 C   0  0  0  0  0  0
  -26.0205  -26.8429   19.5044 C   0  0  0  0  0  0
  -24.8688  -27.6503   19.5066 C   0  0  0  0  0  0
  -23.6615  -29.8091   20.1586 C   0  0  0  0  0  0
  -25.4110  -36.3040   24.0346 C   0  0  1  0  0  0
  -20.5897  -28.3695   23.1216 C   0  0  2  0  0  0
  -20.6763  -26.9403   22.5372 C   0  0  0  0  0  0
  -19.5730  -26.6368   21.5180 C   0  0  0  0  0  0
  -18.1918  -26.7916   22.1584 C   0  0  0  0  0  0
  -19.1553  -28.8839   23.2845 C   0  0  0  0  0  0
  -18.9489  -30.1448   23.8870 C   0  0  0  0  0  0
  -17.6491  -30.6574   24.0543 C   0  0  0  0  0  0
  -25.9062  -34.9416   23.5109 C   0  0  0  0  0  0
  -16.5367  -29.9066   23.6322 C   0  0  0  0  0  0
  -16.7283  -28.6469   23.0374 C   0  0  0  0  0  0
  -26.4563  -31.6563   25.0773 C   0  0  0  0  0  0
  -25.3812  -31.3705   26.1512 C   0  0  0  0  0  0
  -27.0412  -30.2975   24.6271 C   0  0  0  0  0  0
  -27.6132  -32.4311   25.7515 C   0  0  0  0  0  0
  -27.5570  -37.1768   24.8473 C   0  0  0  0  0  0
  -21.4254  -29.3048   22.3632 N   0  0  0  0  0  0
  -26.4266  -37.3766   23.9457 N   0  0  0  0  0  0
  -24.7069  -31.0482   22.0961 N   0  0  0  0  0  0
  -23.4213  -28.8177   23.3042 O   0  0  0  0  0  0
  -28.2878  -26.3009   20.0820 O   0  0  0  0  0  0
  -26.5619  -34.8890   22.4651 O   0  0  0  0  0  0
  -23.5537  -32.1363   23.7245 O   0  0  0  0  0  0
  -30.0392  -18.8508   17.6035 C   0  0  0  0  0  0
  -29.8516  -20.0889   18.2501 C   0  0  0  0  0  0
  -29.5059  -18.8613   20.3055 C   0  0  0  0  0  0
  -29.9531  -17.6040   18.2714 C   0  0  0  0  0  0
  -29.7689  -17.5561   19.6890 C   0  0  0  0  0  0
  -29.5044  -20.1535   19.6170 C   0  0  0  0  0  0
  -28.4073  -23.7464   20.7776 C   0  0  0  0  0  0
  -28.1214  -25.1182   20.8586 C   0  0  0  0  0  0
  -29.0100  -22.7801   19.7905 C   0  0  0  0  0  0
  -28.5969  -16.0313   16.7995 C   0  0  0  0  0  0
  -29.6348  -16.1715   20.5245 C   0  0  0  0  0  0
  -29.9848  -16.3759   17.3641 C   0  0  0  0  0  0
  -29.1278  -21.4596   20.2515 N   0  0  0  0  0  0
  -29.3653  -23.1182   18.6593 O   0  0  0  0  0  0
  -31.4907  -12.5853   19.2137 H   0  0  0  0  0  0
  -30.3661  -11.5027   19.9851 H   0  0  0  0  0  0
  -29.8406  -11.7362   17.5316 H   0  0  0  0  0  0
  -29.6460  -13.4498   17.7175 H   0  0  0  0  0  0
  -27.9476  -11.2605   18.9336 H   0  0  0  0  0  0
  -27.3999  -12.4630   17.7929 H   0  0  0  0  0  0
  -27.6105  -14.2299   19.4171 H   0  0  0  0  0  0
  -28.7144  -12.2266   21.4553 H   0  0  0  0  0  0
  -28.4024  -13.9196   21.7470 H   0  0  0  0  0  0
  -25.2772   -9.5666   22.4777 H   0  0  0  0  0  0
  -24.0015   -7.4632   22.7466 H   0  0  0  0  0  0
  -21.0884   -8.8786   19.8959 H   0  0  0  0  0  0
  -22.3739  -10.9677   19.6169 H   0  0  0  0  0  0
  -21.2009   -7.6169   23.9778 H   0  0  0  0  0  0
  -21.1476   -6.0512   25.9095 H   0  0  0  0  0  0
  -22.0601   -2.7642   23.2830 H   0  0  0  0  0  0
  -22.4048  -11.9826   22.4761 H   0  0  0  0  0  0
  -21.1172  -13.1304   22.2693 H   0  0  0  0  0  0
  -24.6669  -15.8427   20.5405 H   0  0  0  0  0  0
  -26.2827  -15.6256   20.0961 H   0  0  0  0  0  0
  -26.7284  -32.5349   23.1142 H   0  0  0  0  0  0
  -25.0224  -33.9690   25.0498 H   0  0  0  0  0  0
  -22.7344  -31.2976   21.3904 H   0  0  0  0  0  0
  -23.3764  -35.9535   23.3260 H   0  0  0  0  0  0
  -24.3586  -36.8890   22.2074 H   0  0  0  0  0  0
  -23.7179  -37.6403   23.6706 H   0  0  0  0  0  0
  -26.1337  -31.5198   20.6184 H   0  0  0  0  0  0
  -26.8628  -30.8041   22.0215 H   0  0  0  0  0  0
  -28.1533  -28.9148   21.1644 H   0  0  0  0  0  0
  -25.9593  -25.8622   19.0526 H   0  0  0  0  0  0
  -23.9617  -27.2826   19.0490 H   0  0  0  0  0  0
  -23.8076  -30.5871   19.4101 H   0  0  0  0  0  0
  -22.7772  -29.2566   19.8379 H   0  0  0  0  0  0
  -25.1266  -36.1882   25.0841 H   0  0  0  0  0  0
  -20.9959  -28.3257   24.1354 H   0  0  0  0  0  0
  -20.5595  -26.2336   23.3595 H   0  0  0  0  0  0
  -21.6646  -26.7383   22.1202 H   0  0  0  0  0  0
  -19.6886  -25.6263   21.1233 H   0  0  0  0  0  0
  -19.6649  -27.3154   20.6688 H   0  0  0  0  0  0
  -17.4184  -26.6679   21.3999 H   0  0  0  0  0  0
  -18.0322  -26.0038   22.8968 H   0  0  0  0  0  0
  -19.7975  -30.7271   24.2213 H   0  0  0  0  0  0
  -17.5044  -31.6258   24.5153 H   0  0  0  0  0  0
  -15.5374  -30.2957   23.7673 H   0  0  0  0  0  0
  -15.8679  -28.0767   22.7125 H   0  0  0  0  0  0
  -24.5959  -30.7071   25.7856 H   0  0  0  0  0  0
  -24.9042  -32.2855   26.5036 H   0  0  0  0  0  0
  -25.8156  -30.8819   27.0244 H   0  0  0  0  0  0
  -26.2986  -29.6690   24.1341 H   0  0  0  0  0  0
  -27.4126  -29.7283   25.4804 H   0  0  0  0  0  0
  -27.8867  -30.4222   23.9503 H   0  0  0  0  0  0
  -27.2786  -33.3661   26.2041 H   0  0  0  0  0  0
  -28.3986  -32.6792   25.0351 H   0  0  0  0  0  0
  -28.0782  -31.8470   26.5472 H   0  0  0  0  0  0
  -28.2554  -38.0101   24.7582 H   0  0  0  0  0  0
  -28.1100  -36.2644   24.6208 H   0  0  0  0  0  0
  -27.2312  -37.1284   25.8877 H   0  0  0  0  0  0
  -20.9474  -29.8780   21.6815 H   0  0  0  0  0  0
  -26.0110  -38.2812   24.1527 H   0  0  0  0  0  0
  -30.2070  -18.8678   16.5337 H   0  0  0  0  0  0
  -29.9316  -20.9808   17.6460 H   0  0  0  0  0  0
  -29.2467  -18.8611   21.3551 H   0  0  0  0  0  0
  -28.0864  -23.2392   21.6754 H   0  0  0  0  0  0
  -27.6424  -25.4204   21.7803 H   0  0  0  0  0  0
  -28.6610  -15.2417   16.0486 H   0  0  0  0  0  0
  -28.1499  -16.8981   16.3110 H   0  0  0  0  0  0
  -27.9079  -15.6992   17.5736 H   0  0  0  0  0  0
  -28.5903  -15.8999   20.3952 H   0  0  0  0  0  0
  -29.7152  -16.4464   21.5740 H   0  0  0  0  0  0
  -30.4250  -15.5124   17.8449 H   0  0  0  0  0  0
  -30.6489  -16.5792   16.5223 H   0  0  0  0  0  0
  -28.8495  -21.3689   21.2186 H   0  0  0  0  0  0
  1 25  1  0  0  0
  1 30  2  0  0  0
  1 81  1  0  0  0
  2  3  1  0  0  0
  2 25  1  0  0  0
  2 85  1  0  0  0
  2 86  1  0  0  0
  3  4  1  0  0  0
  3 87  1  0  0  0
  3 88  1  0  0  0
  4  5  1  0  0  0
  4 89  1  0  0  0
  4 90  1  0  0  0
  5  6  1  0  0  0
  5 26  1  0  0  0
  5 91  1  0  0  0
  6 25  1  0  0  0
  6 92  1  0  0  0
  6 93  1  0  0  0
  7  8  2  0  0  0
  7 26  1  0  0  0
  7 29  1  0  0  0
  8  9  1  0  0  0
  8 22  1  0  0  0
  9 10  1  0  0  0
  9 27  2  0  0  0
 10 11  2  0  0  0
 10 15  1  0  0  0
 11 12  1  0  0  0
 11 94  1  0  0  0
 12 13  2  0  0  0
 12 95  1  0  0  0
 13 14  1  0  0  0
 13 31  1  0  0  0
 14 15  2  0  0  0
 14 96  1  0  0  0
 15 97  1  0  0  0
 16 17  2  0  0  0
 16 21  1  0  0  0
 16 31  1  0  0  0
 17 18  1  0  0  0
 17 98  1  0  0  0
 18 19  2  0  0  0
 18 99  1  0  0  0
 19 20  1  0  0  0
 19 24  1  0  0  0
 20 21  2  0  0  0
 20100  1  0  0  0
 21 23  1  0  0  0
 22 28  1  0  0  0
 22 32  2  0  0  0
 26 27  1  0  0  0
 28101  1  0  0  0
 28102  1  0  0  0
 29103  1  0  0  0
 29104  1  0  0  0
 33 34  1  0  0  0
 33 66  1  0  0  0
 33 70  2  0  0  0
 34 36  1  0  0  0
 34 59  1  0  0  0
 34105  1  0  0  0
 35 44  2  0  0  0
 35 45  1  0  0  0
 35 68  1  0  0  0
 36 56  1  0  0  0
 36106  1  0  0  0
 37 39  1  0  0  0
 37 47  1  0  0  0
 37 66  1  0  0  0
 37107  1  0  0  0
 38 43  2  0  0  0
 38 46  1  0  0  0
 38 47  1  0  0  0
 39 64  1  0  0  0
 39 67  2  0  0  0
 40 52  1  0  0  0
 40 53  2  0  0  0
 40 58  1  0  0  0
 41108  1  0  0  0
 41109  1  0  0  0
 41110  1  0  0  0
 41 48  1  0  0  0
 42 43  1  0  0  0
 42 66  1  0  0  0
 42111  1  0  0  0
 42112  1  0  0  0
 43 44  1  0  0  0
 44113  1  0  0  0
 45 46  2  0  0  0
 45114  1  0  0  0
 46115  1  0  0  0
 47116  1  0  0  0
 47117  1  0  0  0
 48 56  1  0  0  0
 48 65  1  0  0  0
 48118  1  0  0  0
 49 50  1  0  0  0
 49 53  1  0  0  0
 49 64  1  0  0  0
 49119  1  0  0  0
 50 51  1  0  0  0
 50120  1  0  0  0
 50121  1  0  0  0
 51 52  1  0  0  0
 51122  1  0  0  0
 51123  1  0  0  0
 52124  1  0  0  0
 52125  1  0  0  0
 53 54  1  0  0  0
 54 55  2  0  0  0
 54126  1  0  0  0
 55 57  1  0  0  0
 55127  1  0  0  0
 56 69  2  0  0  0
 57 58  2  0  0  0
 57128  1  0  0  0
 58129  1  0  0  0
 59 60  1  0  0  0
 59 61  1  0  0  0
 59 62  1  0  0  0
 60130  1  0  0  0
 60131  1  0  0  0
 60132  1  0  0  0
 61133  1  0  0  0
 61134  1  0  0  0
 61135  1  0  0  0
 62136  1  0  0  0
 62137  1  0  0  0
 62138  1  0  0  0
 63 65  1  0  0  0
 63139  1  0  0  0
 63140  1  0  0  0
 63141  1  0  0  0
 64142  1  0  0  0
 65143  1  0  0  0
 68 78  1  0  0  0
 71 72  2  0  0  0
 71 74  1  0  0  0
 71144  1  0  0  0
 72 76  1  0  0  0
 72145  1  0  0  0
 73 75  1  0  0  0
 73 76  2  0  0  0
 73146  1  0  0  0
 74 75  2  0  0  0
 74 82  1  0  0  0
 75 81  1  0  0  0
 76 83  1  0  0  0
 77 78  2  0  0  0
 77 79  1  0  0  0
 77147  1  0  0  0
 78148  1  0  0  0
 79 83  1  0  0  0
 79 84  2  0  0  0
 80 82  1  0  0  0
 80149  1  0  0  0
 80150  1  0  0  0
 80151  1  0  0  0
 81152  1  0  0  0
 81153  1  0  0  0
 82154  1  0  0  0
 82155  1  0  0  0
 83156  1  0  0  0
M  ISO  4   1 100  68 101  78 101  81 100
M  END
> <chiral flag>
0

> <version>
0

> <s_m_source_file>
/data/baiqing/PycharmProjects/Reinvent-master-3.2/result/LINK_invent/BTK/process_docking_weight1_custom_product_contain_oxygen_bond_distance_aromatic_linkinvent_7_9_3/rearranged_h_0112.sdf

> <i_m_source_file_index>
62

> <r_mmod_Potential_Energy-OPLS-2005>
294.171661376953

> <r_mmod_Stretch_Energy-OPLS-2005>
147.321899414062

> <r_mmod_Bend_Energy-OPLS-2005>
244.707717895508

> <r_mmod_Torsional_Energy-OPLS-2005>
204.031219482422

> <r_mmod_Improper_Torsional_Energy-OPLS-2005>
4.46929883956909

> <r_mmod_Van_der_Waal_Energy-OPLS-2005>
129.319122314453

> <r_mmod_Electrostatic_Energy-OPLS-2005>
-324.272735595703

> <r_mmod_Solvation_Energy-OPLS-2005>
-228.064468383789

> <b_mmod_Minimization_Converged-OPLS-2005>
0

> <r_mmod_RMS_Derivative-OPLS-2005>
4.44548845291138

$$$$
63
                    3D
 Structure written by MMmdl.
153161  0  0  1  0            999 V2000
  -30.6221  -14.6779   20.4793 C   0  0  0  0  0  0
  -30.4348  -12.4141   19.4597 C   0  0  0  0  0  0
  -29.5095  -12.5081   18.2262 C   0  0  0  0  0  0
  -28.0319  -12.3419   18.6366 C   0  0  0  0  0  0
  -27.6468  -13.2241   19.8549 C   0  0  2  0  0  0
  -28.6925  -13.1148   20.9872 C   0  0  0  0  0  0
  -25.2532  -13.8183   20.5693 C   0  0  0  0  0  0
  -24.1812  -13.0435   20.9202 C   0  0  0  0  0  0
  -24.6396  -11.6909   20.8737 C   0  0  0  0  0  0
  -23.9076  -10.4284   21.0396 C   0  0  0  0  0  0
  -24.3627   -9.4207   21.9179 C   0  0  0  0  0  0
  -23.6298   -8.2241   22.0754 C   0  0  0  0  0  0
  -22.4279   -8.0272   21.3545 C   0  0  0  0  0  0
  -21.9914   -9.0246   20.4649 C   0  0  0  0  0  0
  -22.7241  -10.2125   20.3052 C   0  0  0  0  0  0
  -21.6855   -6.0733   22.5279 C   0  0  0  0  0  0
  -21.4015   -6.5636   23.8212 C   0  0  0  0  0  0
  -21.3665   -5.6791   24.9178 C   0  0  0  0  0  0
  -21.6047   -4.3056   24.7228 C   0  0  0  0  0  0
  -21.8819   -3.8146   23.4350 C   0  0  0  0  0  0
  -21.9197   -4.6962   22.3407 C   0  0  0  0  0  0
  -22.7830  -13.5220   21.1855 C   0  0  0  0  0  0
  -22.1657   -4.2148   21.0985 F   0  0  0  0  0  0
  -21.5640   -3.4544   25.7742 F   0  0  0  0  0  0
  -30.0026  -13.4550   20.4147 N   0  0  0  0  0  0
  -26.2957  -12.9378   20.3284 N   0  0  0  0  0  0
  -25.9321  -11.6527   20.5740 N   0  0  0  0  0  0
  -22.0471  -12.8216   22.0415 N   0  0  0  0  0  0
  -25.4228  -15.1909   20.4115 N   0  0  0  0  0  0
  -31.8053  -14.7976   20.1485 O   0  0  0  0  0  0
  -21.6644   -6.8869   21.4237 O   0  0  0  0  0  0
  -22.3517  -14.5525   20.6697 O   0  0  0  0  0  0
  -24.6278  -31.8597   23.2023 C   0  0  0  0  0  0
  -25.9123  -32.4775   23.8358 C   0  0  1  0  0  0
  -27.2189  -27.3028   20.1138 C   0  0  0  0  0  0
  -25.5937  -33.8583   24.2283 N   0  0  0  0  0  0
  -23.4217  -30.4839   21.5468 C   0  0  2  0  0  0
  -24.8665  -28.9409   20.1112 C   0  0  0  0  0  0
  -22.7483  -29.4621   22.4945 C   0  0  0  0  0  0
  -18.0290  -28.1381   22.8487 C   0  0  0  0  0  0
  -24.1491  -36.7292   23.2636 C   0  0  0  0  0  0
  -25.9655  -30.7841   21.3775 C   0  0  0  0  0  0
  -26.0386  -29.4121   20.7163 C   0  0  0  0  0  0
  -27.2186  -28.6061   20.7063 C   0  0  0  0  0  0
  -26.0204  -26.8934   19.4819 C   0  0  0  0  0  0
  -24.8603  -27.6878   19.4847 C   0  0  0  0  0  0
  -23.6357  -29.8221   20.1614 C   0  0  0  0  0  0
  -25.4120  -36.3087   24.0325 C   0  0  1  0  0  0
  -20.5891  -28.3685   23.1285 C   0  0  2  0  0  0
  -20.6778  -26.9409   22.5414 C   0  0  0  0  0  0
  -19.5754  -26.6380   21.5215 C   0  0  0  0  0  0
  -18.1932  -26.7927   22.1621 C   0  0  0  0  0  0
  -19.1543  -28.8853   23.2878 C   0  0  0  0  0  0
  -18.9463  -30.1459   23.8890 C   0  0  0  0  0  0
  -17.6460  -30.6582   24.0560 C   0  0  0  0  0  0
  -25.9057  -34.9455   23.5103 C   0  0  0  0  0  0
  -16.5352  -29.9074   23.6334 C   0  0  0  0  0  0
  -16.7275  -28.6495   23.0352 C   0  0  0  0  0  0
  -26.4500  -31.6589   25.0738 C   0  0  0  0  0  0
  -25.3726  -31.3735   26.1463 C   0  0  0  0  0  0
  -27.0326  -30.2999   24.6213 C   0  0  0  0  0  0
  -27.6062  -32.4313   25.7511 C   0  0  0  0  0  0
  -27.5587  -37.1801   24.8460 C   0  0  0  0  0  0
  -21.4196  -29.3037   22.3681 N   0  0  0  0  0  0
  -26.4295  -37.3786   23.9407 N   0  0  0  0  0  0
  -24.6907  -31.0595   22.0985 N   0  0  0  0  0  0
  -23.4204  -28.8159   23.3029 O   0  0  0  0  0  0
  -28.3209  -26.4262   20.1660 O   0  0  0  0  0  0
  -26.5629  -34.8919   22.4670 O   0  0  0  0  0  0
  -23.5438  -32.1410   23.7338 O   0  0  0  0  0  0
  -31.2572  -17.8285   20.4590 C   0  0  0  0  0  0
  -28.9154  -19.3313   20.5959 C   0  0  0  0  0  0
  -30.0276  -20.1074   20.4506 C   0  0  0  0  0  0
  -30.0766  -17.1886   20.6077 C   0  0  0  0  0  0
  -31.3141  -19.3166   20.3866 C   0  0  0  0  0  0
  -29.1738  -23.9287   20.3275 C   0  0  0  0  0  0
  -32.7520  -21.2344   20.1990 C   0  0  0  0  0  0
  -28.0171  -24.9698   20.0444 C   0  0  0  0  0  0
  -28.8477  -22.3698   20.3875 C   0  0  0  0  0  0
  -32.4924  -19.8103   20.2701 N   0  0  0  0  0  0
  -29.8116  -15.7698   20.7039 N   0  0  0  0  0  0
  -30.3338  -24.3252   20.4911 O   0  0  0  0  0  0
  -28.8978  -17.9264   20.6856 O   0  0  0  0  0  0
  -30.0468  -21.5226   20.3690 O   0  0  0  0  0  0
  -31.4766  -12.5357   19.1589 H   0  0  0  0  0  0
  -30.3686  -11.4268   19.9195 H   0  0  0  0  0  0
  -29.7813  -11.7489   17.4913 H   0  0  0  0  0  0
  -29.6482  -13.4736   17.7358 H   0  0  0  0  0  0
  -27.8752  -11.2900   18.8769 H   0  0  0  0  0  0
  -27.3790  -12.5607   17.7903 H   0  0  0  0  0  0
  -27.6523  -14.2531   19.4958 H   0  0  0  0  0  0
  -28.7104  -12.1040   21.3982 H   0  0  0  0  0  0
  -28.4375  -13.7754   21.8176 H   0  0  0  0  0  0
  -25.2771   -9.5698   22.4757 H   0  0  0  0  0  0
  -24.0017   -7.4643   22.7480 H   0  0  0  0  0  0
  -21.0849   -8.8751   19.8957 H   0  0  0  0  0  0
  -22.3687  -10.9659   19.6160 H   0  0  0  0  0  0
  -21.1988   -7.6142   23.9717 H   0  0  0  0  0  0
  -21.1494   -6.0523   25.9084 H   0  0  0  0  0  0
  -22.0595   -2.7605   23.2859 H   0  0  0  0  0  0
  -22.4078  -11.9883   22.4825 H   0  0  0  0  0  0
  -21.1081  -13.1232   22.2593 H   0  0  0  0  0  0
  -24.6556  -15.8439   20.5294 H   0  0  0  0  0  0
  -26.2684  -15.6338   20.0766 H   0  0  0  0  0  0
  -26.7189  -32.5433   23.1104 H   0  0  0  0  0  0
  -25.0089  -33.9733   25.0428 H   0  0  0  0  0  0
  -22.7158  -31.3050   21.4054 H   0  0  0  0  0  0
  -23.3760  -35.9615   23.3293 H   0  0  0  0  0  0
  -24.3582  -36.8922   22.2050 H   0  0  0  0  0  0
  -23.7228  -37.6484   23.6664 H   0  0  0  0  0  0
  -26.1036  -31.5485   20.6121 H   0  0  0  0  0  0
  -26.8427  -30.8276   22.0114 H   0  0  0  0  0  0
  -28.1165  -28.9634   21.1906 H   0  0  0  0  0  0
  -25.9397  -25.9407   18.9822 H   0  0  0  0  0  0
  -23.9629  -27.3222   19.0040 H   0  0  0  0  0  0
  -23.7553  -30.6000   19.4062 H   0  0  0  0  0  0
  -22.7541  -29.2537   19.8584 H   0  0  0  0  0  0
  -25.1301  -36.1943   25.0815 H   0  0  0  0  0  0
  -20.9979  -28.3253   24.1406 H   0  0  0  0  0  0
  -20.5684  -26.2292   23.3614 H   0  0  0  0  0  0
  -21.6645  -26.7441   22.1202 H   0  0  0  0  0  0
  -19.6912  -25.6288   21.1248 H   0  0  0  0  0  0
  -19.6687  -27.3193   20.6747 H   0  0  0  0  0  0
  -17.4204  -26.6685   21.4017 H   0  0  0  0  0  0
  -18.0319  -26.0067   22.9015 H   0  0  0  0  0  0
  -19.7935  -30.7286   24.2243 H   0  0  0  0  0  0
  -17.5009  -31.6263   24.5156 H   0  0  0  0  0  0
  -15.5352  -30.2969   23.7663 H   0  0  0  0  0  0
  -15.8678  -28.0811   22.7068 H   0  0  0  0  0  0
  -24.5893  -30.7097   25.7788 H   0  0  0  0  0  0
  -24.8933  -32.2903   26.4903 H   0  0  0  0  0  0
  -25.8048  -30.8895   27.0231 H   0  0  0  0  0  0
  -26.2899  -29.6761   24.1228 H   0  0  0  0  0  0
  -27.3984  -29.7257   25.4737 H   0  0  0  0  0  0
  -27.8797  -30.4263   23.9466 H   0  0  0  0  0  0
  -27.2685  -33.3610   26.2102 H   0  0  0  0  0  0
  -28.3876  -32.6872   25.0341 H   0  0  0  0  0  0
  -28.0730  -31.8425   26.5420 H   0  0  0  0  0  0
  -28.2597  -38.0109   24.7530 H   0  0  0  0  0  0
  -28.1094  -36.2643   24.6261 H   0  0  0  0  0  0
  -27.2308  -37.1420   25.8863 H   0  0  0  0  0  0
  -20.9376  -29.8766   21.6894 H   0  0  0  0  0  0
  -26.0179  -38.2856   24.1422 H   0  0  0  0  0  0
  -32.1991  -17.3060   20.3952 H   0  0  0  0  0  0
  -27.9164  -19.7355   20.6605 H   0  0  0  0  0  0
  -33.8244  -21.4165   20.1201 H   0  0  0  0  0  0
  -32.4105  -21.7565   21.0952 H   0  0  0  0  0  0
  -32.2893  -21.6894   19.3211 H   0  0  0  0  0  0
  -27.1915  -24.7275   20.7146 H   0  0  0  0  0  0
  -27.6760  -24.7675   19.0294 H   0  0  0  0  0  0
  -28.2048  -22.1098   19.5465 H   0  0  0  0  0  0
  -28.2851  -22.1727   21.3000 H   0  0  0  0  0  0
  -28.8499  -15.5381   20.8979 H   0  0  0  0  0  0
  1 25  1  0  0  0
  1 30  2  0  0  0
  1 81  1  0  0  0
  2  3  1  0  0  0
  2 25  1  0  0  0
  2 85  1  0  0  0
  2 86  1  0  0  0
  3  4  1  0  0  0
  3 87  1  0  0  0
  3 88  1  0  0  0
  4  5  1  0  0  0
  4 89  1  0  0  0
  4 90  1  0  0  0
  5  6  1  0  0  0
  5 26  1  0  0  0
  5 91  1  0  0  0
  6 25  1  0  0  0
  6 92  1  0  0  0
  6 93  1  0  0  0
  7  8  2  0  0  0
  7 26  1  0  0  0
  7 29  1  0  0  0
  8  9  1  0  0  0
  8 22  1  0  0  0
  9 10  1  0  0  0
  9 27  2  0  0  0
 10 11  2  0  0  0
 10 15  1  0  0  0
 11 12  1  0  0  0
 11 94  1  0  0  0
 12 13  2  0  0  0
 12 95  1  0  0  0
 13 14  1  0  0  0
 13 31  1  0  0  0
 14 15  2  0  0  0
 14 96  1  0  0  0
 15 97  1  0  0  0
 16 17  2  0  0  0
 16 21  1  0  0  0
 16 31  1  0  0  0
 17 18  1  0  0  0
 17 98  1  0  0  0
 18 19  2  0  0  0
 18 99  1  0  0  0
 19 20  1  0  0  0
 19 24  1  0  0  0
 20 21  2  0  0  0
 20100  1  0  0  0
 21 23  1  0  0  0
 22 28  1  0  0  0
 22 32  2  0  0  0
 26 27  1  0  0  0
 28101  1  0  0  0
 28102  1  0  0  0
 29103  1  0  0  0
 29104  1  0  0  0
 33 34  1  0  0  0
 33 66  1  0  0  0
 33 70  2  0  0  0
 34 36  1  0  0  0
 34 59  1  0  0  0
 34105  1  0  0  0
 35 44  2  0  0  0
 35 45  1  0  0  0
 35 68  1  0  0  0
 36 56  1  0  0  0
 36106  1  0  0  0
 37 39  1  0  0  0
 37 47  1  0  0  0
 37 66  1  0  0  0
 37107  1  0  0  0
 38 43  2  0  0  0
 38 46  1  0  0  0
 38 47  1  0  0  0
 39 64  1  0  0  0
 39 67  2  0  0  0
 40 52  1  0  0  0
 40 53  2  0  0  0
 40 58  1  0  0  0
 41108  1  0  0  0
 41109  1  0  0  0
 41110  1  0  0  0
 41 48  1  0  0  0
 42 43  1  0  0  0
 42 66  1  0  0  0
 42111  1  0  0  0
 42112  1  0  0  0
 43 44  1  0  0  0
 44113  1  0  0  0
 45 46  2  0  0  0
 45114  1  0  0  0
 46115  1  0  0  0
 47116  1  0  0  0
 47117  1  0  0  0
 48 56  1  0  0  0
 48 65  1  0  0  0
 48118  1  0  0  0
 49 50  1  0  0  0
 49 53  1  0  0  0
 49 64  1  0  0  0
 49119  1  0  0  0
 50 51  1  0  0  0
 50120  1  0  0  0
 50121  1  0  0  0
 51 52  1  0  0  0
 51122  1  0  0  0
 51123  1  0  0  0
 52124  1  0  0  0
 52125  1  0  0  0
 53 54  1  0  0  0
 54 55  2  0  0  0
 54126  1  0  0  0
 55 57  1  0  0  0
 55127  1  0  0  0
 56 69  2  0  0  0
 57 58  2  0  0  0
 57128  1  0  0  0
 58129  1  0  0  0
 59 60  1  0  0  0
 59 61  1  0  0  0
 59 62  1  0  0  0
 60130  1  0  0  0
 60131  1  0  0  0
 60132  1  0  0  0
 61133  1  0  0  0
 61134  1  0  0  0
 61135  1  0  0  0
 62136  1  0  0  0
 62137  1  0  0  0
 62138  1  0  0  0
 63 65  1  0  0  0
 63139  1  0  0  0
 63140  1  0  0  0
 63141  1  0  0  0
 64142  1  0  0  0
 65143  1  0  0  0
 68 78  1  0  0  0
 71 74  2  0  0  0
 71 75  1  0  0  0
 71144  1  0  0  0
 72 73  2  0  0  0
 72 83  1  0  0  0
 72145  1  0  0  0
 73 75  1  0  0  0
 73 84  1  0  0  0
 74 81  1  0  0  0
 74 83  1  0  0  0
 75 80  2  0  0  0
 76 78  1  0  0  0
 76 79  1  0  0  0
 76 82  2  0  0  0
 77 80  1  0  0  0
 77146  1  0  0  0
 77147  1  0  0  0
 77148  1  0  0  0
 78149  1  0  0  0
 78150  1  0  0  0
 79 84  1  0  0  0
 79151  1  0  0  0
 79152  1  0  0  0
 81153  1  0  0  0
M  ISO  4   1 100  68 101  78 101  81 100
M  END
> <chiral flag>
0

> <version>
0

> <s_m_source_file>
/data/baiqing/PycharmProjects/Reinvent-master-3.2/result/LINK_invent/BTK/process_docking_weight1_custom_product_contain_oxygen_bond_distance_aromatic_linkinvent_7_9_3/rearranged_h_0112.sdf

> <i_m_source_file_index>
63

> <r_mmod_Potential_Energy-OPLS-2005>
92.7728424072266

> <r_mmod_Stretch_Energy-OPLS-2005>
94.1667785644531

> <r_mmod_Bend_Energy-OPLS-2005>
173.766479492188

> <r_mmod_Torsional_Energy-OPLS-2005>
178.550033569336

> <r_mmod_Improper_Torsional_Energy-OPLS-2005>
5.0965895652771

> <r_mmod_Van_der_Waal_Energy-OPLS-2005>
149.834732055664

> <r_mmod_Electrostatic_Energy-OPLS-2005>
-311.381561279297

> <r_mmod_Solvation_Energy-OPLS-2005>
-258.188385009766

> <b_mmod_Minimization_Converged-OPLS-2005>
0

> <r_mmod_RMS_Derivative-OPLS-2005>
1.3280690908432

$$$$
64
                    3D
 Structure written by MMmdl.
157165  0  0  1  0            999 V2000
  -30.6037  -14.8542   20.4124 C   0  0  0  0  0  0
  -30.4245  -12.5254   19.4911 C   0  0  0  0  0  0
  -29.5018  -12.5030   18.2492 C   0  0  0  0  0  0
  -28.0353  -12.3175   18.6721 C   0  0  0  0  0  0
  -27.6291  -13.2513   19.8420 C   0  0  2  0  0  0
  -28.6736  -13.2582   20.9808 C   0  0  0  0  0  0
  -25.2440  -13.8257   20.5774 C   0  0  0  0  0  0
  -24.1753  -13.0461   20.9280 C   0  0  0  0  0  0
  -24.6376  -11.6949   20.8782 C   0  0  0  0  0  0
  -23.9069  -10.4311   21.0427 C   0  0  0  0  0  0
  -24.3631   -9.4223   21.9190 C   0  0  0  0  0  0
  -23.6317   -8.2251   22.0734 C   0  0  0  0  0  0
  -22.4295   -8.0294   21.3534 C   0  0  0  0  0  0
  -21.9933   -9.0267   20.4630 C   0  0  0  0  0  0
  -22.7257  -10.2152   20.3053 C   0  0  0  0  0  0
  -21.6851   -6.0753   22.5279 C   0  0  0  0  0  0
  -21.4019   -6.5648   23.8224 C   0  0  0  0  0  0
  -21.3684   -5.6794   24.9187 C   0  0  0  0  0  0
  -21.6057   -4.3050   24.7230 C   0  0  0  0  0  0
  -21.8809   -3.8152   23.4341 C   0  0  0  0  0  0
  -21.9182   -4.6976   22.3405 C   0  0  0  0  0  0
  -22.7776  -13.5203   21.1960 C   0  0  0  0  0  0
  -22.1654   -4.2162   21.0982 F   0  0  0  0  0  0
  -21.5629   -3.4531   25.7742 F   0  0  0  0  0  0
  -29.9654  -13.6224   20.3872 N   0  0  0  0  0  0
  -26.2869  -12.9502   20.3288 N   0  0  0  0  0  0
  -25.9306  -11.6626   20.5770 N   0  0  0  0  0  0
  -22.0431  -12.8157   22.0501 N   0  0  0  0  0  0
  -25.4118  -15.1996   20.4263 N   0  0  0  0  0  0
  -31.8048  -14.8879   20.1300 O   0  0  0  0  0  0
  -21.6645   -6.8900   21.4243 O   0  0  0  0  0  0
  -22.3452  -14.5535   20.6855 O   0  0  0  0  0  0
  -24.6371  -31.8477   23.1924 C   0  0  0  0  0  0
  -25.9146  -32.4730   23.8308 C   0  0  1  0  0  0
  -27.2196  -27.1905   20.1502 C   0  0  0  0  0  0
  -25.5904  -33.8536   24.2234 N   0  0  0  0  0  0
  -23.4391  -30.4663   21.5360 C   0  0  2  0  0  0
  -24.8909  -28.9049   20.1044 C   0  0  0  0  0  0
  -22.7560  -29.4537   22.4884 C   0  0  0  0  0  0
  -18.0299  -28.1380   22.8500 C   0  0  0  0  0  0
  -24.1475  -36.7276   23.2643 C   0  0  0  0  0  0
  -25.9892  -30.7407   21.3791 C   0  0  0  0  0  0
  -26.0622  -29.3551   20.7261 C   0  0  0  0  0  0
  -27.2278  -28.5118   20.7354 C   0  0  0  0  0  0
  -26.0321  -26.8342   19.4741 C   0  0  0  0  0  0
  -24.8872  -27.6587   19.4587 C   0  0  0  0  0  0
  -23.6628  -29.7973   20.1532 C   0  0  0  0  0  0
  -25.4098  -36.3054   24.0327 C   0  0  1  0  0  0
  -20.5909  -28.3672   23.1279 C   0  0  2  0  0  0
  -20.6765  -26.9378   22.5411 C   0  0  0  0  0  0
  -19.5732  -26.6368   21.5221 C   0  0  0  0  0  0
  -18.1924  -26.7922   22.1647 C   0  0  0  0  0  0
  -19.1556  -28.8853   23.2879 C   0  0  0  0  0  0
  -18.9468  -30.1460   23.8881 C   0  0  0  0  0  0
  -17.6456  -30.6573   24.0557 C   0  0  0  0  0  0
  -25.9037  -34.9433   23.5089 C   0  0  0  0  0  0
  -16.5352  -29.9058   23.6338 C   0  0  0  0  0  0
  -16.7285  -28.6479   23.0369 C   0  0  0  0  0  0
  -26.4485  -31.6582   25.0728 C   0  0  0  0  0  0
  -25.3700  -31.3742   26.1452 C   0  0  0  0  0  0
  -27.0317  -30.2991   24.6232 C   0  0  0  0  0  0
  -27.6035  -32.4333   25.7509 C   0  0  0  0  0  0
  -27.5562  -37.1795   24.8467 C   0  0  0  0  0  0
  -21.4252  -29.3005   22.3656 N   0  0  0  0  0  0
  -26.4269  -37.3758   23.9422 N   0  0  0  0  0  0
  -24.7088  -31.0395   22.0918 N   0  0  0  0  0  0
  -23.4235  -28.8068   23.3000 O   0  0  0  0  0  0
  -28.2918  -26.2502   20.2458 O   0  0  0  0  0  0
  -26.5640  -34.8924   22.4674 O   0  0  0  0  0  0
  -23.5507  -32.1328   23.7177 O   0  0  0  0  0  0
  -28.8400  -18.2276   16.8604 C   0  0  0  0  0  0
  -28.7498  -18.9583   18.0492 C   0  0  0  0  0  0
  -29.8452  -16.4353   18.0925 C   0  0  0  0  0  0
  -29.4391  -16.9769   16.8704 C   0  0  0  0  0  0
  -29.6851  -17.0745   19.3610 C   0  0  0  0  0  0
  -29.2304  -18.5189   19.3226 C   0  0  0  0  0  0
  -29.1894  -22.2873   20.8595 C   0  0  0  0  0  0
  -28.9499  -23.6826   20.9063 C   0  0  0  0  0  0
  -29.6145  -24.4368   22.0502 C   0  0  0  0  0  0
  -28.8238  -21.0281   19.9427 C   0  0  0  0  0  0
  -28.1031  -24.7379   20.0274 C   0  0  0  0  0  0
  -29.5907  -16.2564   15.6855 N   0  0  0  0  0  0
  -29.8841  -16.0704   20.4707 N   0  0  0  0  0  0
  -29.2163  -19.5765   20.3182 O   0  0  0  0  0  0
  -31.4591  -12.6525   19.1707 H   0  0  0  0  0  0
  -30.3908  -11.5707   20.0157 H   0  0  0  0  0  0
  -29.8015  -11.7049   17.5687 H   0  0  0  0  0  0
  -29.6012  -13.4260   17.6822 H   0  0  0  0  0  0
  -27.9141  -11.2758   18.9739 H   0  0  0  0  0  0
  -27.3695  -12.4656   17.8209 H   0  0  0  0  0  0
  -27.6023  -14.2586   19.4250 H   0  0  0  0  0  0
  -28.7241  -12.2866   21.4722 H   0  0  0  0  0  0
  -28.3883  -13.9763   21.7512 H   0  0  0  0  0  0
  -25.2774   -9.5704   22.4768 H   0  0  0  0  0  0
  -24.0039   -7.4631   22.7427 H   0  0  0  0  0  0
  -21.0873   -8.8798   19.8927 H   0  0  0  0  0  0
  -22.3724  -10.9704   19.6165 H   0  0  0  0  0  0
  -21.2011   -7.6154   23.9739 H   0  0  0  0  0  0
  -21.1526   -6.0521   25.9098 H   0  0  0  0  0  0
  -22.0557   -2.7609   23.2830 H   0  0  0  0  0  0
  -22.4050  -11.9828   22.4914 H   0  0  0  0  0  0
  -21.1034  -13.1149   22.2677 H   0  0  0  0  0  0
  -24.6595  -15.8599   20.5872 H   0  0  0  0  0  0
  -26.2563  -15.6386   20.0832 H   0  0  0  0  0  0
  -26.7216  -32.5363   23.1052 H   0  0  0  0  0  0
  -25.0014  -33.9663   25.0354 H   0  0  0  0  0  0
  -22.7369  -31.2885   21.3846 H   0  0  0  0  0  0
  -23.3738  -35.9602   23.3296 H   0  0  0  0  0  0
  -24.3560  -36.8913   22.2056 H   0  0  0  0  0  0
  -23.7223  -37.6474   23.6677 H   0  0  0  0  0  0
  -26.1289  -31.4942   20.6026 H   0  0  0  0  0  0
  -26.8665  -30.8016   22.0112 H   0  0  0  0  0  0
  -28.1206  -28.8482   21.2441 H   0  0  0  0  0  0
  -25.9606  -25.8868   18.9595 H   0  0  0  0  0  0
  -23.9977  -27.3210   18.9463 H   0  0  0  0  0  0
  -23.7883  -30.5712   19.3948 H   0  0  0  0  0  0
  -22.7823  -29.2286   19.8494 H   0  0  0  0  0  0
  -25.1276  -36.1887   25.0814 H   0  0  0  0  0  0
  -21.0014  -28.3225   24.1399 H   0  0  0  0  0  0
  -20.5654  -26.2266   23.3614 H   0  0  0  0  0  0
  -21.6632  -26.7371   22.1210 H   0  0  0  0  0  0
  -19.6869  -25.6283   21.1244 H   0  0  0  0  0  0
  -19.6667  -27.3187   20.6763 H   0  0  0  0  0  0
  -17.4187  -26.6697   21.4051 H   0  0  0  0  0  0
  -18.0303  -26.0061   22.9042 H   0  0  0  0  0  0
  -19.7934  -30.7296   24.2243 H   0  0  0  0  0  0
  -17.4994  -31.6258   24.5149 H   0  0  0  0  0  0
  -15.5348  -30.2938   23.7669 H   0  0  0  0  0  0
  -15.8698  -28.0779   22.7101 H   0  0  0  0  0  0
  -24.5891  -30.7066   25.7794 H   0  0  0  0  0  0
  -24.8870  -32.2910   26.4851 H   0  0  0  0  0  0
  -25.8022  -30.8956   27.0250 H   0  0  0  0  0  0
  -26.2891  -29.6764   24.1235 H   0  0  0  0  0  0
  -27.3955  -29.7234   25.4751 H   0  0  0  0  0  0
  -27.8794  -30.4255   23.9496 H   0  0  0  0  0  0
  -27.2640  -33.3654   26.2044 H   0  0  0  0  0  0
  -28.3871  -32.6865   25.0354 H   0  0  0  0  0  0
  -28.0673  -31.8486   26.5470 H   0  0  0  0  0  0
  -28.2581  -38.0094   24.7508 H   0  0  0  0  0  0
  -28.1067  -36.2628   24.6291 H   0  0  0  0  0  0
  -27.2301  -37.1435   25.8879 H   0  0  0  0  0  0
  -20.9449  -29.8727   21.6849 H   0  0  0  0  0  0
  -26.0145  -38.2828   24.1439 H   0  0  0  0  0  0
  -28.4698  -18.6559   15.9402 H   0  0  0  0  0  0
  -28.2789  -19.9124   17.8953 H   0  0  0  0  0  0
  -30.2574  -15.4459   18.0101 H   0  0  0  0  0  0
  -29.8260  -21.9261   21.6550 H   0  0  0  0  0  0
  -30.2710  -23.8090   22.6542 H   0  0  0  0  0  0
  -28.8538  -24.8558   22.7085 H   0  0  0  0  0  0
  -30.2218  -25.2585   21.6671 H   0  0  0  0  0  0
  -29.3295  -21.2891   19.0131 H   0  0  0  0  0  0
  -27.7515  -21.0612   19.7524 H   0  0  0  0  0  0
  -27.0632  -24.4776   20.2277 H   0  0  0  0  0  0
  -28.2803  -24.5190   18.9734 H   0  0  0  0  0  0
  -29.1197  -16.5379   14.8301 H   0  0  0  0  0  0
  -29.8985  -15.2885   15.6899 H   0  0  0  0  0  0
  -29.1267  -16.0632   21.1369 H   0  0  0  0  0  0
  1 25  1  0  0  0
  1 30  2  0  0  0
  1 83  1  0  0  0
  2  3  1  0  0  0
  2 25  1  0  0  0
  2 85  1  0  0  0
  2 86  1  0  0  0
  3  4  1  0  0  0
  3 87  1  0  0  0
  3 88  1  0  0  0
  4  5  1  0  0  0
  4 89  1  0  0  0
  4 90  1  0  0  0
  5  6  1  0  0  0
  5 26  1  0  0  0
  5 91  1  0  0  0
  6 25  1  0  0  0
  6 92  1  0  0  0
  6 93  1  0  0  0
  7  8  2  0  0  0
  7 26  1  0  0  0
  7 29  1  0  0  0
  8  9  1  0  0  0
  8 22  1  0  0  0
  9 10  1  0  0  0
  9 27  2  0  0  0
 10 11  2  0  0  0
 10 15  1  0  0  0
 11 12  1  0  0  0
 11 94  1  0  0  0
 12 13  2  0  0  0
 12 95  1  0  0  0
 13 14  1  0  0  0
 13 31  1  0  0  0
 14 15  2  0  0  0
 14 96  1  0  0  0
 15 97  1  0  0  0
 16 17  2  0  0  0
 16 21  1  0  0  0
 16 31  1  0  0  0
 17 18  1  0  0  0
 17 98  1  0  0  0
 18 19  2  0  0  0
 18 99  1  0  0  0
 19 20  1  0  0  0
 19 24  1  0  0  0
 20 21  2  0  0  0
 20100  1  0  0  0
 21 23  1  0  0  0
 22 28  1  0  0  0
 22 32  2  0  0  0
 26 27  1  0  0  0
 28101  1  0  0  0
 28102  1  0  0  0
 29103  1  0  0  0
 29104  1  0  0  0
 33 34  1  0  0  0
 33 66  1  0  0  0
 33 70  2  0  0  0
 34 36  1  0  0  0
 34 59  1  0  0  0
 34105  1  0  0  0
 35 44  2  0  0  0
 35 45  1  0  0  0
 35 68  1  0  0  0
 36 56  1  0  0  0
 36106  1  0  0  0
 37 39  1  0  0  0
 37 47  1  0  0  0
 37 66  1  0  0  0
 37107  1  0  0  0
 38 43  2  0  0  0
 38 46  1  0  0  0
 38 47  1  0  0  0
 39 64  1  0  0  0
 39 67  2  0  0  0
 40 52  1  0  0  0
 40 53  2  0  0  0
 40 58  1  0  0  0
 41108  1  0  0  0
 41109  1  0  0  0
 41110  1  0  0  0
 41 48  1  0  0  0
 42 43  1  0  0  0
 42 66  1  0  0  0
 42111  1  0  0  0
 42112  1  0  0  0
 43 44  1  0  0  0
 44113  1  0  0  0
 45 46  2  0  0  0
 45114  1  0  0  0
 46115  1  0  0  0
 47116  1  0  0  0
 47117  1  0  0  0
 48 56  1  0  0  0
 48 65  1  0  0  0
 48118  1  0  0  0
 49 50  1  0  0  0
 49 53  1  0  0  0
 49 64  1  0  0  0
 49119  1  0  0  0
 50 51  1  0  0  0
 50120  1  0  0  0
 50121  1  0  0  0
 51 52  1  0  0  0
 51122  1  0  0  0
 51123  1  0  0  0
 52124  1  0  0  0
 52125  1  0  0  0
 53 54  1  0  0  0
 54 55  2  0  0  0
 54126  1  0  0  0
 55 57  1  0  0  0
 55127  1  0  0  0
 56 69  2  0  0  0
 57 58  2  0  0  0
 57128  1  0  0  0
 58129  1  0  0  0
 59 60  1  0  0  0
 59 61  1  0  0  0
 59 62  1  0  0  0
 60130  1  0  0  0
 60131  1  0  0  0
 60132  1  0  0  0
 61133  1  0  0  0
 61134  1  0  0  0
 61135  1  0  0  0
 62136  1  0  0  0
 62137  1  0  0  0
 62138  1  0  0  0
 63 65  1  0  0  0
 63139  1  0  0  0
 63140  1  0  0  0
 63141  1  0  0  0
 64142  1  0  0  0
 65143  1  0  0  0
 68 81  1  0  0  0
 71 72  2  0  0  0
 71 74  1  0  0  0
 71144  1  0  0  0
 72 76  1  0  0  0
 72145  1  0  0  0
 73 74  2  0  0  0
 73 75  1  0  0  0
 73146  1  0  0  0
 74 82  1  0  0  0
 75 76  2  0  0  0
 75 83  1  0  0  0
 76 84  1  0  0  0
 77 78  2  0  0  0
 77 80  1  0  0  0
 77147  1  0  0  0
 78 79  1  0  0  0
 78 81  1  0  0  0
 79148  1  0  0  0
 79149  1  0  0  0
 79150  1  0  0  0
 80 84  1  0  0  0
 80151  1  0  0  0
 80152  1  0  0  0
 81153  1  0  0  0
 81154  1  0  0  0
 82155  1  0  0  0
 82156  1  0  0  0
 83157  1  0  0  0
M  ISO  4   1 100  68 101  81 101  83 100
M  END
> <chiral flag>
0

> <version>
0

> <s_m_source_file>
/data/baiqing/PycharmProjects/Reinvent-master-3.2/result/LINK_invent/BTK/process_docking_weight1_custom_product_contain_oxygen_bond_distance_aromatic_linkinvent_7_9_3/rearranged_h_0112.sdf

> <i_m_source_file_index>
64

> <r_mmod_Potential_Energy-OPLS-2005>
469.34912109375

> <r_mmod_Stretch_Energy-OPLS-2005>
214.117111206055

> <r_mmod_Bend_Energy-OPLS-2005>
278.207702636719

> <r_mmod_Torsional_Energy-OPLS-2005>
279.687408447266

> <r_mmod_Improper_Torsional_Energy-OPLS-2005>
10.1722688674927

> <r_mmod_Van_der_Waal_Energy-OPLS-2005>
159.098922729492

> <r_mmod_Electrostatic_Energy-OPLS-2005>
-390.889343261719

> <r_mmod_Solvation_Energy-OPLS-2005>
-221.798629760742

> <b_mmod_Minimization_Converged-OPLS-2005>
0

> <r_mmod_RMS_Derivative-OPLS-2005>
3.05364274978638

$$$$
65
                    3D
 Structure written by MMmdl.
169178  0  0  1  0            999 V2000
  -30.6021  -14.6853   20.6609 C   0  0  0  0  0  0
  -30.4669  -12.5043   19.4831 C   0  0  0  0  0  0
  -29.5104  -12.5665   18.2682 C   0  0  0  0  0  0
  -28.0339  -12.4268   18.6743 C   0  0  0  0  0  0
  -27.6729  -13.2425   19.9229 C   0  0  2  0  0  0
  -28.7207  -12.9670   21.0103 C   0  0  0  0  0  0
  -25.2694  -13.8250   20.5313 C   0  0  0  0  0  0
  -24.1990  -13.0665   20.9129 C   0  0  0  0  0  0
  -24.6426  -11.7006   20.8639 C   0  0  0  0  0  0
  -23.9173  -10.4272   20.9984 C   0  0  0  0  0  0
  -24.4079   -9.3850   21.8282 C   0  0  0  0  0  0
  -23.6483   -8.2047   22.0259 C   0  0  0  0  0  0
  -22.4303   -8.0277   21.3400 C   0  0  0  0  0  0
  -21.9620   -9.0411   20.4940 C   0  0  0  0  0  0
  -22.6814  -10.2401   20.3448 C   0  0  0  0  0  0
  -21.6861   -6.0882   22.5132 C   0  0  0  0  0  0
  -21.4101   -6.5805   23.8111 C   0  0  0  0  0  0
  -21.3602   -5.6862   24.9037 C   0  0  0  0  0  0
  -21.6048   -4.3158   24.7021 C   0  0  0  0  0  0
  -21.8914   -3.8304   23.4106 C   0  0  0  0  0  0
  -21.9189   -4.7136   22.3221 C   0  0  0  0  0  0
  -22.8058  -13.5511   21.2065 C   0  0  0  0  0  0
  -22.1758   -4.2440   21.0762 F   0  0  0  0  0  0
  -21.5503   -3.4550   25.7459 F   0  0  0  0  0  0
  -29.9817  -13.4733   20.5006 N   0  0  0  0  0  0
  -26.3224  -12.9446   20.3626 N   0  0  0  0  0  0
  -25.9440  -11.6595   20.5931 N   0  0  0  0  0  0
  -22.1067  -12.8619   22.0976 N   0  0  0  0  0  0
  -25.4502  -15.1796   20.2906 N   0  0  0  0  0  0
  -31.7405  -14.8022   20.1901 O   0  0  0  0  0  0
  -21.6666   -6.8890   21.4029 O   0  0  0  0  0  0
  -22.3241  -14.5650   20.7005 O   0  0  0  0  0  0
  -24.6269  -31.8601   23.2029 C   0  0  0  0  0  0
  -25.9154  -32.4747   23.8340 C   0  0  1  0  0  0
  -27.1387  -27.2955   20.1271 C   0  0  0  0  0  0
  -25.5974  -33.8546   24.2269 N   0  0  0  0  0  0
  -23.4175  -30.4927   21.5402 C   0  0  2  0  0  0
  -24.8474  -28.9624   20.0888 C   0  0  0  0  0  0
  -22.7481  -29.4637   22.4859 C   0  0  0  0  0  0
  -18.0301  -28.1397   22.8462 C   0  0  0  0  0  0
  -24.1501  -36.7274   23.2635 C   0  0  0  0  0  0
  -25.9603  -30.7812   21.3796 C   0  0  0  0  0  0
  -26.0218  -29.4186   20.7130 C   0  0  0  0  0  0
  -27.1889  -28.5926   20.7189 C   0  0  0  0  0  0
  -25.9779  -26.9131   19.4349 C   0  0  0  0  0  0
  -24.8326  -27.7219   19.4351 C   0  0  0  0  0  0
  -23.6253  -29.8467   20.1474 C   0  0  0  0  0  0
  -25.4126  -36.3065   24.0325 C   0  0  1  0  0  0
  -20.5888  -28.3709   23.1257 C   0  0  2  0  0  0
  -20.6790  -26.9449   22.5402 C   0  0  0  0  0  0
  -19.5768  -26.6401   21.5192 C   0  0  0  0  0  0
  -18.1941  -26.7935   22.1610 C   0  0  0  0  0  0
  -19.1550  -28.8867   23.2844 C   0  0  0  0  0  0
  -18.9477  -30.1448   23.8893 C   0  0  0  0  0  0
  -17.6481  -30.6594   24.0564 C   0  0  0  0  0  0
  -25.9084  -34.9436   23.5099 C   0  0  0  0  0  0
  -16.5365  -29.9107   23.6330 C   0  0  0  0  0  0
  -16.7283  -28.6522   23.0345 C   0  0  0  0  0  0
  -26.4531  -31.6544   25.0715 C   0  0  0  0  0  0
  -25.3775  -31.3675   26.1454 C   0  0  0  0  0  0
  -27.0355  -30.2948   24.6190 C   0  0  0  0  0  0
  -27.6093  -32.4267   25.7489 C   0  0  0  0  0  0
  -27.5589  -37.1795   24.8482 C   0  0  0  0  0  0
  -21.4176  -29.3060   22.3639 N   0  0  0  0  0  0
  -26.4317  -37.3762   23.9410 N   0  0  0  0  0  0
  -24.6875  -31.0628   22.0931 N   0  0  0  0  0  0
  -23.4226  -28.8193   23.2955 O   0  0  0  0  0  0
  -28.1117  -26.3073   20.2742 O   0  0  0  0  0  0
  -26.5644  -34.8916   22.4658 O   0  0  0  0  0  0
  -23.5460  -32.1411   23.7361 O   0  0  0  0  0  0
  -28.5802  -17.9023   21.4796 C   0  0  0  0  0  0
  -26.4352  -17.7710   22.6065 C   0  0  0  0  0  0
  -27.8349  -15.7970   22.4113 C   0  0  0  0  0  0
  -27.4147  -18.5942   22.0042 C   0  0  0  0  0  0
  -28.7861  -16.4742   21.6193 C   0  0  0  0  0  0
  -26.6613  -16.4172   22.8617 C   0  0  0  0  0  0
  -27.6498  -23.6428   20.7548 C   0  0  0  0  0  0
  -27.2745  -22.6065   21.6085 C   0  0  0  0  0  0
  -27.9672  -23.2676   19.3654 C   0  0  0  0  0  0
  -23.2884  -15.7038   25.5004 C   0  0  0  0  0  0
  -24.5390  -15.2245   25.5520 C   0  0  0  0  0  0
  -27.2226  -20.1143   22.2224 C   0  0  0  0  0  0
  -27.4603  -21.8976   18.9214 C   0  0  0  0  0  0
  -27.8152  -20.8015   19.9424 C   0  0  0  0  0  0
  -26.5456  -22.9751   22.9115 C   0  0  0  0  0  0
  -27.6213  -25.1824   21.1348 C   0  0  0  0  0  0
  -25.7612  -15.8752   24.9415 C   0  0  0  0  0  0
  -27.3988  -21.1590   21.3049 N   0  0  0  0  0  0
  -30.0546  -15.8528   21.1758 N   0  0  0  0  0  0
  -28.5519  -23.9803   18.5517 O   0  0  0  0  0  0
  -26.8468  -20.3437   23.3779 O   0  0  0  0  0  0
  -25.7535  -15.6600   23.5473 O   0  0  0  0  0  0
  -31.4953  -12.7025   19.1524 H   0  0  0  0  0  0
  -30.5141  -11.5035   19.9078 H   0  0  0  0  0  0
  -29.7626  -11.8136   17.5345 H   0  0  0  0  0  0
  -29.6324  -13.5350   17.7876 H   0  0  0  0  0  0
  -27.8521  -11.3815   18.8941 H   0  0  0  0  0  0
  -27.3535  -12.6757   17.8620 H   0  0  0  0  0  0
  -27.7337  -14.2994   19.6549 H   0  0  0  0  0  0
  -28.7977  -11.8915   21.1309 H   0  0  0  0  0  0
  -28.5196  -13.2433   22.0244 H   0  0  0  0  0  0
  -25.3616   -9.5045   22.3209 H   0  0  0  0  0  0
  -24.0313   -7.4215   22.6548 H   0  0  0  0  0  0
  -21.0407   -8.8720   19.9589 H   0  0  0  0  0  0
  -22.2781  -11.0075   19.7064 H   0  0  0  0  0  0
  -21.2362   -7.6425   23.9686 H   0  0  0  0  0  0
  -21.1339   -6.0624   25.8882 H   0  0  0  0  0  0
  -22.0863   -2.7838   23.2387 H   0  0  0  0  0  0
  -22.5099  -12.1178   22.6536 H   0  0  0  0  0  0
  -21.1441  -13.1101   22.2759 H   0  0  0  0  0  0
  -24.7248  -15.8703   20.3774 H   0  0  0  0  0  0
  -26.3311  -15.5926   19.9999 H   0  0  0  0  0  0
  -26.7207  -32.5385   23.1070 H   0  0  0  0  0  0
  -25.0118  -33.9680   25.0415 H   0  0  0  0  0  0
  -22.7111  -31.3140   21.4123 H   0  0  0  0  0  0
  -23.3776  -35.9604   23.3300 H   0  0  0  0  0  0
  -24.3605  -36.8888   22.2059 H   0  0  0  0  0  0
  -23.7256  -37.6475   23.6651 H   0  0  0  0  0  0
  -26.1162  -31.5519   20.6246 H   0  0  0  0  0  0
  -26.8347  -30.8105   22.0159 H   0  0  0  0  0  0
  -28.0766  -28.9001   21.2533 H   0  0  0  0  0  0
  -25.9293  -25.9402   18.9575 H   0  0  0  0  0  0
  -23.9459  -27.3771   18.9214 H   0  0  0  0  0  0
  -23.7413  -30.6336   19.3991 H   0  0  0  0  0  0
  -22.7414  -29.2816   19.8411 H   0  0  0  0  0  0
  -25.1307  -36.1915   25.0824 H   0  0  0  0  0  0
  -20.9978  -28.3317   24.1361 H   0  0  0  0  0  0
  -20.5682  -26.2336   23.3592 H   0  0  0  0  0  0
  -21.6661  -26.7476   22.1192 H   0  0  0  0  0  0
  -19.6957  -25.6305   21.1214 H   0  0  0  0  0  0
  -19.6709  -27.3210   20.6701 H   0  0  0  0  0  0
  -17.4210  -26.6629   21.4023 H   0  0  0  0  0  0
  -18.0401  -26.0077   22.9014 H   0  0  0  0  0  0
  -19.7949  -30.7244   24.2291 H   0  0  0  0  0  0
  -17.5050  -31.6276   24.5175 H   0  0  0  0  0  0
  -15.5373  -30.3032   23.7655 H   0  0  0  0  0  0
  -15.8646  -28.0841   22.7080 H   0  0  0  0  0  0
  -24.5965  -30.6995   25.7785 H   0  0  0  0  0  0
  -24.8964  -32.2842   26.4889 H   0  0  0  0  0  0
  -25.8143  -30.8852   27.0222 H   0  0  0  0  0  0
  -26.2914  -29.6696   24.1235 H   0  0  0  0  0  0
  -27.4051  -29.7200   25.4701 H   0  0  0  0  0  0
  -27.8811  -30.4188   23.9413 H   0  0  0  0  0  0
  -27.2711  -33.3566   26.2083 H   0  0  0  0  0  0
  -28.3922  -32.6831   25.0326 H   0  0  0  0  0  0
  -28.0764  -31.8382   26.5403 H   0  0  0  0  0  0
  -28.2626  -38.0068   24.7517 H   0  0  0  0  0  0
  -28.1065  -36.2612   24.6328 H   0  0  0  0  0  0
  -27.2316  -37.1470   25.8886 H   0  0  0  0  0  0
  -20.9362  -29.8787   21.6826 H   0  0  0  0  0  0
  -26.0192  -38.2849   24.1369 H   0  0  0  0  0  0
  -29.3778  -18.4920   21.0458 H   0  0  0  0  0  0
  -25.5452  -18.2277   23.0216 H   0  0  0  0  0  0
  -27.9871  -14.8333   22.8351 H   0  0  0  0  0  0
  -22.4730  -15.1683   25.9702 H   0  0  0  0  0  0
  -23.0415  -16.6319   25.0014 H   0  0  0  0  0  0
  -24.6989  -14.3036   26.0641 H   0  0  0  0  0  0
  -27.8754  -21.6377   17.9480 H   0  0  0  0  0  0
  -26.3795  -21.9532   18.7815 H   0  0  0  0  0  0
  -28.8876  -20.6140   19.9622 H   0  0  0  0  0  0
  -27.3491  -19.8559   19.6521 H   0  0  0  0  0  0
  -26.3971  -24.0342   23.0536 H   0  0  0  0  0  0
  -27.0277  -22.6252   23.8194 H   0  0  0  0  0  0
  -25.5406  -22.5536   22.8973 H   0  0  0  0  0  0
  -28.1810  -25.2571   22.0689 H   0  0  0  0  0  0
  -26.5829  -25.3688   21.4135 H   0  0  0  0  0  0
  -26.6830  -15.4638   25.3759 H   0  0  0  0  0  0
  -25.7562  -16.9282   25.2057 H   0  0  0  0  0  0
  -30.7716  -16.5511   21.0687 H   0  0  0  0  0  0
  1 25  1  0  0  0
  1 30  2  0  0  0
  1 89  1  0  0  0
  2  3  1  0  0  0
  2 25  1  0  0  0
  2 93  1  0  0  0
  2 94  1  0  0  0
  3  4  1  0  0  0
  3 95  1  0  0  0
  3 96  1  0  0  0
  4  5  1  0  0  0
  4 97  1  0  0  0
  4 98  1  0  0  0
  5  6  1  0  0  0
  5 26  1  0  0  0
  5 99  1  0  0  0
  6 25  1  0  0  0
  6100  1  0  0  0
  6101  1  0  0  0
  7  8  2  0  0  0
  7 26  1  0  0  0
  7 29  1  0  0  0
  8  9  1  0  0  0
  8 22  1  0  0  0
  9 10  1  0  0  0
  9 27  2  0  0  0
 10 11  2  0  0  0
 10 15  1  0  0  0
 11 12  1  0  0  0
 11102  1  0  0  0
 12 13  2  0  0  0
 12103  1  0  0  0
 13 14  1  0  0  0
 13 31  1  0  0  0
 14 15  2  0  0  0
 14104  1  0  0  0
 15105  1  0  0  0
 16 17  2  0  0  0
 16 21  1  0  0  0
 16 31  1  0  0  0
 17 18  1  0  0  0
 17106  1  0  0  0
 18 19  2  0  0  0
 18107  1  0  0  0
 19 20  1  0  0  0
 19 24  1  0  0  0
 20 21  2  0  0  0
 20108  1  0  0  0
 21 23  1  0  0  0
 22 28  1  0  0  0
 22 32  2  0  0  0
 26 27  1  0  0  0
 28109  1  0  0  0
 28110  1  0  0  0
 29111  1  0  0  0
 29112  1  0  0  0
 33 34  1  0  0  0
 33 66  1  0  0  0
 33 70  2  0  0  0
 34 36  1  0  0  0
 34 59  1  0  0  0
 34113  1  0  0  0
 35 44  2  0  0  0
 35 45  1  0  0  0
 35 68  1  0  0  0
 36 56  1  0  0  0
 36114  1  0  0  0
 37 39  1  0  0  0
 37 47  1  0  0  0
 37 66  1  0  0  0
 37115  1  0  0  0
 38 43  2  0  0  0
 38 46  1  0  0  0
 38 47  1  0  0  0
 39 64  1  0  0  0
 39 67  2  0  0  0
 40 52  1  0  0  0
 40 53  2  0  0  0
 40 58  1  0  0  0
 41116  1  0  0  0
 41117  1  0  0  0
 41118  1  0  0  0
 41 48  1  0  0  0
 42 43  1  0  0  0
 42 66  1  0  0  0
 42119  1  0  0  0
 42120  1  0  0  0
 43 44  1  0  0  0
 44121  1  0  0  0
 45 46  2  0  0  0
 45122  1  0  0  0
 46123  1  0  0  0
 47124  1  0  0  0
 47125  1  0  0  0
 48 56  1  0  0  0
 48 65  1  0  0  0
 48126  1  0  0  0
 49 50  1  0  0  0
 49 53  1  0  0  0
 49 64  1  0  0  0
 49127  1  0  0  0
 50 51  1  0  0  0
 50128  1  0  0  0
 50129  1  0  0  0
 51 52  1  0  0  0
 51130  1  0  0  0
 51131  1  0  0  0
 52132  1  0  0  0
 52133  1  0  0  0
 53 54  1  0  0  0
 54 55  2  0  0  0
 54134  1  0  0  0
 55 57  1  0  0  0
 55135  1  0  0  0
 56 69  2  0  0  0
 57 58  2  0  0  0
 57136  1  0  0  0
 58137  1  0  0  0
 59 60  1  0  0  0
 59 61  1  0  0  0
 59 62  1  0  0  0
 60138  1  0  0  0
 60139  1  0  0  0
 60140  1  0  0  0
 61141  1  0  0  0
 61142  1  0  0  0
 61143  1  0  0  0
 62144  1  0  0  0
 62145  1  0  0  0
 62146  1  0  0  0
 63 65  1  0  0  0
 63147  1  0  0  0
 63148  1  0  0  0
 63149  1  0  0  0
 64150  1  0  0  0
 65151  1  0  0  0
 68 86  1  0  0  0
 71 74  2  0  0  0
 71 75  1  0  0  0
 71152  1  0  0  0
 72 74  1  0  0  0
 72 76  2  0  0  0
 72153  1  0  0  0
 73 75  2  0  0  0
 73 76  1  0  0  0
 73154  1  0  0  0
 74 82  1  0  0  0
 75 89  1  0  0  0
 76 92  1  0  0  0
 77 78  2  0  0  0
 77 79  1  0  0  0
 77 86  1  0  0  0
 78 85  1  0  0  0
 78 88  1  0  0  0
 79 83  1  0  0  0
 79 90  2  0  0  0
 80 81  2  0  0  0
 80155  1  0  0  0
 80156  1  0  0  0
 81 87  1  0  0  0
 81157  1  0  0  0
 82 88  1  0  0  0
 82 91  2  0  0  0
 83 84  1  0  0  0
 83158  1  0  0  0
 83159  1  0  0  0
 84 88  1  0  0  0
 84160  1  0  0  0
 84161  1  0  0  0
 85162  1  0  0  0
 85163  1  0  0  0
 85164  1  0  0  0
 86165  1  0  0  0
 86166  1  0  0  0
 87 92  1  0  0  0
 87167  1  0  0  0
 87168  1  0  0  0
 89169  1  0  0  0
M  ISO  4   1 100  68 101  86 101  89 100
M  END
> <chiral flag>
0

> <version>
0

> <s_m_source_file>
/data/baiqing/PycharmProjects/Reinvent-master-3.2/result/LINK_invent/BTK/process_docking_weight1_custom_product_contain_oxygen_bond_distance_aromatic_linkinvent_7_9_3/rearranged_h_0112.sdf

> <i_m_source_file_index>
65

> <r_mmod_Potential_Energy-OPLS-2005>
486.777038574219

> <r_mmod_Stretch_Energy-OPLS-2005>
122.884422302246

> <r_mmod_Bend_Energy-OPLS-2005>
285.551727294922

> <r_mmod_Torsional_Energy-OPLS-2005>
311.384063720703

> <r_mmod_Improper_Torsional_Energy-OPLS-2005>
7.85967397689819

> <r_mmod_Van_der_Waal_Energy-OPLS-2005>
191.628219604492

> <r_mmod_Electrostatic_Energy-OPLS-2005>
-301.735626220703

> <r_mmod_Solvation_Energy-OPLS-2005>
-225.998809814453

> <b_mmod_Minimization_Converged-OPLS-2005>
0

> <r_mmod_RMS_Derivative-OPLS-2005>
20.474271774292

$$$$
66
                    3D
 Structure written by MMmdl.
164173  0  0  1  0            999 V2000
  -30.6022  -14.7287   20.4649 C   0  0  0  0  0  0
  -30.4361  -12.4430   19.4843 C   0  0  0  0  0  0
  -29.5172  -12.5194   18.2435 C   0  0  0  0  0  0
  -28.0411  -12.3463   18.6474 C   0  0  0  0  0  0
  -27.6511  -13.2294   19.8635 C   0  0  2  0  0  0
  -28.6902  -13.1365   21.0031 C   0  0  0  0  0  0
  -25.2549  -13.8201   20.5683 C   0  0  0  0  0  0
  -24.1809  -13.0460   20.9162 C   0  0  0  0  0  0
  -24.6393  -11.6931   20.8706 C   0  0  0  0  0  0
  -23.9061  -10.4308   21.0387 C   0  0  0  0  0  0
  -24.3610   -9.4235   21.9179 C   0  0  0  0  0  0
  -23.6295   -8.2255   22.0745 C   0  0  0  0  0  0
  -22.4262   -8.0300   21.3553 C   0  0  0  0  0  0
  -21.9895   -9.0269   20.4644 C   0  0  0  0  0  0
  -22.7221  -10.2151   20.3061 C   0  0  0  0  0  0
  -21.6856   -6.0741   22.5267 C   0  0  0  0  0  0
  -21.4021   -6.5636   23.8211 C   0  0  0  0  0  0
  -21.3663   -5.6784   24.9166 C   0  0  0  0  0  0
  -21.6042   -4.3045   24.7208 C   0  0  0  0  0  0
  -21.8827   -3.8153   23.4320 C   0  0  0  0  0  0
  -21.9191   -4.6968   22.3384 C   0  0  0  0  0  0
  -22.7834  -13.5252   21.1841 C   0  0  0  0  0  0
  -22.1654   -4.2163   21.0960 F   0  0  0  0  0  0
  -21.5639   -3.4530   25.7716 F   0  0  0  0  0  0
  -29.9998  -13.4914   20.4377 N   0  0  0  0  0  0
  -26.2978  -12.9395   20.3309 N   0  0  0  0  0  0
  -25.9332  -11.6546   20.5737 N   0  0  0  0  0  0
  -22.0467  -12.8258   22.0392 N   0  0  0  0  0  0
  -25.4340  -15.1909   20.4132 N   0  0  0  0  0  0
  -31.7610  -14.8583   20.0557 O   0  0  0  0  0  0
  -21.6641   -6.8876   21.4233 O   0  0  0  0  0  0
  -22.3525  -14.5587   20.6724 O   0  0  0  0  0  0
  -24.6350  -31.8542   23.2005 C   0  0  0  0  0  0
  -25.9175  -32.4725   23.8342 C   0  0  1  0  0  0
  -27.1907  -27.2300   20.1149 C   0  0  0  0  0  0
  -25.5992  -33.8541   24.2269 N   0  0  0  0  0  0
  -23.4288  -30.4822   21.5473 C   0  0  2  0  0  0
  -24.8695  -28.9366   20.1050 C   0  0  0  0  0  0
  -22.7518  -29.4592   22.4912 C   0  0  0  0  0  0
  -18.0292  -28.1374   22.8472 C   0  0  0  0  0  0
  -24.1496  -36.7253   23.2628 C   0  0  0  0  0  0
  -25.9795  -30.7536   21.3874 C   0  0  0  0  0  0
  -26.0457  -29.3766   20.7257 C   0  0  0  0  0  0
  -27.2092  -28.5345   20.7273 C   0  0  0  0  0  0
  -25.9957  -26.8859   19.4393 C   0  0  0  0  0  0
  -24.8519  -27.6995   19.4520 C   0  0  0  0  0  0
  -23.6452  -29.8283   20.1594 C   0  0  0  0  0  0
  -25.4120  -36.3050   24.0316 C   0  0  1  0  0  0
  -20.5901  -28.3692   23.1249 C   0  0  2  0  0  0
  -20.6782  -26.9407   22.5392 C   0  0  0  0  0  0
  -19.5754  -26.6372   21.5196 C   0  0  0  0  0  0
  -18.1935  -26.7911   22.1612 C   0  0  0  0  0  0
  -19.1550  -28.8846   23.2852 C   0  0  0  0  0  0
  -18.9463  -30.1449   23.8872 C   0  0  0  0  0  0
  -17.6463  -30.6578   24.0545 C   0  0  0  0  0  0
  -25.9073  -34.9419   23.5082 C   0  0  0  0  0  0
  -16.5351  -29.9067   23.6331 C   0  0  0  0  0  0
  -16.7279  -28.6484   23.0350 C   0  0  0  0  0  0
  -26.4548  -31.6549   25.0735 C   0  0  0  0  0  0
  -25.3762  -31.3729   26.1458 C   0  0  0  0  0  0
  -27.0361  -30.2934   24.6240 C   0  0  0  0  0  0
  -27.6102  -32.4286   25.7507 C   0  0  0  0  0  0
  -27.5583  -37.1784   24.8465 C   0  0  0  0  0  0
  -21.4219  -29.3047   22.3654 N   0  0  0  0  0  0
  -26.4290  -37.3750   23.9414 N   0  0  0  0  0  0
  -24.7005  -31.0486   22.0999 N   0  0  0  0  0  0
  -23.4209  -28.8093   23.2988 O   0  0  0  0  0  0
  -28.2413  -26.2734   20.1885 O   0  0  0  0  0  0
  -26.5635  -34.8903   22.4654 O   0  0  0  0  0  0
  -23.5498  -32.1402   23.7269 O   0  0  0  0  0  0
  -29.5802  -18.4498   20.7280 C   0  0  0  0  0  0
  -28.9027  -19.4531   18.6253 C   0  0  0  0  0  0
  -29.3204  -17.0376   18.7638 C   0  0  0  0  0  0
  -29.2228  -19.6626   19.9897 C   0  0  0  0  0  0
  -29.6432  -17.1187   20.1344 C   0  0  0  0  0  0
  -28.9303  -18.1693   18.0194 C   0  0  0  0  0  0
  -28.7839  -23.5350   20.2727 C   0  0  0  0  0  0
  -28.4251  -22.1863   20.0977 C   0  0  0  0  0  0
  -30.1069  -23.7966   20.8917 C   0  0  0  0  0  0
  -26.6767  -22.2419   18.3292 C   0  0  0  0  0  0
  -27.1121  -21.8807   19.5462 C   0  0  0  0  0  0
  -31.0402  -22.6047   21.1368 C   0  0  0  0  0  0
  -30.2897  -21.3007   21.4652 C   0  0  0  0  0  0
  -27.7950  -18.9165   16.0427 C   0  0  0  0  0  0
  -27.8980  -24.8233   19.8850 C   0  0  0  0  0  0
  -29.2245  -21.0411   20.4967 N   0  0  0  0  0  0
  -29.8597  -15.8349   20.8499 N   0  0  0  0  0  0
  -30.5125  -24.9211   21.1996 O   0  0  0  0  0  0
  -28.5867  -17.9373   16.7037 O   0  0  0  0  0  0
  -31.4802  -12.5598   19.1880 H   0  0  0  0  0  0
  -30.3707  -11.4587   19.9514 H   0  0  0  0  0  0
  -29.7977  -11.7562   17.5163 H   0  0  0  0  0  0
  -29.6507  -13.4795   17.7426 H   0  0  0  0  0  0
  -27.8802  -11.2933   18.8847 H   0  0  0  0  0  0
  -27.3941  -12.5725   17.7996 H   0  0  0  0  0  0
  -27.6573  -14.2586   19.5040 H   0  0  0  0  0  0
  -28.7164  -12.1278   21.4180 H   0  0  0  0  0  0
  -28.4214  -13.7959   21.8316 H   0  0  0  0  0  0
  -25.2759   -9.5726   22.4750 H   0  0  0  0  0  0
  -24.0016   -7.4637   22.7460 H   0  0  0  0  0  0
  -21.0831   -8.8796   19.8931 H   0  0  0  0  0  0
  -22.3679  -10.9694   19.6174 H   0  0  0  0  0  0
  -21.2018   -7.6145   23.9713 H   0  0  0  0  0  0
  -21.1477   -6.0513   25.9070 H   0  0  0  0  0  0
  -22.0603   -2.7612   23.2822 H   0  0  0  0  0  0
  -22.4050  -11.9912   22.4794 H   0  0  0  0  0  0
  -21.1108  -13.1342   22.2615 H   0  0  0  0  0  0
  -24.6888  -15.8650   20.5453 H   0  0  0  0  0  0
  -26.3045  -15.6159   20.1205 H   0  0  0  0  0  0
  -26.7218  -32.5350   23.1056 H   0  0  0  0  0  0
  -25.0213  -33.9685   25.0466 H   0  0  0  0  0  0
  -22.7250  -31.3050   21.4085 H   0  0  0  0  0  0
  -23.3759  -35.9579   23.3273 H   0  0  0  0  0  0
  -24.3600  -36.8896   22.2048 H   0  0  0  0  0  0
  -23.7255  -37.6447   23.6674 H   0  0  0  0  0  0
  -26.1301  -31.5115   20.6171 H   0  0  0  0  0  0
  -26.8528  -30.7970   22.0252 H   0  0  0  0  0  0
  -28.1031  -28.8603   21.2410 H   0  0  0  0  0  0
  -25.8943  -25.9560   18.9012 H   0  0  0  0  0  0
  -23.9561  -27.3655   18.9476 H   0  0  0  0  0  0
  -23.7745  -30.6101   19.4101 H   0  0  0  0  0  0
  -22.7581  -29.2718   19.8507 H   0  0  0  0  0  0
  -25.1290  -36.1884   25.0799 H   0  0  0  0  0  0
  -20.9983  -28.3270   24.1369 H   0  0  0  0  0  0
  -20.5664  -26.2302   23.3590 H   0  0  0  0  0  0
  -21.6651  -26.7422   22.1197 H   0  0  0  0  0  0
  -19.6916  -25.6275   21.1243 H   0  0  0  0  0  0
  -19.6676  -27.3160   20.6697 H   0  0  0  0  0  0
  -17.4197  -26.6635   21.4022 H   0  0  0  0  0  0
  -18.0344  -26.0057   22.9009 H   0  0  0  0  0  0
  -19.7939  -30.7279   24.2217 H   0  0  0  0  0  0
  -17.5016  -31.6263   24.5140 H   0  0  0  0  0  0
  -15.5349  -30.2957   23.7667 H   0  0  0  0  0  0
  -15.8678  -28.0795   22.7079 H   0  0  0  0  0  0
  -24.5919  -30.7089   25.7823 H   0  0  0  0  0  0
  -24.8980  -32.2909   26.4877 H   0  0  0  0  0  0
  -25.8081  -30.8923   27.0244 H   0  0  0  0  0  0
  -26.2937  -29.6696   24.1247 H   0  0  0  0  0  0
  -27.3999  -29.7195   25.4779 H   0  0  0  0  0  0
  -27.8858  -30.4172   23.9513 H   0  0  0  0  0  0
  -27.2718  -33.3601   26.2065 H   0  0  0  0  0  0
  -28.3932  -32.6818   25.0341 H   0  0  0  0  0  0
  -28.0747  -31.8414   26.5444 H   0  0  0  0  0  0
  -28.2576  -38.0104   24.7535 H   0  0  0  0  0  0
  -28.1097  -36.2638   24.6241 H   0  0  0  0  0  0
  -27.2312  -37.1380   25.8870 H   0  0  0  0  0  0
  -20.9393  -29.8804   21.6897 H   0  0  0  0  0  0
  -26.0148  -38.2813   24.1417 H   0  0  0  0  0  0
  -29.8032  -18.5369   21.7819 H   0  0  0  0  0  0
  -28.6518  -20.3119   18.0226 H   0  0  0  0  0  0
  -29.3132  -16.0764   18.2698 H   0  0  0  0  0  0
  -25.6830  -21.9657   18.0032 H   0  0  0  0  0  0
  -27.2913  -22.8024   17.6383 H   0  0  0  0  0  0
  -26.4351  -21.3114   20.1714 H   0  0  0  0  0  0
  -31.7316  -22.8477   21.9441 H   0  0  0  0  0  0
  -31.6374  -22.4615   20.2363 H   0  0  0  0  0  0
  -29.8519  -21.3608   22.4638 H   0  0  0  0  0  0
  -31.0195  -20.4908   21.4926 H   0  0  0  0  0  0
  -27.3859  -18.4886   15.1272 H   0  0  0  0  0  0
  -28.3839  -19.7911   15.7642 H   0  0  0  0  0  0
  -26.9509  -19.2324   16.6575 H   0  0  0  0  0  0
  -26.9254  -24.6126   20.3319 H   0  0  0  0  0  0
  -27.7723  -24.7701   18.8027 H   0  0  0  0  0  0
  -29.1008  -15.5918   21.4692 H   0  0  0  0  0  0
  1 25  1  0  0  0
  1 30  2  0  0  0
  1 87  1  0  0  0
  2  3  1  0  0  0
  2 25  1  0  0  0
  2 90  1  0  0  0
  2 91  1  0  0  0
  3  4  1  0  0  0
  3 92  1  0  0  0
  3 93  1  0  0  0
  4  5  1  0  0  0
  4 94  1  0  0  0
  4 95  1  0  0  0
  5  6  1  0  0  0
  5 26  1  0  0  0
  5 96  1  0  0  0
  6 25  1  0  0  0
  6 97  1  0  0  0
  6 98  1  0  0  0
  7  8  2  0  0  0
  7 26  1  0  0  0
  7 29  1  0  0  0
  8  9  1  0  0  0
  8 22  1  0  0  0
  9 10  1  0  0  0
  9 27  2  0  0  0
 10 11  2  0  0  0
 10 15  1  0  0  0
 11 12  1  0  0  0
 11 99  1  0  0  0
 12 13  2  0  0  0
 12100  1  0  0  0
 13 14  1  0  0  0
 13 31  1  0  0  0
 14 15  2  0  0  0
 14101  1  0  0  0
 15102  1  0  0  0
 16 17  2  0  0  0
 16 21  1  0  0  0
 16 31  1  0  0  0
 17 18  1  0  0  0
 17103  1  0  0  0
 18 19  2  0  0  0
 18104  1  0  0  0
 19 20  1  0  0  0
 19 24  1  0  0  0
 20 21  2  0  0  0
 20105  1  0  0  0
 21 23  1  0  0  0
 22 28  1  0  0  0
 22 32  2  0  0  0
 26 27  1  0  0  0
 28106  1  0  0  0
 28107  1  0  0  0
 29108  1  0  0  0
 29109  1  0  0  0
 33 34  1  0  0  0
 33 66  1  0  0  0
 33 70  2  0  0  0
 34 36  1  0  0  0
 34 59  1  0  0  0
 34110  1  0  0  0
 35 44  2  0  0  0
 35 45  1  0  0  0
 35 68  1  0  0  0
 36 56  1  0  0  0
 36111  1  0  0  0
 37 39  1  0  0  0
 37 47  1  0  0  0
 37 66  1  0  0  0
 37112  1  0  0  0
 38 43  2  0  0  0
 38 46  1  0  0  0
 38 47  1  0  0  0
 39 64  1  0  0  0
 39 67  2  0  0  0
 40 52  1  0  0  0
 40 53  2  0  0  0
 40 58  1  0  0  0
 41113  1  0  0  0
 41114  1  0  0  0
 41115  1  0  0  0
 41 48  1  0  0  0
 42 43  1  0  0  0
 42 66  1  0  0  0
 42116  1  0  0  0
 42117  1  0  0  0
 43 44  1  0  0  0
 44118  1  0  0  0
 45 46  2  0  0  0
 45119  1  0  0  0
 46120  1  0  0  0
 47121  1  0  0  0
 47122  1  0  0  0
 48 56  1  0  0  0
 48 65  1  0  0  0
 48123  1  0  0  0
 49 50  1  0  0  0
 49 53  1  0  0  0
 49 64  1  0  0  0
 49124  1  0  0  0
 50 51  1  0  0  0
 50125  1  0  0  0
 50126  1  0  0  0
 51 52  1  0  0  0
 51127  1  0  0  0
 51128  1  0  0  0
 52129  1  0  0  0
 52130  1  0  0  0
 53 54  1  0  0  0
 54 55  2  0  0  0
 54131  1  0  0  0
 55 57  1  0  0  0
 55132  1  0  0  0
 56 69  2  0  0  0
 57 58  2  0  0  0
 57133  1  0  0  0
 58134  1  0  0  0
 59 60  1  0  0  0
 59 61  1  0  0  0
 59 62  1  0  0  0
 60135  1  0  0  0
 60136  1  0  0  0
 60137  1  0  0  0
 61138  1  0  0  0
 61139  1  0  0  0
 61140  1  0  0  0
 62141  1  0  0  0
 62142  1  0  0  0
 62143  1  0  0  0
 63 65  1  0  0  0
 63144  1  0  0  0
 63145  1  0  0  0
 63146  1  0  0  0
 64147  1  0  0  0
 65148  1  0  0  0
 68 85  1  0  0  0
 71 74  2  0  0  0
 71 75  1  0  0  0
 71149  1  0  0  0
 72 74  1  0  0  0
 72 76  2  0  0  0
 72150  1  0  0  0
 73 75  2  0  0  0
 73 76  1  0  0  0
 73151  1  0  0  0
 74 86  1  0  0  0
 75 87  1  0  0  0
 76 89  1  0  0  0
 77 78  2  0  0  0
 77 79  1  0  0  0
 77 85  1  0  0  0
 78 81  1  0  0  0
 78 86  1  0  0  0
 79 82  1  0  0  0
 79 88  2  0  0  0
 80 81  2  0  0  0
 80152  1  0  0  0
 80153  1  0  0  0
 81154  1  0  0  0
 82 83  1  0  0  0
 82155  1  0  0  0
 82156  1  0  0  0
 83 86  1  0  0  0
 83157  1  0  0  0
 83158  1  0  0  0
 84 89  1  0  0  0
 84159  1  0  0  0
 84160  1  0  0  0
 84161  1  0  0  0
 85162  1  0  0  0
 85163  1  0  0  0
 87164  1  0  0  0
M  ISO  4   1 100  68 101  85 101  87 100
M  END
> <chiral flag>
0

> <version>
0

> <s_m_source_file>
/data/baiqing/PycharmProjects/Reinvent-master-3.2/result/LINK_invent/BTK/process_docking_weight1_custom_product_contain_oxygen_bond_distance_aromatic_linkinvent_7_9_3/rearranged_h_0112.sdf

> <i_m_source_file_index>
66

> <r_mmod_Potential_Energy-OPLS-2005>
261.501251220703

> <r_mmod_Stretch_Energy-OPLS-2005>
141.938385009766

> <r_mmod_Bend_Energy-OPLS-2005>
177.597549438477

> <r_mmod_Torsional_Energy-OPLS-2005>
252.43522644043

> <r_mmod_Improper_Torsional_Energy-OPLS-2005>
5.41357326507568

> <r_mmod_Van_der_Waal_Energy-OPLS-2005>
162.106811523438

> <r_mmod_Electrostatic_Energy-OPLS-2005>
-334.462982177734

> <r_mmod_Solvation_Energy-OPLS-2005>
-239.110046386719

> <b_mmod_Minimization_Converged-OPLS-2005>
0

> <r_mmod_RMS_Derivative-OPLS-2005>
2.88737225532532

$$$$
67
                    3D
 Structure written by MMmdl.
160169  0  0  1  0            999 V2000
  -30.6528  -14.7436   20.4996 C   0  0  0  0  0  0
  -30.4345  -12.4754   19.4636 C   0  0  0  0  0  0
  -29.4967  -12.4965   18.2380 C   0  0  0  0  0  0
  -28.0346  -12.3137   18.6724 C   0  0  0  0  0  0
  -27.6450  -13.2328   19.8587 C   0  0  2  0  0  0
  -28.6938  -13.1746   20.9927 C   0  0  0  0  0  0
  -25.2518  -13.8257   20.5700 C   0  0  0  0  0  0
  -24.1807  -13.0512   20.9169 C   0  0  0  0  0  0
  -24.6396  -11.6971   20.8777 C   0  0  0  0  0  0
  -23.9080  -10.4345   21.0432 C   0  0  0  0  0  0
  -24.3642   -9.4257   21.9205 C   0  0  0  0  0  0
  -23.6326   -8.2287   22.0756 C   0  0  0  0  0  0
  -22.4311   -8.0313   21.3536 C   0  0  0  0  0  0
  -21.9946   -9.0295   20.4651 C   0  0  0  0  0  0
  -22.7259  -10.2184   20.3077 C   0  0  0  0  0  0
  -21.6887   -6.0747   22.5249 C   0  0  0  0  0  0
  -21.4020   -6.5642   23.8185 C   0  0  0  0  0  0
  -21.3664   -5.6784   24.9142 C   0  0  0  0  0  0
  -21.6072   -4.3053   24.7186 C   0  0  0  0  0  0
  -21.8836   -3.8149   23.4305 C   0  0  0  0  0  0
  -21.9205   -4.6970   22.3366 C   0  0  0  0  0  0
  -22.7820  -13.5261   21.1826 C   0  0  0  0  0  0
  -22.1677   -4.2158   21.0942 F   0  0  0  0  0  0
  -21.5653   -3.4541   25.7704 F   0  0  0  0  0  0
  -29.9942  -13.5347   20.4116 N   0  0  0  0  0  0
  -26.2957  -12.9465   20.3368 N   0  0  0  0  0  0
  -25.9339  -11.6602   20.5861 N   0  0  0  0  0  0
  -22.0461  -12.8247   22.0375 N   0  0  0  0  0  0
  -25.4230  -15.1992   20.4093 N   0  0  0  0  0  0
  -31.7951  -14.8255   20.0367 O   0  0  0  0  0  0
  -21.6691   -6.8895   21.4214 O   0  0  0  0  0  0
  -22.3495  -14.5555   20.6656 O   0  0  0  0  0  0
  -24.6234  -31.8604   23.2015 C   0  0  0  0  0  0
  -25.9029  -32.4823   23.8384 C   0  0  1  0  0  0
  -27.2439  -27.3157   20.1298 C   0  0  0  0  0  0
  -25.5827  -33.8628   24.2290 N   0  0  0  0  0  0
  -23.4262  -30.4723   21.5492 C   0  0  2  0  0  0
  -24.8770  -28.9306   20.1137 C   0  0  0  0  0  0
  -22.7509  -29.4563   22.5006 C   0  0  0  0  0  0
  -18.0242  -28.1331   22.8551 C   0  0  0  0  0  0
  -24.1445  -36.7314   23.2671 C   0  0  0  0  0  0
  -25.9620  -30.8008   21.3645 C   0  0  0  0  0  0
  -26.0427  -29.4193   20.7177 C   0  0  0  0  0  0
  -27.2254  -28.6221   20.7182 C   0  0  0  0  0  0
  -26.0598  -26.8925   19.4856 C   0  0  0  0  0  0
  -24.8911  -27.6729   19.4898 C   0  0  0  0  0  0
  -23.6362  -29.7974   20.1674 C   0  0  0  0  0  0
  -25.4083  -36.3141   24.0362 C   0  0  1  0  0  0
  -20.5851  -28.3599   23.1148 C   0  0  2  0  0  0
  -20.6715  -26.9283   22.5399 C   0  0  0  0  0  0
  -19.5540  -26.5927   21.5443 C   0  0  0  0  0  0
  -18.1821  -26.7705   22.1988 C   0  0  0  0  0  0
  -19.1532  -28.8824   23.2774 C   0  0  0  0  0  0
  -18.9534  -30.1469   23.8718 C   0  0  0  0  0  0
  -17.6560  -30.6621   24.0485 C   0  0  0  0  0  0
  -25.9021  -34.9493   23.5141 C   0  0  0  0  0  0
  -16.5418  -29.9130   23.6376 C   0  0  0  0  0  0
  -16.7233  -28.6499   23.0439 C   0  0  0  0  0  0
  -26.4417  -31.6616   25.0726 C   0  0  0  0  0  0
  -25.3666  -31.3698   26.1468 C   0  0  0  0  0  0
  -27.0244  -30.3064   24.6059 C   0  0  0  0  0  0
  -27.5957  -32.4391   25.7479 C   0  0  0  0  0  0
  -27.5573  -37.1805   24.8485 C   0  0  0  0  0  0
  -21.4235  -29.2919   22.3595 N   0  0  0  0  0  0
  -26.4289  -37.3818   23.9422 N   0  0  0  0  0  0
  -24.6927  -31.0570   22.0993 N   0  0  0  0  0  0
  -23.4198  -28.8183   23.3183 O   0  0  0  0  0  0
  -28.3803  -26.4916   20.2175 O   0  0  0  0  0  0
  -26.5629  -34.8958   22.4730 O   0  0  0  0  0  0
  -23.5382  -32.1436   23.7288 O   0  0  0  0  0  0
  -28.9389  -20.7749   21.6793 C   0  0  0  0  0  0
  -29.0680  -19.3286   21.8540 C   0  0  0  0  0  0
  -29.3138  -18.5885   20.6902 C   0  0  0  0  0  0
  -28.8651  -21.2203   20.3776 C   0  0  0  0  0  0
  -27.2788  -22.3284   19.1209 C   0  0  0  0  0  0
  -28.8237  -18.7807   23.1801 C   0  0  0  0  0  0
  -26.1014  -23.0947   19.7067 C   0  0  0  0  0  0
  -26.7244  -23.7242   20.9602 C   0  0  0  0  0  0
  -28.2140  -23.7824   20.5941 C   0  0  2  0  0  0
  -30.8021  -16.3351   22.2743 C   0  0  0  0  0  0
  -29.4347  -17.0370   20.2897 C   0  0  0  0  0  0
  -28.4624  -25.1040   19.6836 C   0  0  0  0  0  0
  -28.3836  -22.4450   19.8770 N   0  0  0  0  0  0
  -30.0736  -15.8783   21.0851 N   0  0  0  0  0  0
  -27.1924  -21.6944   18.0661 O   0  0  0  0  0  0
  -28.2544  -17.7183   23.4402 O   0  0  0  0  0  0
  -29.2893  -19.7968   19.3753 S   0  0  0  0  0  0
  -31.4617  -12.6128   19.1208 H   0  0  0  0  0  0
  -30.4268  -11.4986   19.9466 H   0  0  0  0  0  0
  -29.7745  -11.7063   17.5390 H   0  0  0  0  0  0
  -29.6065  -13.4389   17.6989 H   0  0  0  0  0  0
  -27.9194  -11.2699   18.9727 H   0  0  0  0  0  0
  -27.3602  -12.4613   17.8283 H   0  0  0  0  0  0
  -27.6409  -14.2492   19.4640 H   0  0  0  0  0  0
  -28.7334  -12.1763   21.4358 H   0  0  0  0  0  0
  -28.4250  -13.8588   21.7980 H   0  0  0  0  0  0
  -25.2787   -9.5767   22.4780 H   0  0  0  0  0  0
  -24.0082   -7.4681   22.7451 H   0  0  0  0  0  0
  -21.0905   -8.8795   19.8929 H   0  0  0  0  0  0
  -22.3706  -10.9733   19.6201 H   0  0  0  0  0  0
  -21.1991   -7.6149   23.9688 H   0  0  0  0  0  0
  -21.1484   -6.0506   25.9045 H   0  0  0  0  0  0
  -22.0611   -2.7614   23.2782 H   0  0  0  0  0  0
  -22.4089  -11.9917   22.4768 H   0  0  0  0  0  0
  -21.1067  -13.1248   22.2575 H   0  0  0  0  0  0
  -24.6631  -15.8608   20.5253 H   0  0  0  0  0  0
  -26.2900  -15.6439   20.1406 H   0  0  0  0  0  0
  -26.7112  -32.5500   23.1180 H   0  0  0  0  0  0
  -24.9879  -33.9794   25.0356 H   0  0  0  0  0  0
  -22.7259  -31.2961   21.4025 H   0  0  0  0  0  0
  -23.3742  -35.9620   23.3372 H   0  0  0  0  0  0
  -24.3547  -36.8890   22.2089 H   0  0  0  0  0  0
  -23.7140  -37.6497   23.6664 H   0  0  0  0  0  0
  -26.0575  -31.5655   20.5918 H   0  0  0  0  0  0
  -26.8588  -30.8871   21.9680 H   0  0  0  0  0  0
  -28.1201  -28.9989   21.1991 H   0  0  0  0  0  0
  -25.9991  -25.9444   18.9833 H   0  0  0  0  0  0
  -24.0057  -27.2836   19.0063 H   0  0  0  0  0  0
  -23.7291  -30.5692   19.4045 H   0  0  0  0  0  0
  -22.7670  -29.2042   19.8762 H   0  0  0  0  0  0
  -25.1254  -36.2085   25.0869 H   0  0  0  0  0  0
  -20.9885  -28.3199   24.1298 H   0  0  0  0  0  0
  -20.5891  -26.2255   23.3711 H   0  0  0  0  0  0
  -21.6518  -26.7286   22.1027 H   0  0  0  0  0  0
  -19.6620  -25.5627   21.1960 H   0  0  0  0  0  0
  -19.6311  -27.2321   20.6648 H   0  0  0  0  0  0
  -17.3926  -26.6129   21.4605 H   0  0  0  0  0  0
  -18.0376  -26.0099   22.9665 H   0  0  0  0  0  0
  -19.8079  -30.7299   24.1918 H   0  0  0  0  0  0
  -17.5184  -31.6325   24.5064 H   0  0  0  0  0  0
  -15.5455  -30.3082   23.7752 H   0  0  0  0  0  0
  -15.8569  -28.0842   22.7319 H   0  0  0  0  0  0
  -24.5805  -30.7107   25.7762 H   0  0  0  0  0  0
  -24.8905  -32.2854   26.4997 H   0  0  0  0  0  0
  -25.8033  -30.8787   27.0175 H   0  0  0  0  0  0
  -26.2752  -29.6841   24.1154 H   0  0  0  0  0  0
  -27.4073  -29.7288   25.4472 H   0  0  0  0  0  0
  -27.8559  -30.4388   23.9140 H   0  0  0  0  0  0
  -27.2484  -33.3661   26.2064 H   0  0  0  0  0  0
  -28.3714  -32.7035   25.0279 H   0  0  0  0  0  0
  -28.0672  -31.8556   26.5394 H   0  0  0  0  0  0
  -28.2638  -38.0049   24.7513 H   0  0  0  0  0  0
  -28.1021  -36.2602   24.6354 H   0  0  0  0  0  0
  -27.2312  -37.1503   25.8891 H   0  0  0  0  0  0
  -20.9569  -29.8466   21.6558 H   0  0  0  0  0  0
  -26.0223  -38.2918   24.1423 H   0  0  0  0  0  0
  -28.7389  -21.4243   22.5236 H   0  0  0  0  0  0
  -29.1596  -19.4349   23.9835 H   0  0  0  0  0  0
  -25.2642  -22.4325   19.9375 H   0  0  0  0  0  0
  -25.7440  -23.8326   18.9924 H   0  0  0  0  0  0
  -26.5876  -23.0642   21.8178 H   0  0  0  0  0  0
  -26.2870  -24.6876   21.2237 H   0  0  0  0  0  0
  -28.8472  -23.8391   21.4822 H   0  0  0  0  0  0
  -30.1823  -16.1861   23.1557 H   0  0  0  0  0  0
  -31.0960  -17.3803   22.2023 H   0  0  0  0  0  0
  -31.7271  -15.7859   22.4603 H   0  0  0  0  0  0
  -29.9357  -17.0262   19.3194 H   0  0  0  0  0  0
  -28.4238  -16.6997   20.0554 H   0  0  0  0  0  0
  -27.8940  -25.0524   18.7574 H   0  0  0  0  0  0
  -29.4845  -25.0234   19.3192 H   0  0  0  0  0  0
  1 25  1  0  0  0
  1 30  2  0  0  0
  1 84  1  0  0  0
  2  3  1  0  0  0
  2 25  1  0  0  0
  2 88  1  0  0  0
  2 89  1  0  0  0
  3  4  1  0  0  0
  3 90  1  0  0  0
  3 91  1  0  0  0
  4  5  1  0  0  0
  4 92  1  0  0  0
  4 93  1  0  0  0
  5  6  1  0  0  0
  5 26  1  0  0  0
  5 94  1  0  0  0
  6 25  1  0  0  0
  6 95  1  0  0  0
  6 96  1  0  0  0
  7  8  2  0  0  0
  7 26  1  0  0  0
  7 29  1  0  0  0
  8  9  1  0  0  0
  8 22  1  0  0  0
  9 10  1  0  0  0
  9 27  2  0  0  0
 10 11  2  0  0  0
 10 15  1  0  0  0
 11 12  1  0  0  0
 11 97  1  0  0  0
 12 13  2  0  0  0
 12 98  1  0  0  0
 13 14  1  0  0  0
 13 31  1  0  0  0
 14 15  2  0  0  0
 14 99  1  0  0  0
 15100  1  0  0  0
 16 17  2  0  0  0
 16 21  1  0  0  0
 16 31  1  0  0  0
 17 18  1  0  0  0
 17101  1  0  0  0
 18 19  2  0  0  0
 18102  1  0  0  0
 19 20  1  0  0  0
 19 24  1  0  0  0
 20 21  2  0  0  0
 20103  1  0  0  0
 21 23  1  0  0  0
 22 28  1  0  0  0
 22 32  2  0  0  0
 26 27  1  0  0  0
 28104  1  0  0  0
 28105  1  0  0  0
 29106  1  0  0  0
 29107  1  0  0  0
 33 34  1  0  0  0
 33 66  1  0  0  0
 33 70  2  0  0  0
 34 36  1  0  0  0
 34 59  1  0  0  0
 34108  1  0  0  0
 35 44  2  0  0  0
 35 45  1  0  0  0
 35 68  1  0  0  0
 36 56  1  0  0  0
 36109  1  0  0  0
 37 39  1  0  0  0
 37 47  1  0  0  0
 37 66  1  0  0  0
 37110  1  0  0  0
 38 43  2  0  0  0
 38 46  1  0  0  0
 38 47  1  0  0  0
 39 64  1  0  0  0
 39 67  2  0  0  0
 40 52  1  0  0  0
 40 53  2  0  0  0
 40 58  1  0  0  0
 41111  1  0  0  0
 41112  1  0  0  0
 41113  1  0  0  0
 41 48  1  0  0  0
 42 43  1  0  0  0
 42 66  1  0  0  0
 42114  1  0  0  0
 42115  1  0  0  0
 43 44  1  0  0  0
 44116  1  0  0  0
 45 46  2  0  0  0
 45117  1  0  0  0
 46118  1  0  0  0
 47119  1  0  0  0
 47120  1  0  0  0
 48 56  1  0  0  0
 48 65  1  0  0  0
 48121  1  0  0  0
 49 50  1  0  0  0
 49 53  1  0  0  0
 49 64  1  0  0  0
 49122  1  0  0  0
 50 51  1  0  0  0
 50123  1  0  0  0
 50124  1  0  0  0
 51 52  1  0  0  0
 51125  1  0  0  0
 51126  1  0  0  0
 52127  1  0  0  0
 52128  1  0  0  0
 53 54  1  0  0  0
 54 55  2  0  0  0
 54129  1  0  0  0
 55 57  1  0  0  0
 55130  1  0  0  0
 56 69  2  0  0  0
 57 58  2  0  0  0
 57131  1  0  0  0
 58132  1  0  0  0
 59 60  1  0  0  0
 59 61  1  0  0  0
 59 62  1  0  0  0
 60133  1  0  0  0
 60134  1  0  0  0
 60135  1  0  0  0
 61136  1  0  0  0
 61137  1  0  0  0
 61138  1  0  0  0
 62139  1  0  0  0
 62140  1  0  0  0
 62141  1  0  0  0
 63 65  1  0  0  0
 63142  1  0  0  0
 63143  1  0  0  0
 63144  1  0  0  0
 64145  1  0  0  0
 65146  1  0  0  0
 68 82  1  0  0  0
 71 72  1  0  0  0
 71 74  2  0  0  0
 71147  1  0  0  0
 72 73  2  0  0  0
 72 76  1  0  0  0
 73 81  1  0  0  0
 73 87  1  0  0  0
 74 83  1  0  0  0
 74 87  1  0  0  0
 75 77  1  0  0  0
 75 83  1  0  0  0
 75 85  2  0  0  0
 76 86  2  0  0  0
 76148  1  0  0  0
 77 78  1  0  0  0
 77149  1  0  0  0
 77150  1  0  0  0
 78 79  1  0  0  0
 78151  1  0  0  0
 78152  1  0  0  0
 79 82  1  0  0  0
 79 83  1  0  0  0
 79153  1  0  0  0
 80 84  1  0  0  0
 80154  1  0  0  0
 80155  1  0  0  0
 80156  1  0  0  0
 81 84  1  0  0  0
 81157  1  0  0  0
 81158  1  0  0  0
 82159  1  0  0  0
 82160  1  0  0  0
M  ISO  4   1 100  68 101  82 101  84 100
M  END
> <chiral flag>
0

> <version>
0

> <s_m_source_file>
/data/baiqing/PycharmProjects/Reinvent-master-3.2/result/LINK_invent/BTK/process_docking_weight1_custom_product_contain_oxygen_bond_distance_aromatic_linkinvent_7_9_3/rearranged_h_0112.sdf

> <i_m_source_file_index>
67

> <r_mmod_Potential_Energy-OPLS-2005>
440.205596923828

> <r_mmod_Stretch_Energy-OPLS-2005>
124.558074951172

> <r_mmod_Bend_Energy-OPLS-2005>
269.758666992188

> <r_mmod_Torsional_Energy-OPLS-2005>
367.26611328125

> <r_mmod_Improper_Torsional_Energy-OPLS-2005>
9.03558826446533

> <r_mmod_Van_der_Waal_Energy-OPLS-2005>
124.410942077637

> <r_mmod_Electrostatic_Energy-OPLS-2005>
-305.541809082031

> <r_mmod_Solvation_Energy-OPLS-2005>
-219.613510131836

> <b_mmod_Minimization_Converged-OPLS-2005>
0

> <r_mmod_RMS_Derivative-OPLS-2005>
6.855055809021

$$$$
68
                    3D
 Structure written by MMmdl.
153161  0  0  1  0            999 V2000
  -30.5732  -14.8208   20.4165 C   0  0  0  0  0  0
  -30.4343  -12.4942   19.4930 C   0  0  0  0  0  0
  -29.5153  -12.4953   18.2496 C   0  0  0  0  0  0
  -28.0430  -12.3154   18.6625 C   0  0  0  0  0  0
  -27.6358  -13.2364   19.8432 C   0  0  2  0  0  0
  -28.6757  -13.2092   20.9840 C   0  0  0  0  0  0
  -25.2495  -13.8213   20.5701 C   0  0  0  0  0  0
  -24.1792  -13.0456   20.9226 C   0  0  0  0  0  0
  -24.6380  -11.6934   20.8749 C   0  0  0  0  0  0
  -23.9063  -10.4309   21.0403 C   0  0  0  0  0  0
  -24.3617   -9.4227   21.9176 C   0  0  0  0  0  0
  -23.6306   -8.2254   22.0743 C   0  0  0  0  0  0
  -22.4286   -8.0282   21.3535 C   0  0  0  0  0  0
  -21.9918   -9.0256   20.4639 C   0  0  0  0  0  0
  -22.7237  -10.2145   20.3053 C   0  0  0  0  0  0
  -21.6860   -6.0742   22.5281 C   0  0  0  0  0  0
  -21.4016   -6.5644   23.8215 C   0  0  0  0  0  0
  -21.3667   -5.6792   24.9177 C   0  0  0  0  0  0
  -21.6048   -4.3053   24.7223 C   0  0  0  0  0  0
  -21.8819   -3.8147   23.4341 C   0  0  0  0  0  0
  -21.9197   -4.6970   22.3401 C   0  0  0  0  0  0
  -22.7814  -13.5230   21.1885 C   0  0  0  0  0  0
  -22.1660   -4.2155   21.0979 F   0  0  0  0  0  0
  -21.5639   -3.4534   25.7734 F   0  0  0  0  0  0
  -29.9713  -13.5754   20.4006 N   0  0  0  0  0  0
  -26.2904  -12.9419   20.3245 N   0  0  0  0  0  0
  -25.9305  -11.6561   20.5733 N   0  0  0  0  0  0
  -22.0446  -12.8226   22.0435 N   0  0  0  0  0  0
  -25.4201  -15.1939   20.4131 N   0  0  0  0  0  0
  -31.7737  -14.8974   20.1408 O   0  0  0  0  0  0
  -21.6644   -6.8881   21.4238 O   0  0  0  0  0  0
  -22.3507  -14.5532   20.6725 O   0  0  0  0  0  0
  -24.6353  -31.8514   23.1950 C   0  0  0  0  0  0
  -25.9158  -32.4735   23.8308 C   0  0  1  0  0  0
  -27.2183  -27.2259   20.1393 C   0  0  0  0  0  0
  -25.5933  -33.8539   24.2225 N   0  0  0  0  0  0
  -23.4359  -30.4726   21.5391 C   0  0  2  0  0  0
  -24.8873  -28.9156   20.1086 C   0  0  0  0  0  0
  -22.7522  -29.4587   22.4893 C   0  0  0  0  0  0
  -18.0291  -28.1395   22.8482 C   0  0  0  0  0  0
  -24.1494  -36.7285   23.2636 C   0  0  0  0  0  0
  -25.9854  -30.7535   21.3818 C   0  0  0  0  0  0
  -26.0612  -29.3726   20.7241 C   0  0  0  0  0  0
  -27.2340  -28.5403   20.7292 C   0  0  0  0  0  0
  -26.0252  -26.8478   19.4913 C   0  0  0  0  0  0
  -24.8761  -27.6627   19.4781 C   0  0  0  0  0  0
  -23.6581  -29.8056   20.1562 C   0  0  0  0  0  0
  -25.4121  -36.3063   24.0318 C   0  0  1  0  0  0
  -20.5897  -28.3716   23.1258 C   0  0  2  0  0  0
  -20.6791  -26.9428   22.5414 C   0  0  0  0  0  0
  -19.5770  -26.6387   21.5219 C   0  0  0  0  0  0
  -18.1942  -26.7937   22.1618 C   0  0  0  0  0  0
  -19.1543  -28.8872   23.2864 C   0  0  0  0  0  0
  -18.9466  -30.1466   23.8893 C   0  0  0  0  0  0
  -17.6465  -30.6601   24.0561 C   0  0  0  0  0  0
  -25.9061  -34.9431   23.5078 C   0  0  0  0  0  0
  -16.5356  -29.9098   23.6332 C   0  0  0  0  0  0
  -16.7274  -28.6511   23.0359 C   0  0  0  0  0  0
  -26.4505  -31.6572   25.0712 C   0  0  0  0  0  0
  -25.3709  -31.3750   26.1416 C   0  0  0  0  0  0
  -27.0345  -30.2970   24.6244 C   0  0  0  0  0  0
  -27.6046  -32.4320   25.7501 C   0  0  0  0  0  0
  -27.5583  -37.1796   24.8457 C   0  0  0  0  0  0
  -21.4220  -29.3051   22.3632 N   0  0  0  0  0  0
  -26.4292  -37.3767   23.9401 N   0  0  0  0  0  0
  -24.7048  -31.0442   22.0949 N   0  0  0  0  0  0
  -23.4197  -28.8129   23.3013 O   0  0  0  0  0  0
  -28.2412  -26.2393   20.1875 O   0  0  0  0  0  0
  -26.5648  -34.8916   22.4656 O   0  0  0  0  0  0
  -23.5491  -32.1349   23.7215 O   0  0  0  0  0  0
  -30.4420  -18.8868   18.1219 C   0  0  0  0  0  0
  -30.0048  -20.0332   18.8097 C   0  0  0  0  0  0
  -30.3519  -17.5781   18.6570 C   0  0  0  0  0  0
  -29.8856  -17.3708   19.9928 C   0  0  0  0  0  0
  -29.4406  -19.9465   20.0953 C   0  0  0  0  0  0
  -29.4065  -18.5889   20.6697 C   0  0  0  0  0  0
  -31.7037  -16.4985   16.8374 C   0  0  0  0  0  0
  -30.7244  -16.4708   17.7570 C   0  0  0  0  0  0
  -28.2082  -23.6774   20.9271 C   0  0  0  0  0  0
  -27.9377  -25.0575   20.9380 C   0  0  0  0  0  0
  -28.9759  -22.5372   20.1128 C   0  0  0  0  0  0
  -29.7819  -15.9715   20.5651 N   0  0  0  0  0  0
  -28.9483  -21.1462   20.7269 O   0  0  0  0  0  0
  -28.8830  -18.4468   21.9116 F   0  0  0  0  0  0
  -31.4732  -12.6282   19.1883 H   0  0  0  0  0  0
  -30.3951  -11.5283   19.9996 H   0  0  0  0  0  0
  -29.8098  -11.7002   17.5643 H   0  0  0  0  0  0
  -29.6328  -13.4262   17.6961 H   0  0  0  0  0  0
  -27.9133  -11.2716   18.9499 H   0  0  0  0  0  0
  -27.3857  -12.4763   17.8072 H   0  0  0  0  0  0
  -27.6184  -14.2493   19.4406 H   0  0  0  0  0  0
  -28.7251  -12.2211   21.4452 H   0  0  0  0  0  0
  -28.3942  -13.9053   21.7757 H   0  0  0  0  0  0
  -25.2754   -9.5723   22.4758 H   0  0  0  0  0  0
  -24.0029   -7.4650   22.7461 H   0  0  0  0  0  0
  -21.0851   -8.8768   19.8945 H   0  0  0  0  0  0
  -22.3676  -10.9684   19.6174 H   0  0  0  0  0  0
  -21.1990   -7.6149   23.9725 H   0  0  0  0  0  0
  -21.1495   -6.0514   25.9086 H   0  0  0  0  0  0
  -22.0587   -2.7607   23.2833 H   0  0  0  0  0  0
  -22.4048  -11.9902   22.4862 H   0  0  0  0  0  0
  -21.1057  -13.1252   22.2610 H   0  0  0  0  0  0
  -24.6524  -15.8468   20.5266 H   0  0  0  0  0  0
  -26.2677  -15.6334   20.0775 H   0  0  0  0  0  0
  -26.7223  -32.5378   23.1046 H   0  0  0  0  0  0
  -25.0044  -33.9668   25.0346 H   0  0  0  0  0  0
  -22.7351  -31.2968   21.3907 H   0  0  0  0  0  0
  -23.3757  -35.9614   23.3284 H   0  0  0  0  0  0
  -24.3579  -36.8927   22.2052 H   0  0  0  0  0  0
  -23.7246  -37.6478   23.6677 H   0  0  0  0  0  0
  -26.1257  -31.5126   20.6114 H   0  0  0  0  0  0
  -26.8609  -30.8043   22.0175 H   0  0  0  0  0  0
  -28.1300  -28.8785   21.2306 H   0  0  0  0  0  0
  -25.9706  -25.8758   19.0220 H   0  0  0  0  0  0
  -23.9791  -27.3055   18.9905 H   0  0  0  0  0  0
  -23.7830  -30.5820   19.4012 H   0  0  0  0  0  0
  -22.7761  -29.2413   19.8491 H   0  0  0  0  0  0
  -25.1306  -36.1904   25.0811 H   0  0  0  0  0  0
  -20.9985  -28.3311   24.1379 H   0  0  0  0  0  0
  -20.5707  -26.2325   23.3621 H   0  0  0  0  0  0
  -21.6658  -26.7469   22.1197 H   0  0  0  0  0  0
  -19.6938  -25.6297   21.1257 H   0  0  0  0  0  0
  -19.6713  -27.3189   20.6745 H   0  0  0  0  0  0
  -17.4217  -26.6674   21.4016 H   0  0  0  0  0  0
  -18.0341  -26.0083   22.9019 H   0  0  0  0  0  0
  -19.7943  -30.7275   24.2270 H   0  0  0  0  0  0
  -17.5025  -31.6284   24.5157 H   0  0  0  0  0  0
  -15.5356  -30.3003   23.7668 H   0  0  0  0  0  0
  -15.8668  -28.0829   22.7089 H   0  0  0  0  0  0
  -24.5889  -30.7095   25.7737 H   0  0  0  0  0  0
  -24.8897  -32.2933   26.4794 H   0  0  0  0  0  0
  -25.8001  -30.8951   27.0222 H   0  0  0  0  0  0
  -26.2935  -29.6718   24.1248 H   0  0  0  0  0  0
  -27.3959  -29.7237   25.4793 H   0  0  0  0  0  0
  -27.8850  -30.4194   23.9532 H   0  0  0  0  0  0
  -27.2631  -33.3618   26.2068 H   0  0  0  0  0  0
  -28.3874  -32.6889   25.0350 H   0  0  0  0  0  0
  -28.0701  -31.8455   26.5434 H   0  0  0  0  0  0
  -28.2591  -38.0105   24.7517 H   0  0  0  0  0  0
  -28.1091  -36.2635   24.6272 H   0  0  0  0  0  0
  -27.2300  -37.1431   25.8860 H   0  0  0  0  0  0
  -20.9410  -29.8750   21.6809 H   0  0  0  0  0  0
  -26.0168  -38.2835   24.1418 H   0  0  0  0  0  0
  -30.8067  -19.0280   17.1145 H   0  0  0  0  0  0
  -30.0869  -20.9834   18.3045 H   0  0  0  0  0  0
  -31.8875  -15.6440   16.2015 H   0  0  0  0  0  0
  -32.3400  -17.3618   16.7044 H   0  0  0  0  0  0
  -30.1232  -15.5786   17.8261 H   0  0  0  0  0  0
  -27.7143  -23.1908   21.7569 H   0  0  0  0  0  0
  -27.3054  -25.3671   21.7614 H   0  0  0  0  0  0
  -30.0120  -22.8452   19.9687 H   0  0  0  0  0  0
  -28.5220  -22.4923   19.1221 H   0  0  0  0  0  0
  -28.9083  -15.7983   21.0380 H   0  0  0  0  0  0
  1 25  1  0  0  0
  1 30  2  0  0  0
  1 82  1  0  0  0
  2  3  1  0  0  0
  2 25  1  0  0  0
  2 85  1  0  0  0
  2 86  1  0  0  0
  3  4  1  0  0  0
  3 87  1  0  0  0
  3 88  1  0  0  0
  4  5  1  0  0  0
  4 89  1  0  0  0
  4 90  1  0  0  0
  5  6  1  0  0  0
  5 26  1  0  0  0
  5 91  1  0  0  0
  6 25  1  0  0  0
  6 92  1  0  0  0
  6 93  1  0  0  0
  7  8  2  0  0  0
  7 26  1  0  0  0
  7 29  1  0  0  0
  8  9  1  0  0  0
  8 22  1  0  0  0
  9 10  1  0  0  0
  9 27  2  0  0  0
 10 11  2  0  0  0
 10 15  1  0  0  0
 11 12  1  0  0  0
 11 94  1  0  0  0
 12 13  2  0  0  0
 12 95  1  0  0  0
 13 14  1  0  0  0
 13 31  1  0  0  0
 14 15  2  0  0  0
 14 96  1  0  0  0
 15 97  1  0  0  0
 16 17  2  0  0  0
 16 21  1  0  0  0
 16 31  1  0  0  0
 17 18  1  0  0  0
 17 98  1  0  0  0
 18 19  2  0  0  0
 18 99  1  0  0  0
 19 20  1  0  0  0
 19 24  1  0  0  0
 20 21  2  0  0  0
 20100  1  0  0  0
 21 23  1  0  0  0
 22 28  1  0  0  0
 22 32  2  0  0  0
 26 27  1  0  0  0
 28101  1  0  0  0
 28102  1  0  0  0
 29103  1  0  0  0
 29104  1  0  0  0
 33 34  1  0  0  0
 33 66  1  0  0  0
 33 70  2  0  0  0
 34 36  1  0  0  0
 34 59  1  0  0  0
 34105  1  0  0  0
 35 44  2  0  0  0
 35 45  1  0  0  0
 35 68  1  0  0  0
 36 56  1  0  0  0
 36106  1  0  0  0
 37 39  1  0  0  0
 37 47  1  0  0  0
 37 66  1  0  0  0
 37107  1  0  0  0
 38 43  2  0  0  0
 38 46  1  0  0  0
 38 47  1  0  0  0
 39 64  1  0  0  0
 39 67  2  0  0  0
 40 52  1  0  0  0
 40 53  2  0  0  0
 40 58  1  0  0  0
 41108  1  0  0  0
 41109  1  0  0  0
 41110  1  0  0  0
 41 48  1  0  0  0
 42 43  1  0  0  0
 42 66  1  0  0  0
 42111  1  0  0  0
 42112  1  0  0  0
 43 44  1  0  0  0
 44113  1  0  0  0
 45 46  2  0  0  0
 45114  1  0  0  0
 46115  1  0  0  0
 47116  1  0  0  0
 47117  1  0  0  0
 48 56  1  0  0  0
 48 65  1  0  0  0
 48118  1  0  0  0
 49 50  1  0  0  0
 49 53  1  0  0  0
 49 64  1  0  0  0
 49119  1  0  0  0
 50 51  1  0  0  0
 50120  1  0  0  0
 50121  1  0  0  0
 51 52  1  0  0  0
 51122  1  0  0  0
 51123  1  0  0  0
 52124  1  0  0  0
 52125  1  0  0  0
 53 54  1  0  0  0
 54 55  2  0  0  0
 54126  1  0  0  0
 55 57  1  0  0  0
 55127  1  0  0  0
 56 69  2  0  0  0
 57 58  2  0  0  0
 57128  1  0  0  0
 58129  1  0  0  0
 59 60  1  0  0  0
 59 61  1  0  0  0
 59 62  1  0  0  0
 60130  1  0  0  0
 60131  1  0  0  0
 60132  1  0  0  0
 61133  1  0  0  0
 61134  1  0  0  0
 61135  1  0  0  0
 62136  1  0  0  0
 62137  1  0  0  0
 62138  1  0  0  0
 63 65  1  0  0  0
 63139  1  0  0  0
 63140  1  0  0  0
 63141  1  0  0  0
 64142  1  0  0  0
 65143  1  0  0  0
 68 80  1  0  0  0
 71 72  2  0  0  0
 71 73  1  0  0  0
 71144  1  0  0  0
 72 75  1  0  0  0
 72145  1  0  0  0
 73 74  2  0  0  0
 73 78  1  0  0  0
 74 76  1  0  0  0
 74 82  1  0  0  0
 75 76  2  0  0  0
 75 83  1  0  0  0
 76 84  1  0  0  0
 77 78  2  0  0  0
 77146  1  0  0  0
 77147  1  0  0  0
 78148  1  0  0  0
 79 80  2  0  0  0
 79 81  1  0  0  0
 79149  1  0  0  0
 80150  1  0  0  0
 81 83  1  0  0  0
 81151  1  0  0  0
 81152  1  0  0  0
 82153  1  0  0  0
M  ISO  4   1 100  68 101  80 101  82 100
M  END
> <chiral flag>
0

> <version>
0

> <s_m_source_file>
/data/baiqing/PycharmProjects/Reinvent-master-3.2/result/LINK_invent/BTK/process_docking_weight1_custom_product_contain_oxygen_bond_distance_aromatic_linkinvent_7_9_3/rearranged_h_0112.sdf

> <i_m_source_file_index>
68

> <r_mmod_Potential_Energy-OPLS-2005>
343.520294189453

> <r_mmod_Stretch_Energy-OPLS-2005>
158.478424072266

> <r_mmod_Bend_Energy-OPLS-2005>
232.631530761719

> <r_mmod_Torsional_Energy-OPLS-2005>
260.054443359375

> <r_mmod_Improper_Torsional_Energy-OPLS-2005>
4.98551464080811

> <r_mmod_Van_der_Waal_Energy-OPLS-2005>
142.143478393555

> <r_mmod_Electrostatic_Energy-OPLS-2005>
-374.422668457031

> <r_mmod_Solvation_Energy-OPLS-2005>
-205.299819946289

> <b_mmod_Minimization_Converged-OPLS-2005>
0

> <r_mmod_RMS_Derivative-OPLS-2005>
1.29172384738922

$$$$
69
                    3D
 Structure written by MMmdl.
155163  0  0  1  0            999 V2000
  -30.6159  -14.7462   20.4364 C   0  0  0  0  0  0
  -30.4265  -12.4571   19.4592 C   0  0  0  0  0  0
  -29.5020  -12.5004   18.2235 C   0  0  0  0  0  0
  -28.0270  -12.3344   18.6414 C   0  0  0  0  0  0
  -27.6350  -13.2367   19.8428 C   0  0  2  0  0  0
  -28.6846  -13.1788   20.9704 C   0  0  0  0  0  0
  -25.2512  -13.8227   20.5743 C   0  0  0  0  0  0
  -24.1802  -13.0459   20.9224 C   0  0  0  0  0  0
  -24.6395  -11.6935   20.8748 C   0  0  0  0  0  0
  -23.9077  -10.4303   21.0393 C   0  0  0  0  0  0
  -24.3623   -9.4218   21.9175 C   0  0  0  0  0  0
  -23.6306   -8.2244   22.0726 C   0  0  0  0  0  0
  -22.4284   -8.0286   21.3520 C   0  0  0  0  0  0
  -21.9927   -9.0262   20.4622 C   0  0  0  0  0  0
  -22.7245  -10.2147   20.3046 C   0  0  0  0  0  0
  -21.6853   -6.0747   22.5277 C   0  0  0  0  0  0
  -21.4022   -6.5643   23.8220 C   0  0  0  0  0  0
  -21.3660   -5.6787   24.9176 C   0  0  0  0  0  0
  -21.6045   -4.3052   24.7211 C   0  0  0  0  0  0
  -21.8816   -3.8151   23.4327 C   0  0  0  0  0  0
  -21.9194   -4.6976   22.3392 C   0  0  0  0  0  0
  -22.7820  -13.5232   21.1892 C   0  0  0  0  0  0
  -22.1658   -4.2166   21.0969 F   0  0  0  0  0  0
  -21.5625   -3.4528   25.7718 F   0  0  0  0  0  0
  -29.9727  -13.5321   20.3673 N   0  0  0  0  0  0
  -26.2917  -12.9432   20.3282 N   0  0  0  0  0  0
  -25.9324  -11.6567   20.5746 N   0  0  0  0  0  0
  -22.0471  -12.8204   22.0443 N   0  0  0  0  0  0
  -25.4216  -15.1955   20.4234 N   0  0  0  0  0  0
  -31.8356  -14.7914   20.2686 O   0  0  0  0  0  0
  -21.6644   -6.8885   21.4233 O   0  0  0  0  0  0
  -22.3490  -14.5533   20.6739 O   0  0  0  0  0  0
  -24.6321  -31.8560   23.1998 C   0  0  0  0  0  0
  -25.9140  -32.4762   23.8340 C   0  0  1  0  0  0
  -27.2103  -27.2555   20.1282 C   0  0  0  0  0  0
  -25.5935  -33.8565   24.2261 N   0  0  0  0  0  0
  -23.4279  -30.4816   21.5439 C   0  0  2  0  0  0
  -24.8738  -28.9347   20.1094 C   0  0  0  0  0  0
  -22.7512  -29.4607   22.4911 C   0  0  0  0  0  0
  -18.0292  -28.1390   22.8488 C   0  0  0  0  0  0
  -24.1491  -36.7278   23.2642 C   0  0  0  0  0  0
  -25.9772  -30.7671   21.3828 C   0  0  0  0  0  0
  -26.0486  -29.3925   20.7196 C   0  0  0  0  0  0
  -27.2221  -28.5680   20.7141 C   0  0  0  0  0  0
  -26.0093  -26.8754   19.4843 C   0  0  0  0  0  0
  -24.8608  -27.6856   19.4788 C   0  0  0  0  0  0
  -23.6456  -29.8212   20.1588 C   0  0  0  0  0  0
  -25.4120  -36.3074   24.0331 C   0  0  1  0  0  0
  -20.5900  -28.3698   23.1269 C   0  0  2  0  0  0
  -20.6788  -26.9417   22.5407 C   0  0  0  0  0  0
  -19.5760  -26.6381   21.5218 C   0  0  0  0  0  0
  -18.1939  -26.7931   22.1630 C   0  0  0  0  0  0
  -19.1548  -28.8862   23.2871 C   0  0  0  0  0  0
  -18.9470  -30.1463   23.8891 C   0  0  0  0  0  0
  -17.6469  -30.6592   24.0563 C   0  0  0  0  0  0
  -25.9055  -34.9446   23.5092 C   0  0  0  0  0  0
  -16.5358  -29.9087   23.6338 C   0  0  0  0  0  0
  -16.7279  -28.6503   23.0361 C   0  0  0  0  0  0
  -26.4497  -31.6596   25.0736 C   0  0  0  0  0  0
  -25.3710  -31.3764   26.1452 C   0  0  0  0  0  0
  -27.0340  -30.3005   24.6243 C   0  0  0  0  0  0
  -27.6037  -32.4352   25.7506 C   0  0  0  0  0  0
  -27.5581  -37.1800   24.8465 C   0  0  0  0  0  0
  -21.4222  -29.3043   22.3658 N   0  0  0  0  0  0
  -26.4292  -37.3777   23.9410 N   0  0  0  0  0  0
  -24.6978  -31.0530   22.0978 N   0  0  0  0  0  0
  -23.4218  -28.8134   23.2997 O   0  0  0  0  0  0
  -28.2921  -26.3392   20.1836 O   0  0  0  0  0  0
  -26.5629  -34.8922   22.4662 O   0  0  0  0  0  0
  -23.5470  -32.1381   23.7296 O   0  0  0  0  0  0
  -28.6134  -16.9861   21.8424 C   0  0  0  0  0  0
  -28.2650  -19.4222   21.9003 C   0  0  0  0  0  0
  -28.0166  -18.1298   22.4249 C   0  0  0  0  0  0
  -29.4603  -17.0914   20.7229 C   0  0  0  0  0  0
  -29.1129  -19.6387   20.7866 C   0  0  0  0  0  0
  -29.6966  -18.4335   20.2112 C   0  0  0  0  0  0
  -26.4292  -16.8777   23.9147 C   0  0  0  0  0  0
  -27.0631  -18.0029   23.5417 C   0  0  0  0  0  0
  -29.0489  -23.6677   20.3296 C   0  0  0  0  0  0
  -27.9669  -24.8650   20.2180 C   0  0  0  0  0  0
  -28.5187  -22.1519   20.5789 C   0  0  0  0  0  0
  -29.9057  -15.8634   20.0341 N   0  0  0  0  0  0
  -29.3818  -20.9597   20.2954 O   0  0  0  0  0  0
  -30.4873  -18.5622   19.1185 F   0  0  0  0  0  0
  -31.4675  -12.5821   19.1559 H   0  0  0  0  0  0
  -30.3711  -11.4859   19.9533 H   0  0  0  0  0  0
  -29.7792  -11.7197   17.5138 H   0  0  0  0  0  0
  -29.6296  -13.4500   17.7009 H   0  0  0  0  0  0
  -27.8794  -11.2864   18.9026 H   0  0  0  0  0  0
  -27.3690  -12.5296   17.7940 H   0  0  0  0  0  0
  -27.6214  -14.2572   19.4588 H   0  0  0  0  0  0
  -28.7266  -12.1842   21.4167 H   0  0  0  0  0  0
  -28.4281  -13.8671   21.7745 H   0  0  0  0  0  0
  -25.2759   -9.5703   22.4759 H   0  0  0  0  0  0
  -24.0016   -7.4627   22.7433 H   0  0  0  0  0  0
  -21.0859   -8.8782   19.8919 H   0  0  0  0  0  0
  -22.3698  -10.9689   19.6162 H   0  0  0  0  0  0
  -21.2018   -7.6149   23.9744 H   0  0  0  0  0  0
  -21.1485   -6.0495   25.9086 H   0  0  0  0  0  0
  -22.0600   -2.7612   23.2807 H   0  0  0  0  0  0
  -22.4106  -11.9874   22.4830 H   0  0  0  0  0  0
  -21.1080  -13.1189   22.2660 H   0  0  0  0  0  0
  -24.6652  -15.8535   20.5727 H   0  0  0  0  0  0
  -26.2862  -15.6414   20.1450 H   0  0  0  0  0  0
  -26.7200  -32.5400   23.1074 H   0  0  0  0  0  0
  -25.0076  -33.9708   25.0402 H   0  0  0  0  0  0
  -22.7241  -31.3047   21.4019 H   0  0  0  0  0  0
  -23.3759  -35.9603   23.3301 H   0  0  0  0  0  0
  -24.3570  -36.8900   22.2054 H   0  0  0  0  0  0
  -23.7246  -37.6480   23.6662 H   0  0  0  0  0  0
  -26.1244  -31.5316   20.6189 H   0  0  0  0  0  0
  -26.8513  -30.8076   22.0210 H   0  0  0  0  0  0
  -28.1200  -28.9156   21.2050 H   0  0  0  0  0  0
  -25.9070  -25.9299   18.9786 H   0  0  0  0  0  0
  -23.9637  -27.3304   18.9901 H   0  0  0  0  0  0
  -23.7716  -30.5996   19.4058 H   0  0  0  0  0  0
  -22.7643  -29.2561   19.8496 H   0  0  0  0  0  0
  -25.1308  -36.1917   25.0828 H   0  0  0  0  0  0
  -20.9986  -28.3269   24.1394 H   0  0  0  0  0  0
  -20.5704  -26.2305   23.3610 H   0  0  0  0  0  0
  -21.6653  -26.7452   22.1196 H   0  0  0  0  0  0
  -19.6915  -25.6287   21.1256 H   0  0  0  0  0  0
  -19.6695  -27.3188   20.6748 H   0  0  0  0  0  0
  -17.4214  -26.6680   21.4028 H   0  0  0  0  0  0
  -18.0331  -26.0077   22.9033 H   0  0  0  0  0  0
  -19.7945  -30.7283   24.2258 H   0  0  0  0  0  0
  -17.5025  -31.6277   24.5157 H   0  0  0  0  0  0
  -15.5359  -30.2989   23.7668 H   0  0  0  0  0  0
  -15.8681  -28.0819   22.7084 H   0  0  0  0  0  0
  -24.5875  -30.7129   25.7779 H   0  0  0  0  0  0
  -24.8918  -32.2944   26.4863 H   0  0  0  0  0  0
  -25.8016  -30.8946   27.0239 H   0  0  0  0  0  0
  -26.2933  -29.6763   24.1235 H   0  0  0  0  0  0
  -27.3965  -29.7271   25.4783 H   0  0  0  0  0  0
  -27.8840  -30.4270   23.9534 H   0  0  0  0  0  0
  -27.2621  -33.3655   26.2064 H   0  0  0  0  0  0
  -28.3848  -32.6919   25.0334 H   0  0  0  0  0  0
  -28.0702  -31.8499   26.5444 H   0  0  0  0  0  0
  -28.2603  -38.0095   24.7515 H   0  0  0  0  0  0
  -28.1076  -36.2627   24.6289 H   0  0  0  0  0  0
  -27.2293  -37.1450   25.8868 H   0  0  0  0  0  0
  -20.9408  -29.8767   21.6866 H   0  0  0  0  0  0
  -26.0165  -38.2847   24.1414 H   0  0  0  0  0  0
  -28.3893  -16.0098   22.2388 H   0  0  0  0  0  0
  -27.7783  -20.2511   22.3885 H   0  0  0  0  0  0
  -25.7539  -16.8839   24.7582 H   0  0  0  0  0  0
  -26.5553  -15.9375   23.3968 H   0  0  0  0  0  0
  -26.8714  -18.9018   24.1132 H   0  0  0  0  0  0
  -29.7513  -23.9085   21.1276 H   0  0  0  0  0  0
  -29.6400  -23.6764   19.4151 H   0  0  0  0  0  0
  -27.2540  -24.7269   21.0323 H   0  0  0  0  0  0
  -27.4304  -24.6189   19.3044 H   0  0  0  0  0  0
  -27.6167  -22.0159   19.9815 H   0  0  0  0  0  0
  -28.1837  -22.1305   21.6133 H   0  0  0  0  0  0
  -30.2833  -16.1317   19.1370 H   0  0  0  0  0  0
  1 25  1  0  0  0
  1 30  2  0  0  0
  1 82  1  0  0  0
  2  3  1  0  0  0
  2 25  1  0  0  0
  2 85  1  0  0  0
  2 86  1  0  0  0
  3  4  1  0  0  0
  3 87  1  0  0  0
  3 88  1  0  0  0
  4  5  1  0  0  0
  4 89  1  0  0  0
  4 90  1  0  0  0
  5  6  1  0  0  0
  5 26  1  0  0  0
  5 91  1  0  0  0
  6 25  1  0  0  0
  6 92  1  0  0  0
  6 93  1  0  0  0
  7  8  2  0  0  0
  7 26  1  0  0  0
  7 29  1  0  0  0
  8  9  1  0  0  0
  8 22  1  0  0  0
  9 10  1  0  0  0
  9 27  2  0  0  0
 10 11  2  0  0  0
 10 15  1  0  0  0
 11 12  1  0  0  0
 11 94  1  0  0  0
 12 13  2  0  0  0
 12 95  1  0  0  0
 13 14  1  0  0  0
 13 31  1  0  0  0
 14 15  2  0  0  0
 14 96  1  0  0  0
 15 97  1  0  0  0
 16 17  2  0  0  0
 16 21  1  0  0  0
 16 31  1  0  0  0
 17 18  1  0  0  0
 17 98  1  0  0  0
 18 19  2  0  0  0
 18 99  1  0  0  0
 19 20  1  0  0  0
 19 24  1  0  0  0
 20 21  2  0  0  0
 20100  1  0  0  0
 21 23  1  0  0  0
 22 28  1  0  0  0
 22 32  2  0  0  0
 26 27  1  0  0  0
 28101  1  0  0  0
 28102  1  0  0  0
 29103  1  0  0  0
 29104  1  0  0  0
 33 34  1  0  0  0
 33 66  1  0  0  0
 33 70  2  0  0  0
 34 36  1  0  0  0
 34 59  1  0  0  0
 34105  1  0  0  0
 35 44  2  0  0  0
 35 45  1  0  0  0
 35 68  1  0  0  0
 36 56  1  0  0  0
 36106  1  0  0  0
 37 39  1  0  0  0
 37 47  1  0  0  0
 37 66  1  0  0  0
 37107  1  0  0  0
 38 43  2  0  0  0
 38 46  1  0  0  0
 38 47  1  0  0  0
 39 64  1  0  0  0
 39 67  2  0  0  0
 40 52  1  0  0  0
 40 53  2  0  0  0
 40 58  1  0  0  0
 41108  1  0  0  0
 41109  1  0  0  0
 41110  1  0  0  0
 41 48  1  0  0  0
 42 43  1  0  0  0
 42 66  1  0  0  0
 42111  1  0  0  0
 42112  1  0  0  0
 43 44  1  0  0  0
 44113  1  0  0  0
 45 46  2  0  0  0
 45114  1  0  0  0
 46115  1  0  0  0
 47116  1  0  0  0
 47117  1  0  0  0
 48 56  1  0  0  0
 48 65  1  0  0  0
 48118  1  0  0  0
 49 50  1  0  0  0
 49 53  1  0  0  0
 49 64  1  0  0  0
 49119  1  0  0  0
 50 51  1  0  0  0
 50120  1  0  0  0
 50121  1  0  0  0
 51 52  1  0  0  0
 51122  1  0  0  0
 51123  1  0  0  0
 52124  1  0  0  0
 52125  1  0  0  0
 53 54  1  0  0  0
 54 55  2  0  0  0
 54126  1  0  0  0
 55 57  1  0  0  0
 55127  1  0  0  0
 56 69  2  0  0  0
 57 58  2  0  0  0
 57128  1  0  0  0
 58129  1  0  0  0
 59 60  1  0  0  0
 59 61  1  0  0  0
 59 62  1  0  0  0
 60130  1  0  0  0
 60131  1  0  0  0
 60132  1  0  0  0
 61133  1  0  0  0
 61134  1  0  0  0
 61135  1  0  0  0
 62136  1  0  0  0
 62137  1  0  0  0
 62138  1  0  0  0
 63 65  1  0  0  0
 63139  1  0  0  0
 63140  1  0  0  0
 63141  1  0  0  0
 64142  1  0  0  0
 65143  1  0  0  0
 68 80  1  0  0  0
 71 73  2  0  0  0
 71 74  1  0  0  0
 71144  1  0  0  0
 72 73  1  0  0  0
 72 75  2  0  0  0
 72145  1  0  0  0
 73 78  1  0  0  0
 74 76  2  0  0  0
 74 82  1  0  0  0
 75 76  1  0  0  0
 75 83  1  0  0  0
 76 84  1  0  0  0
 77 78  2  0  0  0
 77146  1  0  0  0
 77147  1  0  0  0
 78148  1  0  0  0
 79 80  1  0  0  0
 79 81  1  0  0  0
 79149  1  0  0  0
 79150  1  0  0  0
 80151  1  0  0  0
 80152  1  0  0  0
 81 83  1  0  0  0
 81153  1  0  0  0
 81154  1  0  0  0
 82155  1  0  0  0
M  ISO  4   1 100  68 101  80 101  82 100
M  END
> <chiral flag>
0

> <version>
0

> <s_m_source_file>
/data/baiqing/PycharmProjects/Reinvent-master-3.2/result/LINK_invent/BTK/process_docking_weight1_custom_product_contain_oxygen_bond_distance_aromatic_linkinvent_7_9_3/rearranged_h_0112.sdf

> <i_m_source_file_index>
69

> <r_mmod_Potential_Energy-OPLS-2005>
274.50244140625

> <r_mmod_Stretch_Energy-OPLS-2005>
122.996673583984

> <r_mmod_Bend_Energy-OPLS-2005>
186.729278564453

> <r_mmod_Torsional_Energy-OPLS-2005>
284.380584716797

> <r_mmod_Improper_Torsional_Energy-OPLS-2005>
28.7208843231201

> <r_mmod_Van_der_Waal_Energy-OPLS-2005>
137.436599731445

> <r_mmod_Electrostatic_Energy-OPLS-2005>
-377.481719970703

> <r_mmod_Solvation_Energy-OPLS-2005>
-202.539184570312

> <b_mmod_Minimization_Converged-OPLS-2005>
0

> <r_mmod_RMS_Derivative-OPLS-2005>
1.6229522228241

$$$$
70
                    3D
 Structure written by MMmdl.
155163  0  0  1  0            999 V2000
  -30.5498  -14.9164   20.3307 C   0  0  0  0  0  0
  -30.4483  -12.5455   19.4735 C   0  0  0  0  0  0
  -29.5163  -12.4616   18.2426 C   0  0  0  0  0  0
  -28.0459  -12.2734   18.6684 C   0  0  0  0  0  0
  -27.6209  -13.2220   19.8196 C   0  0  2  0  0  0
  -28.6776  -13.2806   20.9409 C   0  0  0  0  0  0
  -25.2483  -13.8079   20.5786 C   0  0  0  0  0  0
  -24.1765  -13.0353   20.9243 C   0  0  0  0  0  0
  -24.6359  -11.6840   20.8763 C   0  0  0  0  0  0
  -23.9039  -10.4242   21.0419 C   0  0  0  0  0  0
  -24.3594   -9.4162   21.9198 C   0  0  0  0  0  0
  -23.6266   -8.2205   22.0764 C   0  0  0  0  0  0
  -22.4251   -8.0256   21.3548 C   0  0  0  0  0  0
  -21.9882   -9.0224   20.4650 C   0  0  0  0  0  0
  -22.7213  -10.2097   20.3064 C   0  0  0  0  0  0
  -21.6837   -6.0717   22.5277 C   0  0  0  0  0  0
  -21.3996   -6.5622   23.8206 C   0  0  0  0  0  0
  -21.3658   -5.6781   24.9170 C   0  0  0  0  0  0
  -21.6049   -4.3047   24.7228 C   0  0  0  0  0  0
  -21.8821   -3.8136   23.4349 C   0  0  0  0  0  0
  -21.9190   -4.6946   22.3404 C   0  0  0  0  0  0
  -22.7798  -13.5169   21.1894 C   0  0  0  0  0  0
  -22.1664   -4.2131   21.0983 F   0  0  0  0  0  0
  -21.5631   -3.4538   25.7747 F   0  0  0  0  0  0
  -29.9602  -13.6549   20.3284 N   0  0  0  0  0  0
  -26.2867  -12.9280   20.3238 N   0  0  0  0  0  0
  -25.9283  -11.6439   20.5751 N   0  0  0  0  0  0
  -22.0429  -12.8175   22.0442 N   0  0  0  0  0  0
  -25.4145  -15.1794   20.4372 N   0  0  0  0  0  0
  -31.7835  -14.9757   20.2958 O   0  0  0  0  0  0
  -21.6614   -6.8856   21.4238 O   0  0  0  0  0  0
  -22.3517  -14.5498   20.6751 O   0  0  0  0  0  0
  -24.6415  -31.8477   23.1930 C   0  0  0  0  0  0
  -25.9200  -32.4716   23.8305 C   0  0  1  0  0  0
  -27.2158  -27.1750   20.1378 C   0  0  0  0  0  0
  -25.5962  -33.8522   24.2217 N   0  0  0  0  0  0
  -23.4425  -30.4697   21.5394 C   0  0  2  0  0  0
  -24.8910  -28.9062   20.1120 C   0  0  0  0  0  0
  -22.7558  -29.4562   22.4885 C   0  0  0  0  0  0
  -18.0296  -28.1398   22.8483 C   0  0  0  0  0  0
  -24.1477  -36.7245   23.2639 C   0  0  0  0  0  0
  -25.9974  -30.7320   21.3884 C   0  0  0  0  0  0
  -26.0686  -29.3475   20.7299 C   0  0  0  0  0  0
  -27.2344  -28.4972   20.7288 C   0  0  0  0  0  0
  -26.0182  -26.8391   19.4675 C   0  0  0  0  0  0
  -24.8760  -27.6630   19.4668 C   0  0  0  0  0  0
  -23.6669  -29.8047   20.1571 C   0  0  0  0  0  0
  -25.4110  -36.3042   24.0317 C   0  0  1  0  0  0
  -20.5915  -28.3715   23.1239 C   0  0  2  0  0  0
  -20.6781  -26.9422   22.5399 C   0  0  0  0  0  0
  -19.5754  -26.6387   21.5210 C   0  0  0  0  0  0
  -18.1930  -26.7936   22.1621 C   0  0  0  0  0  0
  -19.1560  -28.8873   23.2849 C   0  0  0  0  0  0
  -18.9477  -30.1470   23.8876 C   0  0  0  0  0  0
  -17.6473  -30.6598   24.0562 C   0  0  0  0  0  0
  -25.9071  -34.9418   23.5069 C   0  0  0  0  0  0
  -16.5364  -29.9092   23.6343 C   0  0  0  0  0  0
  -16.7281  -28.6511   23.0365 C   0  0  0  0  0  0
  -26.4530  -31.6583   25.0737 C   0  0  0  0  0  0
  -25.3724  -31.3748   26.1437 C   0  0  0  0  0  0
  -27.0405  -30.2988   24.6295 C   0  0  0  0  0  0
  -27.6072  -32.4349   25.7511 C   0  0  0  0  0  0
  -27.5568  -37.1767   24.8464 C   0  0  0  0  0  0
  -21.4255  -29.3044   22.3615 N   0  0  0  0  0  0
  -26.4268  -37.3760   23.9428 N   0  0  0  0  0  0
  -24.7135  -31.0369   22.0949 N   0  0  0  0  0  0
  -23.4211  -28.8098   23.3019 O   0  0  0  0  0  0
  -28.2648  -26.1955   20.1757 O   0  0  0  0  0  0
  -26.5656  -34.8910   22.4647 O   0  0  0  0  0  0
  -23.5540  -32.1340   23.7163 O   0  0  0  0  0  0
  -30.1911  -20.1830   20.3776 C   0  0  0  0  0  0
  -27.9085  -19.7081   20.1080 C   0  0  0  0  0  0
  -29.5034  -17.7144   20.0738 C   0  0  0  0  0  0
  -30.4958  -18.7517   20.2804 C   0  0  0  0  0  0
  -28.8706  -20.7403   20.2882 C   0  0  0  0  0  0
  -28.1841  -18.2941   19.9713 C   0  0  0  0  0  0
  -28.8100  -23.3792   20.2431 C   0  0  0  0  0  0
  -29.7134  -16.1640   19.6490 C   0  0  0  0  0  0
  -31.9583  -18.3467   20.3309 C   0  0  0  0  0  0
  -26.0679  -17.9385   18.8897 C   0  0  0  0  0  0
  -27.8970  -24.7312   20.5019 C   0  0  0  0  0  0
  -29.1945  -15.8836   18.5253 N   0  0  0  0  0  0
  -28.3602  -22.1322   20.4263 N   0  0  0  0  0  0
  -27.1395  -17.4364   19.6890 O   0  0  0  0  0  0
  -31.4771  -12.7102   19.1500 H   0  0  0  0  0  0
  -30.4506  -11.6058   20.0274 H   0  0  0  0  0  0
  -29.8243  -11.6348   17.6012 H   0  0  0  0  0  0
  -29.6145  -13.3646   17.6400 H   0  0  0  0  0  0
  -27.9335  -11.2371   18.9900 H   0  0  0  0  0  0
  -27.3834  -12.3948   17.8100 H   0  0  0  0  0  0
  -27.5469  -14.2073   19.3712 H   0  0  0  0  0  0
  -28.7586  -12.3214   21.4529 H   0  0  0  0  0  0
  -28.3945  -14.0174   21.6943 H   0  0  0  0  0  0
  -25.2746   -9.5623   22.4767 H   0  0  0  0  0  0
  -23.9966   -7.4585   22.7485 H   0  0  0  0  0  0
  -21.0810   -8.8746   19.8954 H   0  0  0  0  0  0
  -22.3690  -10.9638   19.6168 H   0  0  0  0  0  0
  -21.1972   -7.6128   23.9702 H   0  0  0  0  0  0
  -21.1480   -6.0514   25.9069 H   0  0  0  0  0  0
  -22.0602   -2.7601   23.2857 H   0  0  0  0  0  0
  -22.4025  -11.9819   22.4815 H   0  0  0  0  0  0
  -21.1057  -13.1226   22.2669 H   0  0  0  0  0  0
  -24.6489  -15.8250   20.5873 H   0  0  0  0  0  0
  -26.2670  -15.6458   20.1421 H   0  0  0  0  0  0
  -26.7268  -32.5335   23.1040 H   0  0  0  0  0  0
  -25.0108  -33.9645   25.0365 H   0  0  0  0  0  0
  -22.7430  -31.2945   21.3884 H   0  0  0  0  0  0
  -23.3753  -35.9560   23.3303 H   0  0  0  0  0  0
  -24.3558  -36.8879   22.2053 H   0  0  0  0  0  0
  -23.7212  -37.6431   23.6680 H   0  0  0  0  0  0
  -26.1499  -31.4868   20.6160 H   0  0  0  0  0  0
  -26.8692  -30.7808   22.0292 H   0  0  0  0  0  0
  -28.1323  -28.8306   21.2300 H   0  0  0  0  0  0
  -25.9363  -25.9069   18.9303 H   0  0  0  0  0  0
  -23.9818  -27.3263   18.9604 H   0  0  0  0  0  0
  -23.8002  -30.5819   19.4036 H   0  0  0  0  0  0
  -22.7824  -29.2462   19.8465 H   0  0  0  0  0  0
  -25.1283  -36.1869   25.0805 H   0  0  0  0  0  0
  -20.9992  -28.3305   24.1367 H   0  0  0  0  0  0
  -20.5680  -26.2325   23.3613 H   0  0  0  0  0  0
  -21.6643  -26.7432   22.1191 H   0  0  0  0  0  0
  -19.6911  -25.6292   21.1251 H   0  0  0  0  0  0
  -19.6696  -27.3183   20.6727 H   0  0  0  0  0  0
  -17.4196  -26.6688   21.4028 H   0  0  0  0  0  0
  -18.0330  -26.0079   22.9019 H   0  0  0  0  0  0
  -19.7956  -30.7289   24.2247 H   0  0  0  0  0  0
  -17.5032  -31.6280   24.5163 H   0  0  0  0  0  0
  -15.5367  -30.2987   23.7691 H   0  0  0  0  0  0
  -15.8681  -28.0825   22.7100 H   0  0  0  0  0  0
  -24.5909  -30.7092   25.7756 H   0  0  0  0  0  0
  -24.8897  -32.2916   26.4833 H   0  0  0  0  0  0
  -25.8004  -30.8946   27.0243 H   0  0  0  0  0  0
  -26.3019  -29.6707   24.1298 H   0  0  0  0  0  0
  -27.4041  -29.7291   25.4858 H   0  0  0  0  0  0
  -27.8916  -30.4254   23.9598 H   0  0  0  0  0  0
  -27.2686  -33.3688   26.2016 H   0  0  0  0  0  0
  -28.3910  -32.6853   25.0350 H   0  0  0  0  0  0
  -28.0709  -31.8524   26.5484 H   0  0  0  0  0  0
  -28.2557  -38.0093   24.7558 H   0  0  0  0  0  0
  -28.1092  -36.2625   24.6229 H   0  0  0  0  0  0
  -27.2296  -37.1342   25.8868 H   0  0  0  0  0  0
  -20.9468  -29.8769   21.6806 H   0  0  0  0  0  0
  -26.0131  -38.2813   24.1494 H   0  0  0  0  0  0
  -31.0110  -20.8721   20.5253 H   0  0  0  0  0  0
  -26.8815  -20.0385   20.0537 H   0  0  0  0  0  0
  -29.8291  -23.5774   19.9018 H   0  0  0  0  0  0
  -32.6087  -19.2067   20.4925 H   0  0  0  0  0  0
  -32.2582  -17.8780   19.3926 H   0  0  0  0  0  0
  -32.1353  -17.6397   21.1416 H   0  0  0  0  0  0
  -25.5693  -17.1108   18.3852 H   0  0  0  0  0  0
  -26.4102  -18.6219   18.1102 H   0  0  0  0  0  0
  -25.3211  -18.4432   19.5033 H   0  0  0  0  0  0
  -27.6939  -24.7405   21.5724 H   0  0  0  0  0  0
  -26.9332  -24.4873   20.0640 H   0  0  0  0  0  0
  -28.7127  -16.6893   18.1460 H   0  0  0  0  0  0
  1 25  1  0  0  0
  1 30  2  0  0  0
  1 78  1  0  0  0
  2  3  1  0  0  0
  2 25  1  0  0  0
  2 85  1  0  0  0
  2 86  1  0  0  0
  3  4  1  0  0  0
  3 87  1  0  0  0
  3 88  1  0  0  0
  4  5  1  0  0  0
  4 89  1  0  0  0
  4 90  1  0  0  0
  5  6  1  0  0  0
  5 26  1  0  0  0
  5 91  1  0  0  0
  6 25  1  0  0  0
  6 92  1  0  0  0
  6 93  1  0  0  0
  7  8  2  0  0  0
  7 26  1  0  0  0
  7 29  1  0  0  0
  8  9  1  0  0  0
  8 22  1  0  0  0
  9 10  1  0  0  0
  9 27  2  0  0  0
 10 11  2  0  0  0
 10 15  1  0  0  0
 11 12  1  0  0  0
 11 94  1  0  0  0
 12 13  2  0  0  0
 12 95  1  0  0  0
 13 14  1  0  0  0
 13 31  1  0  0  0
 14 15  2  0  0  0
 14 96  1  0  0  0
 15 97  1  0  0  0
 16 17  2  0  0  0
 16 21  1  0  0  0
 16 31  1  0  0  0
 17 18  1  0  0  0
 17 98  1  0  0  0
 18 19  2  0  0  0
 18 99  1  0  0  0
 19 20  1  0  0  0
 19 24  1  0  0  0
 20 21  2  0  0  0
 20100  1  0  0  0
 21 23  1  0  0  0
 22 28  1  0  0  0
 22 32  2  0  0  0
 26 27  1  0  0  0
 28101  1  0  0  0
 28102  1  0  0  0
 29103  1  0  0  0
 29104  1  0  0  0
 33 34  1  0  0  0
 33 66  1  0  0  0
 33 70  2  0  0  0
 34 36  1  0  0  0
 34 59  1  0  0  0
 34105  1  0  0  0
 35 44  2  0  0  0
 35 45  1  0  0  0
 35 68  1  0  0  0
 36 56  1  0  0  0
 36106  1  0  0  0
 37 39  1  0  0  0
 37 47  1  0  0  0
 37 66  1  0  0  0
 37107  1  0  0  0
 38 43  2  0  0  0
 38 46  1  0  0  0
 38 47  1  0  0  0
 39 64  1  0  0  0
 39 67  2  0  0  0
 40 52  1  0  0  0
 40 53  2  0  0  0
 40 58  1  0  0  0
 41108  1  0  0  0
 41109  1  0  0  0
 41110  1  0  0  0
 41 48  1  0  0  0
 42 43  1  0  0  0
 42 66  1  0  0  0
 42111  1  0  0  0
 42112  1  0  0  0
 43 44  1  0  0  0
 44113  1  0  0  0
 45 46  2  0  0  0
 45114  1  0  0  0
 46115  1  0  0  0
 47116  1  0  0  0
 47117  1  0  0  0
 48 56  1  0  0  0
 48 65  1  0  0  0
 48118  1  0  0  0
 49 50  1  0  0  0
 49 53  1  0  0  0
 49 64  1  0  0  0
 49119  1  0  0  0
 50 51  1  0  0  0
 50120  1  0  0  0
 50121  1  0  0  0
 51 52  1  0  0  0
 51122  1  0  0  0
 51123  1  0  0  0
 52124  1  0  0  0
 52125  1  0  0  0
 53 54  1  0  0  0
 54 55  2  0  0  0
 54126  1  0  0  0
 55 57  1  0  0  0
 55127  1  0  0  0
 56 69  2  0  0  0
 57 58  2  0  0  0
 57128  1  0  0  0
 58129  1  0  0  0
 59 60  1  0  0  0
 59 61  1  0  0  0
 59 62  1  0  0  0
 60130  1  0  0  0
 60131  1  0  0  0
 60132  1  0  0  0
 61133  1  0  0  0
 61134  1  0  0  0
 61135  1  0  0  0
 62136  1  0  0  0
 62137  1  0  0  0
 62138  1  0  0  0
 63 65  1  0  0  0
 63139  1  0  0  0
 63140  1  0  0  0
 63141  1  0  0  0
 64142  1  0  0  0
 65143  1  0  0  0
 68 81  1  0  0  0
 71 74  2  0  0  0
 71 75  1  0  0  0
 71144  1  0  0  0
 72 75  2  0  0  0
 72 76  1  0  0  0
 72145  1  0  0  0
 73 74  1  0  0  0
 73 76  2  0  0  0
 73 78  1  0  0  0
 74 79  1  0  0  0
 75 83  1  0  0  0
 76 84  1  0  0  0
 77 81  1  0  0  0
 77 83  2  0  0  0
 77146  1  0  0  0
 78 82  2  0  0  0
 79147  1  0  0  0
 79148  1  0  0  0
 79149  1  0  0  0
 80 84  1  0  0  0
 80150  1  0  0  0
 80151  1  0  0  0
 80152  1  0  0  0
 81153  1  0  0  0
 81154  1  0  0  0
 82155  1  0  0  0
M  ISO  4   1 100  68 101  78 100  81 101
M  END
> <chiral flag>
0

> <version>
0

> <s_m_source_file>
/data/baiqing/PycharmProjects/Reinvent-master-3.2/result/LINK_invent/BTK/process_docking_weight1_custom_product_contain_oxygen_bond_distance_aromatic_linkinvent_7_9_3/rearranged_h_0112.sdf

> <i_m_source_file_index>
70

> <r_mmod_Potential_Energy-OPLS-2005>
747.192016601562

> <r_mmod_Stretch_Energy-OPLS-2005>
221.287322998047

> <r_mmod_Bend_Energy-OPLS-2005>
291.9052734375

> <r_mmod_Torsional_Energy-OPLS-2005>
276.720886230469

> <r_mmod_Improper_Torsional_Energy-OPLS-2005>
26.3545951843262

> <r_mmod_Van_der_Waal_Energy-OPLS-2005>
145.645263671875

> <r_mmod_Electrostatic_Energy-OPLS-2005>
-198.706832885742

> <r_mmod_Solvation_Energy-OPLS-2005>
-194.481201171875

> <b_mmod_Minimization_Converged-OPLS-2005>
0

> <r_mmod_RMS_Derivative-OPLS-2005>
1.37640476226807

$$$$
71
                    3D
 Structure written by MMmdl.
154162  0  0  1  0            999 V2000
  -30.0792  -13.2679   20.2482 C   0  0  0  0  0  0
  -30.8359  -12.0015   19.3295 C   0  0  0  0  0  0
  -29.6720  -12.4120   18.0430 C   0  0  0  0  0  0
  -28.2862  -13.3700   18.3551 C   0  0  0  0  0  0
  -28.0751  -14.3574   19.8246 C   0  0  2  0  0  0
  -29.2274  -14.0646   21.1912 C   0  0  0  0  0  0
  -26.2314  -14.6803   21.0136 C   0  0  0  0  0  0
  -24.3272  -13.7710   20.7459 C   0  0  0  0  0  0
  -24.1409  -12.4149   20.3214 C   0  0  0  0  0  0
  -23.7701  -10.9114   20.8797 C   0  0  0  0  0  0
  -24.3257   -9.8973   21.7804 C   0  0  0  0  0  0
  -23.7178   -8.5903   22.0165 C   0  0  0  0  0  0
  -22.5134   -8.2023   21.3628 C   0  0  0  0  0  0
  -22.0014   -9.1435   20.4566 C   0  0  0  0  0  0
  -22.6118  -10.4072   20.2340 C   0  0  0  0  0  0
  -21.7823   -6.1443   22.5257 C   0  0  0  0  0  0
  -21.4645   -6.6116   23.8196 C   0  0  0  0  0  0
  -21.3778   -5.7120   24.9031 C   0  0  0  0  0  0
  -21.5994   -4.3349   24.7022 C   0  0  0  0  0  0
  -21.8774   -3.8545   23.4095 C   0  0  0  0  0  0
  -21.9516   -4.7505   22.3261 C   0  0  0  0  0  0
  -22.6339  -14.0203   21.1817 C   0  0  0  0  0  0
  -22.1794   -4.2587   21.0827 F   0  0  0  0  0  0
  -21.5465   -3.4735   25.7465 F   0  0  0  0  0  0
  -30.4395  -12.6976   20.9364 N   0  0  0  0  0  0
  -26.8829  -14.3468   20.7354 N   0  0  0  0  0  0
  -24.8424  -13.6640   20.6566 N   0  0  0  0  0  0
  -22.0314  -13.1226   21.9893 N   0  0  0  0  0  0
  -26.8879  -15.8810   21.4885 N   0  0  0  0  0  0
  -31.2357  -14.0290   20.2211 O   0  0  0  0  0  0
  -21.8382   -6.9813   21.4267 O   0  0  0  0  0  0
  -22.0034  -14.9171   20.6595 O   0  0  0  0  0  0
  -24.7401  -31.6998   23.1093 C   0  0  0  0  0  0
  -25.9748  -32.3879   23.7732 C   0  0  1  0  0  0
  -26.4006  -25.7058   20.3110 C   0  0  0  0  0  0
  -25.6112  -33.7780   24.1522 N   0  0  0  0  0  0
  -23.5456  -30.3362   21.4815 C   0  0  2  0  0  0
  -24.8507  -28.5151   20.0744 C   0  0  0  0  0  0
  -22.7756  -29.4006   22.4492 C   0  0  0  0  0  0
  -18.0372  -28.1399   22.8502 C   0  0  0  0  0  0
  -24.1528  -36.6890   23.2664 C   0  0  0  0  0  0
  -26.1064  -30.0471   21.5164 C   0  0  0  0  0  0
  -25.9881  -28.5363   20.8690 C   0  0  0  0  0  0
  -26.7511  -27.1670   20.9582 C   0  0  0  0  0  0
  -25.4773  -26.1607   19.3378 C   0  0  0  0  0  0
  -24.7204  -27.3804   19.2600 C   0  0  0  0  0  0
  -23.7873  -29.6450   20.1012 C   0  0  0  0  0  0
  -25.4189  -36.2533   24.0237 C   0  0  1  0  0  0
  -20.5967  -28.3767   23.1064 C   0  0  2  0  0  0
  -20.6762  -26.9412   22.5336 C   0  0  0  0  0  0
  -19.5698  -26.6376   21.5181 C   0  0  0  0  0  0
  -18.1948  -26.7932   22.1687 C   0  0  0  0  0  0
  -19.1636  -28.8904   23.2782 C   0  0  0  0  0  0
  -18.9575  -30.1487   23.8813 C   0  0  0  0  0  0
  -17.6563  -30.6566   24.0553 C   0  0  0  0  0  0
  -25.9224  -34.8952   23.4755 C   0  0  0  0  0  0
  -16.5446  -29.9060   23.6329 C   0  0  0  0  0  0
  -16.7374  -28.6481   23.0379 C   0  0  0  0  0  0
  -26.4792  -31.6295   25.0643 C   0  0  0  0  0  0
  -25.3769  -31.3697   26.1196 C   0  0  0  0  0  0
  -27.0957  -30.2674   24.6952 C   0  0  0  0  0  0
  -27.6023  -32.4410   25.7538 C   0  0  0  0  0  0
  -27.5505  -37.1625   24.8485 C   0  0  0  0  0  0
  -21.4381  -29.2982   22.3293 N   0  0  0  0  0  0
  -26.4207  -37.3410   23.9413 N   0  0  0  0  0  0
  -24.8470  -30.7609   22.0803 N   0  0  0  0  0  0
  -23.4013  -28.7657   23.3037 O   0  0  0  0  0  0
  -26.6737  -23.9590   20.3891 O   0  0  0  0  0  0
  -26.5948  -34.8700   22.4429 O   0  0  0  0  0  0
  -23.6396  -32.0623   23.5666 O   0  0  0  0  0  0
  -25.6469  -14.5013   18.8500 C   0  0  0  0  0  0
  -25.9693  -12.8793   22.3374 C   0  0  0  0  0  0
  -26.4793  -12.3291   20.2543 C   0  0  0  0  0  0
  -24.8196  -16.1111   20.2191 C   0  0  0  0  0  0
  -25.9024  -22.1860   20.1976 C   0  0  0  0  0  0
  -27.7752  -11.4494   20.2812 C   0  0  0  0  0  0
  -24.9985  -18.3306   20.0866 C   0  0  0  0  0  0
  -25.8964  -20.3922   20.4087 C   0  0  0  0  0  0
  -23.3538  -16.7912   23.4070 C   0  0  0  0  0  0
  -24.3783  -15.7053   23.7236 C   0  0  0  0  0  0
  -24.7914  -15.0566   22.5127 N   0  0  0  0  0  0
  -29.0589  -11.9476   20.6245 N   0  0  0  0  0  0
  -27.6804  -10.2476   20.0024 O   0  0  0  0  0  0
  -24.0092  -18.5958   19.4020 O   0  0  0  0  0  0
  -27.0078  -20.1358   21.1120 O   0  0  0  0  0  0
  -31.8836  -12.1020   19.0385 H   0  0  0  0  0  0
  -30.8375  -10.9071   19.4278 H   0  0  0  0  0  0
  -29.3561  -11.4786   17.5706 H   0  0  0  0  0  0
  -30.2635  -12.9872   17.3357 H   0  0  0  0  0  0
  -27.4054  -12.8230   18.0307 H   0  0  0  0  0  0
  -28.3319  -14.1186   17.5639 H   0  0  0  0  0  0
  -28.1928  -15.3808   19.4522 H   0  0  0  0  0  0
  -28.7334  -13.9228   22.1696 H   0  0  0  0  0  0
  -29.6024  -15.1104   21.3958 H   0  0  0  0  0  0
  -25.2366  -10.1322   22.3062 H   0  0  0  0  0  0
  -24.1893   -7.8964   22.6963 H   0  0  0  0  0  0
  -21.1099   -8.8886   19.8983 H   0  0  0  0  0  0
  -22.1145  -11.0585   19.5282 H   0  0  0  0  0  0
  -21.2887   -7.6622   23.9861 H   0  0  0  0  0  0
  -21.1449   -6.0731   25.8947 H   0  0  0  0  0  0
  -22.0311   -2.7966   23.2451 H   0  0  0  0  0  0
  -22.5586  -12.3541   22.3793 H   0  0  0  0  0  0
  -21.0579  -13.2186   22.2394 H   0  0  0  0  0  0
  -26.2471  -16.3959   22.0777 H   0  0  0  0  0  0
  -27.7789  -15.7409   21.9357 H   0  0  0  0  0  0
  -26.7772  -32.4071   23.0343 H   0  0  0  0  0  0
  -25.0132  -33.8659   24.9611 H   0  0  0  0  0  0
  -22.9185  -31.2115   21.2955 H   0  0  0  0  0  0
  -23.3813  -35.9169   23.3149 H   0  0  0  0  0  0
  -24.3632  -36.8769   22.2108 H   0  0  0  0  0  0
  -23.7260  -37.5983   23.6936 H   0  0  0  0  0  0
  -26.4390  -30.6728   20.6874 H   0  0  0  0  0  0
  -26.9435  -30.0434   22.1951 H   0  0  0  0  0  0
  -27.5412  -27.1477   21.6938 H   0  0  0  0  0  0
  -25.1352  -25.3826   18.6722 H   0  0  0  0  0  0
  -23.9180  -27.3801   18.5378 H   0  0  0  0  0  0
  -24.0870  -30.3951   19.3672 H   0  0  0  0  0  0
  -22.8351  -29.2527   19.7390 H   0  0  0  0  0  0
  -25.1430  -36.1151   25.0721 H   0  0  0  0  0  0
  -21.0129  -28.3411   24.1153 H   0  0  0  0  0  0
  -20.5621  -26.2387   23.3597 H   0  0  0  0  0  0
  -21.6603  -26.7288   22.1128 H   0  0  0  0  0  0
  -19.6795  -25.6300   21.1153 H   0  0  0  0  0  0
  -19.6540  -27.3193   20.6712 H   0  0  0  0  0  0
  -17.4156  -26.6704   21.4151 H   0  0  0  0  0  0
  -18.0415  -26.0072   22.9103 H   0  0  0  0  0  0
  -19.8061  -30.7334   24.2111 H   0  0  0  0  0  0
  -17.5126  -31.6239   24.5166 H   0  0  0  0  0  0
  -15.5436  -30.2941   23.7628 H   0  0  0  0  0  0
  -15.8835  -28.0724   22.7131 H   0  0  0  0  0  0
  -24.5700  -30.7433   25.7403 H   0  0  0  0  0  0
  -24.9323  -32.2965   26.4798 H   0  0  0  0  0  0
  -25.7818  -30.8537   26.9898 H   0  0  0  0  0  0
  -26.3711  -29.5885   24.2449 H   0  0  0  0  0  0
  -27.4743  -29.7546   25.5793 H   0  0  0  0  0  0
  -27.9516  -30.3865   24.0299 H   0  0  0  0  0  0
  -27.2379  -33.3836   26.1633 H   0  0  0  0  0  0
  -28.4112  -32.6765   25.0616 H   0  0  0  0  0  0
  -28.0363  -31.8877   26.5870 H   0  0  0  0  0  0
  -28.2374  -38.0057   24.7569 H   0  0  0  0  0  0
  -28.1164  -36.2550   24.6303 H   0  0  0  0  0  0
  -27.2204  -37.1177   25.8884 H   0  0  0  0  0  0
  -20.9716  -29.8680   21.6364 H   0  0  0  0  0  0
  -25.9921  -38.2398   24.1442 H   0  0  0  0  0  0
  -25.9529  -14.7222   17.8345 H   0  0  0  0  0  0
  -26.2349  -12.4122   23.2768 H   0  0  0  0  0  0
  -25.0050  -22.4201   19.6388 H   0  0  0  0  0  0
  -22.3635  -16.3534   23.2976 H   0  0  0  0  0  0
  -23.5829  -17.3032   22.4725 H   0  0  0  0  0  0
  -23.3198  -17.5251   24.2083 H   0  0  0  0  0  0
  -23.9703  -14.9354   24.3779 H   0  0  0  0  0  0
  -25.2629  -16.1272   24.1909 H   0  0  0  0  0  0
  -29.6839  -11.1553   20.6960 H   0  0  0  0  0  0
  -27.0805  -19.1961   21.2350 H   0  0  0  0  0  0
  1 25  1  0  0  0
  1 30  2  0  0  0
  1 82  1  0  0  0
  2  3  1  0  0  0
  2 25  1  0  0  0
  2 86  1  0  0  0
  2 87  1  0  0  0
  3  4  1  0  0  0
  3 88  1  0  0  0
  3 89  1  0  0  0
  4  5  1  0  0  0
  4 90  1  0  0  0
  4 91  1  0  0  0
  5  6  1  0  0  0
  5 26  1  0  0  0
  5 92  1  0  0  0
  6 25  1  0  0  0
  6 93  1  0  0  0
  6 94  1  0  0  0
  7  8  2  0  0  0
  7 26  1  0  0  0
  7 29  1  0  0  0
  8  9  1  0  0  0
  8 22  1  0  0  0
  9 10  1  0  0  0
  9 27  2  0  0  0
 10 11  2  0  0  0
 10 15  1  0  0  0
 11 12  1  0  0  0
 11 95  1  0  0  0
 12 13  2  0  0  0
 12 96  1  0  0  0
 13 14  1  0  0  0
 13 31  1  0  0  0
 14 15  2  0  0  0
 14 97  1  0  0  0
 15 98  1  0  0  0
 16 17  2  0  0  0
 16 21  1  0  0  0
 16 31  1  0  0  0
 17 18  1  0  0  0
 17 99  1  0  0  0
 18 19  2  0  0  0
 18100  1  0  0  0
 19 20  1  0  0  0
 19 24  1  0  0  0
 20 21  2  0  0  0
 20101  1  0  0  0
 21 23  1  0  0  0
 22 28  1  0  0  0
 22 32  2  0  0  0
 26 27  1  0  0  0
 28102  1  0  0  0
 28103  1  0  0  0
 29104  1  0  0  0
 29105  1  0  0  0
 33 34  1  0  0  0
 33 66  1  0  0  0
 33 70  2  0  0  0
 34 36  1  0  0  0
 34 59  1  0  0  0
 34106  1  0  0  0
 35 44  2  0  0  0
 35 45  1  0  0  0
 35 68  1  0  0  0
 36 56  1  0  0  0
 36107  1  0  0  0
 37 39  1  0  0  0
 37 47  1  0  0  0
 37 66  1  0  0  0
 37108  1  0  0  0
 38 43  2  0  0  0
 38 46  1  0  0  0
 38 47  1  0  0  0
 39 64  1  0  0  0
 39 67  2  0  0  0
 40 52  1  0  0  0
 40 53  2  0  0  0
 40 58  1  0  0  0
 41109  1  0  0  0
 41110  1  0  0  0
 41111  1  0  0  0
 41 48  1  0  0  0
 42 43  1  0  0  0
 42 66  1  0  0  0
 42112  1  0  0  0
 42113  1  0  0  0
 43 44  1  0  0  0
 44114  1  0  0  0
 45 46  2  0  0  0
 45115  1  0  0  0
 46116  1  0  0  0
 47117  1  0  0  0
 47118  1  0  0  0
 48 56  1  0  0  0
 48 65  1  0  0  0
 48119  1  0  0  0
 49 50  1  0  0  0
 49 53  1  0  0  0
 49 64  1  0  0  0
 49120  1  0  0  0
 50 51  1  0  0  0
 50121  1  0  0  0
 50122  1  0  0  0
 51 52  1  0  0  0
 51123  1  0  0  0
 51124  1  0  0  0
 52125  1  0  0  0
 52126  1  0  0  0
 53 54  1  0  0  0
 54 55  2  0  0  0
 54127  1  0  0  0
 55 57  1  0  0  0
 55128  1  0  0  0
 56 69  2  0  0  0
 57 58  2  0  0  0
 57129  1  0  0  0
 58130  1  0  0  0
 59 60  1  0  0  0
 59 61  1  0  0  0
 59 62  1  0  0  0
 60131  1  0  0  0
 60132  1  0  0  0
 60133  1  0  0  0
 61134  1  0  0  0
 61135  1  0  0  0
 61136  1  0  0  0
 62137  1  0  0  0
 62138  1  0  0  0
 62139  1  0  0  0
 63 65  1  0  0  0
 63140  1  0  0  0
 63141  1  0  0  0
 63142  1  0  0  0
 64143  1  0  0  0
 65144  1  0  0  0
 68 75  1  0  0  0
 71 73  1  0  0  0
 71 74  2  0  0  0
 71145  1  0  0  0
 72 73  2  0  0  0
 72 81  1  0  0  0
 72146  1  0  0  0
 73 76  1  0  0  0
 74 77  1  0  0  0
 74 81  1  0  0  0
 75 78  2  0  0  0
 75147  1  0  0  0
 76 82  1  0  0  0
 76 83  2  0  0  0
 77 78  1  0  0  0
 77 84  2  0  0  0
 78 85  1  0  0  0
 79 80  1  0  0  0
 79148  1  0  0  0
 79149  1  0  0  0
 79150  1  0  0  0
 80 81  1  0  0  0
 80151  1  0  0  0
 80152  1  0  0  0
 82153  1  0  0  0
 85154  1  0  0  0
M  ISO  4   1 100  68 101  75 101  82 100
M  END
> <chiral flag>
0

> <version>
0

> <s_m_source_file>
/data/baiqing/PycharmProjects/Reinvent-master-3.2/result/LINK_invent/BTK/process_docking_weight1_custom_product_contain_oxygen_bond_distance_aromatic_linkinvent_7_9_3/rearranged_h_0112.sdf

> <i_m_source_file_index>
71

> <r_mmod_Potential_Energy-OPLS-2005>
33522.19140625

> <r_mmod_Stretch_Energy-OPLS-2005>
19305.580078125

> <r_mmod_Bend_Energy-OPLS-2005>
3533.97607421875

> <r_mmod_Torsional_Energy-OPLS-2005>
680.190979003906

> <r_mmod_Improper_Torsional_Energy-OPLS-2005>
93.8045806884766

> <r_mmod_Van_der_Waal_Energy-OPLS-2005>
5993.9375

> <r_mmod_Electrostatic_Energy-OPLS-2005>
-349.845825195312

> <r_mmod_Solvation_Energy-OPLS-2005>
-284.911041259766

> <b_mmod_Minimization_Converged-OPLS-2005>
0

> <r_mmod_RMS_Derivative-OPLS-2005>
23.5846500396729

$$$$
72
                    3D
 Structure written by MMmdl.
160169  0  0  1  0            999 V2000
  -30.6509  -14.6166   20.4037 C   0  0  0  0  0  0
  -30.4218  -12.3580   19.4437 C   0  0  0  0  0  0
  -29.4925  -12.4609   18.2174 C   0  0  0  0  0  0
  -28.0165  -12.3255   18.6389 C   0  0  0  0  0  0
  -27.6459  -13.2187   19.8538 C   0  0  2  0  0  0
  -28.6998  -13.1105   20.9797 C   0  0  0  0  0  0
  -25.2536  -13.8203   20.5708 C   0  0  0  0  0  0
  -24.1816  -13.0452   20.9233 C   0  0  0  0  0  0
  -24.6408  -11.6919   20.8818 C   0  0  0  0  0  0
  -23.9092  -10.4297   21.0452 C   0  0  0  0  0  0
  -24.3648   -9.4193   21.9206 C   0  0  0  0  0  0
  -23.6298   -8.2242   22.0759 C   0  0  0  0  0  0
  -22.4279   -8.0296   21.3549 C   0  0  0  0  0  0
  -21.9935   -9.0291   20.4657 C   0  0  0  0  0  0
  -22.7284  -10.2155   20.3072 C   0  0  0  0  0  0
  -21.6846   -6.0745   22.5274 C   0  0  0  0  0  0
  -21.4022   -6.5648   23.8208 C   0  0  0  0  0  0
  -21.3646   -5.6795   24.9169 C   0  0  0  0  0  0
  -21.6040   -4.3055   24.7219 C   0  0  0  0  0  0
  -21.8821   -3.8151   23.4336 C   0  0  0  0  0  0
  -21.9189   -4.6973   22.3395 C   0  0  0  0  0  0
  -22.7831  -13.5226   21.1868 C   0  0  0  0  0  0
  -22.1649   -4.2167   21.0967 F   0  0  0  0  0  0
  -21.5622   -3.4528   25.7726 F   0  0  0  0  0  0
  -30.0056  -13.4141   20.3828 N   0  0  0  0  0  0
  -26.2965  -12.9385   20.3338 N   0  0  0  0  0  0
  -25.9339  -11.6544   20.5844 N   0  0  0  0  0  0
  -22.0481  -12.8214   22.0415 N   0  0  0  0  0  0
  -25.4208  -15.1925   20.4088 N   0  0  0  0  0  0
  -31.8541  -14.6808   20.1407 O   0  0  0  0  0  0
  -21.6622   -6.8906   21.4241 O   0  0  0  0  0  0
  -22.3500  -14.5534   20.6702 O   0  0  0  0  0  0
  -24.6205  -31.8679   23.2079 C   0  0  0  0  0  0
  -25.9082  -32.4829   23.8401 C   0  0  1  0  0  0
  -27.2344  -27.3669   20.1151 C   0  0  0  0  0  0
  -25.5942  -33.8621   24.2335 N   0  0  0  0  0  0
  -23.4134  -30.4936   21.5452 C   0  0  2  0  0  0
  -24.8673  -28.9380   20.1248 C   0  0  0  0  0  0
  -22.7438  -29.4706   22.4928 C   0  0  0  0  0  0
  -18.0279  -28.1434   22.8512 C   0  0  0  0  0  0
  -24.1440  -36.7308   23.2633 C   0  0  0  0  0  0
  -25.9470  -30.8071   21.3758 C   0  0  0  0  0  0
  -26.0286  -29.4302   20.7323 C   0  0  0  0  0  0
  -27.2211  -28.6500   20.7298 C   0  0  0  0  0  0
  -26.0551  -26.9074   19.5010 C   0  0  0  0  0  0
  -24.8771  -27.6771   19.5041 C   0  0  0  0  0  0
  -23.6366  -29.8234   20.1613 C   0  0  0  0  0  0
  -25.4083  -36.3121   24.0330 C   0  0  1  0  0  0
  -20.5880  -28.3779   23.1278 C   0  0  2  0  0  0
  -20.6757  -26.9513   22.5415 C   0  0  0  0  0  0
  -19.5741  -26.6462   21.5213 C   0  0  0  0  0  0
  -18.1937  -26.7987   22.1635 C   0  0  0  0  0  0
  -19.1533  -28.8921   23.2886 C   0  0  0  0  0  0
  -18.9458  -30.1487   23.8965 C   0  0  0  0  0  0
  -17.6473  -30.6644   24.0614 C   0  0  0  0  0  0
  -25.9026  -34.9484   23.5129 C   0  0  0  0  0  0
  -16.5364  -29.9166   23.6334 C   0  0  0  0  0  0
  -16.7276  -28.6557   23.0403 C   0  0  0  0  0  0
  -26.4489  -31.6618   25.0735 C   0  0  0  0  0  0
  -25.3735  -31.3766   26.1479 C   0  0  0  0  0  0
  -27.0286  -30.3040   24.6142 C   0  0  0  0  0  0
  -27.6063  -32.4325   25.7527 C   0  0  0  0  0  0
  -27.5554  -37.1814   24.8475 C   0  0  0  0  0  0
  -21.4171  -29.3114   22.3655 N   0  0  0  0  0  0
  -26.4266  -37.3815   23.9397 N   0  0  0  0  0  0
  -24.6775  -31.0719   22.1005 N   0  0  0  0  0  0
  -23.4162  -28.8246   23.3010 O   0  0  0  0  0  0
  -28.3497  -26.5438   20.0304 O   0  0  0  0  0  0
  -26.5556  -34.8939   22.4662 O   0  0  0  0  0  0
  -23.5387  -32.1475   23.7444 O   0  0  0  0  0  0
  -29.3578  -18.2064   19.9348 C   0  0  0  0  0  0
  -31.1249  -19.8733   20.1586 C   0  0  0  0  0  0
  -31.5628  -17.5495   20.7288 C   0  0  0  0  0  0
  -29.7730  -19.5844   19.8821 C   0  0  0  0  0  0
  -30.2547  -17.1556   20.3515 C   0  0  0  0  0  0
  -32.0028  -18.8819   20.6172 C   0  0  0  0  0  0
  -28.6111  -24.2306   20.9276 C   0  0  0  0  0  0
  -28.5322  -25.5953   21.0230 C   0  0  0  0  0  0
  -28.8835  -20.7563   19.4455 C   0  0  0  0  0  0
  -28.8851  -23.3627   22.1324 C   0  0  0  0  0  0
  -28.4611  -23.2755   19.7355 C   0  0  0  0  0  0
  -29.1674  -21.9400   21.6204 C   0  0  0  0  0  0
  -33.7313  -18.8754   22.2224 C   0  0  0  0  0  0
  -28.9058  -21.9178   20.1772 N   0  0  0  0  0  0
  -29.8645  -15.7448   20.4244 N   0  0  0  0  0  0
  -28.2391  -20.6566   18.3958 O   0  0  0  0  0  0
  -33.2836  -19.2592   20.9287 O   0  0  0  0  0  0
  -31.4641  -12.4589   19.1340 H   0  0  0  0  0  0
  -30.3448  -11.3750   19.9111 H   0  0  0  0  0  0
  -29.7401  -11.6837   17.4949 H   0  0  0  0  0  0
  -29.6454  -13.4151   17.7098 H   0  0  0  0  0  0
  -27.8479  -11.2765   18.8855 H   0  0  0  0  0  0
  -27.3615  -12.5428   17.7945 H   0  0  0  0  0  0
  -27.6521  -14.2466   19.4887 H   0  0  0  0  0  0
  -28.7082  -12.1093   21.4156 H   0  0  0  0  0  0
  -28.4749  -13.7970   21.7983 H   0  0  0  0  0  0
  -25.2809   -9.5613   22.4781 H   0  0  0  0  0  0
  -23.9991   -7.4608   22.7465 H   0  0  0  0  0  0
  -21.0872   -8.8838   19.8957 H   0  0  0  0  0  0
  -22.3789  -10.9708   19.6172 H   0  0  0  0  0  0
  -21.2027   -7.6155   23.9724 H   0  0  0  0  0  0
  -21.1455   -6.0516   25.9072 H   0  0  0  0  0  0
  -22.0617   -2.7616   23.2824 H   0  0  0  0  0  0
  -22.4093  -11.9876   22.4833 H   0  0  0  0  0  0
  -21.1095  -13.1227   22.2635 H   0  0  0  0  0  0
  -24.6618  -15.8510   20.5535 H   0  0  0  0  0  0
  -26.2542  -15.6309   20.0419 H   0  0  0  0  0  0
  -26.7187  -32.5541   23.1178 H   0  0  0  0  0  0
  -25.0083  -33.9770   25.0499 H   0  0  0  0  0  0
  -22.7087  -31.3140   21.3967 H   0  0  0  0  0  0
  -23.3694  -35.9649   23.3331 H   0  0  0  0  0  0
  -24.3523  -36.8904   22.2050 H   0  0  0  0  0  0
  -23.7212  -37.6523   23.6626 H   0  0  0  0  0  0
  -26.0557  -31.5620   20.5964 H   0  0  0  0  0  0
  -26.8344  -30.8767   21.9925 H   0  0  0  0  0  0
  -28.1196  -29.0188   21.2063 H   0  0  0  0  0  0
  -26.0620  -25.9412   19.0173 H   0  0  0  0  0  0
  -23.9911  -27.2950   19.0161 H   0  0  0  0  0  0
  -23.7729  -30.5967   19.4050 H   0  0  0  0  0  0
  -22.7633  -29.2559   19.8465 H   0  0  0  0  0  0
  -25.1255  -36.2001   25.0828 H   0  0  0  0  0  0
  -20.9972  -28.3387   24.1396 H   0  0  0  0  0  0
  -20.5680  -26.2437   23.3641 H   0  0  0  0  0  0
  -21.6627  -26.7558   22.1229 H   0  0  0  0  0  0
  -19.6908  -25.6358   21.1279 H   0  0  0  0  0  0
  -19.6629  -27.3229   20.6697 H   0  0  0  0  0  0
  -17.4187  -26.6766   21.4056 H   0  0  0  0  0  0
  -18.0349  -26.0093   22.9000 H   0  0  0  0  0  0
  -19.7942  -30.7257   24.2426 H   0  0  0  0  0  0
  -17.5047  -31.6331   24.5191 H   0  0  0  0  0  0
  -15.5382  -30.3131   23.7591 H   0  0  0  0  0  0
  -15.8659  -28.0880   22.7163 H   0  0  0  0  0  0
  -24.5888  -30.7126   25.7827 H   0  0  0  0  0  0
  -24.8945  -32.2933   26.4944 H   0  0  0  0  0  0
  -25.8093  -30.8937   27.0241 H   0  0  0  0  0  0
  -26.2832  -29.6858   24.1109 H   0  0  0  0  0  0
  -27.3913  -29.7262   25.4658 H   0  0  0  0  0  0
  -27.8744  -30.4278   23.9365 H   0  0  0  0  0  0
  -27.2673  -33.3614   26.2137 H   0  0  0  0  0  0
  -28.3880  -32.6939   25.0369 H   0  0  0  0  0  0
  -28.0682  -31.8402   26.5442 H   0  0  0  0  0  0
  -28.2606  -38.0074   24.7479 H   0  0  0  0  0  0
  -28.1003  -36.2611   24.6335 H   0  0  0  0  0  0
  -27.2269  -37.1550   25.8880 H   0  0  0  0  0  0
  -20.9393  -29.8878   21.6862 H   0  0  0  0  0  0
  -26.0161  -38.2879   24.1436 H   0  0  0  0  0  0
  -28.3434  -17.9605   19.6460 H   0  0  0  0  0  0
  -31.4910  -20.8865   20.0554 H   0  0  0  0  0  0
  -32.2722  -16.8215   21.0875 H   0  0  0  0  0  0
  -28.6778  -26.0934   21.9713 H   0  0  0  0  0  0
  -28.0062  -23.3610   22.7807 H   0  0  0  0  0  0
  -29.7227  -23.7497   22.7139 H   0  0  0  0  0  0
  -29.0403  -23.6344   18.8819 H   0  0  0  0  0  0
  -27.4108  -23.2406   19.4423 H   0  0  0  0  0  0
  -28.5055  -21.2173   22.1045 H   0  0  0  0  0  0
  -30.1921  -21.6500   21.8546 H   0  0  0  0  0  0
  -34.7584  -19.2083   22.3607 H   0  0  0  0  0  0
  -33.7174  -17.7987   22.3893 H   0  0  0  0  0  0
  -33.1252  -19.3518   22.9916 H   0  0  0  0  0  0
  -28.8747  -15.5538   20.4217 H   0  0  0  0  0  0
  1 25  1  0  0  0
  1 30  2  0  0  0
  1 85  1  0  0  0
  2  3  1  0  0  0
  2 25  1  0  0  0
  2 88  1  0  0  0
  2 89  1  0  0  0
  3  4  1  0  0  0
  3 90  1  0  0  0
  3 91  1  0  0  0
  4  5  1  0  0  0
  4 92  1  0  0  0
  4 93  1  0  0  0
  5  6  1  0  0  0
  5 26  1  0  0  0
  5 94  1  0  0  0
  6 25  1  0  0  0
  6 95  1  0  0  0
  6 96  1  0  0  0
  7  8  2  0  0  0
  7 26  1  0  0  0
  7 29  1  0  0  0
  8  9  1  0  0  0
  8 22  1  0  0  0
  9 10  1  0  0  0
  9 27  2  0  0  0
 10 11  2  0  0  0
 10 15  1  0  0  0
 11 12  1  0  0  0
 11 97  1  0  0  0
 12 13  2  0  0  0
 12 98  1  0  0  0
 13 14  1  0  0  0
 13 31  1  0  0  0
 14 15  2  0  0  0
 14 99  1  0  0  0
 15100  1  0  0  0
 16 17  2  0  0  0
 16 21  1  0  0  0
 16 31  1  0  0  0
 17 18  1  0  0  0
 17101  1  0  0  0
 18 19  2  0  0  0
 18102  1  0  0  0
 19 20  1  0  0  0
 19 24  1  0  0  0
 20 21  2  0  0  0
 20103  1  0  0  0
 21 23  1  0  0  0
 22 28  1  0  0  0
 22 32  2  0  0  0
 26 27  1  0  0  0
 28104  1  0  0  0
 28105  1  0  0  0
 29106  1  0  0  0
 29107  1  0  0  0
 33 34  1  0  0  0
 33 66  1  0  0  0
 33 70  2  0  0  0
 34 36  1  0  0  0
 34 59  1  0  0  0
 34108  1  0  0  0
 35 44  2  0  0  0
 35 45  1  0  0  0
 35 68  1  0  0  0
 36 56  1  0  0  0
 36109  1  0  0  0
 37 39  1  0  0  0
 37 47  1  0  0  0
 37 66  1  0  0  0
 37110  1  0  0  0
 38 43  2  0  0  0
 38 46  1  0  0  0
 38 47  1  0  0  0
 39 64  1  0  0  0
 39 67  2  0  0  0
 40 52  1  0  0  0
 40 53  2  0  0  0
 40 58  1  0  0  0
 41111  1  0  0  0
 41112  1  0  0  0
 41113  1  0  0  0
 41 48  1  0  0  0
 42 43  1  0  0  0
 42 66  1  0  0  0
 42114  1  0  0  0
 42115  1  0  0  0
 43 44  1  0  0  0
 44116  1  0  0  0
 45 46  2  0  0  0
 45117  1  0  0  0
 46118  1  0  0  0
 47119  1  0  0  0
 47120  1  0  0  0
 48 56  1  0  0  0
 48 65  1  0  0  0
 48121  1  0  0  0
 49 50  1  0  0  0
 49 53  1  0  0  0
 49 64  1  0  0  0
 49122  1  0  0  0
 50 51  1  0  0  0
 50123  1  0  0  0
 50124  1  0  0  0
 51 52  1  0  0  0
 51125  1  0  0  0
 51126  1  0  0  0
 52127  1  0  0  0
 52128  1  0  0  0
 53 54  1  0  0  0
 54 55  2  0  0  0
 54129  1  0  0  0
 55 57  1  0  0  0
 55130  1  0  0  0
 56 69  2  0  0  0
 57 58  2  0  0  0
 57131  1  0  0  0
 58132  1  0  0  0
 59 60  1  0  0  0
 59 61  1  0  0  0
 59 62  1  0  0  0
 60133  1  0  0  0
 60134  1  0  0  0
 60135  1  0  0  0
 61136  1  0  0  0
 61137  1  0  0  0
 61138  1  0  0  0
 62139  1  0  0  0
 62140  1  0  0  0
 62141  1  0  0  0
 63 65  1  0  0  0
 63142  1  0  0  0
 63143  1  0  0  0
 63144  1  0  0  0
 64145  1  0  0  0
 65146  1  0  0  0
 68 78  1  0  0  0
 71 74  2  0  0  0
 71 75  1  0  0  0
 71147  1  0  0  0
 72 74  1  0  0  0
 72 76  2  0  0  0
 72148  1  0  0  0
 73 75  2  0  0  0
 73 76  1  0  0  0
 73149  1  0  0  0
 74 79  1  0  0  0
 75 85  1  0  0  0
 76 87  1  0  0  0
 77 78  2  0  0  0
 77 80  1  0  0  0
 77 81  1  0  0  0
 78150  1  0  0  0
 79 84  1  0  0  0
 79 86  2  0  0  0
 80 82  1  0  0  0
 80151  1  0  0  0
 80152  1  0  0  0
 81 84  1  0  0  0
 81153  1  0  0  0
 81154  1  0  0  0
 82 84  1  0  0  0
 82155  1  0  0  0
 82156  1  0  0  0
 83 87  1  0  0  0
 83157  1  0  0  0
 83158  1  0  0  0
 83159  1  0  0  0
 85160  1  0  0  0
M  ISO  4   1 100  68 101  78 101  85 100
M  END
> <chiral flag>
0

> <version>
0

> <s_m_source_file>
/data/baiqing/PycharmProjects/Reinvent-master-3.2/result/LINK_invent/BTK/process_docking_weight1_custom_product_contain_oxygen_bond_distance_aromatic_linkinvent_7_9_3/rearranged_h_0112.sdf

> <i_m_source_file_index>
72

> <r_mmod_Potential_Energy-OPLS-2005>
138.808258056641

> <r_mmod_Stretch_Energy-OPLS-2005>
63.4764633178711

> <r_mmod_Bend_Energy-OPLS-2005>
142.985015869141

> <r_mmod_Torsional_Energy-OPLS-2005>
333.356750488281

> <r_mmod_Improper_Torsional_Energy-OPLS-2005>
8.75081157684326

> <r_mmod_Van_der_Waal_Energy-OPLS-2005>
146.479415893555

> <r_mmod_Electrostatic_Energy-OPLS-2005>
-365.925262451172

> <r_mmod_Solvation_Energy-OPLS-2005>
-231.882202148438

> <b_mmod_Minimization_Converged-OPLS-2005>
0

> <r_mmod_RMS_Derivative-OPLS-2005>
5.48873424530029

$$$$
73
                    3D
 Structure written by MMmdl.
156164  0  0  1  0            999 V2000
  -30.5938  -14.6955   20.4644 C   0  0  0  0  0  0
  -30.4455  -12.4225   19.4527 C   0  0  0  0  0  0
  -29.5103  -12.5064   18.2248 C   0  0  0  0  0  0
  -28.0343  -12.3356   18.6397 C   0  0  0  0  0  0
  -27.6485  -13.2180   19.8567 C   0  0  2  0  0  0
  -28.6983  -13.1011   20.9851 C   0  0  0  0  0  0
  -25.2549  -13.8124   20.5762 C   0  0  0  0  0  0
  -24.1811  -13.0390   20.9203 C   0  0  0  0  0  0
  -24.6391  -11.6872   20.8728 C   0  0  0  0  0  0
  -23.9061  -10.4265   21.0395 C   0  0  0  0  0  0
  -24.3613   -9.4189   21.9179 C   0  0  0  0  0  0
  -23.6285   -8.2229   22.0754 C   0  0  0  0  0  0
  -22.4267   -8.0271   21.3543 C   0  0  0  0  0  0
  -21.9900   -9.0242   20.4644 C   0  0  0  0  0  0
  -22.7231  -10.2117   20.3049 C   0  0  0  0  0  0
  -21.6849   -6.0729   22.5279 C   0  0  0  0  0  0
  -21.4012   -6.5635   23.8212 C   0  0  0  0  0  0
  -21.3659   -5.6789   24.9174 C   0  0  0  0  0  0
  -21.6045   -4.3052   24.7226 C   0  0  0  0  0  0
  -21.8820   -3.8142   23.4348 C   0  0  0  0  0  0
  -21.9192   -4.6957   22.3402 C   0  0  0  0  0  0
  -22.7837  -13.5199   21.1862 C   0  0  0  0  0  0
  -22.1662   -4.2144   21.0980 F   0  0  0  0  0  0
  -21.5629   -3.4537   25.7740 F   0  0  0  0  0  0
  -30.0066  -13.4552   20.4118 N   0  0  0  0  0  0
  -26.2973  -12.9328   20.3312 N   0  0  0  0  0  0
  -25.9321  -11.6478   20.5732 N   0  0  0  0  0  0
  -22.0472  -12.8203   22.0418 N   0  0  0  0  0  0
  -25.4210  -15.1847   20.4355 N   0  0  0  0  0  0
  -31.7780  -14.8556   20.1539 O   0  0  0  0  0  0
  -21.6632   -6.8870   21.4240 O   0  0  0  0  0  0
  -22.3533  -14.5511   20.6712 O   0  0  0  0  0  0
  -24.6276  -31.8580   23.2016 C   0  0  0  0  0  0
  -25.9115  -32.4769   23.8350 C   0  0  1  0  0  0
  -27.2284  -27.3012   20.1218 C   0  0  0  0  0  0
  -25.5923  -33.8572   24.2274 N   0  0  0  0  0  0
  -23.4234  -30.4805   21.5438 C   0  0  2  0  0  0
  -24.8728  -28.9326   20.1108 C   0  0  0  0  0  0
  -22.7485  -29.4611   22.4926 C   0  0  0  0  0  0
  -18.0289  -28.1387   22.8485 C   0  0  0  0  0  0
  -24.1489  -36.7293   23.2638 C   0  0  0  0  0  0
  -25.9661  -30.7807   21.3787 C   0  0  0  0  0  0
  -26.0408  -29.4054   20.7236 C   0  0  0  0  0  0
  -27.2205  -28.5992   20.7249 C   0  0  0  0  0  0
  -26.0425  -26.8933   19.4701 C   0  0  0  0  0  0
  -24.8757  -27.6812   19.4759 C   0  0  0  0  0  0
  -23.6410  -29.8146   20.1594 C   0  0  0  0  0  0
  -25.4113  -36.3079   24.0329 C   0  0  1  0  0  0
  -20.5889  -28.3693   23.1277 C   0  0  2  0  0  0
  -20.6777  -26.9414   22.5409 C   0  0  0  0  0  0
  -19.5752  -26.6384   21.5212 C   0  0  0  0  0  0
  -18.1933  -26.7929   22.1625 C   0  0  0  0  0  0
  -19.1541  -28.8857   23.2876 C   0  0  0  0  0  0
  -18.9463  -30.1458   23.8894 C   0  0  0  0  0  0
  -17.6463  -30.6588   24.0563 C   0  0  0  0  0  0
  -25.9050  -34.9447   23.5104 C   0  0  0  0  0  0
  -16.5354  -29.9086   23.6330 C   0  0  0  0  0  0
  -16.7275  -28.6504   23.0350 C   0  0  0  0  0  0
  -26.4494  -31.6584   25.0727 C   0  0  0  0  0  0
  -25.3725  -31.3729   26.1453 C   0  0  0  0  0  0
  -27.0341  -30.3004   24.6199 C   0  0  0  0  0  0
  -27.6052  -32.4323   25.7497 C   0  0  0  0  0  0
  -27.5580  -37.1799   24.8463 C   0  0  0  0  0  0
  -21.4196  -29.3043   22.3668 N   0  0  0  0  0  0
  -26.4289  -37.3775   23.9409 N   0  0  0  0  0  0
  -24.6910  -31.0570   22.0981 N   0  0  0  0  0  0
  -23.4196  -28.8151   23.3016 O   0  0  0  0  0  0
  -28.3327  -26.4271   20.1485 O   0  0  0  0  0  0
  -26.5623  -34.8917   22.4673 O   0  0  0  0  0  0
  -23.5433  -32.1390   23.7328 O   0  0  0  0  0  0
  -30.9149  -18.0176   20.8576 C   0  0  0  0  0  0
  -28.5993  -19.3376   20.0056 C   0  0  0  0  0  0
  -30.8671  -19.4514   20.7922 C   0  0  0  0  0  0
  -29.8047  -17.2058   20.5042 C   0  0  0  0  0  0
  -29.6932  -20.1612   20.3862 C   0  0  0  0  0  0
  -28.6483  -17.9009   20.0457 C   0  0  0  0  0  0
  -29.0170  -24.0004   20.1807 C   0  0  0  0  0  0
  -28.1150  -25.0349   20.3284 C   0  0  0  0  0  0
  -28.6501  -22.5561   20.3589 C   0  0  0  0  0  0
  -32.1085  -20.2313   21.1893 C   0  0  0  0  0  0
  -26.6187  -17.7166   18.7841 C   0  0  0  0  0  0
  -29.6790  -21.6411   20.3118 N   0  0  0  0  0  0
  -29.7256  -15.7441   20.6567 N   0  0  0  0  0  0
  -27.4875  -22.1884   20.5443 O   0  0  0  0  0  0
  -27.5909  -17.1144   19.6349 O   0  0  0  0  0  0
  -31.4836  -12.5640   19.1468 H   0  0  0  0  0  0
  -30.3980  -11.4333   19.9108 H   0  0  0  0  0  0
  -29.7823  -11.7461   17.4914 H   0  0  0  0  0  0
  -29.6411  -13.4695   17.7285 H   0  0  0  0  0  0
  -27.8819  -11.2839   18.8851 H   0  0  0  0  0  0
  -27.3772  -12.5477   17.7956 H   0  0  0  0  0  0
  -27.6508  -14.2467   19.4968 H   0  0  0  0  0  0
  -28.7234  -12.0864   21.3850 H   0  0  0  0  0  0
  -28.4422  -13.7481   21.8259 H   0  0  0  0  0  0
  -25.2760   -9.5667   22.4750 H   0  0  0  0  0  0
  -23.9992   -7.4623   22.7477 H   0  0  0  0  0  0
  -21.0828   -8.8761   19.8954 H   0  0  0  0  0  0
  -22.3690  -10.9657   19.6158 H   0  0  0  0  0  0
  -21.2004   -7.6144   23.9713 H   0  0  0  0  0  0
  -21.1481   -6.0520   25.9077 H   0  0  0  0  0  0
  -22.0601   -2.7604   23.2850 H   0  0  0  0  0  0
  -22.4080  -11.9863   22.4812 H   0  0  0  0  0  0
  -21.1095  -13.1244   22.2622 H   0  0  0  0  0  0
  -24.6506  -15.8280   20.5777 H   0  0  0  0  0  0
  -26.2754  -15.6510   20.1507 H   0  0  0  0  0  0
  -26.7184  -32.5436   23.1099 H   0  0  0  0  0  0
  -25.0058  -33.9713   25.0410 H   0  0  0  0  0  0
  -22.7184  -31.3017   21.3990 H   0  0  0  0  0  0
  -23.3750  -35.9627   23.3298 H   0  0  0  0  0  0
  -24.3582  -36.8917   22.2054 H   0  0  0  0  0  0
  -23.7244  -37.6495   23.6663 H   0  0  0  0  0  0
  -26.1007  -31.5417   20.6088 H   0  0  0  0  0  0
  -26.8452  -30.8306   22.0095 H   0  0  0  0  0  0
  -28.1153  -28.9540   21.2167 H   0  0  0  0  0  0
  -26.0043  -25.9393   18.9638 H   0  0  0  0  0  0
  -23.9836  -27.3158   18.9857 H   0  0  0  0  0  0
  -23.7620  -30.5913   19.4034 H   0  0  0  0  0  0
  -22.7608  -29.2451   19.8556 H   0  0  0  0  0  0
  -25.1293  -36.1930   25.0821 H   0  0  0  0  0  0
  -20.9980  -28.3270   24.1398 H   0  0  0  0  0  0
  -20.5678  -26.2302   23.3611 H   0  0  0  0  0  0
  -21.6645  -26.7441   22.1202 H   0  0  0  0  0  0
  -19.6914  -25.6294   21.1242 H   0  0  0  0  0  0
  -19.6688  -27.3193   20.6741 H   0  0  0  0  0  0
  -17.4200  -26.6672   21.4031 H   0  0  0  0  0  0
  -18.0336  -26.0074   22.9026 H   0  0  0  0  0  0
  -19.7939  -30.7275   24.2261 H   0  0  0  0  0  0
  -17.5017  -31.6268   24.5166 H   0  0  0  0  0  0
  -15.5355  -30.2988   23.7655 H   0  0  0  0  0  0
  -15.8675  -28.0824   22.7065 H   0  0  0  0  0  0
  -24.5896  -30.7082   25.7782 H   0  0  0  0  0  0
  -24.8923  -32.2898   26.4879 H   0  0  0  0  0  0
  -25.8046  -30.8903   27.0228 H   0  0  0  0  0  0
  -26.2922  -29.6751   24.1218 H   0  0  0  0  0  0
  -27.4023  -29.7265   25.4713 H   0  0  0  0  0  0
  -27.8798  -30.4283   23.9439 H   0  0  0  0  0  0
  -27.2659  -33.3621   26.2074 H   0  0  0  0  0  0
  -28.3860  -32.6885   25.0324 H   0  0  0  0  0  0
  -28.0722  -31.8450   26.5414 H   0  0  0  0  0  0
  -28.2591  -38.0103   24.7517 H   0  0  0  0  0  0
  -28.1082  -36.2635   24.6277 H   0  0  0  0  0  0
  -27.2300  -37.1434   25.8866 H   0  0  0  0  0  0
  -20.9376  -29.8768   21.6878 H   0  0  0  0  0  0
  -26.0171  -38.2849   24.1413 H   0  0  0  0  0  0
  -31.8168  -17.5348   21.2071 H   0  0  0  0  0  0
  -27.7034  -19.8315   19.6646 H   0  0  0  0  0  0
  -30.0330  -24.2456   19.9083 H   0  0  0  0  0  0
  -27.0951  -24.8223   20.6203 H   0  0  0  0  0  0
  -32.9057  -19.5719   21.5336 H   0  0  0  0  0  0
  -31.8820  -20.9272   21.9978 H   0  0  0  0  0  0
  -32.4908  -20.7988   20.3404 H   0  0  0  0  0  0
  -25.9937  -16.9445   18.3361 H   0  0  0  0  0  0
  -27.0803  -18.2673   17.9629 H   0  0  0  0  0  0
  -25.9636  -18.3861   19.3431 H   0  0  0  0  0  0
  -30.5928  -22.0674   20.2526 H   0  0  0  0  0  0
  -28.7779  -15.4188   20.7660 H   0  0  0  0  0  0
  1 25  1  0  0  0
  1 30  2  0  0  0
  1 83  1  0  0  0
  2  3  1  0  0  0
  2 25  1  0  0  0
  2 86  1  0  0  0
  2 87  1  0  0  0
  3  4  1  0  0  0
  3 88  1  0  0  0
  3 89  1  0  0  0
  4  5  1  0  0  0
  4 90  1  0  0  0
  4 91  1  0  0  0
  5  6  1  0  0  0
  5 26  1  0  0  0
  5 92  1  0  0  0
  6 25  1  0  0  0
  6 93  1  0  0  0
  6 94  1  0  0  0
  7  8  2  0  0  0
  7 26  1  0  0  0
  7 29  1  0  0  0
  8  9  1  0  0  0
  8 22  1  0  0  0
  9 10  1  0  0  0
  9 27  2  0  0  0
 10 11  2  0  0  0
 10 15  1  0  0  0
 11 12  1  0  0  0
 11 95  1  0  0  0
 12 13  2  0  0  0
 12 96  1  0  0  0
 13 14  1  0  0  0
 13 31  1  0  0  0
 14 15  2  0  0  0
 14 97  1  0  0  0
 15 98  1  0  0  0
 16 17  2  0  0  0
 16 21  1  0  0  0
 16 31  1  0  0  0
 17 18  1  0  0  0
 17 99  1  0  0  0
 18 19  2  0  0  0
 18100  1  0  0  0
 19 20  1  0  0  0
 19 24  1  0  0  0
 20 21  2  0  0  0
 20101  1  0  0  0
 21 23  1  0  0  0
 22 28  1  0  0  0
 22 32  2  0  0  0
 26 27  1  0  0  0
 28102  1  0  0  0
 28103  1  0  0  0
 29104  1  0  0  0
 29105  1  0  0  0
 33 34  1  0  0  0
 33 66  1  0  0  0
 33 70  2  0  0  0
 34 36  1  0  0  0
 34 59  1  0  0  0
 34106  1  0  0  0
 35 44  2  0  0  0
 35 45  1  0  0  0
 35 68  1  0  0  0
 36 56  1  0  0  0
 36107  1  0  0  0
 37 39  1  0  0  0
 37 47  1  0  0  0
 37 66  1  0  0  0
 37108  1  0  0  0
 38 43  2  0  0  0
 38 46  1  0  0  0
 38 47  1  0  0  0
 39 64  1  0  0  0
 39 67  2  0  0  0
 40 52  1  0  0  0
 40 53  2  0  0  0
 40 58  1  0  0  0
 41109  1  0  0  0
 41110  1  0  0  0
 41111  1  0  0  0
 41 48  1  0  0  0
 42 43  1  0  0  0
 42 66  1  0  0  0
 42112  1  0  0  0
 42113  1  0  0  0
 43 44  1  0  0  0
 44114  1  0  0  0
 45 46  2  0  0  0
 45115  1  0  0  0
 46116  1  0  0  0
 47117  1  0  0  0
 47118  1  0  0  0
 48 56  1  0  0  0
 48 65  1  0  0  0
 48119  1  0  0  0
 49 50  1  0  0  0
 49 53  1  0  0  0
 49 64  1  0  0  0
 49120  1  0  0  0
 50 51  1  0  0  0
 50121  1  0  0  0
 50122  1  0  0  0
 51 52  1  0  0  0
 51123  1  0  0  0
 51124  1  0  0  0
 52125  1  0  0  0
 52126  1  0  0  0
 53 54  1  0  0  0
 54 55  2  0  0  0
 54127  1  0  0  0
 55 57  1  0  0  0
 55128  1  0  0  0
 56 69  2  0  0  0
 57 58  2  0  0  0
 57129  1  0  0  0
 58130  1  0  0  0
 59 60  1  0  0  0
 59 61  1  0  0  0
 59 62  1  0  0  0
 60131  1  0  0  0
 60132  1  0  0  0
 60133  1  0  0  0
 61134  1  0  0  0
 61135  1  0  0  0
 61136  1  0  0  0
 62137  1  0  0  0
 62138  1  0  0  0
 62139  1  0  0  0
 63 65  1  0  0  0
 63140  1  0  0  0
 63141  1  0  0  0
 63142  1  0  0  0
 64143  1  0  0  0
 65144  1  0  0  0
 68 78  1  0  0  0
 71 73  2  0  0  0
 71 74  1  0  0  0
 71145  1  0  0  0
 72 75  2  0  0  0
 72 76  1  0  0  0
 72146  1  0  0  0
 73 75  1  0  0  0
 73 80  1  0  0  0
 74 76  2  0  0  0
 74 83  1  0  0  0
 75 82  1  0  0  0
 76 85  1  0  0  0
 77 78  2  0  0  0
 77 79  1  0  0  0
 77147  1  0  0  0
 78148  1  0  0  0
 79 82  1  0  0  0
 79 84  2  0  0  0
 80149  1  0  0  0
 80150  1  0  0  0
 80151  1  0  0  0
 81 85  1  0  0  0
 81152  1  0  0  0
 81153  1  0  0  0
 81154  1  0  0  0
 82155  1  0  0  0
 83156  1  0  0  0
M  ISO  4   1 100  68 101  78 101  83 100
M  END
> <chiral flag>
0

> <version>
0

> <s_m_source_file>
/data/baiqing/PycharmProjects/Reinvent-master-3.2/result/LINK_invent/BTK/process_docking_weight1_custom_product_contain_oxygen_bond_distance_aromatic_linkinvent_7_9_3/rearranged_h_0112.sdf

> <i_m_source_file_index>
73

> <r_mmod_Potential_Energy-OPLS-2005>
-2.05128312110901

> <r_mmod_Stretch_Energy-OPLS-2005>
89.2870254516602

> <r_mmod_Bend_Energy-OPLS-2005>
146.16242980957

> <r_mmod_Torsional_Energy-OPLS-2005>
233.985626220703

> <r_mmod_Improper_Torsional_Energy-OPLS-2005>
5.75492429733276

> <r_mmod_Van_der_Waal_Energy-OPLS-2005>
148.958084106445

> <r_mmod_Electrostatic_Energy-OPLS-2005>
-473.721954345703

> <r_mmod_Solvation_Energy-OPLS-2005>
-217.407745361328

> <b_mmod_Minimization_Converged-OPLS-2005>
0

> <r_mmod_RMS_Derivative-OPLS-2005>
0.263382077217102

$$$$
74
                    3D
 Structure written by MMmdl.
158166  0  0  1  0            999 V2000
  -30.5852  -14.7702   20.4971 C   0  0  0  0  0  0
  -30.4501  -12.4804   19.4783 C   0  0  0  0  0  0
  -29.5201  -12.5351   18.2412 C   0  0  0  0  0  0
  -28.0410  -12.3519   18.6416 C   0  0  0  0  0  0
  -27.6503  -13.2219   19.8650 C   0  0  2  0  0  0
  -28.6938  -13.0708   20.9891 C   0  0  0  0  0  0
  -25.2547  -13.8169   20.5693 C   0  0  0  0  0  0
  -24.1813  -13.0428   20.9171 C   0  0  0  0  0  0
  -24.6394  -11.6901   20.8723 C   0  0  0  0  0  0
  -23.9066  -10.4286   21.0399 C   0  0  0  0  0  0
  -24.3618   -9.4206   21.9181 C   0  0  0  0  0  0
  -23.6293   -8.2244   22.0754 C   0  0  0  0  0  0
  -22.4273   -8.0283   21.3547 C   0  0  0  0  0  0
  -21.9908   -9.0253   20.4646 C   0  0  0  0  0  0
  -22.7238  -10.2130   20.3051 C   0  0  0  0  0  0
  -21.6853   -6.0737   22.5283 C   0  0  0  0  0  0
  -21.4012   -6.5641   23.8215 C   0  0  0  0  0  0
  -21.3658   -5.6794   24.9178 C   0  0  0  0  0  0
  -21.6043   -4.3055   24.7228 C   0  0  0  0  0  0
  -21.8819   -3.8148   23.4349 C   0  0  0  0  0  0
  -21.9190   -4.6964   22.3406 C   0  0  0  0  0  0
  -22.7839  -13.5222   21.1848 C   0  0  0  0  0  0
  -22.1660   -4.2151   21.0984 F   0  0  0  0  0  0
  -21.5631   -3.4539   25.7741 F   0  0  0  0  0  0
  -29.9923  -13.5115   20.4475 N   0  0  0  0  0  0
  -26.2974  -12.9355   20.3320 N   0  0  0  0  0  0
  -25.9321  -11.6501   20.5729 N   0  0  0  0  0  0
  -22.0486  -12.8214   22.0408 N   0  0  0  0  0  0
  -25.4266  -15.1891   20.4157 N   0  0  0  0  0  0
  -31.7384  -14.8983   20.0674 O   0  0  0  0  0  0
  -21.6638   -6.8880   21.4245 O   0  0  0  0  0  0
  -22.3518  -14.5530   20.6704 O   0  0  0  0  0  0
  -24.6321  -31.8546   23.1968 C   0  0  0  0  0  0
  -25.9139  -32.4756   23.8322 C   0  0  1  0  0  0
  -27.2269  -27.2646   20.1295 C   0  0  0  0  0  0
  -25.5927  -33.8554   24.2250 N   0  0  0  0  0  0
  -23.4308  -30.4758   21.5394 C   0  0  2  0  0  0
  -24.8836  -28.9229   20.1090 C   0  0  0  0  0  0
  -22.7516  -29.4594   22.4893 C   0  0  0  0  0  0
  -18.0300  -28.1395   22.8482 C   0  0  0  0  0  0
  -24.1488  -36.7280   23.2637 C   0  0  0  0  0  0
  -25.9771  -30.7687   21.3779 C   0  0  0  0  0  0
  -26.0552  -29.3907   20.7203 C   0  0  0  0  0  0
  -27.2338  -28.5729   20.7227 C   0  0  0  0  0  0
  -26.0366  -26.8650   19.4899 C   0  0  0  0  0  0
  -24.8786  -27.6671   19.4824 C   0  0  0  0  0  0
  -23.6519  -29.8087   20.1562 C   0  0  0  0  0  0
  -25.4116  -36.3064   24.0323 C   0  0  1  0  0  0
  -20.5904  -28.3708   23.1263 C   0  0  2  0  0  0
  -20.6781  -26.9421   22.5407 C   0  0  0  0  0  0
  -19.5756  -26.6387   21.5209 C   0  0  0  0  0  0
  -18.1941  -26.7938   22.1625 C   0  0  0  0  0  0
  -19.1553  -28.8868   23.2869 C   0  0  0  0  0  0
  -18.9468  -30.1468   23.8888 C   0  0  0  0  0  0
  -17.6466  -30.6588   24.0568 C   0  0  0  0  0  0
  -25.9055  -34.9436   23.5089 C   0  0  0  0  0  0
  -16.5358  -29.9088   23.6334 C   0  0  0  0  0  0
  -16.7285  -28.6509   23.0350 C   0  0  0  0  0  0
  -26.4504  -31.6582   25.0711 C   0  0  0  0  0  0
  -25.3725  -31.3741   26.1429 C   0  0  0  0  0  0
  -27.0353  -30.2992   24.6206 C   0  0  0  0  0  0
  -27.6054  -32.4324   25.7494 C   0  0  0  0  0  0
  -27.5579  -37.1797   24.8466 C   0  0  0  0  0  0
  -21.4219  -29.3049   22.3643 N   0  0  0  0  0  0
  -26.4293  -37.3761   23.9405 N   0  0  0  0  0  0
  -24.6988  -31.0506   22.0947 N   0  0  0  0  0  0
  -23.4206  -28.8133   23.3000 O   0  0  0  0  0  0
  -28.2665  -26.3067   20.1769 O   0  0  0  0  0  0
  -26.5626  -34.8918   22.4659 O   0  0  0  0  0  0
  -23.5465  -32.1368   23.7253 O   0  0  0  0  0  0
  -30.3908  -17.6235   19.0716 C   0  0  0  0  0  0
  -30.0451  -20.0614   18.9478 C   0  0  0  0  0  0
  -29.8959  -17.5290   20.3944 C   0  0  0  0  0  0
  -29.4707  -18.8263   20.9735 C   0  0  0  0  0  0
  -30.4715  -18.8467   18.3704 C   0  0  0  0  0  0
  -29.5250  -20.1036   20.2568 C   0  0  0  0  0  0
  -28.2953  -23.7968   20.9805 C   0  0  0  0  0  0
  -28.0026  -25.1633   20.9789 C   0  0  0  0  0  0
  -29.7677  -16.0748   21.0273 C   0  0  0  0  0  0
  -30.0584  -18.7849   23.4565 C   0  0  0  0  0  0
  -28.9450  -18.9190   22.4086 C   0  0  0  0  0  0
  -29.0494  -22.6819   20.1442 C   0  0  0  0  0  0
  -28.9848  -15.9318   22.0078 N   0  0  0  0  0  0
  -30.9760  -18.8496   17.0705 N   0  0  0  0  0  0
  -29.0821  -21.3423   20.8263 O   0  0  0  0  0  0
  -31.4859  -12.6305   19.1704 H   0  0  0  0  0  0
  -30.4281  -11.4880   19.9316 H   0  0  0  0  0  0
  -29.8084  -11.7707   17.5184 H   0  0  0  0  0  0
  -29.6445  -13.4945   17.7367 H   0  0  0  0  0  0
  -27.8911  -11.2977   18.8781 H   0  0  0  0  0  0
  -27.3878  -12.5683   17.7954 H   0  0  0  0  0  0
  -27.6664  -14.2595   19.5311 H   0  0  0  0  0  0
  -28.7508  -12.0271   21.3020 H   0  0  0  0  0  0
  -28.3921  -13.5928   21.8920 H   0  0  0  0  0  0
  -25.2764   -9.5686   22.4752 H   0  0  0  0  0  0
  -24.0003   -7.4636   22.7473 H   0  0  0  0  0  0
  -21.0839   -8.8771   19.8951 H   0  0  0  0  0  0
  -22.3698  -10.9669   19.6156 H   0  0  0  0  0  0
  -21.2002   -7.6149   23.9720 H   0  0  0  0  0  0
  -21.1480   -6.0524   25.9082 H   0  0  0  0  0  0
  -22.0598   -2.7610   23.2851 H   0  0  0  0  0  0
  -22.4098  -11.9872   22.4794 H   0  0  0  0  0  0
  -21.1103  -13.1241   22.2614 H   0  0  0  0  0  0
  -24.6737  -15.8528   20.5592 H   0  0  0  0  0  0
  -26.3082  -15.6303   20.1856 H   0  0  0  0  0  0
  -26.7215  -32.5419   23.1075 H   0  0  0  0  0  0
  -25.0078  -33.9689   25.0398 H   0  0  0  0  0  0
  -22.7268  -31.2974   21.3916 H   0  0  0  0  0  0
  -23.3748  -35.9614   23.3302 H   0  0  0  0  0  0
  -24.3576  -36.8898   22.2050 H   0  0  0  0  0  0
  -23.7247  -37.6482   23.6666 H   0  0  0  0  0  0
  -26.1140  -31.5297   20.6079 H   0  0  0  0  0  0
  -26.8533  -30.8201   22.0127 H   0  0  0  0  0  0
  -28.1286  -28.9190   21.2199 H   0  0  0  0  0  0
  -25.9943  -25.8914   19.0221 H   0  0  0  0  0  0
  -23.9823  -27.3005   19.0017 H   0  0  0  0  0  0
  -23.7759  -30.5843   19.3996 H   0  0  0  0  0  0
  -22.7714  -29.2406   19.8504 H   0  0  0  0  0  0
  -25.1300  -36.1907   25.0815 H   0  0  0  0  0  0
  -21.0013  -28.3297   24.1377 H   0  0  0  0  0  0
  -20.5678  -26.2317   23.3614 H   0  0  0  0  0  0
  -21.6649  -26.7441   22.1200 H   0  0  0  0  0  0
  -19.6914  -25.6294   21.1245 H   0  0  0  0  0  0
  -19.6691  -27.3193   20.6737 H   0  0  0  0  0  0
  -17.4207  -26.6685   21.4034 H   0  0  0  0  0  0
  -18.0344  -26.0080   22.9022 H   0  0  0  0  0  0
  -19.7941  -30.7293   24.2245 H   0  0  0  0  0  0
  -17.5017  -31.6268   24.5173 H   0  0  0  0  0  0
  -15.5358  -30.2986   23.7657 H   0  0  0  0  0  0
  -15.8689  -28.0829   22.7061 H   0  0  0  0  0  0
  -24.5910  -30.7073   25.7765 H   0  0  0  0  0  0
  -24.8904  -32.2911   26.4827 H   0  0  0  0  0  0
  -25.8039  -30.8946   27.0224 H   0  0  0  0  0  0
  -26.2944  -29.6734   24.1213 H   0  0  0  0  0  0
  -27.4011  -29.7257   25.4734 H   0  0  0  0  0  0
  -27.8832  -30.4248   23.9466 H   0  0  0  0  0  0
  -27.2659  -33.3632   26.2050 H   0  0  0  0  0  0
  -28.3883  -32.6870   25.0337 H   0  0  0  0  0  0
  -28.0700  -31.8458   26.5429 H   0  0  0  0  0  0
  -28.2599  -38.0092   24.7502 H   0  0  0  0  0  0
  -28.1074  -36.2620   24.6309 H   0  0  0  0  0  0
  -27.2293  -37.1465   25.8869 H   0  0  0  0  0  0
  -20.9405  -29.8766   21.6841 H   0  0  0  0  0  0
  -26.0168  -38.2834   24.1407 H   0  0  0  0  0  0
  -30.7052  -16.7259   18.5593 H   0  0  0  0  0  0
  -30.1206  -20.9730   18.3730 H   0  0  0  0  0  0
  -27.8498  -23.3125   21.8382 H   0  0  0  0  0  0
  -27.4016  -25.4918   21.8178 H   0  0  0  0  0  0
  -29.6523  -18.8775   24.4642 H   0  0  0  0  0  0
  -30.8069  -19.5679   23.3305 H   0  0  0  0  0  0
  -30.5693  -17.8244   23.3933 H   0  0  0  0  0  0
  -28.1430  -18.2054   22.5821 H   0  0  0  0  0  0
  -28.4526  -19.8767   22.5718 H   0  0  0  0  0  0
  -30.0667  -23.0166   19.9398 H   0  0  0  0  0  0
  -28.5414  -22.5809   19.1846 H   0  0  0  0  0  0
  -28.5475  -16.8109   22.2465 H   0  0  0  0  0  0
  -31.0425  -17.9745   16.5593 H   0  0  0  0  0  0
  -30.8029  -19.6499   16.4692 H   0  0  0  0  0  0
  1 25  1  0  0  0
  1 30  2  0  0  0
  1 79  1  0  0  0
  2  3  1  0  0  0
  2 25  1  0  0  0
  2 86  1  0  0  0
  2 87  1  0  0  0
  3  4  1  0  0  0
  3 88  1  0  0  0
  3 89  1  0  0  0
  4  5  1  0  0  0
  4 90  1  0  0  0
  4 91  1  0  0  0
  5  6  1  0  0  0
  5 26  1  0  0  0
  5 92  1  0  0  0
  6 25  1  0  0  0
  6 93  1  0  0  0
  6 94  1  0  0  0
  7  8  2  0  0  0
  7 26  1  0  0  0
  7 29  1  0  0  0
  8  9  1  0  0  0
  8 22  1  0  0  0
  9 10  1  0  0  0
  9 27  2  0  0  0
 10 11  2  0  0  0
 10 15  1  0  0  0
 11 12  1  0  0  0
 11 95  1  0  0  0
 12 13  2  0  0  0
 12 96  1  0  0  0
 13 14  1  0  0  0
 13 31  1  0  0  0
 14 15  2  0  0  0
 14 97  1  0  0  0
 15 98  1  0  0  0
 16 17  2  0  0  0
 16 21  1  0  0  0
 16 31  1  0  0  0
 17 18  1  0  0  0
 17 99  1  0  0  0
 18 19  2  0  0  0
 18100  1  0  0  0
 19 20  1  0  0  0
 19 24  1  0  0  0
 20 21  2  0  0  0
 20101  1  0  0  0
 21 23  1  0  0  0
 22 28  1  0  0  0
 22 32  2  0  0  0
 26 27  1  0  0  0
 28102  1  0  0  0
 28103  1  0  0  0
 29104  1  0  0  0
 29105  1  0  0  0
 33 34  1  0  0  0
 33 66  1  0  0  0
 33 70  2  0  0  0
 34 36  1  0  0  0
 34 59  1  0  0  0
 34106  1  0  0  0
 35 44  2  0  0  0
 35 45  1  0  0  0
 35 68  1  0  0  0
 36 56  1  0  0  0
 36107  1  0  0  0
 37 39  1  0  0  0
 37 47  1  0  0  0
 37 66  1  0  0  0
 37108  1  0  0  0
 38 43  2  0  0  0
 38 46  1  0  0  0
 38 47  1  0  0  0
 39 64  1  0  0  0
 39 67  2  0  0  0
 40 52  1  0  0  0
 40 53  2  0  0  0
 40 58  1  0  0  0
 41109  1  0  0  0
 41110  1  0  0  0
 41111  1  0  0  0
 41 48  1  0  0  0
 42 43  1  0  0  0
 42 66  1  0  0  0
 42112  1  0  0  0
 42113  1  0  0  0
 43 44  1  0  0  0
 44114  1  0  0  0
 45 46  2  0  0  0
 45115  1  0  0  0
 46116  1  0  0  0
 47117  1  0  0  0
 47118  1  0  0  0
 48 56  1  0  0  0
 48 65  1  0  0  0
 48119  1  0  0  0
 49 50  1  0  0  0
 49 53  1  0  0  0
 49 64  1  0  0  0
 49120  1  0  0  0
 50 51  1  0  0  0
 50121  1  0  0  0
 50122  1  0  0  0
 51 52  1  0  0  0
 51123  1  0  0  0
 51124  1  0  0  0
 52125  1  0  0  0
 52126  1  0  0  0
 53 54  1  0  0  0
 54 55  2  0  0  0
 54127  1  0  0  0
 55 57  1  0  0  0
 55128  1  0  0  0
 56 69  2  0  0  0
 57 58  2  0  0  0
 57129  1  0  0  0
 58130  1  0  0  0
 59 60  1  0  0  0
 59 61  1  0  0  0
 59 62  1  0  0  0
 60131  1  0  0  0
 60132  1  0  0  0
 60133  1  0  0  0
 61134  1  0  0  0
 61135  1  0  0  0
 61136  1  0  0  0
 62137  1  0  0  0
 62138  1  0  0  0
 62139  1  0  0  0
 63 65  1  0  0  0
 63140  1  0  0  0
 63141  1  0  0  0
 63142  1  0  0  0
 64143  1  0  0  0
 65144  1  0  0  0
 68 78  1  0  0  0
 71 73  2  0  0  0
 71 75  1  0  0  0
 71145  1  0  0  0
 72 75  2  0  0  0
 72 76  1  0  0  0
 72146  1  0  0  0
 73 74  1  0  0  0
 73 79  1  0  0  0
 74 76  2  0  0  0
 74 81  1  0  0  0
 75 84  1  0  0  0
 76 85  1  0  0  0
 77 78  2  0  0  0
 77 82  1  0  0  0
 77147  1  0  0  0
 78148  1  0  0  0
 79 83  2  0  0  0
 80 81  1  0  0  0
 80149  1  0  0  0
 80150  1  0  0  0
 80151  1  0  0  0
 81152  1  0  0  0
 81153  1  0  0  0
 82 85  1  0  0  0
 82154  1  0  0  0
 82155  1  0  0  0
 83156  1  0  0  0
 84157  1  0  0  0
 84158  1  0  0  0
M  ISO  4   1 100  68 101  78 101  79 100
M  END
> <chiral flag>
0

> <version>
0

> <s_m_source_file>
/data/baiqing/PycharmProjects/Reinvent-master-3.2/result/LINK_invent/BTK/process_docking_weight1_custom_product_contain_oxygen_bond_distance_aromatic_linkinvent_7_9_3/rearranged_h_0112.sdf

> <i_m_source_file_index>
74

> <r_mmod_Potential_Energy-OPLS-2005>
411.019104003906

> <r_mmod_Stretch_Energy-OPLS-2005>
156.624938964844

> <r_mmod_Bend_Energy-OPLS-2005>
238.982727050781

> <r_mmod_Torsional_Energy-OPLS-2005>
206.45198059082

> <r_mmod_Improper_Torsional_Energy-OPLS-2005>
5.08802461624146

> <r_mmod_Van_der_Waal_Energy-OPLS-2005>
151.557540893555

> <r_mmod_Electrostatic_Energy-OPLS-2005>
-240.49333190918

> <r_mmod_Solvation_Energy-OPLS-2005>
-198.462814331055

> <b_mmod_Minimization_Converged-OPLS-2005>
0

> <r_mmod_RMS_Derivative-OPLS-2005>
0.693745315074921

$$$$
75
                    3D
 Structure written by MMmdl.
156164  0  0  1  0            999 V2000
  -30.6690  -14.5658   20.6311 C   0  0  0  0  0  0
  -30.4400  -12.3881   19.4289 C   0  0  0  0  0  0
  -29.5040  -12.5348   18.2111 C   0  0  0  0  0  0
  -28.0276  -12.3664   18.6218 C   0  0  0  0  0  0
  -27.6606  -13.2116   19.8690 C   0  0  2  0  0  0
  -28.6991  -13.0030   20.9901 C   0  0  0  0  0  0
  -25.2604  -13.8163   20.5678 C   0  0  0  0  0  0
  -24.1850  -13.0438   20.9175 C   0  0  0  0  0  0
  -24.6406  -11.6908   20.8719 C   0  0  0  0  0  0
  -23.9069  -10.4293   21.0396 C   0  0  0  0  0  0
  -24.3617   -9.4212   21.9180 C   0  0  0  0  0  0
  -23.6298   -8.2243   22.0745 C   0  0  0  0  0  0
  -22.4281   -8.0280   21.3536 C   0  0  0  0  0  0
  -21.9913   -9.0255   20.4640 C   0  0  0  0  0  0
  -22.7240  -10.2137   20.3050 C   0  0  0  0  0  0
  -21.6857   -6.0735   22.5285 C   0  0  0  0  0  0
  -21.4006   -6.5634   23.8220 C   0  0  0  0  0  0
  -21.3662   -5.6786   24.9182 C   0  0  0  0  0  0
  -21.6053   -4.3050   24.7232 C   0  0  0  0  0  0
  -21.8819   -3.8144   23.4352 C   0  0  0  0  0  0
  -21.9194   -4.6962   22.3408 C   0  0  0  0  0  0
  -22.7877  -13.5238   21.1861 C   0  0  0  0  0  0
  -22.1662   -4.2147   21.0987 F   0  0  0  0  0  0
  -21.5642   -3.4529   25.7741 F   0  0  0  0  0  0
  -30.0248  -13.3665   20.4539 N   0  0  0  0  0  0
  -26.3026  -12.9333   20.3312 N   0  0  0  0  0  0
  -25.9327  -11.6488   20.5711 N   0  0  0  0  0  0
  -22.0512  -12.8221   22.0412 N   0  0  0  0  0  0
  -25.4375  -15.1875   20.4114 N   0  0  0  0  0  0
  -31.7277  -14.8111   20.0454 O   0  0  0  0  0  0
  -21.6643   -6.8876   21.4245 O   0  0  0  0  0  0
  -22.3552  -14.5543   20.6718 O   0  0  0  0  0  0
  -24.6211  -31.8617   23.2033 C   0  0  0  0  0  0
  -25.9074  -32.4793   23.8356 C   0  0  1  0  0  0
  -27.2349  -27.3657   20.1145 C   0  0  0  0  0  0
  -25.5908  -33.8593   24.2288 N   0  0  0  0  0  0
  -23.4146  -30.4826   21.5449 C   0  0  2  0  0  0
  -24.8646  -28.9381   20.1149 C   0  0  0  0  0  0
  -22.7453  -29.4619   22.4949 C   0  0  0  0  0  0
  -18.0286  -28.1386   22.8494 C   0  0  0  0  0  0
  -24.1486  -36.7307   23.2642 C   0  0  0  0  0  0
  -25.9490  -30.8076   21.3662 C   0  0  0  0  0  0
  -26.0292  -29.4356   20.7150 C   0  0  0  0  0  0
  -27.2204  -28.6592   20.7069 C   0  0  0  0  0  0
  -26.0538  -26.9016   19.5009 C   0  0  0  0  0  0
  -24.8748  -27.6732   19.5021 C   0  0  0  0  0  0
  -23.6288  -29.8121   20.1617 C   0  0  0  0  0  0
  -25.4111  -36.3098   24.0336 C   0  0  1  0  0  0
  -20.5883  -28.3683   23.1301 C   0  0  2  0  0  0
  -20.6781  -26.9409   22.5423 C   0  0  0  0  0  0
  -19.5755  -26.6388   21.5224 C   0  0  0  0  0  0
  -18.1931  -26.7933   22.1627 C   0  0  0  0  0  0
  -19.1537  -28.8851   23.2894 C   0  0  0  0  0  0
  -18.9460  -30.1458   23.8900 C   0  0  0  0  0  0
  -17.6461  -30.6589   24.0567 C   0  0  0  0  0  0
  -25.9043  -34.9465   23.5114 C   0  0  0  0  0  0
  -16.5352  -29.9090   23.6332 C   0  0  0  0  0  0
  -16.7274  -28.6512   23.0343 C   0  0  0  0  0  0
  -26.4482  -31.6591   25.0712 C   0  0  0  0  0  0
  -25.3730  -31.3715   26.1451 C   0  0  0  0  0  0
  -27.0323  -30.3029   24.6122 C   0  0  0  0  0  0
  -27.6052  -32.4316   25.7478 C   0  0  0  0  0  0
  -27.5576  -37.1812   24.8472 C   0  0  0  0  0  0
  -21.4172  -29.3035   22.3693 N   0  0  0  0  0  0
  -26.4299  -37.3782   23.9403 N   0  0  0  0  0  0
  -24.6801  -31.0660   22.0961 N   0  0  0  0  0  0
  -23.4192  -28.8164   23.3020 O   0  0  0  0  0  0
  -28.3566  -26.5429   20.1065 O   0  0  0  0  0  0
  -26.5611  -34.8920   22.4677 O   0  0  0  0  0  0
  -23.5386  -32.1394   23.7387 O   0  0  0  0  0  0
  -29.6050  -20.6124   19.5569 C   0  0  0  0  0  0
  -29.8672  -19.4201   18.8391 C   0  0  0  0  0  0
  -29.5137  -19.2811   21.5703 C   0  0  0  0  0  0
  -29.7677  -18.0551   20.8769 C   0  0  0  0  0  0
  -29.4142  -20.5624   20.9502 C   0  0  0  0  0  0
  -29.9427  -18.1412   19.4727 C   0  0  0  0  0  0
  -29.7841  -16.7921   21.7179 C   0  0  0  0  0  0
  -30.0866  -15.4517   21.6589 C   0  0  0  0  0  0
  -28.9214  -22.9361   21.6401 C   0  0  0  0  0  0
  -30.3589  -17.0375   17.3761 C   0  0  0  0  0  0
  -28.8455  -23.9521   20.4640 C   0  0  0  0  0  0
  -28.2714  -25.3521   20.9530 C   0  0  0  0  0  0
  -29.1383  -21.6655   21.8019 N   0  0  0  0  0  0
  -30.1450  -16.9689   18.7796 O   0  0  0  0  0  0
  -31.4785  -12.5258   19.1234 H   0  0  0  0  0  0
  -30.3851  -11.3761   19.8326 H   0  0  0  0  0  0
  -29.7624  -11.7995   17.4479 H   0  0  0  0  0  0
  -29.6501  -13.5165   17.7582 H   0  0  0  0  0  0
  -27.8611  -11.3099   18.8337 H   0  0  0  0  0  0
  -27.3728  -12.6167   17.7862 H   0  0  0  0  0  0
  -27.7018  -14.2591   19.5674 H   0  0  0  0  0  0
  -28.7054  -11.9588   21.3074 H   0  0  0  0  0  0
  -28.4043  -13.5643   21.8748 H   0  0  0  0  0  0
  -25.2759   -9.5695   22.4756 H   0  0  0  0  0  0
  -24.0014   -7.4630   22.7458 H   0  0  0  0  0  0
  -21.0846   -8.8784   19.8933 H   0  0  0  0  0  0
  -22.3708  -10.9681   19.6159 H   0  0  0  0  0  0
  -21.1980   -7.6139   23.9721 H   0  0  0  0  0  0
  -21.1490   -6.0517   25.9089 H   0  0  0  0  0  0
  -22.0591   -2.7605   23.2861 H   0  0  0  0  0  0
  -22.4094  -11.9863   22.4790 H   0  0  0  0  0  0
  -21.1129  -13.1251   22.2596 H   0  0  0  0  0  0
  -24.6844  -15.8557   20.5318 H   0  0  0  0  0  0
  -26.3071  -15.6186   20.1215 H   0  0  0  0  0  0
  -26.7140  -32.5482   23.1107 H   0  0  0  0  0  0
  -25.0061  -33.9740   25.0438 H   0  0  0  0  0  0
  -22.7077  -31.3020   21.3994 H   0  0  0  0  0  0
  -23.3740  -35.9648   23.3326 H   0  0  0  0  0  0
  -24.3575  -36.8902   22.2050 H   0  0  0  0  0  0
  -23.7246  -37.6521   23.6645 H   0  0  0  0  0  0
  -26.0677  -31.5697   20.5943 H   0  0  0  0  0  0
  -26.8337  -30.8644   21.9885 H   0  0  0  0  0  0
  -28.1190  -29.0370   21.1741 H   0  0  0  0  0  0
  -26.0453  -25.9301   19.0277 H   0  0  0  0  0  0
  -23.9808  -27.2846   19.0338 H   0  0  0  0  0  0
  -23.7429  -30.5848   19.4010 H   0  0  0  0  0  0
  -22.7518  -29.2361   19.8626 H   0  0  0  0  0  0
  -25.1284  -36.1959   25.0830 H   0  0  0  0  0  0
  -20.9980  -28.3256   24.1420 H   0  0  0  0  0  0
  -20.5703  -26.2280   23.3611 H   0  0  0  0  0  0
  -21.6643  -26.7456   22.1192 H   0  0  0  0  0  0
  -19.6918  -25.6304   21.1237 H   0  0  0  0  0  0
  -19.6696  -27.3213   20.6766 H   0  0  0  0  0  0
  -17.4204  -26.6694   21.4023 H   0  0  0  0  0  0
  -18.0319  -26.0074   22.9019 H   0  0  0  0  0  0
  -19.7936  -30.7280   24.2259 H   0  0  0  0  0  0
  -17.5013  -31.6265   24.5175 H   0  0  0  0  0  0
  -15.5350  -30.2988   23.7658 H   0  0  0  0  0  0
  -15.8676  -28.0837   22.7042 H   0  0  0  0  0  0
  -24.5905  -30.7061   25.7782 H   0  0  0  0  0  0
  -24.8921  -32.2876   26.4891 H   0  0  0  0  0  0
  -25.8067  -30.8883   27.0216 H   0  0  0  0  0  0
  -26.2881  -29.6783   24.1167 H   0  0  0  0  0  0
  -27.4074  -29.7274   25.4597 H   0  0  0  0  0  0
  -27.8719  -30.4341   23.9291 H   0  0  0  0  0  0
  -27.2672  -33.3612   26.2067 H   0  0  0  0  0  0
  -28.3852  -32.6885   25.0298 H   0  0  0  0  0  0
  -28.0728  -31.8434   26.5382 H   0  0  0  0  0  0
  -28.2616  -38.0087   24.7487 H   0  0  0  0  0  0
  -28.1043  -36.2616   24.6332 H   0  0  0  0  0  0
  -27.2293  -37.1511   25.8877 H   0  0  0  0  0  0
  -20.9343  -29.8753   21.6903 H   0  0  0  0  0  0
  -26.0187  -38.2863   24.1384 H   0  0  0  0  0  0
  -29.5512  -21.5506   19.0233 H   0  0  0  0  0  0
  -29.9954  -19.5200   17.7719 H   0  0  0  0  0  0
  -29.3724  -19.2395   22.6416 H   0  0  0  0  0  0
  -29.4023  -17.0172   22.7039 H   0  0  0  0  0  0
  -29.8917  -14.9391   22.5892 H   0  0  0  0  0  0
  -28.7398  -23.4770   22.5721 H   0  0  0  0  0  0
  -29.4834  -17.4305   16.8578 H   0  0  0  0  0  0
  -30.5438  -16.0338   16.9934 H   0  0  0  0  0  0
  -31.2294  -17.6480   17.1301 H   0  0  0  0  0  0
  -28.2255  -23.5455   19.6657 H   0  0  0  0  0  0
  -29.8488  -24.0847   20.0609 H   0  0  0  0  0  0
  -28.8078  -25.6374   21.8598 H   0  0  0  0  0  0
  -27.2422  -25.1909   21.2803 H   0  0  0  0  0  0
  1 25  1  0  0  0
  1 30  2  0  0  0
  1 78  1  0  0  0
  2  3  1  0  0  0
  2 25  1  0  0  0
  2 85  1  0  0  0
  2 86  1  0  0  0
  3  4  1  0  0  0
  3 87  1  0  0  0
  3 88  1  0  0  0
  4  5  1  0  0  0
  4 89  1  0  0  0
  4 90  1  0  0  0
  5  6  1  0  0  0
  5 26  1  0  0  0
  5 91  1  0  0  0
  6 25  1  0  0  0
  6 92  1  0  0  0
  6 93  1  0  0  0
  7  8  2  0  0  0
  7 26  1  0  0  0
  7 29  1  0  0  0
  8  9  1  0  0  0
  8 22  1  0  0  0
  9 10  1  0  0  0
  9 27  2  0  0  0
 10 11  2  0  0  0
 10 15  1  0  0  0
 11 12  1  0  0  0
 11 94  1  0  0  0
 12 13  2  0  0  0
 12 95  1  0  0  0
 13 14  1  0  0  0
 13 31  1  0  0  0
 14 15  2  0  0  0
 14 96  1  0  0  0
 15 97  1  0  0  0
 16 17  2  0  0  0
 16 21  1  0  0  0
 16 31  1  0  0  0
 17 18  1  0  0  0
 17 98  1  0  0  0
 18 19  2  0  0  0
 18 99  1  0  0  0
 19 20  1  0  0  0
 19 24  1  0  0  0
 20 21  2  0  0  0
 20100  1  0  0  0
 21 23  1  0  0  0
 22 28  1  0  0  0
 22 32  2  0  0  0
 26 27  1  0  0  0
 28101  1  0  0  0
 28102  1  0  0  0
 29103  1  0  0  0
 29104  1  0  0  0
 33 34  1  0  0  0
 33 66  1  0  0  0
 33 70  2  0  0  0
 34 36  1  0  0  0
 34 59  1  0  0  0
 34105  1  0  0  0
 35 44  2  0  0  0
 35 45  1  0  0  0
 35 68  1  0  0  0
 36 56  1  0  0  0
 36106  1  0  0  0
 37 39  1  0  0  0
 37 47  1  0  0  0
 37 66  1  0  0  0
 37107  1  0  0  0
 38 43  2  0  0  0
 38 46  1  0  0  0
 38 47  1  0  0  0
 39 64  1  0  0  0
 39 67  2  0  0  0
 40 52  1  0  0  0
 40 53  2  0  0  0
 40 58  1  0  0  0
 41108  1  0  0  0
 41109  1  0  0  0
 41110  1  0  0  0
 41 48  1  0  0  0
 42 43  1  0  0  0
 42 66  1  0  0  0
 42111  1  0  0  0
 42112  1  0  0  0
 43 44  1  0  0  0
 44113  1  0  0  0
 45 46  2  0  0  0
 45114  1  0  0  0
 46115  1  0  0  0
 47116  1  0  0  0
 47117  1  0  0  0
 48 56  1  0  0  0
 48 65  1  0  0  0
 48118  1  0  0  0
 49 50  1  0  0  0
 49 53  1  0  0  0
 49 64  1  0  0  0
 49119  1  0  0  0
 50 51  1  0  0  0
 50120  1  0  0  0
 50121  1  0  0  0
 51 52  1  0  0  0
 51122  1  0  0  0
 51123  1  0  0  0
 52124  1  0  0  0
 52125  1  0  0  0
 53 54  1  0  0  0
 54 55  2  0  0  0
 54126  1  0  0  0
 55 57  1  0  0  0
 55127  1  0  0  0
 56 69  2  0  0  0
 57 58  2  0  0  0
 57128  1  0  0  0
 58129  1  0  0  0
 59 60  1  0  0  0
 59 61  1  0  0  0
 59 62  1  0  0  0
 60130  1  0  0  0
 60131  1  0  0  0
 60132  1  0  0  0
 61133  1  0  0  0
 61134  1  0  0  0
 61135  1  0  0  0
 62136  1  0  0  0
 62137  1  0  0  0
 62138  1  0  0  0
 63 65  1  0  0  0
 63139  1  0  0  0
 63140  1  0  0  0
 63141  1  0  0  0
 64142  1  0  0  0
 65143  1  0  0  0
 68 82  1  0  0  0
 71 72  2  0  0  0
 71 75  1  0  0  0
 71144  1  0  0  0
 72 76  1  0  0  0
 72145  1  0  0  0
 73 74  1  0  0  0
 73 75  2  0  0  0
 73146  1  0  0  0
 74 76  2  0  0  0
 74 77  1  0  0  0
 75 83  1  0  0  0
 76 84  1  0  0  0
 77 78  2  0  0  0
 77147  1  0  0  0
 78148  1  0  0  0
 79 81  1  0  0  0
 79 83  2  0  0  0
 79149  1  0  0  0
 80 84  1  0  0  0
 80150  1  0  0  0
 80151  1  0  0  0
 80152  1  0  0  0
 81 82  1  0  0  0
 81153  1  0  0  0
 81154  1  0  0  0
 82155  1  0  0  0
 82156  1  0  0  0
M  ISO  4   1 100  68 101  78 100  82 101
M  END
> <chiral flag>
0

> <version>
0

> <s_m_source_file>
/data/baiqing/PycharmProjects/Reinvent-master-3.2/result/LINK_invent/BTK/process_docking_weight1_custom_product_contain_oxygen_bond_distance_aromatic_linkinvent_7_9_3/rearranged_h_0112.sdf

> <i_m_source_file_index>
75

> <r_mmod_Potential_Energy-OPLS-2005>
132.155532836914

> <r_mmod_Stretch_Energy-OPLS-2005>
66.149299621582

> <r_mmod_Bend_Energy-OPLS-2005>
244.554046630859

> <r_mmod_Torsional_Energy-OPLS-2005>
204.959243774414

> <r_mmod_Improper_Torsional_Energy-OPLS-2005>
3.04106211662292

> <r_mmod_Van_der_Waal_Energy-OPLS-2005>
147.493118286133

> <r_mmod_Electrostatic_Energy-OPLS-2005>
-351.278442382812

> <r_mmod_Solvation_Energy-OPLS-2005>
-211.437377929688

> <b_mmod_Minimization_Converged-OPLS-2005>
0

> <r_mmod_RMS_Derivative-OPLS-2005>
1.1887139081955

$$$$
76
                    3D
 Structure written by MMmdl.
168177  0  0  1  0            999 V2000
  -30.7510  -14.4915   20.5356 C   0  0  0  0  0  0
  -30.3976  -12.3108   19.4304 C   0  0  0  0  0  0
  -29.4806  -12.4950   18.2049 C   0  0  0  0  0  0
  -28.0021  -12.3697   18.6182 C   0  0  0  0  0  0
  -27.6484  -13.2291   19.8628 C   0  0  2  0  0  0
  -28.6961  -13.0676   20.9883 C   0  0  0  0  0  0
  -25.2468  -13.8216   20.5673 C   0  0  0  0  0  0
  -24.1762  -13.0446   20.9196 C   0  0  0  0  0  0
  -24.6380  -11.6928   20.8772 C   0  0  0  0  0  0
  -23.9075  -10.4287   21.0418 C   0  0  0  0  0  0
  -24.3617   -9.4197   21.9200 C   0  0  0  0  0  0
  -23.6294   -8.2236   22.0758 C   0  0  0  0  0  0
  -22.4276   -8.0268   21.3545 C   0  0  0  0  0  0
  -21.9917   -9.0221   20.4649 C   0  0  0  0  0  0
  -22.7257  -10.2114   20.3053 C   0  0  0  0  0  0
  -21.6827   -6.0731   22.5296 C   0  0  0  0  0  0
  -21.4007   -6.5638   23.8229 C   0  0  0  0  0  0
  -21.3669   -5.6776   24.9191 C   0  0  0  0  0  0
  -21.6044   -4.3040   24.7225 C   0  0  0  0  0  0
  -21.8805   -3.8134   23.4341 C   0  0  0  0  0  0
  -21.9188   -4.6962   22.3410 C   0  0  0  0  0  0
  -22.7773  -13.5225   21.1872 C   0  0  0  0  0  0
  -22.1634   -4.2152   21.0978 F   0  0  0  0  0  0
  -21.5638   -3.4530   25.7741 F   0  0  0  0  0  0
  -30.0242  -13.3398   20.4198 N   0  0  0  0  0  0
  -26.2941  -12.9451   20.3343 N   0  0  0  0  0  0
  -25.9319  -11.6593   20.5804 N   0  0  0  0  0  0
  -22.0398  -12.8207   22.0425 N   0  0  0  0  0  0
  -25.4151  -15.1929   20.3995 N   0  0  0  0  0  0
  -31.8917  -14.5674   20.0780 O   0  0  0  0  0  0
  -21.6632   -6.8868   21.4258 O   0  0  0  0  0  0
  -22.3479  -14.5551   20.6752 O   0  0  0  0  0  0
  -24.6145  -31.8695   23.2046 C   0  0  0  0  0  0
  -25.9009  -32.4829   23.8334 C   0  0  1  0  0  0
  -27.2164  -27.3907   20.0938 C   0  0  0  0  0  0
  -25.5851  -33.8624   24.2255 N   0  0  0  0  0  0
  -23.4014  -30.5024   21.5467 C   0  0  2  0  0  0
  -24.8399  -28.9675   20.1211 C   0  0  0  0  0  0
  -22.7352  -29.4721   22.4905 C   0  0  0  0  0  0
  -18.0251  -28.1420   22.8515 C   0  0  0  0  0  0
  -24.1528  -36.7347   23.2662 C   0  0  0  0  0  0
  -25.9400  -30.8218   21.3666 C   0  0  0  0  0  0
  -26.0123  -29.4556   20.7121 C   0  0  0  0  0  0
  -27.2005  -28.6756   20.6971 C   0  0  0  0  0  0
  -26.0048  -26.9383   19.5041 C   0  0  0  0  0  0
  -24.8315  -27.7039   19.5251 C   0  0  0  0  0  0
  -23.6121  -29.8454   20.1598 C   0  0  0  0  0  0
  -25.4149  -36.3128   24.0344 C   0  0  1  0  0  0
  -20.5863  -28.3697   23.1314 C   0  0  2  0  0  0
  -20.6740  -26.9421   22.5444 C   0  0  0  0  0  0
  -19.5723  -26.6413   21.5232 C   0  0  0  0  0  0
  -18.1892  -26.7978   22.1630 C   0  0  0  0  0  0
  -19.1521  -28.8859   23.2933 C   0  0  0  0  0  0
  -18.9454  -30.1454   23.8966 C   0  0  0  0  0  0
  -17.6470  -30.6630   24.0620 C   0  0  0  0  0  0
  -25.9074  -34.9496   23.5116 C   0  0  0  0  0  0
  -16.5345  -29.9158   23.6371 C   0  0  0  0  0  0
  -16.7246  -28.6570   23.0410 C   0  0  0  0  0  0
  -26.4420  -31.6620   25.0674 C   0  0  0  0  0  0
  -25.3633  -31.3736   26.1368 C   0  0  0  0  0  0
  -27.0306  -30.3063   24.6113 C   0  0  0  0  0  0
  -27.5925  -32.4404   25.7451 C   0  0  0  0  0  0
  -27.5602  -37.1862   24.8470 C   0  0  0  0  0  0
  -21.4072  -29.3095   22.3688 N   0  0  0  0  0  0
  -26.4305  -37.3836   23.9421 N   0  0  0  0  0  0
  -24.6713  -31.0796   22.0958 N   0  0  0  0  0  0
  -23.4123  -28.8208   23.2915 O   0  0  0  0  0  0
  -28.3718  -26.5976   20.1033 O   0  0  0  0  0  0
  -26.5692  -34.8966   22.4717 O   0  0  0  0  0  0
  -23.5305  -32.1436   23.7443 O   0  0  0  0  0  0
  -31.8491  -19.5267   21.3540 C   0  0  0  0  0  0
  -32.0551  -17.1031   21.4634 C   0  0  0  0  0  0
  -29.9233  -18.1084   20.8819 C   0  0  0  0  0  0
  -32.6460  -18.3770   21.5344 C   0  0  0  0  0  0
  -30.4854  -19.4242   20.9959 C   0  0  0  0  0  0
  -30.6951  -16.9307   21.1114 C   0  0  0  0  0  0
  -29.3025  -24.1704   19.8244 C   0  0  0  0  0  0
  -29.3062  -23.1114   20.6965 C   0  0  0  0  0  0
  -30.2124  -24.1671   18.6602 C   0  0  0  0  0  0
  -34.1104  -18.4524   21.6516 C   0  0  0  0  0  0
  -34.8655  -19.4687   21.2018 C   0  0  0  0  0  0
  -29.6020  -20.6659   20.8550 C   0  0  0  0  0  0
  -30.9640  -22.8758   18.3606 C   0  0  0  0  0  0
  -31.2767  -22.0695   19.6349 C   0  0  0  0  0  0
  -28.5032  -23.1903   22.0004 C   0  0  0  0  0  0
  -36.3770  -19.5216   21.2801 C   0  0  0  0  0  0
  -28.1535  -25.2044   19.7539 C   0  0  0  0  0  0
  -30.0984  -21.9182   20.5162 N   0  0  0  0  0  0
  -30.1218  -15.6017   21.0007 N   0  0  0  0  0  0
  -30.3878  -25.1456   17.9285 O   0  0  0  0  0  0
  -28.3966  -20.4897   21.0681 O   0  0  0  0  0  0
  -31.4430  -12.3651   19.1233 H   0  0  0  0  0  0
  -30.2681  -11.3145   19.8546 H   0  0  0  0  0  0
  -29.7164  -11.7526   17.4399 H   0  0  0  0  0  0
  -29.6536  -13.4715   17.7477 H   0  0  0  0  0  0
  -27.8103  -11.3159   18.8247 H   0  0  0  0  0  0
  -27.3521  -12.6354   17.7827 H   0  0  0  0  0  0
  -27.6728  -14.2703   19.5390 H   0  0  0  0  0  0
  -28.6656  -12.0556   21.3937 H   0  0  0  0  0  0
  -28.4703  -13.7331   21.8208 H   0  0  0  0  0  0
  -25.2757   -9.5664   22.4786 H   0  0  0  0  0  0
  -23.9997   -7.4617   22.7457 H   0  0  0  0  0  0
  -21.0865   -8.8729   19.8923 H   0  0  0  0  0  0
  -22.3725  -10.9633   19.6131 H   0  0  0  0  0  0
  -21.1990   -7.6139   23.9746 H   0  0  0  0  0  0
  -21.1500   -6.0500   25.9098 H   0  0  0  0  0  0
  -22.0579   -2.7596   23.2836 H   0  0  0  0  0  0
  -22.3936  -11.9795   22.4736 H   0  0  0  0  0  0
  -21.1063  -13.1323   22.2708 H   0  0  0  0  0  0
  -24.6456  -15.8453   20.4980 H   0  0  0  0  0  0
  -26.2599  -15.6299   20.0538 H   0  0  0  0  0  0
  -26.7088  -32.5506   23.1099 H   0  0  0  0  0  0
  -24.9880  -33.9792   25.0305 H   0  0  0  0  0  0
  -22.6943  -31.3224   21.4075 H   0  0  0  0  0  0
  -23.3798  -35.9673   23.3307 H   0  0  0  0  0  0
  -24.3626  -36.9024   22.2092 H   0  0  0  0  0  0
  -23.7283  -37.6534   23.6697 H   0  0  0  0  0  0
  -26.0643  -31.5896   20.6016 H   0  0  0  0  0  0
  -26.8238  -30.8644   21.9897 H   0  0  0  0  0  0
  -28.1004  -29.0520   21.1629 H   0  0  0  0  0  0
  -25.9006  -25.9770   19.0285 H   0  0  0  0  0  0
  -23.9245  -27.3154   19.0846 H   0  0  0  0  0  0
  -23.7402  -30.6219   19.4028 H   0  0  0  0  0  0
  -22.7289  -29.2828   19.8477 H   0  0  0  0  0  0
  -25.1383  -36.1975   25.0850 H   0  0  0  0  0  0
  -21.0000  -28.3280   24.1408 H   0  0  0  0  0  0
  -20.5577  -26.2321   23.3647 H   0  0  0  0  0  0
  -21.6607  -26.7417   22.1263 H   0  0  0  0  0  0
  -19.6851  -25.6314   21.1274 H   0  0  0  0  0  0
  -19.6679  -27.3220   20.6761 H   0  0  0  0  0  0
  -17.4170  -26.6750   21.4047 H   0  0  0  0  0  0
  -18.0276  -26.0100   22.9003 H   0  0  0  0  0  0
  -19.7937  -30.7250   24.2356 H   0  0  0  0  0  0
  -17.5051  -31.6308   24.5218 H   0  0  0  0  0  0
  -15.5375  -30.3126   23.7647 H   0  0  0  0  0  0
  -15.8623  -28.0903   22.7166 H   0  0  0  0  0  0
  -24.5849  -30.7064   25.7661 H   0  0  0  0  0  0
  -24.8782  -32.2918   26.4698 H   0  0  0  0  0  0
  -25.7943  -30.8951   27.0179 H   0  0  0  0  0  0
  -26.2898  -29.6764   24.1189 H   0  0  0  0  0  0
  -27.4106  -29.7348   25.4593 H   0  0  0  0  0  0
  -27.8685  -30.4410   23.9272 H   0  0  0  0  0  0
  -27.2465  -33.3725   26.1923 H   0  0  0  0  0  0
  -28.3736  -32.6974   25.0284 H   0  0  0  0  0  0
  -28.0545  -31.8619   26.5449 H   0  0  0  0  0  0
  -28.2601  -38.0190   24.7565 H   0  0  0  0  0  0
  -28.1153  -36.2726   24.6277 H   0  0  0  0  0  0
  -27.2312  -37.1490   25.8874 H   0  0  0  0  0  0
  -20.9115  -29.8941   21.7098 H   0  0  0  0  0  0
  -26.0187  -38.2885   24.1529 H   0  0  0  0  0  0
  -32.2996  -20.4994   21.4823 H   0  0  0  0  0  0
  -32.6910  -16.2498   21.6459 H   0  0  0  0  0  0
  -28.8790  -18.0083   20.6153 H   0  0  0  0  0  0
  -34.5965  -17.6093   22.1278 H   0  0  0  0  0  0
  -34.3998  -20.3160   20.7181 H   0  0  0  0  0  0
  -31.8850  -23.1123   17.8280 H   0  0  0  0  0  0
  -30.3445  -22.2864   17.6861 H   0  0  0  0  0  0
  -32.0703  -22.5642   20.1948 H   0  0  0  0  0  0
  -31.6833  -21.1168   19.3035 H   0  0  0  0  0  0
  -28.5483  -24.2009   22.4097 H   0  0  0  0  0  0
  -28.9020  -22.5381   22.7780 H   0  0  0  0  0  0
  -27.4552  -22.9397   21.8382 H   0  0  0  0  0  0
  -36.7806  -18.7096   21.8854 H   0  0  0  0  0  0
  -36.6959  -20.4679   21.7164 H   0  0  0  0  0  0
  -36.8019  -19.4468   20.2773 H   0  0  0  0  0  0
  -27.3363  -24.8247   20.3683 H   0  0  0  0  0  0
  -27.8012  -25.1535   18.7208 H   0  0  0  0  0  0
  -29.1381  -15.4989   21.1950 H   0  0  0  0  0  0
  1 25  1  0  0  0
  1 30  2  0  0  0
  1 89  1  0  0  0
  2  3  1  0  0  0
  2 25  1  0  0  0
  2 92  1  0  0  0
  2 93  1  0  0  0
  3  4  1  0  0  0
  3 94  1  0  0  0
  3 95  1  0  0  0
  4  5  1  0  0  0
  4 96  1  0  0  0
  4 97  1  0  0  0
  5  6  1  0  0  0
  5 26  1  0  0  0
  5 98  1  0  0  0
  6 25  1  0  0  0
  6 99  1  0  0  0
  6100  1  0  0  0
  7  8  2  0  0  0
  7 26  1  0  0  0
  7 29  1  0  0  0
  8  9  1  0  0  0
  8 22  1  0  0  0
  9 10  1  0  0  0
  9 27  2  0  0  0
 10 11  2  0  0  0
 10 15  1  0  0  0
 11 12  1  0  0  0
 11101  1  0  0  0
 12 13  2  0  0  0
 12102  1  0  0  0
 13 14  1  0  0  0
 13 31  1  0  0  0
 14 15  2  0  0  0
 14103  1  0  0  0
 15104  1  0  0  0
 16 17  2  0  0  0
 16 21  1  0  0  0
 16 31  1  0  0  0
 17 18  1  0  0  0
 17105  1  0  0  0
 18 19  2  0  0  0
 18106  1  0  0  0
 19 20  1  0  0  0
 19 24  1  0  0  0
 20 21  2  0  0  0
 20107  1  0  0  0
 21 23  1  0  0  0
 22 28  1  0  0  0
 22 32  2  0  0  0
 26 27  1  0  0  0
 28108  1  0  0  0
 28109  1  0  0  0
 29110  1  0  0  0
 29111  1  0  0  0
 33 34  1  0  0  0
 33 66  1  0  0  0
 33 70  2  0  0  0
 34 36  1  0  0  0
 34 59  1  0  0  0
 34112  1  0  0  0
 35 44  2  0  0  0
 35 45  1  0  0  0
 35 68  1  0  0  0
 36 56  1  0  0  0
 36113  1  0  0  0
 37 39  1  0  0  0
 37 47  1  0  0  0
 37 66  1  0  0  0
 37114  1  0  0  0
 38 43  2  0  0  0
 38 46  1  0  0  0
 38 47  1  0  0  0
 39 64  1  0  0  0
 39 67  2  0  0  0
 40 52  1  0  0  0
 40 53  2  0  0  0
 40 58  1  0  0  0
 41115  1  0  0  0
 41116  1  0  0  0
 41117  1  0  0  0
 41 48  1  0  0  0
 42 43  1  0  0  0
 42 66  1  0  0  0
 42118  1  0  0  0
 42119  1  0  0  0
 43 44  1  0  0  0
 44120  1  0  0  0
 45 46  2  0  0  0
 45121  1  0  0  0
 46122  1  0  0  0
 47123  1  0  0  0
 47124  1  0  0  0
 48 56  1  0  0  0
 48 65  1  0  0  0
 48125  1  0  0  0
 49 50  1  0  0  0
 49 53  1  0  0  0
 49 64  1  0  0  0
 49126  1  0  0  0
 50 51  1  0  0  0
 50127  1  0  0  0
 50128  1  0  0  0
 51 52  1  0  0  0
 51129  1  0  0  0
 51130  1  0  0  0
 52131  1  0  0  0
 52132  1  0  0  0
 53 54  1  0  0  0
 54 55  2  0  0  0
 54133  1  0  0  0
 55 57  1  0  0  0
 55134  1  0  0  0
 56 69  2  0  0  0
 57 58  2  0  0  0
 57135  1  0  0  0
 58136  1  0  0  0
 59 60  1  0  0  0
 59 61  1  0  0  0
 59 62  1  0  0  0
 60137  1  0  0  0
 60138  1  0  0  0
 60139  1  0  0  0
 61140  1  0  0  0
 61141  1  0  0  0
 61142  1  0  0  0
 62143  1  0  0  0
 62144  1  0  0  0
 62145  1  0  0  0
 63 65  1  0  0  0
 63146  1  0  0  0
 63147  1  0  0  0
 63148  1  0  0  0
 64149  1  0  0  0
 65150  1  0  0  0
 68 87  1  0  0  0
 71 74  2  0  0  0
 71 75  1  0  0  0
 71151  1  0  0  0
 72 74  1  0  0  0
 72 76  2  0  0  0
 72152  1  0  0  0
 73 75  2  0  0  0
 73 76  1  0  0  0
 73153  1  0  0  0
 74 80  1  0  0  0
 75 82  1  0  0  0
 76 89  1  0  0  0
 77 78  2  0  0  0
 77 79  1  0  0  0
 77 87  1  0  0  0
 78 85  1  0  0  0
 78 88  1  0  0  0
 79 83  1  0  0  0
 79 90  2  0  0  0
 80 81  2  0  0  0
 80154  1  0  0  0
 81 86  1  0  0  0
 81155  1  0  0  0
 82 88  1  0  0  0
 82 91  2  0  0  0
 83 84  1  0  0  0
 83156  1  0  0  0
 83157  1  0  0  0
 84 88  1  0  0  0
 84158  1  0  0  0
 84159  1  0  0  0
 85160  1  0  0  0
 85161  1  0  0  0
 85162  1  0  0  0
 86163  1  0  0  0
 86164  1  0  0  0
 86165  1  0  0  0
 87166  1  0  0  0
 87167  1  0  0  0
 89168  1  0  0  0
M  ISO  4   1 100  68 101  87 101  89 100
M  END
> <chiral flag>
0

> <version>
0

> <s_m_source_file>
/data/baiqing/PycharmProjects/Reinvent-master-3.2/result/LINK_invent/BTK/process_docking_weight1_custom_product_contain_oxygen_bond_distance_aromatic_linkinvent_7_9_3/rearranged_h_0112.sdf

> <i_m_source_file_index>
76

> <r_mmod_Potential_Energy-OPLS-2005>
156.416229248047

> <r_mmod_Stretch_Energy-OPLS-2005>
67.8336715698242

> <r_mmod_Bend_Energy-OPLS-2005>
125.318336486816

> <r_mmod_Torsional_Energy-OPLS-2005>
251.890701293945

> <r_mmod_Improper_Torsional_Energy-OPLS-2005>
6.33305788040161

> <r_mmod_Van_der_Waal_Energy-OPLS-2005>
201.849624633789

> <r_mmod_Electrostatic_Energy-OPLS-2005>
-289.477600097656

> <r_mmod_Solvation_Energy-OPLS-2005>
-230.302932739258

> <b_mmod_Minimization_Converged-OPLS-2005>
0

> <r_mmod_RMS_Derivative-OPLS-2005>
4.38459968566895

$$$$
77
                    3D
 Structure written by MMmdl.
154163  0  0  1  0            999 V2000
  -30.5111  -15.0198   20.4142 C   0  0  0  0  0  0
  -30.4388  -12.6329   19.5191 C   0  0  0  0  0  0
  -29.5283  -12.5375   18.2723 C   0  0  0  0  0  0
  -28.0621  -12.3137   18.6818 C   0  0  0  0  0  0
  -27.6254  -13.2518   19.8383 C   0  0  2  0  0  0
  -28.6619  -13.3040   20.9806 C   0  0  0  0  0  0
  -25.2435  -13.8225   20.5691 C   0  0  0  0  0  0
  -24.1766  -13.0446   20.9237 C   0  0  0  0  0  0
  -24.6383  -11.6937   20.8761 C   0  0  0  0  0  0
  -23.9074  -10.4304   21.0421 C   0  0  0  0  0  0
  -24.3627   -9.4225   21.9197 C   0  0  0  0  0  0
  -23.6300   -8.2256   22.0751 C   0  0  0  0  0  0
  -22.4279   -8.0287   21.3550 C   0  0  0  0  0  0
  -21.9922   -9.0265   20.4647 C   0  0  0  0  0  0
  -22.7244  -10.2146   20.3068 C   0  0  0  0  0  0
  -21.6864   -6.0738   22.5283 C   0  0  0  0  0  0
  -21.4017   -6.5640   23.8213 C   0  0  0  0  0  0
  -21.3678   -5.6794   24.9180 C   0  0  0  0  0  0
  -21.6048   -4.3052   24.7230 C   0  0  0  0  0  0
  -21.8827   -3.8148   23.4349 C   0  0  0  0  0  0
  -21.9200   -4.6968   22.3407 C   0  0  0  0  0  0
  -22.7787  -13.5214   21.1890 C   0  0  0  0  0  0
  -22.1654   -4.2162   21.0980 F   0  0  0  0  0  0
  -21.5643   -3.4532   25.7734 F   0  0  0  0  0  0
  -29.9308  -13.7424   20.3863 N   0  0  0  0  0  0
  -26.2849  -12.9455   20.3217 N   0  0  0  0  0  0
  -25.9312  -11.6584   20.5727 N   0  0  0  0  0  0
  -22.0434  -12.8210   22.0446 N   0  0  0  0  0  0
  -25.4101  -15.1958   20.4093 N   0  0  0  0  0  0
  -31.7183  -15.0514   20.1327 O   0  0  0  0  0  0
  -21.6650   -6.8881   21.4237 O   0  0  0  0  0  0
  -22.3469  -14.5517   20.6721 O   0  0  0  0  0  0
  -24.6486  -31.8379   23.1856 C   0  0  0  0  0  0
  -25.9234  -32.4667   23.8265 C   0  0  1  0  0  0
  -27.2107  -27.0842   20.1672 C   0  0  0  0  0  0
  -25.5966  -33.8475   24.2184 N   0  0  0  0  0  0
  -23.4547  -30.4574   21.5297 C   0  0  2  0  0  0
  -24.9052  -28.8753   20.1077 C   0  0  0  0  0  0
  -22.7599  -29.4520   22.4831 C   0  0  0  0  0  0
  -18.0314  -28.1392   22.8468 C   0  0  0  0  0  0
  -24.1492  -36.7244   23.2644 C   0  0  0  0  0  0
  -26.0132  -30.6963   21.3926 C   0  0  0  0  0  0
  -26.0823  -29.3026   20.7351 C   0  0  0  0  0  0
  -27.2345  -28.4231   20.7474 C   0  0  0  0  0  0
  -26.0137  -26.7745   19.4870 C   0  0  0  0  0  0
  -24.8876  -27.6279   19.4650 C   0  0  0  0  0  0
  -23.6841  -29.7829   20.1498 C   0  0  0  0  0  0
  -25.4120  -36.3012   24.0317 C   0  0  1  0  0  0
  -20.5928  -28.3719   23.1218 C   0  0  2  0  0  0
  -20.6793  -26.9416   22.5401 C   0  0  0  0  0  0
  -19.5767  -26.6373   21.5212 C   0  0  0  0  0  0
  -18.1949  -26.7932   22.1620 C   0  0  0  0  0  0
  -19.1566  -28.8877   23.2839 C   0  0  0  0  0  0
  -18.9484  -30.1473   23.8867 C   0  0  0  0  0  0
  -17.6476  -30.6585   24.0556 C   0  0  0  0  0  0
  -25.9076  -34.9388   23.5062 C   0  0  0  0  0  0
  -16.5368  -29.9069   23.6338 C   0  0  0  0  0  0
  -16.7296  -28.6491   23.0357 C   0  0  0  0  0  0
  -26.4546  -31.6549   25.0726 C   0  0  0  0  0  0
  -25.3715  -31.3746   26.1413 C   0  0  0  0  0  0
  -27.0426  -30.2940   24.6346 C   0  0  0  0  0  0
  -27.6078  -32.4316   25.7512 C   0  0  0  0  0  0
  -27.5575  -37.1777   24.8462 C   0  0  0  0  0  0
  -21.4286  -29.3043   22.3583 N   0  0  0  0  0  0
  -26.4285  -37.3728   23.9410 N   0  0  0  0  0  0
  -24.7251  -31.0202   22.0906 N   0  0  0  0  0  0
  -23.4223  -28.8068   23.3005 O   0  0  0  0  0  0
  -28.2425  -26.0658   20.2651 O   0  0  0  0  0  0
  -26.5660  -34.8890   22.4642 O   0  0  0  0  0  0
  -23.5593  -32.1275   23.7052 O   0  0  0  0  0  0
  -30.5028  -20.5027   19.6348 C   0  0  0  0  0  0
  -29.0594  -18.8862   20.6647 C   0  0  0  0  0  0
  -31.3168  -19.3954   19.3175 C   0  0  0  0  0  0
  -29.3026  -20.3411   20.3476 C   0  0  0  0  0  0
  -29.9512  -17.7319   20.3166 C   0  0  0  0  0  0
  -27.5231  -21.5238   21.6184 C   0  0  0  0  0  0
  -27.5212  -22.6939   22.5908 C   0  0  0  0  0  0
  -28.7854  -23.4605   22.2042 C   0  0  0  0  0  0
  -28.8910  -23.1989   20.6998 C   0  0  2  0  0  0
  -27.9990  -24.5163   20.0508 C   0  0  0  0  0  0
  -31.0623  -18.0992   19.6374 N   0  0  0  0  0  0
  -28.4921  -21.6347   20.6880 N   0  0  0  0  0  0
  -29.7327  -16.2193   20.6030 N   0  0  0  0  0  0
  -26.6982  -20.6108   21.7130 O   0  0  0  0  0  0
  -31.4700  -12.7998   19.2028 H   0  0  0  0  0  0
  -30.4502  -11.6882   20.0649 H   0  0  0  0  0  0
  -29.8621  -11.7274   17.6225 H   0  0  0  0  0  0
  -29.6094  -13.4550   17.6878 H   0  0  0  0  0  0
  -27.9658  -11.2728   18.9932 H   0  0  0  0  0  0
  -27.4048  -12.4355   17.8193 H   0  0  0  0  0  0
  -27.5789  -14.2507   19.4016 H   0  0  0  0  0  0
  -28.7663  -12.3311   21.4640 H   0  0  0  0  0  0
  -28.3420  -14.0021   21.7563 H   0  0  0  0  0  0
  -25.2791   -9.5702   22.4754 H   0  0  0  0  0  0
  -24.0037   -7.4653   22.7459 H   0  0  0  0  0  0
  -21.0868   -8.8778   19.8939 H   0  0  0  0  0  0
  -22.3714  -10.9685   19.6167 H   0  0  0  0  0  0
  -21.1980   -7.6141   23.9720 H   0  0  0  0  0  0
  -21.1493   -6.0514   25.9083 H   0  0  0  0  0  0
  -22.0582   -2.7609   23.2844 H   0  0  0  0  0  0
  -22.4039  -11.9892   22.4882 H   0  0  0  0  0  0
  -21.1036  -13.1226   22.2605 H   0  0  0  0  0  0
  -24.6378  -15.8447   20.5155 H   0  0  0  0  0  0
  -26.2384  -15.6343   20.0288 H   0  0  0  0  0  0
  -26.7306  -32.5256   23.0997 H   0  0  0  0  0  0
  -25.0081  -33.9581   25.0309 H   0  0  0  0  0  0
  -22.7599  -31.2845   21.3720 H   0  0  0  0  0  0
  -23.3756  -35.9577   23.3285 H   0  0  0  0  0  0
  -24.3580  -36.8894   22.2065 H   0  0  0  0  0  0
  -23.7250  -37.6436   23.6693 H   0  0  0  0  0  0
  -26.1758  -31.4457   20.6170 H   0  0  0  0  0  0
  -26.8817  -30.7489   22.0377 H   0  0  0  0  0  0
  -28.1260  -28.7407   21.2696 H   0  0  0  0  0  0
  -25.9154  -25.8213   18.9884 H   0  0  0  0  0  0
  -23.9915  -27.2977   18.9571 H   0  0  0  0  0  0
  -23.8263  -30.5553   19.3934 H   0  0  0  0  0  0
  -22.7981  -29.2270   19.8389 H   0  0  0  0  0  0
  -25.1316  -36.1836   25.0811 H   0  0  0  0  0  0
  -21.0029  -28.3317   24.1337 H   0  0  0  0  0  0
  -20.5675  -26.2342   23.3625 H   0  0  0  0  0  0
  -21.6658  -26.7409   22.1207 H   0  0  0  0  0  0
  -19.6923  -25.6276   21.1260 H   0  0  0  0  0  0
  -19.6705  -27.3169   20.6727 H   0  0  0  0  0  0
  -17.4221  -26.6682   21.4021 H   0  0  0  0  0  0
  -18.0341  -26.0078   22.9019 H   0  0  0  0  0  0
  -19.7957  -30.7302   24.2224 H   0  0  0  0  0  0
  -17.5022  -31.6263   24.5156 H   0  0  0  0  0  0
  -15.5362  -30.2958   23.7677 H   0  0  0  0  0  0
  -15.8701  -28.0798   22.7084 H   0  0  0  0  0  0
  -24.5900  -30.7095   25.7727 H   0  0  0  0  0  0
  -24.8900  -32.2924   26.4792 H   0  0  0  0  0  0
  -25.7982  -30.8943   27.0226 H   0  0  0  0  0  0
  -26.3064  -29.6635   24.1350 H   0  0  0  0  0  0
  -27.4020  -29.7279   25.4951 H   0  0  0  0  0  0
  -27.8981  -30.4179   23.9702 H   0  0  0  0  0  0
  -27.2684  -33.3635   26.2049 H   0  0  0  0  0  0
  -28.3915  -32.6831   25.0353 H   0  0  0  0  0  0
  -28.0719  -31.8456   26.5459 H   0  0  0  0  0  0
  -28.2580  -38.0086   24.7508 H   0  0  0  0  0  0
  -28.1084  -36.2612   24.6287 H   0  0  0  0  0  0
  -27.2293  -37.1421   25.8866 H   0  0  0  0  0  0
  -20.9497  -29.8753   21.6750 H   0  0  0  0  0  0
  -26.0143  -38.2800   24.1398 H   0  0  0  0  0  0
  -30.8254  -21.4848   19.3227 H   0  0  0  0  0  0
  -28.1591  -18.6408   21.2107 H   0  0  0  0  0  0
  -32.2328  -19.5607   18.7712 H   0  0  0  0  0  0
  -27.5465  -22.3583   23.6267 H   0  0  0  0  0  0
  -26.6199  -23.2893   22.4452 H   0  0  0  0  0  0
  -29.6495  -23.0486   22.7269 H   0  0  0  0  0  0
  -28.7338  -24.5198   22.4588 H   0  0  0  0  0  0
  -29.9281  -23.3055   20.3839 H   0  0  0  0  0  0
  -26.9635  -24.3439   20.3411 H   0  0  0  0  0  0
  -27.9979  -24.3747   18.9705 H   0  0  0  0  0  0
  -28.8044  -16.0123   20.9351 H   0  0  0  0  0  0
  1 25  1  0  0  0
  1 30  2  0  0  0
  1 83  1  0  0  0
  2  3  1  0  0  0
  2 25  1  0  0  0
  2 85  1  0  0  0
  2 86  1  0  0  0
  3  4  1  0  0  0
  3 87  1  0  0  0
  3 88  1  0  0  0
  4  5  1  0  0  0
  4 89  1  0  0  0
  4 90  1  0  0  0
  5  6  1  0  0  0
  5 26  1  0  0  0
  5 91  1  0  0  0
  6 25  1  0  0  0
  6 92  1  0  0  0
  6 93  1  0  0  0
  7  8  2  0  0  0
  7 26  1  0  0  0
  7 29  1  0  0  0
  8  9  1  0  0  0
  8 22  1  0  0  0
  9 10  1  0  0  0
  9 27  2  0  0  0
 10 11  2  0  0  0
 10 15  1  0  0  0
 11 12  1  0  0  0
 11 94  1  0  0  0
 12 13  2  0  0  0
 12 95  1  0  0  0
 13 14  1  0  0  0
 13 31  1  0  0  0
 14 15  2  0  0  0
 14 96  1  0  0  0
 15 97  1  0  0  0
 16 17  2  0  0  0
 16 21  1  0  0  0
 16 31  1  0  0  0
 17 18  1  0  0  0
 17 98  1  0  0  0
 18 19  2  0  0  0
 18 99  1  0  0  0
 19 20  1  0  0  0
 19 24  1  0  0  0
 20 21  2  0  0  0
 20100  1  0  0  0
 21 23  1  0  0  0
 22 28  1  0  0  0
 22 32  2  0  0  0
 26 27  1  0  0  0
 28101  1  0  0  0
 28102  1  0  0  0
 29103  1  0  0  0
 29104  1  0  0  0
 33 34  1  0  0  0
 33 66  1  0  0  0
 33 70  2  0  0  0
 34 36  1  0  0  0
 34 59  1  0  0  0
 34105  1  0  0  0
 35 44  2  0  0  0
 35 45  1  0  0  0
 35 68  1  0  0  0
 36 56  1  0  0  0
 36106  1  0  0  0
 37 39  1  0  0  0
 37 47  1  0  0  0
 37 66  1  0  0  0
 37107  1  0  0  0
 38 43  2  0  0  0
 38 46  1  0  0  0
 38 47  1  0  0  0
 39 64  1  0  0  0
 39 67  2  0  0  0
 40 52  1  0  0  0
 40 53  2  0  0  0
 40 58  1  0  0  0
 41108  1  0  0  0
 41109  1  0  0  0
 41110  1  0  0  0
 41 48  1  0  0  0
 42 43  1  0  0  0
 42 66  1  0  0  0
 42111  1  0  0  0
 42112  1  0  0  0
 43 44  1  0  0  0
 44113  1  0  0  0
 45 46  2  0  0  0
 45114  1  0  0  0
 46115  1  0  0  0
 47116  1  0  0  0
 47117  1  0  0  0
 48 56  1  0  0  0
 48 65  1  0  0  0
 48118  1  0  0  0
 49 50  1  0  0  0
 49 53  1  0  0  0
 49 64  1  0  0  0
 49119  1  0  0  0
 50 51  1  0  0  0
 50120  1  0  0  0
 50121  1  0  0  0
 51 52  1  0  0  0
 51122  1  0  0  0
 51123  1  0  0  0
 52124  1  0  0  0
 52125  1  0  0  0
 53 54  1  0  0  0
 54 55  2  0  0  0
 54126  1  0  0  0
 55 57  1  0  0  0
 55127  1  0  0  0
 56 69  2  0  0  0
 57 58  2  0  0  0
 57128  1  0  0  0
 58129  1  0  0  0
 59 60  1  0  0  0
 59 61  1  0  0  0
 59 62  1  0  0  0
 60130  1  0  0  0
 60131  1  0  0  0
 60132  1  0  0  0
 61133  1  0  0  0
 61134  1  0  0  0
 61135  1  0  0  0
 62136  1  0  0  0
 62137  1  0  0  0
 62138  1  0  0  0
 63 65  1  0  0  0
 63139  1  0  0  0
 63140  1  0  0  0
 63141  1  0  0  0
 64142  1  0  0  0
 65143  1  0  0  0
 68 80  1  0  0  0
 71 73  2  0  0  0
 71 74  1  0  0  0
 71144  1  0  0  0
 72 74  2  0  0  0
 72 75  1  0  0  0
 72145  1  0  0  0
 73 81  1  0  0  0
 73146  1  0  0  0
 74 82  1  0  0  0
 75 81  2  0  0  0
 75 83  1  0  0  0
 76 77  1  0  0  0
 76 82  1  0  0  0
 76 84  2  0  0  0
 77 78  1  0  0  0
 77147  1  0  0  0
 77148  1  0  0  0
 78 79  1  0  0  0
 78149  1  0  0  0
 78150  1  0  0  0
 79 80  1  0  0  0
 79 82  1  0  0  0
 79151  1  0  0  0
 80152  1  0  0  0
 80153  1  0  0  0
 83154  1  0  0  0
M  ISO  4   1 100  68 101  80 101  83 100
M  END
> <chiral flag>
0

> <version>
0

> <s_m_source_file>
/data/baiqing/PycharmProjects/Reinvent-master-3.2/result/LINK_invent/BTK/process_docking_weight1_custom_product_contain_oxygen_bond_distance_aromatic_linkinvent_7_9_3/rearranged_h_0112.sdf

> <i_m_source_file_index>
77

> <r_mmod_Potential_Energy-OPLS-2005>
574.891784667969

> <r_mmod_Stretch_Energy-OPLS-2005>
331.057495117188

> <r_mmod_Bend_Energy-OPLS-2005>
322.692413330078

> <r_mmod_Torsional_Energy-OPLS-2005>
271.722900390625

> <r_mmod_Improper_Torsional_Energy-OPLS-2005>
4.78646230697632

> <r_mmod_Van_der_Waal_Energy-OPLS-2005>
132.882843017578

> <r_mmod_Electrostatic_Energy-OPLS-2005>
-485.566833496094

> <r_mmod_Solvation_Energy-OPLS-2005>
-246.128463745117

> <b_mmod_Minimization_Converged-OPLS-2005>
0

> <r_mmod_RMS_Derivative-OPLS-2005>
2.30774354934692

$$$$
78
                    3D
 Structure written by MMmdl.
164173  0  0  1  0            999 V2000
  -30.5980  -14.6331   20.4777 C   0  0  0  0  0  0
  -30.4413  -12.3786   19.4465 C   0  0  0  0  0  0
  -29.5073  -12.4998   18.2218 C   0  0  0  0  0  0
  -28.0289  -12.3442   18.6329 C   0  0  0  0  0  0
  -27.6565  -13.2101   19.8646 C   0  0  2  0  0  0
  -28.7014  -13.0428   20.9914 C   0  0  0  0  0  0
  -25.2597  -13.8147   20.5699 C   0  0  0  0  0  0
  -24.1850  -13.0437   20.9208 C   0  0  0  0  0  0
  -24.6400  -11.6905   20.8753 C   0  0  0  0  0  0
  -23.9067  -10.4294   21.0417 C   0  0  0  0  0  0
  -24.3617   -9.4213   21.9195 C   0  0  0  0  0  0
  -23.6302   -8.2240   22.0745 C   0  0  0  0  0  0
  -22.4281   -8.0269   21.3535 C   0  0  0  0  0  0
  -21.9921   -9.0244   20.4633 C   0  0  0  0  0  0
  -22.7243  -10.2135   20.3059 C   0  0  0  0  0  0
  -21.6845   -6.0753   22.5283 C   0  0  0  0  0  0
  -21.4009   -6.5650   23.8224 C   0  0  0  0  0  0
  -21.3669   -5.6792   24.9178 C   0  0  0  0  0  0
  -21.6038   -4.3058   24.7215 C   0  0  0  0  0  0
  -21.8823   -3.8161   23.4336 C   0  0  0  0  0  0
  -21.9196   -4.6984   22.3398 C   0  0  0  0  0  0
  -22.7880  -13.5242   21.1864 C   0  0  0  0  0  0
  -22.1660   -4.2175   21.0976 F   0  0  0  0  0  0
  -21.5637   -3.4533   25.7731 F   0  0  0  0  0  0
  -30.0196  -13.3917   20.4324 N   0  0  0  0  0  0
  -26.3012  -12.9311   20.3324 N   0  0  0  0  0  0
  -25.9321  -11.6481   20.5756 N   0  0  0  0  0  0
  -22.0505  -12.8213   22.0387 N   0  0  0  0  0  0
  -25.4354  -15.1863   20.4102 N   0  0  0  0  0  0
  -31.7526  -14.8301   20.0863 O   0  0  0  0  0  0
  -21.6628   -6.8884   21.4241 O   0  0  0  0  0  0
  -22.3575  -14.5551   20.6726 O   0  0  0  0  0  0
  -24.6246  -31.8607   23.2039 C   0  0  0  0  0  0
  -25.9104  -32.4792   23.8325 C   0  0  1  0  0  0
  -27.2124  -27.3189   20.1121 C   0  0  0  0  0  0
  -25.5905  -33.8584   24.2256 N   0  0  0  0  0  0
  -23.4162  -30.4877   21.5454 C   0  0  2  0  0  0
  -24.8587  -28.9435   20.1100 C   0  0  0  0  0  0
  -22.7469  -29.4627   22.4927 C   0  0  0  0  0  0
  -18.0289  -28.1416   22.8503 C   0  0  0  0  0  0
  -24.1480  -36.7267   23.2644 C   0  0  0  0  0  0
  -25.9578  -30.7920   21.3739 C   0  0  0  0  0  0
  -26.0291  -29.4187   20.7171 C   0  0  0  0  0  0
  -27.2094  -28.6187   20.7087 C   0  0  0  0  0  0
  -26.0223  -26.9026   19.4756 C   0  0  0  0  0  0
  -24.8571  -27.6893   19.4818 C   0  0  0  0  0  0
  -23.6291  -29.8287   20.1572 C   0  0  0  0  0  0
  -25.4105  -36.3081   24.0330 C   0  0  1  0  0  0
  -20.5895  -28.3693   23.1303 C   0  0  2  0  0  0
  -20.6799  -26.9427   22.5415 C   0  0  0  0  0  0
  -19.5765  -26.6413   21.5233 C   0  0  0  0  0  0
  -18.1941  -26.7980   22.1627 C   0  0  0  0  0  0
  -19.1546  -28.8868   23.2909 C   0  0  0  0  0  0
  -18.9476  -30.1478   23.8913 C   0  0  0  0  0  0
  -17.6485  -30.6623   24.0582 C   0  0  0  0  0  0
  -25.9038  -34.9461   23.5092 C   0  0  0  0  0  0
  -16.5364  -29.9127   23.6351 C   0  0  0  0  0  0
  -16.7284  -28.6544   23.0362 C   0  0  0  0  0  0
  -26.4485  -31.6602   25.0689 C   0  0  0  0  0  0
  -25.3717  -31.3770   26.1416 C   0  0  0  0  0  0
  -27.0325  -30.3022   24.6145 C   0  0  0  0  0  0
  -27.6020  -32.4336   25.7474 C   0  0  0  0  0  0
  -27.5569  -37.1784   24.8479 C   0  0  0  0  0  0
  -21.4183  -29.3057   22.3680 N   0  0  0  0  0  0
  -26.4283  -37.3780   23.9425 N   0  0  0  0  0  0
  -24.6854  -31.0627   22.0975 N   0  0  0  0  0  0
  -23.4221  -28.8172   23.2979 O   0  0  0  0  0  0
  -28.3321  -26.4775   20.1128 O   0  0  0  0  0  0
  -26.5630  -34.8955   22.4677 O   0  0  0  0  0  0
  -23.5416  -32.1370   23.7387 O   0  0  0  0  0  0
  -30.5606  -17.9123   19.9331 C   0  0  0  0  0  0
  -28.4322  -17.6861   21.0149 C   0  0  0  0  0  0
  -30.2920  -19.3077   19.6931 C   0  0  0  0  0  0
  -29.0565  -19.9159   20.1083 C   0  0  0  0  0  0
  -29.6279  -17.0641   20.5893 C   0  0  0  0  0  0
  -28.1432  -19.0578   20.7863 C   0  0  0  0  0  0
  -29.8836  -22.5022   21.6733 C   0  0  0  0  0  0
  -32.6379  -19.8650   18.9855 C   0  0  0  0  0  0
  -31.3252  -20.1416   19.0466 C   0  0  0  0  0  0
  -30.7447  -23.7284   21.8974 C   0  0  0  0  0  0
  -30.6163  -24.4822   20.5706 C   0  0  0  0  0  0
  -29.2777  -24.0086   19.9838 C   0  0  2  0  0  0
  -28.6504  -21.4177   19.7648 C   0  0  0  0  0  0
  -28.1359  -25.0363   20.4197 C   0  0  0  0  0  0
  -29.1861  -22.6007   20.5293 N   0  0  0  0  0  0
  -26.9131  -19.5277   21.2473 N   0  0  0  0  0  0
  -29.7507  -15.6334   20.8651 N   0  0  0  0  0  0
  -29.9106  -21.5432   22.4469 O   0  0  0  0  0  0
  -31.4818  -12.5099   19.1462 H   0  0  0  0  0  0
  -30.3723  -11.3791   19.8794 H   0  0  0  0  0  0
  -29.7604  -11.7461   17.4755 H   0  0  0  0  0  0
  -29.6562  -13.4682   17.7428 H   0  0  0  0  0  0
  -27.8600  -11.2909   18.8611 H   0  0  0  0  0  0
  -27.3731  -12.5758   17.7926 H   0  0  0  0  0  0
  -27.6784  -14.2482   19.5312 H   0  0  0  0  0  0
  -28.7102  -12.0143   21.3548 H   0  0  0  0  0  0
  -28.4487  -13.6537   21.8588 H   0  0  0  0  0  0
  -25.2755   -9.5695   22.4773 H   0  0  0  0  0  0
  -24.0017   -7.4631   22.7448 H   0  0  0  0  0  0
  -21.0868   -8.8767   19.8915 H   0  0  0  0  0  0
  -22.3707  -10.9684   19.6170 H   0  0  0  0  0  0
  -21.1983   -7.6154   23.9739 H   0  0  0  0  0  0
  -21.1482   -6.0514   25.9088 H   0  0  0  0  0  0
  -22.0591   -2.7618   23.2820 H   0  0  0  0  0  0
  -22.4102  -11.9847   22.4759 H   0  0  0  0  0  0
  -21.1120  -13.1234   22.2585 H   0  0  0  0  0  0
  -24.6676  -15.8401   20.5111 H   0  0  0  0  0  0
  -26.2727  -15.6135   20.0361 H   0  0  0  0  0  0
  -26.7154  -32.5457   23.1051 H   0  0  0  0  0  0
  -25.0052  -33.9719   25.0406 H   0  0  0  0  0  0
  -22.7086  -31.3073   21.4080 H   0  0  0  0  0  0
  -23.3766  -35.9575   23.3316 H   0  0  0  0  0  0
  -24.3573  -36.8862   22.2052 H   0  0  0  0  0  0
  -23.7223  -37.6464   23.6660 H   0  0  0  0  0  0
  -26.0911  -31.5606   20.6116 H   0  0  0  0  0  0
  -26.8386  -30.8347   22.0033 H   0  0  0  0  0  0
  -28.1113  -28.9801   21.1830 H   0  0  0  0  0  0
  -25.9761  -25.9601   18.9510 H   0  0  0  0  0  0
  -23.9665  -27.3233   18.9903 H   0  0  0  0  0  0
  -23.7567  -30.6114   19.4080 H   0  0  0  0  0  0
  -22.7458  -29.2669   19.8441 H   0  0  0  0  0  0
  -25.1304  -36.1898   25.0818 H   0  0  0  0  0  0
  -20.9966  -28.3263   24.1431 H   0  0  0  0  0  0
  -20.5750  -26.2290   23.3594 H   0  0  0  0  0  0
  -21.6663  -26.7521   22.1164 H   0  0  0  0  0  0
  -19.6934  -25.6332   21.1244 H   0  0  0  0  0  0
  -19.6718  -27.3239   20.6778 H   0  0  0  0  0  0
  -17.4220  -26.6739   21.4018 H   0  0  0  0  0  0
  -18.0314  -26.0133   22.9019 H   0  0  0  0  0  0
  -19.7957  -30.7294   24.2267 H   0  0  0  0  0  0
  -17.5058  -31.6302   24.5178 H   0  0  0  0  0  0
  -15.5378  -30.3043   23.7707 H   0  0  0  0  0  0
  -15.8676  -28.0886   22.7068 H   0  0  0  0  0  0
  -24.5918  -30.7093   25.7761 H   0  0  0  0  0  0
  -24.8893  -32.2951   26.4765 H   0  0  0  0  0  0
  -25.8034  -30.9021   27.0240 H   0  0  0  0  0  0
  -26.2892  -29.6778   24.1178 H   0  0  0  0  0  0
  -27.4066  -29.7249   25.4616 H   0  0  0  0  0  0
  -27.8749  -30.4339   23.9357 H   0  0  0  0  0  0
  -27.2621  -33.3673   26.1984 H   0  0  0  0  0  0
  -28.3875  -32.6817   25.0322 H   0  0  0  0  0  0
  -28.0640  -31.8503   26.5457 H   0  0  0  0  0  0
  -28.2592  -38.0077   24.7514 H   0  0  0  0  0  0
  -28.1064  -36.2599   24.6325 H   0  0  0  0  0  0
  -27.2289  -37.1446   25.8888 H   0  0  0  0  0  0
  -20.9344  -29.8743   21.6872 H   0  0  0  0  0  0
  -26.0155  -38.2851   24.1461 H   0  0  0  0  0  0
  -31.4895  -17.4817   19.5871 H   0  0  0  0  0  0
  -27.6972  -17.0859   21.5329 H   0  0  0  0  0  0
  -33.3138  -20.5378   18.4764 H   0  0  0  0  0  0
  -33.0665  -18.9817   19.4361 H   0  0  0  0  0  0
  -30.9978  -21.0498   18.5632 H   0  0  0  0  0  0
  -31.7770  -23.4566   22.1213 H   0  0  0  0  0  0
  -30.3396  -24.2991   22.7335 H   0  0  0  0  0  0
  -31.4341  -24.1907   19.9095 H   0  0  0  0  0  0
  -30.6759  -25.5624   20.7016 H   0  0  0  0  0  0
  -29.3322  -23.9842   18.8950 H   0  0  0  0  0  0
  -27.5675  -21.5092   19.8183 H   0  0  0  0  0  0
  -28.8518  -21.5793   18.7052 H   0  0  0  0  0  0
  -28.0193  -24.9766   21.5020 H   0  0  0  0  0  0
  -27.1969  -24.6512   20.0276 H   0  0  0  0  0  0
  -26.1734  -18.8728   21.4770 H   0  0  0  0  0  0
  -26.5837  -20.4538   21.0044 H   0  0  0  0  0  0
  -28.9164  -15.2419   21.2730 H   0  0  0  0  0  0
  1 25  1  0  0  0
  1 30  2  0  0  0
  1 87  1  0  0  0
  2  3  1  0  0  0
  2 25  1  0  0  0
  2 89  1  0  0  0
  2 90  1  0  0  0
  3  4  1  0  0  0
  3 91  1  0  0  0
  3 92  1  0  0  0
  4  5  1  0  0  0
  4 93  1  0  0  0
  4 94  1  0  0  0
  5  6  1  0  0  0
  5 26  1  0  0  0
  5 95  1  0  0  0
  6 25  1  0  0  0
  6 96  1  0  0  0
  6 97  1  0  0  0
  7  8  2  0  0  0
  7 26  1  0  0  0
  7 29  1  0  0  0
  8  9  1  0  0  0
  8 22  1  0  0  0
  9 10  1  0  0  0
  9 27  2  0  0  0
 10 11  2  0  0  0
 10 15  1  0  0  0
 11 12  1  0  0  0
 11 98  1  0  0  0
 12 13  2  0  0  0
 12 99  1  0  0  0
 13 14  1  0  0  0
 13 31  1  0  0  0
 14 15  2  0  0  0
 14100  1  0  0  0
 15101  1  0  0  0
 16 17  2  0  0  0
 16 21  1  0  0  0
 16 31  1  0  0  0
 17 18  1  0  0  0
 17102  1  0  0  0
 18 19  2  0  0  0
 18103  1  0  0  0
 19 20  1  0  0  0
 19 24  1  0  0  0
 20 21  2  0  0  0
 20104  1  0  0  0
 21 23  1  0  0  0
 22 28  1  0  0  0
 22 32  2  0  0  0
 26 27  1  0  0  0
 28105  1  0  0  0
 28106  1  0  0  0
 29107  1  0  0  0
 29108  1  0  0  0
 33 34  1  0  0  0
 33 66  1  0  0  0
 33 70  2  0  0  0
 34 36  1  0  0  0
 34 59  1  0  0  0
 34109  1  0  0  0
 35 44  2  0  0  0
 35 45  1  0  0  0
 35 68  1  0  0  0
 36 56  1  0  0  0
 36110  1  0  0  0
 37 39  1  0  0  0
 37 47  1  0  0  0
 37 66  1  0  0  0
 37111  1  0  0  0
 38 43  2  0  0  0
 38 46  1  0  0  0
 38 47  1  0  0  0
 39 64  1  0  0  0
 39 67  2  0  0  0
 40 52  1  0  0  0
 40 53  2  0  0  0
 40 58  1  0  0  0
 41112  1  0  0  0
 41113  1  0  0  0
 41114  1  0  0  0
 41 48  1  0  0  0
 42 43  1  0  0  0
 42 66  1  0  0  0
 42115  1  0  0  0
 42116  1  0  0  0
 43 44  1  0  0  0
 44117  1  0  0  0
 45 46  2  0  0  0
 45118  1  0  0  0
 46119  1  0  0  0
 47120  1  0  0  0
 47121  1  0  0  0
 48 56  1  0  0  0
 48 65  1  0  0  0
 48122  1  0  0  0
 49 50  1  0  0  0
 49 53  1  0  0  0
 49 64  1  0  0  0
 49123  1  0  0  0
 50 51  1  0  0  0
 50124  1  0  0  0
 50125  1  0  0  0
 51 52  1  0  0  0
 51126  1  0  0  0
 51127  1  0  0  0
 52128  1  0  0  0
 52129  1  0  0  0
 53 54  1  0  0  0
 54 55  2  0  0  0
 54130  1  0  0  0
 55 57  1  0  0  0
 55131  1  0  0  0
 56 69  2  0  0  0
 57 58  2  0  0  0
 57132  1  0  0  0
 58133  1  0  0  0
 59 60  1  0  0  0
 59 61  1  0  0  0
 59 62  1  0  0  0
 60134  1  0  0  0
 60135  1  0  0  0
 60136  1  0  0  0
 61137  1  0  0  0
 61138  1  0  0  0
 61139  1  0  0  0
 62140  1  0  0  0
 62141  1  0  0  0
 62142  1  0  0  0
 63 65  1  0  0  0
 63143  1  0  0  0
 63144  1  0  0  0
 63145  1  0  0  0
 64146  1  0  0  0
 65147  1  0  0  0
 68 84  1  0  0  0
 71 73  2  0  0  0
 71 75  1  0  0  0
 71148  1  0  0  0
 72 75  2  0  0  0
 72 76  1  0  0  0
 72149  1  0  0  0
 73 74  1  0  0  0
 73 79  1  0  0  0
 74 76  2  0  0  0
 74 83  1  0  0  0
 75 87  1  0  0  0
 76 86  1  0  0  0
 77 80  1  0  0  0
 77 85  1  0  0  0
 77 88  2  0  0  0
 78 79  2  0  0  0
 78150  1  0  0  0
 78151  1  0  0  0
 79152  1  0  0  0
 80 81  1  0  0  0
 80153  1  0  0  0
 80154  1  0  0  0
 81 82  1  0  0  0
 81155  1  0  0  0
 81156  1  0  0  0
 82 84  1  0  0  0
 82 85  1  0  0  0
 82157  1  0  0  0
 83 85  1  0  0  0
 83158  1  0  0  0
 83159  1  0  0  0
 84160  1  0  0  0
 84161  1  0  0  0
 86162  1  0  0  0
 86163  1  0  0  0
 87164  1  0  0  0
M  ISO  4   1 100  68 101  84 101  87 100
M  END
> <chiral flag>
0

> <version>
0

> <s_m_source_file>
/data/baiqing/PycharmProjects/Reinvent-master-3.2/result/LINK_invent/BTK/process_docking_weight1_custom_product_contain_oxygen_bond_distance_aromatic_linkinvent_7_9_3/rearranged_h_0112.sdf

> <i_m_source_file_index>
78

> <r_mmod_Potential_Energy-OPLS-2005>
142.967025756836

> <r_mmod_Stretch_Energy-OPLS-2005>
86.4943237304688

> <r_mmod_Bend_Energy-OPLS-2005>
187.777435302734

> <r_mmod_Torsional_Energy-OPLS-2005>
274.569183349609

> <r_mmod_Improper_Torsional_Energy-OPLS-2005>
6.56765174865723

> <r_mmod_Van_der_Waal_Energy-OPLS-2005>
141.730072021484

> <r_mmod_Electrostatic_Energy-OPLS-2005>
-359.995147705078

> <r_mmod_Solvation_Energy-OPLS-2005>
-241.164978027344

> <b_mmod_Minimization_Converged-OPLS-2005>
0

> <r_mmod_RMS_Derivative-OPLS-2005>
3.36144638061523

$$$$
79
                    3D
 Structure written by MMmdl.
168177  0  0  1  0            999 V2000
  -30.5838  -14.7450   20.4790 C   0  0  0  0  0  0
  -30.4482  -12.4574   19.4706 C   0  0  0  0  0  0
  -29.5170  -12.5188   18.2378 C   0  0  0  0  0  0
  -28.0421  -12.3372   18.6499 C   0  0  0  0  0  0
  -27.6498  -13.2254   19.8605 C   0  0  2  0  0  0
  -28.6952  -13.1280   20.9942 C   0  0  0  0  0  0
  -25.2532  -13.8168   20.5627 C   0  0  0  0  0  0
  -24.1819  -13.0434   20.9172 C   0  0  0  0  0  0
  -24.6408  -11.6909   20.8734 C   0  0  0  0  0  0
  -23.9072  -10.4289   21.0397 C   0  0  0  0  0  0
  -24.3618   -9.4210   21.9178 C   0  0  0  0  0  0
  -23.6299   -8.2246   22.0751 C   0  0  0  0  0  0
  -22.4282   -8.0278   21.3542 C   0  0  0  0  0  0
  -21.9910   -9.0250   20.4647 C   0  0  0  0  0  0
  -22.7234  -10.2134   20.3055 C   0  0  0  0  0  0
  -21.6863   -6.0733   22.5278 C   0  0  0  0  0  0
  -21.4012   -6.5638   23.8209 C   0  0  0  0  0  0
  -21.3662   -5.6792   24.9172 C   0  0  0  0  0  0
  -21.6047   -4.3054   24.7224 C   0  0  0  0  0  0
  -21.8821   -3.8147   23.4344 C   0  0  0  0  0  0
  -21.9194   -4.6962   22.3400 C   0  0  0  0  0  0
  -22.7846  -13.5229   21.1847 C   0  0  0  0  0  0
  -22.1666   -4.2148   21.0979 F   0  0  0  0  0  0
  -21.5634   -3.4538   25.7738 F   0  0  0  0  0  0
  -30.0010  -13.4973   20.4253 N   0  0  0  0  0  0
  -26.2984  -12.9370   20.3321 N   0  0  0  0  0  0
  -25.9349  -11.6520   20.5779 N   0  0  0  0  0  0
  -22.0503  -12.8222   22.0413 N   0  0  0  0  0  0
  -25.4190  -15.1873   20.3937 N   0  0  0  0  0  0
  -31.7506  -14.9022   20.1070 O   0  0  0  0  0  0
  -21.6646   -6.8873   21.4238 O   0  0  0  0  0  0
  -22.3524  -14.5536   20.6706 O   0  0  0  0  0  0
  -24.6301  -31.8555   23.1990 C   0  0  0  0  0  0
  -25.9126  -32.4761   23.8334 C   0  0  1  0  0  0
  -27.2246  -27.2758   20.1303 C   0  0  0  0  0  0
  -25.5931  -33.8566   24.2261 N   0  0  0  0  0  0
  -23.4283  -30.4759   21.5425 C   0  0  2  0  0  0
  -24.8787  -28.9199   20.1165 C   0  0  0  0  0  0
  -22.7500  -29.4593   22.4928 C   0  0  0  0  0  0
  -18.0285  -28.1388   22.8472 C   0  0  0  0  0  0
  -24.1489  -36.7279   23.2636 C   0  0  0  0  0  0
  -25.9730  -30.7711   21.3787 C   0  0  0  0  0  0
  -26.0496  -29.3919   20.7267 C   0  0  0  0  0  0
  -27.2302  -28.5805   20.7260 C   0  0  0  0  0  0
  -26.0347  -26.8631   19.5016 C   0  0  0  0  0  0
  -24.8740  -27.6611   19.4949 C   0  0  0  0  0  0
  -23.6482  -29.8062   20.1604 C   0  0  0  0  0  0
  -25.4114  -36.3071   24.0329 C   0  0  1  0  0  0
  -20.5889  -28.3687   23.1276 C   0  0  2  0  0  0
  -20.6770  -26.9405   22.5415 C   0  0  0  0  0  0
  -19.5755  -26.6378   21.5211 C   0  0  0  0  0  0
  -18.1929  -26.7932   22.1610 C   0  0  0  0  0  0
  -19.1540  -28.8855   23.2869 C   0  0  0  0  0  0
  -18.9459  -30.1458   23.8886 C   0  0  0  0  0  0
  -17.6456  -30.6586   24.0555 C   0  0  0  0  0  0
  -25.9056  -34.9442   23.5096 C   0  0  0  0  0  0
  -16.5349  -29.9078   23.6335 C   0  0  0  0  0  0
  -16.7271  -28.6503   23.0348 C   0  0  0  0  0  0
  -26.4496  -31.6585   25.0723 C   0  0  0  0  0  0
  -25.3721  -31.3747   26.1447 C   0  0  0  0  0  0
  -27.0332  -30.2993   24.6211 C   0  0  0  0  0  0
  -27.6058  -32.4321   25.7487 C   0  0  0  0  0  0
  -27.5593  -37.1776   24.8450 C   0  0  0  0  0  0
  -21.4206  -29.3037   22.3674 N   0  0  0  0  0  0
  -26.4281  -37.3778   23.9430 N   0  0  0  0  0  0
  -24.6963  -31.0521   22.0966 N   0  0  0  0  0  0
  -23.4204  -28.8131   23.3023 O   0  0  0  0  0  0
  -28.2937  -26.3614   20.0908 O   0  0  0  0  0  0
  -26.5624  -34.8918   22.4663 O   0  0  0  0  0  0
  -23.5452  -32.1375   23.7287 O   0  0  0  0  0  0
  -30.8209  -18.0831   20.1494 C   0  0  0  0  0  0
  -28.6160  -19.4542   21.1469 C   0  0  0  0  0  0
  -30.7945  -19.5295   20.1190 C   0  0  0  0  0  0
  -29.6575  -20.2762   20.6273 C   0  0  0  0  0  0
  -29.7884  -17.2826   20.7073 C   0  0  0  0  0  0
  -28.6794  -18.0153   21.2168 C   0  0  0  0  0  0
  -28.6031  -24.0046   21.1411 C   0  0  0  0  0  0
  -28.3822  -25.3820   21.1023 C   0  0  0  0  0  0
  -32.0476  -20.1958   19.5853 C   0  0  0  0  0  0
  -28.7757  -23.3131   22.4725 C   0  0  0  0  0  0
  -29.7216  -22.1210   22.2285 C   0  0  0  0  0  0
  -28.8065  -22.8129   20.1395 C   0  0  1  0  0  0
  -29.3724  -23.2492   18.7853 C   0  0  0  0  0  0
  -26.1070  -16.8271   23.5616 C   0  0  0  0  0  0
  -26.8155  -17.8936   22.7241 C   0  0  0  0  0  0
  -29.6144  -21.7285   20.8221 N   0  0  0  0  0  0
  -31.9738  -21.4715   19.2452 N   0  0  0  0  0  0
  -29.7529  -15.8001   20.8140 N   0  0  0  0  0  0
  -33.0955  -19.5688   19.4223 O   0  0  0  0  0  0
  -27.6902  -17.2521   21.8032 O   0  0  0  0  0  0
  -31.4858  -12.6031   19.1651 H   0  0  0  0  0  0
  -30.4101  -11.4721   19.9379 H   0  0  0  0  0  0
  -29.8007  -11.7544   17.5132 H   0  0  0  0  0  0
  -29.6400  -13.4782   17.7329 H   0  0  0  0  0  0
  -27.8987  -11.2863   18.9029 H   0  0  0  0  0  0
  -27.3846  -12.5384   17.8032 H   0  0  0  0  0  0
  -27.6521  -14.2526   19.4950 H   0  0  0  0  0  0
  -28.7309  -12.1173   21.4034 H   0  0  0  0  0  0
  -28.4237  -13.7786   21.8279 H   0  0  0  0  0  0
  -25.2765   -9.5698   22.4748 H   0  0  0  0  0  0
  -24.0017   -7.4638   22.7464 H   0  0  0  0  0  0
  -21.0846   -8.8759   19.8953 H   0  0  0  0  0  0
  -22.3681  -10.9669   19.6163 H   0  0  0  0  0  0
  -21.2000   -7.6143   23.9713 H   0  0  0  0  0  0
  -21.1487   -6.0520   25.9076 H   0  0  0  0  0  0
  -22.0600   -2.7607   23.2845 H   0  0  0  0  0  0
  -22.4131  -11.9886   22.4802 H   0  0  0  0  0  0
  -21.1119  -13.1236   22.2621 H   0  0  0  0  0  0
  -24.6523  -15.8383   20.5152 H   0  0  0  0  0  0
  -26.2853  -15.6424   20.1363 H   0  0  0  0  0  0
  -26.7196  -32.5416   23.1078 H   0  0  0  0  0  0
  -25.0088  -33.9709   25.0413 H   0  0  0  0  0  0
  -22.7238  -31.2969   21.3939 H   0  0  0  0  0  0
  -23.3775  -35.9582   23.3245 H   0  0  0  0  0  0
  -24.3596  -36.8956   22.2063 H   0  0  0  0  0  0
  -23.7202  -37.6448   23.6692 H   0  0  0  0  0  0
  -26.1091  -31.5295   20.6064 H   0  0  0  0  0  0
  -26.8509  -30.8233   22.0108 H   0  0  0  0  0  0
  -28.1316  -28.9371   21.2037 H   0  0  0  0  0  0
  -26.0013  -25.8922   19.0272 H   0  0  0  0  0  0
  -23.9769  -27.2944   19.0150 H   0  0  0  0  0  0
  -23.7720  -30.5803   19.4023 H   0  0  0  0  0  0
  -22.7677  -29.2367   19.8573 H   0  0  0  0  0  0
  -25.1291  -36.1906   25.0819 H   0  0  0  0  0  0
  -20.9972  -28.3259   24.1401 H   0  0  0  0  0  0
  -20.5647  -26.2299   23.3621 H   0  0  0  0  0  0
  -21.6639  -26.7419   22.1224 H   0  0  0  0  0  0
  -19.6914  -25.6285   21.1250 H   0  0  0  0  0  0
  -19.6710  -27.3180   20.6740 H   0  0  0  0  0  0
  -17.4206  -26.6684   21.4003 H   0  0  0  0  0  0
  -18.0315  -26.0076   22.9007 H   0  0  0  0  0  0
  -19.7937  -30.7277   24.2249 H   0  0  0  0  0  0
  -17.5012  -31.6269   24.5154 H   0  0  0  0  0  0
  -15.5346  -30.2969   23.7683 H   0  0  0  0  0  0
  -15.8672  -28.0823   22.7060 H   0  0  0  0  0  0
  -24.5917  -30.7061   25.7788 H   0  0  0  0  0  0
  -24.8886  -32.2919   26.4821 H   0  0  0  0  0  0
  -25.8043  -30.8977   27.0251 H   0  0  0  0  0  0
  -26.2911  -29.6745   24.1222 H   0  0  0  0  0  0
  -27.3985  -29.7251   25.4735 H   0  0  0  0  0  0
  -27.8802  -30.4251   23.9464 H   0  0  0  0  0  0
  -27.2673  -33.3625   26.2054 H   0  0  0  0  0  0
  -28.3867  -32.6872   25.0314 H   0  0  0  0  0  0
  -28.0721  -31.8453   26.5409 H   0  0  0  0  0  0
  -28.2555  -38.0129   24.7580 H   0  0  0  0  0  0
  -28.1144  -36.2666   24.6155 H   0  0  0  0  0  0
  -27.2333  -37.1277   25.8854 H   0  0  0  0  0  0
  -20.9392  -29.8769   21.6887 H   0  0  0  0  0  0
  -26.0156  -38.2837   24.1490 H   0  0  0  0  0  0
  -31.6870  -17.5702   19.7561 H   0  0  0  0  0  0
  -27.7602  -19.9670   21.5586 H   0  0  0  0  0  0
  -28.2966  -25.8900   22.0532 H   0  0  0  0  0  0
  -27.7973  -22.9467   22.7867 H   0  0  0  0  0  0
  -29.1439  -23.9809   23.2523 H   0  0  0  0  0  0
  -29.5078  -21.3056   22.9221 H   0  0  0  0  0  0
  -30.7525  -22.4293   22.4105 H   0  0  0  0  0  0
  -27.8154  -22.3887   19.9672 H   0  0  0  0  0  0
  -30.3494  -23.7222   18.8899 H   0  0  0  0  0  0
  -28.7109  -23.9759   18.3117 H   0  0  0  0  0  0
  -29.4663  -22.4063   18.0999 H   0  0  0  0  0  0
  -25.4498  -17.2904   24.2981 H   0  0  0  0  0  0
  -26.8271  -16.2098   24.0993 H   0  0  0  0  0  0
  -25.4974  -16.1704   22.9425 H   0  0  0  0  0  0
  -27.3732  -18.5494   23.3954 H   0  0  0  0  0  0
  -26.0834  -18.4991   22.1880 H   0  0  0  0  0  0
  -31.1125  -21.9544   19.4924 H   0  0  0  0  0  0
  -32.7661  -21.9688   18.8676 H   0  0  0  0  0  0
  -28.8635  -15.4728   21.1604 H   0  0  0  0  0  0
  1 25  1  0  0  0
  1 30  2  0  0  0
  1 88  1  0  0  0
  2  3  1  0  0  0
  2 25  1  0  0  0
  2 91  1  0  0  0
  2 92  1  0  0  0
  3  4  1  0  0  0
  3 93  1  0  0  0
  3 94  1  0  0  0
  4  5  1  0  0  0
  4 95  1  0  0  0
  4 96  1  0  0  0
  5  6  1  0  0  0
  5 26  1  0  0  0
  5 97  1  0  0  0
  6 25  1  0  0  0
  6 98  1  0  0  0
  6 99  1  0  0  0
  7  8  2  0  0  0
  7 26  1  0  0  0
  7 29  1  0  0  0
  8  9  1  0  0  0
  8 22  1  0  0  0
  9 10  1  0  0  0
  9 27  2  0  0  0
 10 11  2  0  0  0
 10 15  1  0  0  0
 11 12  1  0  0  0
 11100  1  0  0  0
 12 13  2  0  0  0
 12101  1  0  0  0
 13 14  1  0  0  0
 13 31  1  0  0  0
 14 15  2  0  0  0
 14102  1  0  0  0
 15103  1  0  0  0
 16 17  2  0  0  0
 16 21  1  0  0  0
 16 31  1  0  0  0
 17 18  1  0  0  0
 17104  1  0  0  0
 18 19  2  0  0  0
 18105  1  0  0  0
 19 20  1  0  0  0
 19 24  1  0  0  0
 20 21  2  0  0  0
 20106  1  0  0  0
 21 23  1  0  0  0
 22 28  1  0  0  0
 22 32  2  0  0  0
 26 27  1  0  0  0
 28107  1  0  0  0
 28108  1  0  0  0
 29109  1  0  0  0
 29110  1  0  0  0
 33 34  1  0  0  0
 33 66  1  0  0  0
 33 70  2  0  0  0
 34 36  1  0  0  0
 34 59  1  0  0  0
 34111  1  0  0  0
 35 44  2  0  0  0
 35 45  1  0  0  0
 35 68  1  0  0  0
 36 56  1  0  0  0
 36112  1  0  0  0
 37 39  1  0  0  0
 37 47  1  0  0  0
 37 66  1  0  0  0
 37113  1  0  0  0
 38 43  2  0  0  0
 38 46  1  0  0  0
 38 47  1  0  0  0
 39 64  1  0  0  0
 39 67  2  0  0  0
 40 52  1  0  0  0
 40 53  2  0  0  0
 40 58  1  0  0  0
 41114  1  0  0  0
 41115  1  0  0  0
 41116  1  0  0  0
 41 48  1  0  0  0
 42 43  1  0  0  0
 42 66  1  0  0  0
 42117  1  0  0  0
 42118  1  0  0  0
 43 44  1  0  0  0
 44119  1  0  0  0
 45 46  2  0  0  0
 45120  1  0  0  0
 46121  1  0  0  0
 47122  1  0  0  0
 47123  1  0  0  0
 48 56  1  0  0  0
 48 65  1  0  0  0
 48124  1  0  0  0
 49 50  1  0  0  0
 49 53  1  0  0  0
 49 64  1  0  0  0
 49125  1  0  0  0
 50 51  1  0  0  0
 50126  1  0  0  0
 50127  1  0  0  0
 51 52  1  0  0  0
 51128  1  0  0  0
 51129  1  0  0  0
 52130  1  0  0  0
 52131  1  0  0  0
 53 54  1  0  0  0
 54 55  2  0  0  0
 54132  1  0  0  0
 55 57  1  0  0  0
 55133  1  0  0  0
 56 69  2  0  0  0
 57 58  2  0  0  0
 57134  1  0  0  0
 58135  1  0  0  0
 59 60  1  0  0  0
 59 61  1  0  0  0
 59 62  1  0  0  0
 60136  1  0  0  0
 60137  1  0  0  0
 60138  1  0  0  0
 61139  1  0  0  0
 61140  1  0  0  0
 61141  1  0  0  0
 62142  1  0  0  0
 62143  1  0  0  0
 62144  1  0  0  0
 63 65  1  0  0  0
 63145  1  0  0  0
 63146  1  0  0  0
 63147  1  0  0  0
 64148  1  0  0  0
 65149  1  0  0  0
 68 78  1  0  0  0
 71 73  2  0  0  0
 71 75  1  0  0  0
 71150  1  0  0  0
 72 74  2  0  0  0
 72 76  1  0  0  0
 72151  1  0  0  0
 73 74  1  0  0  0
 73 79  1  0  0  0
 74 86  1  0  0  0
 75 76  2  0  0  0
 75 88  1  0  0  0
 76 90  1  0  0  0
 77 78  2  0  0  0
 77 80  1  0  0  0
 77 82  1  0  0  0
 78152  1  0  0  0
 79 87  1  0  0  0
 79 89  2  0  0  0
 80 81  1  0  0  0
 80153  1  0  0  0
 80154  1  0  0  0
 81 86  1  0  0  0
 81155  1  0  0  0
 81156  1  0  0  0
 82 83  1  0  0  0
 82 86  1  0  0  0
 82157  1  0  0  0
 83158  1  0  0  0
 83159  1  0  0  0
 83160  1  0  0  0
 84 85  1  0  0  0
 84161  1  0  0  0
 84162  1  0  0  0
 84163  1  0  0  0
 85 90  1  0  0  0
 85164  1  0  0  0
 85165  1  0  0  0
 87166  1  0  0  0
 87167  1  0  0  0
 88168  1  0  0  0
M  ISO  4   1 100  68 101  78 101  88 100
M  END
> <chiral flag>
0

> <version>
0

> <s_m_source_file>
/data/baiqing/PycharmProjects/Reinvent-master-3.2/result/LINK_invent/BTK/process_docking_weight1_custom_product_contain_oxygen_bond_distance_aromatic_linkinvent_7_9_3/rearranged_h_0112.sdf

> <i_m_source_file_index>
79

> <r_mmod_Potential_Energy-OPLS-2005>
125.689811706543

> <r_mmod_Stretch_Energy-OPLS-2005>
110.216705322266

> <r_mmod_Bend_Energy-OPLS-2005>
257.23583984375

> <r_mmod_Torsional_Energy-OPLS-2005>
288.456787109375

> <r_mmod_Improper_Torsional_Energy-OPLS-2005>
8.19865608215332

> <r_mmod_Van_der_Waal_Energy-OPLS-2005>
136.922805786133

> <r_mmod_Electrostatic_Energy-OPLS-2005>
-532.224060058594

> <r_mmod_Solvation_Energy-OPLS-2005>
-224.859298706055

> <b_mmod_Minimization_Converged-OPLS-2005>
0

> <r_mmod_RMS_Derivative-OPLS-2005>
1.13297355175018

$$$$
80
                    3D
 Structure written by MMmdl.
151160  0  0  1  0            999 V2000
  -30.5591  -14.9678   20.3641 C   0  0  0  0  0  0
  -30.4465  -12.5891   19.4927 C   0  0  0  0  0  0
  -29.5240  -12.4679   18.2580 C   0  0  0  0  0  0
  -28.0607  -12.2652   18.6930 C   0  0  0  0  0  0
  -27.6246  -13.2414   19.8174 C   0  0  2  0  0  0
  -28.6716  -13.3364   20.9467 C   0  0  0  0  0  0
  -25.2494  -13.8219   20.5725 C   0  0  0  0  0  0
  -24.1789  -13.0458   20.9223 C   0  0  0  0  0  0
  -24.6377  -11.6940   20.8751 C   0  0  0  0  0  0
  -23.9055  -10.4312   21.0402 C   0  0  0  0  0  0
  -24.3619   -9.4224   21.9163 C   0  0  0  0  0  0
  -23.6311   -8.2248   22.0742 C   0  0  0  0  0  0
  -22.4282   -8.0281   21.3541 C   0  0  0  0  0  0
  -21.9905   -9.0258   20.4655 C   0  0  0  0  0  0
  -22.7224  -10.2146   20.3062 C   0  0  0  0  0  0
  -21.6860   -6.0735   22.5270 C   0  0  0  0  0  0
  -21.4019   -6.5627   23.8205 C   0  0  0  0  0  0
  -21.3668   -5.6777   24.9164 C   0  0  0  0  0  0
  -21.6051   -4.3042   24.7216 C   0  0  0  0  0  0
  -21.8827   -3.8143   23.4329 C   0  0  0  0  0  0
  -21.9194   -4.6961   22.3392 C   0  0  0  0  0  0
  -22.7810  -13.5228   21.1900 C   0  0  0  0  0  0
  -22.1663   -4.2147   21.0967 F   0  0  0  0  0  0
  -21.5640   -3.4528   25.7733 F   0  0  0  0  0  0
  -29.9419  -13.7181   20.3189 N   0  0  0  0  0  0
  -26.2879  -12.9422   20.3193 N   0  0  0  0  0  0
  -25.9304  -11.6561   20.5717 N   0  0  0  0  0  0
  -22.0478  -12.8239   22.0489 N   0  0  0  0  0  0
  -25.4255  -15.1957   20.4270 N   0  0  0  0  0  0
  -31.7941  -14.9748   20.2951 O   0  0  0  0  0  0
  -21.6651   -6.8879   21.4234 O   0  0  0  0  0  0
  -22.3481  -14.5497   20.6700 O   0  0  0  0  0  0
  -24.6424  -31.8458   23.1890 C   0  0  0  0  0  0
  -25.9195  -32.4693   23.8277 C   0  0  1  0  0  0
  -27.2068  -27.1291   20.1502 C   0  0  0  0  0  0
  -25.5962  -33.8507   24.2194 N   0  0  0  0  0  0
  -23.4474  -30.4669   21.5341 C   0  0  2  0  0  0
  -24.8966  -28.9000   20.1069 C   0  0  0  0  0  0
  -22.7580  -29.4552   22.4835 C   0  0  0  0  0  0
  -18.0312  -28.1404   22.8475 C   0  0  0  0  0  0
  -24.1494  -36.7241   23.2637 C   0  0  0  0  0  0
  -26.0057  -30.7138   21.3954 C   0  0  0  0  0  0
  -26.0737  -29.3266   20.7349 C   0  0  0  0  0  0
  -27.2291  -28.4560   20.7438 C   0  0  0  0  0  0
  -26.0065  -26.8174   19.4698 C   0  0  0  0  0  0
  -24.8771  -27.6589   19.4593 C   0  0  0  0  0  0
  -23.6747  -29.8023   20.1513 C   0  0  0  0  0  0
  -25.4130  -36.3027   24.0311 C   0  0  1  0  0  0
  -20.5931  -28.3732   23.1231 C   0  0  2  0  0  0
  -20.6793  -26.9421   22.5441 C   0  0  0  0  0  0
  -19.5779  -26.6377   21.5236 C   0  0  0  0  0  0
  -18.1947  -26.7944   22.1619 C   0  0  0  0  0  0
  -19.1567  -28.8885   23.2849 C   0  0  0  0  0  0
  -18.9483  -30.1480   23.8873 C   0  0  0  0  0  0
  -17.6483  -30.6602   24.0553 C   0  0  0  0  0  0
  -25.9085  -34.9405   23.5060 C   0  0  0  0  0  0
  -16.5378  -29.9094   23.6332 C   0  0  0  0  0  0
  -16.7296  -28.6514   23.0347 C   0  0  0  0  0  0
  -26.4499  -31.6557   25.0724 C   0  0  0  0  0  0
  -25.3655  -31.3838   26.1415 C   0  0  0  0  0  0
  -27.0294  -30.2900   24.6359 C   0  0  0  0  0  0
  -27.6066  -32.4282   25.7481 C   0  0  0  0  0  0
  -27.5588  -37.1778   24.8448 C   0  0  0  0  0  0
  -21.4271  -29.3043   22.3579 N   0  0  0  0  0  0
  -26.4288  -37.3748   23.9402 N   0  0  0  0  0  0
  -24.7177  -31.0314   22.0930 N   0  0  0  0  0  0
  -23.4214  -28.8099   23.2986 O   0  0  0  0  0  0
  -28.2346  -26.1162   20.2365 O   0  0  0  0  0  0
  -26.5670  -34.8897   22.4636 O   0  0  0  0  0  0
  -23.5537  -32.1340   23.7100 O   0  0  0  0  0  0
  -29.2016  -19.8103   21.3713 C   0  0  0  0  0  0
  -29.5196  -18.3742   21.3926 C   0  0  0  0  0  0
  -29.2560  -19.8054   19.0105 C   0  0  0  0  0  0
  -29.5572  -18.3911   19.0442 C   0  0  0  0  0  0
  -29.0371  -20.6126   20.1757 C   0  0  0  0  0  0
  -29.6957  -17.5904   20.1989 C   0  0  0  0  0  0
  -28.7716  -23.2527   20.3599 C   0  0  0  0  0  0
  -29.7112  -17.5291   17.8293 C   0  0  0  0  0  0
  -29.7807  -16.0799   18.3769 C   0  0  0  0  0  0
  -27.8663  -24.6164   20.0165 C   0  0  0  0  0  0
  -28.4418  -21.9839   20.0340 N   0  0  0  0  0  0
  -29.8500  -16.1045   19.8607 N   0  0  0  0  0  0
  -31.4783  -12.7487   19.1729 H   0  0  0  0  0  0
  -30.4513  -11.6628   20.0699 H   0  0  0  0  0  0
  -29.8455  -11.6344   17.6319 H   0  0  0  0  0  0
  -29.6051  -13.3577   17.6359 H   0  0  0  0  0  0
  -27.9802  -11.2405   19.0587 H   0  0  0  0  0  0
  -27.3894  -12.3352   17.8363 H   0  0  0  0  0  0
  -27.5653  -14.2199   19.3428 H   0  0  0  0  0  0
  -28.7615  -12.3998   21.4993 H   0  0  0  0  0  0
  -28.3738  -14.1045   21.6633 H   0  0  0  0  0  0
  -25.2772   -9.5709   22.4709 H   0  0  0  0  0  0
  -24.0056   -7.4653   22.7448 H   0  0  0  0  0  0
  -21.0830   -8.8775   19.8981 H   0  0  0  0  0  0
  -22.3667  -10.9690   19.6183 H   0  0  0  0  0  0
  -21.2002   -7.6129   23.9716 H   0  0  0  0  0  0
  -21.1492   -6.0492   25.9073 H   0  0  0  0  0  0
  -22.0600   -2.7608   23.2811 H   0  0  0  0  0  0
  -22.4082  -11.9907   22.4901 H   0  0  0  0  0  0
  -21.1131  -13.1334   22.2763 H   0  0  0  0  0  0
  -24.6759  -15.8620   20.5778 H   0  0  0  0  0  0
  -26.2975  -15.6369   20.1609 H   0  0  0  0  0  0
  -26.7265  -32.5289   23.1008 H   0  0  0  0  0  0
  -25.0061  -33.9647   25.0302 H   0  0  0  0  0  0
  -22.7514  -31.2941   21.3826 H   0  0  0  0  0  0
  -23.3769  -35.9558   23.3279 H   0  0  0  0  0  0
  -24.3593  -36.8896   22.2058 H   0  0  0  0  0  0
  -23.7224  -37.6423   23.6683 H   0  0  0  0  0  0
  -26.1744  -31.4688   20.6261 H   0  0  0  0  0  0
  -26.8699  -30.7570   22.0466 H   0  0  0  0  0  0
  -28.1196  -28.7712   21.2691 H   0  0  0  0  0  0
  -25.8926  -25.8770   18.9536 H   0  0  0  0  0  0
  -23.9801  -27.3325   18.9505 H   0  0  0  0  0  0
  -23.8109  -30.5784   19.3975 H   0  0  0  0  0  0
  -22.7890  -29.2462   19.8388 H   0  0  0  0  0  0
  -25.1308  -36.1861   25.0804 H   0  0  0  0  0  0
  -21.0033  -28.3341   24.1347 H   0  0  0  0  0  0
  -20.5673  -26.2354   23.3676 H   0  0  0  0  0  0
  -21.6662  -26.7418   22.1257 H   0  0  0  0  0  0
  -19.6948  -25.6278   21.1289 H   0  0  0  0  0  0
  -19.6732  -27.3164   20.6746 H   0  0  0  0  0  0
  -17.4238  -26.6701   21.3999 H   0  0  0  0  0  0
  -18.0324  -26.0098   22.9022 H   0  0  0  0  0  0
  -19.7959  -30.7299   24.2228 H   0  0  0  0  0  0
  -17.5036  -31.6272   24.5170 H   0  0  0  0  0  0
  -15.5372  -30.2980   23.7675 H   0  0  0  0  0  0
  -15.8702  -28.0830   22.7055 H   0  0  0  0  0  0
  -24.5934  -30.7037   25.7791 H   0  0  0  0  0  0
  -24.8714  -32.3045   26.4532 H   0  0  0  0  0  0
  -25.7920  -30.9289   27.0364 H   0  0  0  0  0  0
  -26.2896  -29.6683   24.1306 H   0  0  0  0  0  0
  -27.3746  -29.7167   25.4968 H   0  0  0  0  0  0
  -27.8895  -30.4025   23.9759 H   0  0  0  0  0  0
  -27.2710  -33.3626   26.1987 H   0  0  0  0  0  0
  -28.3910  -32.6761   25.0316 H   0  0  0  0  0  0
  -28.0689  -31.8440   26.5454 H   0  0  0  0  0  0
  -28.2584  -38.0095   24.7497 H   0  0  0  0  0  0
  -28.1103  -36.2628   24.6235 H   0  0  0  0  0  0
  -27.2338  -37.1374   25.8862 H   0  0  0  0  0  0
  -20.9482  -29.8728   21.6736 H   0  0  0  0  0  0
  -26.0153  -38.2807   24.1437 H   0  0  0  0  0  0
  -29.0109  -20.2840   22.3255 H   0  0  0  0  0  0
  -29.5628  -17.8761   22.3512 H   0  0  0  0  0  0
  -29.1280  -20.2703   18.0434 H   0  0  0  0  0  0
  -29.6986  -23.4697   20.8964 H   0  0  0  0  0  0
  -30.6292  -17.8022   17.3055 H   0  0  0  0  0  0
  -28.8753  -17.6660   17.1413 H   0  0  0  0  0  0
  -30.6270  -15.5624   17.9155 H   0  0  0  0  0  0
  -28.8817  -15.5448   18.0746 H   0  0  0  0  0  0
  -26.9241  -24.4617   20.5437 H   0  0  0  0  0  0
  -27.6207  -24.5267   18.9577 H   0  0  0  0  0  0
  1 25  1  0  0  0
  1 30  2  0  0  0
  1 82  1  0  0  0
  2  3  1  0  0  0
  2 25  1  0  0  0
  2 83  1  0  0  0
  2 84  1  0  0  0
  3  4  1  0  0  0
  3 85  1  0  0  0
  3 86  1  0  0  0
  4  5  1  0  0  0
  4 87  1  0  0  0
  4 88  1  0  0  0
  5  6  1  0  0  0
  5 26  1  0  0  0
  5 89  1  0  0  0
  6 25  1  0  0  0
  6 90  1  0  0  0
  6 91  1  0  0  0
  7  8  2  0  0  0
  7 26  1  0  0  0
  7 29  1  0  0  0
  8  9  1  0  0  0
  8 22  1  0  0  0
  9 10  1  0  0  0
  9 27  2  0  0  0
 10 11  2  0  0  0
 10 15  1  0  0  0
 11 12  1  0  0  0
 11 92  1  0  0  0
 12 13  2  0  0  0
 12 93  1  0  0  0
 13 14  1  0  0  0
 13 31  1  0  0  0
 14 15  2  0  0  0
 14 94  1  0  0  0
 15 95  1  0  0  0
 16 17  2  0  0  0
 16 21  1  0  0  0
 16 31  1  0  0  0
 17 18  1  0  0  0
 17 96  1  0  0  0
 18 19  2  0  0  0
 18 97  1  0  0  0
 19 20  1  0  0  0
 19 24  1  0  0  0
 20 21  2  0  0  0
 20 98  1  0  0  0
 21 23  1  0  0  0
 22 28  1  0  0  0
 22 32  2  0  0  0
 26 27  1  0  0  0
 28 99  1  0  0  0
 28100  1  0  0  0
 29101  1  0  0  0
 29102  1  0  0  0
 33 34  1  0  0  0
 33 66  1  0  0  0
 33 70  2  0  0  0
 34 36  1  0  0  0
 34 59  1  0  0  0
 34103  1  0  0  0
 35 44  2  0  0  0
 35 45  1  0  0  0
 35 68  1  0  0  0
 36 56  1  0  0  0
 36104  1  0  0  0
 37 39  1  0  0  0
 37 47  1  0  0  0
 37 66  1  0  0  0
 37105  1  0  0  0
 38 43  2  0  0  0
 38 46  1  0  0  0
 38 47  1  0  0  0
 39 64  1  0  0  0
 39 67  2  0  0  0
 40 52  1  0  0  0
 40 53  2  0  0  0
 40 58  1  0  0  0
 41106  1  0  0  0
 41107  1  0  0  0
 41108  1  0  0  0
 41 48  1  0  0  0
 42 43  1  0  0  0
 42 66  1  0  0  0
 42109  1  0  0  0
 42110  1  0  0  0
 43 44  1  0  0  0
 44111  1  0  0  0
 45 46  2  0  0  0
 45112  1  0  0  0
 46113  1  0  0  0
 47114  1  0  0  0
 47115  1  0  0  0
 48 56  1  0  0  0
 48 65  1  0  0  0
 48116  1  0  0  0
 49 50  1  0  0  0
 49 53  1  0  0  0
 49 64  1  0  0  0
 49117  1  0  0  0
 50 51  1  0  0  0
 50118  1  0  0  0
 50119  1  0  0  0
 51 52  1  0  0  0
 51120  1  0  0  0
 51121  1  0  0  0
 52122  1  0  0  0
 52123  1  0  0  0
 53 54  1  0  0  0
 54 55  2  0  0  0
 54124  1  0  0  0
 55 57  1  0  0  0
 55125  1  0  0  0
 56 69  2  0  0  0
 57 58  2  0  0  0
 57126  1  0  0  0
 58127  1  0  0  0
 59 60  1  0  0  0
 59 61  1  0  0  0
 59 62  1  0  0  0
 60128  1  0  0  0
 60129  1  0  0  0
 60130  1  0  0  0
 61131  1  0  0  0
 61132  1  0  0  0
 61133  1  0  0  0
 62134  1  0  0  0
 62135  1  0  0  0
 62136  1  0  0  0
 63 65  1  0  0  0
 63137  1  0  0  0
 63138  1  0  0  0
 63139  1  0  0  0
 64140  1  0  0  0
 65141  1  0  0  0
 68 80  1  0  0  0
 71 72  2  0  0  0
 71 75  1  0  0  0
 71142  1  0  0  0
 72 76  1  0  0  0
 72143  1  0  0  0
 73 74  1  0  0  0
 73 75  2  0  0  0
 73144  1  0  0  0
 74 76  2  0  0  0
 74 78  1  0  0  0
 75 81  1  0  0  0
 76 82  1  0  0  0
 77 80  1  0  0  0
 77 81  2  0  0  0
 77145  1  0  0  0
 78 79  1  0  0  0
 78146  1  0  0  0
 78147  1  0  0  0
 79 82  1  0  0  0
 79148  1  0  0  0
 79149  1  0  0  0
 80150  1  0  0  0
 80151  1  0  0  0
M  ISO  4   1 100  68 101  80 101  82 100
M  END
> <chiral flag>
0

> <version>
0

> <s_m_source_file>
/data/baiqing/PycharmProjects/Reinvent-master-3.2/result/LINK_invent/BTK/process_docking_weight1_custom_product_contain_oxygen_bond_distance_aromatic_linkinvent_7_9_3/rearranged_h_0112.sdf

> <i_m_source_file_index>
80

> <r_mmod_Potential_Energy-OPLS-2005>
759.71435546875

> <r_mmod_Stretch_Energy-OPLS-2005>
232.890823364258

> <r_mmod_Bend_Energy-OPLS-2005>
335.247680664062

> <r_mmod_Torsional_Energy-OPLS-2005>
324.833679199219

> <r_mmod_Improper_Torsional_Energy-OPLS-2005>
28.75

> <r_mmod_Van_der_Waal_Energy-OPLS-2005>
129.007263183594

> <r_mmod_Electrostatic_Energy-OPLS-2005>
-305.251312255859

> <r_mmod_Solvation_Energy-OPLS-2005>
-203.916580200195

> <b_mmod_Minimization_Converged-OPLS-2005>
0

> <r_mmod_RMS_Derivative-OPLS-2005>
2.3275842666626

$$$$
81
                    3D
 Structure written by MMmdl.
157165  0  0  1  0            999 V2000
  -30.6884  -14.4581   20.5449 C   0  0  0  0  0  0
  -30.4291  -12.2894   19.4137 C   0  0  0  0  0  0
  -29.4947  -12.4886   18.2018 C   0  0  0  0  0  0
  -28.0131  -12.3567   18.6147 C   0  0  0  0  0  0
  -27.6622  -13.1839   19.8804 C   0  0  2  0  0  0
  -28.7099  -12.9592   20.9944 C   0  0  0  0  0  0
  -25.2605  -13.8084   20.5715 C   0  0  0  0  0  0
  -24.1832  -13.0391   20.9184 C   0  0  0  0  0  0
  -24.6367  -11.6857   20.8748 C   0  0  0  0  0  0
  -23.9031  -10.4261   21.0408 C   0  0  0  0  0  0
  -24.3594   -9.4183   21.9184 C   0  0  0  0  0  0
  -23.6278   -8.2217   22.0749 C   0  0  0  0  0  0
  -22.4262   -8.0257   21.3537 C   0  0  0  0  0  0
  -21.9889   -9.0228   20.4642 C   0  0  0  0  0  0
  -22.7209  -10.2110   20.3057 C   0  0  0  0  0  0
  -21.6842   -6.0730   22.5282 C   0  0  0  0  0  0
  -21.4005   -6.5639   23.8215 C   0  0  0  0  0  0
  -21.3662   -5.6794   24.9179 C   0  0  0  0  0  0
  -21.6049   -4.3058   24.7231 C   0  0  0  0  0  0
  -21.8821   -3.8147   23.4352 C   0  0  0  0  0  0
  -21.9188   -4.6960   22.3407 C   0  0  0  0  0  0
  -22.7861  -13.5217   21.1835 C   0  0  0  0  0  0
  -22.1654   -4.2147   21.0984 F   0  0  0  0  0  0
  -21.5635   -3.4545   25.7746 F   0  0  0  0  0  0
  -30.0402  -13.2679   20.4375 N   0  0  0  0  0  0
  -26.3027  -12.9212   20.3417 N   0  0  0  0  0  0
  -25.9292  -11.6399   20.5805 N   0  0  0  0  0  0
  -22.0488  -12.8230   22.0397 N   0  0  0  0  0  0
  -25.4326  -15.1808   20.4186 N   0  0  0  0  0  0
  -31.8275  -14.6553   20.1113 O   0  0  0  0  0  0
  -21.6624   -6.8863   21.4240 O   0  0  0  0  0  0
  -22.3565  -14.5528   20.6677 O   0  0  0  0  0  0
  -24.6115  -31.8683   23.2100 C   0  0  0  0  0  0
  -25.9023  -32.4822   23.8385 C   0  0  1  0  0  0
  -27.2494  -27.4588   20.0844 C   0  0  0  0  0  0
  -25.5890  -33.8623   24.2318 N   0  0  0  0  0  0
  -23.3986  -30.4899   21.5485 C   0  0  2  0  0  0
  -24.8456  -28.9523   20.1149 C   0  0  0  0  0  0
  -22.7388  -29.4660   22.4989 C   0  0  0  0  0  0
  -18.0267  -28.1379   22.8489 C   0  0  0  0  0  0
  -24.1486  -36.7315   23.2640 C   0  0  0  0  0  0
  -25.9233  -30.8380   21.3609 C   0  0  0  0  0  0
  -25.9998  -29.4718   20.7123 C   0  0  0  0  0  0
  -27.1964  -28.7269   20.7024 C   0  0  0  0  0  0
  -26.0723  -26.9371   19.4980 C   0  0  0  0  0  0
  -24.8745  -27.6815   19.5112 C   0  0  0  0  0  0
  -23.6058  -29.8164   20.1640 C   0  0  0  0  0  0
  -25.4110  -36.3115   24.0335 C   0  0  1  0  0  0
  -20.5852  -28.3662   23.1320 C   0  0  2  0  0  0
  -20.6762  -26.9404   22.5415 C   0  0  0  0  0  0
  -19.5746  -26.6387   21.5208 C   0  0  0  0  0  0
  -18.1920  -26.7925   22.1616 C   0  0  0  0  0  0
  -19.1512  -28.8835   23.2903 C   0  0  0  0  0  0
  -18.9450  -30.1440   23.8917 C   0  0  0  0  0  0
  -17.6456  -30.6590   24.0561 C   0  0  0  0  0  0
  -25.9033  -34.9478   23.5123 C   0  0  0  0  0  0
  -16.5346  -29.9094   23.6323 C   0  0  0  0  0  0
  -16.7256  -28.6505   23.0351 C   0  0  0  0  0  0
  -26.4472  -31.6605   25.0708 C   0  0  0  0  0  0
  -25.3753  -31.3710   26.1465 C   0  0  0  0  0  0
  -27.0310  -30.3054   24.6079 C   0  0  0  0  0  0
  -27.6048  -32.4332   25.7465 C   0  0  0  0  0  0
  -27.5582  -37.1813   24.8466 C   0  0  0  0  0  0
  -21.4116  -29.3031   22.3730 N   0  0  0  0  0  0
  -26.4299  -37.3795   23.9404 N   0  0  0  0  0  0
  -24.6623  -31.0801   22.0988 N   0  0  0  0  0  0
  -23.4165  -28.8216   23.3034 O   0  0  0  0  0  0
  -28.4620  -26.8045   20.1006 O   0  0  0  0  0  0
  -26.5592  -34.8930   22.4683 O   0  0  0  0  0  0
  -23.5316  -32.1425   23.7515 O   0  0  0  0  0  0
  -29.3966  -18.8089   19.4177 C   0  0  0  0  0  0
  -30.8503  -17.6733   21.5364 C   0  0  0  0  0  0
  -29.3643  -17.4152   19.6159 C   0  0  0  0  0  0
  -30.1377  -19.6479   20.2767 C   0  0  0  0  0  0
  -30.0731  -16.8380   20.7018 C   0  0  0  0  0  0
  -30.8967  -19.0675   21.3149 C   0  0  0  0  0  0
  -29.1774  -21.8496   19.6733 C   0  0  0  0  0  0
  -28.5635  -16.5842   18.6321 C   0  0  0  0  0  0
  -29.5266  -23.2899   19.2880 C   0  0  0  0  0  0
  -28.6420  -24.3644   19.9601 C   0  0  0  0  0  0
  -28.7275  -25.7134   19.2231 C   0  0  0  0  0  0
  -30.1848  -21.0565   20.0795 N   0  0  0  0  0  0
  -29.9269  -15.4587   21.0169 N   0  0  0  0  0  0
  -28.0053  -21.4725   19.5973 O   0  0  0  0  0  0
  -31.6533  -19.8552   22.1176 F   0  0  0  0  0  0
  -31.4724  -12.3962   19.1101 H   0  0  0  0  0  0
  -30.3365  -11.2764   19.8086 H   0  0  0  0  0  0
  -29.7309  -11.7581   17.4269 H   0  0  0  0  0  0
  -29.6701  -13.4685   17.7559 H   0  0  0  0  0  0
  -27.8143  -11.3005   18.8001 H   0  0  0  0  0  0
  -27.3646  -12.6436   17.7859 H   0  0  0  0  0  0
  -27.7013  -14.2281   19.5937 H   0  0  0  0  0  0
  -28.6878  -11.9215   21.3301 H   0  0  0  0  0  0
  -28.4761  -13.5529   21.8788 H   0  0  0  0  0  0
  -25.2740   -9.5679   22.4754 H   0  0  0  0  0  0
  -24.0000   -7.4620   22.7474 H   0  0  0  0  0  0
  -21.0816   -8.8748   19.8955 H   0  0  0  0  0  0
  -22.3664  -10.9651   19.6175 H   0  0  0  0  0  0
  -21.1985   -7.6147   23.9721 H   0  0  0  0  0  0
  -21.1484   -6.0519   25.9082 H   0  0  0  0  0  0
  -22.0597   -2.7609   23.2854 H   0  0  0  0  0  0
  -22.4075  -11.9891   22.4814 H   0  0  0  0  0  0
  -21.1111  -13.1282   22.2586 H   0  0  0  0  0  0
  -24.6676  -15.8352   20.5387 H   0  0  0  0  0  0
  -26.2945  -15.6290   20.1411 H   0  0  0  0  0  0
  -26.7093  -32.5540   23.1150 H   0  0  0  0  0  0
  -25.0073  -33.9789   25.0484 H   0  0  0  0  0  0
  -22.6868  -31.3063   21.4082 H   0  0  0  0  0  0
  -23.3745  -35.9653   23.3320 H   0  0  0  0  0  0
  -24.3585  -36.8910   22.2052 H   0  0  0  0  0  0
  -23.7245  -37.6528   23.6644 H   0  0  0  0  0  0
  -26.0340  -31.6046   20.5925 H   0  0  0  0  0  0
  -26.8125  -30.8925   21.9774 H   0  0  0  0  0  0
  -28.0902  -29.1285   21.1599 H   0  0  0  0  0  0
  -26.0595  -25.9603   19.0371 H   0  0  0  0  0  0
  -23.9833  -27.2709   19.0556 H   0  0  0  0  0  0
  -23.7101  -30.5877   19.4000 H   0  0  0  0  0  0
  -22.7313  -29.2314   19.8726 H   0  0  0  0  0  0
  -25.1293  -36.1980   25.0831 H   0  0  0  0  0  0
  -20.9948  -28.3233   24.1436 H   0  0  0  0  0  0
  -20.5666  -26.2277   23.3602 H   0  0  0  0  0  0
  -21.6638  -26.7462   22.1212 H   0  0  0  0  0  0
  -19.6916  -25.6300   21.1232 H   0  0  0  0  0  0
  -19.6691  -27.3203   20.6742 H   0  0  0  0  0  0
  -17.4198  -26.6671   21.4010 H   0  0  0  0  0  0
  -18.0323  -26.0062   22.9007 H   0  0  0  0  0  0
  -19.7930  -30.7235   24.2306 H   0  0  0  0  0  0
  -17.5022  -31.6273   24.5160 H   0  0  0  0  0  0
  -15.5350  -30.3010   23.7641 H   0  0  0  0  0  0
  -15.8651  -28.0832   22.7070 H   0  0  0  0  0  0
  -24.5902  -30.7087   25.7798 H   0  0  0  0  0  0
  -24.8979  -32.2873   26.4947 H   0  0  0  0  0  0
  -25.8111  -30.8843   27.0200 H   0  0  0  0  0  0
  -26.2846  -29.6797   24.1167 H   0  0  0  0  0  0
  -27.4130  -29.7305   25.4526 H   0  0  0  0  0  0
  -27.8657  -30.4382   23.9191 H   0  0  0  0  0  0
  -27.2658  -33.3609   26.2090 H   0  0  0  0  0  0
  -28.3827  -32.6935   25.0274 H   0  0  0  0  0  0
  -28.0757  -31.8438   26.5343 H   0  0  0  0  0  0
  -28.2613  -38.0097   24.7506 H   0  0  0  0  0  0
  -28.1064  -36.2631   24.6303 H   0  0  0  0  0  0
  -27.2301  -37.1474   25.8870 H   0  0  0  0  0  0
  -20.9278  -29.8735   21.6939 H   0  0  0  0  0  0
  -26.0188  -38.2874   24.1401 H   0  0  0  0  0  0
  -28.8461  -19.2338   18.5904 H   0  0  0  0  0  0
  -31.4036  -17.2532   22.3634 H   0  0  0  0  0  0
  -28.4487  -17.1054   17.6815 H   0  0  0  0  0  0
  -27.5657  -16.3961   19.0209 H   0  0  0  0  0  0
  -29.0562  -15.6392   18.4128 H   0  0  0  0  0  0
  -29.4130  -23.3518   18.2053 H   0  0  0  0  0  0
  -30.5785  -23.4978   19.4880 H   0  0  0  0  0  0
  -28.9806  -24.4910   20.9891 H   0  0  0  0  0  0
  -27.5991  -24.0500   20.0200 H   0  0  0  0  0  0
  -28.1239  -25.7212   18.3152 H   0  0  0  0  0  0
  -29.7523  -25.8605   18.8815 H   0  0  0  0  0  0
  -31.0653  -21.5029   20.2981 H   0  0  0  0  0  0
  -29.0090  -15.1687   21.3173 H   0  0  0  0  0  0
  1 25  1  0  0  0
  1 30  2  0  0  0
  1 83  1  0  0  0
  2  3  1  0  0  0
  2 25  1  0  0  0
  2 86  1  0  0  0
  2 87  1  0  0  0
  3  4  1  0  0  0
  3 88  1  0  0  0
  3 89  1  0  0  0
  4  5  1  0  0  0
  4 90  1  0  0  0
  4 91  1  0  0  0
  5  6  1  0  0  0
  5 26  1  0  0  0
  5 92  1  0  0  0
  6 25  1  0  0  0
  6 93  1  0  0  0
  6 94  1  0  0  0
  7  8  2  0  0  0
  7 26  1  0  0  0
  7 29  1  0  0  0
  8  9  1  0  0  0
  8 22  1  0  0  0
  9 10  1  0  0  0
  9 27  2  0  0  0
 10 11  2  0  0  0
 10 15  1  0  0  0
 11 12  1  0  0  0
 11 95  1  0  0  0
 12 13  2  0  0  0
 12 96  1  0  0  0
 13 14  1  0  0  0
 13 31  1  0  0  0
 14 15  2  0  0  0
 14 97  1  0  0  0
 15 98  1  0  0  0
 16 17  2  0  0  0
 16 21  1  0  0  0
 16 31  1  0  0  0
 17 18  1  0  0  0
 17 99  1  0  0  0
 18 19  2  0  0  0
 18100  1  0  0  0
 19 20  1  0  0  0
 19 24  1  0  0  0
 20 21  2  0  0  0
 20101  1  0  0  0
 21 23  1  0  0  0
 22 28  1  0  0  0
 22 32  2  0  0  0
 26 27  1  0  0  0
 28102  1  0  0  0
 28103  1  0  0  0
 29104  1  0  0  0
 29105  1  0  0  0
 33 34  1  0  0  0
 33 66  1  0  0  0
 33 70  2  0  0  0
 34 36  1  0  0  0
 34 59  1  0  0  0
 34106  1  0  0  0
 35 44  2  0  0  0
 35 45  1  0  0  0
 35 68  1  0  0  0
 36 56  1  0  0  0
 36107  1  0  0  0
 37 39  1  0  0  0
 37 47  1  0  0  0
 37 66  1  0  0  0
 37108  1  0  0  0
 38 43  2  0  0  0
 38 46  1  0  0  0
 38 47  1  0  0  0
 39 64  1  0  0  0
 39 67  2  0  0  0
 40 52  1  0  0  0
 40 53  2  0  0  0
 40 58  1  0  0  0
 41109  1  0  0  0
 41110  1  0  0  0
 41111  1  0  0  0
 41 48  1  0  0  0
 42 43  1  0  0  0
 42 66  1  0  0  0
 42112  1  0  0  0
 42113  1  0  0  0
 43 44  1  0  0  0
 44114  1  0  0  0
 45 46  2  0  0  0
 45115  1  0  0  0
 46116  1  0  0  0
 47117  1  0  0  0
 47118  1  0  0  0
 48 56  1  0  0  0
 48 65  1  0  0  0
 48119  1  0  0  0
 49 50  1  0  0  0
 49 53  1  0  0  0
 49 64  1  0  0  0
 49120  1  0  0  0
 50 51  1  0  0  0
 50121  1  0  0  0
 50122  1  0  0  0
 51 52  1  0  0  0
 51123  1  0  0  0
 51124  1  0  0  0
 52125  1  0  0  0
 52126  1  0  0  0
 53 54  1  0  0  0
 54 55  2  0  0  0
 54127  1  0  0  0
 55 57  1  0  0  0
 55128  1  0  0  0
 56 69  2  0  0  0
 57 58  2  0  0  0
 57129  1  0  0  0
 58130  1  0  0  0
 59 60  1  0  0  0
 59 61  1  0  0  0
 59 62  1  0  0  0
 60131  1  0  0  0
 60132  1  0  0  0
 60133  1  0  0  0
 61134  1  0  0  0
 61135  1  0  0  0
 61136  1  0  0  0
 62137  1  0  0  0
 62138  1  0  0  0
 62139  1  0  0  0
 63 65  1  0  0  0
 63140  1  0  0  0
 63141  1  0  0  0
 63142  1  0  0  0
 64143  1  0  0  0
 65144  1  0  0  0
 68 81  1  0  0  0
 71 73  2  0  0  0
 71 74  1  0  0  0
 71145  1  0  0  0
 72 75  2  0  0  0
 72 76  1  0  0  0
 72146  1  0  0  0
 73 75  1  0  0  0
 73 78  1  0  0  0
 74 76  2  0  0  0
 74 82  1  0  0  0
 75 83  1  0  0  0
 76 85  1  0  0  0
 77 79  1  0  0  0
 77 82  1  0  0  0
 77 84  2  0  0  0
 78147  1  0  0  0
 78148  1  0  0  0
 78149  1  0  0  0
 79 80  1  0  0  0
 79150  1  0  0  0
 79151  1  0  0  0
 80 81  1  0  0  0
 80152  1  0  0  0
 80153  1  0  0  0
 81154  1  0  0  0
 81155  1  0  0  0
 82156  1  0  0  0
 83157  1  0  0  0
M  ISO  4   1 100  68 101  81 101  83 100
M  END
> <chiral flag>
0

> <version>
0

> <s_m_source_file>
/data/baiqing/PycharmProjects/Reinvent-master-3.2/result/LINK_invent/BTK/process_docking_weight1_custom_product_contain_oxygen_bond_distance_aromatic_linkinvent_7_9_3/rearranged_h_0112.sdf

> <i_m_source_file_index>
81

> <r_mmod_Potential_Energy-OPLS-2005>
-121.419059753418

> <r_mmod_Stretch_Energy-OPLS-2005>
33.3913078308105

> <r_mmod_Bend_Energy-OPLS-2005>
101.884620666504

> <r_mmod_Torsional_Energy-OPLS-2005>
259.571166992188

> <r_mmod_Improper_Torsional_Energy-OPLS-2005>
5.21628761291504

> <r_mmod_Van_der_Waal_Energy-OPLS-2005>
153.312896728516

> <r_mmod_Electrostatic_Energy-OPLS-2005>
-463.839904785156

> <r_mmod_Solvation_Energy-OPLS-2005>
-223.501708984375

> <b_mmod_Minimization_Converged-OPLS-2005>
0

> <r_mmod_RMS_Derivative-OPLS-2005>
1.09107208251953

$$$$
82
                    3D
 Structure written by MMmdl.
164173  0  0  1  0            999 V2000
  -30.6460  -14.5868   20.4605 C   0  0  0  0  0  0
  -30.4199  -12.3530   19.4342 C   0  0  0  0  0  0
  -29.5014  -12.4953   18.2034 C   0  0  0  0  0  0
  -28.0188  -12.3542   18.6074 C   0  0  0  0  0  0
  -27.6444  -13.2131   19.8464 C   0  0  2  0  0  0
  -28.6916  -13.0641   20.9722 C   0  0  0  0  0  0
  -25.2501  -13.8147   20.5618 C   0  0  0  0  0  0
  -24.1780  -13.0404   20.9167 C   0  0  0  0  0  0
  -24.6354  -11.6891   20.8723 C   0  0  0  0  0  0
  -23.9025  -10.4277   21.0396 C   0  0  0  0  0  0
  -24.3582   -9.4190   21.9175 C   0  0  0  0  0  0
  -23.6259   -8.2222   22.0749 C   0  0  0  0  0  0
  -22.4246   -8.0251   21.3530 C   0  0  0  0  0  0
  -21.9871   -9.0224   20.4636 C   0  0  0  0  0  0
  -22.7196  -10.2105   20.3040 C   0  0  0  0  0  0
  -21.6848   -6.0699   22.5259 C   0  0  0  0  0  0
  -21.4018   -6.5609   23.8197 C   0  0  0  0  0  0
  -21.3671   -5.6772   24.9170 C   0  0  0  0  0  0
  -21.6044   -4.3030   24.7237 C   0  0  0  0  0  0
  -21.8821   -3.8110   23.4364 C   0  0  0  0  0  0
  -21.9190   -4.6917   22.3410 C   0  0  0  0  0  0
  -22.7803  -13.5201   21.1855 C   0  0  0  0  0  0
  -22.1647   -4.2093   21.0990 F   0  0  0  0  0  0
  -21.5646   -3.4530   25.7771 F   0  0  0  0  0  0
  -30.0018  -13.3850   20.3953 N   0  0  0  0  0  0
  -26.2915  -12.9328   20.3197 N   0  0  0  0  0  0
  -25.9271  -11.6486   20.5664 N   0  0  0  0  0  0
  -22.0461  -12.8192   22.0415 N   0  0  0  0  0  0
  -25.4151  -15.1884   20.4058 N   0  0  0  0  0  0
  -31.8353  -14.6938   20.1601 O   0  0  0  0  0  0
  -21.6625   -6.8822   21.4221 O   0  0  0  0  0  0
  -22.3463  -14.5505   20.6704 O   0  0  0  0  0  0
  -24.6180  -31.8732   23.2055 C   0  0  0  0  0  0
  -25.9073  -32.4885   23.8333 C   0  0  1  0  0  0
  -27.2255  -27.3834   20.1227 C   0  0  0  0  0  0
  -25.5932  -33.8678   24.2285 N   0  0  0  0  0  0
  -23.4092  -30.4928   21.5482 C   0  0  2  0  0  0
  -24.8586  -28.9520   20.1103 C   0  0  0  0  0  0
  -22.7431  -29.4729   22.4998 C   0  0  0  0  0  0
  -18.0284  -28.1463   22.8570 C   0  0  0  0  0  0
  -24.1460  -36.7297   23.2642 C   0  0  0  0  0  0
  -25.9383  -30.8215   21.3650 C   0  0  0  0  0  0
  -26.0199  -29.4483   20.7209 C   0  0  0  0  0  0
  -27.2091  -28.6702   20.7275 C   0  0  0  0  0  0
  -26.0504  -26.9173   19.5020 C   0  0  0  0  0  0
  -24.8715  -27.6905   19.4923 C   0  0  0  0  0  0
  -23.6215  -29.8256   20.1594 C   0  0  0  0  0  0
  -25.4109  -36.3159   24.0334 C   0  0  1  0  0  0
  -20.5891  -28.3790   23.1377 C   0  0  2  0  0  0
  -20.6803  -26.9545   22.5464 C   0  0  0  0  0  0
  -19.5744  -26.6479   21.5295 C   0  0  0  0  0  0
  -18.1928  -26.8016   22.1685 C   0  0  0  0  0  0
  -19.1544  -28.8943   23.2962 C   0  0  0  0  0  0
  -18.9460  -30.1542   23.8986 C   0  0  0  0  0  0
  -17.6475  -30.6692   24.0616 C   0  0  0  0  0  0
  -25.9057  -34.9535   23.5118 C   0  0  0  0  0  0
  -16.5385  -29.9200   23.6359 C   0  0  0  0  0  0
  -16.7266  -28.6593   23.0432 C   0  0  0  0  0  0
  -26.4444  -31.6651   25.0648 C   0  0  0  0  0  0
  -25.3649  -31.3798   26.1342 C   0  0  0  0  0  0
  -27.0232  -30.3091   24.5984 C   0  0  0  0  0  0
  -27.6014  -32.4353   25.7439 C   0  0  0  0  0  0
  -27.5568  -37.1817   24.8478 C   0  0  0  0  0  0
  -21.4161  -29.3115   22.3715 N   0  0  0  0  0  0
  -26.4284  -37.3855   23.9426 N   0  0  0  0  0  0
  -24.6746  -31.0772   22.1008 N   0  0  0  0  0  0
  -23.4177  -28.8347   23.3123 O   0  0  0  0  0  0
  -28.3267  -26.5380   20.1263 O   0  0  0  0  0  0
  -26.5630  -34.9023   22.4683 O   0  0  0  0  0  0
  -23.5373  -32.1548   23.7431 O   0  0  0  0  0  0
  -29.5503  -18.1936   20.2280 C   0  0  0  0  0  0
  -31.1958  -19.7410   21.1302 C   0  0  0  0  0  0
  -31.4180  -17.3557   21.5595 C   0  0  0  0  0  0
  -29.9967  -19.5471   20.4131 C   0  0  0  0  0  0
  -30.2743  -17.0769   20.7752 C   0  0  0  0  0  0
  -31.8753  -18.6790   21.7503 C   0  0  0  0  0  0
  -28.5587  -24.2296   21.0684 C   0  0  0  0  0  0
  -35.6626  -17.3829   24.0554 C   0  0  0  0  0  0
  -28.3295  -25.5773   21.1302 C   0  0  0  0  0  0
  -34.5170  -17.3322   23.3540 C   0  0  0  0  0  0
  -29.3219  -20.7644   19.7622 C   0  0  0  0  0  0
  -28.4872  -23.3569   22.2966 C   0  0  0  0  0  0
  -28.8719  -23.2903   19.8974 C   0  0  0  0  0  0
  -29.1637  -22.0272   21.9282 C   0  0  0  0  0  0
  -33.3063  -18.2007   23.6302 C   0  0  0  0  0  0
  -29.1952  -21.9418   20.4636 N   0  0  0  0  0  0
  -29.8560  -15.6965   20.5974 N   0  0  0  0  0  0
  -28.9591  -20.6694   18.5877 O   0  0  0  0  0  0
  -32.9840  -19.0071   22.4973 O   0  0  0  0  0  0
  -31.4691  -12.4515   19.1497 H   0  0  0  0  0  0
  -30.3209  -11.3610   19.8776 H   0  0  0  0  0  0
  -29.7611  -11.7500   17.4512 H   0  0  0  0  0  0
  -29.6607  -13.4681   17.7335 H   0  0  0  0  0  0
  -27.8338  -11.2997   18.8135 H   0  0  0  0  0  0
  -27.3776  -12.6131   17.7625 H   0  0  0  0  0  0
  -27.6579  -14.2497   19.5088 H   0  0  0  0  0  0
  -28.6929  -12.0413   21.3573 H   0  0  0  0  0  0
  -28.4528  -13.7093   21.8194 H   0  0  0  0  0  0
  -25.2749   -9.5668   22.4713 H   0  0  0  0  0  0
  -23.9976   -7.4620   22.7481 H   0  0  0  0  0  0
  -21.0787   -8.8724   19.8955 H   0  0  0  0  0  0
  -22.3647  -10.9620   19.6118 H   0  0  0  0  0  0
  -21.2001   -7.6120   23.9668 H   0  0  0  0  0  0
  -21.1496   -6.0524   25.9063 H   0  0  0  0  0  0
  -22.0591   -2.7565   23.2899 H   0  0  0  0  0  0
  -22.4097  -11.9887   22.4846 H   0  0  0  0  0  0
  -21.1058  -13.1175   22.2599 H   0  0  0  0  0  0
  -24.6432  -15.8353   20.5235 H   0  0  0  0  0  0
  -26.2515  -15.6374   20.0562 H   0  0  0  0  0  0
  -26.7142  -32.5557   23.1090 H   0  0  0  0  0  0
  -24.9937  -33.9790   25.0329 H   0  0  0  0  0  0
  -22.7001  -31.3100   21.4091 H   0  0  0  0  0  0
  -23.3744  -35.9601   23.3344 H   0  0  0  0  0  0
  -24.3514  -36.8887   22.2043 H   0  0  0  0  0  0
  -23.7168  -37.6495   23.6624 H   0  0  0  0  0  0
  -26.0471  -31.5765   20.5844 H   0  0  0  0  0  0
  -26.8274  -30.8882   21.9790 H   0  0  0  0  0  0
  -28.1008  -29.0353   21.2155 H   0  0  0  0  0  0
  -26.0457  -25.9399   19.0421 H   0  0  0  0  0  0
  -23.9822  -27.3058   19.0077 H   0  0  0  0  0  0
  -23.7334  -30.6016   19.4010 H   0  0  0  0  0  0
  -22.7423  -29.2502   19.8667 H   0  0  0  0  0  0
  -25.1308  -36.2017   25.0825 H   0  0  0  0  0  0
  -20.9998  -28.3359   24.1498 H   0  0  0  0  0  0
  -20.5869  -26.2408   23.3656 H   0  0  0  0  0  0
  -21.6661  -26.7672   22.1191 H   0  0  0  0  0  0
  -19.6935  -25.6387   21.1339 H   0  0  0  0  0  0
  -19.6666  -27.3266   20.6798 H   0  0  0  0  0  0
  -17.4236  -26.6878   21.4039 H   0  0  0  0  0  0
  -18.0272  -26.0099   22.9012 H   0  0  0  0  0  0
  -19.7940  -30.7347   24.2408 H   0  0  0  0  0  0
  -17.5036  -31.6375   24.5223 H   0  0  0  0  0  0
  -15.5403  -30.3181   23.7610 H   0  0  0  0  0  0
  -15.8638  -28.0919   22.7201 H   0  0  0  0  0  0
  -24.5892  -30.7086   25.7645 H   0  0  0  0  0  0
  -24.8720  -32.2969   26.4578 H   0  0  0  0  0  0
  -25.7944  -30.9107   27.0197 H   0  0  0  0  0  0
  -26.2734  -29.6930   24.1020 H   0  0  0  0  0  0
  -27.3951  -29.7281   25.4415 H   0  0  0  0  0  0
  -27.8597  -30.4386   23.9114 H   0  0  0  0  0  0
  -27.2662  -33.3691   26.1953 H   0  0  0  0  0  0
  -28.3882  -32.6853   25.0320 H   0  0  0  0  0  0
  -28.0559  -31.8468   26.5403 H   0  0  0  0  0  0
  -28.2676  -38.0038   24.7584 H   0  0  0  0  0  0
  -28.1012  -36.2621   24.6301 H   0  0  0  0  0  0
  -27.2292  -37.1460   25.8878 H   0  0  0  0  0  0
  -20.9374  -29.8668   21.6764 H   0  0  0  0  0  0
  -26.0174  -38.2932   24.1457 H   0  0  0  0  0  0
  -28.6587  -18.0208   19.6412 H   0  0  0  0  0  0
  -31.6155  -20.7315   21.2190 H   0  0  0  0  0  0
  -31.9749  -16.5409   21.9988 H   0  0  0  0  0  0
  -36.4987  -16.7434   23.8097 H   0  0  0  0  0  0
  -35.7924  -18.0610   24.8889 H   0  0  0  0  0  0
  -28.1042  -26.0383   22.0836 H   0  0  0  0  0  0
  -34.4235  -16.6339   22.5320 H   0  0  0  0  0  0
  -27.4330  -23.1904   22.5183 H   0  0  0  0  0  0
  -28.9307  -23.8348   23.1709 H   0  0  0  0  0  0
  -29.7093  -23.6782   19.3137 H   0  0  0  0  0  0
  -27.9977  -23.2280   19.2501 H   0  0  0  0  0  0
  -28.6253  -21.1800   22.3552 H   0  0  0  0  0  0
  -30.1738  -22.0056   22.3374 H   0  0  0  0  0  0
  -33.5408  -18.8797   24.4496 H   0  0  0  0  0  0
  -32.4656  -17.5976   23.9838 H   0  0  0  0  0  0
  -28.8646  -15.5312   20.5528 H   0  0  0  0  0  0
  1 25  1  0  0  0
  1 30  2  0  0  0
  1 87  1  0  0  0
  2  3  1  0  0  0
  2 25  1  0  0  0
  2 90  1  0  0  0
  2 91  1  0  0  0
  3  4  1  0  0  0
  3 92  1  0  0  0
  3 93  1  0  0  0
  4  5  1  0  0  0
  4 94  1  0  0  0
  4 95  1  0  0  0
  5  6  1  0  0  0
  5 26  1  0  0  0
  5 96  1  0  0  0
  6 25  1  0  0  0
  6 97  1  0  0  0
  6 98  1  0  0  0
  7  8  2  0  0  0
  7 26  1  0  0  0
  7 29  1  0  0  0
  8  9  1  0  0  0
  8 22  1  0  0  0
  9 10  1  0  0  0
  9 27  2  0  0  0
 10 11  2  0  0  0
 10 15  1  0  0  0
 11 12  1  0  0  0
 11 99  1  0  0  0
 12 13  2  0  0  0
 12100  1  0  0  0
 13 14  1  0  0  0
 13 31  1  0  0  0
 14 15  2  0  0  0
 14101  1  0  0  0
 15102  1  0  0  0
 16 17  2  0  0  0
 16 21  1  0  0  0
 16 31  1  0  0  0
 17 18  1  0  0  0
 17103  1  0  0  0
 18 19  2  0  0  0
 18104  1  0  0  0
 19 20  1  0  0  0
 19 24  1  0  0  0
 20 21  2  0  0  0
 20105  1  0  0  0
 21 23  1  0  0  0
 22 28  1  0  0  0
 22 32  2  0  0  0
 26 27  1  0  0  0
 28106  1  0  0  0
 28107  1  0  0  0
 29108  1  0  0  0
 29109  1  0  0  0
 33 34  1  0  0  0
 33 66  1  0  0  0
 33 70  2  0  0  0
 34 36  1  0  0  0
 34 59  1  0  0  0
 34110  1  0  0  0
 35 44  2  0  0  0
 35 45  1  0  0  0
 35 68  1  0  0  0
 36 56  1  0  0  0
 36111  1  0  0  0
 37 39  1  0  0  0
 37 47  1  0  0  0
 37 66  1  0  0  0
 37112  1  0  0  0
 38 43  2  0  0  0
 38 46  1  0  0  0
 38 47  1  0  0  0
 39 64  1  0  0  0
 39 67  2  0  0  0
 40 52  1  0  0  0
 40 53  2  0  0  0
 40 58  1  0  0  0
 41113  1  0  0  0
 41114  1  0  0  0
 41115  1  0  0  0
 41 48  1  0  0  0
 42 43  1  0  0  0
 42 66  1  0  0  0
 42116  1  0  0  0
 42117  1  0  0  0
 43 44  1  0  0  0
 44118  1  0  0  0
 45 46  2  0  0  0
 45119  1  0  0  0
 46120  1  0  0  0
 47121  1  0  0  0
 47122  1  0  0  0
 48 56  1  0  0  0
 48 65  1  0  0  0
 48123  1  0  0  0
 49 50  1  0  0  0
 49 53  1  0  0  0
 49 64  1  0  0  0
 49124  1  0  0  0
 50 51  1  0  0  0
 50125  1  0  0  0
 50126  1  0  0  0
 51 52  1  0  0  0
 51127  1  0  0  0
 51128  1  0  0  0
 52129  1  0  0  0
 52130  1  0  0  0
 53 54  1  0  0  0
 54 55  2  0  0  0
 54131  1  0  0  0
 55 57  1  0  0  0
 55132  1  0  0  0
 56 69  2  0  0  0
 57 58  2  0  0  0
 57133  1  0  0  0
 58134  1  0  0  0
 59 60  1  0  0  0
 59 61  1  0  0  0
 59 62  1  0  0  0
 60135  1  0  0  0
 60136  1  0  0  0
 60137  1  0  0  0
 61138  1  0  0  0
 61139  1  0  0  0
 61140  1  0  0  0
 62141  1  0  0  0
 62142  1  0  0  0
 62143  1  0  0  0
 63 65  1  0  0  0
 63144  1  0  0  0
 63145  1  0  0  0
 63146  1  0  0  0
 64147  1  0  0  0
 65148  1  0  0  0
 68 79  1  0  0  0
 71 74  2  0  0  0
 71 75  1  0  0  0
 71149  1  0  0  0
 72 74  1  0  0  0
 72 76  2  0  0  0
 72150  1  0  0  0
 73 75  2  0  0  0
 73 76  1  0  0  0
 73151  1  0  0  0
 74 81  1  0  0  0
 75 87  1  0  0  0
 76 89  1  0  0  0
 77 79  2  0  0  0
 77 82  1  0  0  0
 77 83  1  0  0  0
 78 80  2  0  0  0
 78152  1  0  0  0
 78153  1  0  0  0
 79154  1  0  0  0
 80 85  1  0  0  0
 80155  1  0  0  0
 81 86  1  0  0  0
 81 88  2  0  0  0
 82 84  1  0  0  0
 82156  1  0  0  0
 82157  1  0  0  0
 83 86  1  0  0  0
 83158  1  0  0  0
 83159  1  0  0  0
 84 86  1  0  0  0
 84160  1  0  0  0
 84161  1  0  0  0
 85 89  1  0  0  0
 85162  1  0  0  0
 85163  1  0  0  0
 87164  1  0  0  0
M  ISO  4   1 100  68 101  79 101  87 100
M  END
> <chiral flag>
0

> <version>
0

> <s_m_source_file>
/data/baiqing/PycharmProjects/Reinvent-master-3.2/result/LINK_invent/BTK/process_docking_weight1_custom_product_contain_oxygen_bond_distance_aromatic_linkinvent_7_9_3/rearranged_h_0112.sdf

> <i_m_source_file_index>
82

> <r_mmod_Potential_Energy-OPLS-2005>
115.721725463867

> <r_mmod_Stretch_Energy-OPLS-2005>
60.6274299621582

> <r_mmod_Bend_Energy-OPLS-2005>
145.146850585938

> <r_mmod_Torsional_Energy-OPLS-2005>
311.443878173828

> <r_mmod_Improper_Torsional_Energy-OPLS-2005>
7.57601547241211

> <r_mmod_Van_der_Waal_Energy-OPLS-2005>
144.993759155273

> <r_mmod_Electrostatic_Energy-OPLS-2005>
-357.611968994141

> <r_mmod_Solvation_Energy-OPLS-2005>
-231.427352905273

> <b_mmod_Minimization_Converged-OPLS-2005>
0

> <r_mmod_RMS_Derivative-OPLS-2005>
5.41859483718872

$$$$
83
                    3D
 Structure written by MMmdl.
163171  0  0  1  0            999 V2000
  -30.7355  -14.5253   20.6252 C   0  0  0  0  0  0
  -30.4456  -12.3820   19.4020 C   0  0  0  0  0  0
  -29.4931  -12.5304   18.1982 C   0  0  0  0  0  0
  -28.0198  -12.3808   18.6266 C   0  0  0  0  0  0
  -27.6762  -13.2092   19.8936 C   0  0  2  0  0  0
  -28.7372  -12.9669   20.9929 C   0  0  0  0  0  0
  -25.2588  -13.8127   20.5396 C   0  0  0  0  0  0
  -24.1881  -13.0431   20.9099 C   0  0  0  0  0  0
  -24.6464  -11.6914   20.8782 C   0  0  0  0  0  0
  -23.9101  -10.4308   21.0438 C   0  0  0  0  0  0
  -24.3633   -9.4209   21.9206 C   0  0  0  0  0  0
  -23.6298   -8.2243   22.0765 C   0  0  0  0  0  0
  -22.4282   -8.0290   21.3550 C   0  0  0  0  0  0
  -21.9934   -9.0273   20.4654 C   0  0  0  0  0  0
  -22.7273  -10.2151   20.3076 C   0  0  0  0  0  0
  -21.6855   -6.0739   22.5279 C   0  0  0  0  0  0
  -21.4011   -6.5639   23.8214 C   0  0  0  0  0  0
  -21.3656   -5.6789   24.9175 C   0  0  0  0  0  0
  -21.6044   -4.3053   24.7221 C   0  0  0  0  0  0
  -21.8820   -3.8147   23.4342 C   0  0  0  0  0  0
  -21.9197   -4.6967   22.3401 C   0  0  0  0  0  0
  -22.7913  -13.5260   21.1769 C   0  0  0  0  0  0
  -22.1665   -4.2150   21.0979 F   0  0  0  0  0  0
  -21.5632   -3.4539   25.7735 F   0  0  0  0  0  0
  -30.0462  -13.3499   20.4459 N   0  0  0  0  0  0
  -26.3144  -12.9334   20.3504 N   0  0  0  0  0  0
  -25.9431  -11.6503   20.5944 N   0  0  0  0  0  0
  -22.0575  -12.8262   22.0357 N   0  0  0  0  0  0
  -25.4113  -15.1776   20.3223 N   0  0  0  0  0  0
  -31.7674  -14.7684   19.9893 O   0  0  0  0  0  0
  -21.6645   -6.8885   21.4240 O   0  0  0  0  0  0
  -22.3583  -14.5559   20.6637 O   0  0  0  0  0  0
  -24.6231  -31.8627   23.2060 C   0  0  0  0  0  0
  -25.9096  -32.4785   23.8375 C   0  0  1  0  0  0
  -27.2308  -27.3614   20.1128 C   0  0  0  0  0  0
  -25.5920  -33.8583   24.2290 N   0  0  0  0  0  0
  -23.4142  -30.4884   21.5458 C   0  0  2  0  0  0
  -24.8594  -28.9465   20.1126 C   0  0  0  0  0  0
  -22.7448  -29.4653   22.4933 C   0  0  0  0  0  0
  -18.0294  -28.1377   22.8481 C   0  0  0  0  0  0
  -24.1480  -36.7300   23.2634 C   0  0  0  0  0  0
  -25.9512  -30.8078   21.3684 C   0  0  0  0  0  0
  -26.0269  -29.4388   20.7113 C   0  0  0  0  0  0
  -27.2151  -28.6582   20.7001 C   0  0  0  0  0  0
  -26.0386  -26.9073   19.5009 C   0  0  0  0  0  0
  -24.8659  -27.6838   19.5004 C   0  0  0  0  0  0
  -23.6262  -29.8223   20.1606 C   0  0  0  0  0  0
  -25.4105  -36.3081   24.0314 C   0  0  1  0  0  0
  -20.5894  -28.3681   23.1278 C   0  0  2  0  0  0
  -20.6781  -26.9406   22.5403 C   0  0  0  0  0  0
  -19.5753  -26.6375   21.5207 C   0  0  0  0  0  0
  -18.1936  -26.7927   22.1614 C   0  0  0  0  0  0
  -19.1542  -28.8841   23.2885 C   0  0  0  0  0  0
  -18.9470  -30.1448   23.8896 C   0  0  0  0  0  0
  -17.6463  -30.6581   24.0559 C   0  0  0  0  0  0
  -25.9029  -34.9451   23.5093 C   0  0  0  0  0  0
  -16.5353  -29.9083   23.6328 C   0  0  0  0  0  0
  -16.7280  -28.6501   23.0341 C   0  0  0  0  0  0
  -26.4486  -31.6602   25.0741 C   0  0  0  0  0  0
  -25.3714  -31.3754   26.1466 C   0  0  0  0  0  0
  -27.0323  -30.3020   24.6202 C   0  0  0  0  0  0
  -27.6052  -32.4349   25.7501 C   0  0  0  0  0  0
  -27.5575  -37.1801   24.8461 C   0  0  0  0  0  0
  -21.4167  -29.3042   22.3667 N   0  0  0  0  0  0
  -26.4284  -37.3770   23.9404 N   0  0  0  0  0  0
  -24.6823  -31.0679   22.0980 N   0  0  0  0  0  0
  -23.4183  -28.8183   23.2992 O   0  0  0  0  0  0
  -28.3759  -26.5611   20.1619 O   0  0  0  0  0  0
  -26.5591  -34.8915   22.4653 O   0  0  0  0  0  0
  -23.5399  -32.1400   23.7408 O   0  0  0  0  0  0
  -29.7532  -17.8769   20.8945 C   0  0  0  0  0  0
  -27.1763  -17.6794   21.9282 C   0  0  0  0  0  0
  -29.3760  -16.6524   21.5478 C   0  0  0  0  0  0
  -28.0887  -16.6263   22.1675 C   0  0  0  0  0  0
  -28.8801  -19.0156   20.8041 C   0  0  0  0  0  0
  -27.5367  -18.8527   21.2242 C   0  0  0  0  0  0
  -26.4127  -15.1600   23.3874 C   0  0  0  0  0  0
  -27.6661  -15.5265   23.0704 C   0  0  0  0  0  0
  -30.3528  -15.4974   21.7689 C   0  0  0  0  0  0
  -29.0473  -21.5609   20.6537 C   0  0  0  0  0  0
  -25.2639  -19.6835   21.2800 C   0  0  0  0  0  0
  -29.5517  -22.7579   19.7879 C   0  0  0  0  0  0
  -29.4593  -24.2370   20.3559 C   0  0  0  0  0  0
  -28.2319  -25.1201   19.9386 C   0  0  0  0  0  0
  -30.9088  -15.3539   22.9015 N   0  0  0  0  0  0
  -29.3221  -20.2839   20.2376 N   0  0  0  0  0  0
  -28.4568  -21.8077   21.7082 O   0  0  0  0  0  0
  -26.6294  -19.8489   20.9177 O   0  0  0  0  0  0
  -31.4766  -12.5234   19.0722 H   0  0  0  0  0  0
  -30.4096  -11.3660   19.7982 H   0  0  0  0  0  0
  -29.7356  -11.7859   17.4391 H   0  0  0  0  0  0
  -29.6421  -13.5024   17.7269 H   0  0  0  0  0  0
  -27.8395  -11.3220   18.8178 H   0  0  0  0  0  0
  -27.3576  -12.6559   17.8049 H   0  0  0  0  0  0
  -27.7266  -14.2626   19.6186 H   0  0  0  0  0  0
  -28.7564  -11.9105   21.2680 H   0  0  0  0  0  0
  -28.5046  -13.4787   21.9146 H   0  0  0  0  0  0
  -25.2781   -9.5672   22.4780 H   0  0  0  0  0  0
  -24.0006   -7.4635   22.7490 H   0  0  0  0  0  0
  -21.0863   -8.8797   19.8961 H   0  0  0  0  0  0
  -22.3738  -10.9687   19.6182 H   0  0  0  0  0  0
  -21.1992   -7.6146   23.9712 H   0  0  0  0  0  0
  -21.1478   -6.0521   25.9075 H   0  0  0  0  0  0
  -22.0599   -2.7609   23.2843 H   0  0  0  0  0  0
  -22.4201  -11.9922   22.4727 H   0  0  0  0  0  0
  -21.1210  -13.1308   22.2594 H   0  0  0  0  0  0
  -24.6267  -15.8176   20.3610 H   0  0  0  0  0  0
  -26.2739  -15.6222   20.0368 H   0  0  0  0  0  0
  -26.7166  -32.5448   23.1142 H   0  0  0  0  0  0
  -25.0090  -33.9741   25.0444 H   0  0  0  0  0  0
  -22.7068  -31.3079   21.4054 H   0  0  0  0  0  0
  -23.3722  -35.9659   23.3314 H   0  0  0  0  0  0
  -24.3568  -36.8912   22.2046 H   0  0  0  0  0  0
  -23.7280  -37.6520   23.6652 H   0  0  0  0  0  0
  -26.0734  -31.5741   20.5997 H   0  0  0  0  0  0
  -26.8358  -30.8582   21.9931 H   0  0  0  0  0  0
  -28.1140  -29.0330   21.1689 H   0  0  0  0  0  0
  -25.9840  -25.9401   19.0235 H   0  0  0  0  0  0
  -23.9717  -27.2977   19.0305 H   0  0  0  0  0  0
  -23.7366  -30.5978   19.4017 H   0  0  0  0  0  0
  -22.7488  -29.2462   19.8605 H   0  0  0  0  0  0
  -25.1298  -36.1930   25.0811 H   0  0  0  0  0  0
  -20.9998  -28.3261   24.1392 H   0  0  0  0  0  0
  -20.5691  -26.2278   23.3595 H   0  0  0  0  0  0
  -21.6643  -26.7437   22.1183 H   0  0  0  0  0  0
  -19.6897  -25.6280   21.1247 H   0  0  0  0  0  0
  -19.6696  -27.3165   20.6723 H   0  0  0  0  0  0
  -17.4202  -26.6681   21.4018 H   0  0  0  0  0  0
  -18.0332  -26.0069   22.9005 H   0  0  0  0  0  0
  -19.7940  -30.7278   24.2247 H   0  0  0  0  0  0
  -17.5019  -31.6259   24.5159 H   0  0  0  0  0  0
  -15.5354  -30.2980   23.7656 H   0  0  0  0  0  0
  -15.8684  -28.0833   22.7039 H   0  0  0  0  0  0
  -24.5873  -30.7124   25.7801 H   0  0  0  0  0  0
  -24.8912  -32.2923   26.4891 H   0  0  0  0  0  0
  -25.8025  -30.8928   27.0252 H   0  0  0  0  0  0
  -26.2895  -29.6769   24.1231 H   0  0  0  0  0  0
  -27.4010  -29.7299   25.4728 H   0  0  0  0  0  0
  -27.8781  -30.4292   23.9436 H   0  0  0  0  0  0
  -27.2669  -33.3655   26.2075 H   0  0  0  0  0  0
  -28.3857  -32.6917   25.0320 H   0  0  0  0  0  0
  -28.0724  -31.8483   26.5416 H   0  0  0  0  0  0
  -28.2595  -38.0093   24.7488 H   0  0  0  0  0  0
  -28.1070  -36.2619   24.6311 H   0  0  0  0  0  0
  -27.2285  -37.1491   25.8863 H   0  0  0  0  0  0
  -20.9319  -29.8786   21.6913 H   0  0  0  0  0  0
  -26.0156  -38.2849   24.1416 H   0  0  0  0  0  0
  -30.7565  -17.9617   20.5011 H   0  0  0  0  0  0
  -26.1861  -17.5953   22.3458 H   0  0  0  0  0  0
  -26.2390  -14.3435   24.0722 H   0  0  0  0  0  0
  -25.5421  -15.6430   22.9741 H   0  0  0  0  0  0
  -28.4476  -14.9667   23.5620 H   0  0  0  0  0  0
  -24.6727  -20.4845   20.8346 H   0  0  0  0  0  0
  -25.1342  -19.7434   22.3612 H   0  0  0  0  0  0
  -24.8540  -18.7413   20.9140 H   0  0  0  0  0  0
  -29.0764  -22.7125   18.8083 H   0  0  0  0  0  0
  -30.6080  -22.5509   19.6066 H   0  0  0  0  0  0
  -30.3487  -24.7672   20.0160 H   0  0  0  0  0  0
  -29.5465  -24.2241   21.4433 H   0  0  0  0  0  0
  -27.3607  -24.7458   20.4780 H   0  0  0  0  0  0
  -28.0449  -24.9652   18.8755 H   0  0  0  0  0  0
  -30.5895  -16.0576   23.5570 H   0  0  0  0  0  0
  -29.9396  -20.2178   19.4404 H   0  0  0  0  0  0
  1 25  1  0  0  0
  1 30  2  0  0  0
  1 79  1  0  0  0
  2  3  1  0  0  0
  2 25  1  0  0  0
  2 89  1  0  0  0
  2 90  1  0  0  0
  3  4  1  0  0  0
  3 91  1  0  0  0
  3 92  1  0  0  0
  4  5  1  0  0  0
  4 93  1  0  0  0
  4 94  1  0  0  0
  5  6  1  0  0  0
  5 26  1  0  0  0
  5 95  1  0  0  0
  6 25  1  0  0  0
  6 96  1  0  0  0
  6 97  1  0  0  0
  7  8  2  0  0  0
  7 26  1  0  0  0
  7 29  1  0  0  0
  8  9  1  0  0  0
  8 22  1  0  0  0
  9 10  1  0  0  0
  9 27  2  0  0  0
 10 11  2  0  0  0
 10 15  1  0  0  0
 11 12  1  0  0  0
 11 98  1  0  0  0
 12 13  2  0  0  0
 12 99  1  0  0  0
 13 14  1  0  0  0
 13 31  1  0  0  0
 14 15  2  0  0  0
 14100  1  0  0  0
 15101  1  0  0  0
 16 17  2  0  0  0
 16 21  1  0  0  0
 16 31  1  0  0  0
 17 18  1  0  0  0
 17102  1  0  0  0
 18 19  2  0  0  0
 18103  1  0  0  0
 19 20  1  0  0  0
 19 24  1  0  0  0
 20 21  2  0  0  0
 20104  1  0  0  0
 21 23  1  0  0  0
 22 28  1  0  0  0
 22 32  2  0  0  0
 26 27  1  0  0  0
 28105  1  0  0  0
 28106  1  0  0  0
 29107  1  0  0  0
 29108  1  0  0  0
 33 34  1  0  0  0
 33 66  1  0  0  0
 33 70  2  0  0  0
 34 36  1  0  0  0
 34 59  1  0  0  0
 34109  1  0  0  0
 35 44  2  0  0  0
 35 45  1  0  0  0
 35 68  1  0  0  0
 36 56  1  0  0  0
 36110  1  0  0  0
 37 39  1  0  0  0
 37 47  1  0  0  0
 37 66  1  0  0  0
 37111  1  0  0  0
 38 43  2  0  0  0
 38 46  1  0  0  0
 38 47  1  0  0  0
 39 64  1  0  0  0
 39 67  2  0  0  0
 40 52  1  0  0  0
 40 53  2  0  0  0
 40 58  1  0  0  0
 41112  1  0  0  0
 41113  1  0  0  0
 41114  1  0  0  0
 41 48  1  0  0  0
 42 43  1  0  0  0
 42 66  1  0  0  0
 42115  1  0  0  0
 42116  1  0  0  0
 43 44  1  0  0  0
 44117  1  0  0  0
 45 46  2  0  0  0
 45118  1  0  0  0
 46119  1  0  0  0
 47120  1  0  0  0
 47121  1  0  0  0
 48 56  1  0  0  0
 48 65  1  0  0  0
 48122  1  0  0  0
 49 50  1  0  0  0
 49 53  1  0  0  0
 49 64  1  0  0  0
 49123  1  0  0  0
 50 51  1  0  0  0
 50124  1  0  0  0
 50125  1  0  0  0
 51 52  1  0  0  0
 51126  1  0  0  0
 51127  1  0  0  0
 52128  1  0  0  0
 52129  1  0  0  0
 53 54  1  0  0  0
 54 55  2  0  0  0
 54130  1  0  0  0
 55 57  1  0  0  0
 55131  1  0  0  0
 56 69  2  0  0  0
 57 58  2  0  0  0
 57132  1  0  0  0
 58133  1  0  0  0
 59 60  1  0  0  0
 59 61  1  0  0  0
 59 62  1  0  0  0
 60134  1  0  0  0
 60135  1  0  0  0
 60136  1  0  0  0
 61137  1  0  0  0
 61138  1  0  0  0
 61139  1  0  0  0
 62140  1  0  0  0
 62141  1  0  0  0
 62142  1  0  0  0
 63 65  1  0  0  0
 63143  1  0  0  0
 63144  1  0  0  0
 63145  1  0  0  0
 64146  1  0  0  0
 65147  1  0  0  0
 68 84  1  0  0  0
 71 73  2  0  0  0
 71 75  1  0  0  0
 71148  1  0  0  0
 72 74  2  0  0  0
 72 76  1  0  0  0
 72149  1  0  0  0
 73 74  1  0  0  0
 73 79  1  0  0  0
 74 78  1  0  0  0
 75 76  2  0  0  0
 75 86  1  0  0  0
 76 88  1  0  0  0
 77 78  2  0  0  0
 77150  1  0  0  0
 77151  1  0  0  0
 78152  1  0  0  0
 79 85  2  0  0  0
 80 82  1  0  0  0
 80 86  1  0  0  0
 80 87  2  0  0  0
 81 88  1  0  0  0
 81153  1  0  0  0
 81154  1  0  0  0
 81155  1  0  0  0
 82 83  1  0  0  0
 82156  1  0  0  0
 82157  1  0  0  0
 83 84  1  0  0  0
 83158  1  0  0  0
 83159  1  0  0  0
 84160  1  0  0  0
 84161  1  0  0  0
 85162  1  0  0  0
 86163  1  0  0  0
M  ISO  4   1 100  68 101  79 100  84 101
M  END
> <chiral flag>
0

> <version>
0

> <s_m_source_file>
/data/baiqing/PycharmProjects/Reinvent-master-3.2/result/LINK_invent/BTK/process_docking_weight1_custom_product_contain_oxygen_bond_distance_aromatic_linkinvent_7_9_3/rearranged_h_0112.sdf

> <i_m_source_file_index>
83

> <r_mmod_Potential_Energy-OPLS-2005>
135.102447509766

> <r_mmod_Stretch_Energy-OPLS-2005>
74.6823577880859

> <r_mmod_Bend_Energy-OPLS-2005>
145.168441772461

> <r_mmod_Torsional_Energy-OPLS-2005>
264.131622314453

> <r_mmod_Improper_Torsional_Energy-OPLS-2005>
5.09795522689819

> <r_mmod_Van_der_Waal_Energy-OPLS-2005>
156.264633178711

> <r_mmod_Electrostatic_Energy-OPLS-2005>
-305.421295166016

> <r_mmod_Solvation_Energy-OPLS-2005>
-231.130737304688

> <b_mmod_Minimization_Converged-OPLS-2005>
0

> <r_mmod_RMS_Derivative-OPLS-2005>
2.59630513191223

$$$$
84
                    3D
 Structure written by MMmdl.
158166  0  0  1  0            999 V2000
  -30.4536  -15.2210   20.3648 C   0  0  0  0  0  0
  -30.4377  -12.7654   19.5377 C   0  0  0  0  0  0
  -29.5388  -12.5786   18.2890 C   0  0  0  0  0  0
  -28.0810  -12.3068   18.7038 C   0  0  0  0  0  0
  -27.6119  -13.2763   19.8171 C   0  0  2  0  0  0
  -28.6404  -13.4322   20.9546 C   0  0  0  0  0  0
  -25.2400  -13.8263   20.5719 C   0  0  0  0  0  0
  -24.1757  -13.0444   20.9244 C   0  0  0  0  0  0
  -24.6410  -11.6944   20.8740 C   0  0  0  0  0  0
  -23.9111  -10.4292   21.0389 C   0  0  0  0  0  0
  -24.3659   -9.4208   21.9170 C   0  0  0  0  0  0
  -23.6323   -8.2248   22.0741 C   0  0  0  0  0  0
  -22.4296   -8.0294   21.3538 C   0  0  0  0  0  0
  -21.9935   -9.0272   20.4641 C   0  0  0  0  0  0
  -22.7277  -10.2140   20.3047 C   0  0  0  0  0  0
  -21.6860   -6.0749   22.5281 C   0  0  0  0  0  0
  -21.4012   -6.5646   23.8219 C   0  0  0  0  0  0
  -21.3663   -5.6788   24.9175 C   0  0  0  0  0  0
  -21.6053   -4.3049   24.7220 C   0  0  0  0  0  0
  -21.8818   -3.8154   23.4336 C   0  0  0  0  0  0
  -21.9187   -4.6975   22.3399 C   0  0  0  0  0  0
  -22.7771  -13.5198   21.1893 C   0  0  0  0  0  0
  -22.1655   -4.2170   21.0973 F   0  0  0  0  0  0
  -21.5636   -3.4530   25.7732 F   0  0  0  0  0  0
  -29.8932  -13.9129   20.3518 N   0  0  0  0  0  0
  -26.2812  -12.9534   20.3149 N   0  0  0  0  0  0
  -25.9343  -11.6635   20.5676 N   0  0  0  0  0  0
  -22.0430  -12.8188   22.0462 N   0  0  0  0  0  0
  -25.4063  -15.2002   20.4198 N   0  0  0  0  0  0
  -31.6753  -15.2022   20.1556 O   0  0  0  0  0  0
  -21.6651   -6.8896   21.4243 O   0  0  0  0  0  0
  -22.3433  -14.5490   20.6724 O   0  0  0  0  0  0
  -24.6632  -31.8265   23.1738 C   0  0  0  0  0  0
  -25.9328  -32.4601   23.8200 C   0  0  1  0  0  0
  -27.2201  -26.9429   20.1867 C   0  0  0  0  0  0
  -25.6015  -33.8421   24.2112 N   0  0  0  0  0  0
  -23.4766  -30.4390   21.5234 C   0  0  2  0  0  0
  -24.9314  -28.8331   20.1121 C   0  0  0  0  0  0
  -22.7665  -29.4458   22.4800 C   0  0  0  0  0  0
  -18.0320  -28.1415   22.8464 C   0  0  0  0  0  0
  -24.1482  -36.7184   23.2644 C   0  0  0  0  0  0
  -26.0465  -30.6359   21.4047 C   0  0  0  0  0  0
  -26.1160  -29.2300   20.7463 C   0  0  0  0  0  0
  -27.2552  -28.3059   20.7595 C   0  0  0  0  0  0
  -26.0075  -26.7032   19.4976 C   0  0  0  0  0  0
  -24.9035  -27.5902   19.4646 C   0  0  0  0  0  0
  -23.7157  -29.7578   20.1486 C   0  0  0  0  0  0
  -25.4128  -36.2968   24.0304 C   0  0  1  0  0  0
  -20.5953  -28.3756   23.1193 C   0  0  2  0  0  0
  -20.6800  -26.9432   22.5423 C   0  0  0  0  0  0
  -19.5781  -26.6374   21.5227 C   0  0  0  0  0  0
  -18.1945  -26.7956   22.1603 C   0  0  0  0  0  0
  -19.1582  -28.8910   23.2811 C   0  0  0  0  0  0
  -18.9488  -30.1494   23.8848 C   0  0  0  0  0  0
  -17.6485  -30.6606   24.0555 C   0  0  0  0  0  0
  -25.9104  -34.9360   23.5019 C   0  0  0  0  0  0
  -16.5371  -29.9086   23.6356 C   0  0  0  0  0  0
  -16.7306  -28.6506   23.0372 C   0  0  0  0  0  0
  -26.4582  -31.6549   25.0722 C   0  0  0  0  0  0
  -25.3718  -31.3820   26.1379 C   0  0  0  0  0  0
  -27.0468  -30.2909   24.6465 C   0  0  0  0  0  0
  -27.6092  -32.4353   25.7505 C   0  0  0  0  0  0
  -27.5574  -37.1729   24.8453 C   0  0  0  0  0  0
  -21.4343  -29.3041   22.3544 N   0  0  0  0  0  0
  -26.4261  -37.3714   23.9431 N   0  0  0  0  0  0
  -24.7502  -30.9936   22.0875 N   0  0  0  0  0  0
  -23.4211  -28.8038   23.3050 O   0  0  0  0  0  0
  -28.2011  -25.8209   20.2749 O   0  0  0  0  0  0
  -26.5687  -34.8898   22.4598 O   0  0  0  0  0  0
  -23.5701  -32.1238   23.6829 O   0  0  0  0  0  0
  -29.6764  -22.1761   20.7267 C   0  0  0  0  0  0
  -29.4227  -19.5658   20.4211 C   0  0  0  0  0  0
  -30.1415  -20.7022   20.8121 C   0  0  0  0  0  0
  -28.4729  -22.6381   20.2376 C   0  0  0  0  0  0
  -28.1108  -20.0362   19.8304 C   0  0  0  0  0  0
  -30.0149  -18.0195   20.4272 C   0  0  0  0  0  0
  -29.6125  -16.6073   20.4288 C   0  0  0  0  0  0
  -31.5302  -20.4808   21.3866 C   0  0  0  0  0  0
  -25.1711  -20.9191   19.8635 C   0  0  0  0  0  0
  -26.3618  -21.6719   17.7003 C   0  0  0  0  0  0
  -27.7847  -24.2541   20.0596 C   0  0  0  0  0  0
  -26.3436  -21.7121   19.2393 C   0  0  0  0  0  0
  -27.6983  -21.4304   19.8132 N   0  0  0  0  0  0
  -27.3942  -19.1605   19.3327 O   0  0  0  0  0  0
  -31.4659  -12.9430   19.2202 H   0  0  0  0  0  0
  -30.4735  -11.8493   20.1307 H   0  0  0  0  0  0
  -29.9109  -11.7653   17.6657 H   0  0  0  0  0  0
  -29.5825  -13.4812   17.6767 H   0  0  0  0  0  0
  -28.0247  -11.2769   19.0601 H   0  0  0  0  0  0
  -27.4183  -12.3643   17.8392 H   0  0  0  0  0  0
  -27.5331  -14.2493   19.3309 H   0  0  0  0  0  0
  -28.7818  -12.4937   21.4923 H   0  0  0  0  0  0
  -28.2852  -14.1584   21.6874 H   0  0  0  0  0  0
  -25.2802   -9.5679   22.4745 H   0  0  0  0  0  0
  -24.0030   -7.4636   22.7451 H   0  0  0  0  0  0
  -21.0861   -8.8800   19.8959 H   0  0  0  0  0  0
  -22.3735  -10.9683   19.6163 H   0  0  0  0  0  0
  -21.2003   -7.6156   23.9736 H   0  0  0  0  0  0
  -21.1486   -6.0511   25.9081 H   0  0  0  0  0  0
  -22.0594   -2.7622   23.2831 H   0  0  0  0  0  0
  -22.4052  -11.9876   22.4888 H   0  0  0  0  0  0
  -21.1050  -13.1211   22.2665 H   0  0  0  0  0  0
  -24.6431  -15.8558   20.5506 H   0  0  0  0  0  0
  -26.2583  -15.6430   20.0997 H   0  0  0  0  0  0
  -26.7398  -32.5140   23.0913 H   0  0  0  0  0  0
  -25.0195  -33.9528   25.0280 H   0  0  0  0  0  0
  -22.7883  -31.2702   21.3555 H   0  0  0  0  0  0
  -23.3795  -35.9458   23.3236 H   0  0  0  0  0  0
  -24.3573  -36.8896   22.2071 H   0  0  0  0  0  0
  -23.7170  -37.6322   23.6747 H   0  0  0  0  0  0
  -26.2306  -31.3792   20.6282 H   0  0  0  0  0  0
  -26.9051  -30.6898   22.0619 H   0  0  0  0  0  0
  -28.1487  -28.6094   21.2861 H   0  0  0  0  0  0
  -25.8635  -25.7579   18.9991 H   0  0  0  0  0  0
  -24.0074  -27.2807   18.9443 H   0  0  0  0  0  0
  -23.8663  -30.5292   19.3929 H   0  0  0  0  0  0
  -22.8266  -29.2108   19.8306 H   0  0  0  0  0  0
  -25.1316  -36.1755   25.0792 H   0  0  0  0  0  0
  -21.0026  -28.3361   24.1327 H   0  0  0  0  0  0
  -20.5654  -26.2378   23.3669 H   0  0  0  0  0  0
  -21.6662  -26.7393   22.1238 H   0  0  0  0  0  0
  -19.6928  -25.6263   21.1299 H   0  0  0  0  0  0
  -19.6740  -27.3152   20.6731 H   0  0  0  0  0  0
  -17.4234  -26.6740   21.3978 H   0  0  0  0  0  0
  -18.0287  -26.0098   22.8985 H   0  0  0  0  0  0
  -19.7963  -30.7328   24.2185 H   0  0  0  0  0  0
  -17.5035  -31.6286   24.5153 H   0  0  0  0  0  0
  -15.5369  -30.2966   23.7726 H   0  0  0  0  0  0
  -15.8698  -28.0808   22.7123 H   0  0  0  0  0  0
  -24.5976  -30.7054   25.7739 H   0  0  0  0  0  0
  -24.8810  -32.3015   26.4584 H   0  0  0  0  0  0
  -25.7970  -30.9193   27.0292 H   0  0  0  0  0  0
  -26.3146  -29.6597   24.1412 H   0  0  0  0  0  0
  -27.3925  -29.7265   25.5137 H   0  0  0  0  0  0
  -27.9123  -30.4083   23.9942 H   0  0  0  0  0  0
  -27.2687  -33.3709   26.1957 H   0  0  0  0  0  0
  -28.3961  -32.6818   25.0366 H   0  0  0  0  0  0
  -28.0699  -31.8558   26.5510 H   0  0  0  0  0  0
  -28.2535  -38.0076   24.7570 H   0  0  0  0  0  0
  -28.1122  -36.2617   24.6175 H   0  0  0  0  0  0
  -27.2320  -37.1240   25.8856 H   0  0  0  0  0  0
  -20.9599  -29.8708   21.6655 H   0  0  0  0  0  0
  -26.0103  -38.2751   24.1520 H   0  0  0  0  0  0
  -30.3643  -22.9315   21.0838 H   0  0  0  0  0  0
  -31.0936  -18.0459   20.3961 H   0  0  0  0  0  0
  -28.5446  -16.4562   20.4600 H   0  0  0  0  0  0
  -31.9403  -21.3965   21.8116 H   0  0  0  0  0  0
  -32.2156  -20.1364   20.6116 H   0  0  0  0  0  0
  -31.5041  -19.7351   22.1817 H   0  0  0  0  0  0
  -24.2225  -21.4188   19.6604 H   0  0  0  0  0  0
  -25.2699  -20.8433   20.9469 H   0  0  0  0  0  0
  -25.0736  -19.9121   19.4602 H   0  0  0  0  0  0
  -25.3960  -21.9655   17.2891 H   0  0  0  0  0  0
  -26.5931  -20.6786   17.3163 H   0  0  0  0  0  0
  -27.1077  -22.3603   17.3002 H   0  0  0  0  0  0
  -26.8819  -24.2045   20.6678 H   0  0  0  0  0  0
  -27.4730  -24.2543   19.0156 H   0  0  0  0  0  0
  -26.0237  -22.7135   19.4826 H   0  0  0  0  0  0
  1 25  1  0  0  0
  1 30  2  0  0  0
  1 77  1  0  0  0
  2  3  1  0  0  0
  2 25  1  0  0  0
  2 85  1  0  0  0
  2 86  1  0  0  0
  3  4  1  0  0  0
  3 87  1  0  0  0
  3 88  1  0  0  0
  4  5  1  0  0  0
  4 89  1  0  0  0
  4 90  1  0  0  0
  5  6  1  0  0  0
  5 26  1  0  0  0
  5 91  1  0  0  0
  6 25  1  0  0  0
  6 92  1  0  0  0
  6 93  1  0  0  0
  7  8  2  0  0  0
  7 26  1  0  0  0
  7 29  1  0  0  0
  8  9  1  0  0  0
  8 22  1  0  0  0
  9 10  1  0  0  0
  9 27  2  0  0  0
 10 11  2  0  0  0
 10 15  1  0  0  0
 11 12  1  0  0  0
 11 94  1  0  0  0
 12 13  2  0  0  0
 12 95  1  0  0  0
 13 14  1  0  0  0
 13 31  1  0  0  0
 14 15  2  0  0  0
 14 96  1  0  0  0
 15 97  1  0  0  0
 16 17  2  0  0  0
 16 21  1  0  0  0
 16 31  1  0  0  0
 17 18  1  0  0  0
 17 98  1  0  0  0
 18 19  2  0  0  0
 18 99  1  0  0  0
 19 20  1  0  0  0
 19 24  1  0  0  0
 20 21  2  0  0  0
 20100  1  0  0  0
 21 23  1  0  0  0
 22 28  1  0  0  0
 22 32  2  0  0  0
 26 27  1  0  0  0
 28101  1  0  0  0
 28102  1  0  0  0
 29103  1  0  0  0
 29104  1  0  0  0
 33 34  1  0  0  0
 33 66  1  0  0  0
 33 70  2  0  0  0
 34 36  1  0  0  0
 34 59  1  0  0  0
 34105  1  0  0  0
 35 44  2  0  0  0
 35 45  1  0  0  0
 35 68  1  0  0  0
 36 56  1  0  0  0
 36106  1  0  0  0
 37 39  1  0  0  0
 37 47  1  0  0  0
 37 66  1  0  0  0
 37107  1  0  0  0
 38 43  2  0  0  0
 38 46  1  0  0  0
 38 47  1  0  0  0
 39 64  1  0  0  0
 39 67  2  0  0  0
 40 52  1  0  0  0
 40 53  2  0  0  0
 40 58  1  0  0  0
 41108  1  0  0  0
 41109  1  0  0  0
 41110  1  0  0  0
 41 48  1  0  0  0
 42 43  1  0  0  0
 42 66  1  0  0  0
 42111  1  0  0  0
 42112  1  0  0  0
 43 44  1  0  0  0
 44113  1  0  0  0
 45 46  2  0  0  0
 45114  1  0  0  0
 46115  1  0  0  0
 47116  1  0  0  0
 47117  1  0  0  0
 48 56  1  0  0  0
 48 65  1  0  0  0
 48118  1  0  0  0
 49 50  1  0  0  0
 49 53  1  0  0  0
 49 64  1  0  0  0
 49119  1  0  0  0
 50 51  1  0  0  0
 50120  1  0  0  0
 50121  1  0  0  0
 51 52  1  0  0  0
 51122  1  0  0  0
 51123  1  0  0  0
 52124  1  0  0  0
 52125  1  0  0  0
 53 54  1  0  0  0
 54 55  2  0  0  0
 54126  1  0  0  0
 55 57  1  0  0  0
 55127  1  0  0  0
 56 69  2  0  0  0
 57 58  2  0  0  0
 57128  1  0  0  0
 58129  1  0  0  0
 59 60  1  0  0  0
 59 61  1  0  0  0
 59 62  1  0  0  0
 60130  1  0  0  0
 60131  1  0  0  0
 60132  1  0  0  0
 61133  1  0  0  0
 61134  1  0  0  0
 61135  1  0  0  0
 62136  1  0  0  0
 62137  1  0  0  0
 62138  1  0  0  0
 63 65  1  0  0  0
 63139  1  0  0  0
 63140  1  0  0  0
 63141  1  0  0  0
 64142  1  0  0  0
 65143  1  0  0  0
 68 81  1  0  0  0
 71 73  1  0  0  0
 71 74  2  0  0  0
 71144  1  0  0  0
 72 73  2  0  0  0
 72 75  1  0  0  0
 72 76  1  0  0  0
 73 78  1  0  0  0
 74 81  1  0  0  0
 74 83  1  0  0  0
 75 83  1  0  0  0
 75 84  2  0  0  0
 76 77  2  0  0  0
 76145  1  0  0  0
 77146  1  0  0  0
 78147  1  0  0  0
 78148  1  0  0  0
 78149  1  0  0  0
 79150  1  0  0  0
 79151  1  0  0  0
 79152  1  0  0  0
 79 82  1  0  0  0
 80 82  1  0  0  0
 80153  1  0  0  0
 80154  1  0  0  0
 80155  1  0  0  0
 81156  1  0  0  0
 81157  1  0  0  0
 82 83  1  0  0  0
 82158  1  0  0  0
M  ISO  4   1 100  68 101  77 100  81 101
M  END
> <chiral flag>
0

> <version>
0

> <s_m_source_file>
/data/baiqing/PycharmProjects/Reinvent-master-3.2/result/LINK_invent/BTK/process_docking_weight1_custom_product_contain_oxygen_bond_distance_aromatic_linkinvent_7_9_3/rearranged_h_0112.sdf

> <i_m_source_file_index>
84

> <r_mmod_Potential_Energy-OPLS-2005>
1295.57507324219

> <r_mmod_Stretch_Energy-OPLS-2005>
519.260498046875

> <r_mmod_Bend_Energy-OPLS-2005>
437.602508544922

> <r_mmod_Torsional_Energy-OPLS-2005>
190.903961181641

> <r_mmod_Improper_Torsional_Energy-OPLS-2005>
4.09618663787842

> <r_mmod_Van_der_Waal_Energy-OPLS-2005>
154.043319702148

> <r_mmod_Electrostatic_Energy-OPLS-2005>
-245.292465209961

> <r_mmod_Solvation_Energy-OPLS-2005>
-189.669311523438

> <b_mmod_Minimization_Converged-OPLS-2005>
0

> <r_mmod_RMS_Derivative-OPLS-2005>
2.04317283630371

$$$$
85
                    3D
 Structure written by MMmdl.
154162  0  0  1  0            999 V2000
  -30.5937  -14.8127   20.4361 C   0  0  0  0  0  0
  -30.4251  -12.5015   19.4712 C   0  0  0  0  0  0
  -29.5057  -12.5183   18.2300 C   0  0  0  0  0  0
  -28.0340  -12.3220   18.6436 C   0  0  0  0  0  0
  -27.6231  -13.2419   19.8242 C   0  0  2  0  0  0
  -28.6648  -13.2351   20.9623 C   0  0  0  0  0  0
  -25.2419  -13.8186   20.5708 C   0  0  0  0  0  0
  -24.1734  -13.0420   20.9212 C   0  0  0  0  0  0
  -24.6353  -11.6915   20.8705 C   0  0  0  0  0  0
  -23.9031  -10.4293   21.0366 C   0  0  0  0  0  0
  -24.3593   -9.4215   21.9150 C   0  0  0  0  0  0
  -23.6287   -8.2241   22.0738 C   0  0  0  0  0  0
  -22.4270   -8.0265   21.3532 C   0  0  0  0  0  0
  -21.9883   -9.0220   20.4621 C   0  0  0  0  0  0
  -22.7192  -10.2113   20.3022 C   0  0  0  0  0  0
  -21.6854   -6.0726   22.5284 C   0  0  0  0  0  0
  -21.4011   -6.5636   23.8211 C   0  0  0  0  0  0
  -21.3664   -5.6792   24.9180 C   0  0  0  0  0  0
  -21.6046   -4.3049   24.7231 C   0  0  0  0  0  0
  -21.8818   -3.8142   23.4350 C   0  0  0  0  0  0
  -21.9198   -4.6957   22.3413 C   0  0  0  0  0  0
  -22.7756  -13.5181   21.1904 C   0  0  0  0  0  0
  -22.1673   -4.2153   21.0986 F   0  0  0  0  0  0
  -21.5627   -3.4532   25.7736 F   0  0  0  0  0  0
  -29.9637  -13.5851   20.3754 N   0  0  0  0  0  0
  -26.2824  -12.9438   20.3128 N   0  0  0  0  0  0
  -25.9266  -11.6570   20.5627 N   0  0  0  0  0  0
  -22.0434  -12.8174   22.0479 N   0  0  0  0  0  0
  -25.4004  -15.1916   20.4268 N   0  0  0  0  0  0
  -31.8042  -14.8540   20.1916 O   0  0  0  0  0  0
  -21.6634   -6.8862   21.4244 O   0  0  0  0  0  0
  -22.3411  -14.5485   20.6755 O   0  0  0  0  0  0
  -24.6359  -31.8507   23.1939 C   0  0  0  0  0  0
  -25.9143  -32.4746   23.8329 C   0  0  1  0  0  0
  -27.2229  -27.2243   20.1632 C   0  0  0  0  0  0
  -25.5926  -33.8550   24.2255 N   0  0  0  0  0  0
  -23.4385  -30.4680   21.5364 C   0  0  2  0  0  0
  -24.8884  -28.8996   20.1199 C   0  0  0  0  0  0
  -22.7521  -29.4576   22.4893 C   0  0  0  0  0  0
  -18.0311  -28.1369   22.8483 C   0  0  0  0  0  0
  -24.1482  -36.7277   23.2647 C   0  0  0  0  0  0
  -25.9860  -30.7525   21.3777 C   0  0  0  0  0  0
  -26.0592  -29.3679   20.7314 C   0  0  0  0  0  0
  -27.2317  -28.5427   20.7381 C   0  0  0  0  0  0
  -26.0314  -26.8202   19.5327 C   0  0  0  0  0  0
  -24.8796  -27.6338   19.5098 C   0  0  0  0  0  0
  -23.6616  -29.7922   20.1574 C   0  0  0  0  0  0
  -25.4107  -36.3072   24.0341 C   0  0  1  0  0  0
  -20.5909  -28.3725   23.1247 C   0  0  2  0  0  0
  -20.6795  -26.9416   22.5413 C   0  0  0  0  0  0
  -19.5777  -26.6368   21.5223 C   0  0  0  0  0  0
  -18.1953  -26.7919   22.1613 C   0  0  0  0  0  0
  -19.1556  -28.8856   23.2866 C   0  0  0  0  0  0
  -18.9457  -30.1452   23.8893 C   0  0  0  0  0  0
  -17.6451  -30.6575   24.0564 C   0  0  0  0  0  0
  -25.9049  -34.9448   23.5108 C   0  0  0  0  0  0
  -16.5362  -29.9056   23.6325 C   0  0  0  0  0  0
  -16.7300  -28.6482   23.0346 C   0  0  0  0  0  0
  -26.4506  -31.6586   25.0732 C   0  0  0  0  0  0
  -25.3724  -31.3731   26.1447 C   0  0  0  0  0  0
  -27.0358  -30.3004   24.6225 C   0  0  0  0  0  0
  -27.6061  -32.4336   25.7502 C   0  0  0  0  0  0
  -27.5575  -37.1796   24.8470 C   0  0  0  0  0  0
  -21.4223  -29.3066   22.3624 N   0  0  0  0  0  0
  -26.4287  -37.3769   23.9418 N   0  0  0  0  0  0
  -24.7065  -31.0439   22.0925 N   0  0  0  0  0  0
  -23.4183  -28.8104   23.3017 O   0  0  0  0  0  0
  -28.3106  -26.3187   20.1493 O   0  0  0  0  0  0
  -26.5626  -34.8931   22.4683 O   0  0  0  0  0  0
  -23.5485  -32.1330   23.7201 O   0  0  0  0  0  0
  -29.3620  -19.8895   20.5822 C   0  0  0  0  0  0
  -26.8969  -19.2782   19.5167 C   0  0  0  0  0  0
  -29.1037  -18.4791   20.2593 C   0  0  0  0  0  0
  -27.1576  -20.6184   19.8818 C   0  0  0  0  0  0
  -28.4358  -21.0087   20.3777 C   0  0  0  0  0  0
  -27.8384  -18.2359   19.6505 C   0  0  0  0  0  0
  -28.3398  -23.5396   20.2148 C   0  0  0  0  0  0
  -30.1647  -17.3269   20.4660 C   0  0  0  0  0  0
  -25.9884  -21.5899   19.7751 C   0  0  0  0  0  0
  -28.2149  -25.0067   20.9000 C   0  0  0  0  0  0
  -28.6891  -22.3972   20.8082 N   0  0  0  0  0  0
  -27.4567  -16.9925   19.1375 N   0  0  0  0  0  0
  -29.8130  -15.9722   20.5256 N   0  0  0  0  0  0
  -31.3418  -17.6911   20.5782 O   0  0  0  0  0  0
  -31.4665  -12.6240   19.1659 H   0  0  0  0  0  0
  -30.3727  -11.5369   19.9739 H   0  0  0  0  0  0
  -29.8026  -11.7412   17.5255 H   0  0  0  0  0  0
  -29.6148  -13.4687   17.7042 H   0  0  0  0  0  0
  -27.9071  -11.2748   18.9206 H   0  0  0  0  0  0
  -27.3749  -12.4850   17.7898 H   0  0  0  0  0  0
  -27.5908  -14.2482   19.4100 H   0  0  0  0  0  0
  -28.3809  -13.9505   21.7368 H   0  0  0  0  0  0
  -28.7066  -12.2587   21.4409 H   0  0  0  0  0  0
  -25.2746   -9.5701   22.4708 H   0  0  0  0  0  0
  -24.0013   -7.4620   22.7437 H   0  0  0  0  0  0
  -21.0829   -8.8691   19.8912 H   0  0  0  0  0  0
  -22.3617  -10.9632   19.6119 H   0  0  0  0  0  0
  -21.2003   -7.6144   23.9715 H   0  0  0  0  0  0
  -21.1492   -6.0525   25.9079 H   0  0  0  0  0  0
  -22.0593   -2.7611   23.2848 H   0  0  0  0  0  0
  -22.4069  -11.9826   22.4831 H   0  0  0  0  0  0
  -21.1023  -13.1154   22.2643 H   0  0  0  0  0  0
  -24.6204  -15.8223   20.5647 H   0  0  0  0  0  0
  -26.2329  -15.6730   20.0863 H   0  0  0  0  0  0
  -26.7216  -32.5371   23.1078 H   0  0  0  0  0  0
  -25.0083  -33.9681   25.0405 H   0  0  0  0  0  0
  -22.7384  -31.2918   21.3800 H   0  0  0  0  0  0
  -23.3755  -35.9597   23.3301 H   0  0  0  0  0  0
  -24.3570  -36.8893   22.2061 H   0  0  0  0  0  0
  -23.7225  -37.6477   23.6663 H   0  0  0  0  0  0
  -26.1228  -31.5012   20.5961 H   0  0  0  0  0  0
  -26.8642  -30.8120   22.0106 H   0  0  0  0  0  0
  -28.1308  -28.8941   21.2242 H   0  0  0  0  0  0
  -25.9856  -25.8448   19.0689 H   0  0  0  0  0  0
  -23.9837  -27.2647   19.0294 H   0  0  0  0  0  0
  -23.7975  -30.5619   19.3969 H   0  0  0  0  0  0
  -22.7810  -29.2256   19.8487 H   0  0  0  0  0  0
  -25.1287  -36.1929   25.0834 H   0  0  0  0  0  0
  -20.9998  -28.3307   24.1369 H   0  0  0  0  0  0
  -20.5707  -26.2320   23.3614 H   0  0  0  0  0  0
  -21.6668  -26.7431   22.1233 H   0  0  0  0  0  0
  -19.6958  -25.6280   21.1255 H   0  0  0  0  0  0
  -19.6714  -27.3180   20.6749 H   0  0  0  0  0  0
  -17.4217  -26.6667   21.4018 H   0  0  0  0  0  0
  -18.0341  -26.0068   22.9020 H   0  0  0  0  0  0
  -19.7905  -30.7293   24.2281 H   0  0  0  0  0  0
  -17.4984  -31.6262   24.5170 H   0  0  0  0  0  0
  -15.5368  -30.2959   23.7643 H   0  0  0  0  0  0
  -15.8714  -28.0809   22.7043 H   0  0  0  0  0  0
  -24.5910  -30.7068   25.7773 H   0  0  0  0  0  0
  -24.8905  -32.2891   26.4870 H   0  0  0  0  0  0
  -25.8043  -30.8916   27.0227 H   0  0  0  0  0  0
  -26.2949  -29.6746   24.1238 H   0  0  0  0  0  0
  -27.4019  -29.7276   25.4754 H   0  0  0  0  0  0
  -27.8832  -30.4280   23.9488 H   0  0  0  0  0  0
  -27.2670  -33.3645   26.2056 H   0  0  0  0  0  0
  -28.3875  -32.6874   25.0330 H   0  0  0  0  0  0
  -28.0715  -31.8472   26.5429 H   0  0  0  0  0  0
  -28.2603  -38.0084   24.7508 H   0  0  0  0  0  0
  -28.1066  -36.2620   24.6306 H   0  0  0  0  0  0
  -27.2295  -37.1449   25.8874 H   0  0  0  0  0  0
  -20.9434  -29.8770   21.6806 H   0  0  0  0  0  0
  -26.0169  -38.2850   24.1399 H   0  0  0  0  0  0
  -30.3231  -20.1165   21.0215 H   0  0  0  0  0  0
  -25.9185  -19.0398   19.1219 H   0  0  0  0  0  0
  -28.0153  -23.5394   19.1709 H   0  0  0  0  0  0
  -25.9153  -22.2041   20.6740 H   0  0  0  0  0  0
  -25.0366  -21.0656   19.6792 H   0  0  0  0  0  0
  -26.1022  -22.2368   18.9046 H   0  0  0  0  0  0
  -28.9922  -25.0553   21.6628 H   0  0  0  0  0  0
  -27.2838  -25.0084   21.4681 H   0  0  0  0  0  0
  -26.6114  -17.0180   18.5736 H   0  0  0  0  0  0
  -28.1798  -16.5192   18.6057 H   0  0  0  0  0  0
  -28.8133  -15.8346   20.5311 H   0  0  0  0  0  0
  1 25  1  0  0  0
  1 30  2  0  0  0
  1 83  1  0  0  0
  2  3  1  0  0  0
  2 25  1  0  0  0
  2 85  1  0  0  0
  2 86  1  0  0  0
  3  4  1  0  0  0
  3 87  1  0  0  0
  3 88  1  0  0  0
  4  5  1  0  0  0
  4 89  1  0  0  0
  4 90  1  0  0  0
  5  6  1  0  0  0
  5 26  1  0  0  0
  5 91  1  0  0  0
  6 25  1  0  0  0
  6 92  1  0  0  0
  6 93  1  0  0  0
  7  8  2  0  0  0
  7 26  1  0  0  0
  7 29  1  0  0  0
  8  9  1  0  0  0
  8 22  1  0  0  0
  9 10  1  0  0  0
  9 27  2  0  0  0
 10 11  2  0  0  0
 10 15  1  0  0  0
 11 12  1  0  0  0
 11 94  1  0  0  0
 12 13  2  0  0  0
 12 95  1  0  0  0
 13 14  1  0  0  0
 13 31  1  0  0  0
 14 15  2  0  0  0
 14 96  1  0  0  0
 15 97  1  0  0  0
 16 17  2  0  0  0
 16 21  1  0  0  0
 16 31  1  0  0  0
 17 18  1  0  0  0
 17 98  1  0  0  0
 18 19  2  0  0  0
 18 99  1  0  0  0
 19 20  1  0  0  0
 19 24  1  0  0  0
 20 21  2  0  0  0
 20100  1  0  0  0
 21 23  1  0  0  0
 22 28  1  0  0  0
 22 32  2  0  0  0
 26 27  1  0  0  0
 28101  1  0  0  0
 28102  1  0  0  0
 29103  1  0  0  0
 29104  1  0  0  0
 33 34  1  0  0  0
 33 66  1  0  0  0
 33 70  2  0  0  0
 34 36  1  0  0  0
 34 59  1  0  0  0
 34105  1  0  0  0
 35 44  2  0  0  0
 35 45  1  0  0  0
 35 68  1  0  0  0
 36 56  1  0  0  0
 36106  1  0  0  0
 37 39  1  0  0  0
 37 47  1  0  0  0
 37 66  1  0  0  0
 37107  1  0  0  0
 38 43  2  0  0  0
 38 46  1  0  0  0
 38 47  1  0  0  0
 39 64  1  0  0  0
 39 67  2  0  0  0
 40 52  1  0  0  0
 40 53  2  0  0  0
 40 58  1  0  0  0
 41108  1  0  0  0
 41109  1  0  0  0
 41110  1  0  0  0
 41 48  1  0  0  0
 42 43  1  0  0  0
 42 66  1  0  0  0
 42111  1  0  0  0
 42112  1  0  0  0
 43 44  1  0  0  0
 44113  1  0  0  0
 45 46  2  0  0  0
 45114  1  0  0  0
 46115  1  0  0  0
 47116  1  0  0  0
 47117  1  0  0  0
 48 56  1  0  0  0
 48 65  1  0  0  0
 48118  1  0  0  0
 49 50  1  0  0  0
 49 53  1  0  0  0
 49 64  1  0  0  0
 49119  1  0  0  0
 50 51  1  0  0  0
 50120  1  0  0  0
 50121  1  0  0  0
 51 52  1  0  0  0
 51122  1  0  0  0
 51123  1  0  0  0
 52124  1  0  0  0
 52125  1  0  0  0
 53 54  1  0  0  0
 54 55  2  0  0  0
 54126  1  0  0  0
 55 57  1  0  0  0
 55127  1  0  0  0
 56 69  2  0  0  0
 57 58  2  0  0  0
 57128  1  0  0  0
 58129  1  0  0  0
 59 60  1  0  0  0
 59 61  1  0  0  0
 59 62  1  0  0  0
 60130  1  0  0  0
 60131  1  0  0  0
 60132  1  0  0  0
 61133  1  0  0  0
 61134  1  0  0  0
 61135  1  0  0  0
 62136  1  0  0  0
 62137  1  0  0  0
 62138  1  0  0  0
 63 65  1  0  0  0
 63139  1  0  0  0
 63140  1  0  0  0
 63141  1  0  0  0
 64142  1  0  0  0
 65143  1  0  0  0
 68 80  1  0  0  0
 71 73  2  0  0  0
 71 75  1  0  0  0
 71144  1  0  0  0
 72 74  1  0  0  0
 72 76  2  0  0  0
 72145  1  0  0  0
 73 76  1  0  0  0
 73 78  1  0  0  0
 74 75  2  0  0  0
 74 79  1  0  0  0
 75 81  1  0  0  0
 76 82  1  0  0  0
 77 80  1  0  0  0
 77 81  2  0  0  0
 77146  1  0  0  0
 78 83  1  0  0  0
 78 84  2  0  0  0
 79147  1  0  0  0
 79148  1  0  0  0
 79149  1  0  0  0
 80150  1  0  0  0
 80151  1  0  0  0
 82152  1  0  0  0
 82153  1  0  0  0
 83154  1  0  0  0
M  ISO  4   1 100  68 101  80 101  83 100
M  END
> <chiral flag>
0

> <version>
0

> <s_m_source_file>
/data/baiqing/PycharmProjects/Reinvent-master-3.2/result/LINK_invent/BTK/process_docking_weight1_custom_product_contain_oxygen_bond_distance_aromatic_linkinvent_7_9_3/rearranged_h_0112.sdf

> <i_m_source_file_index>
85

> <r_mmod_Potential_Energy-OPLS-2005>
235.578506469727

> <r_mmod_Stretch_Energy-OPLS-2005>
153.111083984375

> <r_mmod_Bend_Energy-OPLS-2005>
185.061279296875

> <r_mmod_Torsional_Energy-OPLS-2005>
265.249328613281

> <r_mmod_Improper_Torsional_Energy-OPLS-2005>
12.8043069839478

> <r_mmod_Van_der_Waal_Energy-OPLS-2005>
148.704345703125

> <r_mmod_Electrostatic_Energy-OPLS-2005>
-419.684204101562

> <r_mmod_Solvation_Energy-OPLS-2005>
-225.265502929688

> <b_mmod_Minimization_Converged-OPLS-2005>
0

> <r_mmod_RMS_Derivative-OPLS-2005>
2.97120380401611

$$$$
86
                    3D
 Structure written by MMmdl.
146154  0  0  1  0            999 V2000
  -30.5912  -14.7844   20.4423 C   0  0  0  0  0  0
  -30.4375  -12.4732   19.4884 C   0  0  0  0  0  0
  -29.5175  -12.5131   18.2458 C   0  0  0  0  0  0
  -28.0415  -12.3323   18.6521 C   0  0  0  0  0  0
  -27.6413  -13.2341   19.8497 C   0  0  2  0  0  0
  -28.6835  -13.1702   20.9859 C   0  0  0  0  0  0
  -25.2514  -13.8201   20.5700 C   0  0  0  0  0  0
  -24.1803  -13.0442   20.9199 C   0  0  0  0  0  0
  -24.6396  -11.6920   20.8738 C   0  0  0  0  0  0
  -23.9074  -10.4295   21.0402 C   0  0  0  0  0  0
  -24.3623   -9.4210   21.9181 C   0  0  0  0  0  0
  -23.6296   -8.2247   22.0754 C   0  0  0  0  0  0
  -22.4277   -8.0284   21.3545 C   0  0  0  0  0  0
  -21.9914   -9.0257   20.4646 C   0  0  0  0  0  0
  -22.7245  -10.2135   20.3053 C   0  0  0  0  0  0
  -21.6854   -6.0736   22.5278 C   0  0  0  0  0  0
  -21.4016   -6.5640   23.8211 C   0  0  0  0  0  0
  -21.3660   -5.6793   24.9174 C   0  0  0  0  0  0
  -21.6044   -4.3056   24.7224 C   0  0  0  0  0  0
  -21.8819   -3.8147   23.4345 C   0  0  0  0  0  0
  -21.9193   -4.6964   22.3401 C   0  0  0  0  0  0
  -22.7824  -13.5222   21.1865 C   0  0  0  0  0  0
  -22.1661   -4.2149   21.0979 F   0  0  0  0  0  0
  -21.5629   -3.4539   25.7737 F   0  0  0  0  0  0
  -29.9861  -13.5401   20.4167 N   0  0  0  0  0  0
  -26.2936  -12.9409   20.3270 N   0  0  0  0  0  0
  -25.9327  -11.6548   20.5737 N   0  0  0  0  0  0
  -22.0475  -12.8209   22.0422 N   0  0  0  0  0  0
  -25.4212  -15.1928   20.4148 N   0  0  0  0  0  0
  -31.7816  -14.8589   20.1222 O   0  0  0  0  0  0
  -21.6642   -6.8880   21.4240 O   0  0  0  0  0  0
  -22.3504  -14.5527   20.6715 O   0  0  0  0  0  0
  -24.6338  -31.8531   23.1967 C   0  0  0  0  0  0
  -25.9152  -32.4744   23.8322 C   0  0  1  0  0  0
  -27.2173  -27.2390   20.1403 C   0  0  0  0  0  0
  -25.5937  -33.8547   24.2242 N   0  0  0  0  0  0
  -23.4328  -30.4750   21.5402 C   0  0  2  0  0  0
  -24.8822  -28.9197   20.1103 C   0  0  0  0  0  0
  -22.7520  -29.4591   22.4898 C   0  0  0  0  0  0
  -18.0295  -28.1390   22.8481 C   0  0  0  0  0  0
  -24.1490  -36.7277   23.2640 C   0  0  0  0  0  0
  -25.9810  -30.7596   21.3810 C   0  0  0  0  0  0
  -26.0553  -29.3800   20.7236 C   0  0  0  0  0  0
  -27.2291  -28.5535   20.7255 C   0  0  0  0  0  0
  -26.0276  -26.8597   19.4833 C   0  0  0  0  0  0
  -24.8748  -27.6683   19.4764 C   0  0  0  0  0  0
  -23.6535  -29.8088   20.1569 C   0  0  0  0  0  0
  -25.4119  -36.3062   24.0322 C   0  0  1  0  0  0
  -20.5901  -28.3705   23.1260 C   0  0  2  0  0  0
  -20.6782  -26.9419   22.5406 C   0  0  0  0  0  0
  -19.5756  -26.6383   21.5212 C   0  0  0  0  0  0
  -18.1937  -26.7931   22.1625 C   0  0  0  0  0  0
  -19.1549  -28.8865   23.2863 C   0  0  0  0  0  0
  -18.9470  -30.1464   23.8885 C   0  0  0  0  0  0
  -17.6468  -30.6589   24.0561 C   0  0  0  0  0  0
  -25.9061  -34.9433   23.5086 C   0  0  0  0  0  0
  -16.5359  -29.9085   23.6334 C   0  0  0  0  0  0
  -16.7281  -28.6503   23.0354 C   0  0  0  0  0  0
  -26.4508  -31.6579   25.0723 C   0  0  0  0  0  0
  -25.3719  -31.3741   26.1436 C   0  0  0  0  0  0
  -27.0361  -30.2990   24.6235 C   0  0  0  0  0  0
  -27.6056  -32.4325   25.7502 C   0  0  0  0  0  0
  -27.5577  -37.1795   24.8466 C   0  0  0  0  0  0
  -21.4223  -29.3045   22.3643 N   0  0  0  0  0  0
  -26.4291  -37.3764   23.9407 N   0  0  0  0  0  0
  -24.7017  -31.0477   22.0954 N   0  0  0  0  0  0
  -23.4206  -28.8130   23.3008 O   0  0  0  0  0  0
  -28.2763  -26.2951   20.1804 O   0  0  0  0  0  0
  -26.5638  -34.8914   22.4658 O   0  0  0  0  0  0
  -23.5480  -32.1363   23.7244 O   0  0  0  0  0  0
  -27.5686  -19.8632   21.0327 C   0  0  0  0  0  0
  -28.5305  -20.7842   20.6870 C   0  0  0  0  0  0
  -29.3534  -18.6561   20.5805 C   0  0  0  0  0  0
  -28.1966  -22.3114   20.7286 C   0  0  0  0  0  0
  -30.1407  -17.3433   20.4313 C   0  0  0  0  0  0
  -29.7436  -16.0261   20.6647 C   0  0  0  0  0  0
  -28.7162  -23.5670   20.4259 C   0  0  0  0  0  0
  -27.9468  -24.9381   20.7629 C   0  0  0  0  0  0
  -29.6834  -19.9869   20.3812 N   0  0  0  0  0  0
  -28.0542  -18.5688   20.9780 O   0  0  0  0  0  0
  -31.4785  -12.5975   19.1864 H   0  0  0  0  0  0
  -30.3867  -11.4981   19.9753 H   0  0  0  0  0  0
  -29.8074  -11.7375   17.5360 H   0  0  0  0  0  0
  -29.6417  -13.4651   17.7274 H   0  0  0  0  0  0
  -27.9004  -11.2838   18.9171 H   0  0  0  0  0  0
  -27.3871  -12.5207   17.8002 H   0  0  0  0  0  0
  -27.6340  -14.2549   19.4676 H   0  0  0  0  0  0
  -28.7257  -12.1675   21.4137 H   0  0  0  0  0  0
  -28.4089  -13.8317   21.8081 H   0  0  0  0  0  0
  -25.2767   -9.5686   22.4757 H   0  0  0  0  0  0
  -24.0003   -7.4639   22.7475 H   0  0  0  0  0  0
  -21.0845   -8.8777   19.8952 H   0  0  0  0  0  0
  -22.3703  -10.9674   19.6163 H   0  0  0  0  0  0
  -21.2009   -7.6148   23.9715 H   0  0  0  0  0  0
  -21.1482   -6.0523   25.9076 H   0  0  0  0  0  0
  -22.0598   -2.7609   23.2845 H   0  0  0  0  0  0
  -22.4095  -11.9870   22.4806 H   0  0  0  0  0  0
  -21.1093  -13.1230   22.2635 H   0  0  0  0  0  0
  -24.6566  -15.8482   20.5354 H   0  0  0  0  0  0
  -26.2753  -15.6367   20.1023 H   0  0  0  0  0  0
  -26.7219  -32.5390   23.1064 H   0  0  0  0  0  0
  -25.0077  -33.9681   25.0383 H   0  0  0  0  0  0
  -22.7306  -31.2980   21.3920 H   0  0  0  0  0  0
  -23.3753  -35.9609   23.3304 H   0  0  0  0  0  0
  -24.3577  -36.8903   22.2054 H   0  0  0  0  0  0
  -23.7246  -37.6477   23.6668 H   0  0  0  0  0  0
  -26.1231  -31.5192   20.6111 H   0  0  0  0  0  0
  -26.8568  -30.8091   22.0164 H   0  0  0  0  0  0
  -28.1253  -28.8984   21.2220 H   0  0  0  0  0  0
  -25.9747  -25.9022   18.9847 H   0  0  0  0  0  0
  -23.9803  -27.3130   18.9834 H   0  0  0  0  0  0
  -23.7802  -30.5850   19.4012 H   0  0  0  0  0  0
  -22.7718  -29.2432   19.8505 H   0  0  0  0  0  0
  -25.1302  -36.1905   25.0814 H   0  0  0  0  0  0
  -20.9993  -28.3286   24.1381 H   0  0  0  0  0  0
  -20.5683  -26.2316   23.3615 H   0  0  0  0  0  0
  -21.6650  -26.7440   22.1200 H   0  0  0  0  0  0
  -19.6921  -25.6292   21.1248 H   0  0  0  0  0  0
  -19.6694  -27.3189   20.6738 H   0  0  0  0  0  0
  -17.4207  -26.6675   21.4027 H   0  0  0  0  0  0
  -18.0337  -26.0077   22.9025 H   0  0  0  0  0  0
  -19.7947  -30.7281   24.2251 H   0  0  0  0  0  0
  -17.5024  -31.6270   24.5163 H   0  0  0  0  0  0
  -15.5359  -30.2983   23.7666 H   0  0  0  0  0  0
  -15.8682  -28.0818   22.7077 H   0  0  0  0  0  0
  -24.5903  -30.7081   25.7760 H   0  0  0  0  0  0
  -24.8899  -32.2913   26.4830 H   0  0  0  0  0  0
  -25.8022  -30.8938   27.0233 H   0  0  0  0  0  0
  -26.2956  -29.6730   24.1243 H   0  0  0  0  0  0
  -27.4013  -29.7263   25.4770 H   0  0  0  0  0  0
  -27.8845  -30.4253   23.9506 H   0  0  0  0  0  0
  -27.2666  -33.3644   26.2041 H   0  0  0  0  0  0
  -28.3889  -32.6856   25.0344 H   0  0  0  0  0  0
  -28.0697  -31.8473   26.5452 H   0  0  0  0  0  0
  -28.2594  -38.0092   24.7508 H   0  0  0  0  0  0
  -28.1074  -36.2622   24.6300 H   0  0  0  0  0  0
  -27.2292  -37.1453   25.8869 H   0  0  0  0  0  0
  -20.9416  -29.8767   21.6843 H   0  0  0  0  0  0
  -26.0166  -38.2837   24.1407 H   0  0  0  0  0  0
  -26.5371  -19.9649   21.3435 H   0  0  0  0  0  0
  -27.2161  -22.4252   21.1704 H   0  0  0  0  0  0
  -31.1513  -17.4872   20.0782 H   0  0  0  0  0  0
  -28.7340  -15.8936   21.0201 H   0  0  0  0  0  0
  -29.6966  -23.6516   19.9803 H   0  0  0  0  0  0
  -28.0771  -25.0705   21.8375 H   0  0  0  0  0  0
  -26.8851  -24.7202   20.6535 H   0  0  0  0  0  0
  1 25  1  0  0  0
  1 30  2  0  0  0
  1 76  1  0  0  0
  2  3  1  0  0  0
  2 25  1  0  0  0
  2 81  1  0  0  0
  2 82  1  0  0  0
  3  4  1  0  0  0
  3 83  1  0  0  0
  3 84  1  0  0  0
  4  5  1  0  0  0
  4 85  1  0  0  0
  4 86  1  0  0  0
  5  6  1  0  0  0
  5 26  1  0  0  0
  5 87  1  0  0  0
  6 25  1  0  0  0
  6 88  1  0  0  0
  6 89  1  0  0  0
  7  8  2  0  0  0
  7 26  1  0  0  0
  7 29  1  0  0  0
  8  9  1  0  0  0
  8 22  1  0  0  0
  9 10  1  0  0  0
  9 27  2  0  0  0
 10 11  2  0  0  0
 10 15  1  0  0  0
 11 12  1  0  0  0
 11 90  1  0  0  0
 12 13  2  0  0  0
 12 91  1  0  0  0
 13 14  1  0  0  0
 13 31  1  0  0  0
 14 15  2  0  0  0
 14 92  1  0  0  0
 15 93  1  0  0  0
 16 17  2  0  0  0
 16 21  1  0  0  0
 16 31  1  0  0  0
 17 18  1  0  0  0
 17 94  1  0  0  0
 18 19  2  0  0  0
 18 95  1  0  0  0
 19 20  1  0  0  0
 19 24  1  0  0  0
 20 21  2  0  0  0
 20 96  1  0  0  0
 21 23  1  0  0  0
 22 28  1  0  0  0
 22 32  2  0  0  0
 26 27  1  0  0  0
 28 97  1  0  0  0
 28 98  1  0  0  0
 29 99  1  0  0  0
 29100  1  0  0  0
 33 34  1  0  0  0
 33 66  1  0  0  0
 33 70  2  0  0  0
 34 36  1  0  0  0
 34 59  1  0  0  0
 34101  1  0  0  0
 35 44  2  0  0  0
 35 45  1  0  0  0
 35 68  1  0  0  0
 36 56  1  0  0  0
 36102  1  0  0  0
 37 39  1  0  0  0
 37 47  1  0  0  0
 37 66  1  0  0  0
 37103  1  0  0  0
 38 43  2  0  0  0
 38 46  1  0  0  0
 38 47  1  0  0  0
 39 64  1  0  0  0
 39 67  2  0  0  0
 40 52  1  0  0  0
 40 53  2  0  0  0
 40 58  1  0  0  0
 41104  1  0  0  0
 41105  1  0  0  0
 41106  1  0  0  0
 41 48  1  0  0  0
 42 43  1  0  0  0
 42 66  1  0  0  0
 42107  1  0  0  0
 42108  1  0  0  0
 43 44  1  0  0  0
 44109  1  0  0  0
 45 46  2  0  0  0
 45110  1  0  0  0
 46111  1  0  0  0
 47112  1  0  0  0
 47113  1  0  0  0
 48 56  1  0  0  0
 48 65  1  0  0  0
 48114  1  0  0  0
 49 50  1  0  0  0
 49 53  1  0  0  0
 49 64  1  0  0  0
 49115  1  0  0  0
 50 51  1  0  0  0
 50116  1  0  0  0
 50117  1  0  0  0
 51 52  1  0  0  0
 51118  1  0  0  0
 51119  1  0  0  0
 52120  1  0  0  0
 52121  1  0  0  0
 53 54  1  0  0  0
 54 55  2  0  0  0
 54122  1  0  0  0
 55 57  1  0  0  0
 55123  1  0  0  0
 56 69  2  0  0  0
 57 58  2  0  0  0
 57124  1  0  0  0
 58125  1  0  0  0
 59 60  1  0  0  0
 59 61  1  0  0  0
 59 62  1  0  0  0
 60126  1  0  0  0
 60127  1  0  0  0
 60128  1  0  0  0
 61129  1  0  0  0
 61130  1  0  0  0
 61131  1  0  0  0
 62132  1  0  0  0
 62133  1  0  0  0
 62134  1  0  0  0
 63 65  1  0  0  0
 63135  1  0  0  0
 63136  1  0  0  0
 63137  1  0  0  0
 64138  1  0  0  0
 65139  1  0  0  0
 68 78  1  0  0  0
 71 72  2  0  0  0
 71 80  1  0  0  0
 71140  1  0  0  0
 72 74  1  0  0  0
 72 79  1  0  0  0
 73 75  1  0  0  0
 73 79  2  0  0  0
 73 80  1  0  0  0
 74 77  2  0  0  0
 74141  1  0  0  0
 75 76  2  0  0  0
 75142  1  0  0  0
 76143  1  0  0  0
 77 78  1  0  0  0
 77144  1  0  0  0
 78145  1  0  0  0
 78146  1  0  0  0
M  ISO  4   1 100  68 101  76 100  78 101
M  END
> <chiral flag>
0

> <version>
0

> <s_m_source_file>
/data/baiqing/PycharmProjects/Reinvent-master-3.2/result/LINK_invent/BTK/process_docking_weight1_custom_product_contain_oxygen_bond_distance_aromatic_linkinvent_7_9_3/rearranged_h_0112.sdf

> <i_m_source_file_index>
86

> <r_mmod_Potential_Energy-OPLS-2005>
162.708389282227

> <r_mmod_Stretch_Energy-OPLS-2005>
130.567428588867

> <r_mmod_Bend_Energy-OPLS-2005>
217.037994384766

> <r_mmod_Torsional_Energy-OPLS-2005>
201.038848876953

> <r_mmod_Improper_Torsional_Energy-OPLS-2005>
4.29907560348511

> <r_mmod_Van_der_Waal_Energy-OPLS-2005>
120.613807678223

> <r_mmod_Electrostatic_Energy-OPLS-2005>
-406.134948730469

> <r_mmod_Solvation_Energy-OPLS-2005>
-207.467147827148

> <b_mmod_Minimization_Converged-OPLS-2005>
0

> <r_mmod_RMS_Derivative-OPLS-2005>
0.243572279810905

$$$$
87
                    3D
 Structure written by MMmdl.
160169  0  0  1  0            999 V2000
  -30.6716  -14.6445   20.4451 C   0  0  0  0  0  0
  -30.4316  -12.3929   19.4484 C   0  0  0  0  0  0
  -29.5078  -12.5095   18.2166 C   0  0  0  0  0  0
  -28.0260  -12.3773   18.6185 C   0  0  0  0  0  0
  -27.6524  -13.2382   19.8542 C   0  0  2  0  0  0
  -28.7024  -13.1276   20.9832 C   0  0  0  0  0  0
  -25.2551  -13.8208   20.5674 C   0  0  0  0  0  0
  -24.1829  -13.0469   20.9202 C   0  0  0  0  0  0
  -24.6413  -11.6936   20.8747 C   0  0  0  0  0  0
  -23.9076  -10.4320   21.0410 C   0  0  0  0  0  0
  -24.3636   -9.4239   21.9192 C   0  0  0  0  0  0
  -23.6333   -8.2258   22.0726 C   0  0  0  0  0  0
  -22.4314   -8.0295   21.3520 C   0  0  0  0  0  0
  -21.9961   -9.0253   20.4616 C   0  0  0  0  0  0
  -22.7263  -10.2156   20.3030 C   0  0  0  0  0  0
  -21.6846   -6.0765   22.5292 C   0  0  0  0  0  0
  -21.4008   -6.5648   23.8235 C   0  0  0  0  0  0
  -21.3658   -5.6787   24.9187 C   0  0  0  0  0  0
  -21.6046   -4.3049   24.7215 C   0  0  0  0  0  0
  -21.8822   -3.8156   23.4314 C   0  0  0  0  0  0
  -21.9200   -4.6988   22.3396 C   0  0  0  0  0  0
  -22.7847  -13.5259   21.1851 C   0  0  0  0  0  0
  -22.1669   -4.2200   21.0957 F   0  0  0  0  0  0
  -21.5651   -3.4515   25.7707 F   0  0  0  0  0  0
  -30.0145  -13.4429   20.4038 N   0  0  0  0  0  0
  -26.2992  -12.9423   20.3277 N   0  0  0  0  0  0
  -25.9356  -11.6566   20.5727 N   0  0  0  0  0  0
  -22.0422  -12.8249   22.0350 N   0  0  0  0  0  0
  -25.4269  -15.1933   20.4089 N   0  0  0  0  0  0
  -31.8649  -14.7026   20.1511 O   0  0  0  0  0  0
  -21.6626   -6.8913   21.4260 O   0  0  0  0  0  0
  -22.3557  -14.5566   20.6682 O   0  0  0  0  0  0
  -24.6238  -31.8645   23.2067 C   0  0  0  0  0  0
  -25.9118  -32.4806   23.8380 C   0  0  1  0  0  0
  -27.2216  -27.3563   20.1177 C   0  0  0  0  0  0
  -25.5957  -33.8597   24.2313 N   0  0  0  0  0  0
  -23.4148  -30.4891   21.5481 C   0  0  2  0  0  0
  -24.8619  -28.9383   20.1282 C   0  0  0  0  0  0
  -22.7450  -29.4673   22.4959 C   0  0  0  0  0  0
  -18.0288  -28.1390   22.8500 C   0  0  0  0  0  0
  -24.1484  -36.7280   23.2629 C   0  0  0  0  0  0
  -25.9544  -30.7983   21.3814 C   0  0  0  0  0  0
  -26.0296  -29.4236   20.7363 C   0  0  0  0  0  0
  -27.2160  -28.6388   20.7343 C   0  0  0  0  0  0
  -26.0400  -26.9049   19.5017 C   0  0  0  0  0  0
  -24.8631  -27.6765   19.5098 C   0  0  0  0  0  0
  -23.6310  -29.8185   20.1671 C   0  0  0  0  0  0
  -25.4104  -36.3087   24.0340 C   0  0  1  0  0  0
  -20.5883  -28.3687   23.1310 C   0  0  2  0  0  0
  -20.6778  -26.9416   22.5417 C   0  0  0  0  0  0
  -19.5746  -26.6389   21.5224 C   0  0  0  0  0  0
  -18.1927  -26.7947   22.1630 C   0  0  0  0  0  0
  -19.1540  -28.8857   23.2903 C   0  0  0  0  0  0
  -18.9464  -30.1467   23.8898 C   0  0  0  0  0  0
  -17.6463  -30.6597   24.0567 C   0  0  0  0  0  0
  -25.9050  -34.9462   23.5117 C   0  0  0  0  0  0
  -16.5353  -29.9089   23.6341 C   0  0  0  0  0  0
  -16.7280  -28.6508   23.0363 C   0  0  0  0  0  0
  -26.4494  -31.6605   25.0743 C   0  0  0  0  0  0
  -25.3726  -31.3741   26.1465 C   0  0  0  0  0  0
  -27.0357  -30.3025   24.6215 C   0  0  0  0  0  0
  -27.6059  -32.4318   25.7539 C   0  0  0  0  0  0
  -27.5593  -37.1791   24.8435 C   0  0  0  0  0  0
  -21.4163  -29.3062   22.3706 N   0  0  0  0  0  0
  -26.4268  -37.3796   23.9430 N   0  0  0  0  0  0
  -24.6827  -31.0682   22.1014 N   0  0  0  0  0  0
  -23.4192  -28.8207   23.3031 O   0  0  0  0  0  0
  -28.3256  -26.5310   19.9705 O   0  0  0  0  0  0
  -26.5578  -34.8922   22.4655 O   0  0  0  0  0  0
  -23.5415  -32.1457   23.7401 O   0  0  0  0  0  0
  -30.7427  -19.9228   19.5975 C   0  0  0  0  0  0
  -31.3639  -17.5660   19.5357 C   0  0  0  0  0  0
  -29.3100  -18.2511   20.6359 C   0  0  0  0  0  0
  -31.6495  -18.9146   19.2139 C   0  0  0  0  0  0
  -29.5618  -19.6285   20.3006 C   0  0  0  0  0  0
  -30.2127  -17.1879   20.2810 C   0  0  0  0  0  0
  -28.8872  -24.4468   21.1833 C   0  0  0  0  0  0
  -33.1705  -20.4382   17.8960 C   0  0  0  0  0  0
  -32.8630  -19.2449   18.4413 C   0  0  0  0  0  0
  -28.8448  -25.8073   21.0269 C   0  0  0  0  0  0
  -28.5402  -20.7575   20.4940 C   0  0  0  0  0  0
  -29.7552  -23.7764   22.2149 C   0  0  0  0  0  0
  -28.2322  -23.3013   20.3997 C   0  0  0  0  0  0
  -30.0713  -22.3833   21.6387 C   0  0  0  0  0  0
  -28.9640  -22.0428   20.7413 N   0  0  0  0  0  0
  -29.9188  -15.7840   20.6194 N   0  0  0  0  0  0
  -27.3456  -20.4983   20.3167 O   0  0  0  0  0  0
  -31.4731  -12.5029   19.1359 H   0  0  0  0  0  0
  -30.3529  -11.4034   19.9025 H   0  0  0  0  0  0
  -29.7659  -11.7576   17.4697 H   0  0  0  0  0  0
  -29.6694  -13.4741   17.7333 H   0  0  0  0  0  0
  -27.8235  -11.3248   18.8206 H   0  0  0  0  0  0
  -27.3928  -12.6581   17.7747 H   0  0  0  0  0  0
  -27.6640  -14.2716   19.5087 H   0  0  0  0  0  0
  -28.7148  -12.1244   21.4107 H   0  0  0  0  0  0
  -28.4601  -13.8117   21.7971 H   0  0  0  0  0  0
  -25.2779   -9.5728   22.4774 H   0  0  0  0  0  0
  -24.0062   -7.4633   22.7411 H   0  0  0  0  0  0
  -21.0913   -8.8764   19.8899 H   0  0  0  0  0  0
  -22.3736  -10.9686   19.6124 H   0  0  0  0  0  0
  -21.1977   -7.6160   23.9758 H   0  0  0  0  0  0
  -21.1482   -6.0492   25.9105 H   0  0  0  0  0  0
  -22.0597   -2.7625   23.2758 H   0  0  0  0  0  0
  -22.3969  -11.9922   22.4811 H   0  0  0  0  0  0
  -21.1000  -13.1261   22.2395 H   0  0  0  0  0  0
  -24.6656  -15.8503   20.5233 H   0  0  0  0  0  0
  -26.2723  -15.6273   20.0589 H   0  0  0  0  0  0
  -26.7194  -32.5484   23.1136 H   0  0  0  0  0  0
  -25.0153  -33.9745   25.0491 H   0  0  0  0  0  0
  -22.7070  -31.3072   21.4039 H   0  0  0  0  0  0
  -23.3786  -35.9570   23.3239 H   0  0  0  0  0  0
  -24.3605  -36.8945   22.2059 H   0  0  0  0  0  0
  -23.7177  -37.6445   23.6671 H   0  0  0  0  0  0
  -26.0910  -31.5588   20.6110 H   0  0  0  0  0  0
  -26.8335  -30.8452   22.0137 H   0  0  0  0  0  0
  -28.1197  -29.0137   21.1941 H   0  0  0  0  0  0
  -26.0360  -25.9429   19.0087 H   0  0  0  0  0  0
  -23.9693  -27.2968   19.0338 H   0  0  0  0  0  0
  -23.7497  -30.5885   19.4046 H   0  0  0  0  0  0
  -22.7533  -29.2435   19.8692 H   0  0  0  0  0  0
  -25.1278  -36.1934   25.0830 H   0  0  0  0  0  0
  -20.9994  -28.3262   24.1427 H   0  0  0  0  0  0
  -20.5713  -26.2289   23.3607 H   0  0  0  0  0  0
  -21.6645  -26.7475   22.1191 H   0  0  0  0  0  0
  -19.6894  -25.6295   21.1264 H   0  0  0  0  0  0
  -19.6693  -27.3190   20.6747 H   0  0  0  0  0  0
  -17.4213  -26.6749   21.4005 H   0  0  0  0  0  0
  -18.0285  -26.0078   22.9007 H   0  0  0  0  0  0
  -19.7937  -30.7289   24.2256 H   0  0  0  0  0  0
  -17.5022  -31.6284   24.5155 H   0  0  0  0  0  0
  -15.5351  -30.2985   23.7665 H   0  0  0  0  0  0
  -15.8691  -28.0823   22.7070 H   0  0  0  0  0  0
  -24.5844  -30.7174   25.7764 H   0  0  0  0  0  0
  -24.8983  -32.2920   26.4940 H   0  0  0  0  0  0
  -25.8021  -30.8838   27.0211 H   0  0  0  0  0  0
  -26.2965  -29.6772   24.1188 H   0  0  0  0  0  0
  -27.4006  -29.7267   25.4735 H   0  0  0  0  0  0
  -27.8850  -30.4307   23.9497 H   0  0  0  0  0  0
  -27.2683  -33.3614   26.2121 H   0  0  0  0  0  0
  -28.3889  -32.6877   25.0395 H   0  0  0  0  0  0
  -28.0709  -31.8434   26.5457 H   0  0  0  0  0  0
  -28.2517  -38.0181   24.7626 H   0  0  0  0  0  0
  -28.1182  -36.2722   24.6069 H   0  0  0  0  0  0
  -27.2347  -37.1218   25.8839 H   0  0  0  0  0  0
  -20.9318  -29.8773   21.6918 H   0  0  0  0  0  0
  -26.0148  -38.2864   24.1473 H   0  0  0  0  0  0
  -30.9310  -20.9464   19.3099 H   0  0  0  0  0  0
  -32.0573  -16.8281   19.1639 H   0  0  0  0  0  0
  -28.3917  -18.0154   21.1544 H   0  0  0  0  0  0
  -34.0950  -20.5793   17.3523 H   0  0  0  0  0  0
  -32.5230  -21.3005   17.9666 H   0  0  0  0  0  0
  -33.5798  -18.4448   18.3185 H   0  0  0  0  0  0
  -29.4127  -26.4592   21.6751 H   0  0  0  0  0  0
  -29.1793  -23.6783   23.1363 H   0  0  0  0  0  0
  -30.6561  -24.3531   22.4318 H   0  0  0  0  0  0
  -28.2583  -23.4924   19.3257 H   0  0  0  0  0  0
  -27.1881  -23.2146   20.7073 H   0  0  0  0  0  0
  -30.1968  -21.6449   22.4323 H   0  0  0  0  0  0
  -30.9986  -22.4249   21.0650 H   0  0  0  0  0  0
  -28.9772  -15.6089   20.9311 H   0  0  0  0  0  0
  1 25  1  0  0  0
  1 30  2  0  0  0
  1 86  1  0  0  0
  2  3  1  0  0  0
  2 25  1  0  0  0
  2 88  1  0  0  0
  2 89  1  0  0  0
  3  4  1  0  0  0
  3 90  1  0  0  0
  3 91  1  0  0  0
  4  5  1  0  0  0
  4 92  1  0  0  0
  4 93  1  0  0  0
  5  6  1  0  0  0
  5 26  1  0  0  0
  5 94  1  0  0  0
  6 25  1  0  0  0
  6 95  1  0  0  0
  6 96  1  0  0  0
  7  8  2  0  0  0
  7 26  1  0  0  0
  7 29  1  0  0  0
  8  9  1  0  0  0
  8 22  1  0  0  0
  9 10  1  0  0  0
  9 27  2  0  0  0
 10 11  2  0  0  0
 10 15  1  0  0  0
 11 12  1  0  0  0
 11 97  1  0  0  0
 12 13  2  0  0  0
 12 98  1  0  0  0
 13 14  1  0  0  0
 13 31  1  0  0  0
 14 15  2  0  0  0
 14 99  1  0  0  0
 15100  1  0  0  0
 16 17  2  0  0  0
 16 21  1  0  0  0
 16 31  1  0  0  0
 17 18  1  0  0  0
 17101  1  0  0  0
 18 19  2  0  0  0
 18102  1  0  0  0
 19 20  1  0  0  0
 19 24  1  0  0  0
 20 21  2  0  0  0
 20103  1  0  0  0
 21 23  1  0  0  0
 22 28  1  0  0  0
 22 32  2  0  0  0
 26 27  1  0  0  0
 28104  1  0  0  0
 28105  1  0  0  0
 29106  1  0  0  0
 29107  1  0  0  0
 33 34  1  0  0  0
 33 66  1  0  0  0
 33 70  2  0  0  0
 34 36  1  0  0  0
 34 59  1  0  0  0
 34108  1  0  0  0
 35 44  2  0  0  0
 35 45  1  0  0  0
 35 68  1  0  0  0
 36 56  1  0  0  0
 36109  1  0  0  0
 37 39  1  0  0  0
 37 47  1  0  0  0
 37 66  1  0  0  0
 37110  1  0  0  0
 38 43  2  0  0  0
 38 46  1  0  0  0
 38 47  1  0  0  0
 39 64  1  0  0  0
 39 67  2  0  0  0
 40 52  1  0  0  0
 40 53  2  0  0  0
 40 58  1  0  0  0
 41111  1  0  0  0
 41112  1  0  0  0
 41113  1  0  0  0
 41 48  1  0  0  0
 42 43  1  0  0  0
 42 66  1  0  0  0
 42114  1  0  0  0
 42115  1  0  0  0
 43 44  1  0  0  0
 44116  1  0  0  0
 45 46  2  0  0  0
 45117  1  0  0  0
 46118  1  0  0  0
 47119  1  0  0  0
 47120  1  0  0  0
 48 56  1  0  0  0
 48 65  1  0  0  0
 48121  1  0  0  0
 49 50  1  0  0  0
 49 53  1  0  0  0
 49 64  1  0  0  0
 49122  1  0  0  0
 50 51  1  0  0  0
 50123  1  0  0  0
 50124  1  0  0  0
 51 52  1  0  0  0
 51125  1  0  0  0
 51126  1  0  0  0
 52127  1  0  0  0
 52128  1  0  0  0
 53 54  1  0  0  0
 54 55  2  0  0  0
 54129  1  0  0  0
 55 57  1  0  0  0
 55130  1  0  0  0
 56 69  2  0  0  0
 57 58  2  0  0  0
 57131  1  0  0  0
 58132  1  0  0  0
 59 60  1  0  0  0
 59 61  1  0  0  0
 59 62  1  0  0  0
 60133  1  0  0  0
 60134  1  0  0  0
 60135  1  0  0  0
 61136  1  0  0  0
 61137  1  0  0  0
 61138  1  0  0  0
 62139  1  0  0  0
 62140  1  0  0  0
 62141  1  0  0  0
 63 65  1  0  0  0
 63142  1  0  0  0
 63143  1  0  0  0
 63144  1  0  0  0
 64145  1  0  0  0
 65146  1  0  0  0
 68 80  1  0  0  0
 71 74  2  0  0  0
 71 75  1  0  0  0
 71147  1  0  0  0
 72 74  1  0  0  0
 72 76  2  0  0  0
 72148  1  0  0  0
 73 75  2  0  0  0
 73 76  1  0  0  0
 73149  1  0  0  0
 74 79  1  0  0  0
 75 81  1  0  0  0
 76 86  1  0  0  0
 77 80  2  0  0  0
 77 82  1  0  0  0
 77 83  1  0  0  0
 78 79  2  0  0  0
 78150  1  0  0  0
 78151  1  0  0  0
 79152  1  0  0  0
 80153  1  0  0  0
 81 85  1  0  0  0
 81 87  2  0  0  0
 82 84  1  0  0  0
 82154  1  0  0  0
 82155  1  0  0  0
 83 85  1  0  0  0
 83156  1  0  0  0
 83157  1  0  0  0
 84 85  1  0  0  0
 84158  1  0  0  0
 84159  1  0  0  0
 86160  1  0  0  0
M  ISO  4   1 100  68 101  80 101  86 100
M  END
> <chiral flag>
0

> <version>
0

> <s_m_source_file>
/data/baiqing/PycharmProjects/Reinvent-master-3.2/result/LINK_invent/BTK/process_docking_weight1_custom_product_contain_oxygen_bond_distance_aromatic_linkinvent_7_9_3/rearranged_h_0112.sdf

> <i_m_source_file_index>
87

> <r_mmod_Potential_Energy-OPLS-2005>
150.115493774414

> <r_mmod_Stretch_Energy-OPLS-2005>
67.0818023681641

> <r_mmod_Bend_Energy-OPLS-2005>
157.043273925781

> <r_mmod_Torsional_Energy-OPLS-2005>
317.884765625

> <r_mmod_Improper_Torsional_Energy-OPLS-2005>
7.51986074447632

> <r_mmod_Van_der_Waal_Energy-OPLS-2005>
142.192260742188

> <r_mmod_Electrostatic_Energy-OPLS-2005>
-365.561920166016

> <r_mmod_Solvation_Energy-OPLS-2005>
-220.816696166992

> <b_mmod_Minimization_Converged-OPLS-2005>
0

> <r_mmod_RMS_Derivative-OPLS-2005>
4.17463207244873

$$$$
88
                    3D
 Structure written by MMmdl.
154162  0  0  1  0            999 V2000
  -30.6287  -14.7566   20.3907 C   0  0  0  0  0  0
  -30.4353  -12.4504   19.4604 C   0  0  0  0  0  0
  -29.5016  -12.4699   18.2300 C   0  0  0  0  0  0
  -28.0344  -12.2628   18.6573 C   0  0  0  0  0  0
  -27.6226  -13.1846   19.8313 C   0  0  2  0  0  0
  -28.6832  -13.2075   20.9549 C   0  0  0  0  0  0
  -25.2531  -13.8053   20.5740 C   0  0  0  0  0  0
  -24.1777  -13.0375   20.9250 C   0  0  0  0  0  0
  -24.6312  -11.6833   20.8811 C   0  0  0  0  0  0
  -23.8986  -10.4251   21.0458 C   0  0  0  0  0  0
  -24.3561   -9.4169   21.9220 C   0  0  0  0  0  0
  -23.6252   -8.2201   22.0767 C   0  0  0  0  0  0
  -22.4236   -8.0254   21.3548 C   0  0  0  0  0  0
  -21.9865   -9.0226   20.4651 C   0  0  0  0  0  0
  -22.7181  -10.2109   20.3078 C   0  0  0  0  0  0
  -21.6834   -6.0723   22.5284 C   0  0  0  0  0  0
  -21.4003   -6.5637   23.8215 C   0  0  0  0  0  0
  -21.3655   -5.6794   24.9180 C   0  0  0  0  0  0
  -21.6043   -4.3055   24.7231 C   0  0  0  0  0  0
  -21.8821   -3.8141   23.4355 C   0  0  0  0  0  0
  -21.9186   -4.6953   22.3410 C   0  0  0  0  0  0
  -22.7815  -13.5214   21.1886 C   0  0  0  0  0  0
  -22.1656   -4.2140   21.0986 F   0  0  0  0  0  0
  -21.5628   -3.4541   25.7747 F   0  0  0  0  0  0
  -29.9882  -13.5338   20.3595 N   0  0  0  0  0  0
  -26.2856  -12.9121   20.3297 N   0  0  0  0  0  0
  -25.9216  -11.6331   20.5819 N   0  0  0  0  0  0
  -22.0436  -12.8227   22.0439 N   0  0  0  0  0  0
  -25.4349  -15.1767   20.4145 N   0  0  0  0  0  0
  -31.8553  -14.8183   20.2750 O   0  0  0  0  0  0
  -21.6606   -6.8853   21.4239 O   0  0  0  0  0  0
  -22.3532  -14.5526   20.6719 O   0  0  0  0  0  0
  -24.6280  -31.8570   23.2005 C   0  0  0  0  0  0
  -25.9123  -32.4763   23.8342 C   0  0  1  0  0  0
  -27.2291  -27.3025   20.1304 C   0  0  0  0  0  0
  -25.5927  -33.8563   24.2265 N   0  0  0  0  0  0
  -23.4235  -30.4791   21.5424 C   0  0  2  0  0  0
  -24.8732  -28.9269   20.1141 C   0  0  0  0  0  0
  -22.7477  -29.4614   22.4922 C   0  0  0  0  0  0
  -18.0284  -28.1391   22.8487 C   0  0  0  0  0  0
  -24.1483  -36.7285   23.2642 C   0  0  0  0  0  0
  -25.9653  -30.7840   21.3731 C   0  0  0  0  0  0
  -26.0424  -29.4082   20.7183 C   0  0  0  0  0  0
  -27.2266  -28.6095   20.7121 C   0  0  0  0  0  0
  -26.0406  -26.8748   19.5017 C   0  0  0  0  0  0
  -24.8749  -27.6662   19.4951 C   0  0  0  0  0  0
  -23.6408  -29.8088   20.1599 C   0  0  0  0  0  0
  -25.4109  -36.3070   24.0329 C   0  0  1  0  0  0
  -20.5883  -28.3700   23.1275 C   0  0  2  0  0  0
  -20.6766  -26.9419   22.5416 C   0  0  0  0  0  0
  -19.5749  -26.6389   21.5212 C   0  0  0  0  0  0
  -18.1925  -26.7936   22.1616 C   0  0  0  0  0  0
  -19.1537  -28.8860   23.2878 C   0  0  0  0  0  0
  -18.9460  -30.1458   23.8902 C   0  0  0  0  0  0
  -17.6460  -30.6593   24.0565 C   0  0  0  0  0  0
  -25.9052  -34.9440   23.5098 C   0  0  0  0  0  0
  -16.5351  -29.9091   23.6333 C   0  0  0  0  0  0
  -16.7270  -28.6506   23.0360 C   0  0  0  0  0  0
  -26.4506  -31.6583   25.0723 C   0  0  0  0  0  0
  -25.3738  -31.3717   26.1444 C   0  0  0  0  0  0
  -27.0365  -30.3005   24.6201 C   0  0  0  0  0  0
  -27.6057  -32.4336   25.7492 C   0  0  0  0  0  0
  -27.5581  -37.1786   24.8462 C   0  0  0  0  0  0
  -21.4187  -29.3048   22.3665 N   0  0  0  0  0  0
  -26.4281  -37.3774   23.9421 N   0  0  0  0  0  0
  -24.6910  -31.0569   22.0958 N   0  0  0  0  0  0
  -23.4187  -28.8160   23.3019 O   0  0  0  0  0  0
  -28.3330  -26.4346   20.1444 O   0  0  0  0  0  0
  -26.5624  -34.8916   22.4667 O   0  0  0  0  0  0
  -23.5438  -32.1372   23.7323 O   0  0  0  0  0  0
  -30.1798  -17.5047   22.0721 C   0  0  0  0  0  0
  -29.8406  -19.9389   22.1612 C   0  0  0  0  0  0
  -29.9379  -17.4619   20.6824 C   0  0  0  0  0  0
  -29.6967  -18.7607   20.0396 C   0  0  0  0  0  0
  -29.6155  -20.0132   20.7683 C   0  0  0  0  0  0
  -30.1357  -18.7140   22.7927 C   0  0  0  0  0  0
  -29.7788  -16.0648   20.0104 C   0  0  0  0  0  0
  -28.8723  -23.8405   20.0813 C   0  0  0  0  0  0
  -29.5102  -18.8583   18.5289 C   0  0  0  0  0  0
  -28.1113  -25.0790   20.7264 C   0  0  0  0  0  0
  -28.9982  -22.4784   20.9001 C   0  0  0  0  0  0
  -28.9638  -16.0016   19.0468 N   0  0  0  0  0  0
  -29.3661  -23.9349   18.9516 O   0  0  0  0  0  0
  -29.3360  -21.2547   20.1279 O   0  0  0  0  0  0
  -30.3561  -18.6949   24.1289 F   0  0  0  0  0  0
  -31.4723  -12.5811   19.1458 H   0  0  0  0  0  0
  -30.3889  -11.4875   19.9709 H   0  0  0  0  0  0
  -29.7958  -11.6948   17.5214 H   0  0  0  0  0  0
  -29.6005  -13.4209   17.7040 H   0  0  0  0  0  0
  -27.9220  -11.2200   18.9558 H   0  0  0  0  0  0
  -27.3661  -12.4094   17.8081 H   0  0  0  0  0  0
  -27.5399  -14.1603   19.3836 H   0  0  0  0  0  0
  -28.7314  -12.2436   21.4629 H   0  0  0  0  0  0
  -28.4164  -13.9453   21.7136 H   0  0  0  0  0  0
  -25.2705   -9.5649   22.4792 H   0  0  0  0  0  0
  -23.9969   -7.4588   22.7478 H   0  0  0  0  0  0
  -21.0802   -8.8740   19.8949 H   0  0  0  0  0  0
  -22.3651  -10.9655   19.6188 H   0  0  0  0  0  0
  -21.1997   -7.6144   23.9712 H   0  0  0  0  0  0
  -21.1476   -6.0528   25.9082 H   0  0  0  0  0  0
  -22.0606   -2.7604   23.2863 H   0  0  0  0  0  0
  -22.4028  -11.9877   22.4821 H   0  0  0  0  0  0
  -21.1067  -13.1285   22.2653 H   0  0  0  0  0  0
  -24.6809  -15.8467   20.5174 H   0  0  0  0  0  0
  -26.2979  -15.5921   20.0831 H   0  0  0  0  0  0
  -26.7190  -32.5432   23.1091 H   0  0  0  0  0  0
  -25.0064  -33.9700   25.0405 H   0  0  0  0  0  0
  -22.7187  -31.3000   21.3953 H   0  0  0  0  0  0
  -23.3754  -35.9606   23.3273 H   0  0  0  0  0  0
  -24.3578  -36.8946   22.2065 H   0  0  0  0  0  0
  -23.7218  -37.6467   23.6694 H   0  0  0  0  0  0
  -26.0970  -31.5446   20.6024 H   0  0  0  0  0  0
  -26.8452  -30.8356   22.0029 H   0  0  0  0  0  0
  -28.1258  -28.9759   21.1878 H   0  0  0  0  0  0
  -26.0067  -25.9089   19.0173 H   0  0  0  0  0  0
  -23.9800  -27.2922   19.0169 H   0  0  0  0  0  0
  -23.7604  -30.5821   19.4003 H   0  0  0  0  0  0
  -22.7606  -29.2374   19.8598 H   0  0  0  0  0  0
  -25.1285  -36.1912   25.0817 H   0  0  0  0  0  0
  -20.9978  -28.3287   24.1395 H   0  0  0  0  0  0
  -20.5659  -26.2312   23.3621 H   0  0  0  0  0  0
  -21.6639  -26.7440   22.1220 H   0  0  0  0  0  0
  -19.6909  -25.6300   21.1245 H   0  0  0  0  0  0
  -19.6690  -27.3192   20.6738 H   0  0  0  0  0  0
  -17.4200  -26.6699   21.4010 H   0  0  0  0  0  0
  -18.0309  -26.0074   22.9002 H   0  0  0  0  0  0
  -19.7935  -30.7269   24.2280 H   0  0  0  0  0  0
  -17.5017  -31.6273   24.5172 H   0  0  0  0  0  0
  -15.5353  -30.2997   23.7659 H   0  0  0  0  0  0
  -15.8665  -28.0826   22.7083 H   0  0  0  0  0  0
  -24.5940  -30.7030   25.7782 H   0  0  0  0  0  0
  -24.8892  -32.2872   26.4845 H   0  0  0  0  0  0
  -25.8068  -30.8930   27.0236 H   0  0  0  0  0  0
  -26.2946  -29.6731   24.1247 H   0  0  0  0  0  0
  -27.4073  -29.7291   25.4724 H   0  0  0  0  0  0
  -27.8807  -30.4287   23.9424 H   0  0  0  0  0  0
  -27.2671  -33.3654   26.2034 H   0  0  0  0  0  0
  -28.3881  -32.6867   25.0328 H   0  0  0  0  0  0
  -28.0709  -31.8486   26.5439 H   0  0  0  0  0  0
  -28.2570  -38.0112   24.7547 H   0  0  0  0  0  0
  -28.1101  -36.2642   24.6231 H   0  0  0  0  0  0
  -27.2306  -37.1373   25.8866 H   0  0  0  0  0  0
  -20.9369  -29.8767   21.6870 H   0  0  0  0  0  0
  -26.0154  -38.2836   24.1461 H   0  0  0  0  0  0
  -30.3584  -16.5919   22.6215 H   0  0  0  0  0  0
  -29.8049  -20.8209   22.7813 H   0  0  0  0  0  0
  -30.1752  -18.1727   18.0027 H   0  0  0  0  0  0
  -29.7414  -19.8548   18.1531 H   0  0  0  0  0  0
  -28.4798  -18.6346   18.2524 H   0  0  0  0  0  0
  -28.3981  -25.1260   21.7770 H   0  0  0  0  0  0
  -27.0496  -24.8342   20.7256 H   0  0  0  0  0  0
  -28.0598  -22.3101   21.4287 H   0  0  0  0  0  0
  -29.7635  -22.6466   21.6569 H   0  0  0  0  0  0
  -28.5282  -16.9022   18.8942 H   0  0  0  0  0  0
  1 25  1  0  0  0
  1 30  2  0  0  0
  1 77  1  0  0  0
  2  3  1  0  0  0
  2 25  1  0  0  0
  2 86  1  0  0  0
  2 87  1  0  0  0
  3  4  1  0  0  0
  3 88  1  0  0  0
  3 89  1  0  0  0
  4  5  1  0  0  0
  4 90  1  0  0  0
  4 91  1  0  0  0
  5  6  1  0  0  0
  5 26  1  0  0  0
  5 92  1  0  0  0
  6 25  1  0  0  0
  6 93  1  0  0  0
  6 94  1  0  0  0
  7  8  2  0  0  0
  7 26  1  0  0  0
  7 29  1  0  0  0
  8  9  1  0  0  0
  8 22  1  0  0  0
  9 10  1  0  0  0
  9 27  2  0  0  0
 10 11  2  0  0  0
 10 15  1  0  0  0
 11 12  1  0  0  0
 11 95  1  0  0  0
 12 13  2  0  0  0
 12 96  1  0  0  0
 13 14  1  0  0  0
 13 31  1  0  0  0
 14 15  2  0  0  0
 14 97  1  0  0  0
 15 98  1  0  0  0
 16 17  2  0  0  0
 16 21  1  0  0  0
 16 31  1  0  0  0
 17 18  1  0  0  0
 17 99  1  0  0  0
 18 19  2  0  0  0
 18100  1  0  0  0
 19 20  1  0  0  0
 19 24  1  0  0  0
 20 21  2  0  0  0
 20101  1  0  0  0
 21 23  1  0  0  0
 22 28  1  0  0  0
 22 32  2  0  0  0
 26 27  1  0  0  0
 28102  1  0  0  0
 28103  1  0  0  0
 29104  1  0  0  0
 29105  1  0  0  0
 33 34  1  0  0  0
 33 66  1  0  0  0
 33 70  2  0  0  0
 34 36  1  0  0  0
 34 59  1  0  0  0
 34106  1  0  0  0
 35 44  2  0  0  0
 35 45  1  0  0  0
 35 68  1  0  0  0
 36 56  1  0  0  0
 36107  1  0  0  0
 37 39  1  0  0  0
 37 47  1  0  0  0
 37 66  1  0  0  0
 37108  1  0  0  0
 38 43  2  0  0  0
 38 46  1  0  0  0
 38 47  1  0  0  0
 39 64  1  0  0  0
 39 67  2  0  0  0
 40 52  1  0  0  0
 40 53  2  0  0  0
 40 58  1  0  0  0
 41109  1  0  0  0
 41110  1  0  0  0
 41111  1  0  0  0
 41 48  1  0  0  0
 42 43  1  0  0  0
 42 66  1  0  0  0
 42112  1  0  0  0
 42113  1  0  0  0
 43 44  1  0  0  0
 44114  1  0  0  0
 45 46  2  0  0  0
 45115  1  0  0  0
 46116  1  0  0  0
 47117  1  0  0  0
 47118  1  0  0  0
 48 56  1  0  0  0
 48 65  1  0  0  0
 48119  1  0  0  0
 49 50  1  0  0  0
 49 53  1  0  0  0
 49 64  1  0  0  0
 49120  1  0  0  0
 50 51  1  0  0  0
 50121  1  0  0  0
 50122  1  0  0  0
 51 52  1  0  0  0
 51123  1  0  0  0
 51124  1  0  0  0
 52125  1  0  0  0
 52126  1  0  0  0
 53 54  1  0  0  0
 54 55  2  0  0  0
 54127  1  0  0  0
 55 57  1  0  0  0
 55128  1  0  0  0
 56 69  2  0  0  0
 57 58  2  0  0  0
 57129  1  0  0  0
 58130  1  0  0  0
 59 60  1  0  0  0
 59 61  1  0  0  0
 59 62  1  0  0  0
 60131  1  0  0  0
 60132  1  0  0  0
 60133  1  0  0  0
 61134  1  0  0  0
 61135  1  0  0  0
 61136  1  0  0  0
 62137  1  0  0  0
 62138  1  0  0  0
 62139  1  0  0  0
 63 65  1  0  0  0
 63140  1  0  0  0
 63141  1  0  0  0
 63142  1  0  0  0
 64143  1  0  0  0
 65144  1  0  0  0
 68 80  1  0  0  0
 71 73  2  0  0  0
 71 76  1  0  0  0
 71145  1  0  0  0
 72 75  1  0  0  0
 72 76  2  0  0  0
 72146  1  0  0  0
 73 74  1  0  0  0
 73 77  1  0  0  0
 74 75  2  0  0  0
 74 79  1  0  0  0
 75 84  1  0  0  0
 76 85  1  0  0  0
 77 82  2  0  0  0
 78 80  1  0  0  0
 78 81  1  0  0  0
 78 83  2  0  0  0
 79147  1  0  0  0
 79148  1  0  0  0
 79149  1  0  0  0
 80150  1  0  0  0
 80151  1  0  0  0
 81 84  1  0  0  0
 81152  1  0  0  0
 81153  1  0  0  0
 82154  1  0  0  0
M  ISO  4   1 100  68 101  77 100  80 101
M  END
> <chiral flag>
0

> <version>
0

> <s_m_source_file>
/data/baiqing/PycharmProjects/Reinvent-master-3.2/result/LINK_invent/BTK/process_docking_weight1_custom_product_contain_oxygen_bond_distance_aromatic_linkinvent_7_9_3/rearranged_h_0112.sdf

> <i_m_source_file_index>
88

> <r_mmod_Potential_Energy-OPLS-2005>
333.721984863281

> <r_mmod_Stretch_Energy-OPLS-2005>
118.899154663086

> <r_mmod_Bend_Energy-OPLS-2005>
153.86262512207

> <r_mmod_Torsional_Energy-OPLS-2005>
249.061065673828

> <r_mmod_Improper_Torsional_Energy-OPLS-2005>
15.8780536651611

> <r_mmod_Van_der_Waal_Energy-OPLS-2005>
150.876647949219

> <r_mmod_Electrostatic_Energy-OPLS-2005>
-218.637313842773

> <r_mmod_Solvation_Energy-OPLS-2005>
-224.0009765625

> <b_mmod_Minimization_Converged-OPLS-2005>
0

> <r_mmod_RMS_Derivative-OPLS-2005>
0.839317917823792

$$$$
89
                    3D
 Structure written by MMmdl.
164173  0  0  1  0            999 V2000
  -30.5921  -14.6871   20.4907 C   0  0  0  0  0  0
  -30.4429  -12.4194   19.4605 C   0  0  0  0  0  0
  -29.5130  -12.5159   18.2296 C   0  0  0  0  0  0
  -28.0361  -12.3459   18.6403 C   0  0  0  0  0  0
  -27.6529  -13.2179   19.8653 C   0  0  2  0  0  0
  -28.6967  -13.0841   20.9965 C   0  0  0  0  0  0
  -25.2553  -13.8117   20.5626 C   0  0  0  0  0  0
  -24.1821  -13.0410   20.9164 C   0  0  0  0  0  0
  -24.6396  -11.6885   20.8741 C   0  0  0  0  0  0
  -23.9055  -10.4278   21.0411 C   0  0  0  0  0  0
  -24.3606   -9.4197   21.9192 C   0  0  0  0  0  0
  -23.6286   -8.2231   22.0755 C   0  0  0  0  0  0
  -22.4269   -8.0271   21.3542 C   0  0  0  0  0  0
  -21.9904   -9.0244   20.4645 C   0  0  0  0  0  0
  -22.7231  -10.2126   20.3055 C   0  0  0  0  0  0
  -21.6849   -6.0729   22.5282 C   0  0  0  0  0  0
  -21.4011   -6.5633   23.8216 C   0  0  0  0  0  0
  -21.3658   -5.6786   24.9179 C   0  0  0  0  0  0
  -21.6045   -4.3049   24.7229 C   0  0  0  0  0  0
  -21.8820   -3.8141   23.4350 C   0  0  0  0  0  0
  -21.9192   -4.6957   22.3406 C   0  0  0  0  0  0
  -22.7853  -13.5225   21.1846 C   0  0  0  0  0  0
  -22.1661   -4.2145   21.0983 F   0  0  0  0  0  0
  -21.5630   -3.4529   25.7741 F   0  0  0  0  0  0
  -30.0070  -13.4448   20.4331 N   0  0  0  0  0  0
  -26.2996  -12.9323   20.3334 N   0  0  0  0  0  0
  -25.9334  -11.6475   20.5776 N   0  0  0  0  0  0
  -22.0478  -12.8230   22.0400 N   0  0  0  0  0  0
  -25.4247  -15.1802   20.3946 N   0  0  0  0  0  0
  -31.7526  -14.8563   20.1038 O   0  0  0  0  0  0
  -21.6631   -6.8871   21.4245 O   0  0  0  0  0  0
  -22.3549  -14.5534   20.6700 O   0  0  0  0  0  0
  -24.6269  -31.8587   23.2003 C   0  0  0  0  0  0
  -25.9108  -32.4775   23.8346 C   0  0  1  0  0  0
  -27.2299  -27.3088   20.1251 C   0  0  0  0  0  0
  -25.5915  -33.8572   24.2263 N   0  0  0  0  0  0
  -23.4228  -30.4803   21.5426 C   0  0  2  0  0  0
  -24.8730  -28.9311   20.1114 C   0  0  0  0  0  0
  -22.7486  -29.4620   22.4930 C   0  0  0  0  0  0
  -18.0287  -28.1395   22.8494 C   0  0  0  0  0  0
  -24.1492  -36.7296   23.2640 C   0  0  0  0  0  0
  -25.9639  -30.7864   21.3728 C   0  0  0  0  0  0
  -26.0411  -29.4105   20.7193 C   0  0  0  0  0  0
  -27.2247  -28.6101   20.7184 C   0  0  0  0  0  0
  -26.0424  -26.8856   19.4893 C   0  0  0  0  0  0
  -24.8753  -27.6736   19.4872 C   0  0  0  0  0  0
  -23.6397  -29.8112   20.1594 C   0  0  0  0  0  0
  -25.4116  -36.3079   24.0327 C   0  0  1  0  0  0
  -20.5888  -28.3701   23.1283 C   0  0  2  0  0  0
  -20.6777  -26.9422   22.5411 C   0  0  0  0  0  0
  -19.5749  -26.6389   21.5218 C   0  0  0  0  0  0
  -18.1931  -26.7941   22.1628 C   0  0  0  0  0  0
  -19.1540  -28.8864   23.2885 C   0  0  0  0  0  0
  -18.9460  -30.1468   23.8900 C   0  0  0  0  0  0
  -17.6460  -30.6597   24.0563 C   0  0  0  0  0  0
  -25.9055  -34.9449   23.5099 C   0  0  0  0  0  0
  -16.5351  -29.9096   23.6329 C   0  0  0  0  0  0
  -16.7276  -28.6510   23.0358 C   0  0  0  0  0  0
  -26.4478  -31.6588   25.0722 C   0  0  0  0  0  0
  -25.3705  -31.3720   26.1442 C   0  0  0  0  0  0
  -27.0313  -30.3012   24.6178 C   0  0  0  0  0  0
  -27.6047  -32.4314   25.7494 C   0  0  0  0  0  0
  -27.5578  -37.1802   24.8461 C   0  0  0  0  0  0
  -21.4196  -29.3051   22.3675 N   0  0  0  0  0  0
  -26.4290  -37.3777   23.9407 N   0  0  0  0  0  0
  -24.6900  -31.0587   22.0957 N   0  0  0  0  0  0
  -23.4204  -28.8166   23.3022 O   0  0  0  0  0  0
  -28.3244  -26.4274   20.1451 O   0  0  0  0  0  0
  -26.5636  -34.8921   22.4674 O   0  0  0  0  0  0
  -23.5426  -32.1385   23.7319 O   0  0  0  0  0  0
  -30.7160  -19.3661   19.8933 C   0  0  0  0  0  0
  -30.8020  -17.9437   20.0321 C   0  0  0  0  0  0
  -28.6481  -19.3781   21.0938 C   0  0  0  0  0  0
  -29.6327  -20.1382   20.4092 C   0  0  0  0  0  0
  -29.7969  -17.1915   20.6974 C   0  0  0  0  0  0
  -28.7101  -17.9461   21.2323 C   0  0  0  0  0  0
  -28.8016  -23.9437   20.2606 C   0  0  0  0  0  0
  -28.0892  -25.0902   20.5484 C   0  0  0  0  0  0
  -30.0439  -23.8307   19.4047 C   0  0  0  0  0  0
  -28.4848  -22.4977   20.7355 C   0  0  0  0  0  0
  -30.5350  -22.3556   19.4978 C   0  0  0  0  0  0
  -25.5759  -18.3752   21.9605 C   0  0  0  0  0  0
  -26.3880  -16.8120   23.7795 C   0  0  0  0  0  0
  -26.7996  -17.8545   22.7353 C   0  0  0  0  0  0
  -29.5420  -21.5770   20.2423 N   0  0  0  0  0  0
  -29.7673  -15.7265   20.8577 N   0  0  0  0  0  0
  -27.7305  -17.2056   21.8693 O   0  0  0  0  0  0
  -31.4834  -12.5545   19.1596 H   0  0  0  0  0  0
  -30.3872  -11.4251   19.9060 H   0  0  0  0  0  0
  -29.7845  -11.7614   17.4904 H   0  0  0  0  0  0
  -29.6500  -13.4826   17.7425 H   0  0  0  0  0  0
  -27.8791  -11.2927   18.8753 H   0  0  0  0  0  0
  -27.3810  -12.5698   17.7975 H   0  0  0  0  0  0
  -27.6653  -14.2523   19.5212 H   0  0  0  0  0  0
  -28.7191  -12.0623   21.3782 H   0  0  0  0  0  0
  -28.4335  -13.7134   21.8484 H   0  0  0  0  0  0
  -25.2747   -9.5680   22.4773 H   0  0  0  0  0  0
  -23.9998   -7.4618   22.7468 H   0  0  0  0  0  0
  -21.0835   -8.8760   19.8949 H   0  0  0  0  0  0
  -22.3686  -10.9664   19.6164 H   0  0  0  0  0  0
  -21.1996   -7.6139   23.9719 H   0  0  0  0  0  0
  -21.1482   -6.0515   25.9085 H   0  0  0  0  0  0
  -22.0600   -2.7603   23.2848 H   0  0  0  0  0  0
  -22.4072  -11.9889   22.4800 H   0  0  0  0  0  0
  -21.1106  -13.1291   22.2602 H   0  0  0  0  0  0
  -24.6572  -15.8309   20.5093 H   0  0  0  0  0  0
  -26.2958  -15.6336   20.1515 H   0  0  0  0  0  0
  -26.7185  -32.5446   23.1106 H   0  0  0  0  0  0
  -25.0028  -33.9712   25.0383 H   0  0  0  0  0  0
  -22.7173  -31.3010   21.3971 H   0  0  0  0  0  0
  -23.3750  -35.9631   23.3297 H   0  0  0  0  0  0
  -24.3586  -36.8922   22.2055 H   0  0  0  0  0  0
  -23.7245  -37.6497   23.6668 H   0  0  0  0  0  0
  -26.0931  -31.5469   20.6012 H   0  0  0  0  0  0
  -26.8449  -30.8397   22.0010 H   0  0  0  0  0  0
  -28.1216  -28.9722   21.2012 H   0  0  0  0  0  0
  -26.0105  -25.9195   19.0053 H   0  0  0  0  0  0
  -23.9814  -27.3010   19.0058 H   0  0  0  0  0  0
  -23.7565  -30.5851   19.4001 H   0  0  0  0  0  0
  -22.7606  -29.2383   19.8593 H   0  0  0  0  0  0
  -25.1296  -36.1928   25.0820 H   0  0  0  0  0  0
  -20.9984  -28.3276   24.1401 H   0  0  0  0  0  0
  -20.5685  -26.2312   23.3614 H   0  0  0  0  0  0
  -21.6646  -26.7459   22.1194 H   0  0  0  0  0  0
  -19.6906  -25.6297   21.1254 H   0  0  0  0  0  0
  -19.6684  -27.3194   20.6744 H   0  0  0  0  0  0
  -17.4202  -26.6698   21.4029 H   0  0  0  0  0  0
  -18.0326  -26.0084   22.9023 H   0  0  0  0  0  0
  -19.7934  -30.7286   24.2270 H   0  0  0  0  0  0
  -17.5013  -31.6279   24.5164 H   0  0  0  0  0  0
  -15.5351  -30.2999   23.7648 H   0  0  0  0  0  0
  -15.8678  -28.0829   22.7070 H   0  0  0  0  0  0
  -24.5890  -30.7065   25.7751 H   0  0  0  0  0  0
  -24.8882  -32.2879   26.4872 H   0  0  0  0  0  0
  -25.8020  -30.8884   27.0215 H   0  0  0  0  0  0
  -26.2876  -29.6780   24.1197 H   0  0  0  0  0  0
  -27.3990  -29.7258   25.4684 H   0  0  0  0  0  0
  -27.8763  -30.4289   23.9409 H   0  0  0  0  0  0
  -27.2673  -33.3622   26.2069 H   0  0  0  0  0  0
  -28.3864  -32.6857   25.0322 H   0  0  0  0  0  0
  -28.0715  -31.8436   26.5408 H   0  0  0  0  0  0
  -28.2587  -38.0106   24.7517 H   0  0  0  0  0  0
  -28.1079  -36.2635   24.6274 H   0  0  0  0  0  0
  -27.2301  -37.1441   25.8865 H   0  0  0  0  0  0
  -20.9380  -29.8769   21.6875 H   0  0  0  0  0  0
  -26.0166  -38.2850   24.1411 H   0  0  0  0  0  0
  -31.5173  -19.8615   19.3652 H   0  0  0  0  0  0
  -31.6549  -17.4365   19.6053 H   0  0  0  0  0  0
  -27.8175  -19.9249   21.5075 H   0  0  0  0  0  0
  -27.2131  -25.0276   21.1805 H   0  0  0  0  0  0
  -30.8084  -24.5351   19.7355 H   0  0  0  0  0  0
  -29.7861  -24.0808   18.3747 H   0  0  0  0  0  0
  -27.5119  -22.1921   20.3478 H   0  0  0  0  0  0
  -28.4330  -22.4701   21.8246 H   0  0  0  0  0  0
  -31.4964  -22.3085   20.0124 H   0  0  0  0  0  0
  -30.6772  -21.9401   18.4986 H   0  0  0  0  0  0
  -24.9037  -18.9219   22.6224 H   0  0  0  0  0  0
  -25.0008  -17.5610   21.5254 H   0  0  0  0  0  0
  -25.8473  -19.0469   21.1479 H   0  0  0  0  0  0
  -25.6623  -17.2232   24.4815 H   0  0  0  0  0  0
  -27.2513  -16.4760   24.3545 H   0  0  0  0  0  0
  -25.9395  -15.9352   23.3107 H   0  0  0  0  0  0
  -27.2775  -18.6760   23.2708 H   0  0  0  0  0  0
  -28.8889  -15.4035   21.2353 H   0  0  0  0  0  0
  1 25  1  0  0  0
  1 30  2  0  0  0
  1 86  1  0  0  0
  2  3  1  0  0  0
  2 25  1  0  0  0
  2 88  1  0  0  0
  2 89  1  0  0  0
  3  4  1  0  0  0
  3 90  1  0  0  0
  3 91  1  0  0  0
  4  5  1  0  0  0
  4 92  1  0  0  0
  4 93  1  0  0  0
  5  6  1  0  0  0
  5 26  1  0  0  0
  5 94  1  0  0  0
  6 25  1  0  0  0
  6 95  1  0  0  0
  6 96  1  0  0  0
  7  8  2  0  0  0
  7 26  1  0  0  0
  7 29  1  0  0  0
  8  9  1  0  0  0
  8 22  1  0  0  0
  9 10  1  0  0  0
  9 27  2  0  0  0
 10 11  2  0  0  0
 10 15  1  0  0  0
 11 12  1  0  0  0
 11 97  1  0  0  0
 12 13  2  0  0  0
 12 98  1  0  0  0
 13 14  1  0  0  0
 13 31  1  0  0  0
 14 15  2  0  0  0
 14 99  1  0  0  0
 15100  1  0  0  0
 16 17  2  0  0  0
 16 21  1  0  0  0
 16 31  1  0  0  0
 17 18  1  0  0  0
 17101  1  0  0  0
 18 19  2  0  0  0
 18102  1  0  0  0
 19 20  1  0  0  0
 19 24  1  0  0  0
 20 21  2  0  0  0
 20103  1  0  0  0
 21 23  1  0  0  0
 22 28  1  0  0  0
 22 32  2  0  0  0
 26 27  1  0  0  0
 28104  1  0  0  0
 28105  1  0  0  0
 29106  1  0  0  0
 29107  1  0  0  0
 33 34  1  0  0  0
 33 66  1  0  0  0
 33 70  2  0  0  0
 34 36  1  0  0  0
 34 59  1  0  0  0
 34108  1  0  0  0
 35 44  2  0  0  0
 35 45  1  0  0  0
 35 68  1  0  0  0
 36 56  1  0  0  0
 36109  1  0  0  0
 37 39  1  0  0  0
 37 47  1  0  0  0
 37 66  1  0  0  0
 37110  1  0  0  0
 38 43  2  0  0  0
 38 46  1  0  0  0
 38 47  1  0  0  0
 39 64  1  0  0  0
 39 67  2  0  0  0
 40 52  1  0  0  0
 40 53  2  0  0  0
 40 58  1  0  0  0
 41111  1  0  0  0
 41112  1  0  0  0
 41113  1  0  0  0
 41 48  1  0  0  0
 42 43  1  0  0  0
 42 66  1  0  0  0
 42114  1  0  0  0
 42115  1  0  0  0
 43 44  1  0  0  0
 44116  1  0  0  0
 45 46  2  0  0  0
 45117  1  0  0  0
 46118  1  0  0  0
 47119  1  0  0  0
 47120  1  0  0  0
 48 56  1  0  0  0
 48 65  1  0  0  0
 48121  1  0  0  0
 49 50  1  0  0  0
 49 53  1  0  0  0
 49 64  1  0  0  0
 49122  1  0  0  0
 50 51  1  0  0  0
 50123  1  0  0  0
 50124  1  0  0  0
 51 52  1  0  0  0
 51125  1  0  0  0
 51126  1  0  0  0
 52127  1  0  0  0
 52128  1  0  0  0
 53 54  1  0  0  0
 54 55  2  0  0  0
 54129  1  0  0  0
 55 57  1  0  0  0
 55130  1  0  0  0
 56 69  2  0  0  0
 57 58  2  0  0  0
 57131  1  0  0  0
 58132  1  0  0  0
 59 60  1  0  0  0
 59 61  1  0  0  0
 59 62  1  0  0  0
 60133  1  0  0  0
 60134  1  0  0  0
 60135  1  0  0  0
 61136  1  0  0  0
 61137  1  0  0  0
 61138  1  0  0  0
 62139  1  0  0  0
 62140  1  0  0  0
 62141  1  0  0  0
 63 65  1  0  0  0
 63142  1  0  0  0
 63143  1  0  0  0
 63144  1  0  0  0
 64145  1  0  0  0
 65146  1  0  0  0
 68 78  1  0  0  0
 71 72  2  0  0  0
 71 74  1  0  0  0
 71147  1  0  0  0
 72 75  1  0  0  0
 72148  1  0  0  0
 73 74  2  0  0  0
 73 76  1  0  0  0
 73149  1  0  0  0
 74 85  1  0  0  0
 75 76  2  0  0  0
 75 86  1  0  0  0
 76 87  1  0  0  0
 77 78  2  0  0  0
 77 79  1  0  0  0
 77 80  1  0  0  0
 78150  1  0  0  0
 79 81  1  0  0  0
 79151  1  0  0  0
 79152  1  0  0  0
 80 85  1  0  0  0
 80153  1  0  0  0
 80154  1  0  0  0
 81 85  1  0  0  0
 81155  1  0  0  0
 81156  1  0  0  0
 82157  1  0  0  0
 82158  1  0  0  0
 82159  1  0  0  0
 82 84  1  0  0  0
 83 84  1  0  0  0
 83160  1  0  0  0
 83161  1  0  0  0
 83162  1  0  0  0
 84 87  1  0  0  0
 84163  1  0  0  0
 86164  1  0  0  0
M  ISO  4   1 100  68 101  78 101  86 100
M  END
> <chiral flag>
0

> <version>
0

> <s_m_source_file>
/data/baiqing/PycharmProjects/Reinvent-master-3.2/result/LINK_invent/BTK/process_docking_weight1_custom_product_contain_oxygen_bond_distance_aromatic_linkinvent_7_9_3/rearranged_h_0112.sdf

> <i_m_source_file_index>
89

> <r_mmod_Potential_Energy-OPLS-2005>
46.0053443908691

> <r_mmod_Stretch_Energy-OPLS-2005>
83.2394943237305

> <r_mmod_Bend_Energy-OPLS-2005>
190.187271118164

> <r_mmod_Torsional_Energy-OPLS-2005>
227.5712890625

> <r_mmod_Improper_Torsional_Energy-OPLS-2005>
3.43147921562195

> <r_mmod_Van_der_Waal_Energy-OPLS-2005>
136.313125610352

> <r_mmod_Electrostatic_Energy-OPLS-2005>
-440.422760009766

> <r_mmod_Solvation_Energy-OPLS-2005>
-214.772872924805

> <b_mmod_Minimization_Converged-OPLS-2005>
0

> <r_mmod_RMS_Derivative-OPLS-2005>
0.856276035308838

$$$$
90
                    3D
 Structure written by MMmdl.
158166  0  0  1  0            999 V2000
  -30.6699  -14.4414   20.6367 C   0  0  0  0  0  0
  -30.4432  -12.3128   19.3976 C   0  0  0  0  0  0
  -29.4990  -12.5165   18.1936 C   0  0  0  0  0  0
  -28.0185  -12.3712   18.6062 C   0  0  0  0  0  0
  -27.6695  -13.1897   19.8778 C   0  0  2  0  0  0
  -28.7059  -12.9012   20.9844 C   0  0  0  0  0  0
  -25.2651  -13.8126   20.5666 C   0  0  0  0  0  0
  -24.1871  -13.0432   20.9144 C   0  0  0  0  0  0
  -24.6395  -11.6891   20.8707 C   0  0  0  0  0  0
  -23.9055  -10.4285   21.0395 C   0  0  0  0  0  0
  -24.3601   -9.4199   21.9174 C   0  0  0  0  0  0
  -23.6273   -8.2241   22.0752 C   0  0  0  0  0  0
  -22.4255   -8.0280   21.3549 C   0  0  0  0  0  0
  -21.9888   -9.0259   20.4658 C   0  0  0  0  0  0
  -22.7227  -10.2132   20.3049 C   0  0  0  0  0  0
  -21.6854   -6.0721   22.5276 C   0  0  0  0  0  0
  -21.4015   -6.5621   23.8208 C   0  0  0  0  0  0
  -21.3643   -5.6777   24.9171 C   0  0  0  0  0  0
  -21.6036   -4.3042   24.7231 C   0  0  0  0  0  0
  -21.8822   -3.8131   23.4354 C   0  0  0  0  0  0
  -21.9202   -4.6949   22.3405 C   0  0  0  0  0  0
  -22.7898  -13.5259   21.1810 C   0  0  0  0  0  0
  -22.1667   -4.2135   21.0988 F   0  0  0  0  0  0
  -21.5621   -3.4522   25.7739 F   0  0  0  0  0  0
  -30.0431  -13.2467   20.4584 N   0  0  0  0  0  0
  -26.3059  -12.9255   20.3338 N   0  0  0  0  0  0
  -25.9306  -11.6435   20.5709 N   0  0  0  0  0  0
  -22.0520  -12.8282   22.0375 N   0  0  0  0  0  0
  -25.4420  -15.1841   20.4088 N   0  0  0  0  0  0
  -31.7459  -14.7316   20.1022 O   0  0  0  0  0  0
  -21.6631   -6.8867   21.4241 O   0  0  0  0  0  0
  -22.3592  -14.5564   20.6653 O   0  0  0  0  0  0
  -24.6122  -31.8699   23.2099 C   0  0  0  0  0  0
  -25.9011  -32.4823   23.8406 C   0  0  1  0  0  0
  -27.2428  -27.4569   20.0935 C   0  0  0  0  0  0
  -25.5864  -33.8620   24.2355 N   0  0  0  0  0  0
  -23.4016  -30.4933   21.5503 C   0  0  2  0  0  0
  -24.8506  -28.9582   20.1181 C   0  0  0  0  0  0
  -22.7397  -29.4689   22.4999 C   0  0  0  0  0  0
  -18.0287  -28.1390   22.8519 C   0  0  0  0  0  0
  -24.1470  -36.7311   23.2653 C   0  0  0  0  0  0
  -25.9277  -30.8409   21.3614 C   0  0  0  0  0  0
  -26.0095  -29.4759   20.7130 C   0  0  0  0  0  0
  -27.2103  -28.7322   20.6986 C   0  0  0  0  0  0
  -26.0718  -26.9461   19.4959 C   0  0  0  0  0  0
  -24.8758  -27.6910   19.5083 C   0  0  0  0  0  0
  -23.6115  -29.8237   20.1660 C   0  0  0  0  0  0
  -25.4090  -36.3115   24.0358 C   0  0  1  0  0  0
  -20.5877  -28.3677   23.1325 C   0  0  2  0  0  0
  -20.6766  -26.9410   22.5443 C   0  0  0  0  0  0
  -19.5742  -26.6409   21.5232 C   0  0  0  0  0  0
  -18.1923  -26.7936   22.1646 C   0  0  0  0  0  0
  -19.1535  -28.8847   23.2922 C   0  0  0  0  0  0
  -18.9464  -30.1457   23.8931 C   0  0  0  0  0  0
  -17.6463  -30.6588   24.0593 C   0  0  0  0  0  0
  -25.9012  -34.9475   23.5158 C   0  0  0  0  0  0
  -16.5358  -29.9100   23.6336 C   0  0  0  0  0  0
  -16.7275  -28.6521   23.0351 C   0  0  0  0  0  0
  -26.4444  -31.6583   25.0726 C   0  0  0  0  0  0
  -25.3712  -31.3685   26.1486 C   0  0  0  0  0  0
  -27.0276  -30.3026   24.6077 C   0  0  0  0  0  0
  -27.6060  -32.4276   25.7453 C   0  0  0  0  0  0
  -27.5562  -37.1829   24.8487 C   0  0  0  0  0  0
  -21.4135  -29.3036   22.3706 N   0  0  0  0  0  0
  -26.4292  -37.3791   23.9407 N   0  0  0  0  0  0
  -24.6657  -31.0819   22.0988 N   0  0  0  0  0  0
  -23.4163  -28.8249   23.3062 O   0  0  0  0  0  0
  -28.3981  -26.7107   20.0777 O   0  0  0  0  0  0
  -26.5609  -34.8916   22.4730 O   0  0  0  0  0  0
  -23.5310  -32.1455   23.7469 O   0  0  0  0  0  0
  -28.7958  -17.2204   22.2020 C   0  0  0  0  0  0
  -30.7865  -17.5970   20.8665 C   0  0  0  0  0  0
  -28.5831  -18.6130   22.3228 C   0  0  0  0  0  0
  -29.8874  -16.6962   21.4809 C   0  0  0  0  0  0
  -29.4953  -19.5171   21.7189 C   0  0  0  0  0  0
  -30.5961  -18.9943   20.9851 C   0  0  0  0  0  0
  -26.6270  -18.4286   23.9103 C   0  0  0  0  0  0
  -27.4319  -19.1335   23.0953 C   0  0  0  0  0  0
  -29.0950  -24.3529   20.4326 C   0  0  0  0  0  0
  -28.9815  -23.1623   21.4147 C   0  0  0  0  0  0
  -28.3785  -25.6039   20.9868 C   0  0  0  0  0  0
  -29.6646  -21.8466   20.9809 C   0  0  0  0  0  0
  -29.9819  -15.2738   21.4400 N   0  0  0  0  0  0
  -29.2677  -20.8657   21.9390 O   0  0  0  0  0  0
  -31.5055  -19.8152   20.4082 F   0  0  0  0  0  0
  -31.4796  -12.4628   19.0893 H   0  0  0  0  0  0
  -30.3875  -11.2865   19.7640 H   0  0  0  0  0  0
  -29.7392  -11.8000   17.4070 H   0  0  0  0  0  0
  -29.6628  -13.5057   17.7608 H   0  0  0  0  0  0
  -27.8268  -11.3129   18.7898 H   0  0  0  0  0  0
  -27.3668  -12.6587   17.7805 H   0  0  0  0  0  0
  -27.7357  -14.2451   19.6125 H   0  0  0  0  0  0
  -28.6852  -11.8407   21.2429 H   0  0  0  0  0  0
  -28.4415  -13.4126   21.9099 H   0  0  0  0  0  0
  -25.2746   -9.5662   22.4750 H   0  0  0  0  0  0
  -23.9972   -7.4629   22.7469 H   0  0  0  0  0  0
  -21.0810   -8.8789   19.8976 H   0  0  0  0  0  0
  -22.3689  -10.9666   19.6146 H   0  0  0  0  0  0
  -21.2008   -7.6126   23.9705 H   0  0  0  0  0  0
  -21.1448   -6.0506   25.9072 H   0  0  0  0  0  0
  -22.0620   -2.7598   23.2865 H   0  0  0  0  0  0
  -22.4101  -11.9933   22.4773 H   0  0  0  0  0  0
  -21.1151  -13.1355   22.2575 H   0  0  0  0  0  0
  -24.6820  -15.8450   20.5239 H   0  0  0  0  0  0
  -26.3038  -15.6211   20.1068 H   0  0  0  0  0  0
  -26.7080  -32.5575   23.1181 H   0  0  0  0  0  0
  -24.9951  -33.9753   25.0454 H   0  0  0  0  0  0
  -22.6928  -31.3126   21.4105 H   0  0  0  0  0  0
  -23.3693  -35.9694   23.3406 H   0  0  0  0  0  0
  -24.3551  -36.8813   22.2050 H   0  0  0  0  0  0
  -23.7254  -37.6563   23.6585 H   0  0  0  0  0  0
  -26.0342  -31.6015   20.5863 H   0  0  0  0  0  0
  -26.8178  -30.9004   21.9758 H   0  0  0  0  0  0
  -28.1070  -29.1294   21.1548 H   0  0  0  0  0  0
  -26.0881  -25.9742   19.0214 H   0  0  0  0  0  0
  -23.9845  -27.2875   19.0467 H   0  0  0  0  0  0
  -23.7174  -30.5974   19.4041 H   0  0  0  0  0  0
  -22.7366  -29.2420   19.8720 H   0  0  0  0  0  0
  -25.1247  -36.2012   25.0854 H   0  0  0  0  0  0
  -21.0012  -28.3241   24.1427 H   0  0  0  0  0  0
  -20.5684  -26.2269   23.3628 H   0  0  0  0  0  0
  -21.6631  -26.7459   22.1225 H   0  0  0  0  0  0
  -19.6889  -25.6330   21.1226 H   0  0  0  0  0  0
  -19.6650  -27.3243   20.6776 H   0  0  0  0  0  0
  -17.4197  -26.6726   21.4032 H   0  0  0  0  0  0
  -18.0310  -26.0054   22.9024 H   0  0  0  0  0  0
  -19.7932  -30.7285   24.2290 H   0  0  0  0  0  0
  -17.5013  -31.6261   24.5211 H   0  0  0  0  0  0
  -15.5354  -30.3016   23.7622 H   0  0  0  0  0  0
  -15.8687  -28.0850   22.7039 H   0  0  0  0  0  0
  -24.5871  -30.7040   25.7831 H   0  0  0  0  0  0
  -24.8909  -32.2840   26.4962 H   0  0  0  0  0  0
  -25.8072  -30.8839   27.0232 H   0  0  0  0  0  0
  -26.2814  -29.6781   24.1147 H   0  0  0  0  0  0
  -27.4074  -29.7258   25.4521 H   0  0  0  0  0  0
  -27.8634  -30.4361   23.9202 H   0  0  0  0  0  0
  -27.2731  -33.3567   26.2087 H   0  0  0  0  0  0
  -28.3825  -32.6838   25.0235 H   0  0  0  0  0  0
  -28.0774  -31.8352   26.5304 H   0  0  0  0  0  0
  -28.2677  -38.0031   24.7425 H   0  0  0  0  0  0
  -28.0954  -36.2565   24.6442 H   0  0  0  0  0  0
  -27.2288  -37.1662   25.8899 H   0  0  0  0  0  0
  -20.9295  -29.8707   21.6888 H   0  0  0  0  0  0
  -26.0186  -38.2890   24.1328 H   0  0  0  0  0  0
  -28.1014  -16.5311   22.6591 H   0  0  0  0  0  0
  -31.6371  -17.2404   20.3067 H   0  0  0  0  0  0
  -25.8047  -18.9146   24.4166 H   0  0  0  0  0  0
  -26.7552  -17.3731   24.0996 H   0  0  0  0  0  0
  -27.2092  -20.1858   22.9785 H   0  0  0  0  0  0
  -28.6528  -24.0784   19.4746 H   0  0  0  0  0  0
  -30.1440  -24.5788   20.2380 H   0  0  0  0  0  0
  -27.9247  -22.9616   21.5932 H   0  0  0  0  0  0
  -29.3903  -23.4602   22.3822 H   0  0  0  0  0  0
  -28.8613  -25.9210   21.9114 H   0  0  0  0  0  0
  -27.3564  -25.3294   21.2570 H   0  0  0  0  0  0
  -30.7458  -21.9799   20.9792 H   0  0  0  0  0  0
  -29.3440  -21.5564   19.9781 H   0  0  0  0  0  0
  -29.2142  -14.7959   21.8870 H   0  0  0  0  0  0
  1 25  1  0  0  0
  1 30  2  0  0  0
  1 83  1  0  0  0
  2  3  1  0  0  0
  2 25  1  0  0  0
  2 86  1  0  0  0
  2 87  1  0  0  0
  3  4  1  0  0  0
  3 88  1  0  0  0
  3 89  1  0  0  0
  4  5  1  0  0  0
  4 90  1  0  0  0
  4 91  1  0  0  0
  5  6  1  0  0  0
  5 26  1  0  0  0
  5 92  1  0  0  0
  6 25  1  0  0  0
  6 93  1  0  0  0
  6 94  1  0  0  0
  7  8  2  0  0  0
  7 26  1  0  0  0
  7 29  1  0  0  0
  8  9  1  0  0  0
  8 22  1  0  0  0
  9 10  1  0  0  0
  9 27  2  0  0  0
 10 11  2  0  0  0
 10 15  1  0  0  0
 11 12  1  0  0  0
 11 95  1  0  0  0
 12 13  2  0  0  0
 12 96  1  0  0  0
 13 14  1  0  0  0
 13 31  1  0  0  0
 14 15  2  0  0  0
 14 97  1  0  0  0
 15 98  1  0  0  0
 16 17  2  0  0  0
 16 21  1  0  0  0
 16 31  1  0  0  0
 17 18  1  0  0  0
 17 99  1  0  0  0
 18 19  2  0  0  0
 18100  1  0  0  0
 19 20  1  0  0  0
 19 24  1  0  0  0
 20 21  2  0  0  0
 20101  1  0  0  0
 21 23  1  0  0  0
 22 28  1  0  0  0
 22 32  2  0  0  0
 26 27  1  0  0  0
 28102  1  0  0  0
 28103  1  0  0  0
 29104  1  0  0  0
 29105  1  0  0  0
 33 34  1  0  0  0
 33 66  1  0  0  0
 33 70  2  0  0  0
 34 36  1  0  0  0
 34 59  1  0  0  0
 34106  1  0  0  0
 35 44  2  0  0  0
 35 45  1  0  0  0
 35 68  1  0  0  0
 36 56  1  0  0  0
 36107  1  0  0  0
 37 39  1  0  0  0
 37 47  1  0  0  0
 37 66  1  0  0  0
 37108  1  0  0  0
 38 43  2  0  0  0
 38 46  1  0  0  0
 38 47  1  0  0  0
 39 64  1  0  0  0
 39 67  2  0  0  0
 40 52  1  0  0  0
 40 53  2  0  0  0
 40 58  1  0  0  0
 41109  1  0  0  0
 41110  1  0  0  0
 41111  1  0  0  0
 41 48  1  0  0  0
 42 43  1  0  0  0
 42 66  1  0  0  0
 42112  1  0  0  0
 42113  1  0  0  0
 43 44  1  0  0  0
 44114  1  0  0  0
 45 46  2  0  0  0
 45115  1  0  0  0
 46116  1  0  0  0
 47117  1  0  0  0
 47118  1  0  0  0
 48 56  1  0  0  0
 48 65  1  0  0  0
 48119  1  0  0  0
 49 50  1  0  0  0
 49 53  1  0  0  0
 49 64  1  0  0  0
 49120  1  0  0  0
 50 51  1  0  0  0
 50121  1  0  0  0
 50122  1  0  0  0
 51 52  1  0  0  0
 51123  1  0  0  0
 51124  1  0  0  0
 52125  1  0  0  0
 52126  1  0  0  0
 53 54  1  0  0  0
 54 55  2  0  0  0
 54127  1  0  0  0
 55 57  1  0  0  0
 55128  1  0  0  0
 56 69  2  0  0  0
 57 58  2  0  0  0
 57129  1  0  0  0
 58130  1  0  0  0
 59 60  1  0  0  0
 59 61  1  0  0  0
 59 62  1  0  0  0
 60131  1  0  0  0
 60132  1  0  0  0
 60133  1  0  0  0
 61134  1  0  0  0
 61135  1  0  0  0
 61136  1  0  0  0
 62137  1  0  0  0
 62138  1  0  0  0
 62139  1  0  0  0
 63 65  1  0  0  0
 63140  1  0  0  0
 63141  1  0  0  0
 63142  1  0  0  0
 64143  1  0  0  0
 65144  1  0  0  0
 68 81  1  0  0  0
 71 73  2  0  0  0
 71 74  1  0  0  0
 71145  1  0  0  0
 72 74  2  0  0  0
 72 76  1  0  0  0
 72146  1  0  0  0
 73 75  1  0  0  0
 73 78  1  0  0  0
 74 83  1  0  0  0
 75 76  2  0  0  0
 75 84  1  0  0  0
 76 85  1  0  0  0
 77 78  2  0  0  0
 77147  1  0  0  0
 77148  1  0  0  0
 78149  1  0  0  0
 79 80  1  0  0  0
 79 81  1  0  0  0
 79150  1  0  0  0
 79151  1  0  0  0
 80 82  1  0  0  0
 80152  1  0  0  0
 80153  1  0  0  0
 81154  1  0  0  0
 81155  1  0  0  0
 82 84  1  0  0  0
 82156  1  0  0  0
 82157  1  0  0  0
 83158  1  0  0  0
M  ISO  4   1 100  68 101  81 101  83 100
M  END
> <chiral flag>
0

> <version>
0

> <s_m_source_file>
/data/baiqing/PycharmProjects/Reinvent-master-3.2/result/LINK_invent/BTK/process_docking_weight1_custom_product_contain_oxygen_bond_distance_aromatic_linkinvent_7_9_3/rearranged_h_0112.sdf

> <i_m_source_file_index>
90

> <r_mmod_Potential_Energy-OPLS-2005>
13.2693853378296

> <r_mmod_Stretch_Energy-OPLS-2005>
36.8253021240234

> <r_mmod_Bend_Energy-OPLS-2005>
113.71932220459

> <r_mmod_Torsional_Energy-OPLS-2005>
241.745132446289

> <r_mmod_Improper_Torsional_Energy-OPLS-2005>
3.20345592498779

> <r_mmod_Van_der_Waal_Energy-OPLS-2005>
157.827133178711

> <r_mmod_Electrostatic_Energy-OPLS-2005>
-350.105133056641

> <r_mmod_Solvation_Energy-OPLS-2005>
-200.240219116211

> <b_mmod_Minimization_Converged-OPLS-2005>
0

> <r_mmod_RMS_Derivative-OPLS-2005>
2.53612518310547

$$$$
91
                    3D
 Structure written by MMmdl.
168177  0  0  1  0            999 V2000
  -30.6491  -14.5449   20.5339 C   0  0  0  0  0  0
  -30.4361  -12.3409   19.4294 C   0  0  0  0  0  0
  -29.5002  -12.5061   18.2117 C   0  0  0  0  0  0
  -28.0216  -12.3553   18.6247 C   0  0  0  0  0  0
  -27.6596  -13.1992   19.8749 C   0  0  2  0  0  0
  -28.7062  -13.0006   20.9948 C   0  0  0  0  0  0
  -25.2589  -13.8128   20.5733 C   0  0  0  0  0  0
  -24.1827  -13.0409   20.9178 C   0  0  0  0  0  0
  -24.6378  -11.6880   20.8727 C   0  0  0  0  0  0
  -23.9050  -10.4273   21.0393 C   0  0  0  0  0  0
  -24.3608   -9.4197   21.9177 C   0  0  0  0  0  0
  -23.6283   -8.2234   22.0750 C   0  0  0  0  0  0
  -22.4264   -8.0271   21.3542 C   0  0  0  0  0  0
  -21.9896   -9.0242   20.4643 C   0  0  0  0  0  0
  -22.7222  -10.2121   20.3047 C   0  0  0  0  0  0
  -21.6855   -6.0734   22.5278 C   0  0  0  0  0  0
  -21.4011   -6.5640   23.8210 C   0  0  0  0  0  0
  -21.3656   -5.6793   24.9173 C   0  0  0  0  0  0
  -21.6037   -4.3054   24.7220 C   0  0  0  0  0  0
  -21.8820   -3.8148   23.4342 C   0  0  0  0  0  0
  -21.9194   -4.6963   22.3399 C   0  0  0  0  0  0
  -22.7853  -13.5219   21.1840 C   0  0  0  0  0  0
  -22.1670   -4.2152   21.0977 F   0  0  0  0  0  0
  -21.5630   -3.4535   25.7732 F   0  0  0  0  0  0
  -30.0306  -13.3320   20.4390 N   0  0  0  0  0  0
  -26.3015  -12.9284   20.3380 N   0  0  0  0  0  0
  -25.9305  -11.6454   20.5768 N   0  0  0  0  0  0
  -22.0491  -12.8214   22.0398 N   0  0  0  0  0  0
  -25.4303  -15.1854   20.4272 N   0  0  0  0  0  0
  -31.7940  -14.7444   20.1157 O   0  0  0  0  0  0
  -21.6631   -6.8870   21.4238 O   0  0  0  0  0  0
  -22.3548  -14.5528   20.6687 O   0  0  0  0  0  0
  -24.6170  -31.8653   23.2065 C   0  0  0  0  0  0
  -25.9053  -32.4807   23.8373 C   0  0  1  0  0  0
  -27.2406  -27.4098   20.1050 C   0  0  0  0  0  0
  -25.5907  -33.8605   24.2309 N   0  0  0  0  0  0
  -23.4083  -30.4859   21.5472 C   0  0  2  0  0  0
  -24.8594  -28.9462   20.1150 C   0  0  0  0  0  0
  -22.7426  -29.4640   22.4975 C   0  0  0  0  0  0
  -18.0273  -28.1370   22.8490 C   0  0  0  0  0  0
  -24.1488  -36.7308   23.2635 C   0  0  0  0  0  0
  -25.9389  -30.8237   21.3628 C   0  0  0  0  0  0
  -26.0210  -29.4545   20.7124 C   0  0  0  0  0  0
  -27.2178  -28.6943   20.7035 C   0  0  0  0  0  0
  -26.0652  -26.9215   19.5002 C   0  0  0  0  0  0
  -24.8774  -27.6793   19.5048 C   0  0  0  0  0  0
  -23.6201  -29.8142   20.1637 C   0  0  0  0  0  0
  -25.4108  -36.3103   24.0334 C   0  0  1  0  0  0
  -20.5865  -28.3665   23.1308 C   0  0  2  0  0  0
  -20.6763  -26.9400   22.5417 C   0  0  0  0  0  0
  -19.5747  -26.6380   21.5207 C   0  0  0  0  0  0
  -18.1925  -26.7917   22.1618 C   0  0  0  0  0  0
  -19.1522  -28.8832   23.2896 C   0  0  0  0  0  0
  -18.9454  -30.1436   23.8908 C   0  0  0  0  0  0
  -17.6457  -30.6582   24.0557 C   0  0  0  0  0  0
  -25.9040  -34.9470   23.5120 C   0  0  0  0  0  0
  -16.5347  -29.9086   23.6317 C   0  0  0  0  0  0
  -16.7262  -28.6497   23.0349 C   0  0  0  0  0  0
  -26.4474  -31.6587   25.0705 C   0  0  0  0  0  0
  -25.3733  -31.3691   26.1449 C   0  0  0  0  0  0
  -27.0305  -30.3026   24.6086 C   0  0  0  0  0  0
  -27.6045  -32.4301   25.7480 C   0  0  0  0  0  0
  -27.5586  -37.1804   24.8459 C   0  0  0  0  0  0
  -21.4150  -29.3034   22.3715 N   0  0  0  0  0  0
  -26.4289  -37.3795   23.9416 N   0  0  0  0  0  0
  -24.6729  -31.0729   22.0975 N   0  0  0  0  0  0
  -23.4178  -28.8182   23.3037 O   0  0  0  0  0  0
  -28.3684  -26.6090   20.1088 O   0  0  0  0  0  0
  -26.5607  -34.8929   22.4685 O   0  0  0  0  0  0
  -23.5354  -32.1417   23.7448 O   0  0  0  0  0  0
  -30.6407  -17.7819   21.6943 C   0  0  0  0  0  0
  -29.1258  -19.0235   19.7042 C   0  0  0  0  0  0
  -30.5739  -19.2060   21.6483 C   0  0  0  0  0  0
  -29.2143  -17.6098   19.7447 C   0  0  0  0  0  0
  -29.7560  -19.8538   20.6666 C   0  0  0  0  0  0
  -29.9538  -16.9656   20.7681 C   0  0  0  0  0  0
  -28.8972  -23.4984   19.5275 C   0  0  0  0  0  0
  -28.7196  -24.0928   20.7436 C   0  0  0  0  0  0
  -31.9412  -19.5561   23.7521 C   0  0  0  0  0  0
  -28.8631  -23.7181   17.0490 C   0  0  0  0  0  0
  -31.3301  -20.0061   22.6415 C   0  0  0  0  0  0
  -28.7098  -24.2360   18.2806 C   0  0  0  0  0  0
  -29.2657  -21.9928   19.4238 C   0  0  0  0  0  0
  -28.8743  -23.2538   22.0138 C   0  0  0  0  0  0
  -28.7311  -21.7347   21.8038 C   0  0  0  0  0  0
  -28.4656  -16.8121   18.6913 C   0  0  0  0  0  0
  -28.3320  -25.5602   21.1042 C   0  0  0  0  0  0
  -29.5351  -21.2688   20.6796 N   0  0  0  0  0  0
  -29.8535  -15.5455   20.9804 N   0  0  0  0  0  0
  -31.4778  -12.4623   19.1270 H   0  0  0  0  0  0
  -30.3589  -11.3331   19.8400 H   0  0  0  0  0  0
  -29.7493  -11.7731   17.4435 H   0  0  0  0  0  0
  -29.6551  -13.4860   17.7589 H   0  0  0  0  0  0
  -27.8402  -11.2996   18.8270 H   0  0  0  0  0  0
  -27.3699  -12.6198   17.7916 H   0  0  0  0  0  0
  -27.6910  -14.2401   19.5639 H   0  0  0  0  0  0
  -28.7000  -11.9656   21.3398 H   0  0  0  0  0  0
  -28.4621  -13.5984   21.8742 H   0  0  0  0  0  0
  -25.2753   -9.5683   22.4754 H   0  0  0  0  0  0
  -23.9995   -7.4631   22.7471 H   0  0  0  0  0  0
  -21.0827   -8.8760   19.8951 H   0  0  0  0  0  0
  -22.3679  -10.9664   19.6160 H   0  0  0  0  0  0
  -21.2004   -7.6148   23.9715 H   0  0  0  0  0  0
  -21.1485   -6.0523   25.9078 H   0  0  0  0  0  0
  -22.0601   -2.7612   23.2840 H   0  0  0  0  0  0
  -22.4093  -11.9858   22.4769 H   0  0  0  0  0  0
  -21.1109  -13.1244   22.2608 H   0  0  0  0  0  0
  -24.6679  -15.8402   20.5630 H   0  0  0  0  0  0
  -26.2961  -15.6373   20.1686 H   0  0  0  0  0  0
  -26.7127  -32.5518   23.1143 H   0  0  0  0  0  0
  -25.0057  -33.9753   25.0454 H   0  0  0  0  0  0
  -22.6985  -31.3030   21.4039 H   0  0  0  0  0  0
  -23.3753  -35.9636   23.3280 H   0  0  0  0  0  0
  -24.3587  -36.8946   22.2055 H   0  0  0  0  0  0
  -23.7235  -37.6504   23.6663 H   0  0  0  0  0  0
  -26.0515  -31.5862   20.5910 H   0  0  0  0  0  0
  -26.8263  -30.8818   21.9815 H   0  0  0  0  0  0
  -28.1130  -29.0803   21.1711 H   0  0  0  0  0  0
  -26.0683  -25.9448   19.0366 H   0  0  0  0  0  0
  -23.9859  -27.2792   19.0418 H   0  0  0  0  0  0
  -23.7288  -30.5874   19.4022 H   0  0  0  0  0  0
  -22.7442  -29.2340   19.8683 H   0  0  0  0  0  0
  -25.1279  -36.1962   25.0824 H   0  0  0  0  0  0
  -20.9955  -28.3236   24.1430 H   0  0  0  0  0  0
  -20.5660  -26.2275   23.3607 H   0  0  0  0  0  0
  -21.6634  -26.7435   22.1221 H   0  0  0  0  0  0
  -19.6913  -25.6297   21.1229 H   0  0  0  0  0  0
  -19.6682  -27.3190   20.6736 H   0  0  0  0  0  0
  -17.4194  -26.6660   21.4018 H   0  0  0  0  0  0
  -18.0324  -26.0051   22.9004 H   0  0  0  0  0  0
  -19.7930  -30.7240   24.2295 H   0  0  0  0  0  0
  -17.5017  -31.6264   24.5162 H   0  0  0  0  0  0
  -15.5351  -30.2998   23.7635 H   0  0  0  0  0  0
  -15.8658  -28.0820   22.7068 H   0  0  0  0  0  0
  -24.5921  -30.7020   25.7786 H   0  0  0  0  0  0
  -24.8902  -32.2843   26.4881 H   0  0  0  0  0  0
  -25.8088  -30.8877   27.0214 H   0  0  0  0  0  0
  -26.2850  -29.6792   24.1137 H   0  0  0  0  0  0
  -27.4068  -29.7258   25.4546 H   0  0  0  0  0  0
  -27.8688  -30.4337   23.9239 H   0  0  0  0  0  0
  -27.2666  -33.3599   26.2065 H   0  0  0  0  0  0
  -28.3861  -32.6858   25.0314 H   0  0  0  0  0  0
  -28.0702  -31.8410   26.5393 H   0  0  0  0  0  0
  -28.2582  -38.0125   24.7550 H   0  0  0  0  0  0
  -28.1105  -36.2659   24.6224 H   0  0  0  0  0  0
  -27.2309  -37.1385   25.8862 H   0  0  0  0  0  0
  -20.9318  -29.8768   21.6942 H   0  0  0  0  0  0
  -26.0172  -38.2865   24.1438 H   0  0  0  0  0  0
  -31.2077  -17.2902   22.4694 H   0  0  0  0  0  0
  -28.5094  -19.4568   18.9332 H   0  0  0  0  0  0
  -32.4742  -20.2429   24.3945 H   0  0  0  0  0  0
  -31.9301  -18.5198   24.0542 H   0  0  0  0  0  0
  -28.7006  -24.3329   16.1747 H   0  0  0  0  0  0
  -29.1468  -22.6906   16.8748 H   0  0  0  0  0  0
  -31.4090  -21.0651   22.4368 H   0  0  0  0  0  0
  -28.4207  -25.2708   18.2993 H   0  0  0  0  0  0
  -30.1442  -21.8937   18.7840 H   0  0  0  0  0  0
  -28.4347  -21.5246   18.8981 H   0  0  0  0  0  0
  -28.1321  -23.5663   22.7498 H   0  0  0  0  0  0
  -29.8490  -23.4795   22.4485 H   0  0  0  0  0  0
  -27.6860  -21.4962   21.5972 H   0  0  0  0  0  0
  -28.9799  -21.2115   22.7276 H   0  0  0  0  0  0
  -27.4884  -16.5160   19.0664 H   0  0  0  0  0  0
  -29.0181  -15.9204   18.3969 H   0  0  0  0  0  0
  -28.3065  -17.4049   17.7901 H   0  0  0  0  0  0
  -29.0195  -25.8837   21.8864 H   0  0  0  0  0  0
  -27.3526  -25.5161   21.5859 H   0  0  0  0  0  0
  -28.9453  -15.2222   21.2758 H   0  0  0  0  0  0
  1 25  1  0  0  0
  1 30  2  0  0  0
  1 89  1  0  0  0
  2  3  1  0  0  0
  2 25  1  0  0  0
  2 90  1  0  0  0
  2 91  1  0  0  0
  3  4  1  0  0  0
  3 92  1  0  0  0
  3 93  1  0  0  0
  4  5  1  0  0  0
  4 94  1  0  0  0
  4 95  1  0  0  0
  5  6  1  0  0  0
  5 26  1  0  0  0
  5 96  1  0  0  0
  6 25  1  0  0  0
  6 97  1  0  0  0
  6 98  1  0  0  0
  7  8  2  0  0  0
  7 26  1  0  0  0
  7 29  1  0  0  0
  8  9  1  0  0  0
  8 22  1  0  0  0
  9 10  1  0  0  0
  9 27  2  0  0  0
 10 11  2  0  0  0
 10 15  1  0  0  0
 11 12  1  0  0  0
 11 99  1  0  0  0
 12 13  2  0  0  0
 12100  1  0  0  0
 13 14  1  0  0  0
 13 31  1  0  0  0
 14 15  2  0  0  0
 14101  1  0  0  0
 15102  1  0  0  0
 16 17  2  0  0  0
 16 21  1  0  0  0
 16 31  1  0  0  0
 17 18  1  0  0  0
 17103  1  0  0  0
 18 19  2  0  0  0
 18104  1  0  0  0
 19 20  1  0  0  0
 19 24  1  0  0  0
 20 21  2  0  0  0
 20105  1  0  0  0
 21 23  1  0  0  0
 22 28  1  0  0  0
 22 32  2  0  0  0
 26 27  1  0  0  0
 28106  1  0  0  0
 28107  1  0  0  0
 29108  1  0  0  0
 29109  1  0  0  0
 33 34  1  0  0  0
 33 66  1  0  0  0
 33 70  2  0  0  0
 34 36  1  0  0  0
 34 59  1  0  0  0
 34110  1  0  0  0
 35 44  2  0  0  0
 35 45  1  0  0  0
 35 68  1  0  0  0
 36 56  1  0  0  0
 36111  1  0  0  0
 37 39  1  0  0  0
 37 47  1  0  0  0
 37 66  1  0  0  0
 37112  1  0  0  0
 38 43  2  0  0  0
 38 46  1  0  0  0
 38 47  1  0  0  0
 39 64  1  0  0  0
 39 67  2  0  0  0
 40 52  1  0  0  0
 40 53  2  0  0  0
 40 58  1  0  0  0
 41113  1  0  0  0
 41114  1  0  0  0
 41115  1  0  0  0
 41 48  1  0  0  0
 42 43  1  0  0  0
 42 66  1  0  0  0
 42116  1  0  0  0
 42117  1  0  0  0
 43 44  1  0  0  0
 44118  1  0  0  0
 45 46  2  0  0  0
 45119  1  0  0  0
 46120  1  0  0  0
 47121  1  0  0  0
 47122  1  0  0  0
 48 56  1  0  0  0
 48 65  1  0  0  0
 48123  1  0  0  0
 49 50  1  0  0  0
 49 53  1  0  0  0
 49 64  1  0  0  0
 49124  1  0  0  0
 50 51  1  0  0  0
 50125  1  0  0  0
 50126  1  0  0  0
 51 52  1  0  0  0
 51127  1  0  0  0
 51128  1  0  0  0
 52129  1  0  0  0
 52130  1  0  0  0
 53 54  1  0  0  0
 54 55  2  0  0  0
 54131  1  0  0  0
 55 57  1  0  0  0
 55132  1  0  0  0
 56 69  2  0  0  0
 57 58  2  0  0  0
 57133  1  0  0  0
 58134  1  0  0  0
 59 60  1  0  0  0
 59 61  1  0  0  0
 59 62  1  0  0  0
 60135  1  0  0  0
 60136  1  0  0  0
 60137  1  0  0  0
 61138  1  0  0  0
 61139  1  0  0  0
 61140  1  0  0  0
 62141  1  0  0  0
 62142  1  0  0  0
 62143  1  0  0  0
 63 65  1  0  0  0
 63144  1  0  0  0
 63145  1  0  0  0
 63146  1  0  0  0
 64147  1  0  0  0
 65148  1  0  0  0
 68 87  1  0  0  0
 71 73  2  0  0  0
 71 76  1  0  0  0
 71149  1  0  0  0
 72 74  1  0  0  0
 72 75  2  0  0  0
 72150  1  0  0  0
 73 75  1  0  0  0
 73 81  1  0  0  0
 74 76  2  0  0  0
 74 86  1  0  0  0
 75 88  1  0  0  0
 76 89  1  0  0  0
 77 78  2  0  0  0
 77 82  1  0  0  0
 77 83  1  0  0  0
 78 84  1  0  0  0
 78 87  1  0  0  0
 79 81  2  0  0  0
 79151  1  0  0  0
 79152  1  0  0  0
 80 82  2  0  0  0
 80153  1  0  0  0
 80154  1  0  0  0
 81155  1  0  0  0
 82156  1  0  0  0
 83 88  1  0  0  0
 83157  1  0  0  0
 83158  1  0  0  0
 84 85  1  0  0  0
 84159  1  0  0  0
 84160  1  0  0  0
 85 88  1  0  0  0
 85161  1  0  0  0
 85162  1  0  0  0
 86163  1  0  0  0
 86164  1  0  0  0
 86165  1  0  0  0
 87166  1  0  0  0
 87167  1  0  0  0
 89168  1  0  0  0
M  ISO  4   1 100  68 101  87 101  89 100
M  END
> <chiral flag>
0

> <version>
0

> <s_m_source_file>
/data/baiqing/PycharmProjects/Reinvent-master-3.2/result/LINK_invent/BTK/process_docking_weight1_custom_product_contain_oxygen_bond_distance_aromatic_linkinvent_7_9_3/rearranged_h_0112.sdf

> <i_m_source_file_index>
91

> <r_mmod_Potential_Energy-OPLS-2005>
70.7278213500977

> <r_mmod_Stretch_Energy-OPLS-2005>
54.9182968139648

> <r_mmod_Bend_Energy-OPLS-2005>
135.234191894531

> <r_mmod_Torsional_Energy-OPLS-2005>
280.926849365234

> <r_mmod_Improper_Torsional_Energy-OPLS-2005>
8.68681049346924

> <r_mmod_Van_der_Waal_Energy-OPLS-2005>
165.488708496094

> <r_mmod_Electrostatic_Energy-OPLS-2005>
-380.880249023438

> <r_mmod_Solvation_Energy-OPLS-2005>
-215.025177001953

> <b_mmod_Minimization_Converged-OPLS-2005>
0

> <r_mmod_RMS_Derivative-OPLS-2005>
0.910005807876587

$$$$
92
                    3D
 Structure written by MMmdl.
183192  0  0  1  0            999 V2000
  -30.7357  -14.4485   20.6299 C   0  0  0  0  0  0
  -30.4223  -12.3190   19.4111 C   0  0  0  0  0  0
  -29.4906  -12.5177   18.2001 C   0  0  0  0  0  0
  -28.0135  -12.3719   18.6160 C   0  0  0  0  0  0
  -27.6621  -13.2091   19.8745 C   0  0  2  0  0  0
  -28.7040  -12.9860   20.9929 C   0  0  0  0  0  0
  -25.2580  -13.8159   20.5628 C   0  0  0  0  0  0
  -24.1837  -13.0450   20.9171 C   0  0  0  0  0  0
  -24.6398  -11.6918   20.8756 C   0  0  0  0  0  0
  -23.9058  -10.4300   21.0425 C   0  0  0  0  0  0
  -24.3605   -9.4208   21.9200 C   0  0  0  0  0  0
  -23.6287   -8.2238   22.0758 C   0  0  0  0  0  0
  -22.4265   -8.0281   21.3549 C   0  0  0  0  0  0
  -21.9910   -9.0252   20.4642 C   0  0  0  0  0  0
  -22.7242  -10.2135   20.3060 C   0  0  0  0  0  0
  -21.6841   -6.0743   22.5281 C   0  0  0  0  0  0
  -21.4004   -6.5640   23.8221 C   0  0  0  0  0  0
  -21.3650   -5.6791   24.9177 C   0  0  0  0  0  0
  -21.6041   -4.3057   24.7228 C   0  0  0  0  0  0
  -21.8821   -3.8150   23.4350 C   0  0  0  0  0  0
  -21.9186   -4.6969   22.3405 C   0  0  0  0  0  0
  -22.7864  -13.5261   21.1844 C   0  0  0  0  0  0
  -22.1658   -4.2154   21.0982 F   0  0  0  0  0  0
  -21.5624   -3.4534   25.7734 F   0  0  0  0  0  0
  -30.0362  -13.2947   20.4433 N   0  0  0  0  0  0
  -26.3029  -12.9339   20.3363 N   0  0  0  0  0  0
  -25.9325  -11.6499   20.5786 N   0  0  0  0  0  0
  -22.0495  -12.8266   22.0405 N   0  0  0  0  0  0
  -25.4271  -15.1857   20.3921 N   0  0  0  0  0  0
  -31.8243  -14.6629   20.0913 O   0  0  0  0  0  0
  -21.6623   -6.8884   21.4241 O   0  0  0  0  0  0
  -22.3552  -14.5568   20.6694 O   0  0  0  0  0  0
  -24.6172  -31.8667   23.2101 C   0  0  0  0  0  0
  -25.9066  -32.4813   23.8396 C   0  0  1  0  0  0
  -27.2264  -27.4184   20.1001 C   0  0  0  0  0  0
  -25.5929  -33.8610   24.2339 N   0  0  0  0  0  0
  -23.4050  -30.4922   21.5508 C   0  0  2  0  0  0
  -24.8493  -28.9574   20.1163 C   0  0  0  0  0  0
  -22.7426  -29.4655   22.4981 C   0  0  0  0  0  0
  -18.0277  -28.1377   22.8488 C   0  0  0  0  0  0
  -24.1484  -36.7299   23.2639 C   0  0  0  0  0  0
  -25.9362  -30.8301   21.3632 C   0  0  0  0  0  0
  -26.0131  -29.4631   20.7101 C   0  0  0  0  0  0
  -27.2086  -28.7042   20.6923 C   0  0  0  0  0  0
  -26.0424  -26.9297   19.5069 C   0  0  0  0  0  0
  -24.8597  -27.6905   19.5099 C   0  0  0  0  0  0
  -23.6136  -29.8273   20.1647 C   0  0  0  0  0  0
  -25.4104  -36.3101   24.0346 C   0  0  1  0  0  0
  -20.5870  -28.3663   23.1314 C   0  0  2  0  0  0
  -20.6765  -26.9400   22.5414 C   0  0  0  0  0  0
  -19.5747  -26.6383   21.5210 C   0  0  0  0  0  0
  -18.1925  -26.7927   22.1617 C   0  0  0  0  0  0
  -19.1527  -28.8837   23.2896 C   0  0  0  0  0  0
  -18.9453  -30.1444   23.8900 C   0  0  0  0  0  0
  -17.6455  -30.6577   24.0566 C   0  0  0  0  0  0
  -25.9041  -34.9468   23.5136 C   0  0  0  0  0  0
  -16.5345  -29.9078   23.6330 C   0  0  0  0  0  0
  -16.7265  -28.6500   23.0344 C   0  0  0  0  0  0
  -26.4494  -31.6577   25.0714 C   0  0  0  0  0  0
  -25.3766  -31.3666   26.1464 C   0  0  0  0  0  0
  -27.0317  -30.3023   24.6069 C   0  0  0  0  0  0
  -27.6077  -32.4279   25.7479 C   0  0  0  0  0  0
  -27.5582  -37.1799   24.8464 C   0  0  0  0  0  0
  -21.4152  -29.3027   22.3720 N   0  0  0  0  0  0
  -26.4285  -37.3792   23.9428 N   0  0  0  0  0  0
  -24.6715  -31.0772   22.0999 N   0  0  0  0  0  0
  -23.4201  -28.8194   23.3019 O   0  0  0  0  0  0
  -28.3773  -26.6521   20.0863 O   0  0  0  0  0  0
  -26.5583  -34.8925   22.4686 O   0  0  0  0  0  0
  -23.5361  -32.1418   23.7495 O   0  0  0  0  0  0
  -31.3869  -18.6512   20.5881 C   0  0  0  0  0  0
  -28.8325  -19.7605   20.9016 C   0  0  0  0  0  0
  -30.4045  -17.9161   21.2810 C   0  0  0  0  0  0
  -31.1227  -19.9411   20.0798 C   0  0  0  0  0  0
  -29.8230  -20.5121   20.2232 C   0  0  0  0  0  0
  -29.1140  -18.4732   21.4447 C   0  0  0  0  0  0
  -28.5954  -24.1018   19.8944 C   0  0  0  0  0  0
  -29.2140  -22.9770   20.3933 C   0  0  0  0  0  0
  -28.0204  -24.1106   18.5266 C   0  0  0  0  0  0
  -32.7571  -21.5278   20.1368 C   0  0  0  0  0  0
  -33.8957  -22.3992   19.6770 C   0  0  0  0  0  0
  -27.2632  -22.8618   18.0797 C   0  0  0  0  0  0
  -28.1971  -21.7638   17.5440 C   0  0  0  0  0  0
  -29.5843  -21.7409   18.2048 C   0  0  0  0  0  0
  -29.6946  -22.9647   21.8455 C   0  0  0  0  0  0
  -34.4431  -23.3878   20.6980 C   0  0  0  0  0  0
  -24.7029  -17.5936   23.5256 C   0  0  0  0  0  0
  -30.8007  -16.5858   21.9392 C   0  0  0  0  0  0
  -28.2770  -25.3636   20.7407 C   0  0  0  0  0  0
  -26.1768  -17.2392   23.2988 C   0  0  0  0  0  0
  -26.8986  -18.2282   22.3745 C   0  0  0  0  0  0
  -32.1758  -20.6185   19.4573 N   0  0  0  0  0  0
  -29.5038  -21.7852   19.6717 N   0  0  0  0  0  0
  -30.1596  -15.3678   21.4225 N   0  0  0  0  0  0
  -28.1416  -25.0427   17.7273 O   0  0  0  0  0  0
  -34.3862  -22.3378   18.5435 O   0  0  0  0  0  0
  -28.2068  -17.7202   22.1598 O   0  0  0  0  0  0
  -31.4649  -12.4228   19.1037 H   0  0  0  0  0  0
  -30.3310  -11.3050   19.8035 H   0  0  0  0  0  0
  -29.7330  -11.7975   17.4180 H   0  0  0  0  0  0
  -29.6549  -13.5047   17.7659 H   0  0  0  0  0  0
  -27.8265  -11.3146   18.8093 H   0  0  0  0  0  0
  -27.3596  -12.6480   17.7876 H   0  0  0  0  0  0
  -27.7065  -14.2585   19.5811 H   0  0  0  0  0  0
  -28.6818  -11.9478   21.3280 H   0  0  0  0  0  0
  -28.4537  -13.5764   21.8738 H   0  0  0  0  0  0
  -25.2743   -9.5683   22.4788 H   0  0  0  0  0  0
  -24.0001   -7.4617   22.7467 H   0  0  0  0  0  0
  -21.0852   -8.8771   19.8929 H   0  0  0  0  0  0
  -22.3718  -10.9672   19.6161 H   0  0  0  0  0  0
  -21.1999   -7.6154   23.9731 H   0  0  0  0  0  0
  -21.1463   -6.0518   25.9079 H   0  0  0  0  0  0
  -22.0608   -2.7613   23.2849 H   0  0  0  0  0  0
  -22.4080  -11.9914   22.4796 H   0  0  0  0  0  0
  -21.1108  -13.1296   22.2576 H   0  0  0  0  0  0
  -24.6594  -15.8392   20.4943 H   0  0  0  0  0  0
  -26.2821  -15.6218   20.0718 H   0  0  0  0  0  0
  -26.7134  -32.5523   23.1156 H   0  0  0  0  0  0
  -25.0127  -33.9765   25.0520 H   0  0  0  0  0  0
  -22.6946  -31.3102   21.4134 H   0  0  0  0  0  0
  -23.3755  -35.9620   23.3276 H   0  0  0  0  0  0
  -24.3590  -36.8926   22.2057 H   0  0  0  0  0  0
  -23.7212  -37.6493   23.6658 H   0  0  0  0  0  0
  -26.0492  -31.5952   20.5942 H   0  0  0  0  0  0
  -26.8258  -30.8838   21.9791 H   0  0  0  0  0  0
  -28.1088  -29.0930   21.1482 H   0  0  0  0  0  0
  -26.0227  -25.9603   19.0349 H   0  0  0  0  0  0
  -23.9658  -27.2962   19.0460 H   0  0  0  0  0  0
  -23.7265  -30.6041   19.4077 H   0  0  0  0  0  0
  -22.7367  -29.2510   19.8645 H   0  0  0  0  0  0
  -25.1270  -36.1962   25.0836 H   0  0  0  0  0  0
  -20.9967  -28.3221   24.1434 H   0  0  0  0  0  0
  -20.5670  -26.2268   23.3599 H   0  0  0  0  0  0
  -21.6636  -26.7441   22.1204 H   0  0  0  0  0  0
  -19.6908  -25.6300   21.1225 H   0  0  0  0  0  0
  -19.6696  -27.3205   20.6754 H   0  0  0  0  0  0
  -17.4205  -26.6685   21.4009 H   0  0  0  0  0  0
  -18.0318  -26.0062   22.9006 H   0  0  0  0  0  0
  -19.7928  -30.7258   24.2272 H   0  0  0  0  0  0
  -17.5010  -31.6262   24.5164 H   0  0  0  0  0  0
  -15.5346  -30.2979   23.7659 H   0  0  0  0  0  0
  -15.8667  -28.0829   22.7044 H   0  0  0  0  0  0
  -24.5972  -30.6970   25.7810 H   0  0  0  0  0  0
  -24.8918  -32.2803   26.4905 H   0  0  0  0  0  0
  -25.8141  -30.8861   27.0223 H   0  0  0  0  0  0
  -26.2844  -29.6776   24.1160 H   0  0  0  0  0  0
  -27.4137  -29.7261   25.4504 H   0  0  0  0  0  0
  -27.8660  -30.4345   23.9176 H   0  0  0  0  0  0
  -27.2723  -33.3585   26.2066 H   0  0  0  0  0  0
  -28.3897  -32.6810   25.0308 H   0  0  0  0  0  0
  -28.0732  -31.8378   26.5384 H   0  0  0  0  0  0
  -28.2577  -38.0116   24.7546 H   0  0  0  0  0  0
  -28.1092  -36.2650   24.6237 H   0  0  0  0  0  0
  -27.2311  -37.1382   25.8866 H   0  0  0  0  0  0
  -20.9321  -29.8749   21.6938 H   0  0  0  0  0  0
  -26.0163  -38.2863   24.1452 H   0  0  0  0  0  0
  -32.3791  -18.2357   20.4797 H   0  0  0  0  0  0
  -27.8527  -20.2021   21.0003 H   0  0  0  0  0  0
  -32.4242  -21.7243   21.1606 H   0  0  0  0  0  0
  -26.5088  -23.1244   17.3386 H   0  0  0  0  0  0
  -26.7246  -22.4809   18.9479 H   0  0  0  0  0  0
  -28.3240  -21.8897   16.4684 H   0  0  0  0  0  0
  -27.7149  -20.7956   17.6775 H   0  0  0  0  0  0
  -30.1889  -22.5805   17.8581 H   0  0  0  0  0  0
  -30.1082  -20.8541   17.8438 H   0  0  0  0  0  0
  -28.8606  -23.1629   22.5203 H   0  0  0  0  0  0
  -30.4461  -23.7408   21.9967 H   0  0  0  0  0  0
  -30.1497  -22.0343   22.1786 H   0  0  0  0  0  0
  -33.6326  -23.8380   21.2720 H   0  0  0  0  0  0
  -34.9956  -24.1833   20.1995 H   0  0  0  0  0  0
  -35.1144  -22.8758   21.3877 H   0  0  0  0  0  0
  -24.2274  -16.8709   24.1890 H   0  0  0  0  0  0
  -24.1492  -17.5940   22.5867 H   0  0  0  0  0  0
  -24.5974  -18.5796   23.9778 H   0  0  0  0  0  0
  -30.5529  -16.6574   22.9992 H   0  0  0  0  0  0
  -31.8870  -16.4772   21.9171 H   0  0  0  0  0  0
  -28.9585  -25.4242   21.5869 H   0  0  0  0  0  0
  -27.2906  -25.2150   21.1843 H   0  0  0  0  0  0
  -26.2423  -16.2349   22.8795 H   0  0  0  0  0  0
  -26.6943  -17.1986   24.2579 H   0  0  0  0  0  0
  -26.9331  -19.2123   22.8451 H   0  0  0  0  0  0
  -26.3714  -18.3192   21.4238 H   0  0  0  0  0  0
  -29.2533  -15.1417   21.8019 H   0  0  0  0  0  0
  1 25  1  0  0  0
  1 30  2  0  0  0
  1 94  1  0  0  0
  2  3  1  0  0  0
  2 25  1  0  0  0
  2 98  1  0  0  0
  2 99  1  0  0  0
  3  4  1  0  0  0
  3100  1  0  0  0
  3101  1  0  0  0
  4  5  1  0  0  0
  4102  1  0  0  0
  4103  1  0  0  0
  5  6  1  0  0  0
  5 26  1  0  0  0
  5104  1  0  0  0
  6 25  1  0  0  0
  6105  1  0  0  0
  6106  1  0  0  0
  7  8  2  0  0  0
  7 26  1  0  0  0
  7 29  1  0  0  0
  8  9  1  0  0  0
  8 22  1  0  0  0
  9 10  1  0  0  0
  9 27  2  0  0  0
 10 11  2  0  0  0
 10 15  1  0  0  0
 11 12  1  0  0  0
 11107  1  0  0  0
 12 13  2  0  0  0
 12108  1  0  0  0
 13 14  1  0  0  0
 13 31  1  0  0  0
 14 15  2  0  0  0
 14109  1  0  0  0
 15110  1  0  0  0
 16 17  2  0  0  0
 16 21  1  0  0  0
 16 31  1  0  0  0
 17 18  1  0  0  0
 17111  1  0  0  0
 18 19  2  0  0  0
 18112  1  0  0  0
 19 20  1  0  0  0
 19 24  1  0  0  0
 20 21  2  0  0  0
 20113  1  0  0  0
 21 23  1  0  0  0
 22 28  1  0  0  0
 22 32  2  0  0  0
 26 27  1  0  0  0
 28114  1  0  0  0
 28115  1  0  0  0
 29116  1  0  0  0
 29117  1  0  0  0
 33 34  1  0  0  0
 33 66  1  0  0  0
 33 70  2  0  0  0
 34 36  1  0  0  0
 34 59  1  0  0  0
 34118  1  0  0  0
 35 44  2  0  0  0
 35 45  1  0  0  0
 35 68  1  0  0  0
 36 56  1  0  0  0
 36119  1  0  0  0
 37 39  1  0  0  0
 37 47  1  0  0  0
 37 66  1  0  0  0
 37120  1  0  0  0
 38 43  2  0  0  0
 38 46  1  0  0  0
 38 47  1  0  0  0
 39 64  1  0  0  0
 39 67  2  0  0  0
 40 52  1  0  0  0
 40 53  2  0  0  0
 40 58  1  0  0  0
 41121  1  0  0  0
 41122  1  0  0  0
 41123  1  0  0  0
 41 48  1  0  0  0
 42 43  1  0  0  0
 42 66  1  0  0  0
 42124  1  0  0  0
 42125  1  0  0  0
 43 44  1  0  0  0
 44126  1  0  0  0
 45 46  2  0  0  0
 45127  1  0  0  0
 46128  1  0  0  0
 47129  1  0  0  0
 47130  1  0  0  0
 48 56  1  0  0  0
 48 65  1  0  0  0
 48131  1  0  0  0
 49 50  1  0  0  0
 49 53  1  0  0  0
 49 64  1  0  0  0
 49132  1  0  0  0
 50 51  1  0  0  0
 50133  1  0  0  0
 50134  1  0  0  0
 51 52  1  0  0  0
 51135  1  0  0  0
 51136  1  0  0  0
 52137  1  0  0  0
 52138  1  0  0  0
 53 54  1  0  0  0
 54 55  2  0  0  0
 54139  1  0  0  0
 55 57  1  0  0  0
 55140  1  0  0  0
 56 69  2  0  0  0
 57 58  2  0  0  0
 57141  1  0  0  0
 58142  1  0  0  0
 59 60  1  0  0  0
 59 61  1  0  0  0
 59 62  1  0  0  0
 60143  1  0  0  0
 60144  1  0  0  0
 60145  1  0  0  0
 61146  1  0  0  0
 61147  1  0  0  0
 61148  1  0  0  0
 62149  1  0  0  0
 62150  1  0  0  0
 62151  1  0  0  0
 63 65  1  0  0  0
 63152  1  0  0  0
 63153  1  0  0  0
 63154  1  0  0  0
 64155  1  0  0  0
 65156  1  0  0  0
 68 89  1  0  0  0
 71 73  2  0  0  0
 71 74  1  0  0  0
 71157  1  0  0  0
 72 75  1  0  0  0
 72 76  2  0  0  0
 72158  1  0  0  0
 73 76  1  0  0  0
 73 88  1  0  0  0
 74 75  2  0  0  0
 74 92  1  0  0  0
 75 93  1  0  0  0
 76 97  1  0  0  0
 77 78  2  0  0  0
 77 79  1  0  0  0
 77 89  1  0  0  0
 78 85  1  0  0  0
 78 93  1  0  0  0
 79 82  1  0  0  0
 79 95  2  0  0  0
 80 81  1  0  0  0
 80 92  2  0  0  0
 80159  1  0  0  0
 81 86  1  0  0  0
 81 96  2  0  0  0
 82 83  1  0  0  0
 82160  1  0  0  0
 82161  1  0  0  0
 83 84  1  0  0  0
 83162  1  0  0  0
 83163  1  0  0  0
 84 93  1  0  0  0
 84164  1  0  0  0
 84165  1  0  0  0
 85166  1  0  0  0
 85167  1  0  0  0
 85168  1  0  0  0
 86169  1  0  0  0
 86170  1  0  0  0
 86171  1  0  0  0
 87 90  1  0  0  0
 87172  1  0  0  0
 87173  1  0  0  0
 87174  1  0  0  0
 88 94  1  0  0  0
 88175  1  0  0  0
 88176  1  0  0  0
 89177  1  0  0  0
 89178  1  0  0  0
 90 91  1  0  0  0
 90179  1  0  0  0
 90180  1  0  0  0
 91 97  1  0  0  0
 91181  1  0  0  0
 91182  1  0  0  0
 94183  1  0  0  0
M  ISO  4   1 100  68 101  89 101  94 100
M  END
> <chiral flag>
0

> <version>
0

> <s_m_source_file>
/data/baiqing/PycharmProjects/Reinvent-master-3.2/result/LINK_invent/BTK/process_docking_weight1_custom_product_contain_oxygen_bond_distance_aromatic_linkinvent_7_9_3/rearranged_h_0112.sdf

> <i_m_source_file_index>
92

> <r_mmod_Potential_Energy-OPLS-2005>
11.441837310791

> <r_mmod_Stretch_Energy-OPLS-2005>
52.9409255981445

> <r_mmod_Bend_Energy-OPLS-2005>
116.271102905273

> <r_mmod_Torsional_Energy-OPLS-2005>
278.081481933594

> <r_mmod_Improper_Torsional_Energy-OPLS-2005>
2.54399299621582

> <r_mmod_Van_der_Waal_Energy-OPLS-2005>
167.03581237793

> <r_mmod_Electrostatic_Energy-OPLS-2005>
-372.528656005859

> <r_mmod_Solvation_Energy-OPLS-2005>
-244.83772277832

> <b_mmod_Minimization_Converged-OPLS-2005>
0

> <r_mmod_RMS_Derivative-OPLS-2005>
1.35607290267944

$$$$
93
                    3D
 Structure written by MMmdl.
164172  0  0  1  0            999 V2000
  -30.7272  -14.5616   20.6050 C   0  0  0  0  0  0
  -30.4129  -12.3875   19.4435 C   0  0  0  0  0  0
  -29.4918  -12.5443   18.2177 C   0  0  0  0  0  0
  -28.0202  -12.3790   18.6330 C   0  0  0  0  0  0
  -27.6585  -13.2267   19.8824 C   0  0  2  0  0  0
  -28.7038  -13.0610   21.0095 C   0  0  0  0  0  0
  -25.2579  -13.8170   20.5713 C   0  0  0  0  0  0
  -24.1857  -13.0432   20.9197 C   0  0  0  0  0  0
  -24.6442  -11.6900   20.8775 C   0  0  0  0  0  0
  -23.9097  -10.4289   21.0425 C   0  0  0  0  0  0
  -24.3634   -9.4200   21.9204 C   0  0  0  0  0  0
  -23.6304   -8.2237   22.0755 C   0  0  0  0  0  0
  -22.4277   -8.0284   21.3559 C   0  0  0  0  0  0
  -21.9934   -9.0261   20.4660 C   0  0  0  0  0  0
  -22.7269  -10.2133   20.3079 C   0  0  0  0  0  0
  -21.6847   -6.0732   22.5274 C   0  0  0  0  0  0
  -21.4020   -6.5649   23.8208 C   0  0  0  0  0  0
  -21.3661   -5.6796   24.9176 C   0  0  0  0  0  0
  -21.6046   -4.3059   24.7220 C   0  0  0  0  0  0
  -21.8819   -3.8151   23.4350 C   0  0  0  0  0  0
  -21.9195   -4.6961   22.3407 C   0  0  0  0  0  0
  -22.7875  -13.5229   21.1817 C   0  0  0  0  0  0
  -22.1658   -4.2148   21.0974 F   0  0  0  0  0  0
  -21.5624   -3.4546   25.7738 F   0  0  0  0  0  0
  -30.0192  -13.3972   20.4513 N   0  0  0  0  0  0
  -26.3028  -12.9388   20.3462 N   0  0  0  0  0  0
  -25.9376  -11.6523   20.5837 N   0  0  0  0  0  0
  -22.0534  -12.8236   22.0395 N   0  0  0  0  0  0
  -25.4306  -15.1863   20.4015 N   0  0  0  0  0  0
  -31.8016  -14.7326   20.0263 O   0  0  0  0  0  0
  -21.6642   -6.8876   21.4238 O   0  0  0  0  0  0
  -22.3570  -14.5519   20.6621 O   0  0  0  0  0  0
  -24.6226  -31.8598   23.2031 C   0  0  0  0  0  0
  -25.9075  -32.4765   23.8359 C   0  0  1  0  0  0
  -27.2437  -27.3576   20.1018 C   0  0  0  0  0  0
  -25.5931  -33.8587   24.2295 N   0  0  0  0  0  0
  -23.4146  -30.4827   21.5426 C   0  0  2  0  0  0
  -24.8634  -28.9336   20.1108 C   0  0  0  0  0  0
  -22.7473  -29.4609   22.4937 C   0  0  0  0  0  0
  -18.0320  -28.1381   22.8519 C   0  0  0  0  0  0
  -24.1500  -36.7298   23.2639 C   0  0  0  0  0  0
  -25.9482  -30.8040   21.3669 C   0  0  0  0  0  0
  -26.0262  -29.4304   20.7128 C   0  0  0  0  0  0
  -27.2106  -28.6459   20.7083 C   0  0  0  0  0  0
  -26.0533  -26.8911   19.4996 C   0  0  0  0  0  0
  -24.8752  -27.6648   19.5038 C   0  0  0  0  0  0
  -23.6275  -29.8119   20.1598 C   0  0  0  0  0  0
  -25.4121  -36.3072   24.0326 C   0  0  1  0  0  0
  -20.5887  -28.3715   23.1272 C   0  0  2  0  0  0
  -20.6833  -26.9443   22.5423 C   0  0  0  0  0  0
  -19.5781  -26.6286   21.5322 C   0  0  0  0  0  0
  -18.1986  -26.7906   22.1755 C   0  0  0  0  0  0
  -19.1542  -28.8887   23.2850 C   0  0  0  0  0  0
  -18.9451  -30.1510   23.8810 C   0  0  0  0  0  0
  -17.6438  -30.6571   24.0550 C   0  0  0  0  0  0
  -25.9043  -34.9438   23.5094 C   0  0  0  0  0  0
  -16.5345  -29.9033   23.6369 C   0  0  0  0  0  0
  -16.7300  -28.6443   23.0414 C   0  0  0  0  0  0
  -26.4507  -31.6589   25.0728 C   0  0  0  0  0  0
  -25.3768  -31.3706   26.1463 C   0  0  0  0  0  0
  -27.0365  -30.3033   24.6157 C   0  0  0  0  0  0
  -27.6069  -32.4339   25.7501 C   0  0  0  0  0  0
  -27.5577  -37.1794   24.8459 C   0  0  0  0  0  0
  -21.4196  -29.3064   22.3663 N   0  0  0  0  0  0
  -26.4301  -37.3760   23.9394 N   0  0  0  0  0  0
  -24.6802  -31.0665   22.0936 N   0  0  0  0  0  0
  -23.4221  -28.8119   23.2995 O   0  0  0  0  0  0
  -28.4140  -26.5941   20.1484 O   0  0  0  0  0  0
  -26.5585  -34.8886   22.4644 O   0  0  0  0  0  0
  -23.5398  -32.1392   23.7374 O   0  0  0  0  0  0
  -28.2027  -16.5473   22.0630 C   0  0  0  0  0  0
  -27.7840  -18.9333   21.7445 C   0  0  0  0  0  0
  -29.8264  -17.9253   20.8821 C   0  0  0  0  0  0
  -27.3837  -17.6808   22.2600 C   0  0  0  0  0  0
  -29.4362  -16.6332   21.3869 C   0  0  0  0  0  0
  -29.0017  -19.0926   21.0350 C   0  0  0  0  0  0
  -28.2593  -24.0154   20.1402 C   0  0  0  0  0  0
  -28.9617  -22.8422   20.0804 C   0  0  0  0  0  0
  -23.6298  -17.5406   22.4198 C   0  0  0  0  0  0
  -28.5779  -25.3445   19.4052 C   0  0  0  0  0  0
  -28.5436  -21.5135   20.7617 C   0  0  0  0  0  0
  -24.9009  -18.3786   22.6263 C   0  0  0  0  0  0
  -26.1167  -17.5386   23.1103 C   0  0  2  0  0  0
  -30.3411  -15.5045   21.5066 N   0  0  0  0  0  0
  -26.4347  -17.8404   24.5159 N   0  3  0  0  0  0
  -29.3985  -20.3478   20.5299 O   0  0  0  0  0  0
  -31.4586  -12.4775   19.1429 H   0  0  0  0  0  0
  -30.3159  -11.3855   19.8631 H   0  0  0  0  0  0
  -29.7472  -11.8122   17.4512 H   0  0  0  0  0  0
  -29.6397  -13.5276   17.7670 H   0  0  0  0  0  0
  -27.8532  -11.3218   18.8447 H   0  0  0  0  0  0
  -27.3629  -12.6382   17.8034 H   0  0  0  0  0  0
  -27.6835  -14.2727   19.5721 H   0  0  0  0  0  0
  -28.7067  -12.0356   21.3821 H   0  0  0  0  0  0
  -28.4675  -13.6797   21.8703 H   0  0  0  0  0  0
  -25.2781   -9.5636   22.4788 H   0  0  0  0  0  0
  -24.0000   -7.4614   22.7476 H   0  0  0  0  0  0
  -21.0862   -8.8811   19.8961 H   0  0  0  0  0  0
  -22.3769  -10.9679   19.6193 H   0  0  0  0  0  0
  -21.2025   -7.6156   23.9710 H   0  0  0  0  0  0
  -21.1477   -6.0532   25.9073 H   0  0  0  0  0  0
  -22.0601   -2.7611   23.2853 H   0  0  0  0  0  0
  -22.4153  -11.9898   22.4780 H   0  0  0  0  0  0
  -21.1146  -13.1257   22.2575 H   0  0  0  0  0  0
  -24.6382  -15.8153   20.4146 H   0  0  0  0  0  0
  -26.2694  -15.6060   20.0209 H   0  0  0  0  0  0
  -26.7160  -32.5442   23.1118 H   0  0  0  0  0  0
  -25.0120  -33.9751   25.0471 H   0  0  0  0  0  0
  -22.7045  -31.3003   21.3977 H   0  0  0  0  0  0
  -23.3738  -35.9651   23.3310 H   0  0  0  0  0  0
  -24.3605  -36.8913   22.2054 H   0  0  0  0  0  0
  -23.7270  -37.6514   23.6665 H   0  0  0  0  0  0
  -26.0691  -31.5699   20.5987 H   0  0  0  0  0  0
  -26.8323  -30.8568   21.9906 H   0  0  0  0  0  0
  -28.1062  -29.0239   21.1837 H   0  0  0  0  0  0
  -26.0039  -25.9144   19.0446 H   0  0  0  0  0  0
  -23.9775  -27.2706   19.0459 H   0  0  0  0  0  0
  -23.7369  -30.5850   19.3969 H   0  0  0  0  0  0
  -22.7501  -29.2339   19.8664 H   0  0  0  0  0  0
  -25.1307  -36.1921   25.0824 H   0  0  0  0  0  0
  -21.0006  -28.3262   24.1383 H   0  0  0  0  0  0
  -20.5962  -26.2352   23.3641 H   0  0  0  0  0  0
  -21.6663  -26.7575   22.1070 H   0  0  0  0  0  0
  -19.6704  -27.3013   20.6740 H   0  0  0  0  0  0
  -19.6932  -25.6140   21.1485 H   0  0  0  0  0  0
  -17.4252  -26.6572   21.4219 H   0  0  0  0  0  0
  -18.0432  -26.0166   22.9265 H   0  0  0  0  0  0
  -19.7942  -30.7376   24.2061 H   0  0  0  0  0  0
  -17.4964  -31.6250   24.5128 H   0  0  0  0  0  0
  -15.5333  -30.2904   23.7701 H   0  0  0  0  0  0
  -15.8739  -28.0671   22.7200 H   0  0  0  0  0  0
  -24.5928  -30.7081   25.7783 H   0  0  0  0  0  0
  -24.8975  -32.2867   26.4938 H   0  0  0  0  0  0
  -25.8110  -30.8846   27.0204 H   0  0  0  0  0  0
  -26.2931  -29.6747   24.1239 H   0  0  0  0  0  0
  -27.4152  -29.7329   25.4646 H   0  0  0  0  0  0
  -27.8757  -30.4349   23.9316 H   0  0  0  0  0  0
  -27.2676  -33.3618   26.2114 H   0  0  0  0  0  0
  -28.3861  -32.6932   25.0327 H   0  0  0  0  0  0
  -28.0756  -31.8449   26.5388 H   0  0  0  0  0  0
  -28.2576  -38.0099   24.7486 H   0  0  0  0  0  0
  -28.1081  -36.2623   24.6312 H   0  0  0  0  0  0
  -27.2286  -37.1471   25.8856 H   0  0  0  0  0  0
  -20.9388  -29.8863   21.6914 H   0  0  0  0  0  0
  -26.0174  -38.2836   24.1388 H   0  0  0  0  0  0
  -27.9081  -15.6163   22.5232 H   0  0  0  0  0  0
  -27.1452  -19.7795   21.9374 H   0  0  0  0  0  0
  -30.7867  -18.0402   20.4023 H   0  0  0  0  0  0
  -27.3516  -24.0365   20.7259 H   0  0  0  0  0  0
  -29.8732  -22.7954   19.4978 H   0  0  0  0  0  0
  -22.7546  -18.1723   22.2876 H   0  0  0  0  0  0
  -23.4380  -16.8871   23.2710 H   0  0  0  0  0  0
  -23.7139  -16.9184   21.5305 H   0  0  0  0  0  0
  -28.0248  -25.3696   18.4671 H   0  0  0  0  0  0
  -29.6211  -25.2976   19.0975 H   0  0  0  0  0  0
  -27.5399  -21.3006   20.3918 H   0  0  0  0  0  0
  -28.4661  -21.6969   21.8339 H   0  0  0  0  0  0
  -24.6868  -19.1852   23.3305 H   0  0  0  0  0  0
  -25.1142  -18.8743   21.6807 H   0  0  0  0  0  0
  -25.8351  -16.4829   23.0763 H   0  0  0  0  0  0
  -31.2171  -15.8485   21.8696 H   0  0  0  0  0  0
  -26.6534  -18.8134   24.6262 H   0  0  0  0  0  0
  -27.2309  -17.3081   24.8157 H   0  0  0  0  0  0
  -25.6622  -17.6047   25.1128 H   0  0  0  0  0  0
  1 25  1  0  0  0
  1 30  2  0  0  0
  1 84  1  0  0  0
  2  3  1  0  0  0
  2 25  1  0  0  0
  2 87  1  0  0  0
  2 88  1  0  0  0
  3  4  1  0  0  0
  3 89  1  0  0  0
  3 90  1  0  0  0
  4  5  1  0  0  0
  4 91  1  0  0  0
  4 92  1  0  0  0
  5  6  1  0  0  0
  5 26  1  0  0  0
  5 93  1  0  0  0
  6 25  1  0  0  0
  6 94  1  0  0  0
  6 95  1  0  0  0
  7  8  2  0  0  0
  7 26  1  0  0  0
  7 29  1  0  0  0
  8  9  1  0  0  0
  8 22  1  0  0  0
  9 10  1  0  0  0
  9 27  2  0  0  0
 10 11  2  0  0  0
 10 15  1  0  0  0
 11 12  1  0  0  0
 11 96  1  0  0  0
 12 13  2  0  0  0
 12 97  1  0  0  0
 13 14  1  0  0  0
 13 31  1  0  0  0
 14 15  2  0  0  0
 14 98  1  0  0  0
 15 99  1  0  0  0
 16 17  2  0  0  0
 16 21  1  0  0  0
 16 31  1  0  0  0
 17 18  1  0  0  0
 17100  1  0  0  0
 18 19  2  0  0  0
 18101  1  0  0  0
 19 20  1  0  0  0
 19 24  1  0  0  0
 20 21  2  0  0  0
 20102  1  0  0  0
 21 23  1  0  0  0
 22 28  1  0  0  0
 22 32  2  0  0  0
 26 27  1  0  0  0
 28103  1  0  0  0
 28104  1  0  0  0
 29105  1  0  0  0
 29106  1  0  0  0
 33 34  1  0  0  0
 33 66  1  0  0  0
 33 70  2  0  0  0
 34 36  1  0  0  0
 34 59  1  0  0  0
 34107  1  0  0  0
 35 44  2  0  0  0
 35 45  1  0  0  0
 35 68  1  0  0  0
 36 56  1  0  0  0
 36108  1  0  0  0
 37 39  1  0  0  0
 37 47  1  0  0  0
 37 66  1  0  0  0
 37109  1  0  0  0
 38 43  2  0  0  0
 38 46  1  0  0  0
 38 47  1  0  0  0
 39 64  1  0  0  0
 39 67  2  0  0  0
 40 52  1  0  0  0
 40 53  2  0  0  0
 40 58  1  0  0  0
 41110  1  0  0  0
 41111  1  0  0  0
 41112  1  0  0  0
 41 48  1  0  0  0
 42 43  1  0  0  0
 42 66  1  0  0  0
 42113  1  0  0  0
 42114  1  0  0  0
 43 44  1  0  0  0
 44115  1  0  0  0
 45 46  2  0  0  0
 45116  1  0  0  0
 46117  1  0  0  0
 47118  1  0  0  0
 47119  1  0  0  0
 48 56  1  0  0  0
 48 65  1  0  0  0
 48120  1  0  0  0
 49 50  1  0  0  0
 49 53  1  0  0  0
 49 64  1  0  0  0
 49121  1  0  0  0
 50 51  1  0  0  0
 50122  1  0  0  0
 50123  1  0  0  0
 51 52  1  0  0  0
 51124  1  0  0  0
 51125  1  0  0  0
 52126  1  0  0  0
 52127  1  0  0  0
 53 54  1  0  0  0
 54 55  2  0  0  0
 54128  1  0  0  0
 55 57  1  0  0  0
 55129  1  0  0  0
 56 69  2  0  0  0
 57 58  2  0  0  0
 57130  1  0  0  0
 58131  1  0  0  0
 59 60  1  0  0  0
 59 61  1  0  0  0
 59 62  1  0  0  0
 60132  1  0  0  0
 60133  1  0  0  0
 60134  1  0  0  0
 61135  1  0  0  0
 61136  1  0  0  0
 61137  1  0  0  0
 62138  1  0  0  0
 62139  1  0  0  0
 62140  1  0  0  0
 63 65  1  0  0  0
 63141  1  0  0  0
 63142  1  0  0  0
 63143  1  0  0  0
 64144  1  0  0  0
 65145  1  0  0  0
 68 80  1  0  0  0
 71 74  2  0  0  0
 71 75  1  0  0  0
 71146  1  0  0  0
 72 74  1  0  0  0
 72 76  2  0  0  0
 72147  1  0  0  0
 73 75  2  0  0  0
 73 76  1  0  0  0
 73148  1  0  0  0
 74 83  1  0  0  0
 75 84  1  0  0  0
 76 86  1  0  0  0
 77 78  2  0  0  0
 77 80  1  0  0  0
 77149  1  0  0  0
 78 81  1  0  0  0
 78150  1  0  0  0
 79 82  1  0  0  0
 79151  1  0  0  0
 79152  1  0  0  0
 79153  1  0  0  0
 80154  1  0  0  0
 80155  1  0  0  0
 81 86  1  0  0  0
 81156  1  0  0  0
 81157  1  0  0  0
 82 83  1  0  0  0
 82158  1  0  0  0
 82159  1  0  0  0
 83 85  1  0  0  0
 83160  1  0  0  0
 84161  1  0  0  0
 85162  1  0  0  0
 85163  1  0  0  0
 85164  1  0  0  0
M  CHG  1  85   1
M  ISO  4   1 100  68 101  80 101  84 100
M  END
> <chiral flag>
0

> <version>
0

> <s_m_source_file>
/data/baiqing/PycharmProjects/Reinvent-master-3.2/result/LINK_invent/BTK/process_docking_weight1_custom_product_contain_oxygen_bond_distance_aromatic_linkinvent_7_9_3/rearranged_h_0112.sdf

> <i_m_source_file_index>
93

> <r_mmod_Potential_Energy-OPLS-2005>
-197.625457763672

> <r_mmod_Stretch_Energy-OPLS-2005>
66.9066543579102

> <r_mmod_Bend_Energy-OPLS-2005>
158.867630004883

> <r_mmod_Torsional_Energy-OPLS-2005>
263.661010742188

> <r_mmod_Improper_Torsional_Energy-OPLS-2005>
11.1779174804688

> <r_mmod_Van_der_Waal_Energy-OPLS-2005>
137.473693847656

> <r_mmod_Electrostatic_Energy-OPLS-2005>
-362.803863525391

> <r_mmod_Solvation_Energy-OPLS-2005>
-501.13525390625

> <b_mmod_Minimization_Converged-OPLS-2005>
0

> <r_mmod_RMS_Derivative-OPLS-2005>
4.99796772003174

$$$$
94
                    3D
 Structure written by MMmdl.
160168  0  0  1  0            999 V2000
  -30.6712  -14.7236   20.5629 C   0  0  0  0  0  0
  -30.4218  -12.4681   19.4908 C   0  0  0  0  0  0
  -29.5077  -12.5426   18.2494 C   0  0  0  0  0  0
  -28.0352  -12.3626   18.6562 C   0  0  0  0  0  0
  -27.6511  -13.2384   19.8784 C   0  0  2  0  0  0
  -28.6935  -13.1316   21.0164 C   0  0  0  0  0  0
  -25.2402  -13.8168   20.5325 C   0  0  0  0  0  0
  -24.1768  -13.0436   20.9094 C   0  0  0  0  0  0
  -24.6413  -11.6930   20.8785 C   0  0  0  0  0  0
  -23.9088  -10.4301   21.0440 C   0  0  0  0  0  0
  -24.3628   -9.4211   21.9217 C   0  0  0  0  0  0
  -23.6297   -8.2247   22.0772 C   0  0  0  0  0  0
  -22.4285   -8.0286   21.3551 C   0  0  0  0  0  0
  -21.9931   -9.0263   20.4653 C   0  0  0  0  0  0
  -22.7263  -10.2142   20.3075 C   0  0  0  0  0  0
  -21.6856   -6.0735   22.5275 C   0  0  0  0  0  0
  -21.4014   -6.5641   23.8207 C   0  0  0  0  0  0
  -21.3656   -5.6793   24.9171 C   0  0  0  0  0  0
  -21.6041   -4.3055   24.7221 C   0  0  0  0  0  0
  -21.8820   -3.8147   23.4341 C   0  0  0  0  0  0
  -21.9193   -4.6963   22.3397 C   0  0  0  0  0  0
  -22.7800  -13.5218   21.1803 C   0  0  0  0  0  0
  -22.1664   -4.2148   21.0976 F   0  0  0  0  0  0
  -21.5625   -3.4541   25.7735 F   0  0  0  0  0  0
  -29.9973  -13.5145   20.4631 N   0  0  0  0  0  0
  -26.2971  -12.9438   20.3382 N   0  0  0  0  0  0
  -25.9376  -11.6580   20.5909 N   0  0  0  0  0  0
  -22.0496  -12.8217   22.0408 N   0  0  0  0  0  0
  -25.3914  -15.1811   20.3098 N   0  0  0  0  0  0
  -31.7390  -14.8544   19.9536 O   0  0  0  0  0  0
  -21.6647   -6.8881   21.4238 O   0  0  0  0  0  0
  -22.3449  -14.5518   20.6668 O   0  0  0  0  0  0
  -24.6336  -31.8529   23.1981 C   0  0  0  0  0  0
  -25.9154  -32.4741   23.8328 C   0  0  1  0  0  0
  -27.2131  -27.2396   20.1355 C   0  0  0  0  0  0
  -25.5942  -33.8541   24.2245 N   0  0  0  0  0  0
  -23.4313  -30.4778   21.5410 C   0  0  2  0  0  0
  -24.8795  -28.9251   20.1100 C   0  0  0  0  0  0
  -22.7514  -29.4590   22.4886 C   0  0  0  0  0  0
  -18.0292  -28.1387   22.8476 C   0  0  0  0  0  0
  -24.1482  -36.7262   23.2642 C   0  0  0  0  0  0
  -25.9811  -30.7598   21.3830 C   0  0  0  0  0  0
  -26.0532  -29.3817   20.7236 C   0  0  0  0  0  0
  -27.2255  -28.5524   20.7250 C   0  0  0  0  0  0
  -26.0229  -26.8700   19.4707 C   0  0  0  0  0  0
  -24.8705  -27.6779   19.4717 C   0  0  0  0  0  0
  -23.6521  -29.8154   20.1564 C   0  0  0  0  0  0
  -25.4107  -36.3052   24.0327 C   0  0  1  0  0  0
  -20.5901  -28.3697   23.1254 C   0  0  2  0  0  0
  -20.6775  -26.9406   22.5405 C   0  0  0  0  0  0
  -19.5757  -26.6375   21.5209 C   0  0  0  0  0  0
  -18.1935  -26.7929   22.1609 C   0  0  0  0  0  0
  -19.1550  -28.8858   23.2864 C   0  0  0  0  0  0
  -18.9472  -30.1460   23.8884 C   0  0  0  0  0  0
  -17.6471  -30.6588   24.0565 C   0  0  0  0  0  0
  -25.9056  -34.9430   23.5086 C   0  0  0  0  0  0
  -16.5360  -29.9082   23.6338 C   0  0  0  0  0  0
  -16.7277  -28.6501   23.0354 C   0  0  0  0  0  0
  -26.4507  -31.6579   25.0728 C   0  0  0  0  0  0
  -25.3717  -31.3742   26.1445 C   0  0  0  0  0  0
  -27.0367  -30.2990   24.6242 C   0  0  0  0  0  0
  -27.6057  -32.4323   25.7501 C   0  0  0  0  0  0
  -27.5570  -37.1779   24.8464 C   0  0  0  0  0  0
  -21.4215  -29.3045   22.3642 N   0  0  0  0  0  0
  -26.4272  -37.3764   23.9422 N   0  0  0  0  0  0
  -24.7012  -31.0484   22.0966 N   0  0  0  0  0  0
  -23.4211  -28.8122   23.2986 O   0  0  0  0  0  0
  -28.2737  -26.2981   20.1905 O   0  0  0  0  0  0
  -26.5632  -34.8914   22.4660 O   0  0  0  0  0  0
  -23.5476  -32.1350   23.7264 O   0  0  0  0  0  0
  -29.7169  -18.4169   20.8270 C   0  0  0  0  0  0
  -27.6465  -19.4683   21.4918 C   0  0  0  0  0  0
  -29.3370  -17.1210   21.4023 C   0  0  0  0  0  0
  -28.0924  -17.1116   22.1245 C   0  0  0  0  0  0
  -27.2513  -18.2645   22.1018 C   0  0  0  0  0  0
  -28.9111  -19.6361   20.8940 C   0  0  0  0  0  0
  -27.7228  -15.9365   22.9769 C   0  0  0  0  0  0
  -26.5109  -15.4069   23.2296 C   0  0  0  0  0  0
  -30.3087  -15.8945   21.5940 C   0  0  0  0  0  0
  -28.8906  -23.6323   20.2878 C   0  0  0  0  0  0
  -26.2681  -14.2085   24.1211 C   0  0  0  0  0  0
  -27.8907  -24.8705   20.5387 C   0  0  0  0  0  0
  -28.4105  -22.1418   20.6789 C   0  0  0  0  0  0
  -30.9533  -15.8720   22.6885 N   0  0  0  0  0  0
  -26.0308  -18.3054   22.7788 N   0  0  0  0  0  0
  -30.0090  -23.8219   19.7964 O   0  0  0  0  0  0
  -29.3072  -20.9470   20.4499 O   0  0  0  0  0  0
  -31.4655  -12.5709   19.1907 H   0  0  0  0  0  0
  -30.3560  -11.4806   19.9505 H   0  0  0  0  0  0
  -29.7917  -11.7792   17.5239 H   0  0  0  0  0  0
  -29.6398  -13.5050   17.7528 H   0  0  0  0  0  0
  -27.8844  -11.3093   18.8955 H   0  0  0  0  0  0
  -27.3794  -12.5803   17.8127 H   0  0  0  0  0  0
  -27.6626  -14.2724   19.5329 H   0  0  0  0  0  0
  -28.7287  -12.1147   21.4094 H   0  0  0  0  0  0
  -28.4219  -13.7551   21.8589 H   0  0  0  0  0  0
  -25.2768   -9.5684   22.4801 H   0  0  0  0  0  0
  -23.9994   -7.4639   22.7497 H   0  0  0  0  0  0
  -21.0865   -8.8780   19.8955 H   0  0  0  0  0  0
  -22.3724  -10.9680   19.6179 H   0  0  0  0  0  0
  -21.2010   -7.6151   23.9710 H   0  0  0  0  0  0
  -21.1475   -6.0525   25.9071 H   0  0  0  0  0  0
  -22.0600   -2.7609   23.2843 H   0  0  0  0  0  0
  -22.4135  -11.9873   22.4760 H   0  0  0  0  0  0
  -21.1127  -13.1238   22.2670 H   0  0  0  0  0  0
  -24.6326  -15.8394   20.4430 H   0  0  0  0  0  0
  -26.2638  -15.6308   20.0673 H   0  0  0  0  0  0
  -26.7220  -32.5383   23.1065 H   0  0  0  0  0  0
  -25.0105  -33.9682   25.0402 H   0  0  0  0  0  0
  -22.7292  -31.3011   21.3935 H   0  0  0  0  0  0
  -23.3758  -35.9580   23.3292 H   0  0  0  0  0  0
  -24.3574  -36.8894   22.2060 H   0  0  0  0  0  0
  -23.7220  -37.6448   23.6677 H   0  0  0  0  0  0
  -26.1260  -31.5200   20.6143 H   0  0  0  0  0  0
  -26.8566  -30.8058   22.0183 H   0  0  0  0  0  0
  -28.1207  -28.8933   21.2259 H   0  0  0  0  0  0
  -25.9550  -25.9308   18.9433 H   0  0  0  0  0  0
  -23.9769  -27.3278   18.9737 H   0  0  0  0  0  0
  -23.7806  -30.5942   19.4039 H   0  0  0  0  0  0
  -22.7695  -29.2527   19.8469 H   0  0  0  0  0  0
  -25.1285  -36.1883   25.0817 H   0  0  0  0  0  0
  -20.9999  -28.3279   24.1372 H   0  0  0  0  0  0
  -20.5655  -26.2308   23.3617 H   0  0  0  0  0  0
  -21.6643  -26.7409   22.1211 H   0  0  0  0  0  0
  -19.6923  -25.6288   21.1237 H   0  0  0  0  0  0
  -19.6708  -27.3189   20.6747 H   0  0  0  0  0  0
  -17.4204  -26.6689   21.4012 H   0  0  0  0  0  0
  -18.0321  -26.0069   22.9000 H   0  0  0  0  0  0
  -19.7956  -30.7280   24.2239 H   0  0  0  0  0  0
  -17.5029  -31.6267   24.5171 H   0  0  0  0  0  0
  -15.5364  -30.2986   23.7679 H   0  0  0  0  0  0
  -15.8672  -28.0825   22.7074 H   0  0  0  0  0  0
  -24.5949  -30.7009   25.7797 H   0  0  0  0  0  0
  -24.8843  -32.2910   26.4769 H   0  0  0  0  0  0
  -25.8037  -30.9024   27.0282 H   0  0  0  0  0  0
  -26.2969  -29.6720   24.1251 H   0  0  0  0  0  0
  -27.4026  -29.7263   25.4774 H   0  0  0  0  0  0
  -27.8851  -30.4249   23.9512 H   0  0  0  0  0  0
  -27.2677  -33.3661   26.1999 H   0  0  0  0  0  0
  -28.3916  -32.6811   25.0359 H   0  0  0  0  0  0
  -28.0665  -31.8487   26.5479 H   0  0  0  0  0  0
  -28.2570  -38.0095   24.7531 H   0  0  0  0  0  0
  -28.1081  -36.2625   24.6251 H   0  0  0  0  0  0
  -27.2296  -37.1377   25.8869 H   0  0  0  0  0  0
  -20.9393  -29.8779   21.6862 H   0  0  0  0  0  0
  -26.0139  -38.2822   24.1466 H   0  0  0  0  0  0
  -30.6994  -18.4935   20.3841 H   0  0  0  0  0  0
  -26.9619  -20.2995   21.5577 H   0  0  0  0  0  0
  -28.5385  -15.4592   23.4969 H   0  0  0  0  0  0
  -25.6230  -15.8203   22.7775 H   0  0  0  0  0  0
  -27.1949  -13.8270   24.5508 H   0  0  0  0  0  0
  -25.8061  -13.4060   23.5454 H   0  0  0  0  0  0
  -25.5935  -14.4734   24.9356 H   0  0  0  0  0  0
  -27.6511  -24.8615   21.6022 H   0  0  0  0  0  0
  -26.9682  -24.5839   20.0407 H   0  0  0  0  0  0
  -27.4780  -21.9666   20.1402 H   0  0  0  0  0  0
  -28.1554  -22.1732   21.7381 H   0  0  0  0  0  0
  -30.7016  -16.6571   23.2761 H   0  0  0  0  0  0
  -25.6391  -19.2045   23.0347 H   0  0  0  0  0  0
  -25.8774  -17.5919   23.4825 H   0  0  0  0  0  0
  1 25  1  0  0  0
  1 30  2  0  0  0
  1 79  1  0  0  0
  2  3  1  0  0  0
  2 25  1  0  0  0
  2 88  1  0  0  0
  2 89  1  0  0  0
  3  4  1  0  0  0
  3 90  1  0  0  0
  3 91  1  0  0  0
  4  5  1  0  0  0
  4 92  1  0  0  0
  4 93  1  0  0  0
  5  6  1  0  0  0
  5 26  1  0  0  0
  5 94  1  0  0  0
  6 25  1  0  0  0
  6 95  1  0  0  0
  6 96  1  0  0  0
  7  8  2  0  0  0
  7 26  1  0  0  0
  7 29  1  0  0  0
  8  9  1  0  0  0
  8 22  1  0  0  0
  9 10  1  0  0  0
  9 27  2  0  0  0
 10 11  2  0  0  0
 10 15  1  0  0  0
 11 12  1  0  0  0
 11 97  1  0  0  0
 12 13  2  0  0  0
 12 98  1  0  0  0
 13 14  1  0  0  0
 13 31  1  0  0  0
 14 15  2  0  0  0
 14 99  1  0  0  0
 15100  1  0  0  0
 16 17  2  0  0  0
 16 21  1  0  0  0
 16 31  1  0  0  0
 17 18  1  0  0  0
 17101  1  0  0  0
 18 19  2  0  0  0
 18102  1  0  0  0
 19 20  1  0  0  0
 19 24  1  0  0  0
 20 21  2  0  0  0
 20103  1  0  0  0
 21 23  1  0  0  0
 22 28  1  0  0  0
 22 32  2  0  0  0
 26 27  1  0  0  0
 28104  1  0  0  0
 28105  1  0  0  0
 29106  1  0  0  0
 29107  1  0  0  0
 33 34  1  0  0  0
 33 66  1  0  0  0
 33 70  2  0  0  0
 34 36  1  0  0  0
 34 59  1  0  0  0
 34108  1  0  0  0
 35 44  2  0  0  0
 35 45  1  0  0  0
 35 68  1  0  0  0
 36 56  1  0  0  0
 36109  1  0  0  0
 37 39  1  0  0  0
 37 47  1  0  0  0
 37 66  1  0  0  0
 37110  1  0  0  0
 38 43  2  0  0  0
 38 46  1  0  0  0
 38 47  1  0  0  0
 39 64  1  0  0  0
 39 67  2  0  0  0
 40 52  1  0  0  0
 40 53  2  0  0  0
 40 58  1  0  0  0
 41111  1  0  0  0
 41112  1  0  0  0
 41113  1  0  0  0
 41 48  1  0  0  0
 42 43  1  0  0  0
 42 66  1  0  0  0
 42114  1  0  0  0
 42115  1  0  0  0
 43 44  1  0  0  0
 44116  1  0  0  0
 45 46  2  0  0  0
 45117  1  0  0  0
 46118  1  0  0  0
 47119  1  0  0  0
 47120  1  0  0  0
 48 56  1  0  0  0
 48 65  1  0  0  0
 48121  1  0  0  0
 49 50  1  0  0  0
 49 53  1  0  0  0
 49 64  1  0  0  0
 49122  1  0  0  0
 50 51  1  0  0  0
 50123  1  0  0  0
 50124  1  0  0  0
 51 52  1  0  0  0
 51125  1  0  0  0
 51126  1  0  0  0
 52127  1  0  0  0
 52128  1  0  0  0
 53 54  1  0  0  0
 54 55  2  0  0  0
 54129  1  0  0  0
 55 57  1  0  0  0
 55130  1  0  0  0
 56 69  2  0  0  0
 57 58  2  0  0  0
 57131  1  0  0  0
 58132  1  0  0  0
 59 60  1  0  0  0
 59 61  1  0  0  0
 59 62  1  0  0  0
 60133  1  0  0  0
 60134  1  0  0  0
 60135  1  0  0  0
 61136  1  0  0  0
 61137  1  0  0  0
 61138  1  0  0  0
 62139  1  0  0  0
 62140  1  0  0  0
 62141  1  0  0  0
 63 65  1  0  0  0
 63142  1  0  0  0
 63143  1  0  0  0
 63144  1  0  0  0
 64145  1  0  0  0
 65146  1  0  0  0
 68 82  1  0  0  0
 71 73  2  0  0  0
 71 76  1  0  0  0
 71147  1  0  0  0
 72 75  1  0  0  0
 72 76  2  0  0  0
 72148  1  0  0  0
 73 74  1  0  0  0
 73 79  1  0  0  0
 74 75  2  0  0  0
 74 77  1  0  0  0
 75 85  1  0  0  0
 76 87  1  0  0  0
 77 78  2  0  0  0
 77149  1  0  0  0
 78 81  1  0  0  0
 78150  1  0  0  0
 79 84  2  0  0  0
 80 82  1  0  0  0
 80 83  1  0  0  0
 80 86  2  0  0  0
 81151  1  0  0  0
 81152  1  0  0  0
 81153  1  0  0  0
 82154  1  0  0  0
 82155  1  0  0  0
 83 87  1  0  0  0
 83156  1  0  0  0
 83157  1  0  0  0
 84158  1  0  0  0
 85159  1  0  0  0
 85160  1  0  0  0
M  ISO  4   1 100  68 101  79 100  82 101
M  END
> <chiral flag>
0

> <version>
0

> <s_m_source_file>
/data/baiqing/PycharmProjects/Reinvent-master-3.2/result/LINK_invent/BTK/process_docking_weight1_custom_product_contain_oxygen_bond_distance_aromatic_linkinvent_7_9_3/rearranged_h_0112.sdf

> <i_m_source_file_index>
94

> <r_mmod_Potential_Energy-OPLS-2005>
467.946136474609

> <r_mmod_Stretch_Energy-OPLS-2005>
164.528915405273

> <r_mmod_Bend_Energy-OPLS-2005>
223.409912109375

> <r_mmod_Torsional_Energy-OPLS-2005>
264.731842041016

> <r_mmod_Improper_Torsional_Energy-OPLS-2005>
11.7374382019043

> <r_mmod_Van_der_Waal_Energy-OPLS-2005>
149.968475341797

> <r_mmod_Electrostatic_Energy-OPLS-2005>
-197.586532592773

> <r_mmod_Solvation_Energy-OPLS-2005>
-238.529678344727

> <b_mmod_Minimization_Converged-OPLS-2005>
0

> <r_mmod_RMS_Derivative-OPLS-2005>
1.19825994968414

$$$$
95
                    3D
 Structure written by MMmdl.
163171  0  0  1  0            999 V2000
  -30.6125  -14.7203   20.3529 C   0  0  0  0  0  0
  -30.4415  -12.4029   19.4625 C   0  0  0  0  0  0
  -29.5075  -12.3711   18.2308 C   0  0  0  0  0  0
  -28.0234  -12.2776   18.6455 C   0  0  0  0  0  0
  -27.6338  -13.2095   19.8253 C   0  0  2  0  0  0
  -28.6890  -13.1827   20.9483 C   0  0  0  0  0  0
  -25.2535  -13.8139   20.5723 C   0  0  0  0  0  0
  -24.1799  -13.0416   20.9212 C   0  0  0  0  0  0
  -24.6361  -11.6887   20.8768 C   0  0  0  0  0  0
  -23.9034  -10.4283   21.0429 C   0  0  0  0  0  0
  -24.3598   -9.4197   21.9196 C   0  0  0  0  0  0
  -23.6281   -8.2228   22.0755 C   0  0  0  0  0  0
  -22.4264   -8.0269   21.3542 C   0  0  0  0  0  0
  -21.9896   -9.0242   20.4646 C   0  0  0  0  0  0
  -22.7216  -10.2126   20.3066 C   0  0  0  0  0  0
  -21.6848   -6.0729   22.5280 C   0  0  0  0  0  0
  -21.4010   -6.5635   23.8213 C   0  0  0  0  0  0
  -21.3661   -5.6790   24.9176 C   0  0  0  0  0  0
  -21.6042   -4.3051   24.7230 C   0  0  0  0  0  0
  -21.8820   -3.8142   23.4352 C   0  0  0  0  0  0
  -21.9189   -4.6957   22.3405 C   0  0  0  0  0  0
  -22.7828  -13.5224   21.1870 C   0  0  0  0  0  0
  -22.1661   -4.2143   21.0984 F   0  0  0  0  0  0
  -21.5632   -3.4536   25.7744 F   0  0  0  0  0  0
  -29.9929  -13.4922   20.3502 N   0  0  0  0  0  0
  -26.2915  -12.9296   20.3240 N   0  0  0  0  0  0
  -25.9280  -11.6470   20.5782 N   0  0  0  0  0  0
  -22.0466  -12.8222   22.0425 N   0  0  0  0  0  0
  -25.4265  -15.1864   20.4243 N   0  0  0  0  0  0
  -31.8439  -14.7982   20.3392 O   0  0  0  0  0  0
  -21.6631   -6.8864   21.4236 O   0  0  0  0  0  0
  -22.3520  -14.5532   20.6717 O   0  0  0  0  0  0
  -24.6244  -31.8591   23.2004 C   0  0  0  0  0  0
  -25.9094  -32.4775   23.8338 C   0  0  1  0  0  0
  -27.2331  -27.3248   20.1365 C   0  0  0  0  0  0
  -25.5910  -33.8573   24.2272 N   0  0  0  0  0  0
  -23.4190  -30.4788   21.5423 C   0  0  2  0  0  0
  -24.8670  -28.9213   20.1208 C   0  0  0  0  0  0
  -22.7464  -29.4624   22.4948 C   0  0  0  0  0  0
  -18.0284  -28.1391   22.8485 C   0  0  0  0  0  0
  -24.1488  -36.7295   23.2641 C   0  0  0  0  0  0
  -25.9561  -30.7941   21.3663 C   0  0  0  0  0  0
  -26.0331  -29.4168   20.7181 C   0  0  0  0  0  0
  -27.2212  -28.6321   20.7082 C   0  0  0  0  0  0
  -26.0466  -26.8640   19.5319 C   0  0  0  0  0  0
  -24.8745  -27.6498   19.5191 C   0  0  0  0  0  0
  -23.6343  -29.8027   20.1613 C   0  0  0  0  0  0
  -25.4113  -36.3085   24.0332 C   0  0  1  0  0  0
  -20.5880  -28.3687   23.1295 C   0  0  2  0  0  0
  -20.6765  -26.9407   22.5425 C   0  0  0  0  0  0
  -19.5748  -26.6390   21.5215 C   0  0  0  0  0  0
  -18.1927  -26.7938   22.1621 C   0  0  0  0  0  0
  -19.1535  -28.8857   23.2888 C   0  0  0  0  0  0
  -18.9465  -30.1460   23.8904 C   0  0  0  0  0  0
  -17.6467  -30.6593   24.0572 C   0  0  0  0  0  0
  -25.9050  -34.9450   23.5105 C   0  0  0  0  0  0
  -16.5357  -29.9095   23.6335 C   0  0  0  0  0  0
  -16.7271  -28.6513   23.0349 C   0  0  0  0  0  0
  -26.4490  -31.6580   25.0703 C   0  0  0  0  0  0
  -25.3732  -31.3707   26.1437 C   0  0  0  0  0  0
  -27.0333  -30.3008   24.6144 C   0  0  0  0  0  0
  -27.6055  -32.4311   25.7474 C   0  0  0  0  0  0
  -27.5581  -37.1802   24.8466 C   0  0  0  0  0  0
  -21.4179  -29.3039   22.3690 N   0  0  0  0  0  0
  -26.4293  -37.3778   23.9410 N   0  0  0  0  0  0
  -24.6852  -31.0613   22.0938 N   0  0  0  0  0  0
  -23.4193  -28.8176   23.3033 O   0  0  0  0  0  0
  -28.3819  -26.5312   20.1041 O   0  0  0  0  0  0
  -26.5628  -34.8919   22.4681 O   0  0  0  0  0  0
  -23.5412  -32.1378   23.7347 O   0  0  0  0  0  0
  -28.3166  -19.4854   19.7482 C   0  0  0  0  0  0
  -30.3369  -18.0250   20.9667 C   0  0  0  0  0  0
  -28.4582  -18.0920   19.4681 C   0  0  0  0  0  0
  -29.5267  -17.3052   20.0439 C   0  0  0  0  0  0
  -29.1439  -20.1978   20.6395 C   0  0  0  0  0  0
  -30.1548  -19.4110   21.2916 C   0  0  0  0  0  0
  -26.8672  -18.1923   17.5114 C   0  0  0  0  0  0
  -27.4734  -17.5295   18.5120 C   0  0  0  0  0  0
  -29.8582  -15.8616   19.5467 C   0  0  0  0  0  0
  -29.6098  -20.9392   23.9241 C   0  0  0  0  0  0
  -28.1664  -23.8926   19.7868 C   0  0  0  0  0  0
  -30.7949  -21.0863   22.9575 C   0  0  0  0  0  0
  -28.3865  -25.1757   20.6975 C   0  0  0  0  0  0
  -29.0869  -22.5821   19.8959 C   0  0  0  0  0  0
  -29.6112  -15.6075   18.3299 N   0  0  0  0  0  0
  -31.0452  -19.8827   22.2374 O   0  0  0  0  0  0
  -28.8519  -21.5542   20.9135 O   0  0  0  0  0  0
  -31.4768  -12.5398   19.1451 H   0  0  0  0  0  0
  -30.4099  -11.4509   19.9944 H   0  0  0  0  0  0
  -29.7614  -11.5112   17.6092 H   0  0  0  0  0  0
  -29.6733  -13.2326   17.5904 H   0  0  0  0  0  0
  -27.8440  -11.2400   18.9280 H   0  0  0  0  0  0
  -27.3801  -12.4687   17.7861 H   0  0  0  0  0  0
  -27.6022  -14.2146   19.4134 H   0  0  0  0  0  0
  -28.7167  -12.2072   21.4354 H   0  0  0  0  0  0
  -28.4424  -13.9108   21.7230 H   0  0  0  0  0  0
  -25.2744   -9.5675   22.4768 H   0  0  0  0  0  0
  -23.9995   -7.4611   22.7467 H   0  0  0  0  0  0
  -21.0831   -8.8753   19.8948 H   0  0  0  0  0  0
  -22.3676  -10.9663   19.6174 H   0  0  0  0  0  0
  -21.2003   -7.6143   23.9716 H   0  0  0  0  0  0
  -21.1483   -6.0522   25.9078 H   0  0  0  0  0  0
  -22.0601   -2.7605   23.2857 H   0  0  0  0  0  0
  -22.4078  -11.9881   22.4814 H   0  0  0  0  0  0
  -21.1084  -13.1251   22.2628 H   0  0  0  0  0  0
  -24.6656  -15.8438   20.5527 H   0  0  0  0  0  0
  -26.2953  -15.6326   20.1657 H   0  0  0  0  0  0
  -26.7161  -32.5456   23.1089 H   0  0  0  0  0  0
  -25.0046  -33.9715   25.0410 H   0  0  0  0  0  0
  -22.7135  -31.2986   21.3935 H   0  0  0  0  0  0
  -23.3751  -35.9628   23.3307 H   0  0  0  0  0  0
  -24.3576  -36.8916   22.2055 H   0  0  0  0  0  0
  -23.7240  -37.6496   23.6663 H   0  0  0  0  0  0
  -26.0814  -31.5536   20.5932 H   0  0  0  0  0  0
  -26.8390  -30.8495   21.9921 H   0  0  0  0  0  0
  -28.1243  -29.0164   21.1613 H   0  0  0  0  0  0
  -26.0294  -25.8900   19.0642 H   0  0  0  0  0  0
  -23.9792  -27.2635   19.0512 H   0  0  0  0  0  0
  -23.7547  -30.5735   19.3990 H   0  0  0  0  0  0
  -22.7552  -29.2299   19.8608 H   0  0  0  0  0  0
  -25.1293  -36.1942   25.0824 H   0  0  0  0  0  0
  -20.9979  -28.3259   24.1415 H   0  0  0  0  0  0
  -20.5668  -26.2289   23.3622 H   0  0  0  0  0  0
  -21.6634  -26.7433   22.1220 H   0  0  0  0  0  0
  -19.6910  -25.6307   21.1234 H   0  0  0  0  0  0
  -19.6693  -27.3207   20.6754 H   0  0  0  0  0  0
  -17.4204  -26.6699   21.4016 H   0  0  0  0  0  0
  -18.0321  -26.0077   22.9012 H   0  0  0  0  0  0
  -19.7949  -30.7262   24.2279 H   0  0  0  0  0  0
  -17.5027  -31.6268   24.5179 H   0  0  0  0  0  0
  -15.5360  -30.2998   23.7659 H   0  0  0  0  0  0
  -15.8669  -28.0836   22.7060 H   0  0  0  0  0  0
  -24.5914  -30.7047   25.7767 H   0  0  0  0  0  0
  -24.8913  -32.2864   26.4869 H   0  0  0  0  0  0
  -25.8067  -30.8883   27.0206 H   0  0  0  0  0  0
  -26.2894  -29.6756   24.1191 H   0  0  0  0  0  0
  -27.4062  -29.7269   25.4638 H   0  0  0  0  0  0
  -27.8748  -30.4305   23.9335 H   0  0  0  0  0  0
  -27.2672  -33.3612   26.2053 H   0  0  0  0  0  0
  -28.3863  -32.6870   25.0298 H   0  0  0  0  0  0
  -28.0723  -31.8431   26.5389 H   0  0  0  0  0  0
  -28.2601  -38.0097   24.7510 H   0  0  0  0  0  0
  -28.1072  -36.2627   24.6294 H   0  0  0  0  0  0
  -27.2295  -37.1450   25.8868 H   0  0  0  0  0  0
  -20.9355  -29.8750   21.6892 H   0  0  0  0  0  0
  -26.0179  -38.2857   24.1403 H   0  0  0  0  0  0
  -27.5069  -20.0383   19.2961 H   0  0  0  0  0  0
  -31.1586  -17.5028   21.4354 H   0  0  0  0  0  0
  -26.1483  -17.6904   16.8794 H   0  0  0  0  0  0
  -27.0697  -19.2308   17.2929 H   0  0  0  0  0  0
  -27.1981  -16.4942   18.6482 H   0  0  0  0  0  0
  -29.7713  -20.1138   24.6179 H   0  0  0  0  0  0
  -28.6735  -20.7528   23.3997 H   0  0  0  0  0  0
  -29.4788  -21.8461   24.5145 H   0  0  0  0  0  0
  -28.3028  -24.2503   18.7657 H   0  0  0  0  0  0
  -27.1180  -23.5986   19.8305 H   0  0  0  0  0  0
  -31.6896  -21.2865   23.5467 H   0  0  0  0  0  0
  -30.7024  -21.9505   22.3031 H   0  0  0  0  0  0
  -29.3702  -25.0741   21.1571 H   0  0  0  0  0  0
  -27.6879  -25.1473   21.5355 H   0  0  0  0  0  0
  -30.1273  -22.8962   19.9834 H   0  0  0  0  0  0
  -29.0294  -22.0857   18.9261 H   0  0  0  0  0  0
  -29.1823  -16.4056   17.8770 H   0  0  0  0  0  0
  1 25  1  0  0  0
  1 30  2  0  0  0
  1 79  1  0  0  0
  2  3  1  0  0  0
  2 25  1  0  0  0
  2 88  1  0  0  0
  2 89  1  0  0  0
  3  4  1  0  0  0
  3 90  1  0  0  0
  3 91  1  0  0  0
  4  5  1  0  0  0
  4 92  1  0  0  0
  4 93  1  0  0  0
  5  6  1  0  0  0
  5 26  1  0  0  0
  5 94  1  0  0  0
  6 25  1  0  0  0
  6 95  1  0  0  0
  6 96  1  0  0  0
  7  8  2  0  0  0
  7 26  1  0  0  0
  7 29  1  0  0  0
  8  9  1  0  0  0
  8 22  1  0  0  0
  9 10  1  0  0  0
  9 27  2  0  0  0
 10 11  2  0  0  0
 10 15  1  0  0  0
 11 12  1  0  0  0
 11 97  1  0  0  0
 12 13  2  0  0  0
 12 98  1  0  0  0
 13 14  1  0  0  0
 13 31  1  0  0  0
 14 15  2  0  0  0
 14 99  1  0  0  0
 15100  1  0  0  0
 16 17  2  0  0  0
 16 21  1  0  0  0
 16 31  1  0  0  0
 17 18  1  0  0  0
 17101  1  0  0  0
 18 19  2  0  0  0
 18102  1  0  0  0
 19 20  1  0  0  0
 19 24  1  0  0  0
 20 21  2  0  0  0
 20103  1  0  0  0
 21 23  1  0  0  0
 22 28  1  0  0  0
 22 32  2  0  0  0
 26 27  1  0  0  0
 28104  1  0  0  0
 28105  1  0  0  0
 29106  1  0  0  0
 29107  1  0  0  0
 33 34  1  0  0  0
 33 66  1  0  0  0
 33 70  2  0  0  0
 34 36  1  0  0  0
 34 59  1  0  0  0
 34108  1  0  0  0
 35 44  2  0  0  0
 35 45  1  0  0  0
 35 68  1  0  0  0
 36 56  1  0  0  0
 36109  1  0  0  0
 37 39  1  0  0  0
 37 47  1  0  0  0
 37 66  1  0  0  0
 37110  1  0  0  0
 38 43  2  0  0  0
 38 46  1  0  0  0
 38 47  1  0  0  0
 39 64  1  0  0  0
 39 67  2  0  0  0
 40 52  1  0  0  0
 40 53  2  0  0  0
 40 58  1  0  0  0
 41111  1  0  0  0
 41112  1  0  0  0
 41113  1  0  0  0
 41 48  1  0  0  0
 42 43  1  0  0  0
 42 66  1  0  0  0
 42114  1  0  0  0
 42115  1  0  0  0
 43 44  1  0  0  0
 44116  1  0  0  0
 45 46  2  0  0  0
 45117  1  0  0  0
 46118  1  0  0  0
 47119  1  0  0  0
 47120  1  0  0  0
 48 56  1  0  0  0
 48 65  1  0  0  0
 48121  1  0  0  0
 49 50  1  0  0  0
 49 53  1  0  0  0
 49 64  1  0  0  0
 49122  1  0  0  0
 50 51  1  0  0  0
 50123  1  0  0  0
 50124  1  0  0  0
 51 52  1  0  0  0
 51125  1  0  0  0
 51126  1  0  0  0
 52127  1  0  0  0
 52128  1  0  0  0
 53 54  1  0  0  0
 54 55  2  0  0  0
 54129  1  0  0  0
 55 57  1  0  0  0
 55130  1  0  0  0
 56 69  2  0  0  0
 57 58  2  0  0  0
 57131  1  0  0  0
 58132  1  0  0  0
 59 60  1  0  0  0
 59 61  1  0  0  0
 59 62  1  0  0  0
 60133  1  0  0  0
 60134  1  0  0  0
 60135  1  0  0  0
 61136  1  0  0  0
 61137  1  0  0  0
 61138  1  0  0  0
 62139  1  0  0  0
 62140  1  0  0  0
 62141  1  0  0  0
 63 65  1  0  0  0
 63142  1  0  0  0
 63143  1  0  0  0
 63144  1  0  0  0
 64145  1  0  0  0
 65146  1  0  0  0
 68 83  1  0  0  0
 71 73  2  0  0  0
 71 75  1  0  0  0
 71147  1  0  0  0
 72 74  2  0  0  0
 72 76  1  0  0  0
 72148  1  0  0  0
 73 74  1  0  0  0
 73 78  1  0  0  0
 74 79  1  0  0  0
 75 76  2  0  0  0
 75 87  1  0  0  0
 76 86  1  0  0  0
 77 78  2  0  0  0
 77149  1  0  0  0
 77150  1  0  0  0
 78151  1  0  0  0
 79 85  2  0  0  0
 80 82  1  0  0  0
 80152  1  0  0  0
 80153  1  0  0  0
 80154  1  0  0  0
 81 83  1  0  0  0
 81 84  1  0  0  0
 81155  1  0  0  0
 81156  1  0  0  0
 82 86  1  0  0  0
 82157  1  0  0  0
 82158  1  0  0  0
 83159  1  0  0  0
 83160  1  0  0  0
 84 87  1  0  0  0
 84161  1  0  0  0
 84162  1  0  0  0
 85163  1  0  0  0
M  ISO  4   1 100  68 101  79 100  83 101
M  END
> <chiral flag>
0

> <version>
0

> <s_m_source_file>
/data/baiqing/PycharmProjects/Reinvent-master-3.2/result/LINK_invent/BTK/process_docking_weight1_custom_product_contain_oxygen_bond_distance_aromatic_linkinvent_7_9_3/rearranged_h_0112.sdf

> <i_m_source_file_index>
95

> <r_mmod_Potential_Energy-OPLS-2005>
428.410308837891

> <r_mmod_Stretch_Energy-OPLS-2005>
99.7553939819336

> <r_mmod_Bend_Energy-OPLS-2005>
194.498733520508

> <r_mmod_Torsional_Energy-OPLS-2005>
318.352905273438

> <r_mmod_Improper_Torsional_Energy-OPLS-2005>
30.5510540008545

> <r_mmod_Van_der_Waal_Energy-OPLS-2005>
151.502502441406

> <r_mmod_Electrostatic_Energy-OPLS-2005>
-246.024002075195

> <r_mmod_Solvation_Energy-OPLS-2005>
-198.325836181641

> <b_mmod_Minimization_Converged-OPLS-2005>
0

> <r_mmod_RMS_Derivative-OPLS-2005>
0.834382832050323

$$$$
96
                    3D
 Structure written by MMmdl.
153161  0  0  1  0            999 V2000
  -30.6104  -14.8403   20.4268 C   0  0  0  0  0  0
  -30.4201  -12.5061   19.5067 C   0  0  0  0  0  0
  -29.5154  -12.5175   18.2552 C   0  0  0  0  0  0
  -28.0424  -12.3290   18.6609 C   0  0  0  0  0  0
  -27.6324  -13.2497   19.8398 C   0  0  2  0  0  0
  -28.6700  -13.2570   20.9804 C   0  0  0  0  0  0
  -25.2483  -13.8229   20.5726 C   0  0  0  0  0  0
  -24.1789  -13.0452   20.9208 C   0  0  0  0  0  0
  -24.6399  -11.6935   20.8742 C   0  0  0  0  0  0
  -23.9081  -10.4303   21.0397 C   0  0  0  0  0  0
  -24.3632   -9.4217   21.9180 C   0  0  0  0  0  0
  -23.6308   -8.2248   22.0756 C   0  0  0  0  0  0
  -22.4290   -8.0287   21.3549 C   0  0  0  0  0  0
  -21.9925   -9.0254   20.4648 C   0  0  0  0  0  0
  -22.7246  -10.2134   20.3055 C   0  0  0  0  0  0
  -21.6864   -6.0736   22.5278 C   0  0  0  0  0  0
  -21.4011   -6.5641   23.8207 C   0  0  0  0  0  0
  -21.3664   -5.6797   24.9171 C   0  0  0  0  0  0
  -21.6046   -4.3061   24.7223 C   0  0  0  0  0  0
  -21.8823   -3.8150   23.4346 C   0  0  0  0  0  0
  -21.9201   -4.6964   22.3399 C   0  0  0  0  0  0
  -22.7810  -13.5217   21.1880 C   0  0  0  0  0  0
  -22.1672   -4.2153   21.0975 F   0  0  0  0  0  0
  -21.5631   -3.4548   25.7732 F   0  0  0  0  0  0
  -29.9694  -13.6101   20.3994 N   0  0  0  0  0  0
  -26.2901  -12.9466   20.3251 N   0  0  0  0  0  0
  -25.9333  -11.6591   20.5742 N   0  0  0  0  0  0
  -22.0479  -12.8186   22.0434 N   0  0  0  0  0  0
  -25.4218  -15.1954   20.4197 N   0  0  0  0  0  0
  -31.8000  -14.8276   20.0967 O   0  0  0  0  0  0
  -21.6657   -6.8881   21.4242 O   0  0  0  0  0  0
  -22.3484  -14.5532   20.6750 O   0  0  0  0  0  0
  -24.6382  -31.8487   23.1937 C   0  0  0  0  0  0
  -25.9166  -32.4724   23.8316 C   0  0  1  0  0  0
  -27.2151  -27.1923   20.1417 C   0  0  0  0  0  0
  -25.5931  -33.8533   24.2227 N   0  0  0  0  0  0
  -23.4393  -30.4700   21.5381 C   0  0  2  0  0  0
  -24.8879  -28.9068   20.1117 C   0  0  0  0  0  0
  -22.7545  -29.4556   22.4878 C   0  0  0  0  0  0
  -18.0290  -28.1378   22.8476 C   0  0  0  0  0  0
  -24.1481  -36.7276   23.2640 C   0  0  0  0  0  0
  -25.9916  -30.7397   21.3844 C   0  0  0  0  0  0
  -26.0640  -29.3557   20.7272 C   0  0  0  0  0  0
  -27.2320  -28.5139   20.7264 C   0  0  0  0  0  0
  -26.0196  -26.8350   19.4828 C   0  0  0  0  0  0
  -24.8753  -27.6577   19.4744 C   0  0  0  0  0  0
  -23.6624  -29.8032   20.1562 C   0  0  0  0  0  0
  -25.4110  -36.3055   24.0322 C   0  0  1  0  0  0
  -20.5898  -28.3687   23.1247 C   0  0  2  0  0  0
  -20.6770  -26.9396   22.5400 C   0  0  0  0  0  0
  -19.5749  -26.6369   21.5202 C   0  0  0  0  0  0
  -18.1932  -26.7920   22.1620 C   0  0  0  0  0  0
  -19.1545  -28.8851   23.2856 C   0  0  0  0  0  0
  -18.9468  -30.1453   23.8877 C   0  0  0  0  0  0
  -17.6465  -30.6580   24.0552 C   0  0  0  0  0  0
  -25.9057  -34.9426   23.5081 C   0  0  0  0  0  0
  -16.5355  -29.9073   23.6330 C   0  0  0  0  0  0
  -16.7276  -28.6489   23.0357 C   0  0  0  0  0  0
  -26.4508  -31.6578   25.0737 C   0  0  0  0  0  0
  -25.3705  -31.3750   26.1439 C   0  0  0  0  0  0
  -27.0365  -30.2984   24.6278 C   0  0  0  0  0  0
  -27.6049  -32.4335   25.7513 C   0  0  0  0  0  0
  -27.5580  -37.1786   24.8462 C   0  0  0  0  0  0
  -21.4236  -29.3040   22.3639 N   0  0  0  0  0  0
  -26.4279  -37.3764   23.9420 N   0  0  0  0  0  0
  -24.7094  -31.0394   22.0946 N   0  0  0  0  0  0
  -23.4210  -28.8079   23.2987 O   0  0  0  0  0  0
  -28.2795  -26.2398   20.1694 O   0  0  0  0  0  0
  -26.5657  -34.8913   22.4667 O   0  0  0  0  0  0
  -23.5511  -32.1326   23.7198 O   0  0  0  0  0  0
  -31.3009  -19.5824   19.8772 C   0  0  0  0  0  0
  -30.9468  -20.9720   19.9391 C   0  0  0  0  0  0
  -30.2470  -18.7553   20.1579 C   0  0  0  0  0  0
  -29.5936  -21.0250   20.2166 C   0  0  0  0  0  0
  -30.3200  -17.1955   20.0754 C   0  0  0  0  0  0
  -28.9480  -23.5649   20.0006 C   0  0  0  0  0  0
  -34.2805  -22.5468   19.5696 C   0  0  0  0  0  0
  -31.9667  -22.0682   19.7245 C   0  0  0  0  0  0
  -27.9783  -24.7706   20.5168 C   0  0  0  0  0  0
  -29.8804  -16.0884   20.6814 N   0  0  0  0  0  0
  -28.8194  -22.2147   20.4118 N   0  0  0  0  0  0
  -29.7917  -23.8879   19.1632 O   0  0  0  0  0  0
  -29.1496  -19.6506   20.3907 O   0  0  0  0  0  0
  -33.2924  -21.5561   19.8033 O   0  0  0  0  0  0
  -31.4643  -12.6012   19.2065 H   0  0  0  0  0  0
  -30.3488  -11.5465   20.0218 H   0  0  0  0  0  0
  -29.8158  -11.7281   17.5640 H   0  0  0  0  0  0
  -29.6362  -13.4615   17.7215 H   0  0  0  0  0  0
  -27.9097  -11.2836   18.9421 H   0  0  0  0  0  0
  -27.3865  -12.4986   17.8060 H   0  0  0  0  0  0
  -27.6081  -14.2598   19.4307 H   0  0  0  0  0  0
  -28.7172  -12.2865   21.4774 H   0  0  0  0  0  0
  -28.3855  -13.9838   21.7443 H   0  0  0  0  0  0
  -25.2773   -9.5693   22.4759 H   0  0  0  0  0  0
  -24.0027   -7.4638   22.7473 H   0  0  0  0  0  0
  -21.0862   -8.8760   19.8945 H   0  0  0  0  0  0
  -22.3700  -10.9673   19.6173 H   0  0  0  0  0  0
  -21.1994   -7.6151   23.9705 H   0  0  0  0  0  0
  -21.1489   -6.0530   25.9070 H   0  0  0  0  0  0
  -22.0601   -2.7617   23.2841 H   0  0  0  0  0  0
  -22.4146  -11.9843   22.4776 H   0  0  0  0  0  0
  -21.1103  -13.1189   22.2684 H   0  0  0  0  0  0
  -24.6682  -15.8618   20.5464 H   0  0  0  0  0  0
  -26.2988  -15.6309   20.1589 H   0  0  0  0  0  0
  -26.7235  -32.5349   23.1058 H   0  0  0  0  0  0
  -25.0039  -33.9656   25.0348 H   0  0  0  0  0  0
  -22.7384  -31.2940   21.3884 H   0  0  0  0  0  0
  -23.3750  -35.9598   23.3283 H   0  0  0  0  0  0
  -24.3569  -36.8927   22.2057 H   0  0  0  0  0  0
  -23.7220  -37.6463   23.6688 H   0  0  0  0  0  0
  -26.1404  -31.4944   20.6111 H   0  0  0  0  0  0
  -26.8660  -30.7909   22.0219 H   0  0  0  0  0  0
  -28.1311  -28.8533   21.2214 H   0  0  0  0  0  0
  -25.9484  -25.8901   18.9663 H   0  0  0  0  0  0
  -23.9818  -27.3127   18.9731 H   0  0  0  0  0  0
  -23.7940  -30.5790   19.4008 H   0  0  0  0  0  0
  -22.7789  -29.2414   19.8473 H   0  0  0  0  0  0
  -25.1289  -36.1895   25.0813 H   0  0  0  0  0  0
  -20.9999  -28.3266   24.1366 H   0  0  0  0  0  0
  -20.5632  -26.2303   23.3609 H   0  0  0  0  0  0
  -21.6634  -26.7386   22.1212 H   0  0  0  0  0  0
  -19.6903  -25.6276   21.1243 H   0  0  0  0  0  0
  -19.6691  -27.3164   20.6722 H   0  0  0  0  0  0
  -17.4194  -26.6651   21.4036 H   0  0  0  0  0  0
  -18.0345  -26.0063   22.9019 H   0  0  0  0  0  0
  -19.7942  -30.7275   24.2246 H   0  0  0  0  0  0
  -17.5015  -31.6264   24.5148 H   0  0  0  0  0  0
  -15.5354  -30.2970   23.7666 H   0  0  0  0  0  0
  -15.8676  -28.0806   22.7090 H   0  0  0  0  0  0
  -24.5877  -30.7106   25.7767 H   0  0  0  0  0  0
  -24.8889  -32.2916   26.4849 H   0  0  0  0  0  0
  -25.7982  -30.8933   27.0237 H   0  0  0  0  0  0
  -26.2970  -29.6723   24.1268 H   0  0  0  0  0  0
  -27.3982  -29.7268   25.4838 H   0  0  0  0  0  0
  -27.8878  -30.4250   23.9585 H   0  0  0  0  0  0
  -27.2655  -33.3650   26.2062 H   0  0  0  0  0  0
  -28.3869  -32.6876   25.0344 H   0  0  0  0  0  0
  -28.0708  -31.8479   26.5449 H   0  0  0  0  0  0
  -28.2572  -38.0109   24.7540 H   0  0  0  0  0  0
  -28.1100  -36.2640   24.6242 H   0  0  0  0  0  0
  -27.2309  -37.1380   25.8867 H   0  0  0  0  0  0
  -20.9428  -29.8795   21.6867 H   0  0  0  0  0  0
  -26.0154  -38.2833   24.1438 H   0  0  0  0  0  0
  -32.2875  -19.2075   19.6441 H   0  0  0  0  0  0
  -31.0537  -17.0032   19.2858 H   0  0  0  0  0  0
  -35.2722  -22.1030   19.6636 H   0  0  0  0  0  0
  -34.2052  -23.3583   20.2946 H   0  0  0  0  0  0
  -34.1969  -22.9655   18.5659 H   0  0  0  0  0  0
  -31.8314  -22.8461   20.4782 H   0  0  0  0  0  0
  -31.8160  -22.5039   18.7360 H   0  0  0  0  0  0
  -27.9652  -24.7131   21.6053 H   0  0  0  0  0  0
  -26.9724  -24.4921   20.2116 H   0  0  0  0  0  0
  -27.9971  -22.0668   20.9806 H   0  0  0  0  0  0
  1 25  1  0  0  0
  1 30  2  0  0  0
  1 80  1  0  0  0
  2  3  1  0  0  0
  2 25  1  0  0  0
  2 85  1  0  0  0
  2 86  1  0  0  0
  3  4  1  0  0  0
  3 87  1  0  0  0
  3 88  1  0  0  0
  4  5  1  0  0  0
  4 89  1  0  0  0
  4 90  1  0  0  0
  5  6  1  0  0  0
  5 26  1  0  0  0
  5 91  1  0  0  0
  6 25  1  0  0  0
  6 92  1  0  0  0
  6 93  1  0  0  0
  7  8  2  0  0  0
  7 26  1  0  0  0
  7 29  1  0  0  0
  8  9  1  0  0  0
  8 22  1  0  0  0
  9 10  1  0  0  0
  9 27  2  0  0  0
 10 11  2  0  0  0
 10 15  1  0  0  0
 11 12  1  0  0  0
 11 94  1  0  0  0
 12 13  2  0  0  0
 12 95  1  0  0  0
 13 14  1  0  0  0
 13 31  1  0  0  0
 14 15  2  0  0  0
 14 96  1  0  0  0
 15 97  1  0  0  0
 16 17  2  0  0  0
 16 21  1  0  0  0
 16 31  1  0  0  0
 17 18  1  0  0  0
 17 98  1  0  0  0
 18 19  2  0  0  0
 18 99  1  0  0  0
 19 20  1  0  0  0
 19 24  1  0  0  0
 20 21  2  0  0  0
 20100  1  0  0  0
 21 23  1  0  0  0
 22 28  1  0  0  0
 22 32  2  0  0  0
 26 27  1  0  0  0
 28101  1  0  0  0
 28102  1  0  0  0
 29103  1  0  0  0
 29104  1  0  0  0
 33 34  1  0  0  0
 33 66  1  0  0  0
 33 70  2  0  0  0
 34 36  1  0  0  0
 34 59  1  0  0  0
 34105  1  0  0  0
 35 44  2  0  0  0
 35 45  1  0  0  0
 35 68  1  0  0  0
 36 56  1  0  0  0
 36106  1  0  0  0
 37 39  1  0  0  0
 37 47  1  0  0  0
 37 66  1  0  0  0
 37107  1  0  0  0
 38 43  2  0  0  0
 38 46  1  0  0  0
 38 47  1  0  0  0
 39 64  1  0  0  0
 39 67  2  0  0  0
 40 52  1  0  0  0
 40 53  2  0  0  0
 40 58  1  0  0  0
 41108  1  0  0  0
 41109  1  0  0  0
 41110  1  0  0  0
 41 48  1  0  0  0
 42 43  1  0  0  0
 42 66  1  0  0  0
 42111  1  0  0  0
 42112  1  0  0  0
 43 44  1  0  0  0
 44113  1  0  0  0
 45 46  2  0  0  0
 45114  1  0  0  0
 46115  1  0  0  0
 47116  1  0  0  0
 47117  1  0  0  0
 48 56  1  0  0  0
 48 65  1  0  0  0
 48118  1  0  0  0
 49 50  1  0  0  0
 49 53  1  0  0  0
 49 64  1  0  0  0
 49119  1  0  0  0
 50 51  1  0  0  0
 50120  1  0  0  0
 50121  1  0  0  0
 51 52  1  0  0  0
 51122  1  0  0  0
 51123  1  0  0  0
 52124  1  0  0  0
 52125  1  0  0  0
 53 54  1  0  0  0
 54 55  2  0  0  0
 54126  1  0  0  0
 55 57  1  0  0  0
 55127  1  0  0  0
 56 69  2  0  0  0
 57 58  2  0  0  0
 57128  1  0  0  0
 58129  1  0  0  0
 59 60  1  0  0  0
 59 61  1  0  0  0
 59 62  1  0  0  0
 60130  1  0  0  0
 60131  1  0  0  0
 60132  1  0  0  0
 61133  1  0  0  0
 61134  1  0  0  0
 61135  1  0  0  0
 62136  1  0  0  0
 62137  1  0  0  0
 62138  1  0  0  0
 63 65  1  0  0  0
 63139  1  0  0  0
 63140  1  0  0  0
 63141  1  0  0  0
 64142  1  0  0  0
 65143  1  0  0  0
 68 79  1  0  0  0
 71 72  1  0  0  0
 71 73  2  0  0  0
 71144  1  0  0  0
 72 74  2  0  0  0
 72 78  1  0  0  0
 73 75  1  0  0  0
 73 83  1  0  0  0
 74 81  1  0  0  0
 74 83  1  0  0  0
 75 80  2  0  0  0
 75145  1  0  0  0
 76 79  1  0  0  0
 76 81  1  0  0  0
 76 82  2  0  0  0
 77 84  1  0  0  0
 77146  1  0  0  0
 77147  1  0  0  0
 77148  1  0  0  0
 78 84  1  0  0  0
 78149  1  0  0  0
 78150  1  0  0  0
 79151  1  0  0  0
 79152  1  0  0  0
 81153  1  0  0  0
M  ISO  4   1 100  68 101  79 101  80 100
M  END
> <chiral flag>
0

> <version>
0

> <s_m_source_file>
/data/baiqing/PycharmProjects/Reinvent-master-3.2/result/LINK_invent/BTK/process_docking_weight1_custom_product_contain_oxygen_bond_distance_aromatic_linkinvent_7_9_3/rearranged_h_0112.sdf

> <i_m_source_file_index>
96

> <r_mmod_Potential_Energy-OPLS-2005>
349.230346679688

> <r_mmod_Stretch_Energy-OPLS-2005>
190.720413208008

> <r_mmod_Bend_Energy-OPLS-2005>
264.866058349609

> <r_mmod_Torsional_Energy-OPLS-2005>
217.674957275391

> <r_mmod_Improper_Torsional_Energy-OPLS-2005>
4.25815582275391

> <r_mmod_Van_der_Waal_Energy-OPLS-2005>
135.248336791992

> <r_mmod_Electrostatic_Energy-OPLS-2005>
-373.736724853516

> <r_mmod_Solvation_Energy-OPLS-2005>
-221.388519287109

> <b_mmod_Minimization_Converged-OPLS-2005>
0

> <r_mmod_RMS_Derivative-OPLS-2005>
1.61984741687775

$$$$
