0
                    3D
 Structure written by MMmdl.
159167  0  0  1  0            999 V2000
  -30.6225  -14.6322   20.5147 C   0  0  0  0  0  0
  -30.4411  -12.3879   19.4581 C   0  0  0  0  0  0
  -29.5152  -12.5137   18.2276 C   0  0  0  0  0  0
  -28.0355  -12.3577   18.6321 C   0  0  0  0  0  0
  -27.6562  -13.2174   19.8683 C   0  0  2  0  0  0
  -28.6978  -13.0563   20.9994 C   0  0  0  0  0  0
  -25.2552  -13.8166   20.5701 C   0  0  0  0  0  0
  -24.1815  -13.0433   20.9190 C   0  0  0  0  0  0
  -24.6391  -11.6904   20.8740 C   0  0  0  0  0  0
  -23.9062  -10.4292   21.0409 C   0  0  0  0  0  0
  -24.3609   -9.4206   21.9191 C   0  0  0  0  0  0
  -23.6283   -8.2248   22.0763 C   0  0  0  0  0  0
  -22.4254   -8.0299   21.3561 C   0  0  0  0  0  0
  -21.9888   -9.0270   20.4661 C   0  0  0  0  0  0
  -22.7222  -10.2148   20.3067 C   0  0  0  0  0  0
  -21.6852   -6.0747   22.5285 C   0  0  0  0  0  0
  -21.4018   -6.5647   23.8221 C   0  0  0  0  0  0
  -21.3654   -5.6793   24.9181 C   0  0  0  0  0  0
  -21.6040   -4.3054   24.7208 C   0  0  0  0  0  0
  -21.8818   -3.8152   23.4324 C   0  0  0  0  0  0
  -21.9186   -4.6979   22.3384 C   0  0  0  0  0  0
  -22.7831  -13.5251   21.1810 C   0  0  0  0  0  0
  -22.1663   -4.2175   21.0962 F   0  0  0  0  0  0
  -21.5604   -3.4526   25.7712 F   0  0  0  0  0  0
  -30.0184  -13.4023   20.4472 N   0  0  0  0  0  0
  -26.2996  -12.9362   20.3328 N   0  0  0  0  0  0
  -25.9326  -11.6515   20.5756 N   0  0  0  0  0  0
  -22.0430  -12.8293   22.0392 N   0  0  0  0  0  0
  -25.4216  -15.1914   20.4168 N   0  0  0  0  0  0
  -31.7557  -14.8171   20.0631 O   0  0  0  0  0  0
  -21.6622   -6.8900   21.4257 O   0  0  0  0  0  0
  -22.3544  -14.5547   20.6628 O   0  0  0  0  0  0
  -24.6260  -31.8629   23.2048 C   0  0  0  0  0  0
  -25.9099  -32.4812   23.8385 C   0  0  1  0  0  0
  -27.2234  -27.3264   20.1126 C   0  0  0  0  0  0
  -25.5922  -33.8614   24.2289 N   0  0  0  0  0  0
  -23.4199  -30.4876   21.5489 C   0  0  2  0  0  0
  -24.8646  -28.9478   20.1141 C   0  0  0  0  0  0
  -22.7490  -29.4623   22.4942 C   0  0  0  0  0  0
  -18.0294  -28.1398   22.8489 C   0  0  0  0  0  0
  -24.1478  -36.7311   23.2628 C   0  0  0  0  0  0
  -25.9637  -30.7934   21.3786 C   0  0  0  0  0  0
  -26.0357  -29.4240   20.7165 C   0  0  0  0  0  0
  -27.2191  -28.6261   20.7041 C   0  0  0  0  0  0
  -26.0249  -26.9062   19.4852 C   0  0  0  0  0  0
  -24.8608  -27.6945   19.4888 C   0  0  0  0  0  0
  -23.6343  -29.8300   20.1628 C   0  0  0  0  0  0
  -25.4101  -36.3105   24.0314 C   0  0  1  0  0  0
  -20.5900  -28.3701   23.1296 C   0  0  2  0  0  0
  -20.6794  -26.9425   22.5420 C   0  0  0  0  0  0
  -19.5758  -26.6387   21.5239 C   0  0  0  0  0  0
  -18.1935  -26.7940   22.1634 C   0  0  0  0  0  0
  -19.1549  -28.8865   23.2884 C   0  0  0  0  0  0
  -18.9471  -30.1468   23.8897 C   0  0  0  0  0  0
  -17.6469  -30.6590   24.0580 C   0  0  0  0  0  0
  -25.9053  -34.9474   23.5104 C   0  0  0  0  0  0
  -16.5361  -29.9095   23.6329 C   0  0  0  0  0  0
  -16.7283  -28.6517   23.0342 C   0  0  0  0  0  0
  -26.4466  -31.6640   25.0767 C   0  0  0  0  0  0
  -25.3680  -31.3840   26.1494 C   0  0  0  0  0  0
  -27.0313  -30.3051   24.6257 C   0  0  0  0  0  0
  -27.6022  -32.4397   25.7524 C   0  0  0  0  0  0
  -27.5586  -37.1795   24.8440 C   0  0  0  0  0  0
  -21.4204  -29.3040   22.3682 N   0  0  0  0  0  0
  -26.4275  -37.3807   23.9420 N   0  0  0  0  0  0
  -24.6884  -31.0655   22.0999 N   0  0  0  0  0  0
  -23.4219  -28.8148   23.3003 O   0  0  0  0  0  0
  -28.3378  -26.4688   20.1655 O   0  0  0  0  0  0
  -26.5640  -34.8928   22.4682 O   0  0  0  0  0  0
  -23.5421  -32.1416   23.7384 O   0  0  0  0  0  0
  -29.6808  -19.3535   21.9106 C   0  0  0  0  0  0
  -29.6790  -17.9334   21.9958 C   0  0  0  0  0  0
  -30.1566  -17.7913   19.6481 C   0  0  0  0  0  0
  -29.9301  -20.0502   20.6960 C   0  0  0  0  0  0
  -30.1411  -19.2246   19.5372 C   0  0  0  0  0  0
  -29.9509  -17.1077   20.8779 C   0  0  0  0  0  0
  -29.2075  -24.0145   20.3783 C   0  0  0  0  0  0
  -27.6500  -22.1097   20.2563 C   0  0  0  0  0  0
  -30.1122  -21.6252   20.7460 C   0  0  0  0  0  0
  -28.0543  -25.0138   20.1129 C   0  0  0  0  0  0
  -30.3431  -19.8269   18.1397 C   0  0  0  0  0  0
  -29.8599  -15.6537   21.0164 N   0  0  0  0  0  0
  -29.0172  -22.6330   20.4315 N   0  0  0  0  0  0
  -30.4142  -24.5786   20.5481 N   0  3  0  0  0  0
  -31.0165  -18.9907   17.3455 F   0  0  0  0  0  0
  -31.0363  -20.9627   18.1603 F   0  0  0  0  0  0
  -28.7638  -20.1504   17.3809 Cl  0  0  0  0  0  0
  -31.4835  -12.5117   19.1624 H   0  0  0  0  0  0
  -30.3735  -11.3874   19.8906 H   0  0  0  0  0  0
  -29.7800  -11.7695   17.4735 H   0  0  0  0  0  0
  -29.6665  -13.4869   17.7584 H   0  0  0  0  0  0
  -27.8641  -11.3021   18.8493 H   0  0  0  0  0  0
  -27.3887  -12.6008   17.7879 H   0  0  0  0  0  0
  -27.6782  -14.2573   19.5422 H   0  0  0  0  0  0
  -28.7028  -12.0262   21.3632 H   0  0  0  0  0  0
  -28.4356  -13.6744   21.8594 H   0  0  0  0  0  0
  -25.2771   -9.5652   22.4760 H   0  0  0  0  0  0
  -23.9985   -7.4624   22.7468 H   0  0  0  0  0  0
  -21.0815   -8.8773   19.8978 H   0  0  0  0  0  0
  -22.3677  -10.9679   19.6164 H   0  0  0  0  0  0
  -21.2039   -7.6160   23.9725 H   0  0  0  0  0  0
  -21.1475   -6.0528   25.9089 H   0  0  0  0  0  0
  -22.0598   -2.7616   23.2801 H   0  0  0  0  0  0
  -22.4034  -12.0025   22.4910 H   0  0  0  0  0  0
  -21.1042  -13.1365   22.2509 H   0  0  0  0  0  0
  -24.6411  -15.8315   20.5241 H   0  0  0  0  0  0
  -26.2682  -15.6454   20.0993 H   0  0  0  0  0  0
  -26.7180  -32.5484   23.1148 H   0  0  0  0  0  0
  -25.0079  -33.9785   25.0441 H   0  0  0  0  0  0
  -22.7103  -31.3059   21.4103 H   0  0  0  0  0  0
  -23.3759  -35.9625   23.3244 H   0  0  0  0  0  0
  -24.3562  -36.8994   22.2048 H   0  0  0  0  0  0
  -23.7200  -37.6477   23.6691 H   0  0  0  0  0  0
  -26.1043  -31.5570   20.6127 H   0  0  0  0  0  0
  -26.8407  -30.8358   22.0129 H   0  0  0  0  0  0
  -28.1185  -28.9890   21.1816 H   0  0  0  0  0  0
  -25.9468  -25.9548   18.9849 H   0  0  0  0  0  0
  -23.9633  -27.3286   19.0079 H   0  0  0  0  0  0
  -23.7623  -30.6124   19.4137 H   0  0  0  0  0  0
  -22.7532  -29.2652   19.8535 H   0  0  0  0  0  0
  -25.1275  -36.1949   25.0809 H   0  0  0  0  0  0
  -20.9984  -28.3285   24.1420 H   0  0  0  0  0  0
  -20.5718  -26.2317   23.3629 H   0  0  0  0  0  0
  -21.6660  -26.7461   22.1203 H   0  0  0  0  0  0
  -19.6923  -25.6290   21.1286 H   0  0  0  0  0  0
  -19.6693  -27.3192   20.6757 H   0  0  0  0  0  0
  -17.4209  -26.6692   21.4035 H   0  0  0  0  0  0
  -18.0308  -26.0083   22.9027 H   0  0  0  0  0  0
  -19.7948  -30.7297   24.2255 H   0  0  0  0  0  0
  -17.5015  -31.6259   24.5210 H   0  0  0  0  0  0
  -15.5357  -30.3003   23.7631 H   0  0  0  0  0  0
  -15.8686  -28.0836   22.7043 H   0  0  0  0  0  0
  -24.5789  -30.7269   25.7815 H   0  0  0  0  0  0
  -24.8951  -32.3064   26.4894 H   0  0  0  0  0  0
  -25.7955  -30.9001   27.0286 H   0  0  0  0  0  0
  -26.2924  -29.6823   24.1205 H   0  0  0  0  0  0
  -27.3908  -29.7286   25.4787 H   0  0  0  0  0  0
  -27.8826  -30.4316   23.9565 H   0  0  0  0  0  0
  -27.2608  -33.3689   26.2097 H   0  0  0  0  0  0
  -28.3816  -32.6998   25.0350 H   0  0  0  0  0  0
  -28.0711  -31.8555   26.5447 H   0  0  0  0  0  0
  -28.2571  -38.0127   24.7564 H   0  0  0  0  0  0
  -28.1125  -36.2672   24.6167 H   0  0  0  0  0  0
  -27.2330  -37.1321   25.8847 H   0  0  0  0  0  0
  -20.9388  -29.8753   21.6876 H   0  0  0  0  0  0
  -26.0156  -38.2874   24.1476 H   0  0  0  0  0  0
  -29.5084  -19.9141   22.8202 H   0  0  0  0  0  0
  -29.4795  -17.4776   22.9560 H   0  0  0  0  0  0
  -30.3063  -17.2063   18.7535 H   0  0  0  0  0  0
  -27.2220  -22.4544   19.3159 H   0  0  0  0  0  0
  -27.0134  -22.4571   21.0706 H   0  0  0  0  0  0
  -27.6112  -21.0223   20.2479 H   0  0  0  0  0  0
  -30.9992  -21.8981   20.1799 H   0  0  0  0  0  0
  -30.4040  -21.8466   21.7727 H   0  0  0  0  0  0
  -27.2719  -24.8015   20.8405 H   0  0  0  0  0  0
  -27.6607  -24.7618   19.1307 H   0  0  0  0  0  0
  -29.0523  -15.3265   21.5251 H   0  0  0  0  0  0
  -30.4691  -25.5873   20.4927 H   0  0  0  0  0  0
  -31.2671  -24.0635   20.6986 H   0  0  0  0  0  0
  1 25  1  0  0  0
  1 30  2  0  0  0
  1 82  1  0  0  0
  2  3  1  0  0  0
  2 25  1  0  0  0
  2 88  1  0  0  0
  2 89  1  0  0  0
  3  4  1  0  0  0
  3 90  1  0  0  0
  3 91  1  0  0  0
  4  5  1  0  0  0
  4 92  1  0  0  0
  4 93  1  0  0  0
  5  6  1  0  0  0
  5 26  1  0  0  0
  5 94  1  0  0  0
  6 25  1  0  0  0
  6 95  1  0  0  0
  6 96  1  0  0  0
  7  8  2  0  0  0
  7 26  1  0  0  0
  7 29  1  0  0  0
  8  9  1  0  0  0
  8 22  1  0  0  0
  9 10  1  0  0  0
  9 27  2  0  0  0
 10 11  2  0  0  0
 10 15  1  0  0  0
 11 12  1  0  0  0
 11 97  1  0  0  0
 12 13  2  0  0  0
 12 98  1  0  0  0
 13 14  1  0  0  0
 13 31  1  0  0  0
 14 15  2  0  0  0
 14 99  1  0  0  0
 15100  1  0  0  0
 16 17  2  0  0  0
 16 21  1  0  0  0
 16 31  1  0  0  0
 17 18  1  0  0  0
 17101  1  0  0  0
 18 19  2  0  0  0
 18102  1  0  0  0
 19 20  1  0  0  0
 19 24  1  0  0  0
 20 21  2  0  0  0
 20103  1  0  0  0
 21 23  1  0  0  0
 22 28  1  0  0  0
 22 32  2  0  0  0
 26 27  1  0  0  0
 28104  1  0  0  0
 28105  1  0  0  0
 29106  1  0  0  0
 29107  1  0  0  0
 33 34  1  0  0  0
 33 66  1  0  0  0
 33 70  2  0  0  0
 34 36  1  0  0  0
 34 59  1  0  0  0
 34108  1  0  0  0
 35 44  2  0  0  0
 35 45  1  0  0  0
 35 68  1  0  0  0
 36 56  1  0  0  0
 36109  1  0  0  0
 37 39  1  0  0  0
 37 47  1  0  0  0
 37 66  1  0  0  0
 37110  1  0  0  0
 38 43  2  0  0  0
 38 46  1  0  0  0
 38 47  1  0  0  0
 39 64  1  0  0  0
 39 67  2  0  0  0
 40 52  1  0  0  0
 40 53  2  0  0  0
 40 58  1  0  0  0
 41111  1  0  0  0
 41112  1  0  0  0
 41113  1  0  0  0
 41 48  1  0  0  0
 42 43  1  0  0  0
 42 66  1  0  0  0
 42114  1  0  0  0
 42115  1  0  0  0
 43 44  1  0  0  0
 44116  1  0  0  0
 45 46  2  0  0  0
 45117  1  0  0  0
 46118  1  0  0  0
 47119  1  0  0  0
 47120  1  0  0  0
 48 56  1  0  0  0
 48 65  1  0  0  0
 48121  1  0  0  0
 49 50  1  0  0  0
 49 53  1  0  0  0
 49 64  1  0  0  0
 49122  1  0  0  0
 50 51  1  0  0  0
 50123  1  0  0  0
 50124  1  0  0  0
 51 52  1  0  0  0
 51125  1  0  0  0
 51126  1  0  0  0
 52127  1  0  0  0
 52128  1  0  0  0
 53 54  1  0  0  0
 54 55  2  0  0  0
 54129  1  0  0  0
 55 57  1  0  0  0
 55130  1  0  0  0
 56 69  2  0  0  0
 57 58  2  0  0  0
 57131  1  0  0  0
 58132  1  0  0  0
 59 60  1  0  0  0
 59 61  1  0  0  0
 59 62  1  0  0  0
 60133  1  0  0  0
 60134  1  0  0  0
 60135  1  0  0  0
 61136  1  0  0  0
 61137  1  0  0  0
 61138  1  0  0  0
 62139  1  0  0  0
 62140  1  0  0  0
 62141  1  0  0  0
 63 65  1  0  0  0
 63142  1  0  0  0
 63143  1  0  0  0
 63144  1  0  0  0
 64145  1  0  0  0
 65146  1  0  0  0
 68 80  1  0  0  0
 71 72  2  0  0  0
 71 74  1  0  0  0
 71147  1  0  0  0
 72 76  1  0  0  0
 72148  1  0  0  0
 73 75  1  0  0  0
 73 76  2  0  0  0
 73149  1  0  0  0
 74 75  2  0  0  0
 74 79  1  0  0  0
 75 81  1  0  0  0
 76 82  1  0  0  0
 77 80  1  0  0  0
 77 83  1  0  0  0
 77 84  2  0  0  0
 78 83  1  0  0  0
 78150  1  0  0  0
 78151  1  0  0  0
 78152  1  0  0  0
 79 83  1  0  0  0
 79153  1  0  0  0
 79154  1  0  0  0
 80155  1  0  0  0
 80156  1  0  0  0
 81 85  1  0  0  0
 81 86  1  0  0  0
 81 87  1  0  0  0
 82157  1  0  0  0
 84158  1  0  0  0
 84159  1  0  0  0
M  CHG  1  84   1
M  ISO  4   1 100  68 101  80 101  82 100
M  END
> <chiral flag>
0

> <version>
0

> <s_m_source_file>
/data/baiqing/PycharmProjects/Reinvent-master-3.2/result/LINK_invent/BTK/process_docking_weight1_custom_product_contain_oxygen_bond_distance_aromatic_linkinvent_7_9_3/rearranged_h_0048.sdf

> <i_m_source_file_index>
1

> <r_mmod_Potential_Energy-OPLS-2005>
-79.9685745239258

> <r_mmod_Stretch_Energy-OPLS-2005>
86.6889114379883

> <r_mmod_Bend_Energy-OPLS-2005>
141.920196533203

> <r_mmod_Torsional_Energy-OPLS-2005>
235.153396606445

> <r_mmod_Improper_Torsional_Energy-OPLS-2005>
3.95773482322693

> <r_mmod_Van_der_Waal_Energy-OPLS-2005>
153.684188842773

> <r_mmod_Electrostatic_Energy-OPLS-2005>
-281.046417236328

> <r_mmod_Solvation_Energy-OPLS-2005>
-467.050170898438

> <b_mmod_Minimization_Converged-OPLS-2005>
0

> <r_mmod_RMS_Derivative-OPLS-2005>
3.02017188072205

$$$$
1
                    3D
 Structure written by MMmdl.
176185  0  0  1  0            999 V2000
  -30.6779  -14.4212   20.6057 C   0  0  0  0  0  0
  -30.4233  -12.2909   19.3922 C   0  0  0  0  0  0
  -29.4843  -12.5065   18.1865 C   0  0  0  0  0  0
  -28.0036  -12.3805   18.5970 C   0  0  0  0  0  0
  -27.6599  -13.1937   19.8741 C   0  0  2  0  0  0
  -28.6999  -12.9131   20.9818 C   0  0  0  0  0  0
  -25.2572  -13.8130   20.5644 C   0  0  0  0  0  0
  -24.1818  -13.0442   20.9148 C   0  0  0  0  0  0
  -24.6345  -11.6890   20.8710 C   0  0  0  0  0  0
  -23.9019  -10.4287   21.0379 C   0  0  0  0  0  0
  -24.3577   -9.4202   21.9163 C   0  0  0  0  0  0
  -23.6256   -8.2237   22.0741 C   0  0  0  0  0  0
  -22.4245   -8.0264   21.3530 C   0  0  0  0  0  0
  -21.9873   -9.0224   20.4627 C   0  0  0  0  0  0
  -22.7191  -10.2117   20.3024 C   0  0  0  0  0  0
  -21.6855   -6.0704   22.5265 C   0  0  0  0  0  0
  -21.4023   -6.5623   23.8194 C   0  0  0  0  0  0
  -21.3651   -5.6790   24.9161 C   0  0  0  0  0  0
  -21.6031   -4.3045   24.7217 C   0  0  0  0  0  0
  -21.8828   -3.8124   23.4342 C   0  0  0  0  0  0
  -21.9185   -4.6929   22.3396 C   0  0  0  0  0  0
  -22.7841  -13.5238   21.1834 C   0  0  0  0  0  0
  -22.1662   -4.2113   21.0971 F   0  0  0  0  0  0
  -21.5620   -3.4535   25.7738 F   0  0  0  0  0  0
  -30.0300  -13.2431   20.4375 N   0  0  0  0  0  0
  -26.2991  -12.9290   20.3330 N   0  0  0  0  0  0
  -25.9266  -11.6452   20.5732 N   0  0  0  0  0  0
  -22.0467  -12.8242   22.0385 N   0  0  0  0  0  0
  -25.4310  -15.1849   20.4041 N   0  0  0  0  0  0
  -31.7968  -14.6593   20.1362 O   0  0  0  0  0  0
  -21.6632   -6.8847   21.4227 O   0  0  0  0  0  0
  -22.3529  -14.5548   20.6671 O   0  0  0  0  0  0
  -24.6104  -31.8680   23.2105 C   0  0  0  0  0  0
  -25.8991  -32.4832   23.8393 C   0  0  1  0  0  0
  -27.2466  -27.4425   20.0752 C   0  0  0  0  0  0
  -25.5805  -33.8634   24.2292 N   0  0  0  0  0  0
  -23.3969  -30.4918   21.5541 C   0  0  2  0  0  0
  -24.8434  -28.9532   20.1131 C   0  0  0  0  0  0
  -22.7387  -29.4666   22.5017 C   0  0  0  0  0  0
  -18.0270  -28.1372   22.8504 C   0  0  0  0  0  0
  -24.1467  -36.7314   23.2644 C   0  0  0  0  0  0
  -25.9273  -30.8356   21.3608 C   0  0  0  0  0  0
  -26.0042  -29.4747   20.6938 C   0  0  0  0  0  0
  -27.2085  -28.7344   20.6580 C   0  0  0  0  0  0
  -26.0560  -26.9216   19.5139 C   0  0  0  0  0  0
  -24.8654  -27.6766   19.5223 C   0  0  0  0  0  0
  -23.6012  -29.8191   20.1701 C   0  0  0  0  0  0
  -25.4090  -36.3105   24.0311 C   0  0  1  0  0  0
  -20.5854  -28.3650   23.1315 C   0  0  2  0  0  0
  -20.6751  -26.9390   22.5416 C   0  0  0  0  0  0
  -19.5736  -26.6367   21.5223 C   0  0  0  0  0  0
  -18.1910  -26.7915   22.1608 C   0  0  0  0  0  0
  -19.1517  -28.8829   23.2911 C   0  0  0  0  0  0
  -18.9455  -30.1449   23.8925 C   0  0  0  0  0  0
  -17.6452  -30.6596   24.0544 C   0  0  0  0  0  0
  -25.9003  -34.9480   23.5122 C   0  0  0  0  0  0
  -16.5349  -29.9069   23.6346 C   0  0  0  0  0  0
  -16.7250  -28.6477   23.0369 C   0  0  0  0  0  0
  -26.4449  -31.6634   25.0721 C   0  0  0  0  0  0
  -25.3703  -31.3731   26.1446 C   0  0  0  0  0  0
  -27.0307  -30.3058   24.6155 C   0  0  0  0  0  0
  -27.6006  -32.4388   25.7487 C   0  0  0  0  0  0
  -27.5572  -37.1782   24.8457 C   0  0  0  0  0  0
  -21.4130  -29.3017   22.3755 N   0  0  0  0  0  0
  -26.4282  -37.3765   23.9404 N   0  0  0  0  0  0
  -24.6631  -31.0780   22.1007 N   0  0  0  0  0  0
  -23.4179  -28.8227   23.3057 O   0  0  0  0  0  0
  -28.4534  -26.7645   20.0735 O   0  0  0  0  0  0
  -26.5633  -34.8941   22.4721 O   0  0  0  0  0  0
  -23.5290  -32.1429   23.7501 O   0  0  0  0  0  0
  -30.0533  -20.1123   19.8168 C   0  0  0  0  0  0
  -30.4651  -19.0697   20.6620 C   0  0  0  0  0  0
  -28.9302  -17.5590   19.5449 C   0  0  0  0  0  0
  -29.0775  -19.9046   18.8164 C   0  0  0  0  0  0
  -29.8965  -17.7886   20.5511 C   0  0  0  0  0  0
  -28.5410  -18.5925   18.6581 C   0  0  0  0  0  0
  -28.4829  -22.4360   18.5770 C   0  0  0  0  0  0
  -25.2934  -18.0034   17.1331 C   0  0  0  0  0  0
  -30.2007  -22.4598   16.2461 C   0  0  0  0  0  0
  -29.6809  -21.0748   16.6458 C   0  0  0  0  0  0
  -30.5110  -23.2849   17.5002 C   0  0  0  0  0  0
  -28.7179  -21.0644   17.8651 C   0  0  1  0  0  0
  -23.8424  -18.0089   17.5612 C   0  0  0  0  0  0
  -25.5161  -17.6970   15.6604 C   0  0  0  0  0  0
  -27.5988  -18.2310   17.5166 C   0  0  0  0  0  0
  -30.3492  -16.7206   21.5447 C   0  0  0  0  0  0
  -28.8349  -24.9118   18.4713 C   0  0  0  0  0  0
  -28.5072  -25.3334   19.9291 C   0  0  0  0  0  0
  -26.2220  -18.2580   17.9694 N   0  0  0  0  0  0
  -29.2762  -23.5008   18.2753 N   0  0  0  0  0  0
  -29.9514  -15.3530   21.2362 N   0  0  0  0  0  0
  -27.5125  -22.5408   19.3323 O   0  0  0  0  0  0
  -31.4640  -12.4176   19.0855 H   0  0  0  0  0  0
  -30.3383  -11.2674   19.7618 H   0  0  0  0  0  0
  -29.7134  -11.7864   17.3990 H   0  0  0  0  0  0
  -29.6633  -13.4916   17.7525 H   0  0  0  0  0  0
  -27.7939  -11.3245   18.7700 H   0  0  0  0  0  0
  -27.3572  -12.6838   17.7713 H   0  0  0  0  0  0
  -27.7193  -14.2487   19.6078 H   0  0  0  0  0  0
  -28.6713  -11.8582   21.2595 H   0  0  0  0  0  0
  -28.4551  -13.4516   21.8981 H   0  0  0  0  0  0
  -25.2708   -9.5702   22.4745 H   0  0  0  0  0  0
  -23.9940   -7.4653   22.7490 H   0  0  0  0  0  0
  -21.0788   -8.8734   19.8957 H   0  0  0  0  0  0
  -22.3608  -10.9647   19.6135 H   0  0  0  0  0  0
  -21.2051   -7.6134   23.9694 H   0  0  0  0  0  0
  -21.1467   -6.0513   25.9061 H   0  0  0  0  0  0
  -22.0612   -2.7578   23.2861 H   0  0  0  0  0  0
  -22.4070  -11.9893   22.4785 H   0  0  0  0  0  0
  -21.1082  -13.1290   22.2619 H   0  0  0  0  0  0
  -24.6633  -15.8378   20.5036 H   0  0  0  0  0  0
  -26.2761  -15.6254   20.0671 H   0  0  0  0  0  0
  -26.7045  -32.5556   23.1147 H   0  0  0  0  0  0
  -24.9883  -33.9839   25.0389 H   0  0  0  0  0  0
  -22.6803  -31.3036   21.4168 H   0  0  0  0  0  0
  -23.3721  -35.9648   23.3332 H   0  0  0  0  0  0
  -24.3565  -36.8945   22.2065 H   0  0  0  0  0  0
  -23.7217  -37.6509   23.6684 H   0  0  0  0  0  0
  -26.0480  -31.6142   20.6090 H   0  0  0  0  0  0
  -26.8164  -30.8813   21.9791 H   0  0  0  0  0  0
  -28.1102  -29.1600   21.0780 H   0  0  0  0  0  0
  -26.0297  -25.9421   19.0569 H   0  0  0  0  0  0
  -23.9699  -27.2598   19.0810 H   0  0  0  0  0  0
  -23.6802  -30.5916   19.4040 H   0  0  0  0  0  0
  -22.7273  -29.2262   19.8940 H   0  0  0  0  0  0
  -25.1271  -36.1982   25.0790 H   0  0  0  0  0  0
  -20.9953  -28.3194   24.1419 H   0  0  0  0  0  0
  -20.5693  -26.2241   23.3581 H   0  0  0  0  0  0
  -21.6631  -26.7453   22.1227 H   0  0  0  0  0  0
  -19.6913  -25.6284   21.1243 H   0  0  0  0  0  0
  -19.6688  -27.3187   20.6769 H   0  0  0  0  0  0
  -17.4196  -26.6696   21.3986 H   0  0  0  0  0  0
  -18.0316  -26.0065   22.9022 H   0  0  0  0  0  0
  -19.7963  -30.7255   24.2281 H   0  0  0  0  0  0
  -17.5031  -31.6307   24.5106 H   0  0  0  0  0  0
  -15.5354  -30.2952   23.7729 H   0  0  0  0  0  0
  -15.8642  -28.0803   22.7049 H   0  0  0  0  0  0
  -24.5829  -30.7133   25.7765 H   0  0  0  0  0  0
  -24.8916  -32.2892   26.4930 H   0  0  0  0  0  0
  -25.8034  -30.8845   27.0178 H   0  0  0  0  0  0
  -26.2908  -29.6753   24.1183 H   0  0  0  0  0  0
  -27.4059  -29.7335   25.4657 H   0  0  0  0  0  0
  -27.8737  -30.4399   23.9351 H   0  0  0  0  0  0
  -27.2633  -33.3697   26.2070 H   0  0  0  0  0  0
  -28.3825  -32.6954   25.0323 H   0  0  0  0  0  0
  -28.0644  -31.8493   26.5401 H   0  0  0  0  0  0
  -28.2570  -38.0098   24.7549 H   0  0  0  0  0  0
  -28.1101  -36.2637   24.6266 H   0  0  0  0  0  0
  -27.2305  -37.1420   25.8858 H   0  0  0  0  0  0
  -20.9264  -29.8681   21.6956 H   0  0  0  0  0  0
  -26.0177  -38.2833   24.1432 H   0  0  0  0  0  0
  -30.5143  -21.0783   19.9405 H   0  0  0  0  0  0
  -31.2302  -19.2600   21.4029 H   0  0  0  0  0  0
  -28.4846  -16.5824   19.4331 H   0  0  0  0  0  0
  -29.4572  -22.9837   15.6417 H   0  0  0  0  0  0
  -31.0897  -22.3436   15.6231 H   0  0  0  0  0  0
  -30.5515  -20.4561   16.8727 H   0  0  0  0  0  0
  -29.2070  -20.5892   15.7886 H   0  0  0  0  0  0
  -30.9836  -24.2223   17.2121 H   0  0  0  0  0  0
  -31.2556  -22.7642   18.1118 H   0  0  0  0  0  0
  -27.7251  -20.8710   17.4642 H   0  0  0  0  0  0
  -23.3296  -17.1131   17.2066 H   0  0  0  0  0  0
  -23.3354  -18.8784   17.1464 H   0  0  0  0  0  0
  -23.7498  -18.0427   18.6473 H   0  0  0  0  0  0
  -24.5767  -17.4688   15.1572 H   0  0  0  0  0  0
  -26.1821  -16.8409   15.5364 H   0  0  0  0  0  0
  -25.9581  -18.5610   15.1607 H   0  0  0  0  0  0
  -27.8682  -17.2334   17.1630 H   0  0  0  0  0  0
  -27.7585  -18.8820   16.6555 H   0  0  0  0  0  0
  -29.9270  -16.9818   22.5156 H   0  0  0  0  0  0
  -31.4321  -16.7830   21.6671 H   0  0  0  0  0  0
  -29.6135  -25.5934   18.1228 H   0  0  0  0  0  0
  -27.9771  -25.1053   17.8236 H   0  0  0  0  0  0
  -29.3144  -24.9871   20.5765 H   0  0  0  0  0  0
  -27.6101  -24.8629   20.3275 H   0  0  0  0  0  0
  -29.0263  -15.0720   21.5270 H   0  0  0  0  0  0
  1 25  1  0  0  0
  1 30  2  0  0  0
  1 91  1  0  0  0
  2  3  1  0  0  0
  2 25  1  0  0  0
  2 93  1  0  0  0
  2 94  1  0  0  0
  3  4  1  0  0  0
  3 95  1  0  0  0
  3 96  1  0  0  0
  4  5  1  0  0  0
  4 97  1  0  0  0
  4 98  1  0  0  0
  5  6  1  0  0  0
  5 26  1  0  0  0
  5 99  1  0  0  0
  6 25  1  0  0  0
  6100  1  0  0  0
  6101  1  0  0  0
  7  8  2  0  0  0
  7 26  1  0  0  0
  7 29  1  0  0  0
  8  9  1  0  0  0
  8 22  1  0  0  0
  9 10  1  0  0  0
  9 27  2  0  0  0
 10 11  2  0  0  0
 10 15  1  0  0  0
 11 12  1  0  0  0
 11102  1  0  0  0
 12 13  2  0  0  0
 12103  1  0  0  0
 13 14  1  0  0  0
 13 31  1  0  0  0
 14 15  2  0  0  0
 14104  1  0  0  0
 15105  1  0  0  0
 16 17  2  0  0  0
 16 21  1  0  0  0
 16 31  1  0  0  0
 17 18  1  0  0  0
 17106  1  0  0  0
 18 19  2  0  0  0
 18107  1  0  0  0
 19 20  1  0  0  0
 19 24  1  0  0  0
 20 21  2  0  0  0
 20108  1  0  0  0
 21 23  1  0  0  0
 22 28  1  0  0  0
 22 32  2  0  0  0
 26 27  1  0  0  0
 28109  1  0  0  0
 28110  1  0  0  0
 29111  1  0  0  0
 29112  1  0  0  0
 33 34  1  0  0  0
 33 66  1  0  0  0
 33 70  2  0  0  0
 34 36  1  0  0  0
 34 59  1  0  0  0
 34113  1  0  0  0
 35 44  2  0  0  0
 35 45  1  0  0  0
 35 68  1  0  0  0
 36 56  1  0  0  0
 36114  1  0  0  0
 37 39  1  0  0  0
 37 47  1  0  0  0
 37 66  1  0  0  0
 37115  1  0  0  0
 38 43  2  0  0  0
 38 46  1  0  0  0
 38 47  1  0  0  0
 39 64  1  0  0  0
 39 67  2  0  0  0
 40 52  1  0  0  0
 40 53  2  0  0  0
 40 58  1  0  0  0
 41116  1  0  0  0
 41117  1  0  0  0
 41118  1  0  0  0
 41 48  1  0  0  0
 42 43  1  0  0  0
 42 66  1  0  0  0
 42119  1  0  0  0
 42120  1  0  0  0
 43 44  1  0  0  0
 44121  1  0  0  0
 45 46  2  0  0  0
 45122  1  0  0  0
 46123  1  0  0  0
 47124  1  0  0  0
 47125  1  0  0  0
 48 56  1  0  0  0
 48 65  1  0  0  0
 48126  1  0  0  0
 49 50  1  0  0  0
 49 53  1  0  0  0
 49 64  1  0  0  0
 49127  1  0  0  0
 50 51  1  0  0  0
 50128  1  0  0  0
 50129  1  0  0  0
 51 52  1  0  0  0
 51130  1  0  0  0
 51131  1  0  0  0
 52132  1  0  0  0
 52133  1  0  0  0
 53 54  1  0  0  0
 54 55  2  0  0  0
 54134  1  0  0  0
 55 57  1  0  0  0
 55135  1  0  0  0
 56 69  2  0  0  0
 57 58  2  0  0  0
 57136  1  0  0  0
 58137  1  0  0  0
 59 60  1  0  0  0
 59 61  1  0  0  0
 59 62  1  0  0  0
 60138  1  0  0  0
 60139  1  0  0  0
 60140  1  0  0  0
 61141  1  0  0  0
 61142  1  0  0  0
 61143  1  0  0  0
 62144  1  0  0  0
 62145  1  0  0  0
 62146  1  0  0  0
 63 65  1  0  0  0
 63147  1  0  0  0
 63148  1  0  0  0
 63149  1  0  0  0
 64150  1  0  0  0
 65151  1  0  0  0
 68 88  1  0  0  0
 71 72  2  0  0  0
 71 74  1  0  0  0
 71152  1  0  0  0
 72 75  1  0  0  0
 72153  1  0  0  0
 73 75  2  0  0  0
 73 76  1  0  0  0
 73154  1  0  0  0
 74 76  2  0  0  0
 74 82  1  0  0  0
 75 86  1  0  0  0
 76 85  1  0  0  0
 77 82  1  0  0  0
 77 90  1  0  0  0
 77 92  2  0  0  0
 78 83  1  0  0  0
 78 84  1  0  0  0
 78 89  2  0  0  0
 79 80  1  0  0  0
 79 81  1  0  0  0
 79155  1  0  0  0
 79156  1  0  0  0
 80 82  1  0  0  0
 80157  1  0  0  0
 80158  1  0  0  0
 81 90  1  0  0  0
 81159  1  0  0  0
 81160  1  0  0  0
 82161  1  0  0  0
 83162  1  0  0  0
 83163  1  0  0  0
 83164  1  0  0  0
 84165  1  0  0  0
 84166  1  0  0  0
 84167  1  0  0  0
 85 89  1  0  0  0
 85168  1  0  0  0
 85169  1  0  0  0
 86 91  1  0  0  0
 86170  1  0  0  0
 86171  1  0  0  0
 87 88  1  0  0  0
 87 90  1  0  0  0
 87172  1  0  0  0
 87173  1  0  0  0
 88174  1  0  0  0
 88175  1  0  0  0
 91176  1  0  0  0
M  ISO  4   1 100  68 101  88 101  91 100
M  END
> <chiral flag>
0

> <version>
0

> <s_m_source_file>
/data/baiqing/PycharmProjects/Reinvent-master-3.2/result/LINK_invent/BTK/process_docking_weight1_custom_product_contain_oxygen_bond_distance_aromatic_linkinvent_7_9_3/rearranged_h_0048.sdf

> <i_m_source_file_index>
2

> <r_mmod_Potential_Energy-OPLS-2005>
-74.5562286376953

> <r_mmod_Stretch_Energy-OPLS-2005>
45.2520332336426

> <r_mmod_Bend_Energy-OPLS-2005>
121.752517700195

> <r_mmod_Torsional_Energy-OPLS-2005>
230.538192749023

> <r_mmod_Improper_Torsional_Energy-OPLS-2005>
4.13516283035278

> <r_mmod_Van_der_Waal_Energy-OPLS-2005>
164.764541625977

> <r_mmod_Electrostatic_Energy-OPLS-2005>
-413.596832275391

> <r_mmod_Solvation_Energy-OPLS-2005>
-238.462280273438

> <b_mmod_Minimization_Converged-OPLS-2005>
0

> <r_mmod_RMS_Derivative-OPLS-2005>
5.92414093017578

$$$$
2
                    3D
 Structure written by MMmdl.
164172  0  0  1  0            999 V2000
  -30.7398  -14.3997   20.6063 C   0  0  0  0  0  0
  -30.4139  -12.2726   19.4080 C   0  0  0  0  0  0
  -29.4869  -12.5083   18.1991 C   0  0  0  0  0  0
  -28.0078  -12.3815   18.6118 C   0  0  0  0  0  0
  -27.6661  -13.2046   19.8828 C   0  0  2  0  0  0
  -28.7071  -12.9488   20.9968 C   0  0  0  0  0  0
  -25.2606  -13.8166   20.5705 C   0  0  0  0  0  0
  -24.1847  -13.0442   20.9176 C   0  0  0  0  0  0
  -24.6396  -11.6909   20.8731 C   0  0  0  0  0  0
  -23.9059  -10.4295   21.0395 C   0  0  0  0  0  0
  -24.3608   -9.4212   21.9177 C   0  0  0  0  0  0
  -23.6289   -8.2246   22.0751 C   0  0  0  0  0  0
  -22.4273   -8.0279   21.3542 C   0  0  0  0  0  0
  -21.9905   -9.0250   20.4642 C   0  0  0  0  0  0
  -22.7229  -10.2133   20.3050 C   0  0  0  0  0  0
  -21.6849   -6.0733   22.5277 C   0  0  0  0  0  0
  -21.4015   -6.5637   23.8211 C   0  0  0  0  0  0
  -21.3665   -5.6790   24.9177 C   0  0  0  0  0  0
  -21.6040   -4.3050   24.7224 C   0  0  0  0  0  0
  -21.8821   -3.8143   23.4345 C   0  0  0  0  0  0
  -21.9195   -4.6962   22.3401 C   0  0  0  0  0  0
  -22.7870  -13.5238   21.1839 C   0  0  0  0  0  0
  -22.1659   -4.2150   21.0976 F   0  0  0  0  0  0
  -21.5633   -3.4536   25.7739 F   0  0  0  0  0  0
  -30.0468  -13.2401   20.4533 N   0  0  0  0  0  0
  -26.3045  -12.9334   20.3406 N   0  0  0  0  0  0
  -25.9320  -11.6490   20.5771 N   0  0  0  0  0  0
  -22.0510  -12.8233   22.0395 N   0  0  0  0  0  0
  -25.4354  -15.1885   20.4143 N   0  0  0  0  0  0
  -31.8325  -14.5889   20.0669 O   0  0  0  0  0  0
  -21.6635   -6.8875   21.4238 O   0  0  0  0  0  0
  -22.3557  -14.5546   20.6694 O   0  0  0  0  0  0
  -24.6123  -31.8684   23.2109 C   0  0  0  0  0  0
  -25.9037  -32.4809   23.8399 C   0  0  1  0  0  0
  -27.2300  -27.4574   20.0936 C   0  0  0  0  0  0
  -25.5913  -33.8611   24.2340 N   0  0  0  0  0  0
  -23.3982  -30.4929   21.5509 C   0  0  2  0  0  0
  -24.8434  -28.9627   20.1105 C   0  0  0  0  0  0
  -22.7391  -29.4669   22.4997 C   0  0  0  0  0  0
  -18.0258  -28.1385   22.8495 C   0  0  0  0  0  0
  -24.1500  -36.7319   23.2633 C   0  0  0  0  0  0
  -25.9240  -30.8433   21.3584 C   0  0  0  0  0  0
  -26.0032  -29.4827   20.6984 C   0  0  0  0  0  0
  -27.2014  -28.7401   20.6803 C   0  0  0  0  0  0
  -26.0570  -26.9466   19.4942 C   0  0  0  0  0  0
  -24.8640  -27.6939   19.5040 C   0  0  0  0  0  0
  -23.6033  -29.8241   20.1650 C   0  0  0  0  0  0
  -25.4117  -36.3098   24.0330 C   0  0  1  0  0  0
  -20.5846  -28.3668   23.1327 C   0  0  2  0  0  0
  -20.6761  -26.9411   22.5415 C   0  0  0  0  0  0
  -19.5738  -26.6383   21.5218 C   0  0  0  0  0  0
  -18.1908  -26.7932   22.1619 C   0  0  0  0  0  0
  -19.1509  -28.8841   23.2906 C   0  0  0  0  0  0
  -18.9440  -30.1444   23.8920 C   0  0  0  0  0  0
  -17.6449  -30.6591   24.0569 C   0  0  0  0  0  0
  -25.9038  -34.9461   23.5129 C   0  0  0  0  0  0
  -16.5339  -29.9098   23.6327 C   0  0  0  0  0  0
  -16.7251  -28.6511   23.0354 C   0  0  0  0  0  0
  -26.4481  -31.6583   25.0719 C   0  0  0  0  0  0
  -25.3762  -31.3677   26.1472 C   0  0  0  0  0  0
  -27.0305  -30.3023   24.6085 C   0  0  0  0  0  0
  -27.6046  -32.4308   25.7496 C   0  0  0  0  0  0
  -27.5585  -37.1807   24.8460 C   0  0  0  0  0  0
  -21.4123  -29.3039   22.3744 N   0  0  0  0  0  0
  -26.4305  -37.3779   23.9398 N   0  0  0  0  0  0
  -24.6630  -31.0814   22.0986 N   0  0  0  0  0  0
  -23.4174  -28.8213   23.3026 O   0  0  0  0  0  0
  -28.3926  -26.7194   20.1537 O   0  0  0  0  0  0
  -26.5579  -34.8907   22.4675 O   0  0  0  0  0  0
  -23.5325  -32.1437   23.7526 O   0  0  0  0  0  0
  -31.4649  -18.8103   20.7516 C   0  0  0  0  0  0
  -30.6765  -19.5457   21.6472 C   0  0  0  0  0  0
  -31.3010  -17.4203   20.6548 C   0  0  0  0  0  0
  -29.7021  -18.9059   22.4399 C   0  0  0  0  0  0
  -29.5004  -17.5011   22.3125 C   0  0  0  0  0  0
  -30.3277  -16.7437   21.4338 C   0  0  0  0  0  0
  -28.3081  -22.0438   22.6164 C   0  0  0  0  0  0
  -27.8063  -25.3503   22.1367 C   0  0  0  0  0  0
  -28.4017  -16.8131   23.1223 C   0  0  0  0  0  0
  -26.5592  -24.3666   23.9840 C   0  0  0  0  0  0
  -28.9312  -19.7696   23.4386 C   0  0  0  0  0  0
  -27.1760  -22.9159   22.0541 C   0  0  0  0  0  0
  -28.2645  -25.3715   20.6540 C   0  0  0  0  0  0
  -30.1240  -15.3297   21.3569 N   0  0  0  0  0  0
  -28.0431  -20.7451   22.8077 N   0  0  0  0  0  0
  -27.1852  -24.2611   22.6573 N   0  0  0  0  0  0
  -29.4040  -22.5457   22.8752 O   0  0  0  0  0  0
  -27.9924  -26.3619   22.8247 O   0  0  0  0  0  0
  -31.4593  -12.3533   19.1052 H   0  0  0  0  0  0
  -30.2969  -11.2553   19.7852 H   0  0  0  0  0  0
  -29.7139  -11.7946   17.4060 H   0  0  0  0  0  0
  -29.6695  -13.4988   17.7806 H   0  0  0  0  0  0
  -27.8022  -11.3252   18.7883 H   0  0  0  0  0  0
  -27.3611  -12.6815   17.7867 H   0  0  0  0  0  0
  -27.7234  -14.2581   19.6081 H   0  0  0  0  0  0
  -28.6677  -11.9048   21.3125 H   0  0  0  0  0  0
  -28.4681  -13.5232   21.8917 H   0  0  0  0  0  0
  -25.2755   -9.5693   22.4748 H   0  0  0  0  0  0
  -24.0003   -7.4639   22.7473 H   0  0  0  0  0  0
  -21.0838   -8.8759   19.8946 H   0  0  0  0  0  0
  -22.3680  -10.9669   19.6155 H   0  0  0  0  0  0
  -21.2002   -7.6146   23.9717 H   0  0  0  0  0  0
  -21.1485   -6.0519   25.9081 H   0  0  0  0  0  0
  -22.0596   -2.7606   23.2841 H   0  0  0  0  0  0
  -22.4117  -11.9889   22.4774 H   0  0  0  0  0  0
  -21.1125  -13.1255   22.2594 H   0  0  0  0  0  0
  -24.6737  -15.8484   20.5289 H   0  0  0  0  0  0
  -26.2956  -15.6264   20.1075 H   0  0  0  0  0  0
  -26.7106  -32.5537   23.1166 H   0  0  0  0  0  0
  -25.0119  -33.9790   25.0521 H   0  0  0  0  0  0
  -22.6852  -31.3077   21.4128 H   0  0  0  0  0  0
  -23.3742  -35.9669   23.3304 H   0  0  0  0  0  0
  -24.3584  -36.8926   22.2040 H   0  0  0  0  0  0
  -23.7285  -37.6540   23.6650 H   0  0  0  0  0  0
  -26.0353  -31.6158   20.5950 H   0  0  0  0  0  0
  -26.8107  -30.8914   21.9786 H   0  0  0  0  0  0
  -28.0956  -29.1308   21.1466 H   0  0  0  0  0  0
  -26.0524  -25.9766   19.0173 H   0  0  0  0  0  0
  -23.9708  -27.2893   19.0478 H   0  0  0  0  0  0
  -23.7047  -30.5992   19.4035 H   0  0  0  0  0  0
  -22.7297  -29.2374   19.8760 H   0  0  0  0  0  0
  -25.1302  -36.1950   25.0822 H   0  0  0  0  0  0
  -20.9933  -28.3235   24.1449 H   0  0  0  0  0  0
  -20.5681  -26.2283   23.3603 H   0  0  0  0  0  0
  -21.6636  -26.7466   22.1199 H   0  0  0  0  0  0
  -19.6909  -25.6291   21.1248 H   0  0  0  0  0  0
  -19.6685  -27.3196   20.6748 H   0  0  0  0  0  0
  -17.4190  -26.6677   21.4010 H   0  0  0  0  0  0
  -18.0302  -26.0072   22.9011 H   0  0  0  0  0  0
  -19.7919  -30.7244   24.2316 H   0  0  0  0  0  0
  -17.5007  -31.6279   24.5160 H   0  0  0  0  0  0
  -15.5345  -30.3013   23.7642 H   0  0  0  0  0  0
  -15.8643  -28.0842   22.7069 H   0  0  0  0  0  0
  -24.5979  -30.6966   25.7838 H   0  0  0  0  0  0
  -24.8908  -32.2817   26.4898 H   0  0  0  0  0  0
  -25.8139  -30.8899   27.0245 H   0  0  0  0  0  0
  -26.2847  -29.6778   24.1149 H   0  0  0  0  0  0
  -27.4092  -29.7249   25.4529 H   0  0  0  0  0  0
  -27.8671  -30.4330   23.9215 H   0  0  0  0  0  0
  -27.2659  -33.3607   26.2081 H   0  0  0  0  0  0
  -28.3865  -32.6867   25.0335 H   0  0  0  0  0  0
  -28.0707  -31.8434   26.5418 H   0  0  0  0  0  0
  -28.2592  -38.0113   24.7505 H   0  0  0  0  0  0
  -28.1094  -36.2639   24.6298 H   0  0  0  0  0  0
  -27.2293  -37.1469   25.8861 H   0  0  0  0  0  0
  -20.9281  -29.8774   21.6978 H   0  0  0  0  0  0
  -26.0190  -38.2856   24.1382 H   0  0  0  0  0  0
  -32.2092  -19.3095   20.1469 H   0  0  0  0  0  0
  -30.8306  -20.6123   21.7301 H   0  0  0  0  0  0
  -31.9455  -16.9096   19.9574 H   0  0  0  0  0  0
  -27.4862  -17.4033   23.1089 H   0  0  0  0  0  0
  -28.7166  -16.6835   24.1579 H   0  0  0  0  0  0
  -28.1145  -15.8366   22.7364 H   0  0  0  0  0  0
  -25.8457  -25.1926   24.0084 H   0  0  0  0  0  0
  -27.3128  -24.5502   24.7521 H   0  0  0  0  0  0
  -26.0170  -23.4644   24.2665 H   0  0  0  0  0  0
  -29.6623  -20.2776   24.0701 H   0  0  0  0  0  0
  -28.3457  -19.1749   24.1368 H   0  0  0  0  0  0
  -26.2140  -22.4402   22.2505 H   0  0  0  0  0  0
  -27.2660  -22.9256   20.9699 H   0  0  0  0  0  0
  -27.5986  -24.7972   20.0138 H   0  0  0  0  0  0
  -29.2402  -24.8887   20.5966 H   0  0  0  0  0  0
  -29.3090  -14.9856   21.8390 H   0  0  0  0  0  0
  -27.1178  -20.4161   22.5663 H   0  0  0  0  0  0
  1 25  1  0  0  0
  1 30  2  0  0  0
  1 84  1  0  0  0
  2  3  1  0  0  0
  2 25  1  0  0  0
  2 89  1  0  0  0
  2 90  1  0  0  0
  3  4  1  0  0  0
  3 91  1  0  0  0
  3 92  1  0  0  0
  4  5  1  0  0  0
  4 93  1  0  0  0
  4 94  1  0  0  0
  5  6  1  0  0  0
  5 26  1  0  0  0
  5 95  1  0  0  0
  6 25  1  0  0  0
  6 96  1  0  0  0
  6 97  1  0  0  0
  7  8  2  0  0  0
  7 26  1  0  0  0
  7 29  1  0  0  0
  8  9  1  0  0  0
  8 22  1  0  0  0
  9 10  1  0  0  0
  9 27  2  0  0  0
 10 11  2  0  0  0
 10 15  1  0  0  0
 11 12  1  0  0  0
 11 98  1  0  0  0
 12 13  2  0  0  0
 12 99  1  0  0  0
 13 14  1  0  0  0
 13 31  1  0  0  0
 14 15  2  0  0  0
 14100  1  0  0  0
 15101  1  0  0  0
 16 17  2  0  0  0
 16 21  1  0  0  0
 16 31  1  0  0  0
 17 18  1  0  0  0
 17102  1  0  0  0
 18 19  2  0  0  0
 18103  1  0  0  0
 19 20  1  0  0  0
 19 24  1  0  0  0
 20 21  2  0  0  0
 20104  1  0  0  0
 21 23  1  0  0  0
 22 28  1  0  0  0
 22 32  2  0  0  0
 26 27  1  0  0  0
 28105  1  0  0  0
 28106  1  0  0  0
 29107  1  0  0  0
 29108  1  0  0  0
 33 34  1  0  0  0
 33 66  1  0  0  0
 33 70  2  0  0  0
 34 36  1  0  0  0
 34 59  1  0  0  0
 34109  1  0  0  0
 35 44  2  0  0  0
 35 45  1  0  0  0
 35 68  1  0  0  0
 36 56  1  0  0  0
 36110  1  0  0  0
 37 39  1  0  0  0
 37 47  1  0  0  0
 37 66  1  0  0  0
 37111  1  0  0  0
 38 43  2  0  0  0
 38 46  1  0  0  0
 38 47  1  0  0  0
 39 64  1  0  0  0
 39 67  2  0  0  0
 40 52  1  0  0  0
 40 53  2  0  0  0
 40 58  1  0  0  0
 41112  1  0  0  0
 41113  1  0  0  0
 41114  1  0  0  0
 41 48  1  0  0  0
 42 43  1  0  0  0
 42 66  1  0  0  0
 42115  1  0  0  0
 42116  1  0  0  0
 43 44  1  0  0  0
 44117  1  0  0  0
 45 46  2  0  0  0
 45118  1  0  0  0
 46119  1  0  0  0
 47120  1  0  0  0
 47121  1  0  0  0
 48 56  1  0  0  0
 48 65  1  0  0  0
 48122  1  0  0  0
 49 50  1  0  0  0
 49 53  1  0  0  0
 49 64  1  0  0  0
 49123  1  0  0  0
 50 51  1  0  0  0
 50124  1  0  0  0
 50125  1  0  0  0
 51 52  1  0  0  0
 51126  1  0  0  0
 51127  1  0  0  0
 52128  1  0  0  0
 52129  1  0  0  0
 53 54  1  0  0  0
 54 55  2  0  0  0
 54130  1  0  0  0
 55 57  1  0  0  0
 55131  1  0  0  0
 56 69  2  0  0  0
 57 58  2  0  0  0
 57132  1  0  0  0
 58133  1  0  0  0
 59 60  1  0  0  0
 59 61  1  0  0  0
 59 62  1  0  0  0
 60134  1  0  0  0
 60135  1  0  0  0
 60136  1  0  0  0
 61137  1  0  0  0
 61138  1  0  0  0
 61139  1  0  0  0
 62140  1  0  0  0
 62141  1  0  0  0
 62142  1  0  0  0
 63 65  1  0  0  0
 63143  1  0  0  0
 63144  1  0  0  0
 63145  1  0  0  0
 64146  1  0  0  0
 65147  1  0  0  0
 68 83  1  0  0  0
 71 72  2  0  0  0
 71 73  1  0  0  0
 71148  1  0  0  0
 72 74  1  0  0  0
 72149  1  0  0  0
 73 76  2  0  0  0
 73150  1  0  0  0
 74 75  2  0  0  0
 74 81  1  0  0  0
 75 76  1  0  0  0
 75 79  1  0  0  0
 76 84  1  0  0  0
 77 82  1  0  0  0
 77 85  1  0  0  0
 77 87  2  0  0  0
 78 83  1  0  0  0
 78 86  1  0  0  0
 78 88  2  0  0  0
 79151  1  0  0  0
 79152  1  0  0  0
 79153  1  0  0  0
 80 86  1  0  0  0
 80154  1  0  0  0
 80155  1  0  0  0
 80156  1  0  0  0
 81 85  1  0  0  0
 81157  1  0  0  0
 81158  1  0  0  0
 82 86  1  0  0  0
 82159  1  0  0  0
 82160  1  0  0  0
 83161  1  0  0  0
 83162  1  0  0  0
 84163  1  0  0  0
 85164  1  0  0  0
M  ISO  4   1 100  68 101  83 101  84 100
M  END
> <chiral flag>
0

> <version>
0

> <s_m_source_file>
/data/baiqing/PycharmProjects/Reinvent-master-3.2/result/LINK_invent/BTK/process_docking_weight1_custom_product_contain_oxygen_bond_distance_aromatic_linkinvent_7_9_3/rearranged_h_0048.sdf

> <i_m_source_file_index>
3

> <r_mmod_Potential_Energy-OPLS-2005>
-169.162628173828

> <r_mmod_Stretch_Energy-OPLS-2005>
40.5704231262207

> <r_mmod_Bend_Energy-OPLS-2005>
103.208511352539

> <r_mmod_Torsional_Energy-OPLS-2005>
223.113815307617

> <r_mmod_Improper_Torsional_Energy-OPLS-2005>
2.50211215019226

> <r_mmod_Van_der_Waal_Energy-OPLS-2005>
176.605758666992

> <r_mmod_Electrostatic_Energy-OPLS-2005>
-460.132781982422

> <r_mmod_Solvation_Energy-OPLS-2005>
-265.226440429688

> <b_mmod_Minimization_Converged-OPLS-2005>
0

> <r_mmod_RMS_Derivative-OPLS-2005>
1.73385334014893

$$$$
3
                    3D
 Structure written by MMmdl.
155163  0  0  1  0            999 V2000
  -30.7191  -14.4598   20.5714 C   0  0  0  0  0  0
  -30.4257  -12.2920   19.4460 C   0  0  0  0  0  0
  -29.5056  -12.4773   18.2214 C   0  0  0  0  0  0
  -28.0249  -12.3479   18.6290 C   0  0  0  0  0  0
  -27.6653  -13.2044   19.8721 C   0  0  2  0  0  0
  -28.7009  -13.0041   21.0035 C   0  0  0  0  0  0
  -25.2608  -13.8170   20.5655 C   0  0  0  0  0  0
  -24.1851  -13.0453   20.9158 C   0  0  0  0  0  0
  -24.6392  -11.6910   20.8727 C   0  0  0  0  0  0
  -23.9053  -10.4303   21.0405 C   0  0  0  0  0  0
  -24.3614   -9.4214   21.9171 C   0  0  0  0  0  0
  -23.6300   -8.2242   22.0744 C   0  0  0  0  0  0
  -22.4276   -8.0296   21.3541 C   0  0  0  0  0  0
  -21.9897   -9.0270   20.4646 C   0  0  0  0  0  0
  -22.7219  -10.2148   20.3051 C   0  0  0  0  0  0
  -21.6855   -6.0740   22.5269 C   0  0  0  0  0  0
  -21.4013   -6.5640   23.8201 C   0  0  0  0  0  0
  -21.3658   -5.6787   24.9158 C   0  0  0  0  0  0
  -21.6059   -4.3056   24.7205 C   0  0  0  0  0  0
  -21.8822   -3.8150   23.4328 C   0  0  0  0  0  0
  -21.9193   -4.6973   22.3388 C   0  0  0  0  0  0
  -22.7883  -13.5258   21.1851 C   0  0  0  0  0  0
  -22.1667   -4.2158   21.0968 F   0  0  0  0  0  0
  -21.5630   -3.4546   25.7722 F   0  0  0  0  0  0
  -30.0387  -13.2873   20.4580 N   0  0  0  0  0  0
  -26.3040  -12.9319   20.3323 N   0  0  0  0  0  0
  -25.9316  -11.6496   20.5759 N   0  0  0  0  0  0
  -22.0528  -12.8250   22.0421 N   0  0  0  0  0  0
  -25.4391  -15.1877   20.4063 N   0  0  0  0  0  0
  -31.8456  -14.6290   20.0973 O   0  0  0  0  0  0
  -21.6642   -6.8890   21.4237 O   0  0  0  0  0  0
  -22.3547  -14.5549   20.6689 O   0  0  0  0  0  0
  -24.6154  -31.8670   23.2076 C   0  0  0  0  0  0
  -25.9047  -32.4812   23.8381 C   0  0  1  0  0  0
  -27.2377  -27.4195   20.1191 C   0  0  0  0  0  0
  -25.5907  -33.8607   24.2299 N   0  0  0  0  0  0
  -23.4047  -30.4911   21.5483 C   0  0  2  0  0  0
  -24.8526  -28.9548   20.1140 C   0  0  0  0  0  0
  -22.7425  -29.4651   22.4969 C   0  0  0  0  0  0
  -18.0285  -28.1393   22.8474 C   0  0  0  0  0  0
  -24.1488  -36.7304   23.2621 C   0  0  0  0  0  0
  -25.9349  -30.8299   21.3635 C   0  0  0  0  0  0
  -26.0119  -29.4635   20.7118 C   0  0  0  0  0  0
  -27.2062  -28.7060   20.7049 C   0  0  0  0  0  0
  -26.0591  -26.9320   19.5034 C   0  0  0  0  0  0
  -24.8721  -27.6896   19.5032 C   0  0  0  0  0  0
  -23.6149  -29.8230   20.1622 C   0  0  0  0  0  0
  -25.4085  -36.3092   24.0339 C   0  0  1  0  0  0
  -20.5874  -28.3670   23.1319 C   0  0  2  0  0  0
  -20.6767  -26.9403   22.5430 C   0  0  0  0  0  0
  -19.5750  -26.6396   21.5214 C   0  0  0  0  0  0
  -18.1925  -26.7941   22.1617 C   0  0  0  0  0  0
  -19.1537  -28.8846   23.2888 C   0  0  0  0  0  0
  -18.9458  -30.1459   23.8886 C   0  0  0  0  0  0
  -17.6460  -30.6579   24.0568 C   0  0  0  0  0  0
  -25.9027  -34.9471   23.5110 C   0  0  0  0  0  0
  -16.5345  -29.9087   23.6338 C   0  0  0  0  0  0
  -16.7276  -28.6526   23.0313 C   0  0  0  0  0  0
  -26.4454  -31.6600   25.0728 C   0  0  0  0  0  0
  -25.3725  -31.3772   26.1499 C   0  0  0  0  0  0
  -27.0246  -30.3027   24.6114 C   0  0  0  0  0  0
  -27.6049  -32.4311   25.7475 C   0  0  0  0  0  0
  -27.5615  -37.1735   24.8398 C   0  0  0  0  0  0
  -21.4152  -29.3044   22.3725 N   0  0  0  0  0  0
  -26.4237  -37.3813   23.9477 N   0  0  0  0  0  0
  -24.6697  -31.0777   22.0975 N   0  0  0  0  0  0
  -23.4201  -28.8199   23.3003 O   0  0  0  0  0  0
  -28.4109  -26.6827   20.1779 O   0  0  0  0  0  0
  -26.5581  -34.8943   22.4670 O   0  0  0  0  0  0
  -23.5348  -32.1423   23.7470 O   0  0  0  0  0  0
  -30.6170  -19.5571   20.0232 C   0  0  0  0  0  0
  -30.1959  -18.6248   19.0621 C   0  0  0  0  0  0
  -30.6357  -17.8063   21.7202 C   0  0  0  0  0  0
  -30.8083  -19.1703   21.3649 C   0  0  0  0  0  0
  -30.2395  -16.8496   20.7494 C   0  0  0  0  0  0
  -29.9828  -17.2821   19.4186 C   0  0  0  0  0  0
  -29.4278  -23.3824   21.3594 C   0  0  0  0  0  0
  -29.5083  -24.4861   20.5788 C   0  0  0  0  0  0
  -30.6083  -22.6165   21.7429 C   0  0  0  0  0  0
  -31.1616  -20.2461   22.3973 C   0  0  0  0  0  0
  -28.2953  -25.2551   20.0559 C   0  0  0  0  0  0
  -30.0453  -15.4853   21.1232 N   0  0  0  0  0  0
  -30.2855  -21.4207   22.2640 N   0  0  0  0  0  0
  -31.7750  -22.9661   21.5498 O   0  0  0  0  0  0
  -29.3550  -16.2243   18.2027 Cl  0  0  0  0  0  0
  -31.4728  -12.3736   19.1506 H   0  0  0  0  0  0
  -30.3181  -11.2879   19.8603 H   0  0  0  0  0  0
  -29.7477  -11.7386   17.4543 H   0  0  0  0  0  0
  -29.6847  -13.4525   17.7678 H   0  0  0  0  0  0
  -27.8345  -11.2960   18.8441 H   0  0  0  0  0  0
  -27.3787  -12.6075   17.7905 H   0  0  0  0  0  0
  -27.7076  -14.2466   19.5571 H   0  0  0  0  0  0
  -28.6687  -11.9770   21.3715 H   0  0  0  0  0  0
  -28.4587  -13.6295   21.8641 H   0  0  0  0  0  0
  -25.2756   -9.5713   22.4732 H   0  0  0  0  0  0
  -24.0038   -7.4618   22.7436 H   0  0  0  0  0  0
  -21.0828   -8.8793   19.8943 H   0  0  0  0  0  0
  -22.3673  -10.9698   19.6175 H   0  0  0  0  0  0
  -21.2003   -7.6142   23.9711 H   0  0  0  0  0  0
  -21.1487   -6.0506   25.9061 H   0  0  0  0  0  0
  -22.0605   -2.7617   23.2809 H   0  0  0  0  0  0
  -22.4158  -11.9906   22.4803 H   0  0  0  0  0  0
  -21.1184  -13.1320   22.2693 H   0  0  0  0  0  0
  -24.6845  -15.8572   20.5127 H   0  0  0  0  0  0
  -26.2975  -15.6103   20.0758 H   0  0  0  0  0  0
  -26.7143  -32.5523   23.1164 H   0  0  0  0  0  0
  -25.0089  -33.9786   25.0468 H   0  0  0  0  0  0
  -22.6938  -31.3073   21.4100 H   0  0  0  0  0  0
  -23.3804  -35.9579   23.3135 H   0  0  0  0  0  0
  -24.3633  -36.9053   22.2071 H   0  0  0  0  0  0
  -23.7160  -37.6433   23.6717 H   0  0  0  0  0  0
  -26.0499  -31.5928   20.5928 H   0  0  0  0  0  0
  -26.8227  -30.8831   21.9815 H   0  0  0  0  0  0
  -28.1000  -29.0910   21.1759 H   0  0  0  0  0  0
  -26.0349  -25.9632   19.0254 H   0  0  0  0  0  0
  -23.9840  -27.2927   19.0300 H   0  0  0  0  0  0
  -23.7323  -30.5974   19.4039 H   0  0  0  0  0  0
  -22.7392  -29.2452   19.8625 H   0  0  0  0  0  0
  -25.1235  -36.1914   25.0822 H   0  0  0  0  0  0
  -20.9957  -28.3232   24.1440 H   0  0  0  0  0  0
  -20.5659  -26.2269   23.3606 H   0  0  0  0  0  0
  -21.6638  -26.7442   22.1236 H   0  0  0  0  0  0
  -19.6901  -25.6311   21.1231 H   0  0  0  0  0  0
  -19.6701  -27.3221   20.6754 H   0  0  0  0  0  0
  -17.4205  -26.6700   21.4003 H   0  0  0  0  0  0
  -18.0307  -26.0089   22.9020 H   0  0  0  0  0  0
  -19.7930  -30.7283   24.2226 H   0  0  0  0  0  0
  -17.5019  -31.6238   24.5201 H   0  0  0  0  0  0
  -15.5342  -30.2974   23.7665 H   0  0  0  0  0  0
  -15.8686  -28.0865   22.6962 H   0  0  0  0  0  0
  -24.5879  -30.7112   25.7883 H   0  0  0  0  0  0
  -24.8955  -32.2971   26.4904 H   0  0  0  0  0  0
  -25.8084  -30.8996   27.0286 H   0  0  0  0  0  0
  -26.2804  -29.6855   24.1086 H   0  0  0  0  0  0
  -27.3902  -29.7178   25.4559 H   0  0  0  0  0  0
  -27.8684  -30.4297   23.9331 H   0  0  0  0  0  0
  -27.2686  -33.3604   26.2083 H   0  0  0  0  0  0
  -28.3843  -32.6877   25.0288 H   0  0  0  0  0  0
  -28.0754  -31.8440   26.5368 H   0  0  0  0  0  0
  -28.2405  -38.0251   24.7779 H   0  0  0  0  0  0
  -28.1326  -36.2819   24.5754 H   0  0  0  0  0  0
  -27.2431  -37.0834   25.8801 H   0  0  0  0  0  0
  -20.9306  -29.8797   21.6975 H   0  0  0  0  0  0
  -26.0098  -38.2828   24.1709 H   0  0  0  0  0  0
  -30.7621  -20.5856   19.7242 H   0  0  0  0  0  0
  -30.0093  -18.9468   18.0489 H   0  0  0  0  0  0
  -30.7948  -17.4924   22.7419 H   0  0  0  0  0  0
  -28.4530  -23.0433   21.6814 H   0  0  0  0  0  0
  -30.4741  -24.8468   20.2511 H   0  0  0  0  0  0
  -32.2128  -20.5182   22.2737 H   0  0  0  0  0  0
  -31.0663  -19.8457   23.4074 H   0  0  0  0  0  0
  -27.4163  -24.8869   20.5863 H   0  0  0  0  0  0
  -28.1762  -25.0014   19.0019 H   0  0  0  0  0  0
  -29.1657  -15.2610   21.5640 H   0  0  0  0  0  0
  -29.3057  -21.2470   22.4365 H   0  0  0  0  0  0
  1 25  1  0  0  0
  1 30  2  0  0  0
  1 82  1  0  0  0
  2  3  1  0  0  0
  2 25  1  0  0  0
  2 86  1  0  0  0
  2 87  1  0  0  0
  3  4  1  0  0  0
  3 88  1  0  0  0
  3 89  1  0  0  0
  4  5  1  0  0  0
  4 90  1  0  0  0
  4 91  1  0  0  0
  5  6  1  0  0  0
  5 26  1  0  0  0
  5 92  1  0  0  0
  6 25  1  0  0  0
  6 93  1  0  0  0
  6 94  1  0  0  0
  7  8  2  0  0  0
  7 26  1  0  0  0
  7 29  1  0  0  0
  8  9  1  0  0  0
  8 22  1  0  0  0
  9 10  1  0  0  0
  9 27  2  0  0  0
 10 11  2  0  0  0
 10 15  1  0  0  0
 11 12  1  0  0  0
 11 95  1  0  0  0
 12 13  2  0  0  0
 12 96  1  0  0  0
 13 14  1  0  0  0
 13 31  1  0  0  0
 14 15  2  0  0  0
 14 97  1  0  0  0
 15 98  1  0  0  0
 16 17  2  0  0  0
 16 21  1  0  0  0
 16 31  1  0  0  0
 17 18  1  0  0  0
 17 99  1  0  0  0
 18 19  2  0  0  0
 18100  1  0  0  0
 19 20  1  0  0  0
 19 24  1  0  0  0
 20 21  2  0  0  0
 20101  1  0  0  0
 21 23  1  0  0  0
 22 28  1  0  0  0
 22 32  2  0  0  0
 26 27  1  0  0  0
 28102  1  0  0  0
 28103  1  0  0  0
 29104  1  0  0  0
 29105  1  0  0  0
 33 34  1  0  0  0
 33 66  1  0  0  0
 33 70  2  0  0  0
 34 36  1  0  0  0
 34 59  1  0  0  0
 34106  1  0  0  0
 35 44  2  0  0  0
 35 45  1  0  0  0
 35 68  1  0  0  0
 36 56  1  0  0  0
 36107  1  0  0  0
 37 39  1  0  0  0
 37 47  1  0  0  0
 37 66  1  0  0  0
 37108  1  0  0  0
 38 43  2  0  0  0
 38 46  1  0  0  0
 38 47  1  0  0  0
 39 64  1  0  0  0
 39 67  2  0  0  0
 40 52  1  0  0  0
 40 53  2  0  0  0
 40 58  1  0  0  0
 41109  1  0  0  0
 41110  1  0  0  0
 41111  1  0  0  0
 41 48  1  0  0  0
 42 43  1  0  0  0
 42 66  1  0  0  0
 42112  1  0  0  0
 42113  1  0  0  0
 43 44  1  0  0  0
 44114  1  0  0  0
 45 46  2  0  0  0
 45115  1  0  0  0
 46116  1  0  0  0
 47117  1  0  0  0
 47118  1  0  0  0
 48 56  1  0  0  0
 48 65  1  0  0  0
 48119  1  0  0  0
 49 50  1  0  0  0
 49 53  1  0  0  0
 49 64  1  0  0  0
 49120  1  0  0  0
 50 51  1  0  0  0
 50121  1  0  0  0
 50122  1  0  0  0
 51 52  1  0  0  0
 51123  1  0  0  0
 51124  1  0  0  0
 52125  1  0  0  0
 52126  1  0  0  0
 53 54  1  0  0  0
 54 55  2  0  0  0
 54127  1  0  0  0
 55 57  1  0  0  0
 55128  1  0  0  0
 56 69  2  0  0  0
 57 58  2  0  0  0
 57129  1  0  0  0
 58130  1  0  0  0
 59 60  1  0  0  0
 59 61  1  0  0  0
 59 62  1  0  0  0
 60131  1  0  0  0
 60132  1  0  0  0
 60133  1  0  0  0
 61134  1  0  0  0
 61135  1  0  0  0
 61136  1  0  0  0
 62137  1  0  0  0
 62138  1  0  0  0
 62139  1  0  0  0
 63 65  1  0  0  0
 63140  1  0  0  0
 63141  1  0  0  0
 63142  1  0  0  0
 64143  1  0  0  0
 65144  1  0  0  0
 68 81  1  0  0  0
 71 72  2  0  0  0
 71 74  1  0  0  0
 71145  1  0  0  0
 72 76  1  0  0  0
 72146  1  0  0  0
 73 74  2  0  0  0
 73 75  1  0  0  0
 73147  1  0  0  0
 74 80  1  0  0  0
 75 76  2  0  0  0
 75 82  1  0  0  0
 76 85  1  0  0  0
 77 78  2  0  0  0
 77 79  1  0  0  0
 77148  1  0  0  0
 78 81  1  0  0  0
 78149  1  0  0  0
 79 83  1  0  0  0
 79 84  2  0  0  0
 80 83  1  0  0  0
 80150  1  0  0  0
 80151  1  0  0  0
 81152  1  0  0  0
 81153  1  0  0  0
 82154  1  0  0  0
 83155  1  0  0  0
M  ISO  4   1 100  68 101  81 101  82 100
M  END
> <chiral flag>
0

> <version>
0

> <s_m_source_file>
/data/baiqing/PycharmProjects/Reinvent-master-3.2/result/LINK_invent/BTK/process_docking_weight1_custom_product_contain_oxygen_bond_distance_aromatic_linkinvent_7_9_3/rearranged_h_0048.sdf

> <i_m_source_file_index>
4

> <r_mmod_Potential_Energy-OPLS-2005>
-200.146896362305

> <r_mmod_Stretch_Energy-OPLS-2005>
38.0718765258789

> <r_mmod_Bend_Energy-OPLS-2005>
90.8577423095703

> <r_mmod_Torsional_Energy-OPLS-2005>
234.268600463867

> <r_mmod_Improper_Torsional_Energy-OPLS-2005>
5.36491250991821

> <r_mmod_Van_der_Waal_Energy-OPLS-2005>
155.44123840332

> <r_mmod_Electrostatic_Energy-OPLS-2005>
-497.655151367188

> <r_mmod_Solvation_Energy-OPLS-2005>
-242.380783081055

> <b_mmod_Minimization_Converged-OPLS-2005>
0

> <r_mmod_RMS_Derivative-OPLS-2005>
3.43403100967407

$$$$
4
                    3D
 Structure written by MMmdl.
162170  0  0  1  0            999 V2000
  -30.5577  -14.9692   20.4124 C   0  0  0  0  0  0
  -30.4324  -12.5979   19.5067 C   0  0  0  0  0  0
  -29.5168  -12.5100   18.2665 C   0  0  0  0  0  0
  -28.0543  -12.2945   18.6915 C   0  0  0  0  0  0
  -27.6260  -13.2448   19.8410 C   0  0  2  0  0  0
  -28.6698  -13.3009   20.9757 C   0  0  0  0  0  0
  -25.2469  -13.8222   20.5721 C   0  0  0  0  0  0
  -24.1783  -13.0451   20.9226 C   0  0  0  0  0  0
  -24.6394  -11.6929   20.8775 C   0  0  0  0  0  0
  -23.9076  -10.4296   21.0418 C   0  0  0  0  0  0
  -24.3642   -9.4209   21.9188 C   0  0  0  0  0  0
  -23.6309   -8.2246   22.0752 C   0  0  0  0  0  0
  -22.4282   -8.0296   21.3557 C   0  0  0  0  0  0
  -21.9942   -9.0268   20.4664 C   0  0  0  0  0  0
  -22.7263  -10.2138   20.3073 C   0  0  0  0  0  0
  -21.6860   -6.0756   22.5283 C   0  0  0  0  0  0
  -21.3999   -6.5647   23.8215 C   0  0  0  0  0  0
  -21.3644   -5.6791   24.9183 C   0  0  0  0  0  0
  -21.6040   -4.3057   24.7223 C   0  0  0  0  0  0
  -21.8829   -3.8162   23.4335 C   0  0  0  0  0  0
  -21.9199   -4.6983   22.3401 C   0  0  0  0  0  0
  -22.7803  -13.5228   21.1879 C   0  0  0  0  0  0
  -22.1666   -4.2181   21.0977 F   0  0  0  0  0  0
  -21.5634   -3.4543   25.7727 F   0  0  0  0  0  0
  -29.9388  -13.7174   20.3657 N   0  0  0  0  0  0
  -26.2874  -12.9440   20.3277 N   0  0  0  0  0  0
  -25.9317  -11.6566   20.5797 N   0  0  0  0  0  0
  -22.0468  -12.8199   22.0444 N   0  0  0  0  0  0
  -25.4170  -15.1945   20.4131 N   0  0  0  0  0  0
  -31.7597  -14.9707   20.1206 O   0  0  0  0  0  0
  -21.6649   -6.8897   21.4243 O   0  0  0  0  0  0
  -22.3490  -14.5550   20.6747 O   0  0  0  0  0  0
  -24.6486  -31.8426   23.1784 C   0  0  0  0  0  0
  -25.9201  -32.4709   23.8258 C   0  0  1  0  0  0
  -27.2294  -27.0993   20.1910 C   0  0  0  0  0  0
  -25.5930  -33.8527   24.2174 N   0  0  0  0  0  0
  -23.4580  -30.4546   21.5234 C   0  0  2  0  0  0
  -24.9133  -28.8677   20.1140 C   0  0  0  0  0  0
  -22.7607  -29.4519   22.4792 C   0  0  0  0  0  0
  -18.0301  -28.1405   22.8456 C   0  0  0  0  0  0
  -24.1462  -36.7242   23.2657 C   0  0  0  0  0  0
  -26.0131  -30.7079   21.3766 C   0  0  0  0  0  0
  -26.0871  -29.3120   20.7342 C   0  0  0  0  0  0
  -27.2491  -28.4462   20.7480 C   0  0  0  0  0  0
  -26.0336  -26.7649   19.5252 C   0  0  0  0  0  0
  -24.9021  -27.6118   19.4907 C   0  0  0  0  0  0
  -23.6902  -29.7730   20.1469 C   0  0  0  0  0  0
  -25.4087  -36.3014   24.0323 C   0  0  1  0  0  0
  -20.5924  -28.3741   23.1202 C   0  0  2  0  0  0
  -20.6763  -26.9419   22.5421 C   0  0  0  0  0  0
  -19.5736  -26.6357   21.5238 C   0  0  0  0  0  0
  -18.1915  -26.7945   22.1625 C   0  0  0  0  0  0
  -19.1567  -28.8881   23.2836 C   0  0  0  0  0  0
  -18.9498  -30.1472   23.8865 C   0  0  0  0  0  0
  -17.6506  -30.6603   24.0553 C   0  0  0  0  0  0
  -25.9060  -34.9422   23.5055 C   0  0  0  0  0  0
  -16.5375  -29.9104   23.6352 C   0  0  0  0  0  0
  -16.7295  -28.6519   23.0365 C   0  0  0  0  0  0
  -26.4519  -31.6604   25.0735 C   0  0  0  0  0  0
  -25.3679  -31.3774   26.1405 C   0  0  0  0  0  0
  -27.0412  -30.3025   24.6291 C   0  0  0  0  0  0
  -27.6009  -32.4423   25.7498 C   0  0  0  0  0  0
  -27.5530  -37.1754   24.8471 C   0  0  0  0  0  0
  -21.4286  -29.3076   22.3591 N   0  0  0  0  0  0
  -26.4217  -37.3752   23.9448 N   0  0  0  0  0  0
  -24.7271  -31.0262   22.0821 N   0  0  0  0  0  0
  -23.4245  -28.8034   23.2938 O   0  0  0  0  0  0
  -28.2905  -26.1134   20.2218 O   0  0  0  0  0  0
  -26.5667  -34.8923   22.4646 O   0  0  0  0  0  0
  -23.5583  -32.1286   23.6975 O   0  0  0  0  0  0
  -31.7831  -18.4063   22.3583 C   0  0  0  0  0  0
  -30.6925  -18.9617   23.0544 C   0  0  0  0  0  0
  -31.5748  -17.8076   21.1023 C   0  0  0  0  0  0
  -29.4644  -19.1751   22.3864 C   0  0  0  0  0  0
  -29.4125  -18.9072   20.9948 C   0  0  0  0  0  0
  -30.2431  -17.6922   20.6335 C   0  0  0  0  0  0
  -30.3984  -23.5638   19.9813 C   0  0  0  0  0  0
  -27.8760  -19.0290   24.3601 C   0  0  0  0  0  0
  -29.2842  -20.3553   20.1619 C   0  0  0  0  0  0
  -28.0874  -24.6041   20.6377 C   0  0  0  0  0  0
  -28.9032  -23.2060   20.0780 C   0  0  2  0  0  0
  -28.3165  -19.8391   23.1376 C   0  0  0  0  0  0
  -29.8252  -16.1992   20.5553 N   0  0  0  0  0  0
  -28.7646  -21.7523   20.7628 N   0  3  0  0  0  0
  -27.2490  -19.9738   22.3457 F   0  0  0  0  0  0
  -28.7077  -21.0499   23.5384 F   0  0  0  0  0  0
  -31.4667  -12.7342   19.1919 H   0  0  0  0  0  0
  -30.4262  -11.6576   20.0610 H   0  0  0  0  0  0
  -29.8382  -11.6895   17.6247 H   0  0  0  0  0  0
  -29.6024  -13.4200   17.6731 H   0  0  0  0  0  0
  -27.9612  -11.2576   19.0197 H   0  0  0  0  0  0
  -27.3854  -12.4001   17.8372 H   0  0  0  0  0  0
  -27.5880  -14.2395   19.3984 H   0  0  0  0  0  0
  -28.7647  -12.3323   21.4658 H   0  0  0  0  0  0
  -28.3670  -14.0074   21.7494 H   0  0  0  0  0  0
  -25.2787   -9.5691   22.4767 H   0  0  0  0  0  0
  -24.0052   -7.4625   22.7440 H   0  0  0  0  0  0
  -21.0894   -8.8772   19.8940 H   0  0  0  0  0  0
  -22.3722  -10.9690   19.6198 H   0  0  0  0  0  0
  -21.1963   -7.6145   23.9733 H   0  0  0  0  0  0
  -21.1449   -6.0512   25.9081 H   0  0  0  0  0  0
  -22.0617   -2.7632   23.2820 H   0  0  0  0  0  0
  -22.4106  -11.9861   22.4798 H   0  0  0  0  0  0
  -21.1078  -13.1183   22.2669 H   0  0  0  0  0  0
  -24.6558  -15.8527   20.5371 H   0  0  0  0  0  0
  -26.2608  -15.6250   20.0540 H   0  0  0  0  0  0
  -26.7273  -32.5317   23.0989 H   0  0  0  0  0  0
  -25.0084  -33.9661   25.0321 H   0  0  0  0  0  0
  -22.7612  -31.2796   21.3547 H   0  0  0  0  0  0
  -23.3741  -35.9567   23.3318 H   0  0  0  0  0  0
  -24.3509  -36.8906   22.2067 H   0  0  0  0  0  0
  -23.7223  -37.6423   23.6735 H   0  0  0  0  0  0
  -26.1635  -31.4467   20.5881 H   0  0  0  0  0  0
  -26.8861  -30.7728   22.0146 H   0  0  0  0  0  0
  -28.1475  -28.7830   21.2415 H   0  0  0  0  0  0
  -25.9537  -25.8022   19.0387 H   0  0  0  0  0  0
  -24.0060  -27.2629   18.9962 H   0  0  0  0  0  0
  -23.8284  -30.5427   19.3893 H   0  0  0  0  0  0
  -22.8065  -29.2134   19.8346 H   0  0  0  0  0  0
  -25.1266  -36.1823   25.0813 H   0  0  0  0  0  0
  -21.0019  -28.3339   24.1326 H   0  0  0  0  0  0
  -20.5678  -26.2340   23.3650 H   0  0  0  0  0  0
  -21.6605  -26.7422   22.1179 H   0  0  0  0  0  0
  -19.6911  -25.6272   21.1260 H   0  0  0  0  0  0
  -19.6676  -27.3155   20.6765 H   0  0  0  0  0  0
  -17.4185  -26.6731   21.4012 H   0  0  0  0  0  0
  -18.0259  -26.0127   22.9037 H   0  0  0  0  0  0
  -19.7999  -30.7285   24.2202 H   0  0  0  0  0  0
  -17.5074  -31.6278   24.5170 H   0  0  0  0  0  0
  -15.5385  -30.2995   23.7691 H   0  0  0  0  0  0
  -15.8681  -28.0822   22.7106 H   0  0  0  0  0  0
  -24.5865  -30.7131   25.7703 H   0  0  0  0  0  0
  -24.8835  -32.2929   26.4830 H   0  0  0  0  0  0
  -25.7897  -30.8938   27.0222 H   0  0  0  0  0  0
  -26.3053  -29.6705   24.1305 H   0  0  0  0  0  0
  -27.4108  -29.7359   25.4858 H   0  0  0  0  0  0
  -27.8897  -30.4337   23.9571 H   0  0  0  0  0  0
  -27.2606  -33.3791   26.1925 H   0  0  0  0  0  0
  -28.3818  -32.6921   25.0313 H   0  0  0  0  0  0
  -28.0661  -31.8677   26.5508 H   0  0  0  0  0  0
  -28.2516  -38.0075   24.7501 H   0  0  0  0  0  0
  -28.1032  -36.2597   24.6272 H   0  0  0  0  0  0
  -27.2248  -37.1358   25.8873 H   0  0  0  0  0  0
  -20.9521  -29.8883   21.6824 H   0  0  0  0  0  0
  -26.0076  -38.2807   24.1507 H   0  0  0  0  0  0
  -32.7441  -18.3054   22.8425 H   0  0  0  0  0  0
  -30.8224  -19.2770   24.0802 H   0  0  0  0  0  0
  -32.3716  -17.1670   20.7578 H   0  0  0  0  0  0
  -30.5418  -24.4674   19.3898 H   0  0  0  0  0  0
  -30.9703  -22.7731   19.4996 H   0  0  0  0  0  0
  -30.8373  -23.7482   20.9662 H   0  0  0  0  0  0
  -27.5462  -18.0304   24.0690 H   0  0  0  0  0  0
  -27.0438  -19.5194   24.8615 H   0  0  0  0  0  0
  -28.6830  -18.9212   25.0870 H   0  0  0  0  0  0
  -28.6861  -20.1471   19.2728 H   0  0  0  0  0  0
  -30.2888  -20.5538   19.7871 H   0  0  0  0  0  0
  -28.2988  -24.6279   21.7076 H   0  0  0  0  0  0
  -27.0220  -24.3902   20.5952 H   0  0  0  0  0  0
  -28.5475  -23.0651   19.0562 H   0  0  0  0  0  0
  -28.8346  -16.0437   20.6735 H   0  0  0  0  0  0
  -29.1814  -21.8181   21.6808 H   0  0  0  0  0  0
  -27.7792  -21.5994   20.9256 H   0  0  0  0  0  0
  1 25  1  0  0  0
  1 30  2  0  0  0
  1 83  1  0  0  0
  2  3  1  0  0  0
  2 25  1  0  0  0
  2 87  1  0  0  0
  2 88  1  0  0  0
  3  4  1  0  0  0
  3 89  1  0  0  0
  3 90  1  0  0  0
  4  5  1  0  0  0
  4 91  1  0  0  0
  4 92  1  0  0  0
  5  6  1  0  0  0
  5 26  1  0  0  0
  5 93  1  0  0  0
  6 25  1  0  0  0
  6 94  1  0  0  0
  6 95  1  0  0  0
  7  8  2  0  0  0
  7 26  1  0  0  0
  7 29  1  0  0  0
  8  9  1  0  0  0
  8 22  1  0  0  0
  9 10  1  0  0  0
  9 27  2  0  0  0
 10 11  2  0  0  0
 10 15  1  0  0  0
 11 12  1  0  0  0
 11 96  1  0  0  0
 12 13  2  0  0  0
 12 97  1  0  0  0
 13 14  1  0  0  0
 13 31  1  0  0  0
 14 15  2  0  0  0
 14 98  1  0  0  0
 15 99  1  0  0  0
 16 17  2  0  0  0
 16 21  1  0  0  0
 16 31  1  0  0  0
 17 18  1  0  0  0
 17100  1  0  0  0
 18 19  2  0  0  0
 18101  1  0  0  0
 19 20  1  0  0  0
 19 24  1  0  0  0
 20 21  2  0  0  0
 20102  1  0  0  0
 21 23  1  0  0  0
 22 28  1  0  0  0
 22 32  2  0  0  0
 26 27  1  0  0  0
 28103  1  0  0  0
 28104  1  0  0  0
 29105  1  0  0  0
 29106  1  0  0  0
 33 34  1  0  0  0
 33 66  1  0  0  0
 33 70  2  0  0  0
 34 36  1  0  0  0
 34 59  1  0  0  0
 34107  1  0  0  0
 35 44  2  0  0  0
 35 45  1  0  0  0
 35 68  1  0  0  0
 36 56  1  0  0  0
 36108  1  0  0  0
 37 39  1  0  0  0
 37 47  1  0  0  0
 37 66  1  0  0  0
 37109  1  0  0  0
 38 43  2  0  0  0
 38 46  1  0  0  0
 38 47  1  0  0  0
 39 64  1  0  0  0
 39 67  2  0  0  0
 40 52  1  0  0  0
 40 53  2  0  0  0
 40 58  1  0  0  0
 41110  1  0  0  0
 41111  1  0  0  0
 41112  1  0  0  0
 41 48  1  0  0  0
 42 43  1  0  0  0
 42 66  1  0  0  0
 42113  1  0  0  0
 42114  1  0  0  0
 43 44  1  0  0  0
 44115  1  0  0  0
 45 46  2  0  0  0
 45116  1  0  0  0
 46117  1  0  0  0
 47118  1  0  0  0
 47119  1  0  0  0
 48 56  1  0  0  0
 48 65  1  0  0  0
 48120  1  0  0  0
 49 50  1  0  0  0
 49 53  1  0  0  0
 49 64  1  0  0  0
 49121  1  0  0  0
 50 51  1  0  0  0
 50122  1  0  0  0
 50123  1  0  0  0
 51 52  1  0  0  0
 51124  1  0  0  0
 51125  1  0  0  0
 52126  1  0  0  0
 52127  1  0  0  0
 53 54  1  0  0  0
 54 55  2  0  0  0
 54128  1  0  0  0
 55 57  1  0  0  0
 55129  1  0  0  0
 56 69  2  0  0  0
 57 58  2  0  0  0
 57130  1  0  0  0
 58131  1  0  0  0
 59 60  1  0  0  0
 59 61  1  0  0  0
 59 62  1  0  0  0
 60132  1  0  0  0
 60133  1  0  0  0
 60134  1  0  0  0
 61135  1  0  0  0
 61136  1  0  0  0
 61137  1  0  0  0
 62138  1  0  0  0
 62139  1  0  0  0
 62140  1  0  0  0
 63 65  1  0  0  0
 63141  1  0  0  0
 63142  1  0  0  0
 63143  1  0  0  0
 64144  1  0  0  0
 65145  1  0  0  0
 68 80  1  0  0  0
 71 72  2  0  0  0
 71 73  1  0  0  0
 71146  1  0  0  0
 72 74  1  0  0  0
 72147  1  0  0  0
 73 76  2  0  0  0
 73148  1  0  0  0
 74 75  2  0  0  0
 74 82  1  0  0  0
 75 76  1  0  0  0
 75 79  1  0  0  0
 76 83  1  0  0  0
 77149  1  0  0  0
 77150  1  0  0  0
 77151  1  0  0  0
 77 81  1  0  0  0
 78152  1  0  0  0
 78153  1  0  0  0
 78154  1  0  0  0
 78 82  1  0  0  0
 79 84  1  0  0  0
 79155  1  0  0  0
 79156  1  0  0  0
 80 81  1  0  0  0
 80157  1  0  0  0
 80158  1  0  0  0
 81 84  1  0  0  0
 81159  1  0  0  0
 82 85  1  0  0  0
 82 86  1  0  0  0
 83160  1  0  0  0
 84161  1  0  0  0
 84162  1  0  0  0
M  CHG  1  84   1
M  ISO  4   1 100  68 101  80 101  83 100
M  END
> <chiral flag>
0

> <version>
0

> <s_m_source_file>
/data/baiqing/PycharmProjects/Reinvent-master-3.2/result/LINK_invent/BTK/process_docking_weight1_custom_product_contain_oxygen_bond_distance_aromatic_linkinvent_7_9_3/rearranged_h_0048.sdf

> <i_m_source_file_index>
5

> <r_mmod_Potential_Energy-OPLS-2005>
716.600341796875

> <r_mmod_Stretch_Energy-OPLS-2005>
322.070587158203

> <r_mmod_Bend_Energy-OPLS-2005>
292.768676757812

> <r_mmod_Torsional_Energy-OPLS-2005>
461.080718994141

> <r_mmod_Improper_Torsional_Energy-OPLS-2005>
32.157585144043

> <r_mmod_Van_der_Waal_Energy-OPLS-2005>
140.864105224609

> <r_mmod_Electrostatic_Energy-OPLS-2005>
-318.779754638672

> <r_mmod_Solvation_Energy-OPLS-2005>
-424.954956054688

> <b_mmod_Minimization_Converged-OPLS-2005>
0

> <r_mmod_RMS_Derivative-OPLS-2005>
4.99391603469849

$$$$
5
                    3D
 Structure written by MMmdl.
163171  0  0  1  0            999 V2000
  -30.7097  -14.5201   20.5220 C   0  0  0  0  0  0
  -30.4159  -12.3247   19.4361 C   0  0  0  0  0  0
  -29.4900  -12.4913   18.2145 C   0  0  0  0  0  0
  -28.0133  -12.3576   18.6297 C   0  0  0  0  0  0
  -27.6550  -13.2178   19.8713 C   0  0  2  0  0  0
  -28.7027  -13.0495   20.9960 C   0  0  0  0  0  0
  -25.2529  -13.8174   20.5676 C   0  0  0  0  0  0
  -24.1816  -13.0438   20.9218 C   0  0  0  0  0  0
  -24.6396  -11.6912   20.8777 C   0  0  0  0  0  0
  -23.9066  -10.4289   21.0424 C   0  0  0  0  0  0
  -24.3617   -9.4199   21.9199 C   0  0  0  0  0  0
  -23.6294   -8.2232   22.0755 C   0  0  0  0  0  0
  -22.4279   -8.0277   21.3537 C   0  0  0  0  0  0
  -21.9916   -9.0255   20.4642 C   0  0  0  0  0  0
  -22.7241  -10.2137   20.3064 C   0  0  0  0  0  0
  -21.6854   -6.0736   22.5275 C   0  0  0  0  0  0
  -21.4011   -6.5638   23.8213 C   0  0  0  0  0  0
  -21.3660   -5.6788   24.9175 C   0  0  0  0  0  0
  -21.6044   -4.3050   24.7220 C   0  0  0  0  0  0
  -21.8823   -3.8144   23.4344 C   0  0  0  0  0  0
  -21.9192   -4.6964   22.3399 C   0  0  0  0  0  0
  -22.7829  -13.5214   21.1867 C   0  0  0  0  0  0
  -22.1663   -4.2143   21.0977 F   0  0  0  0  0  0
  -21.5631   -3.4538   25.7739 F   0  0  0  0  0  0
  -30.0258  -13.3440   20.4258 N   0  0  0  0  0  0
  -26.2996  -12.9376   20.3383 N   0  0  0  0  0  0
  -25.9330  -11.6529   20.5820 N   0  0  0  0  0  0
  -22.0477  -12.8204   22.0424 N   0  0  0  0  0  0
  -25.4189  -15.1879   20.3993 N   0  0  0  0  0  0
  -31.8649  -14.6263   20.1047 O   0  0  0  0  0  0
  -21.6639   -6.8877   21.4236 O   0  0  0  0  0  0
  -22.3518  -14.5523   20.6708 O   0  0  0  0  0  0
  -24.6173  -31.8662   23.2096 C   0  0  0  0  0  0
  -25.9061  -32.4817   23.8397 C   0  0  1  0  0  0
  -27.2276  -27.4063   20.1092 C   0  0  0  0  0  0
  -25.5910  -33.8618   24.2323 N   0  0  0  0  0  0
  -23.4064  -30.4892   21.5507 C   0  0  2  0  0  0
  -24.8553  -28.9554   20.1089 C   0  0  0  0  0  0
  -22.7438  -29.4642   22.5006 C   0  0  0  0  0  0
  -18.0278  -28.1356   22.8487 C   0  0  0  0  0  0
  -24.1491  -36.7308   23.2640 C   0  0  0  0  0  0
  -25.9386  -30.8254   21.3661 C   0  0  0  0  0  0
  -26.0187  -29.4594   20.7081 C   0  0  0  0  0  0
  -27.2123  -28.6928   20.7048 C   0  0  0  0  0  0
  -26.0534  -26.9290   19.4905 C   0  0  0  0  0  0
  -24.8697  -27.6914   19.4927 C   0  0  0  0  0  0
  -23.6155  -29.8235   20.1640 C   0  0  0  0  0  0
  -25.4106  -36.3111   24.0335 C   0  0  1  0  0  0
  -20.5866  -28.3642   23.1320 C   0  0  2  0  0  0
  -20.6766  -26.9380   22.5419 C   0  0  0  0  0  0
  -19.5753  -26.6361   21.5211 C   0  0  0  0  0  0
  -18.1924  -26.7902   22.1614 C   0  0  0  0  0  0
  -19.1524  -28.8822   23.2889 C   0  0  0  0  0  0
  -18.9456  -30.1428   23.8896 C   0  0  0  0  0  0
  -17.6466  -30.6572   24.0555 C   0  0  0  0  0  0
  -25.9030  -34.9477   23.5125 C   0  0  0  0  0  0
  -16.5359  -29.9056   23.6330 C   0  0  0  0  0  0
  -16.7270  -28.6471   23.0350 C   0  0  0  0  0  0
  -26.4470  -31.6602   25.0730 C   0  0  0  0  0  0
  -25.3718  -31.3718   26.1468 C   0  0  0  0  0  0
  -27.0311  -30.3051   24.6110 C   0  0  0  0  0  0
  -27.6051  -32.4327   25.7489 C   0  0  0  0  0  0
  -27.5581  -37.1807   24.8461 C   0  0  0  0  0  0
  -21.4166  -29.3005   22.3740 N   0  0  0  0  0  0
  -26.4294  -37.3788   23.9404 N   0  0  0  0  0  0
  -24.6721  -31.0739   22.1001 N   0  0  0  0  0  0
  -23.4208  -28.8193   23.3063 O   0  0  0  0  0  0
  -28.3372  -26.5829   20.1556 O   0  0  0  0  0  0
  -26.5614  -34.8935   22.4701 O   0  0  0  0  0  0
  -23.5354  -32.1446   23.7456 O   0  0  0  0  0  0
  -32.2012  -18.6518   21.1955 C   0  0  0  0  0  0
  -31.3336  -19.6825   20.8034 C   0  0  0  0  0  0
  -31.7470  -17.3250   21.2456 C   0  0  0  0  0  0
  -29.9807  -19.4223   20.4858 C   0  0  0  0  0  0
  -29.5160  -18.0577   20.5525 C   0  0  0  0  0  0
  -30.4179  -16.9928   20.8946 C   0  0  0  0  0  0
  -29.1235  -20.5979   20.0196 C   0  0  0  0  0  0
  -28.0594  -17.7169   20.2475 C   0  0  0  0  0  0
  -30.5201  -24.7354   20.4779 C   0  0  0  0  0  0
  -29.4597  -23.9011   22.5807 C   0  0  0  0  0  0
  -28.6067  -23.0524   20.3579 C   0  0  0  0  0  0
  -28.1826  -25.5221   21.1306 C   0  0  0  0  0  0
  -29.1849  -24.3053   21.1101 C   0  0  0  0  0  0
  -29.9967  -15.6079   20.9154 N   0  0  0  0  0  0
  -29.3553  -21.7963   20.5971 N   0  0  0  0  0  0
  -28.2535  -20.4547   19.1580 O   0  0  0  0  0  0
  -31.4595  -12.4098   19.1285 H   0  0  0  0  0  0
  -30.3164  -11.3268   19.8659 H   0  0  0  0  0  0
  -29.7309  -11.7474   17.4547 H   0  0  0  0  0  0
  -29.6556  -13.4659   17.7531 H   0  0  0  0  0  0
  -27.8246  -11.3048   18.8424 H   0  0  0  0  0  0
  -27.3620  -12.6182   17.7950 H   0  0  0  0  0  0
  -27.6837  -14.2577   19.5465 H   0  0  0  0  0  0
  -28.6874  -12.0290   21.3836 H   0  0  0  0  0  0
  -28.4722  -13.6947   21.8458 H   0  0  0  0  0  0
  -25.2765   -9.5671   22.4774 H   0  0  0  0  0  0
  -24.0000   -7.4622   22.7475 H   0  0  0  0  0  0
  -21.0849   -8.8776   19.8948 H   0  0  0  0  0  0
  -22.3705  -10.9681   19.6174 H   0  0  0  0  0  0
  -21.2007   -7.6148   23.9709 H   0  0  0  0  0  0
  -21.1480   -6.0524   25.9076 H   0  0  0  0  0  0
  -22.0605   -2.7603   23.2846 H   0  0  0  0  0  0
  -22.4101  -11.9858   22.4794 H   0  0  0  0  0  0
  -21.1101  -13.1215   22.2650 H   0  0  0  0  0  0
  -24.6405  -15.8325   20.4823 H   0  0  0  0  0  0
  -26.2411  -15.6106   19.9917 H   0  0  0  0  0  0
  -26.7135  -32.5525   23.1161 H   0  0  0  0  0  0
  -25.0068  -33.9776   25.0472 H   0  0  0  0  0  0
  -22.6946  -31.3064   21.4124 H   0  0  0  0  0  0
  -23.3763  -35.9630   23.3304 H   0  0  0  0  0  0
  -24.3594  -36.8917   22.2058 H   0  0  0  0  0  0
  -23.7237  -37.6503   23.6662 H   0  0  0  0  0  0
  -26.0553  -31.5947   20.6008 H   0  0  0  0  0  0
  -26.8234  -30.8758   21.9886 H   0  0  0  0  0  0
  -28.1068  -29.0669   21.1848 H   0  0  0  0  0  0
  -26.0455  -25.9508   19.0303 H   0  0  0  0  0  0
  -23.9749  -27.2980   19.0283 H   0  0  0  0  0  0
  -23.7250  -30.6027   19.4069 H   0  0  0  0  0  0
  -22.7386  -29.2438   19.8674 H   0  0  0  0  0  0
  -25.1290  -36.1988   25.0826 H   0  0  0  0  0  0
  -20.9945  -28.3206   24.1447 H   0  0  0  0  0  0
  -20.5669  -26.2254   23.3604 H   0  0  0  0  0  0
  -21.6635  -26.7430   22.1215 H   0  0  0  0  0  0
  -19.6920  -25.6273   21.1238 H   0  0  0  0  0  0
  -19.6690  -27.3178   20.6744 H   0  0  0  0  0  0
  -17.4197  -26.6661   21.4009 H   0  0  0  0  0  0
  -18.0308  -26.0028   22.8998 H   0  0  0  0  0  0
  -19.7937  -30.7223   24.2274 H   0  0  0  0  0  0
  -17.5025  -31.6259   24.5148 H   0  0  0  0  0  0
  -15.5353  -30.2967   23.7646 H   0  0  0  0  0  0
  -15.8663  -28.0796   22.7068 H   0  0  0  0  0  0
  -24.5887  -30.7072   25.7804 H   0  0  0  0  0  0
  -24.8904  -32.2876   26.4926 H   0  0  0  0  0  0
  -25.8043  -30.8889   27.0237 H   0  0  0  0  0  0
  -26.2860  -29.6807   24.1156 H   0  0  0  0  0  0
  -27.4092  -29.7302   25.4569 H   0  0  0  0  0  0
  -27.8696  -30.4383   23.9257 H   0  0  0  0  0  0
  -27.2676  -33.3632   26.2080 H   0  0  0  0  0  0
  -28.3850  -32.6877   25.0295 H   0  0  0  0  0  0
  -28.0727  -31.8434   26.5390 H   0  0  0  0  0  0
  -28.2602  -38.0107   24.7530 H   0  0  0  0  0  0
  -28.1085  -36.2645   24.6270 H   0  0  0  0  0  0
  -27.2314  -37.1428   25.8869 H   0  0  0  0  0  0
  -20.9350  -29.8733   21.6952 H   0  0  0  0  0  0
  -26.0203  -38.2869   24.1408 H   0  0  0  0  0  0
  -33.2293  -18.8775   21.4451 H   0  0  0  0  0  0
  -31.7303  -20.6864   20.7369 H   0  0  0  0  0  0
  -32.4516  -16.5635   21.5488 H   0  0  0  0  0  0
  -27.3833  -18.4780   20.6368 H   0  0  0  0  0  0
  -27.7470  -16.7812   20.7060 H   0  0  0  0  0  0
  -27.9059  -17.6367   19.1708 H   0  0  0  0  0  0
  -31.2546  -23.9307   20.4953 H   0  0  0  0  0  0
  -30.9509  -25.5831   21.0111 H   0  0  0  0  0  0
  -30.3863  -25.0361   19.4384 H   0  0  0  0  0  0
  -30.2257  -23.1303   22.6661 H   0  0  0  0  0  0
  -28.5571  -23.5217   23.0625 H   0  0  0  0  0  0
  -29.8122  -24.7485   23.1712 H   0  0  0  0  0  0
  -28.5588  -23.2532   19.2867 H   0  0  0  0  0  0
  -27.5771  -22.8759   20.6747 H   0  0  0  0  0  0
  -28.2690  -26.0298   22.0923 H   0  0  0  0  0  0
  -27.1645  -25.1292   21.1281 H   0  0  0  0  0  0
  -29.0229  -15.4332   21.1059 H   0  0  0  0  0  0
  -30.0704  -21.8239   21.3098 H   0  0  0  0  0  0
  1 25  1  0  0  0
  1 30  2  0  0  0
  1 84  1  0  0  0
  2  3  1  0  0  0
  2 25  1  0  0  0
  2 87  1  0  0  0
  2 88  1  0  0  0
  3  4  1  0  0  0
  3 89  1  0  0  0
  3 90  1  0  0  0
  4  5  1  0  0  0
  4 91  1  0  0  0
  4 92  1  0  0  0
  5  6  1  0  0  0
  5 26  1  0  0  0
  5 93  1  0  0  0
  6 25  1  0  0  0
  6 94  1  0  0  0
  6 95  1  0  0  0
  7  8  2  0  0  0
  7 26  1  0  0  0
  7 29  1  0  0  0
  8  9  1  0  0  0
  8 22  1  0  0  0
  9 10  1  0  0  0
  9 27  2  0  0  0
 10 11  2  0  0  0
 10 15  1  0  0  0
 11 12  1  0  0  0
 11 96  1  0  0  0
 12 13  2  0  0  0
 12 97  1  0  0  0
 13 14  1  0  0  0
 13 31  1  0  0  0
 14 15  2  0  0  0
 14 98  1  0  0  0
 15 99  1  0  0  0
 16 17  2  0  0  0
 16 21  1  0  0  0
 16 31  1  0  0  0
 17 18  1  0  0  0
 17100  1  0  0  0
 18 19  2  0  0  0
 18101  1  0  0  0
 19 20  1  0  0  0
 19 24  1  0  0  0
 20 21  2  0  0  0
 20102  1  0  0  0
 21 23  1  0  0  0
 22 28  1  0  0  0
 22 32  2  0  0  0
 26 27  1  0  0  0
 28103  1  0  0  0
 28104  1  0  0  0
 29105  1  0  0  0
 29106  1  0  0  0
 33 34  1  0  0  0
 33 66  1  0  0  0
 33 70  2  0  0  0
 34 36  1  0  0  0
 34 59  1  0  0  0
 34107  1  0  0  0
 35 44  2  0  0  0
 35 45  1  0  0  0
 35 68  1  0  0  0
 36 56  1  0  0  0
 36108  1  0  0  0
 37 39  1  0  0  0
 37 47  1  0  0  0
 37 66  1  0  0  0
 37109  1  0  0  0
 38 43  2  0  0  0
 38 46  1  0  0  0
 38 47  1  0  0  0
 39 64  1  0  0  0
 39 67  2  0  0  0
 40 52  1  0  0  0
 40 53  2  0  0  0
 40 58  1  0  0  0
 41110  1  0  0  0
 41111  1  0  0  0
 41112  1  0  0  0
 41 48  1  0  0  0
 42 43  1  0  0  0
 42 66  1  0  0  0
 42113  1  0  0  0
 42114  1  0  0  0
 43 44  1  0  0  0
 44115  1  0  0  0
 45 46  2  0  0  0
 45116  1  0  0  0
 46117  1  0  0  0
 47118  1  0  0  0
 47119  1  0  0  0
 48 56  1  0  0  0
 48 65  1  0  0  0
 48120  1  0  0  0
 49 50  1  0  0  0
 49 53  1  0  0  0
 49 64  1  0  0  0
 49121  1  0  0  0
 50 51  1  0  0  0
 50122  1  0  0  0
 50123  1  0  0  0
 51 52  1  0  0  0
 51124  1  0  0  0
 51125  1  0  0  0
 52126  1  0  0  0
 52127  1  0  0  0
 53 54  1  0  0  0
 54 55  2  0  0  0
 54128  1  0  0  0
 55 57  1  0  0  0
 55129  1  0  0  0
 56 69  2  0  0  0
 57 58  2  0  0  0
 57130  1  0  0  0
 58131  1  0  0  0
 59 60  1  0  0  0
 59 61  1  0  0  0
 59 62  1  0  0  0
 60132  1  0  0  0
 60133  1  0  0  0
 60134  1  0  0  0
 61135  1  0  0  0
 61136  1  0  0  0
 61137  1  0  0  0
 62138  1  0  0  0
 62139  1  0  0  0
 62140  1  0  0  0
 63 65  1  0  0  0
 63141  1  0  0  0
 63142  1  0  0  0
 63143  1  0  0  0
 64144  1  0  0  0
 65145  1  0  0  0
 68 82  1  0  0  0
 71 72  2  0  0  0
 71 73  1  0  0  0
 71146  1  0  0  0
 72 74  1  0  0  0
 72147  1  0  0  0
 73 76  2  0  0  0
 73148  1  0  0  0
 74 75  2  0  0  0
 74 77  1  0  0  0
 75 76  1  0  0  0
 75 78  1  0  0  0
 76 84  1  0  0  0
 77 85  1  0  0  0
 77 86  2  0  0  0
 78149  1  0  0  0
 78150  1  0  0  0
 78151  1  0  0  0
 79152  1  0  0  0
 79153  1  0  0  0
 79154  1  0  0  0
 79 83  1  0  0  0
 80 83  1  0  0  0
 80155  1  0  0  0
 80156  1  0  0  0
 80157  1  0  0  0
 81 83  1  0  0  0
 81 85  1  0  0  0
 81158  1  0  0  0
 81159  1  0  0  0
 82 83  1  0  0  0
 82160  1  0  0  0
 82161  1  0  0  0
 84162  1  0  0  0
 85163  1  0  0  0
M  ISO  4   1 100  68 101  82 101  84 100
M  END
> <chiral flag>
0

> <version>
0

> <s_m_source_file>
/data/baiqing/PycharmProjects/Reinvent-master-3.2/result/LINK_invent/BTK/process_docking_weight1_custom_product_contain_oxygen_bond_distance_aromatic_linkinvent_7_9_3/rearranged_h_0048.sdf

> <i_m_source_file_index>
6

> <r_mmod_Potential_Energy-OPLS-2005>
-44.6789360046387

> <r_mmod_Stretch_Energy-OPLS-2005>
54.0990409851074

> <r_mmod_Bend_Energy-OPLS-2005>
107.111877441406

> <r_mmod_Torsional_Energy-OPLS-2005>
276.693328857422

> <r_mmod_Improper_Torsional_Energy-OPLS-2005>
5.09297895431519

> <r_mmod_Van_der_Waal_Energy-OPLS-2005>
162.135803222656

> <r_mmod_Electrostatic_Energy-OPLS-2005>
-457.528411865234

> <r_mmod_Solvation_Energy-OPLS-2005>
-215.537307739258

> <b_mmod_Minimization_Converged-OPLS-2005>
0

> <r_mmod_RMS_Derivative-OPLS-2005>
2.16113972663879

$$$$
6
                    3D
 Structure written by MMmdl.
161169  0  0  1  0            999 V2000
  -30.7148  -14.5124   20.6043 C   0  0  0  0  0  0
  -30.4359  -12.3508   19.4231 C   0  0  0  0  0  0
  -29.4979  -12.5367   18.2120 C   0  0  0  0  0  0
  -28.0242  -12.3601   18.6241 C   0  0  0  0  0  0
  -27.6639  -13.2061   19.8732 C   0  0  2  0  0  0
  -28.7106  -13.0046   20.9976 C   0  0  0  0  0  0
  -25.2507  -13.8102   20.5475 C   0  0  0  0  0  0
  -24.1810  -13.0415   20.9135 C   0  0  0  0  0  0
  -24.6363  -11.6898   20.8717 C   0  0  0  0  0  0
  -23.9008  -10.4299   21.0353 C   0  0  0  0  0  0
  -24.3589   -9.4244   21.9126 C   0  0  0  0  0  0
  -23.6303   -8.2261   22.0719 C   0  0  0  0  0  0
  -22.4291   -8.0260   21.3506 C   0  0  0  0  0  0
  -21.9894   -9.0208   20.4607 C   0  0  0  0  0  0
  -22.7173  -10.2113   20.3007 C   0  0  0  0  0  0
  -21.6879   -6.0727   22.5280 C   0  0  0  0  0  0
  -21.4029   -6.5627   23.8201 C   0  0  0  0  0  0
  -21.3658   -5.6782   24.9160 C   0  0  0  0  0  0
  -21.6048   -4.3052   24.7207 C   0  0  0  0  0  0
  -21.8829   -3.8132   23.4341 C   0  0  0  0  0  0
  -21.9209   -4.6958   22.3403 C   0  0  0  0  0  0
  -22.7827  -13.5224   21.1793 C   0  0  0  0  0  0
  -22.1679   -4.2130   21.0985 F   0  0  0  0  0  0
  -21.5612   -3.4550   25.7728 F   0  0  0  0  0  0
  -30.0518  -13.3226   20.4651 N   0  0  0  0  0  0
  -26.3017  -12.9310   20.3323 N   0  0  0  0  0  0
  -25.9313  -11.6478   20.5796 N   0  0  0  0  0  0
  -22.0460  -12.8261   22.0384 N   0  0  0  0  0  0
  -25.4033  -15.1770   20.3531 N   0  0  0  0  0  0
  -31.7673  -14.7582   20.0094 O   0  0  0  0  0  0
  -21.6664   -6.8867   21.4228 O   0  0  0  0  0  0
  -22.3534  -14.5516   20.6619 O   0  0  0  0  0  0
  -24.6186  -31.8662   23.2023 C   0  0  0  0  0  0
  -25.9040  -32.4834   23.8342 C   0  0  1  0  0  0
  -27.2339  -27.3804   20.0901 C   0  0  0  0  0  0
  -25.5865  -33.8625   24.2261 N   0  0  0  0  0  0
  -23.4096  -30.4891   21.5472 C   0  0  2  0  0  0
  -24.8568  -28.9510   20.1107 C   0  0  0  0  0  0
  -22.7435  -29.4665   22.4973 C   0  0  0  0  0  0
  -18.0267  -28.1437   22.8477 C   0  0  0  0  0  0
  -24.1491  -36.7321   23.2632 C   0  0  0  0  0  0
  -25.9433  -30.8172   21.3589 C   0  0  0  0  0  0
  -26.0223  -29.4439   20.7100 C   0  0  0  0  0  0
  -27.2125  -28.6662   20.6994 C   0  0  0  0  0  0
  -26.0420  -26.9290   19.4719 C   0  0  0  0  0  0
  -24.8648  -27.6952   19.4879 C   0  0  0  0  0  0
  -23.6194  -29.8197   20.1633 C   0  0  0  0  0  0
  -25.4111  -36.3123   24.0329 C   0  0  1  0  0  0
  -20.5869  -28.3713   23.1308 C   0  0  2  0  0  0
  -20.6784  -26.9449   22.5419 C   0  0  0  0  0  0
  -19.5757  -26.6414   21.5235 C   0  0  0  0  0  0
  -18.1933  -26.7972   22.1640 C   0  0  0  0  0  0
  -19.1520  -28.8892   23.2895 C   0  0  0  0  0  0
  -18.9453  -30.1500   23.8900 C   0  0  0  0  0  0
  -17.6453  -30.6626   24.0590 C   0  0  0  0  0  0
  -25.9043  -34.9494   23.5112 C   0  0  0  0  0  0
  -16.5339  -29.9138   23.6335 C   0  0  0  0  0  0
  -16.7256  -28.6578   23.0309 C   0  0  0  0  0  0
  -26.4405  -31.6601   25.0678 C   0  0  0  0  0  0
  -25.3611  -31.3748   26.1383 C   0  0  0  0  0  0
  -27.0195  -30.3031   24.6058 C   0  0  0  0  0  0
  -27.5989  -32.4289   25.7451 C   0  0  0  0  0  0
  -27.5590  -37.1812   24.8445 C   0  0  0  0  0  0
  -21.4159  -29.3060   22.3705 N   0  0  0  0  0  0
  -26.4289  -37.3806   23.9416 N   0  0  0  0  0  0
  -24.6771  -31.0709   22.0957 N   0  0  0  0  0  0
  -23.4176  -28.8213   23.3050 O   0  0  0  0  0  0
  -28.3855  -26.5887   20.1105 O   0  0  0  0  0  0
  -26.5655  -34.8959   22.4705 O   0  0  0  0  0  0
  -23.5366  -32.1418   23.7384 O   0  0  0  0  0  0
  -28.1793  -16.7017   21.1291 C   0  0  0  0  0  0
  -27.4697  -17.8243   20.6846 C   0  0  0  0  0  0
  -30.2740  -17.8678   20.6910 C   0  0  0  0  0  0
  -29.5572  -19.0543   20.3035 C   0  0  0  0  0  0
  -29.5818  -16.6672   21.0608 C   0  0  0  0  0  0
  -28.1408  -18.9665   20.2261 C   0  0  0  0  0  0
  -29.5876  -22.7618   24.0861 C   0  0  0  0  0  0
  -29.2734  -22.3863   22.8341 C   0  0  0  0  0  0
  -30.2477  -21.7093   21.9852 C   0  0  0  0  0  0
  -30.2827  -20.3840   19.9280 C   0  0  0  0  0  0
  -29.4168  -24.2112   20.1906 C   0  0  0  0  0  0
  -29.0673  -22.6798   19.9842 C   0  0  0  0  0  0
  -28.2291  -25.1661   19.8244 C   0  0  0  0  0  0
  -30.1671  -15.4135   21.4492 N   0  0  0  0  0  0
  -29.8905  -21.6267   20.6788 N   0  0  0  0  0  0
  -31.2601  -21.1534   22.4248 O   0  0  0  0  0  0
  -27.1653  -20.2066   19.5304 Cl  0  0  0  0  0  0
  -31.4737  -12.4706   19.1097 H   0  0  0  0  0  0
  -30.3635  -11.3346   19.8124 H   0  0  0  0  0  0
  -29.7572  -11.8316   17.4207 H   0  0  0  0  0  0
  -29.6412  -13.5331   17.7910 H   0  0  0  0  0  0
  -27.8561  -11.3027   18.8310 H   0  0  0  0  0  0
  -27.3637  -12.6143   17.7949 H   0  0  0  0  0  0
  -27.7031  -14.2504   19.5645 H   0  0  0  0  0  0
  -28.6921  -11.9716   21.3512 H   0  0  0  0  0  0
  -28.4501  -13.6041   21.8682 H   0  0  0  0  0  0
  -25.2713   -9.5798   22.4721 H   0  0  0  0  0  0
  -24.0036   -7.4701   22.7487 H   0  0  0  0  0  0
  -21.0787   -8.8671   19.8967 H   0  0  0  0  0  0
  -22.3532  -10.9631   19.6148 H   0  0  0  0  0  0
  -21.2038   -7.6141   23.9708 H   0  0  0  0  0  0
  -21.1453   -6.0494   25.9058 H   0  0  0  0  0  0
  -22.0623   -2.7596   23.2813 H   0  0  0  0  0  0
  -22.4070  -11.9947   22.4816 H   0  0  0  0  0  0
  -21.1060  -13.1268   22.2542 H   0  0  0  0  0  0
  -24.5995  -15.7965   20.3707 H   0  0  0  0  0  0
  -26.2056  -15.5908   19.8978 H   0  0  0  0  0  0
  -26.7115  -32.5537   23.1109 H   0  0  0  0  0  0
  -24.9885  -33.9772   25.0322 H   0  0  0  0  0  0
  -22.6982  -31.3060   21.4045 H   0  0  0  0  0  0
  -23.3772  -35.9635   23.3265 H   0  0  0  0  0  0
  -24.3586  -36.8968   22.2050 H   0  0  0  0  0  0
  -23.7227  -37.6509   23.6669 H   0  0  0  0  0  0
  -26.0402  -31.5712   20.5761 H   0  0  0  0  0  0
  -26.8383  -30.8891   21.9657 H   0  0  0  0  0  0
  -28.1093  -29.0422   21.1737 H   0  0  0  0  0  0
  -25.9871  -25.9784   18.9641 H   0  0  0  0  0  0
  -23.9724  -27.3103   19.0140 H   0  0  0  0  0  0
  -23.7241  -30.5898   19.3979 H   0  0  0  0  0  0
  -22.7425  -29.2361   19.8779 H   0  0  0  0  0  0
  -25.1305  -36.1966   25.0822 H   0  0  0  0  0  0
  -20.9959  -28.3312   24.1430 H   0  0  0  0  0  0
  -20.5725  -26.2340   23.3623 H   0  0  0  0  0  0
  -21.6661  -26.7526   22.1192 H   0  0  0  0  0  0
  -19.6927  -25.6326   21.1270 H   0  0  0  0  0  0
  -19.6722  -27.3221   20.6767 H   0  0  0  0  0  0
  -17.4219  -26.6694   21.4039 H   0  0  0  0  0  0
  -18.0330  -26.0136   22.9055 H   0  0  0  0  0  0
  -19.7938  -30.7328   24.2251 H   0  0  0  0  0  0
  -17.5010  -31.6302   24.5211 H   0  0  0  0  0  0
  -15.5343  -30.3048   23.7674 H   0  0  0  0  0  0
  -15.8655  -28.0939   22.6955 H   0  0  0  0  0  0
  -24.5815  -30.7074   25.7684 H   0  0  0  0  0  0
  -24.8751  -32.2919   26.4725 H   0  0  0  0  0  0
  -25.7872  -30.8963   27.0206 H   0  0  0  0  0  0
  -26.2761  -29.6870   24.0983 H   0  0  0  0  0  0
  -27.3801  -29.7187   25.4528 H   0  0  0  0  0  0
  -27.8656  -30.4330   23.9308 H   0  0  0  0  0  0
  -27.2641  -33.3603   26.2027 H   0  0  0  0  0  0
  -28.3802  -32.6814   25.0272 H   0  0  0  0  0  0
  -28.0631  -31.8381   26.5352 H   0  0  0  0  0  0
  -28.2575  -38.0139   24.7555 H   0  0  0  0  0  0
  -28.1124  -36.2684   24.6199 H   0  0  0  0  0  0
  -27.2322  -37.1363   25.8844 H   0  0  0  0  0  0
  -20.9334  -29.8764   21.6901 H   0  0  0  0  0  0
  -26.0179  -38.2878   24.1451 H   0  0  0  0  0  0
  -27.6339  -15.8383   21.4797 H   0  0  0  0  0  0
  -26.3907  -17.8056   20.6715 H   0  0  0  0  0  0
  -31.3548  -17.8782   20.7084 H   0  0  0  0  0  0
  -28.8539  -23.2516   24.7110 H   0  0  0  0  0  0
  -30.5697  -22.5919   24.5075 H   0  0  0  0  0  0
  -28.2723  -22.5820   22.4752 H   0  0  0  0  0  0
  -30.1610  -20.5485   18.8567 H   0  0  0  0  0  0
  -31.3576  -20.2324   20.0512 H   0  0  0  0  0  0
  -30.2870  -24.4706   19.5851 H   0  0  0  0  0  0
  -29.7024  -24.4172   21.2202 H   0  0  0  0  0  0
  -29.0405  -22.4728   18.9146 H   0  0  0  0  0  0
  -28.0390  -22.5500   20.3143 H   0  0  0  0  0  0
  -27.3594  -24.8004   20.3750 H   0  0  0  0  0  0
  -28.0034  -25.0386   18.7643 H   0  0  0  0  0  0
  -29.5812  -14.9158   22.0996 H   0  0  0  0  0  0
  1 25  1  0  0  0
  1 30  2  0  0  0
  1 84  1  0  0  0
  2  3  1  0  0  0
  2 25  1  0  0  0
  2 88  1  0  0  0
  2 89  1  0  0  0
  3  4  1  0  0  0
  3 90  1  0  0  0
  3 91  1  0  0  0
  4  5  1  0  0  0
  4 92  1  0  0  0
  4 93  1  0  0  0
  5  6  1  0  0  0
  5 26  1  0  0  0
  5 94  1  0  0  0
  6 25  1  0  0  0
  6 95  1  0  0  0
  6 96  1  0  0  0
  7  8  2  0  0  0
  7 26  1  0  0  0
  7 29  1  0  0  0
  8  9  1  0  0  0
  8 22  1  0  0  0
  9 10  1  0  0  0
  9 27  2  0  0  0
 10 11  2  0  0  0
 10 15  1  0  0  0
 11 12  1  0  0  0
 11 97  1  0  0  0
 12 13  2  0  0  0
 12 98  1  0  0  0
 13 14  1  0  0  0
 13 31  1  0  0  0
 14 15  2  0  0  0
 14 99  1  0  0  0
 15100  1  0  0  0
 16 17  2  0  0  0
 16 21  1  0  0  0
 16 31  1  0  0  0
 17 18  1  0  0  0
 17101  1  0  0  0
 18 19  2  0  0  0
 18102  1  0  0  0
 19 20  1  0  0  0
 19 24  1  0  0  0
 20 21  2  0  0  0
 20103  1  0  0  0
 21 23  1  0  0  0
 22 28  1  0  0  0
 22 32  2  0  0  0
 26 27  1  0  0  0
 28104  1  0  0  0
 28105  1  0  0  0
 29106  1  0  0  0
 29107  1  0  0  0
 33 34  1  0  0  0
 33 66  1  0  0  0
 33 70  2  0  0  0
 34 36  1  0  0  0
 34 59  1  0  0  0
 34108  1  0  0  0
 35 44  2  0  0  0
 35 45  1  0  0  0
 35 68  1  0  0  0
 36 56  1  0  0  0
 36109  1  0  0  0
 37 39  1  0  0  0
 37 47  1  0  0  0
 37 66  1  0  0  0
 37110  1  0  0  0
 38 43  2  0  0  0
 38 46  1  0  0  0
 38 47  1  0  0  0
 39 64  1  0  0  0
 39 67  2  0  0  0
 40 52  1  0  0  0
 40 53  2  0  0  0
 40 58  1  0  0  0
 41111  1  0  0  0
 41112  1  0  0  0
 41113  1  0  0  0
 41 48  1  0  0  0
 42 43  1  0  0  0
 42 66  1  0  0  0
 42114  1  0  0  0
 42115  1  0  0  0
 43 44  1  0  0  0
 44116  1  0  0  0
 45 46  2  0  0  0
 45117  1  0  0  0
 46118  1  0  0  0
 47119  1  0  0  0
 47120  1  0  0  0
 48 56  1  0  0  0
 48 65  1  0  0  0
 48121  1  0  0  0
 49 50  1  0  0  0
 49 53  1  0  0  0
 49 64  1  0  0  0
 49122  1  0  0  0
 50 51  1  0  0  0
 50123  1  0  0  0
 50124  1  0  0  0
 51 52  1  0  0  0
 51125  1  0  0  0
 51126  1  0  0  0
 52127  1  0  0  0
 52128  1  0  0  0
 53 54  1  0  0  0
 54 55  2  0  0  0
 54129  1  0  0  0
 55 57  1  0  0  0
 55130  1  0  0  0
 56 69  2  0  0  0
 57 58  2  0  0  0
 57131  1  0  0  0
 58132  1  0  0  0
 59 60  1  0  0  0
 59 61  1  0  0  0
 59 62  1  0  0  0
 60133  1  0  0  0
 60134  1  0  0  0
 60135  1  0  0  0
 61136  1  0  0  0
 61137  1  0  0  0
 61138  1  0  0  0
 62139  1  0  0  0
 62140  1  0  0  0
 62141  1  0  0  0
 63 65  1  0  0  0
 63142  1  0  0  0
 63143  1  0  0  0
 63144  1  0  0  0
 64145  1  0  0  0
 65146  1  0  0  0
 68 83  1  0  0  0
 71 72  2  0  0  0
 71 75  1  0  0  0
 71147  1  0  0  0
 72 76  1  0  0  0
 72148  1  0  0  0
 73 74  1  0  0  0
 73 75  2  0  0  0
 73149  1  0  0  0
 74 76  2  0  0  0
 74 80  1  0  0  0
 75 84  1  0  0  0
 76 87  1  0  0  0
 77 78  2  0  0  0
 77150  1  0  0  0
 77151  1  0  0  0
 78 79  1  0  0  0
 78152  1  0  0  0
 79 85  1  0  0  0
 79 86  2  0  0  0
 80 85  1  0  0  0
 80153  1  0  0  0
 80154  1  0  0  0
 81 82  1  0  0  0
 81 83  1  0  0  0
 81155  1  0  0  0
 81156  1  0  0  0
 82 85  1  0  0  0
 82157  1  0  0  0
 82158  1  0  0  0
 83159  1  0  0  0
 83160  1  0  0  0
 84161  1  0  0  0
M  ISO  4   1 100  68 101  83 101  84 100
M  END
> <chiral flag>
0

> <version>
0

> <s_m_source_file>
/data/baiqing/PycharmProjects/Reinvent-master-3.2/result/LINK_invent/BTK/process_docking_weight1_custom_product_contain_oxygen_bond_distance_aromatic_linkinvent_7_9_3/rearranged_h_0048.sdf

> <i_m_source_file_index>
7

> <r_mmod_Potential_Energy-OPLS-2005>
55.9695892333984

> <r_mmod_Stretch_Energy-OPLS-2005>
65.2524871826172

> <r_mmod_Bend_Energy-OPLS-2005>
125.23974609375

> <r_mmod_Torsional_Energy-OPLS-2005>
278.873687744141

> <r_mmod_Improper_Torsional_Energy-OPLS-2005>
8.60564613342285

> <r_mmod_Van_der_Waal_Energy-OPLS-2005>
160.827880859375

> <r_mmod_Electrostatic_Energy-OPLS-2005>
-380.114532470703

> <r_mmod_Solvation_Energy-OPLS-2005>
-223.683746337891

> <b_mmod_Minimization_Converged-OPLS-2005>
0

> <r_mmod_RMS_Derivative-OPLS-2005>
4.02481555938721

$$$$
7
                    3D
 Structure written by MMmdl.
164173  0  0  1  0            999 V2000
  -30.6753  -14.5387   20.5275 C   0  0  0  0  0  0
  -30.4292  -12.3324   19.4480 C   0  0  0  0  0  0
  -29.5054  -12.5085   18.2237 C   0  0  0  0  0  0
  -28.0232  -12.3693   18.6280 C   0  0  0  0  0  0
  -27.6615  -13.2053   19.8852 C   0  0  2  0  0  0
  -28.7076  -13.0237   21.0092 C   0  0  0  0  0  0
  -25.2615  -13.8152   20.5737 C   0  0  0  0  0  0
  -24.1863  -13.0444   20.9198 C   0  0  0  0  0  0
  -24.6411  -11.6908   20.8766 C   0  0  0  0  0  0
  -23.9081  -10.4307   21.0427 C   0  0  0  0  0  0
  -24.3637   -9.4232   21.9197 C   0  0  0  0  0  0
  -23.6326   -8.2264   22.0752 C   0  0  0  0  0  0
  -22.4302   -8.0302   21.3549 C   0  0  0  0  0  0
  -21.9938   -9.0274   20.4650 C   0  0  0  0  0  0
  -22.7261  -10.2159   20.3071 C   0  0  0  0  0  0
  -21.6860   -6.0765   22.5292 C   0  0  0  0  0  0
  -21.4004   -6.5650   23.8234 C   0  0  0  0  0  0
  -21.3663   -5.6795   24.9190 C   0  0  0  0  0  0
  -21.6053   -4.3069   24.7235 C   0  0  0  0  0  0
  -21.8822   -3.8170   23.4348 C   0  0  0  0  0  0
  -21.9195   -4.6984   22.3413 C   0  0  0  0  0  0
  -22.7892  -13.5260   21.1860 C   0  0  0  0  0  0
  -22.1674   -4.2193   21.0980 F   0  0  0  0  0  0
  -21.5639   -3.4537   25.7735 F   0  0  0  0  0  0
  -30.0344  -13.3353   20.4526 N   0  0  0  0  0  0
  -26.3042  -12.9299   20.3443 N   0  0  0  0  0  0
  -25.9334  -11.6463   20.5807 N   0  0  0  0  0  0
  -22.0542  -12.8239   22.0397 N   0  0  0  0  0  0
  -25.4354  -15.1877   20.4160 N   0  0  0  0  0  0
  -31.8161  -14.7088   20.0854 O   0  0  0  0  0  0
  -21.6649   -6.8910   21.4254 O   0  0  0  0  0  0
  -22.3596  -14.5591   20.6739 O   0  0  0  0  0  0
  -24.6180  -31.8660   23.2096 C   0  0  0  0  0  0
  -25.9071  -32.4807   23.8390 C   0  0  1  0  0  0
  -27.2249  -27.3875   20.1069 C   0  0  0  0  0  0
  -25.5920  -33.8610   24.2320 N   0  0  0  0  0  0
  -23.4049  -30.4916   21.5518 C   0  0  2  0  0  0
  -24.8505  -28.9574   20.1125 C   0  0  0  0  0  0
  -22.7404  -29.4651   22.4983 C   0  0  0  0  0  0
  -18.0269  -28.1379   22.8491 C   0  0  0  0  0  0
  -24.1487  -36.7292   23.2636 C   0  0  0  0  0  0
  -25.9398  -30.8154   21.3748 C   0  0  0  0  0  0
  -26.0128  -29.4496   20.7158 C   0  0  0  0  0  0
  -27.1994  -28.6721   20.7110 C   0  0  0  0  0  0
  -26.0432  -26.9330   19.4743 C   0  0  0  0  0  0
  -24.8633  -27.7003   19.4874 C   0  0  0  0  0  0
  -23.6142  -29.8299   20.1642 C   0  0  0  0  0  0
  -25.4113  -36.3098   24.0334 C   0  0  1  0  0  0
  -20.5855  -28.3667   23.1310 C   0  0  2  0  0  0
  -20.6776  -26.9407   22.5420 C   0  0  0  0  0  0
  -19.5751  -26.6391   21.5223 C   0  0  0  0  0  0
  -18.1920  -26.7927   22.1621 C   0  0  0  0  0  0
  -19.1520  -28.8840   23.2894 C   0  0  0  0  0  0
  -18.9450  -30.1449   23.8896 C   0  0  0  0  0  0
  -17.6455  -30.6589   24.0565 C   0  0  0  0  0  0
  -25.9043  -34.9469   23.5122 C   0  0  0  0  0  0
  -16.5343  -29.9086   23.6345 C   0  0  0  0  0  0
  -16.7261  -28.6509   23.0358 C   0  0  0  0  0  0
  -26.4493  -31.6601   25.0736 C   0  0  0  0  0  0
  -25.3747  -31.3727   26.1470 C   0  0  0  0  0  0
  -27.0359  -30.3032   24.6189 C   0  0  0  0  0  0
  -27.6054  -32.4341   25.7493 C   0  0  0  0  0  0
  -27.5580  -37.1804   24.8462 C   0  0  0  0  0  0
  -21.4134  -29.3028   22.3711 N   0  0  0  0  0  0
  -26.4297  -37.3790   23.9406 N   0  0  0  0  0  0
  -24.6717  -31.0727   22.1021 N   0  0  0  0  0  0
  -23.4173  -28.8207   23.3045 O   0  0  0  0  0  0
  -28.3836  -26.6185   20.1616 O   0  0  0  0  0  0
  -26.5598  -34.8911   22.4676 O   0  0  0  0  0  0
  -23.5365  -32.1440   23.7474 O   0  0  0  0  0  0
  -28.7883  -17.9608   18.3276 C   0  0  0  0  0  0
  -29.0673  -16.7802   19.0347 C   0  0  0  0  0  0
  -30.1505  -18.0886   20.7768 C   0  0  0  0  0  0
  -29.2132  -19.2124   18.8139 C   0  0  0  0  0  0
  -29.9059  -19.2978   20.0507 C   0  0  0  0  0  0
  -29.7531  -16.8159   20.2668 C   0  0  0  0  0  0
  -29.8395  -23.0392   20.1781 C   0  0  0  0  0  0
  -27.8454  -22.8594   22.2753 C   0  0  0  0  0  0
  -28.7500  -24.0955   22.2424 C   0  0  0  0  0  0
  -28.6053  -21.6007   21.8166 C   0  0  0  0  0  0
  -29.2931  -24.3527   20.8243 C   0  0  2  0  0  0
  -28.9440  -20.4321   17.9525 C   0  0  0  0  0  0
  -30.5041  -20.6437   20.5414 C   0  0  0  0  0  0
  -28.3041  -25.1810   19.9357 C   0  0  0  0  0  0
  -29.6093  -21.8208   20.7618 N   0  0  0  0  0  0
  -29.9396  -15.5811   20.9836 N   0  0  0  0  0  0
  -30.5666  -23.1551   19.1872 O   0  0  0  0  0  0
  -31.4743  -12.4306   19.1498 H   0  0  0  0  0  0
  -30.3313  -11.3257   19.8588 H   0  0  0  0  0  0
  -29.7572  -11.7759   17.4572 H   0  0  0  0  0  0
  -29.6761  -13.4882   17.7751 H   0  0  0  0  0  0
  -27.8257  -11.3132   18.8130 H   0  0  0  0  0  0
  -27.3834  -12.6523   17.7920 H   0  0  0  0  0  0
  -27.6871  -14.2478   19.5829 H   0  0  0  0  0  0
  -28.7025  -11.9975   21.3800 H   0  0  0  0  0  0
  -28.4664  -13.6509   21.8685 H   0  0  0  0  0  0
  -25.2777   -9.5731   22.4768 H   0  0  0  0  0  0
  -24.0064   -7.4643   22.7436 H   0  0  0  0  0  0
  -21.0892   -8.8807   19.8922 H   0  0  0  0  0  0
  -22.3731  -10.9718   19.6206 H   0  0  0  0  0  0
  -21.1975   -7.6156   23.9748 H   0  0  0  0  0  0
  -21.1483   -6.0523   25.9099 H   0  0  0  0  0  0
  -22.0590   -2.7629   23.2833 H   0  0  0  0  0  0
  -22.4134  -11.9861   22.4737 H   0  0  0  0  0  0
  -21.1162  -13.1275   22.2617 H   0  0  0  0  0  0
  -24.6744  -15.8470   20.5323 H   0  0  0  0  0  0
  -26.2943  -15.6307   20.1172 H   0  0  0  0  0  0
  -26.7124  -32.5497   23.1129 H   0  0  0  0  0  0
  -25.0117  -33.9783   25.0491 H   0  0  0  0  0  0
  -22.6948  -31.3104   21.4169 H   0  0  0  0  0  0
  -23.3764  -35.9609   23.3310 H   0  0  0  0  0  0
  -24.3575  -36.8900   22.2046 H   0  0  0  0  0  0
  -23.7234  -37.6493   23.6651 H   0  0  0  0  0  0
  -26.0706  -31.5895   20.6176 H   0  0  0  0  0  0
  -26.8162  -30.8522   22.0097 H   0  0  0  0  0  0
  -28.0888  -29.0450   21.1981 H   0  0  0  0  0  0
  -26.0029  -25.9852   18.9582 H   0  0  0  0  0  0
  -23.9717  -27.3221   19.0074 H   0  0  0  0  0  0
  -23.7179  -30.6096   19.4085 H   0  0  0  0  0  0
  -22.7351  -29.2548   19.8679 H   0  0  0  0  0  0
  -25.1302  -36.1958   25.0834 H   0  0  0  0  0  0
  -20.9942  -28.3248   24.1431 H   0  0  0  0  0  0
  -20.5714  -26.2271   23.3605 H   0  0  0  0  0  0
  -21.6641  -26.7476   22.1186 H   0  0  0  0  0  0
  -19.6919  -25.6311   21.1237 H   0  0  0  0  0  0
  -19.6695  -27.3211   20.6762 H   0  0  0  0  0  0
  -17.4202  -26.6684   21.4014 H   0  0  0  0  0  0
  -18.0301  -26.0061   22.9004 H   0  0  0  0  0  0
  -19.7932  -30.7270   24.2252 H   0  0  0  0  0  0
  -17.5017  -31.6272   24.5166 H   0  0  0  0  0  0
  -15.5347  -30.2990   23.7687 H   0  0  0  0  0  0
  -15.8656  -28.0839   22.7072 H   0  0  0  0  0  0
  -24.5894  -30.7114   25.7789 H   0  0  0  0  0  0
  -24.8975  -32.2896   26.4937 H   0  0  0  0  0  0
  -25.8069  -30.8859   27.0220 H   0  0  0  0  0  0
  -26.2946  -29.6753   24.1232 H   0  0  0  0  0  0
  -27.4080  -29.7317   25.4706 H   0  0  0  0  0  0
  -27.8797  -30.4322   23.9405 H   0  0  0  0  0  0
  -27.2660  -33.3623   26.2096 H   0  0  0  0  0  0
  -28.3841  -32.6936   25.0312 H   0  0  0  0  0  0
  -28.0753  -31.8468   26.5390 H   0  0  0  0  0  0
  -28.2601  -38.0098   24.7527 H   0  0  0  0  0  0
  -28.1076  -36.2638   24.6281 H   0  0  0  0  0  0
  -27.2292  -37.1438   25.8860 H   0  0  0  0  0  0
  -20.9293  -29.8714   21.6895 H   0  0  0  0  0  0
  -26.0184  -38.2863   24.1424 H   0  0  0  0  0  0
  -28.2579  -17.8946   17.3860 H   0  0  0  0  0  0
  -28.7471  -15.8436   18.6055 H   0  0  0  0  0  0
  -30.6678  -18.1384   21.7264 H   0  0  0  0  0  0
  -26.9793  -23.0210   21.6343 H   0  0  0  0  0  0
  -27.4477  -22.7050   23.2797 H   0  0  0  0  0  0
  -29.5830  -23.9465   22.9325 H   0  0  0  0  0  0
  -28.2159  -24.9751   22.6021 H   0  0  0  0  0  0
  -27.8911  -20.8524   21.4710 H   0  0  0  0  0  0
  -29.1138  -21.1668   22.6776 H   0  0  0  0  0  0
  -30.1755  -24.9838   20.9344 H   0  0  0  0  0  0
  -28.5694  -20.1486   16.9670 H   0  0  0  0  0  0
  -29.8531  -21.0118   17.7958 H   0  0  0  0  0  0
  -28.1977  -21.0698   18.4232 H   0  0  0  0  0  0
  -31.3012  -20.8966   19.8403 H   0  0  0  0  0  0
  -31.0354  -20.4604   21.4766 H   0  0  0  0  0  0
  -27.3068  -24.7968   20.1448 H   0  0  0  0  0  0
  -28.4881  -24.9976   18.8771 H   0  0  0  0  0  0
  -29.1155  -15.2681   21.4762 H   0  0  0  0  0  0
  1 25  1  0  0  0
  1 30  2  0  0  0
  1 86  1  0  0  0
  2  3  1  0  0  0
  2 25  1  0  0  0
  2 88  1  0  0  0
  2 89  1  0  0  0
  3  4  1  0  0  0
  3 90  1  0  0  0
  3 91  1  0  0  0
  4  5  1  0  0  0
  4 92  1  0  0  0
  4 93  1  0  0  0
  5  6  1  0  0  0
  5 26  1  0  0  0
  5 94  1  0  0  0
  6 25  1  0  0  0
  6 95  1  0  0  0
  6 96  1  0  0  0
  7  8  2  0  0  0
  7 26  1  0  0  0
  7 29  1  0  0  0
  8  9  1  0  0  0
  8 22  1  0  0  0
  9 10  1  0  0  0
  9 27  2  0  0  0
 10 11  2  0  0  0
 10 15  1  0  0  0
 11 12  1  0  0  0
 11 97  1  0  0  0
 12 13  2  0  0  0
 12 98  1  0  0  0
 13 14  1  0  0  0
 13 31  1  0  0  0
 14 15  2  0  0  0
 14 99  1  0  0  0
 15100  1  0  0  0
 16 17  2  0  0  0
 16 21  1  0  0  0
 16 31  1  0  0  0
 17 18  1  0  0  0
 17101  1  0  0  0
 18 19  2  0  0  0
 18102  1  0  0  0
 19 20  1  0  0  0
 19 24  1  0  0  0
 20 21  2  0  0  0
 20103  1  0  0  0
 21 23  1  0  0  0
 22 28  1  0  0  0
 22 32  2  0  0  0
 26 27  1  0  0  0
 28104  1  0  0  0
 28105  1  0  0  0
 29106  1  0  0  0
 29107  1  0  0  0
 33 34  1  0  0  0
 33 66  1  0  0  0
 33 70  2  0  0  0
 34 36  1  0  0  0
 34 59  1  0  0  0
 34108  1  0  0  0
 35 44  2  0  0  0
 35 45  1  0  0  0
 35 68  1  0  0  0
 36 56  1  0  0  0
 36109  1  0  0  0
 37 39  1  0  0  0
 37 47  1  0  0  0
 37 66  1  0  0  0
 37110  1  0  0  0
 38 43  2  0  0  0
 38 46  1  0  0  0
 38 47  1  0  0  0
 39 64  1  0  0  0
 39 67  2  0  0  0
 40 52  1  0  0  0
 40 53  2  0  0  0
 40 58  1  0  0  0
 41111  1  0  0  0
 41112  1  0  0  0
 41113  1  0  0  0
 41 48  1  0  0  0
 42 43  1  0  0  0
 42 66  1  0  0  0
 42114  1  0  0  0
 42115  1  0  0  0
 43 44  1  0  0  0
 44116  1  0  0  0
 45 46  2  0  0  0
 45117  1  0  0  0
 46118  1  0  0  0
 47119  1  0  0  0
 47120  1  0  0  0
 48 56  1  0  0  0
 48 65  1  0  0  0
 48121  1  0  0  0
 49 50  1  0  0  0
 49 53  1  0  0  0
 49 64  1  0  0  0
 49122  1  0  0  0
 50 51  1  0  0  0
 50123  1  0  0  0
 50124  1  0  0  0
 51 52  1  0  0  0
 51125  1  0  0  0
 51126  1  0  0  0
 52127  1  0  0  0
 52128  1  0  0  0
 53 54  1  0  0  0
 54 55  2  0  0  0
 54129  1  0  0  0
 55 57  1  0  0  0
 55130  1  0  0  0
 56 69  2  0  0  0
 57 58  2  0  0  0
 57131  1  0  0  0
 58132  1  0  0  0
 59 60  1  0  0  0
 59 61  1  0  0  0
 59 62  1  0  0  0
 60133  1  0  0  0
 60134  1  0  0  0
 60135  1  0  0  0
 61136  1  0  0  0
 61137  1  0  0  0
 61138  1  0  0  0
 62139  1  0  0  0
 62140  1  0  0  0
 62141  1  0  0  0
 63 65  1  0  0  0
 63142  1  0  0  0
 63143  1  0  0  0
 63144  1  0  0  0
 64145  1  0  0  0
 65146  1  0  0  0
 68 84  1  0  0  0
 71 72  2  0  0  0
 71 74  1  0  0  0
 71147  1  0  0  0
 72 76  1  0  0  0
 72148  1  0  0  0
 73 75  1  0  0  0
 73 76  2  0  0  0
 73149  1  0  0  0
 74 75  2  0  0  0
 74 82  1  0  0  0
 75 83  1  0  0  0
 76 86  1  0  0  0
 77 81  1  0  0  0
 77 85  1  0  0  0
 77 87  2  0  0  0
 78 79  1  0  0  0
 78 80  1  0  0  0
 78150  1  0  0  0
 78151  1  0  0  0
 79 81  1  0  0  0
 79152  1  0  0  0
 79153  1  0  0  0
 80 85  1  0  0  0
 80154  1  0  0  0
 80155  1  0  0  0
 81 84  1  0  0  0
 81156  1  0  0  0
 82157  1  0  0  0
 82158  1  0  0  0
 82159  1  0  0  0
 83 85  1  0  0  0
 83160  1  0  0  0
 83161  1  0  0  0
 84162  1  0  0  0
 84163  1  0  0  0
 86164  1  0  0  0
M  ISO  4   1 100  68 101  84 101  86 100
M  END
> <chiral flag>
0

> <version>
0

> <s_m_source_file>
/data/baiqing/PycharmProjects/Reinvent-master-3.2/result/LINK_invent/BTK/process_docking_weight1_custom_product_contain_oxygen_bond_distance_aromatic_linkinvent_7_9_3/rearranged_h_0048.sdf

> <i_m_source_file_index>
8

> <r_mmod_Potential_Energy-OPLS-2005>
55.5764007568359

> <r_mmod_Stretch_Energy-OPLS-2005>
55.4550437927246

> <r_mmod_Bend_Energy-OPLS-2005>
116.716972351074

> <r_mmod_Torsional_Energy-OPLS-2005>
287.849212646484

> <r_mmod_Improper_Torsional_Energy-OPLS-2005>
8.02126502990723

> <r_mmod_Van_der_Waal_Energy-OPLS-2005>
155.983337402344

> <r_mmod_Electrostatic_Energy-OPLS-2005>
-367.160919189453

> <r_mmod_Solvation_Energy-OPLS-2005>
-224.261352539062

> <b_mmod_Minimization_Converged-OPLS-2005>
0

> <r_mmod_RMS_Derivative-OPLS-2005>
3.19482016563416

$$$$
8
                    3D
 Structure written by MMmdl.
164173  0  0  1  0            999 V2000
  -30.5752  -14.6857   20.4910 C   0  0  0  0  0  0
  -30.4583  -12.4244   19.4425 C   0  0  0  0  0  0
  -29.5104  -12.4989   18.2225 C   0  0  0  0  0  0
  -28.0334  -12.3427   18.6383 C   0  0  0  0  0  0
  -27.6558  -13.2139   19.8640 C   0  0  2  0  0  0
  -28.7038  -13.0555   20.9872 C   0  0  0  0  0  0
  -25.2564  -13.8155   20.5654 C   0  0  0  0  0  0
  -24.1832  -13.0428   20.9192 C   0  0  0  0  0  0
  -24.6396  -11.6902   20.8762 C   0  0  0  0  0  0
  -23.9069  -10.4287   21.0415 C   0  0  0  0  0  0
  -24.3625   -9.4196   21.9197 C   0  0  0  0  0  0
  -23.6288   -8.2228   22.0750 C   0  0  0  0  0  0
  -22.4274   -8.0282   21.3535 C   0  0  0  0  0  0
  -21.9919   -9.0254   20.4643 C   0  0  0  0  0  0
  -22.7246  -10.2128   20.3060 C   0  0  0  0  0  0
  -21.6855   -6.0740   22.5275 C   0  0  0  0  0  0
  -21.4004   -6.5640   23.8210 C   0  0  0  0  0  0
  -21.3645   -5.6788   24.9171 C   0  0  0  0  0  0
  -21.6047   -4.3050   24.7218 C   0  0  0  0  0  0
  -21.8834   -3.8146   23.4337 C   0  0  0  0  0  0
  -21.9191   -4.6966   22.3394 C   0  0  0  0  0  0
  -22.7863  -13.5226   21.1863 C   0  0  0  0  0  0
  -22.1670   -4.2158   21.0971 F   0  0  0  0  0  0
  -21.5623   -3.4535   25.7719 F   0  0  0  0  0  0
  -30.0155  -13.4334   20.4302 N   0  0  0  0  0  0
  -26.3007  -12.9338   20.3341 N   0  0  0  0  0  0
  -25.9328  -11.6498   20.5779 N   0  0  0  0  0  0
  -22.0498  -12.8216   22.0421 N   0  0  0  0  0  0
  -25.4276  -15.1863   20.3954 N   0  0  0  0  0  0
  -31.7222  -14.8972   20.0814 O   0  0  0  0  0  0
  -21.6638   -6.8880   21.4235 O   0  0  0  0  0  0
  -22.3535  -14.5525   20.6698 O   0  0  0  0  0  0
  -24.6199  -31.8615   23.2015 C   0  0  0  0  0  0
  -25.9029  -32.4811   23.8343 C   0  0  1  0  0  0
  -27.2411  -27.3558   20.1197 C   0  0  0  0  0  0
  -25.5817  -33.8602   24.2246 N   0  0  0  0  0  0
  -23.4154  -30.4885   21.5379 C   0  0  2  0  0  0
  -24.8682  -28.9382   20.1173 C   0  0  0  0  0  0
  -22.7462  -29.4649   22.4849 C   0  0  0  0  0  0
  -18.0299  -28.1454   22.8539 C   0  0  0  0  0  0
  -24.1440  -36.7266   23.2660 C   0  0  0  0  0  0
  -25.9513  -30.8102   21.3606 C   0  0  0  0  0  0
  -26.0328  -29.4372   20.7116 C   0  0  0  0  0  0
  -27.2258  -28.6593   20.6966 C   0  0  0  0  0  0
  -26.0475  -26.8864   19.5301 C   0  0  0  0  0  0
  -24.8716  -27.6641   19.5276 C   0  0  0  0  0  0
  -23.6365  -29.8238   20.1535 C   0  0  0  0  0  0
  -25.4067  -36.3072   24.0353 C   0  0  1  0  0  0
  -20.5920  -28.3698   23.1271 C   0  0  2  0  0  0
  -20.6779  -26.9397   22.5426 C   0  0  0  0  0  0
  -19.5729  -26.6395   21.5259 C   0  0  0  0  0  0
  -18.1922  -26.8031   22.1669 C   0  0  0  0  0  0
  -19.1568  -28.8889   23.2935 C   0  0  0  0  0  0
  -18.9528  -30.1527   23.8901 C   0  0  0  0  0  0
  -17.6529  -30.6659   24.0613 C   0  0  0  0  0  0
  -25.8985  -34.9461   23.5090 C   0  0  0  0  0  0
  -16.5397  -29.9190   23.6378 C   0  0  0  0  0  0
  -16.7299  -28.6624   23.0353 C   0  0  0  0  0  0
  -26.4454  -31.6640   25.0713 C   0  0  0  0  0  0
  -25.3701  -31.3849   26.1458 C   0  0  0  0  0  0
  -27.0287  -30.3069   24.6134 C   0  0  0  0  0  0
  -27.5958  -32.4425   25.7535 C   0  0  0  0  0  0
  -27.5533  -37.1765   24.8489 C   0  0  0  0  0  0
  -21.4164  -29.3059   22.3642 N   0  0  0  0  0  0
  -26.4234  -37.3772   23.9443 N   0  0  0  0  0  0
  -24.6808  -31.0684   22.0921 N   0  0  0  0  0  0
  -23.4237  -28.8159   23.2865 O   0  0  0  0  0  0
  -28.3960  -26.5704   20.0805 O   0  0  0  0  0  0
  -26.5635  -34.8942   22.4692 O   0  0  0  0  0  0
  -23.5359  -32.1332   23.7388 O   0  0  0  0  0  0
  -30.0364  -19.4126   19.8030 C   0  0  0  0  0  0
  -30.3756  -18.0194   19.9598 C   0  0  0  0  0  0
  -28.4048  -17.7181   21.2818 C   0  0  0  0  0  0
  -28.8591  -19.9977   20.3673 C   0  0  0  0  0  0
  -28.0239  -19.0823   21.0919 C   0  0  0  0  0  0
  -29.5612  -17.1250   20.7142 C   0  0  0  0  0  0
  -28.6697  -24.0532   19.5637 C   0  0  0  0  0  0
  -28.4390  -24.2028   18.2459 C   0  0  0  0  0  0
  -29.4740  -23.7641   22.3651 C   0  0  0  0  0  0
  -29.3228  -25.1797   21.8014 C   0  0  0  0  0  0
  -30.1243  -22.8486   21.3131 C   0  0  0  0  0  0
  -28.3618  -25.1925   20.6027 C   0  0  1  0  0  0
  -28.3767  -21.5019   20.1137 C   0  0  0  0  0  0
  -26.6667  -19.5238   21.6563 C   0  0  0  0  0  0
  -29.7351  -15.6783   20.9387 N   0  0  0  0  0  0
  -29.2939  -22.7148   20.0886 N   0  3  1  0  0  0
  -25.9178  -18.4863   22.0325 F   0  0  0  0  0  0
  -26.8545  -20.2987   22.7247 F   0  0  0  0  0  0
  -25.9603  -20.1908   20.7417 F   0  0  0  0  0  0
  -31.4863  -12.5997   19.1194 H   0  0  0  0  0  0
  -30.4518  -11.4281   19.8846 H   0  0  0  0  0  0
  -29.7751  -11.7246   17.5009 H   0  0  0  0  0  0
  -29.6437  -13.4526   17.7099 H   0  0  0  0  0  0
  -27.8713  -11.2915   18.8749 H   0  0  0  0  0  0
  -27.3769  -12.5678   17.7973 H   0  0  0  0  0  0
  -27.6763  -14.2508   19.5268 H   0  0  0  0  0  0
  -28.7276  -12.0221   21.3342 H   0  0  0  0  0  0
  -28.4383  -13.6512   21.8617 H   0  0  0  0  0  0
  -25.2772   -9.5666   22.4766 H   0  0  0  0  0  0
  -24.0003   -7.4617   22.7457 H   0  0  0  0  0  0
  -21.0865   -8.8776   19.8935 H   0  0  0  0  0  0
  -22.3727  -10.9672   19.6166 H   0  0  0  0  0  0
  -21.1994   -7.6147   23.9720 H   0  0  0  0  0  0
  -21.1451   -6.0512   25.9075 H   0  0  0  0  0  0
  -22.0621   -2.7612   23.2832 H   0  0  0  0  0  0
  -22.4107  -11.9897   22.4854 H   0  0  0  0  0  0
  -21.1105  -13.1218   22.2578 H   0  0  0  0  0  0
  -24.6513  -15.8346   20.4738 H   0  0  0  0  0  0
  -26.2552  -15.6081   19.9949 H   0  0  0  0  0  0
  -26.7085  -32.5501   23.1087 H   0  0  0  0  0  0
  -24.9912  -33.9765   25.0362 H   0  0  0  0  0  0
  -22.7109  -31.3104   21.3933 H   0  0  0  0  0  0
  -23.3722  -35.9567   23.3335 H   0  0  0  0  0  0
  -24.3525  -36.8875   22.2064 H   0  0  0  0  0  0
  -23.7193  -37.6464   23.6692 H   0  0  0  0  0  0
  -26.0679  -31.5766   20.5921 H   0  0  0  0  0  0
  -26.8336  -30.8646   21.9848 H   0  0  0  0  0  0
  -28.1266  -29.0551   21.1440 H   0  0  0  0  0  0
  -26.0271  -25.9092   19.0709 H   0  0  0  0  0  0
  -23.9678  -27.2686   19.0843 H   0  0  0  0  0  0
  -23.7803  -30.6052   19.4064 H   0  0  0  0  0  0
  -22.7585  -29.2662   19.8280 H   0  0  0  0  0  0
  -25.1241  -36.1873   25.0847 H   0  0  0  0  0  0
  -21.0041  -28.3273   24.1376 H   0  0  0  0  0  0
  -20.5671  -26.2286   23.3631 H   0  0  0  0  0  0
  -21.6632  -26.7430   22.1157 H   0  0  0  0  0  0
  -19.6841  -25.6302   21.1279 H   0  0  0  0  0  0
  -19.6674  -27.3218   20.6805 H   0  0  0  0  0  0
  -17.4165  -26.6810   21.4090 H   0  0  0  0  0  0
  -18.0277  -26.0214   22.9080 H   0  0  0  0  0  0
  -19.8003  -30.7382   24.2170 H   0  0  0  0  0  0
  -17.5114  -31.6331   24.5241 H   0  0  0  0  0  0
  -15.5413  -30.3116   23.7745 H   0  0  0  0  0  0
  -15.8697  -28.1013   22.6977 H   0  0  0  0  0  0
  -24.5847  -30.7221   25.7831 H   0  0  0  0  0  0
  -24.8957  -32.3071   26.4811 H   0  0  0  0  0  0
  -25.8012  -30.9101   27.0275 H   0  0  0  0  0  0
  -26.2817  -29.6850   24.1186 H   0  0  0  0  0  0
  -27.4063  -29.7298   25.4587 H   0  0  0  0  0  0
  -27.8647  -30.4416   23.9277 H   0  0  0  0  0  0
  -27.2448  -33.3703   26.2073 H   0  0  0  0  0  0
  -28.3804  -32.7022   25.0422 H   0  0  0  0  0  0
  -28.0565  -31.8606   26.5527 H   0  0  0  0  0  0
  -28.2535  -38.0067   24.7498 H   0  0  0  0  0  0
  -28.1028  -36.2593   24.6316 H   0  0  0  0  0  0
  -27.2279  -37.1412   25.8904 H   0  0  0  0  0  0
  -20.9276  -29.8836   21.6941 H   0  0  0  0  0  0
  -26.0108  -38.2808   24.1556 H   0  0  0  0  0  0
  -30.6871  -20.0324   19.2029 H   0  0  0  0  0  0
  -31.2648  -17.6411   19.4718 H   0  0  0  0  0  0
  -27.7546  -17.0839   21.8696 H   0  0  0  0  0  0
  -28.0210  -25.1288   17.8753 H   0  0  0  0  0  0
  -28.6323  -23.4272   17.5211 H   0  0  0  0  0  0
  -28.5012  -23.3706   22.6669 H   0  0  0  0  0  0
  -30.0843  -23.7930   23.2669 H   0  0  0  0  0  0
  -30.2994  -25.5696   21.5034 H   0  0  0  0  0  0
  -28.9582  -25.8577   22.5763 H   0  0  0  0  0  0
  -30.3430  -21.8716   21.7433 H   0  0  0  0  0  0
  -31.0904  -23.2644   21.0222 H   0  0  0  0  0  0
  -27.3631  -24.9831   20.9860 H   0  0  0  0  0  0
  -27.6688  -21.7717   20.8935 H   0  0  0  0  0  0
  -27.8085  -21.5047   19.1816 H   0  0  0  0  0  0
  -28.9396  -15.2597   21.3964 H   0  0  0  0  0  0
  -29.9776  -22.4495   19.3961 H   0  0  0  0  0  0
  1 25  1  0  0  0
  1 30  2  0  0  0
  1 85  1  0  0  0
  2  3  1  0  0  0
  2 25  1  0  0  0
  2 90  1  0  0  0
  2 91  1  0  0  0
  3  4  1  0  0  0
  3 92  1  0  0  0
  3 93  1  0  0  0
  4  5  1  0  0  0
  4 94  1  0  0  0
  4 95  1  0  0  0
  5  6  1  0  0  0
  5 26  1  0  0  0
  5 96  1  0  0  0
  6 25  1  0  0  0
  6 97  1  0  0  0
  6 98  1  0  0  0
  7  8  2  0  0  0
  7 26  1  0  0  0
  7 29  1  0  0  0
  8  9  1  0  0  0
  8 22  1  0  0  0
  9 10  1  0  0  0
  9 27  2  0  0  0
 10 11  2  0  0  0
 10 15  1  0  0  0
 11 12  1  0  0  0
 11 99  1  0  0  0
 12 13  2  0  0  0
 12100  1  0  0  0
 13 14  1  0  0  0
 13 31  1  0  0  0
 14 15  2  0  0  0
 14101  1  0  0  0
 15102  1  0  0  0
 16 17  2  0  0  0
 16 21  1  0  0  0
 16 31  1  0  0  0
 17 18  1  0  0  0
 17103  1  0  0  0
 18 19  2  0  0  0
 18104  1  0  0  0
 19 20  1  0  0  0
 19 24  1  0  0  0
 20 21  2  0  0  0
 20105  1  0  0  0
 21 23  1  0  0  0
 22 28  1  0  0  0
 22 32  2  0  0  0
 26 27  1  0  0  0
 28106  1  0  0  0
 28107  1  0  0  0
 29108  1  0  0  0
 29109  1  0  0  0
 33 34  1  0  0  0
 33 66  1  0  0  0
 33 70  2  0  0  0
 34 36  1  0  0  0
 34 59  1  0  0  0
 34110  1  0  0  0
 35 44  2  0  0  0
 35 45  1  0  0  0
 35 68  1  0  0  0
 36 56  1  0  0  0
 36111  1  0  0  0
 37 39  1  0  0  0
 37 47  1  0  0  0
 37 66  1  0  0  0
 37112  1  0  0  0
 38 43  2  0  0  0
 38 46  1  0  0  0
 38 47  1  0  0  0
 39 64  1  0  0  0
 39 67  2  0  0  0
 40 52  1  0  0  0
 40 53  2  0  0  0
 40 58  1  0  0  0
 41113  1  0  0  0
 41114  1  0  0  0
 41115  1  0  0  0
 41 48  1  0  0  0
 42 43  1  0  0  0
 42 66  1  0  0  0
 42116  1  0  0  0
 42117  1  0  0  0
 43 44  1  0  0  0
 44118  1  0  0  0
 45 46  2  0  0  0
 45119  1  0  0  0
 46120  1  0  0  0
 47121  1  0  0  0
 47122  1  0  0  0
 48 56  1  0  0  0
 48 65  1  0  0  0
 48123  1  0  0  0
 49 50  1  0  0  0
 49 53  1  0  0  0
 49 64  1  0  0  0
 49124  1  0  0  0
 50 51  1  0  0  0
 50125  1  0  0  0
 50126  1  0  0  0
 51 52  1  0  0  0
 51127  1  0  0  0
 51128  1  0  0  0
 52129  1  0  0  0
 52130  1  0  0  0
 53 54  1  0  0  0
 54 55  2  0  0  0
 54131  1  0  0  0
 55 57  1  0  0  0
 55132  1  0  0  0
 56 69  2  0  0  0
 57 58  2  0  0  0
 57133  1  0  0  0
 58134  1  0  0  0
 59 60  1  0  0  0
 59 61  1  0  0  0
 59 62  1  0  0  0
 60135  1  0  0  0
 60136  1  0  0  0
 60137  1  0  0  0
 61138  1  0  0  0
 61139  1  0  0  0
 61140  1  0  0  0
 62141  1  0  0  0
 62142  1  0  0  0
 62143  1  0  0  0
 63 65  1  0  0  0
 63144  1  0  0  0
 63145  1  0  0  0
 63146  1  0  0  0
 64147  1  0  0  0
 65148  1  0  0  0
 68 82  1  0  0  0
 71 72  2  0  0  0
 71 74  1  0  0  0
 71149  1  0  0  0
 72 76  1  0  0  0
 72150  1  0  0  0
 73 75  1  0  0  0
 73 76  2  0  0  0
 73151  1  0  0  0
 74 75  2  0  0  0
 74 83  1  0  0  0
 75 84  1  0  0  0
 76 85  1  0  0  0
 77 78  2  0  0  0
 77 82  1  0  0  0
 77 86  1  0  0  0
 78152  1  0  0  0
 78153  1  0  0  0
 79 80  1  0  0  0
 79 81  1  0  0  0
 79154  1  0  0  0
 79155  1  0  0  0
 80 82  1  0  0  0
 80156  1  0  0  0
 80157  1  0  0  0
 81 86  1  0  0  0
 81158  1  0  0  0
 81159  1  0  0  0
 82160  1  0  0  0
 83161  1  0  0  0
 83162  1  0  0  0
 83 86  1  0  0  0
 84 87  1  0  0  0
 84 88  1  0  0  0
 84 89  1  0  0  0
 85163  1  0  0  0
 86164  1  0  0  0
M  CHG  1  86   1
M  ISO  4   1 100  68 101  82 101  85 100
M  END
> <chiral flag>
0

> <version>
0

> <s_m_source_file>
/data/baiqing/PycharmProjects/Reinvent-master-3.2/result/LINK_invent/BTK/process_docking_weight1_custom_product_contain_oxygen_bond_distance_aromatic_linkinvent_7_9_3/rearranged_h_0048.sdf

> <i_m_source_file_index>
9

> <r_mmod_Potential_Energy-OPLS-2005>
-7.90263080596924

> <r_mmod_Stretch_Energy-OPLS-2005>
95.6699829101562

> <r_mmod_Bend_Energy-OPLS-2005>
178.843521118164

> <r_mmod_Torsional_Energy-OPLS-2005>
243.997573852539

> <r_mmod_Improper_Torsional_Energy-OPLS-2005>
4.32243919372559

> <r_mmod_Van_der_Waal_Energy-OPLS-2005>
140.889755249023

> <r_mmod_Electrostatic_Energy-OPLS-2005>
-280.82421875

> <r_mmod_Solvation_Energy-OPLS-2005>
-439.884613037109

> <b_mmod_Minimization_Converged-OPLS-2005>
0

> <r_mmod_RMS_Derivative-OPLS-2005>
4.83688735961914

$$$$
9
                    3D
 Structure written by MMmdl.
164173  0  0  1  0            999 V2000
  -30.6446  -14.7095   20.5192 C   0  0  0  0  0  0
  -30.4530  -12.4403   19.4972 C   0  0  0  0  0  0
  -29.5281  -12.4964   18.2605 C   0  0  0  0  0  0
  -28.0558  -12.3163   18.6682 C   0  0  0  0  0  0
  -27.6571  -13.2210   19.8688 C   0  0  2  0  0  0
  -28.6977  -13.1368   21.0095 C   0  0  0  0  0  0
  -25.2617  -13.8176   20.5774 C   0  0  0  0  0  0
  -24.1869  -13.0396   20.9271 C   0  0  0  0  0  0
  -24.6425  -11.6874   20.8800 C   0  0  0  0  0  0
  -23.9083  -10.4246   21.0420 C   0  0  0  0  0  0
  -24.3625   -9.4146   21.9198 C   0  0  0  0  0  0
  -23.6305   -8.2182   22.0730 C   0  0  0  0  0  0
  -22.4271   -8.0252   21.3540 C   0  0  0  0  0  0
  -21.9941   -9.0202   20.4616 C   0  0  0  0  0  0
  -22.7279  -10.2083   20.3051 C   0  0  0  0  0  0
  -21.6824   -6.0748   22.5306 C   0  0  0  0  0  0
  -21.4005   -6.5667   23.8249 C   0  0  0  0  0  0
  -21.3663   -5.6819   24.9212 C   0  0  0  0  0  0
  -21.6040   -4.3079   24.7241 C   0  0  0  0  0  0
  -21.8831   -3.8167   23.4373 C   0  0  0  0  0  0
  -21.9160   -4.6980   22.3419 C   0  0  0  0  0  0
  -22.7876  -13.5177   21.1893 C   0  0  0  0  0  0
  -22.1628   -4.2181   21.0995 F   0  0  0  0  0  0
  -21.5611   -3.4560   25.7749 F   0  0  0  0  0  0
  -30.0183  -13.4837   20.4525 N   0  0  0  0  0  0
  -26.3030  -12.9328   20.3370 N   0  0  0  0  0  0
  -25.9368  -11.6485   20.5801 N   0  0  0  0  0  0
  -22.0523  -12.8136   22.0437 N   0  0  0  0  0  0
  -25.4361  -15.1878   20.4198 N   0  0  0  0  0  0
  -31.7821  -14.8549   20.0667 O   0  0  0  0  0  0
  -21.6604   -6.8878   21.4273 O   0  0  0  0  0  0
  -22.3548  -14.5480   20.6760 O   0  0  0  0  0  0
  -24.6151  -31.8635   23.2049 C   0  0  0  0  0  0
  -25.9014  -32.4821   23.8382 C   0  0  1  0  0  0
  -27.2261  -27.3084   20.2034 C   0  0  0  0  0  0
  -25.5917  -33.8623   24.2346 N   0  0  0  0  0  0
  -23.4141  -30.4783   21.5470 C   0  0  2  0  0  0
  -24.8677  -28.9288   20.1195 C   0  0  0  0  0  0
  -22.7432  -29.4582   22.4972 C   0  0  0  0  0  0
  -18.0265  -28.1379   22.8454 C   0  0  0  0  0  0
  -24.1475  -36.7309   23.2639 C   0  0  0  0  0  0
  -25.9427  -30.8073   21.3603 C   0  0  0  0  0  0
  -26.0273  -29.4201   20.7304 C   0  0  0  0  0  0
  -27.2079  -28.6234   20.7618 C   0  0  0  0  0  0
  -26.0575  -26.8695   19.5429 C   0  0  0  0  0  0
  -24.8908  -27.6640   19.5030 C   0  0  0  0  0  0
  -23.6271  -29.8011   20.1613 C   0  0  0  0  0  0
  -25.4100  -36.3112   24.0342 C   0  0  1  0  0  0
  -20.5866  -28.3602   23.1312 C   0  0  2  0  0  0
  -20.6733  -26.9349   22.5367 C   0  0  0  0  0  0
  -19.5704  -26.6335   21.5172 C   0  0  0  0  0  0
  -18.1898  -26.7934   22.1571 C   0  0  0  0  0  0
  -19.1527  -28.8797   23.2896 C   0  0  0  0  0  0
  -18.9429  -30.1376   23.8959 C   0  0  0  0  0  0
  -17.6451  -30.6521   24.0658 C   0  0  0  0  0  0
  -25.9036  -34.9463   23.5130 C   0  0  0  0  0  0
  -16.5349  -29.9028   23.6392 C   0  0  0  0  0  0
  -16.7258  -28.6480   23.0334 C   0  0  0  0  0  0
  -26.4453  -31.6577   25.0704 C   0  0  0  0  0  0
  -25.3693  -31.3572   26.1408 C   0  0  0  0  0  0
  -27.0300  -30.3060   24.6024 C   0  0  0  0  0  0
  -27.6088  -32.4234   25.7440 C   0  0  0  0  0  0
  -27.5567  -37.1792   24.8482 C   0  0  0  0  0  0
  -21.4157  -29.3006   22.3756 N   0  0  0  0  0  0
  -26.4289  -37.3808   23.9418 N   0  0  0  0  0  0
  -24.6768  -31.0674   22.0968 N   0  0  0  0  0  0
  -23.4176  -28.8073   23.3006 O   0  0  0  0  0  0
  -28.3717  -26.5043   20.2698 O   0  0  0  0  0  0
  -26.5571  -34.8889   22.4684 O   0  0  0  0  0  0
  -23.5340  -32.1402   23.7429 O   0  0  0  0  0  0
  -30.3812  -19.3715   19.6374 C   0  0  0  0  0  0
  -30.5010  -17.9451   19.7650 C   0  0  0  0  0  0
  -29.3970  -19.4917   21.8150 C   0  0  0  0  0  0
  -29.8065  -20.1874   20.6539 C   0  0  0  0  0  0
  -29.5099  -18.0756   21.9526 C   0  0  0  0  0  0
  -30.0277  -17.2407   20.9120 C   0  0  0  0  0  0
  -27.4444  -22.3041   21.4776 C   0  0  0  0  0  0
  -26.5953  -21.2633   21.5012 C   0  0  0  0  0  0
  -27.5458  -23.3898   22.5409 C   0  0  0  0  0  0
  -27.3801  -24.8250   21.9818 C   0  0  0  0  0  0
  -28.4982  -23.9253   19.8259 C   0  0  0  0  0  0
  -28.3890  -25.1281   20.8455 C   0  0  1  0  0  0
  -29.1042  -17.4772   23.2871 C   0  0  0  0  0  0
  -29.7641  -21.7705   20.5803 C   0  0  0  0  0  0
  -29.9323  -15.7687   21.0379 N   0  0  0  0  0  0
  -28.4425  -22.4943   20.3751 N   0  3  2  0  0  0
  -31.4920  -12.5756   19.1946 H   0  0  0  0  0  0
  -30.4045  -11.4604   19.9739 H   0  0  0  0  0  0
  -29.8180  -11.7202   17.5523 H   0  0  0  0  0  0
  -29.6571  -13.4501   17.7445 H   0  0  0  0  0  0
  -27.9243  -11.2680   18.9439 H   0  0  0  0  0  0
  -27.3978  -12.4907   17.8160 H   0  0  0  0  0  0
  -27.6631  -14.2456   19.4982 H   0  0  0  0  0  0
  -28.7188  -12.1322   21.4360 H   0  0  0  0  0  0
  -28.4186  -13.7968   21.8312 H   0  0  0  0  0  0
  -25.2741   -9.5574   22.4828 H   0  0  0  0  0  0
  -23.9968   -7.4537   22.7429 H   0  0  0  0  0  0
  -21.0881   -8.8736   19.8929 H   0  0  0  0  0  0
  -22.3741  -10.9629   19.6172 H   0  0  0  0  0  0
  -21.2049   -7.6183   23.9785 H   0  0  0  0  0  0
  -21.1473   -6.0538   25.9109 H   0  0  0  0  0  0
  -22.0616   -2.7642   23.2870 H   0  0  0  0  0  0
  -22.4092  -11.9726   22.4772 H   0  0  0  0  0  0
  -21.1142  -13.1159   22.2689 H   0  0  0  0  0  0
  -24.6882  -15.8579   20.5524 H   0  0  0  0  0  0
  -26.2798  -15.6102   20.0531 H   0  0  0  0  0  0
  -26.7058  -32.5551   23.1121 H   0  0  0  0  0  0
  -25.0228  -33.9832   25.0590 H   0  0  0  0  0  0
  -22.7080  -31.2956   21.3991 H   0  0  0  0  0  0
  -23.3760  -35.9623   23.3301 H   0  0  0  0  0  0
  -24.3553  -36.8948   22.2066 H   0  0  0  0  0  0
  -23.7179  -37.6482   23.6649 H   0  0  0  0  0  0
  -26.0375  -31.5516   20.5683 H   0  0  0  0  0  0
  -26.8405  -30.8979   21.9588 H   0  0  0  0  0  0
  -28.0891  -28.9970   21.2614 H   0  0  0  0  0  0
  -26.0403  -25.9001   19.0707 H   0  0  0  0  0  0
  -24.0052  -27.2946   19.0080 H   0  0  0  0  0  0
  -23.7308  -30.5739   19.4009 H   0  0  0  0  0  0
  -22.7510  -29.2200   19.8734 H   0  0  0  0  0  0
  -25.1248  -36.2014   25.0838 H   0  0  0  0  0  0
  -20.9967  -28.3082   24.1418 H   0  0  0  0  0  0
  -20.5758  -26.2145   23.3508 H   0  0  0  0  0  0
  -21.6573  -26.7451   22.1088 H   0  0  0  0  0  0
  -19.6849  -25.6223   21.1241 H   0  0  0  0  0  0
  -19.6673  -27.3120   20.6680 H   0  0  0  0  0  0
  -17.4181  -26.6773   21.3939 H   0  0  0  0  0  0
  -18.0186  -26.0056   22.8924 H   0  0  0  0  0  0
  -19.7909  -30.7165   24.2398 H   0  0  0  0  0  0
  -17.4988  -31.6166   24.5296 H   0  0  0  0  0  0
  -15.5328  -30.2931   23.7721 H   0  0  0  0  0  0
  -15.8646  -28.0822   22.7032 H   0  0  0  0  0  0
  -24.6017  -30.6826   25.7643 H   0  0  0  0  0  0
  -24.8721  -32.2668   26.4802 H   0  0  0  0  0  0
  -25.8048  -30.8767   27.0196 H   0  0  0  0  0  0
  -26.2841  -29.6791   24.1179 H   0  0  0  0  0  0
  -27.4230  -29.7301   25.4405 H   0  0  0  0  0  0
  -27.8568  -30.4418   23.9041 H   0  0  0  0  0  0
  -27.2886  -33.3654   26.1902 H   0  0  0  0  0  0
  -28.3977  -32.6597   25.0274 H   0  0  0  0  0  0
  -28.0671  -31.8390   26.5455 H   0  0  0  0  0  0
  -28.2588  -38.0081   24.7545 H   0  0  0  0  0  0
  -28.1043  -36.2622   24.6291 H   0  0  0  0  0  0
  -27.2273  -37.1420   25.8875 H   0  0  0  0  0  0
  -20.9286  -29.8719   21.6996 H   0  0  0  0  0  0
  -26.0185  -38.2889   24.1441 H   0  0  0  0  0  0
  -30.7538  -19.8403   18.7332 H   0  0  0  0  0  0
  -30.9507  -17.3937   18.9527 H   0  0  0  0  0  0
  -28.9923  -20.0723   22.6324 H   0  0  0  0  0  0
  -25.9056  -21.1279   22.3250 H   0  0  0  0  0  0
  -26.5768  -20.5083   20.7276 H   0  0  0  0  0  0
  -28.5091  -23.2805   23.0351 H   0  0  0  0  0  0
  -26.7921  -23.1970   23.3119 H   0  0  0  0  0  0
  -27.5501  -25.5273   22.7998 H   0  0  0  0  0  0
  -26.3521  -24.9745   21.6513 H   0  0  0  0  0  0
  -29.4065  -24.0537   19.2389 H   0  0  0  0  0  0
  -27.6727  -24.0274   19.1238 H   0  0  0  0  0  0
  -29.3474  -25.1175   21.3691 H   0  0  0  0  0  0
  -29.0338  -18.2523   24.0496 H   0  0  0  0  0  0
  -29.8543  -16.7622   23.6251 H   0  0  0  0  0  0
  -28.1337  -16.9859   23.2249 H   0  0  0  0  0  0
  -30.4379  -22.0711   19.7772 H   0  0  0  0  0  0
  -30.2132  -22.1662   21.4902 H   0  0  0  0  0  0
  -29.1198  -15.4627   21.5558 H   0  0  0  0  0  0
  -28.0790  -21.9858   19.5819 H   0  0  0  0  0  0
  1 25  1  0  0  0
  1 30  2  0  0  0
  1 85  1  0  0  0
  2  3  1  0  0  0
  2 25  1  0  0  0
  2 87  1  0  0  0
  2 88  1  0  0  0
  3  4  1  0  0  0
  3 89  1  0  0  0
  3 90  1  0  0  0
  4  5  1  0  0  0
  4 91  1  0  0  0
  4 92  1  0  0  0
  5  6  1  0  0  0
  5 26  1  0  0  0
  5 93  1  0  0  0
  6 25  1  0  0  0
  6 94  1  0  0  0
  6 95  1  0  0  0
  7  8  2  0  0  0
  7 26  1  0  0  0
  7 29  1  0  0  0
  8  9  1  0  0  0
  8 22  1  0  0  0
  9 10  1  0  0  0
  9 27  2  0  0  0
 10 11  2  0  0  0
 10 15  1  0  0  0
 11 12  1  0  0  0
 11 96  1  0  0  0
 12 13  2  0  0  0
 12 97  1  0  0  0
 13 14  1  0  0  0
 13 31  1  0  0  0
 14 15  2  0  0  0
 14 98  1  0  0  0
 15 99  1  0  0  0
 16 17  2  0  0  0
 16 21  1  0  0  0
 16 31  1  0  0  0
 17 18  1  0  0  0
 17100  1  0  0  0
 18 19  2  0  0  0
 18101  1  0  0  0
 19 20  1  0  0  0
 19 24  1  0  0  0
 20 21  2  0  0  0
 20102  1  0  0  0
 21 23  1  0  0  0
 22 28  1  0  0  0
 22 32  2  0  0  0
 26 27  1  0  0  0
 28103  1  0  0  0
 28104  1  0  0  0
 29105  1  0  0  0
 29106  1  0  0  0
 33 34  1  0  0  0
 33 66  1  0  0  0
 33 70  2  0  0  0
 34 36  1  0  0  0
 34 59  1  0  0  0
 34107  1  0  0  0
 35 44  2  0  0  0
 35 45  1  0  0  0
 35 68  1  0  0  0
 36 56  1  0  0  0
 36108  1  0  0  0
 37 39  1  0  0  0
 37 47  1  0  0  0
 37 66  1  0  0  0
 37109  1  0  0  0
 38 43  2  0  0  0
 38 46  1  0  0  0
 38 47  1  0  0  0
 39 64  1  0  0  0
 39 67  2  0  0  0
 40 52  1  0  0  0
 40 53  2  0  0  0
 40 58  1  0  0  0
 41110  1  0  0  0
 41111  1  0  0  0
 41112  1  0  0  0
 41 48  1  0  0  0
 42 43  1  0  0  0
 42 66  1  0  0  0
 42113  1  0  0  0
 42114  1  0  0  0
 43 44  1  0  0  0
 44115  1  0  0  0
 45 46  2  0  0  0
 45116  1  0  0  0
 46117  1  0  0  0
 47118  1  0  0  0
 47119  1  0  0  0
 48 56  1  0  0  0
 48 65  1  0  0  0
 48120  1  0  0  0
 49 50  1  0  0  0
 49 53  1  0  0  0
 49 64  1  0  0  0
 49121  1  0  0  0
 50 51  1  0  0  0
 50122  1  0  0  0
 50123  1  0  0  0
 51 52  1  0  0  0
 51124  1  0  0  0
 51125  1  0  0  0
 52126  1  0  0  0
 52127  1  0  0  0
 53 54  1  0  0  0
 54 55  2  0  0  0
 54128  1  0  0  0
 55 57  1  0  0  0
 55129  1  0  0  0
 56 69  2  0  0  0
 57 58  2  0  0  0
 57130  1  0  0  0
 58131  1  0  0  0
 59 60  1  0  0  0
 59 61  1  0  0  0
 59 62  1  0  0  0
 60132  1  0  0  0
 60133  1  0  0  0
 60134  1  0  0  0
 61135  1  0  0  0
 61136  1  0  0  0
 61137  1  0  0  0
 62138  1  0  0  0
 62139  1  0  0  0
 62140  1  0  0  0
 63 65  1  0  0  0
 63141  1  0  0  0
 63142  1  0  0  0
 63143  1  0  0  0
 64144  1  0  0  0
 65145  1  0  0  0
 68 82  1  0  0  0
 71 72  2  0  0  0
 71 74  1  0  0  0
 71146  1  0  0  0
 72 76  1  0  0  0
 72147  1  0  0  0
 73 74  2  0  0  0
 73 75  1  0  0  0
 73148  1  0  0  0
 74 84  1  0  0  0
 75 76  2  0  0  0
 75 83  1  0  0  0
 76 85  1  0  0  0
 77 78  2  0  0  0
 77 79  1  0  0  0
 77 86  1  0  0  0
 78149  1  0  0  0
 78150  1  0  0  0
 79 80  1  0  0  0
 79151  1  0  0  0
 79152  1  0  0  0
 80 82  1  0  0  0
 80153  1  0  0  0
 80154  1  0  0  0
 81 82  1  0  0  0
 81 86  1  0  0  0
 81155  1  0  0  0
 81156  1  0  0  0
 82157  1  0  0  0
 83158  1  0  0  0
 83159  1  0  0  0
 83160  1  0  0  0
 84161  1  0  0  0
 84162  1  0  0  0
 84 86  1  0  0  0
 85163  1  0  0  0
 86164  1  0  0  0
M  CHG  1  86   1
M  ISO  4   1 100  68 101  82 101  85 100
M  END
> <chiral flag>
0

> <version>
0

> <s_m_source_file>
/data/baiqing/PycharmProjects/Reinvent-master-3.2/result/LINK_invent/BTK/process_docking_weight1_custom_product_contain_oxygen_bond_distance_aromatic_linkinvent_7_9_3/rearranged_h_0048.sdf

> <i_m_source_file_index>
10

> <r_mmod_Potential_Energy-OPLS-2005>
4.60230493545532

> <r_mmod_Stretch_Energy-OPLS-2005>
92.3170852661133

> <r_mmod_Bend_Energy-OPLS-2005>
174.523651123047

> <r_mmod_Torsional_Energy-OPLS-2005>
256.465850830078

> <r_mmod_Improper_Torsional_Energy-OPLS-2005>
3.3239917755127

> <r_mmod_Van_der_Waal_Energy-OPLS-2005>
128.800842285156

> <r_mmod_Electrostatic_Energy-OPLS-2005>
-289.040893554688

> <r_mmod_Solvation_Energy-OPLS-2005>
-426.515686035156

> <b_mmod_Minimization_Converged-OPLS-2005>
0

> <r_mmod_RMS_Derivative-OPLS-2005>
7.62746095657349

$$$$
10
                    3D
 Structure written by MMmdl.
160168  0  0  1  0            999 V2000
  -30.6078  -14.6224   20.5930 C   0  0  0  0  0  0
  -30.4308  -12.4211   19.4218 C   0  0  0  0  0  0
  -29.4863  -12.5231   18.2046 C   0  0  0  0  0  0
  -28.0165  -12.3314   18.6334 C   0  0  0  0  0  0
  -27.6412  -13.2081   19.8585 C   0  0  2  0  0  0
  -28.6809  -13.0496   20.9834 C   0  0  0  0  0  0
  -25.2506  -13.8148   20.5736 C   0  0  0  0  0  0
  -24.1773  -13.0418   20.9179 C   0  0  0  0  0  0
  -24.6346  -11.6889   20.8734 C   0  0  0  0  0  0
  -23.9024  -10.4283   21.0383 C   0  0  0  0  0  0
  -24.3566   -9.4220   21.9171 C   0  0  0  0  0  0
  -23.6273   -8.2241   22.0751 C   0  0  0  0  0  0
  -22.4255   -8.0263   21.3536 C   0  0  0  0  0  0
  -21.9868   -9.0237   20.4642 C   0  0  0  0  0  0
  -22.7188  -10.2120   20.3067 C   0  0  0  0  0  0
  -21.6859   -6.0722   22.5293 C   0  0  0  0  0  0
  -21.4017   -6.5632   23.8209 C   0  0  0  0  0  0
  -21.3653   -5.6799   24.9172 C   0  0  0  0  0  0
  -21.6035   -4.3063   24.7242 C   0  0  0  0  0  0
  -21.8823   -3.8150   23.4371 C   0  0  0  0  0  0
  -21.9192   -4.6961   22.3424 C   0  0  0  0  0  0
  -22.7804  -13.5203   21.1889 C   0  0  0  0  0  0
  -22.1676   -4.2159   21.1002 F   0  0  0  0  0  0
  -21.5622   -3.4536   25.7736 F   0  0  0  0  0  0
  -29.9811  -13.4229   20.4143 N   0  0  0  0  0  0
  -26.2897  -12.9323   20.3289 N   0  0  0  0  0  0
  -25.9260  -11.6485   20.5724 N   0  0  0  0  0  0
  -22.0479  -12.8144   22.0421 N   0  0  0  0  0  0
  -25.4245  -15.1862   20.4257 N   0  0  0  0  0  0
  -31.7850  -14.7914   20.2676 O   0  0  0  0  0  0
  -21.6636   -6.8843   21.4236 O   0  0  0  0  0  0
  -22.3474  -14.5549   20.6816 O   0  0  0  0  0  0
  -24.6308  -31.8555   23.1966 C   0  0  0  0  0  0
  -25.9138  -32.4752   23.8316 C   0  0  1  0  0  0
  -27.2144  -27.2763   20.1353 C   0  0  0  0  0  0
  -25.5938  -33.8546   24.2260 N   0  0  0  0  0  0
  -23.4302  -30.4760   21.5416 C   0  0  2  0  0  0
  -24.8745  -28.9248   20.1184 C   0  0  0  0  0  0
  -22.7481  -29.4613   22.4922 C   0  0  0  0  0  0
  -18.0275  -28.1386   22.8486 C   0  0  0  0  0  0
  -24.1490  -36.7270   23.2660 C   0  0  0  0  0  0
  -25.9762  -30.7703   21.3853 C   0  0  0  0  0  0
  -26.0467  -29.3955   20.7260 C   0  0  0  0  0  0
  -27.2249  -28.5827   20.7211 C   0  0  0  0  0  0
  -26.0267  -26.8721   19.4884 C   0  0  0  0  0  0
  -24.8679  -27.6701   19.4893 C   0  0  0  0  0  0
  -23.6461  -29.8107   20.1583 C   0  0  0  0  0  0
  -25.4121  -36.3076   24.0339 C   0  0  1  0  0  0
  -20.5884  -28.3728   23.1285 C   0  0  2  0  0  0
  -20.6786  -26.9452   22.5420 C   0  0  0  0  0  0
  -19.5752  -26.6352   21.5262 C   0  0  0  0  0  0
  -18.1920  -26.7900   22.1670 C   0  0  0  0  0  0
  -19.1525  -28.8863   23.2887 C   0  0  0  0  0  0
  -18.9450  -30.1466   23.8878 C   0  0  0  0  0  0
  -17.6450  -30.6590   24.0540 C   0  0  0  0  0  0
  -25.9050  -34.9442   23.5114 C   0  0  0  0  0  0
  -16.5335  -29.9079   23.6328 C   0  0  0  0  0  0
  -16.7254  -28.6495   23.0361 C   0  0  0  0  0  0
  -26.4499  -31.6593   25.0735 C   0  0  0  0  0  0
  -25.3709  -31.3735   26.1451 C   0  0  0  0  0  0
  -27.0393  -30.2999   24.6285 C   0  0  0  0  0  0
  -27.6051  -32.4345   25.7501 C   0  0  0  0  0  0
  -27.5570  -37.1809   24.8479 C   0  0  0  0  0  0
  -21.4197  -29.3052   22.3626 N   0  0  0  0  0  0
  -26.4304  -37.3770   23.9402 N   0  0  0  0  0  0
  -24.6964  -31.0532   22.0947 N   0  0  0  0  0  0
  -23.4163  -28.8136   23.3021 O   0  0  0  0  0  0
  -28.3043  -26.3878   20.1630 O   0  0  0  0  0  0
  -26.5638  -34.8912   22.4687 O   0  0  0  0  0  0
  -23.5453  -32.1335   23.7264 O   0  0  0  0  0  0
  -29.9046  -16.4595   24.5226 C   0  0  0  0  0  0
  -29.6768  -17.8345   24.5887 C   0  0  0  0  0  0
  -29.9924  -15.8358   23.2725 C   0  0  0  0  0  0
  -29.5628  -18.5980   23.4108 C   0  0  0  0  0  0
  -29.5877  -17.9925   22.1127 C   0  0  0  0  0  0
  -29.8385  -16.5477   22.0559 C   0  0  0  0  0  0
  -28.0648  -21.2112   20.5021 C   0  0  0  0  0  0
  -29.4804  -20.0986   23.6169 C   0  0  0  0  0  0
  -29.4480  -18.9664   20.8822 C   0  0  0  0  0  0
  -29.1010  -22.3615   20.7740 C   0  0  0  0  0  0
  -29.0046  -23.8000   20.0477 C   0  0  0  0  0  0
  -28.0465  -24.9686   20.5669 C   0  0  0  0  0  0
  -29.7917  -15.6942   20.8865 N   0  0  0  0  0  0
  -28.2578  -19.8783   20.8004 N   0  0  0  0  0  0
  -26.9613  -21.5446   20.0747 O   0  0  0  0  0  0
  -31.4622  -12.5970   19.1076 H   0  0  0  0  0  0
  -30.4026  -11.4229   19.8564 H   0  0  0  0  0  0
  -29.7539  -11.7907   17.4435 H   0  0  0  0  0  0
  -29.6050  -13.5019   17.7403 H   0  0  0  0  0  0
  -27.8754  -11.2741   18.8738 H   0  0  0  0  0  0
  -27.3468  -12.5371   17.7988 H   0  0  0  0  0  0
  -27.6621  -14.2433   19.5231 H   0  0  0  0  0  0
  -28.6989  -12.0194   21.3432 H   0  0  0  0  0  0
  -28.4148  -13.6585   21.8470 H   0  0  0  0  0  0
  -25.2710   -9.5718   22.4724 H   0  0  0  0  0  0
  -24.0024   -7.4628   22.7454 H   0  0  0  0  0  0
  -21.0802   -8.8728   19.8931 H   0  0  0  0  0  0
  -22.3637  -10.9647   19.6183 H   0  0  0  0  0  0
  -21.2023   -7.6147   23.9707 H   0  0  0  0  0  0
  -21.1462   -6.0530   25.9058 H   0  0  0  0  0  0
  -22.0604   -2.7630   23.2871 H   0  0  0  0  0  0
  -22.4126  -11.9782   22.4756 H   0  0  0  0  0  0
  -21.1142  -13.1174   22.2776 H   0  0  0  0  0  0
  -24.6624  -15.8384   20.5800 H   0  0  0  0  0  0
  -26.2822  -15.6401   20.1437 H   0  0  0  0  0  0
  -26.7215  -32.5376   23.1061 H   0  0  0  0  0  0
  -25.0059  -33.9679   25.0378 H   0  0  0  0  0  0
  -22.7321  -31.3009   21.3917 H   0  0  0  0  0  0
  -23.3745  -35.9616   23.3345 H   0  0  0  0  0  0
  -24.3569  -36.8835   22.2069 H   0  0  0  0  0  0
  -23.7231  -37.6478   23.6639 H   0  0  0  0  0  0
  -26.1372  -31.5344   20.6240 H   0  0  0  0  0  0
  -26.8440  -30.7988   22.0309 H   0  0  0  0  0  0
  -28.1258  -28.9358   21.2048 H   0  0  0  0  0  0
  -25.9799  -25.9198   18.9771 H   0  0  0  0  0  0
  -23.9724  -27.3047   19.0024 H   0  0  0  0  0  0
  -23.7826  -30.5870   19.4027 H   0  0  0  0  0  0
  -22.7651  -29.2474   19.8404 H   0  0  0  0  0  0
  -25.1299  -36.1951   25.0830 H   0  0  0  0  0  0
  -20.9979  -28.3306   24.1403 H   0  0  0  0  0  0
  -20.5720  -26.2338   23.3631 H   0  0  0  0  0  0
  -21.6657  -26.7473   22.1228 H   0  0  0  0  0  0
  -19.6934  -25.6245   21.1325 H   0  0  0  0  0  0
  -19.6666  -27.3119   20.6767 H   0  0  0  0  0  0
  -17.4176  -26.6581   21.4063 H   0  0  0  0  0  0
  -18.0353  -26.0079   22.9113 H   0  0  0  0  0  0
  -19.7922  -30.7290   24.2230 H   0  0  0  0  0  0
  -17.5013  -31.6279   24.5132 H   0  0  0  0  0  0
  -15.5330  -30.2978   23.7693 H   0  0  0  0  0  0
  -15.8642  -28.0815   22.7116 H   0  0  0  0  0  0
  -24.5887  -30.7105   25.7724 H   0  0  0  0  0  0
  -24.8935  -32.2919   26.4871 H   0  0  0  0  0  0
  -25.8034  -30.8891   27.0220 H   0  0  0  0  0  0
  -26.3020  -29.6709   24.1298 H   0  0  0  0  0  0
  -27.4003  -29.7302   25.4856 H   0  0  0  0  0  0
  -27.8912  -30.4232   23.9609 H   0  0  0  0  0  0
  -27.2635  -33.3618   26.2088 H   0  0  0  0  0  0
  -28.3853  -32.6926   25.0340 H   0  0  0  0  0  0
  -28.0741  -31.8475   26.5401 H   0  0  0  0  0  0
  -28.2638  -38.0065   24.7478 H   0  0  0  0  0  0
  -28.1035  -36.2591   24.6383 H   0  0  0  0  0  0
  -27.2301  -37.1528   25.8897 H   0  0  0  0  0  0
  -20.9394  -29.8713   21.6769 H   0  0  0  0  0  0
  -26.0191  -38.2860   24.1358 H   0  0  0  0  0  0
  -30.0095  -15.8840   25.4331 H   0  0  0  0  0  0
  -29.6260  -18.3083   25.5562 H   0  0  0  0  0  0
  -30.1513  -14.7664   23.2903 H   0  0  0  0  0  0
  -29.8715  -20.3793   24.5971 H   0  0  0  0  0  0
  -28.4499  -20.4392   23.5618 H   0  0  0  0  0  0
  -30.0867  -20.6241   22.8816 H   0  0  0  0  0  0
  -29.4909  -18.3832   19.9635 H   0  0  0  0  0  0
  -30.3425  -19.5846   20.8513 H   0  0  0  0  0  0
  -30.0808  -21.9390   20.5355 H   0  0  0  0  0  0
  -29.1026  -22.5406   21.8481 H   0  0  0  0  0  0
  -28.8428  -23.6445   18.9787 H   0  0  0  0  0  0
  -30.0147  -24.2094   20.1159 H   0  0  0  0  0  0
  -28.0905  -24.9608   21.6561 H   0  0  0  0  0  0
  -27.0304  -24.6599   20.3327 H   0  0  0  0  0  0
  -28.8419  -15.4807   20.6385 H   0  0  0  0  0  0
  -27.3935  -19.3520   20.7627 H   0  0  0  0  0  0
  1 25  1  0  0  0
  1 30  2  0  0  0
  1 83  1  0  0  0
  2  3  1  0  0  0
  2 25  1  0  0  0
  2 86  1  0  0  0
  2 87  1  0  0  0
  3  4  1  0  0  0
  3 88  1  0  0  0
  3 89  1  0  0  0
  4  5  1  0  0  0
  4 90  1  0  0  0
  4 91  1  0  0  0
  5  6  1  0  0  0
  5 26  1  0  0  0
  5 92  1  0  0  0
  6 25  1  0  0  0
  6 93  1  0  0  0
  6 94  1  0  0  0
  7  8  2  0  0  0
  7 26  1  0  0  0
  7 29  1  0  0  0
  8  9  1  0  0  0
  8 22  1  0  0  0
  9 10  1  0  0  0
  9 27  2  0  0  0
 10 11  2  0  0  0
 10 15  1  0  0  0
 11 12  1  0  0  0
 11 95  1  0  0  0
 12 13  2  0  0  0
 12 96  1  0  0  0
 13 14  1  0  0  0
 13 31  1  0  0  0
 14 15  2  0  0  0
 14 97  1  0  0  0
 15 98  1  0  0  0
 16 17  2  0  0  0
 16 21  1  0  0  0
 16 31  1  0  0  0
 17 18  1  0  0  0
 17 99  1  0  0  0
 18 19  2  0  0  0
 18100  1  0  0  0
 19 20  1  0  0  0
 19 24  1  0  0  0
 20 21  2  0  0  0
 20101  1  0  0  0
 21 23  1  0  0  0
 22 28  1  0  0  0
 22 32  2  0  0  0
 26 27  1  0  0  0
 28102  1  0  0  0
 28103  1  0  0  0
 29104  1  0  0  0
 29105  1  0  0  0
 33 34  1  0  0  0
 33 66  1  0  0  0
 33 70  2  0  0  0
 34 36  1  0  0  0
 34 59  1  0  0  0
 34106  1  0  0  0
 35 44  2  0  0  0
 35 45  1  0  0  0
 35 68  1  0  0  0
 36 56  1  0  0  0
 36107  1  0  0  0
 37 39  1  0  0  0
 37 47  1  0  0  0
 37 66  1  0  0  0
 37108  1  0  0  0
 38 43  2  0  0  0
 38 46  1  0  0  0
 38 47  1  0  0  0
 39 64  1  0  0  0
 39 67  2  0  0  0
 40 52  1  0  0  0
 40 53  2  0  0  0
 40 58  1  0  0  0
 41109  1  0  0  0
 41110  1  0  0  0
 41111  1  0  0  0
 41 48  1  0  0  0
 42 43  1  0  0  0
 42 66  1  0  0  0
 42112  1  0  0  0
 42113  1  0  0  0
 43 44  1  0  0  0
 44114  1  0  0  0
 45 46  2  0  0  0
 45115  1  0  0  0
 46116  1  0  0  0
 47117  1  0  0  0
 47118  1  0  0  0
 48 56  1  0  0  0
 48 65  1  0  0  0
 48119  1  0  0  0
 49 50  1  0  0  0
 49 53  1  0  0  0
 49 64  1  0  0  0
 49120  1  0  0  0
 50 51  1  0  0  0
 50121  1  0  0  0
 50122  1  0  0  0
 51 52  1  0  0  0
 51123  1  0  0  0
 51124  1  0  0  0
 52125  1  0  0  0
 52126  1  0  0  0
 53 54  1  0  0  0
 54 55  2  0  0  0
 54127  1  0  0  0
 55 57  1  0  0  0
 55128  1  0  0  0
 56 69  2  0  0  0
 57 58  2  0  0  0
 57129  1  0  0  0
 58130  1  0  0  0
 59 60  1  0  0  0
 59 61  1  0  0  0
 59 62  1  0  0  0
 60131  1  0  0  0
 60132  1  0  0  0
 60133  1  0  0  0
 61134  1  0  0  0
 61135  1  0  0  0
 61136  1  0  0  0
 62137  1  0  0  0
 62138  1  0  0  0
 62139  1  0  0  0
 63 65  1  0  0  0
 63140  1  0  0  0
 63141  1  0  0  0
 63142  1  0  0  0
 64143  1  0  0  0
 65144  1  0  0  0
 68 82  1  0  0  0
 71 72  2  0  0  0
 71 73  1  0  0  0
 71145  1  0  0  0
 72 74  1  0  0  0
 72146  1  0  0  0
 73 76  2  0  0  0
 73147  1  0  0  0
 74 75  2  0  0  0
 74 78  1  0  0  0
 75 76  1  0  0  0
 75 79  1  0  0  0
 76 83  1  0  0  0
 77 80  1  0  0  0
 77 84  1  0  0  0
 77 85  2  0  0  0
 78148  1  0  0  0
 78149  1  0  0  0
 78150  1  0  0  0
 79 84  1  0  0  0
 79151  1  0  0  0
 79152  1  0  0  0
 80 81  1  0  0  0
 80153  1  0  0  0
 80154  1  0  0  0
 81 82  1  0  0  0
 81155  1  0  0  0
 81156  1  0  0  0
 82157  1  0  0  0
 82158  1  0  0  0
 83159  1  0  0  0
 84160  1  0  0  0
M  ISO  4   1 100  68 101  82 101  83 100
M  END
> <chiral flag>
0

> <version>
0

> <s_m_source_file>
/data/baiqing/PycharmProjects/Reinvent-master-3.2/result/LINK_invent/BTK/process_docking_weight1_custom_product_contain_oxygen_bond_distance_aromatic_linkinvent_7_9_3/rearranged_h_0048.sdf

> <i_m_source_file_index>
11

> <r_mmod_Potential_Energy-OPLS-2005>
96.4026260375977

> <r_mmod_Stretch_Energy-OPLS-2005>
97.3175659179688

> <r_mmod_Bend_Energy-OPLS-2005>
182.395935058594

> <r_mmod_Torsional_Energy-OPLS-2005>
283.351043701172

> <r_mmod_Improper_Torsional_Energy-OPLS-2005>
11.7829313278198

> <r_mmod_Van_der_Waal_Energy-OPLS-2005>
140.408355712891

> <r_mmod_Electrostatic_Energy-OPLS-2005>
-447.273590087891

> <r_mmod_Solvation_Energy-OPLS-2005>
-233.291290283203

> <b_mmod_Minimization_Converged-OPLS-2005>
0

> <r_mmod_RMS_Derivative-OPLS-2005>
6.97539520263672

$$$$
11
                    3D
 Structure written by MMmdl.
157165  0  0  1  0            999 V2000
  -30.7061  -14.4977   20.6189 C   0  0  0  0  0  0
  -30.4238  -12.3580   19.4043 C   0  0  0  0  0  0
  -29.4803  -12.5327   18.1994 C   0  0  0  0  0  0
  -28.0157  -12.3453   18.6348 C   0  0  0  0  0  0
  -27.6573  -13.2056   19.8743 C   0  0  2  0  0  0
  -28.7021  -12.9979   20.9926 C   0  0  0  0  0  0
  -25.2547  -13.8169   20.5729 C   0  0  0  0  0  0
  -24.1800  -13.0441   20.9209 C   0  0  0  0  0  0
  -24.6356  -11.6909   20.8745 C   0  0  0  0  0  0
  -23.9005  -10.4289   21.0380 C   0  0  0  0  0  0
  -24.3557   -9.4221   21.9170 C   0  0  0  0  0  0
  -23.6250   -8.2250   22.0759 C   0  0  0  0  0  0
  -22.4239   -8.0254   21.3543 C   0  0  0  0  0  0
  -21.9854   -9.0219   20.4644 C   0  0  0  0  0  0
  -22.7171  -10.2102   20.3043 C   0  0  0  0  0  0
  -21.6834   -6.0707   22.5288 C   0  0  0  0  0  0
  -21.4017   -6.5622   23.8223 C   0  0  0  0  0  0
  -21.3664   -5.6775   24.9174 C   0  0  0  0  0  0
  -21.6058   -4.3038   24.7230 C   0  0  0  0  0  0
  -21.8822   -3.8130   23.4354 C   0  0  0  0  0  0
  -21.9198   -4.6943   22.3409 C   0  0  0  0  0  0
  -22.7804  -13.5236   21.1858 C   0  0  0  0  0  0
  -22.1667   -4.2136   21.0979 F   0  0  0  0  0  0
  -21.5623   -3.4519   25.7732 F   0  0  0  0  0  0
  -30.0247  -13.3288   20.4384 N   0  0  0  0  0  0
  -26.2979  -12.9334   20.3398 N   0  0  0  0  0  0
  -25.9270  -11.6486   20.5763 N   0  0  0  0  0  0
  -22.0423  -12.8241   22.0391 N   0  0  0  0  0  0
  -25.4267  -15.1874   20.4192 N   0  0  0  0  0  0
  -31.8052  -14.7053   20.0974 O   0  0  0  0  0  0
  -21.6636   -6.8828   21.4228 O   0  0  0  0  0  0
  -22.3508  -14.5571   20.6719 O   0  0  0  0  0  0
  -24.6164  -31.8661   23.2096 C   0  0  0  0  0  0
  -25.9041  -32.4808   23.8415 C   0  0  1  0  0  0
  -27.2494  -27.4161   20.1167 C   0  0  0  0  0  0
  -25.5915  -33.8609   24.2330 N   0  0  0  0  0  0
  -23.4119  -30.4926   21.5450 C   0  0  2  0  0  0
  -24.8687  -28.9546   20.1129 C   0  0  0  0  0  0
  -22.7398  -29.4751   22.4965 C   0  0  0  0  0  0
  -18.0280  -28.1510   22.8370 C   0  0  0  0  0  0
  -24.1500  -36.7304   23.2641 C   0  0  0  0  0  0
  -25.9490  -30.8212   21.3817 C   0  0  0  0  0  0
  -26.0251  -29.4570   20.7237 C   0  0  0  0  0  0
  -27.2195  -28.6941   20.7277 C   0  0  0  0  0  0
  -26.0817  -26.9366   19.4915 C   0  0  0  0  0  0
  -24.8926  -27.6925   19.4902 C   0  0  0  0  0  0
  -23.6273  -29.8203   20.1624 C   0  0  0  0  0  0
  -25.4122  -36.3118   24.0347 C   0  0  1  0  0  0
  -20.5876  -28.3780   23.1339 C   0  0  2  0  0  0
  -20.6781  -26.9465   22.5475 C   0  0  0  0  0  0
  -19.5812  -26.6450   21.5211 C   0  0  0  0  0  0
  -18.1906  -26.8087   22.1450 C   0  0  0  0  0  0
  -19.1503  -28.8931   23.2926 C   0  0  0  0  0  0
  -18.9365  -30.1508   23.8971 C   0  0  0  0  0  0
  -17.6341  -30.6585   24.0645 C   0  0  0  0  0  0
  -25.9046  -34.9481   23.5142 C   0  0  0  0  0  0
  -16.5248  -29.9124   23.6307 C   0  0  0  0  0  0
  -16.7260  -28.6614   23.0191 C   0  0  0  0  0  0
  -26.4458  -31.6611   25.0777 C   0  0  0  0  0  0
  -25.3692  -31.3737   26.1510 C   0  0  0  0  0  0
  -27.0345  -30.3037   24.6256 C   0  0  0  0  0  0
  -27.6032  -32.4355   25.7525 C   0  0  0  0  0  0
  -27.5590  -37.1815   24.8470 C   0  0  0  0  0  0
  -21.4105  -29.3190   22.3738 N   0  0  0  0  0  0
  -26.4307  -37.3781   23.9408 N   0  0  0  0  0  0
  -24.6752  -31.0768   22.1005 N   0  0  0  0  0  0
  -23.4108  -28.8240   23.3013 O   0  0  0  0  0  0
  -28.3684  -26.6063   20.1201 O   0  0  0  0  0  0
  -26.5586  -34.8924   22.4692 O   0  0  0  0  0  0
  -23.5352  -32.1410   23.7464 O   0  0  0  0  0  0
  -28.6974  -19.0097   20.8845 C   0  0  0  0  0  0
  -29.7038  -20.6068   22.4317 C   0  0  0  0  0  0
  -30.2969  -18.2247   22.5290 C   0  0  0  0  0  0
  -28.7969  -20.3414   21.3882 C   0  0  0  0  0  0
  -29.4379  -17.9317   21.4460 C   0  0  0  0  0  0
  -30.4353  -19.5469   23.0080 C   0  0  0  0  0  0
  -29.0217  -24.7163   21.5363 C   0  0  0  0  0  0
  -28.6796  -26.0133   21.3261 C   0  0  0  0  0  0
  -27.8111  -21.3576   20.9527 C   0  0  0  0  0  0
  -29.2293  -16.4877   20.9203 C   0  0  0  0  0  0
  -29.1720  -23.5604   20.5437 C   0  0  0  0  0  0
  -26.5511  -20.9361   20.8775 N   0  0  0  0  0  0
  -30.1521  -15.4369   21.4126 N   0  0  0  0  0  0
  -27.9965  -22.6649   20.6524 N   0  3  0  0  0  0
  -31.2512  -19.7953   24.0616 F   0  0  0  0  0  0
  -31.4581  -12.4875   19.0864 H   0  0  0  0  0  0
  -30.3619  -11.3413   19.7960 H   0  0  0  0  0  0
  -29.7265  -11.8209   17.4130 H   0  0  0  0  0  0
  -29.6084  -13.5258   17.7636 H   0  0  0  0  0  0
  -27.8773  -11.2872   18.8659 H   0  0  0  0  0  0
  -27.3372  -12.5611   17.8086 H   0  0  0  0  0  0
  -27.6944  -14.2512   19.5603 H   0  0  0  0  0  0
  -28.6977  -11.9588   21.3272 H   0  0  0  0  0  0
  -28.4546  -13.5874   21.8727 H   0  0  0  0  0  0
  -25.2681   -9.5720   22.4740 H   0  0  0  0  0  0
  -23.9982   -7.4640   22.7481 H   0  0  0  0  0  0
  -21.0801   -8.8706   19.8922 H   0  0  0  0  0  0
  -22.3629  -10.9617   19.6150 H   0  0  0  0  0  0
  -21.2019   -7.6137   23.9707 H   0  0  0  0  0  0
  -21.1476   -6.0513   25.9076 H   0  0  0  0  0  0
  -22.0597   -2.7593   23.2859 H   0  0  0  0  0  0
  -22.4008  -11.9904   22.4799 H   0  0  0  0  0  0
  -21.1024  -13.1256   22.2546 H   0  0  0  0  0  0
  -24.6583  -15.8401   20.5334 H   0  0  0  0  0  0
  -26.2787  -15.6231   20.0940 H   0  0  0  0  0  0
  -26.7101  -32.5495   23.1152 H   0  0  0  0  0  0
  -25.0106  -33.9782   25.0501 H   0  0  0  0  0  0
  -22.7035  -31.3113   21.3986 H   0  0  0  0  0  0
  -23.3760  -35.9634   23.3322 H   0  0  0  0  0  0
  -24.3600  -36.8894   22.2055 H   0  0  0  0  0  0
  -23.7238  -37.6507   23.6638 H   0  0  0  0  0  0
  -26.0987  -31.5964   20.6306 H   0  0  0  0  0  0
  -26.8209  -30.8470   22.0259 H   0  0  0  0  0  0
  -28.1090  -29.0742   21.2092 H   0  0  0  0  0  0
  -26.0959  -25.9647   19.0172 H   0  0  0  0  0  0
  -24.0108  -27.3023   19.0020 H   0  0  0  0  0  0
  -23.7253  -30.5956   19.3997 H   0  0  0  0  0  0
  -22.7550  -29.2359   19.8702 H   0  0  0  0  0  0
  -25.1298  -36.1995   25.0831 H   0  0  0  0  0  0
  -20.9969  -28.3359   24.1430 H   0  0  0  0  0  0
  -20.5701  -26.2339   23.3660 H   0  0  0  0  0  0
  -21.6689  -26.7536   22.1305 H   0  0  0  0  0  0
  -19.6944  -25.6318   21.1298 H   0  0  0  0  0  0
  -19.6940  -27.3229   20.6734 H   0  0  0  0  0  0
  -17.4307  -26.7003   21.3691 H   0  0  0  0  0  0
  -18.0085  -26.0180   22.8738 H   0  0  0  0  0  0
  -19.7793  -30.7321   24.2465 H   0  0  0  0  0  0
  -17.4854  -31.6192   24.5370 H   0  0  0  0  0  0
  -15.5238  -30.3003   23.7656 H   0  0  0  0  0  0
  -15.8714  -28.0994   22.6697 H   0  0  0  0  0  0
  -24.5827  -30.7119   25.7848 H   0  0  0  0  0  0
  -24.8911  -32.2907   26.4989 H   0  0  0  0  0  0
  -25.8024  -30.8871   27.0251 H   0  0  0  0  0  0
  -26.2957  -29.6737   24.1279 H   0  0  0  0  0  0
  -27.4033  -29.7342   25.4803 H   0  0  0  0  0  0
  -27.8827  -30.4344   23.9515 H   0  0  0  0  0  0
  -27.2625  -33.3622   26.2133 H   0  0  0  0  0  0
  -28.3799  -32.6944   25.0321 H   0  0  0  0  0  0
  -28.0727  -31.8449   26.5396 H   0  0  0  0  0  0
  -28.2628  -38.0087   24.7522 H   0  0  0  0  0  0
  -28.1063  -36.2638   24.6298 H   0  0  0  0  0  0
  -27.2324  -37.1469   25.8868 H   0  0  0  0  0  0
  -20.9227  -29.8917   21.7006 H   0  0  0  0  0  0
  -26.0221  -38.2880   24.1293 H   0  0  0  0  0  0
  -27.9998  -18.8008   20.0855 H   0  0  0  0  0  0
  -29.7903  -21.6007   22.8472 H   0  0  0  0  0  0
  -30.8485  -17.4411   23.0257 H   0  0  0  0  0  0
  -29.2258  -24.4328   22.5581 H   0  0  0  0  0  0
  -28.6219  -26.7142   22.1485 H   0  0  0  0  0  0
  -29.2505  -16.5270   19.8273 H   0  0  0  0  0  0
  -28.2132  -16.1833   21.1829 H   0  0  0  0  0  0
  -30.1074  -23.0245   20.7203 H   0  0  0  0  0  0
  -29.2189  -23.9676   19.5318 H   0  0  0  0  0  0
  -25.8019  -21.4842   20.4815 H   0  0  0  0  0  0
  -26.3337  -20.0042   21.1987 H   0  0  0  0  0  0
  -30.8628  -15.8557   21.9925 H   0  0  0  0  0  0
  -27.1560  -23.1744   20.4262 H   0  0  0  0  0  0
  1 25  1  0  0  0
  1 30  2  0  0  0
  1 83  1  0  0  0
  2  3  1  0  0  0
  2 25  1  0  0  0
  2 86  1  0  0  0
  2 87  1  0  0  0
  3  4  1  0  0  0
  3 88  1  0  0  0
  3 89  1  0  0  0
  4  5  1  0  0  0
  4 90  1  0  0  0
  4 91  1  0  0  0
  5  6  1  0  0  0
  5 26  1  0  0  0
  5 92  1  0  0  0
  6 25  1  0  0  0
  6 93  1  0  0  0
  6 94  1  0  0  0
  7  8  2  0  0  0
  7 26  1  0  0  0
  7 29  1  0  0  0
  8  9  1  0  0  0
  8 22  1  0  0  0
  9 10  1  0  0  0
  9 27  2  0  0  0
 10 11  2  0  0  0
 10 15  1  0  0  0
 11 12  1  0  0  0
 11 95  1  0  0  0
 12 13  2  0  0  0
 12 96  1  0  0  0
 13 14  1  0  0  0
 13 31  1  0  0  0
 14 15  2  0  0  0
 14 97  1  0  0  0
 15 98  1  0  0  0
 16 17  2  0  0  0
 16 21  1  0  0  0
 16 31  1  0  0  0
 17 18  1  0  0  0
 17 99  1  0  0  0
 18 19  2  0  0  0
 18100  1  0  0  0
 19 20  1  0  0  0
 19 24  1  0  0  0
 20 21  2  0  0  0
 20101  1  0  0  0
 21 23  1  0  0  0
 22 28  1  0  0  0
 22 32  2  0  0  0
 26 27  1  0  0  0
 28102  1  0  0  0
 28103  1  0  0  0
 29104  1  0  0  0
 29105  1  0  0  0
 33 34  1  0  0  0
 33 66  1  0  0  0
 33 70  2  0  0  0
 34 36  1  0  0  0
 34 59  1  0  0  0
 34106  1  0  0  0
 35 44  2  0  0  0
 35 45  1  0  0  0
 35 68  1  0  0  0
 36 56  1  0  0  0
 36107  1  0  0  0
 37 39  1  0  0  0
 37 47  1  0  0  0
 37 66  1  0  0  0
 37108  1  0  0  0
 38 43  2  0  0  0
 38 46  1  0  0  0
 38 47  1  0  0  0
 39 64  1  0  0  0
 39 67  2  0  0  0
 40 52  1  0  0  0
 40 53  2  0  0  0
 40 58  1  0  0  0
 41109  1  0  0  0
 41110  1  0  0  0
 41111  1  0  0  0
 41 48  1  0  0  0
 42 43  1  0  0  0
 42 66  1  0  0  0
 42112  1  0  0  0
 42113  1  0  0  0
 43 44  1  0  0  0
 44114  1  0  0  0
 45 46  2  0  0  0
 45115  1  0  0  0
 46116  1  0  0  0
 47117  1  0  0  0
 47118  1  0  0  0
 48 56  1  0  0  0
 48 65  1  0  0  0
 48119  1  0  0  0
 49 50  1  0  0  0
 49 53  1  0  0  0
 49 64  1  0  0  0
 49120  1  0  0  0
 50 51  1  0  0  0
 50121  1  0  0  0
 50122  1  0  0  0
 51 52  1  0  0  0
 51123  1  0  0  0
 51124  1  0  0  0
 52125  1  0  0  0
 52126  1  0  0  0
 53 54  1  0  0  0
 54 55  2  0  0  0
 54127  1  0  0  0
 55 57  1  0  0  0
 55128  1  0  0  0
 56 69  2  0  0  0
 57 58  2  0  0  0
 57129  1  0  0  0
 58130  1  0  0  0
 59 60  1  0  0  0
 59 61  1  0  0  0
 59 62  1  0  0  0
 60131  1  0  0  0
 60132  1  0  0  0
 60133  1  0  0  0
 61134  1  0  0  0
 61135  1  0  0  0
 61136  1  0  0  0
 62137  1  0  0  0
 62138  1  0  0  0
 62139  1  0  0  0
 63 65  1  0  0  0
 63140  1  0  0  0
 63141  1  0  0  0
 63142  1  0  0  0
 64143  1  0  0  0
 65144  1  0  0  0
 68 78  1  0  0  0
 71 74  2  0  0  0
 71 75  1  0  0  0
 71145  1  0  0  0
 72 74  1  0  0  0
 72 76  2  0  0  0
 72146  1  0  0  0
 73 75  2  0  0  0
 73 76  1  0  0  0
 73147  1  0  0  0
 74 79  1  0  0  0
 75 80  1  0  0  0
 76 85  1  0  0  0
 77 78  2  0  0  0
 77 81  1  0  0  0
 77148  1  0  0  0
 78149  1  0  0  0
 79 82  1  0  0  0
 79 84  2  0  0  0
 80 83  1  0  0  0
 80150  1  0  0  0
 80151  1  0  0  0
 81 84  1  0  0  0
 81152  1  0  0  0
 81153  1  0  0  0
 82154  1  0  0  0
 82155  1  0  0  0
 83156  1  0  0  0
 84157  1  0  0  0
M  CHG  1  84   1
M  ISO  4   1 100  68 101  78 101  83 100
M  END
> <chiral flag>
0

> <version>
0

> <s_m_source_file>
/data/baiqing/PycharmProjects/Reinvent-master-3.2/result/LINK_invent/BTK/process_docking_weight1_custom_product_contain_oxygen_bond_distance_aromatic_linkinvent_7_9_3/rearranged_h_0048.sdf

> <i_m_source_file_index>
12

> <r_mmod_Potential_Energy-OPLS-2005>
-245.078018188477

> <r_mmod_Stretch_Energy-OPLS-2005>
42.9944190979004

> <r_mmod_Bend_Energy-OPLS-2005>
131.176849365234

> <r_mmod_Torsional_Energy-OPLS-2005>
274.405151367188

> <r_mmod_Improper_Torsional_Energy-OPLS-2005>
7.65797710418701

> <r_mmod_Van_der_Waal_Energy-OPLS-2005>
136.304595947266

> <r_mmod_Electrostatic_Energy-OPLS-2005>
-433.758666992188

> <r_mmod_Solvation_Energy-OPLS-2005>
-421.471588134766

> <b_mmod_Minimization_Converged-OPLS-2005>
0

> <r_mmod_RMS_Derivative-OPLS-2005>
6.09293937683105

$$$$
12
                    3D
 Structure written by MMmdl.
161170  0  0  1  0            999 V2000
  -30.6037  -14.7522   20.4475 C   0  0  0  0  0  0
  -30.4289  -12.4568   19.4713 C   0  0  0  0  0  0
  -29.5049  -12.5016   18.2347 C   0  0  0  0  0  0
  -28.0341  -12.3194   18.6552 C   0  0  0  0  0  0
  -27.6378  -13.2284   19.8493 C   0  0  2  0  0  0
  -28.6828  -13.1724   20.9848 C   0  0  0  0  0  0
  -25.2485  -13.8173   20.5676 C   0  0  0  0  0  0
  -24.1788  -13.0427   20.9224 C   0  0  0  0  0  0
  -24.6381  -11.6908   20.8780 C   0  0  0  0  0  0
  -23.9068  -10.4282   21.0427 C   0  0  0  0  0  0
  -24.3620   -9.4197   21.9202 C   0  0  0  0  0  0
  -23.6292   -8.2235   22.0768 C   0  0  0  0  0  0
  -22.4277   -8.0279   21.3554 C   0  0  0  0  0  0
  -21.9910   -9.0253   20.4652 C   0  0  0  0  0  0
  -22.7245  -10.2129   20.3066 C   0  0  0  0  0  0
  -21.6847   -6.0732   22.5278 C   0  0  0  0  0  0
  -21.4010   -6.5640   23.8211 C   0  0  0  0  0  0
  -21.3658   -5.6798   24.9177 C   0  0  0  0  0  0
  -21.6041   -4.3056   24.7225 C   0  0  0  0  0  0
  -21.8825   -3.8144   23.4346 C   0  0  0  0  0  0
  -21.9191   -4.6960   22.3397 C   0  0  0  0  0  0
  -22.7815  -13.5220   21.1874 C   0  0  0  0  0  0
  -22.1662   -4.2146   21.0975 F   0  0  0  0  0  0
  -21.5625   -3.4539   25.7735 F   0  0  0  0  0  0
  -29.9817  -13.5237   20.3977 N   0  0  0  0  0  0
  -26.2913  -12.9379   20.3281 N   0  0  0  0  0  0
  -25.9311  -11.6525   20.5782 N   0  0  0  0  0  0
  -22.0455  -12.8211   22.0423 N   0  0  0  0  0  0
  -25.4139  -15.1884   20.4010 N   0  0  0  0  0  0
  -31.7976  -14.8302   20.1412 O   0  0  0  0  0  0
  -21.6642   -6.8876   21.4244 O   0  0  0  0  0  0
  -22.3508  -14.5530   20.6721 O   0  0  0  0  0  0
  -24.6310  -31.8535   23.1940 C   0  0  0  0  0  0
  -25.9140  -32.4733   23.8290 C   0  0  1  0  0  0
  -27.2211  -27.2565   20.1238 C   0  0  0  0  0  0
  -25.5925  -33.8545   24.2221 N   0  0  0  0  0  0
  -23.4279  -30.4734   21.5376 C   0  0  2  0  0  0
  -24.8726  -28.9171   20.1056 C   0  0  0  0  0  0
  -22.7499  -29.4590   22.4913 C   0  0  0  0  0  0
  -18.0290  -28.1392   22.8500 C   0  0  0  0  0  0
  -24.1495  -36.7266   23.2642 C   0  0  0  0  0  0
  -25.9737  -30.7631   21.3735 C   0  0  0  0  0  0
  -26.0417  -29.3858   20.7142 C   0  0  0  0  0  0
  -27.2148  -28.5666   20.7137 C   0  0  0  0  0  0
  -26.0241  -26.8462   19.4961 C   0  0  0  0  0  0
  -24.8680  -27.6549   19.4883 C   0  0  0  0  0  0
  -23.6434  -29.8038   20.1532 C   0  0  0  0  0  0
  -25.4128  -36.3058   24.0322 C   0  0  1  0  0  0
  -20.5892  -28.3693   23.1273 C   0  0  2  0  0  0
  -20.6792  -26.9411   22.5410 C   0  0  0  0  0  0
  -19.5766  -26.6387   21.5215 C   0  0  0  0  0  0
  -18.1942  -26.7939   22.1621 C   0  0  0  0  0  0
  -19.1547  -28.8864   23.2879 C   0  0  0  0  0  0
  -18.9468  -30.1474   23.8878 C   0  0  0  0  0  0
  -17.6471  -30.6589   24.0577 C   0  0  0  0  0  0
  -25.9061  -34.9431   23.5079 C   0  0  0  0  0  0
  -16.5357  -29.9095   23.6336 C   0  0  0  0  0  0
  -16.7275  -28.6516   23.0353 C   0  0  0  0  0  0
  -26.4503  -31.6578   25.0698 C   0  0  0  0  0  0
  -25.3711  -31.3735   26.1404 C   0  0  0  0  0  0
  -27.0368  -30.3008   24.6199 C   0  0  0  0  0  0
  -27.6049  -32.4334   25.7466 C   0  0  0  0  0  0
  -27.5582  -37.1797   24.8476 C   0  0  0  0  0  0
  -21.4213  -29.3044   22.3676 N   0  0  0  0  0  0
  -26.4298  -37.3767   23.9407 N   0  0  0  0  0  0
  -24.6966  -31.0506   22.0900 N   0  0  0  0  0  0
  -23.4203  -28.8154   23.3024 O   0  0  0  0  0  0
  -28.3409  -26.3991   20.2272 O   0  0  0  0  0  0
  -26.5662  -34.8912   22.4660 O   0  0  0  0  0  0
  -23.5460  -32.1346   23.7242 O   0  0  0  0  0  0
  -31.7982  -19.1432   20.9037 C   0  0  0  0  0  0
  -30.8387  -20.1592   20.7280 C   0  0  0  0  0  0
  -31.4530  -17.7773   20.8491 C   0  0  0  0  0  0
  -29.4898  -19.8531   20.4626 C   0  0  0  0  0  0
  -29.1519  -18.4269   20.3972 C   0  0  0  0  0  0
  -30.1276  -17.3513   20.5989 C   0  0  0  0  0  0
  -28.3005  -23.7052   20.3776 C   0  0  0  0  0  0
  -30.6080  -23.7518   18.6963 C   0  0  0  0  0  0
  -29.9196  -25.1179   18.9125 C   0  0  0  0  0  0
  -29.6169  -22.5723   18.6624 C   0  0  0  0  0  0
  -28.5038  -25.0688   19.5402 C   0  0  2  0  0  0
  -27.7115  -18.0551   20.0862 C   0  0  0  0  0  0
  -28.4502  -21.0695   20.3316 C   0  0  0  0  0  0
  -28.8258  -22.5005   19.8980 N   0  0  0  0  0  0
  -29.8117  -15.8887   20.6092 N   0  0  0  0  0  0
  -27.6229  -23.7468   21.4087 O   0  0  0  0  0  0
  -31.4691  -12.5798   19.1654 H   0  0  0  0  0  0
  -30.3747  -11.4829   19.9598 H   0  0  0  0  0  0
  -29.7893  -11.7262   17.5226 H   0  0  0  0  0  0
  -29.6241  -13.4543   17.7162 H   0  0  0  0  0  0
  -27.9016  -11.2719   18.9318 H   0  0  0  0  0  0
  -27.3704  -12.4934   17.8070 H   0  0  0  0  0  0
  -27.6291  -14.2463   19.4605 H   0  0  0  0  0  0
  -28.7206  -12.1791   21.4323 H   0  0  0  0  0  0
  -28.4158  -13.8594   21.7895 H   0  0  0  0  0  0
  -25.2758   -9.5667   22.4783 H   0  0  0  0  0  0
  -23.9991   -7.4620   22.7483 H   0  0  0  0  0  0
  -21.0842   -8.8775   19.8945 H   0  0  0  0  0  0
  -22.3715  -10.9673   19.6170 H   0  0  0  0  0  0
  -21.2010   -7.6152   23.9714 H   0  0  0  0  0  0
  -21.1473   -6.0525   25.9078 H   0  0  0  0  0  0
  -22.0604   -2.7605   23.2843 H   0  0  0  0  0  0
  -22.4056  -11.9851   22.4779 H   0  0  0  0  0  0
  -21.1088  -13.1252   22.2657 H   0  0  0  0  0  0
  -24.6355  -15.8324   20.4853 H   0  0  0  0  0  0
  -26.2348  -15.6103   19.9908 H   0  0  0  0  0  0
  -26.7210  -32.5366   23.1027 H   0  0  0  0  0  0
  -25.0090  -33.9697   25.0373 H   0  0  0  0  0  0
  -22.7264  -31.2972   21.3900 H   0  0  0  0  0  0
  -23.3765  -35.9583   23.3298 H   0  0  0  0  0  0
  -24.3588  -36.8897   22.2056 H   0  0  0  0  0  0
  -23.7235  -37.6462   23.6676 H   0  0  0  0  0  0
  -26.1217  -31.5254   20.6066 H   0  0  0  0  0  0
  -26.8485  -30.8062   22.0115 H   0  0  0  0  0  0
  -28.1091  -28.9200   21.2062 H   0  0  0  0  0  0
  -25.9371  -25.8705   19.0455 H   0  0  0  0  0  0
  -23.9653  -27.2885   19.0182 H   0  0  0  0  0  0
  -23.7691  -30.5777   19.3938 H   0  0  0  0  0  0
  -22.7600  -29.2380   19.8501 H   0  0  0  0  0  0
  -25.1315  -36.1890   25.0817 H   0  0  0  0  0  0
  -20.9989  -28.3247   24.1385 H   0  0  0  0  0  0
  -20.5715  -26.2293   23.3611 H   0  0  0  0  0  0
  -21.6658  -26.7462   22.1183 H   0  0  0  0  0  0
  -19.6929  -25.6296   21.1245 H   0  0  0  0  0  0
  -19.6690  -27.3216   20.6755 H   0  0  0  0  0  0
  -17.4224  -26.6697   21.4016 H   0  0  0  0  0  0
  -18.0321  -26.0082   22.9006 H   0  0  0  0  0  0
  -19.7948  -30.7321   24.2207 H   0  0  0  0  0  0
  -17.5016  -31.6256   24.5209 H   0  0  0  0  0  0
  -15.5358  -30.2999   23.7679 H   0  0  0  0  0  0
  -15.8671  -28.0843   22.7052 H   0  0  0  0  0  0
  -24.5885  -30.7095   25.7729 H   0  0  0  0  0  0
  -24.8889  -32.2907   26.4806 H   0  0  0  0  0  0
  -25.7990  -30.8921   27.0199 H   0  0  0  0  0  0
  -26.2959  -29.6747   24.1231 H   0  0  0  0  0  0
  -27.4092  -29.7289   25.4703 H   0  0  0  0  0  0
  -27.8803  -30.4322   23.9416 H   0  0  0  0  0  0
  -27.2664  -33.3673   26.1978 H   0  0  0  0  0  0
  -28.3877  -32.6852   25.0291 H   0  0  0  0  0  0
  -28.0704  -31.8506   26.5429 H   0  0  0  0  0  0
  -28.2612  -38.0093   24.7532 H   0  0  0  0  0  0
  -28.1073  -36.2626   24.6286 H   0  0  0  0  0  0
  -27.2306  -37.1419   25.8886 H   0  0  0  0  0  0
  -20.9406  -29.8725   21.6843 H   0  0  0  0  0  0
  -26.0162  -38.2835   24.1403 H   0  0  0  0  0  0
  -32.8237  -19.4185   21.1025 H   0  0  0  0  0  0
  -31.1529  -21.1904   20.8117 H   0  0  0  0  0  0
  -32.2402  -17.0602   21.0269 H   0  0  0  0  0  0
  -31.3234  -23.5840   19.5039 H   0  0  0  0  0  0
  -31.1996  -23.7740   17.7798 H   0  0  0  0  0  0
  -29.8435  -25.6354   17.9560 H   0  0  0  0  0  0
  -30.5759  -25.7408   19.5217 H   0  0  0  0  0  0
  -30.1626  -21.6436   18.4981 H   0  0  0  0  0  0
  -28.9424  -22.6766   17.8107 H   0  0  0  0  0  0
  -27.8103  -24.9948   18.7042 H   0  0  0  0  0  0
  -27.0378  -18.4714   20.8347 H   0  0  0  0  0  0
  -27.5527  -16.9801   20.0576 H   0  0  0  0  0  0
  -27.4258  -18.4448   19.1082 H   0  0  0  0  0  0
  -27.9309  -21.1312   21.2889 H   0  0  0  0  0  0
  -27.6820  -20.7577   19.6243 H   0  0  0  0  0  0
  -28.8356  -15.6712   20.7319 H   0  0  0  0  0  0
  1 25  1  0  0  0
  1 30  2  0  0  0
  1 85  1  0  0  0
  2  3  1  0  0  0
  2 25  1  0  0  0
  2 87  1  0  0  0
  2 88  1  0  0  0
  3  4  1  0  0  0
  3 89  1  0  0  0
  3 90  1  0  0  0
  4  5  1  0  0  0
  4 91  1  0  0  0
  4 92  1  0  0  0
  5  6  1  0  0  0
  5 26  1  0  0  0
  5 93  1  0  0  0
  6 25  1  0  0  0
  6 94  1  0  0  0
  6 95  1  0  0  0
  7  8  2  0  0  0
  7 26  1  0  0  0
  7 29  1  0  0  0
  8  9  1  0  0  0
  8 22  1  0  0  0
  9 10  1  0  0  0
  9 27  2  0  0  0
 10 11  2  0  0  0
 10 15  1  0  0  0
 11 12  1  0  0  0
 11 96  1  0  0  0
 12 13  2  0  0  0
 12 97  1  0  0  0
 13 14  1  0  0  0
 13 31  1  0  0  0
 14 15  2  0  0  0
 14 98  1  0  0  0
 15 99  1  0  0  0
 16 17  2  0  0  0
 16 21  1  0  0  0
 16 31  1  0  0  0
 17 18  1  0  0  0
 17100  1  0  0  0
 18 19  2  0  0  0
 18101  1  0  0  0
 19 20  1  0  0  0
 19 24  1  0  0  0
 20 21  2  0  0  0
 20102  1  0  0  0
 21 23  1  0  0  0
 22 28  1  0  0  0
 22 32  2  0  0  0
 26 27  1  0  0  0
 28103  1  0  0  0
 28104  1  0  0  0
 29105  1  0  0  0
 29106  1  0  0  0
 33 34  1  0  0  0
 33 66  1  0  0  0
 33 70  2  0  0  0
 34 36  1  0  0  0
 34 59  1  0  0  0
 34107  1  0  0  0
 35 44  2  0  0  0
 35 45  1  0  0  0
 35 68  1  0  0  0
 36 56  1  0  0  0
 36108  1  0  0  0
 37 39  1  0  0  0
 37 47  1  0  0  0
 37 66  1  0  0  0
 37109  1  0  0  0
 38 43  2  0  0  0
 38 46  1  0  0  0
 38 47  1  0  0  0
 39 64  1  0  0  0
 39 67  2  0  0  0
 40 52  1  0  0  0
 40 53  2  0  0  0
 40 58  1  0  0  0
 41110  1  0  0  0
 41111  1  0  0  0
 41112  1  0  0  0
 41 48  1  0  0  0
 42 43  1  0  0  0
 42 66  1  0  0  0
 42113  1  0  0  0
 42114  1  0  0  0
 43 44  1  0  0  0
 44115  1  0  0  0
 45 46  2  0  0  0
 45116  1  0  0  0
 46117  1  0  0  0
 47118  1  0  0  0
 47119  1  0  0  0
 48 56  1  0  0  0
 48 65  1  0  0  0
 48120  1  0  0  0
 49 50  1  0  0  0
 49 53  1  0  0  0
 49 64  1  0  0  0
 49121  1  0  0  0
 50 51  1  0  0  0
 50122  1  0  0  0
 50123  1  0  0  0
 51 52  1  0  0  0
 51124  1  0  0  0
 51125  1  0  0  0
 52126  1  0  0  0
 52127  1  0  0  0
 53 54  1  0  0  0
 54 55  2  0  0  0
 54128  1  0  0  0
 55 57  1  0  0  0
 55129  1  0  0  0
 56 69  2  0  0  0
 57 58  2  0  0  0
 57130  1  0  0  0
 58131  1  0  0  0
 59 60  1  0  0  0
 59 61  1  0  0  0
 59 62  1  0  0  0
 60132  1  0  0  0
 60133  1  0  0  0
 60134  1  0  0  0
 61135  1  0  0  0
 61136  1  0  0  0
 61137  1  0  0  0
 62138  1  0  0  0
 62139  1  0  0  0
 62140  1  0  0  0
 63 65  1  0  0  0
 63141  1  0  0  0
 63142  1  0  0  0
 63143  1  0  0  0
 64144  1  0  0  0
 65145  1  0  0  0
 68 81  1  0  0  0
 71 72  2  0  0  0
 71 73  1  0  0  0
 71146  1  0  0  0
 72 74  1  0  0  0
 72147  1  0  0  0
 73 76  2  0  0  0
 73148  1  0  0  0
 74 75  2  0  0  0
 74 83  1  0  0  0
 75 76  1  0  0  0
 75 82  1  0  0  0
 76 85  1  0  0  0
 77 81  1  0  0  0
 77 84  1  0  0  0
 77 86  2  0  0  0
 78 79  1  0  0  0
 78 80  1  0  0  0
 78149  1  0  0  0
 78150  1  0  0  0
 79 81  1  0  0  0
 79151  1  0  0  0
 79152  1  0  0  0
 80 84  1  0  0  0
 80153  1  0  0  0
 80154  1  0  0  0
 81155  1  0  0  0
 82156  1  0  0  0
 82157  1  0  0  0
 82158  1  0  0  0
 83 84  1  0  0  0
 83159  1  0  0  0
 83160  1  0  0  0
 85161  1  0  0  0
M  ISO  4   1 100  68 101  81 101  85 100
M  END
> <chiral flag>
0

> <version>
0

> <s_m_source_file>
/data/baiqing/PycharmProjects/Reinvent-master-3.2/result/LINK_invent/BTK/process_docking_weight1_custom_product_contain_oxygen_bond_distance_aromatic_linkinvent_7_9_3/rearranged_h_0048.sdf

> <i_m_source_file_index>
13

> <r_mmod_Potential_Energy-OPLS-2005>
220.310195922852

> <r_mmod_Stretch_Energy-OPLS-2005>
139.211883544922

> <r_mmod_Bend_Energy-OPLS-2005>
176.576812744141

> <r_mmod_Torsional_Energy-OPLS-2005>
242.835494995117

> <r_mmod_Improper_Torsional_Energy-OPLS-2005>
6.75346612930298

> <r_mmod_Van_der_Waal_Energy-OPLS-2005>
147.470001220703

> <r_mmod_Electrostatic_Energy-OPLS-2005>
-345.661926269531

> <r_mmod_Solvation_Energy-OPLS-2005>
-234.506744384766

> <b_mmod_Minimization_Converged-OPLS-2005>
0

> <r_mmod_RMS_Derivative-OPLS-2005>
2.37469029426575

$$$$
13
                    3D
 Structure written by MMmdl.
154162  0  0  1  0            999 V2000
  -30.6247  -14.6533   20.4851 C   0  0  0  0  0  0
  -30.4383  -12.3984   19.4531 C   0  0  0  0  0  0
  -29.5067  -12.5025   18.2246 C   0  0  0  0  0  0
  -28.0297  -12.3452   18.6370 C   0  0  0  0  0  0
  -27.6527  -13.2197   19.8624 C   0  0  2  0  0  0
  -28.6994  -13.0841   20.9919 C   0  0  0  0  0  0
  -25.2531  -13.8148   20.5627 C   0  0  0  0  0  0
  -24.1825  -13.0420   20.9203 C   0  0  0  0  0  0
  -24.6410  -11.6900   20.8766 C   0  0  0  0  0  0
  -23.9077  -10.4286   21.0423 C   0  0  0  0  0  0
  -24.3626   -9.4194   21.9194 C   0  0  0  0  0  0
  -23.6299   -8.2230   22.0752 C   0  0  0  0  0  0
  -22.4278   -8.0277   21.3543 C   0  0  0  0  0  0
  -21.9921   -9.0253   20.4643 C   0  0  0  0  0  0
  -22.7253  -10.2133   20.3064 C   0  0  0  0  0  0
  -21.6853   -6.0739   22.5279 C   0  0  0  0  0  0
  -21.4008   -6.5643   23.8212 C   0  0  0  0  0  0
  -21.3654   -5.6794   24.9175 C   0  0  0  0  0  0
  -21.6049   -4.3057   24.7225 C   0  0  0  0  0  0
  -21.8819   -3.8150   23.4344 C   0  0  0  0  0  0
  -21.9194   -4.6968   22.3402 C   0  0  0  0  0  0
  -22.7848  -13.5208   21.1866 C   0  0  0  0  0  0
  -22.1664   -4.2157   21.0980 F   0  0  0  0  0  0
  -21.5633   -3.4538   25.7736 F   0  0  0  0  0  0
  -30.0137  -13.4262   20.4253 N   0  0  0  0  0  0
  -26.2988  -12.9356   20.3315 N   0  0  0  0  0  0
  -25.9343  -11.6511   20.5792 N   0  0  0  0  0  0
  -22.0500  -12.8200   22.0429 N   0  0  0  0  0  0
  -25.4162  -15.1840   20.3852 N   0  0  0  0  0  0
  -31.7901  -14.7993   20.1046 O   0  0  0  0  0  0
  -21.6636   -6.8878   21.4238 O   0  0  0  0  0  0
  -22.3532  -14.5517   20.6717 O   0  0  0  0  0  0
  -24.6272  -31.8588   23.2048 C   0  0  0  0  0  0
  -25.9112  -32.4773   23.8374 C   0  0  1  0  0  0
  -27.2257  -27.3173   20.1081 C   0  0  0  0  0  0
  -25.5926  -33.8575   24.2296 N   0  0  0  0  0  0
  -23.4214  -30.4851   21.5461 C   0  0  2  0  0  0
  -24.8678  -28.9431   20.1103 C   0  0  0  0  0  0
  -22.7483  -29.4625   22.4927 C   0  0  0  0  0  0
  -18.0287  -28.1394   22.8502 C   0  0  0  0  0  0
  -24.1478  -36.7281   23.2640 C   0  0  0  0  0  0
  -25.9637  -30.7901   21.3766 C   0  0  0  0  0  0
  -26.0380  -29.4186   20.7149 C   0  0  0  0  0  0
  -27.2206  -28.6176   20.7049 C   0  0  0  0  0  0
  -26.0277  -26.8982   19.4826 C   0  0  0  0  0  0
  -24.8646  -27.6880   19.4861 C   0  0  0  0  0  0
  -23.6369  -29.8249   20.1597 C   0  0  0  0  0  0
  -25.4106  -36.3074   24.0334 C   0  0  1  0  0  0
  -20.5893  -28.3689   23.1283 C   0  0  2  0  0  0
  -20.6773  -26.9409   22.5411 C   0  0  0  0  0  0
  -19.5743  -26.6389   21.5218 C   0  0  0  0  0  0
  -18.1924  -26.7943   22.1629 C   0  0  0  0  0  0
  -19.1546  -28.8858   23.2886 C   0  0  0  0  0  0
  -18.9468  -30.1469   23.8896 C   0  0  0  0  0  0
  -17.6470  -30.6599   24.0573 C   0  0  0  0  0  0
  -25.9042  -34.9449   23.5113 C   0  0  0  0  0  0
  -16.5358  -29.9104   23.6344 C   0  0  0  0  0  0
  -16.7274  -28.6519   23.0364 C   0  0  0  0  0  0
  -26.4502  -31.6586   25.0740 C   0  0  0  0  0  0
  -25.3747  -31.3742   26.1474 C   0  0  0  0  0  0
  -27.0334  -30.3009   24.6200 C   0  0  0  0  0  0
  -27.6061  -32.4319   25.7507 C   0  0  0  0  0  0
  -27.5570  -37.1799   24.8472 C   0  0  0  0  0  0
  -21.4191  -29.3049   22.3675 N   0  0  0  0  0  0
  -26.4280  -37.3775   23.9419 N   0  0  0  0  0  0
  -24.6896  -31.0616   22.0990 N   0  0  0  0  0  0
  -23.4208  -28.8152   23.2996 O   0  0  0  0  0  0
  -28.3419  -26.4610   20.1515 O   0  0  0  0  0  0
  -26.5600  -34.8919   22.4674 O   0  0  0  0  0  0
  -23.5438  -32.1366   23.7387 O   0  0  0  0  0  0
  -30.9983  -19.2414   19.7925 C   0  0  0  0  0  0
  -30.9509  -17.8209   19.9236 C   0  0  0  0  0  0
  -29.0057  -19.4586   21.1089 C   0  0  0  0  0  0
  -30.0376  -20.1056   20.3867 C   0  0  0  0  0  0
  -28.9570  -18.0347   21.2576 C   0  0  0  0  0  0
  -29.9359  -17.1688   20.6732 C   0  0  0  0  0  0
  -29.2981  -24.0322   20.2911 C   0  0  0  0  0  0
  -27.8236  -17.4539   22.0860 C   0  0  0  0  0  0
  -30.2564  -21.6675   20.3573 C   0  0  0  0  0  0
  -28.1004  -25.0057   19.9610 C   0  0  0  0  0  0
  -29.8249  -15.7110   20.8403 N   0  0  0  0  0  0
  -29.1457  -22.6675   20.2003 N   0  0  0  0  0  0
  -30.3845  -24.5213   20.6104 O   0  0  0  0  0  0
  -31.4779  -12.5248   19.1462 H   0  0  0  0  0  0
  -30.3783  -11.4054   19.9008 H   0  0  0  0  0  0
  -29.7682  -11.7429   17.4865 H   0  0  0  0  0  0
  -29.6500  -13.4667   17.7341 H   0  0  0  0  0  0
  -27.8644  -11.2932   18.8717 H   0  0  0  0  0  0
  -27.3750  -12.5735   17.7949 H   0  0  0  0  0  0
  -27.6680  -14.2542   19.5189 H   0  0  0  0  0  0
  -28.7130  -12.0646   21.3812 H   0  0  0  0  0  0
  -28.4448  -13.7225   21.8392 H   0  0  0  0  0  0
  -25.2769   -9.5665   22.4774 H   0  0  0  0  0  0
  -24.0007   -7.4614   22.7464 H   0  0  0  0  0  0
  -21.0856   -8.8775   19.8945 H   0  0  0  0  0  0
  -22.3715  -10.9675   19.6177 H   0  0  0  0  0  0
  -21.1993   -7.6150   23.9717 H   0  0  0  0  0  0
  -21.1476   -6.0524   25.9079 H   0  0  0  0  0  0
  -22.0602   -2.7615   23.2841 H   0  0  0  0  0  0
  -22.4120  -11.9864   22.4816 H   0  0  0  0  0  0
  -21.1114  -13.1214   22.2636 H   0  0  0  0  0  0
  -24.6283  -15.8197   20.4413 H   0  0  0  0  0  0
  -26.2326  -15.6023   19.9581 H   0  0  0  0  0  0
  -26.7183  -32.5441   23.1128 H   0  0  0  0  0  0
  -25.0102  -33.9724   25.0461 H   0  0  0  0  0  0
  -22.7161  -31.3069   21.4065 H   0  0  0  0  0  0
  -23.3741  -35.9611   23.3298 H   0  0  0  0  0  0
  -24.3576  -36.8901   22.2056 H   0  0  0  0  0  0
  -23.7227  -37.6486   23.6661 H   0  0  0  0  0  0
  -26.1008  -31.5572   20.6134 H   0  0  0  0  0  0
  -26.8421  -30.8347   22.0080 H   0  0  0  0  0  0
  -28.1185  -28.9786   21.1869 H   0  0  0  0  0  0
  -25.9538  -25.9423   18.9863 H   0  0  0  0  0  0
  -23.9684  -27.3179   19.0060 H   0  0  0  0  0  0
  -23.7586  -30.6045   19.4060 H   0  0  0  0  0  0
  -22.7550  -29.2573   19.8555 H   0  0  0  0  0  0
  -25.1287  -36.1918   25.0827 H   0  0  0  0  0  0
  -21.0002  -28.3254   24.1395 H   0  0  0  0  0  0
  -20.5673  -26.2293   23.3612 H   0  0  0  0  0  0
  -21.6637  -26.7432   22.1198 H   0  0  0  0  0  0
  -19.6888  -25.6299   21.1244 H   0  0  0  0  0  0
  -19.6680  -27.3203   20.6754 H   0  0  0  0  0  0
  -17.4194  -26.6702   21.4029 H   0  0  0  0  0  0
  -18.0307  -26.0093   22.9032 H   0  0  0  0  0  0
  -19.7942  -30.7295   24.2247 H   0  0  0  0  0  0
  -17.5024  -31.6280   24.5172 H   0  0  0  0  0  0
  -15.5358  -30.3006   23.7678 H   0  0  0  0  0  0
  -15.8669  -28.0848   22.7075 H   0  0  0  0  0  0
  -24.5922  -30.7076   25.7830 H   0  0  0  0  0  0
  -24.8934  -32.2912   26.4886 H   0  0  0  0  0  0
  -25.8081  -30.8948   27.0259 H   0  0  0  0  0  0
  -26.2905  -29.6763   24.1227 H   0  0  0  0  0  0
  -27.4029  -29.7270   25.4708 H   0  0  0  0  0  0
  -27.8780  -30.4295   23.9430 H   0  0  0  0  0  0
  -27.2687  -33.3650   26.2040 H   0  0  0  0  0  0
  -28.3898  -32.6822   25.0341 H   0  0  0  0  0  0
  -28.0687  -31.8460   26.5460 H   0  0  0  0  0  0
  -28.2594  -38.0091   24.7508 H   0  0  0  0  0  0
  -28.1058  -36.2621   24.6301 H   0  0  0  0  0  0
  -27.2293  -37.1454   25.8878 H   0  0  0  0  0  0
  -20.9354  -29.8799   21.6921 H   0  0  0  0  0  0
  -26.0149  -38.2842   24.1437 H   0  0  0  0  0  0
  -31.8211  -19.6730   19.2382 H   0  0  0  0  0  0
  -31.7244  -17.2408   19.4408 H   0  0  0  0  0  0
  -28.2571  -20.0695   21.5941 H   0  0  0  0  0  0
  -27.4054  -18.2036   22.7584 H   0  0  0  0  0  0
  -28.1563  -16.6197   22.7036 H   0  0  0  0  0  0
  -27.0248  -17.1079   21.4333 H   0  0  0  0  0  0
  -30.9815  -21.8822   19.5706 H   0  0  0  0  0  0
  -30.7715  -21.9078   21.2889 H   0  0  0  0  0  0
  -27.2552  -24.6938   20.5759 H   0  0  0  0  0  0
  -27.8334  -24.8222   18.9198 H   0  0  0  0  0  0
  -28.9389  -15.4085   21.2122 H   0  0  0  0  0  0
  -28.2398  -22.3130   19.9249 H   0  0  0  0  0  0
  1 25  1  0  0  0
  1 30  2  0  0  0
  1 81  1  0  0  0
  2  3  1  0  0  0
  2 25  1  0  0  0
  2 84  1  0  0  0
  2 85  1  0  0  0
  3  4  1  0  0  0
  3 86  1  0  0  0
  3 87  1  0  0  0
  4  5  1  0  0  0
  4 88  1  0  0  0
  4 89  1  0  0  0
  5  6  1  0  0  0
  5 26  1  0  0  0
  5 90  1  0  0  0
  6 25  1  0  0  0
  6 91  1  0  0  0
  6 92  1  0  0  0
  7  8  2  0  0  0
  7 26  1  0  0  0
  7 29  1  0  0  0
  8  9  1  0  0  0
  8 22  1  0  0  0
  9 10  1  0  0  0
  9 27  2  0  0  0
 10 11  2  0  0  0
 10 15  1  0  0  0
 11 12  1  0  0  0
 11 93  1  0  0  0
 12 13  2  0  0  0
 12 94  1  0  0  0
 13 14  1  0  0  0
 13 31  1  0  0  0
 14 15  2  0  0  0
 14 95  1  0  0  0
 15 96  1  0  0  0
 16 17  2  0  0  0
 16 21  1  0  0  0
 16 31  1  0  0  0
 17 18  1  0  0  0
 17 97  1  0  0  0
 18 19  2  0  0  0
 18 98  1  0  0  0
 19 20  1  0  0  0
 19 24  1  0  0  0
 20 21  2  0  0  0
 20 99  1  0  0  0
 21 23  1  0  0  0
 22 28  1  0  0  0
 22 32  2  0  0  0
 26 27  1  0  0  0
 28100  1  0  0  0
 28101  1  0  0  0
 29102  1  0  0  0
 29103  1  0  0  0
 33 34  1  0  0  0
 33 66  1  0  0  0
 33 70  2  0  0  0
 34 36  1  0  0  0
 34 59  1  0  0  0
 34104  1  0  0  0
 35 44  2  0  0  0
 35 45  1  0  0  0
 35 68  1  0  0  0
 36 56  1  0  0  0
 36105  1  0  0  0
 37 39  1  0  0  0
 37 47  1  0  0  0
 37 66  1  0  0  0
 37106  1  0  0  0
 38 43  2  0  0  0
 38 46  1  0  0  0
 38 47  1  0  0  0
 39 64  1  0  0  0
 39 67  2  0  0  0
 40 52  1  0  0  0
 40 53  2  0  0  0
 40 58  1  0  0  0
 41107  1  0  0  0
 41108  1  0  0  0
 41109  1  0  0  0
 41 48  1  0  0  0
 42 43  1  0  0  0
 42 66  1  0  0  0
 42110  1  0  0  0
 42111  1  0  0  0
 43 44  1  0  0  0
 44112  1  0  0  0
 45 46  2  0  0  0
 45113  1  0  0  0
 46114  1  0  0  0
 47115  1  0  0  0
 47116  1  0  0  0
 48 56  1  0  0  0
 48 65  1  0  0  0
 48117  1  0  0  0
 49 50  1  0  0  0
 49 53  1  0  0  0
 49 64  1  0  0  0
 49118  1  0  0  0
 50 51  1  0  0  0
 50119  1  0  0  0
 50120  1  0  0  0
 51 52  1  0  0  0
 51121  1  0  0  0
 51122  1  0  0  0
 52123  1  0  0  0
 52124  1  0  0  0
 53 54  1  0  0  0
 54 55  2  0  0  0
 54125  1  0  0  0
 55 57  1  0  0  0
 55126  1  0  0  0
 56 69  2  0  0  0
 57 58  2  0  0  0
 57127  1  0  0  0
 58128  1  0  0  0
 59 60  1  0  0  0
 59 61  1  0  0  0
 59 62  1  0  0  0
 60129  1  0  0  0
 60130  1  0  0  0
 60131  1  0  0  0
 61132  1  0  0  0
 61133  1  0  0  0
 61134  1  0  0  0
 62135  1  0  0  0
 62136  1  0  0  0
 62137  1  0  0  0
 63 65  1  0  0  0
 63138  1  0  0  0
 63139  1  0  0  0
 63140  1  0  0  0
 64141  1  0  0  0
 65142  1  0  0  0
 68 80  1  0  0  0
 71 72  2  0  0  0
 71 74  1  0  0  0
 71143  1  0  0  0
 72 76  1  0  0  0
 72144  1  0  0  0
 73 74  2  0  0  0
 73 75  1  0  0  0
 73145  1  0  0  0
 74 79  1  0  0  0
 75 76  2  0  0  0
 75 78  1  0  0  0
 76 81  1  0  0  0
 77 80  1  0  0  0
 77 82  1  0  0  0
 77 83  2  0  0  0
 78146  1  0  0  0
 78147  1  0  0  0
 78148  1  0  0  0
 79 82  1  0  0  0
 79149  1  0  0  0
 79150  1  0  0  0
 80151  1  0  0  0
 80152  1  0  0  0
 81153  1  0  0  0
 82154  1  0  0  0
M  ISO  4   1 100  68 101  80 101  81 100
M  END
> <chiral flag>
0

> <version>
0

> <s_m_source_file>
/data/baiqing/PycharmProjects/Reinvent-master-3.2/result/LINK_invent/BTK/process_docking_weight1_custom_product_contain_oxygen_bond_distance_aromatic_linkinvent_7_9_3/rearranged_h_0048.sdf

> <i_m_source_file_index>
14

> <r_mmod_Potential_Energy-OPLS-2005>
-36.7220497131348

> <r_mmod_Stretch_Energy-OPLS-2005>
82.0404663085938

> <r_mmod_Bend_Energy-OPLS-2005>
137.692825317383

> <r_mmod_Torsional_Energy-OPLS-2005>
211.098007202148

> <r_mmod_Improper_Torsional_Energy-OPLS-2005>
4.98490428924561

> <r_mmod_Van_der_Waal_Energy-OPLS-2005>
146.462951660156

> <r_mmod_Electrostatic_Energy-OPLS-2005>
-425.531311035156

> <r_mmod_Solvation_Energy-OPLS-2005>
-244.69841003418

> <b_mmod_Minimization_Converged-OPLS-2005>
0

> <r_mmod_RMS_Derivative-OPLS-2005>
1.42273783683777

$$$$
14
                    3D
 Structure written by MMmdl.
164173  0  0  1  0            999 V2000
  -30.6725  -14.5259   20.4980 C   0  0  0  0  0  0
  -30.4234  -12.3186   19.4423 C   0  0  0  0  0  0
  -29.4975  -12.4992   18.2195 C   0  0  0  0  0  0
  -28.0182  -12.3629   18.6294 C   0  0  0  0  0  0
  -27.6589  -13.2131   19.8776 C   0  0  2  0  0  0
  -28.7045  -13.0238   21.0039 C   0  0  0  0  0  0
  -25.2554  -13.8151   20.5693 C   0  0  0  0  0  0
  -24.1825  -13.0441   20.9198 C   0  0  0  0  0  0
  -24.6389  -11.6909   20.8750 C   0  0  0  0  0  0
  -23.9063  -10.4301   21.0407 C   0  0  0  0  0  0
  -24.3609   -9.4199   21.9169 C   0  0  0  0  0  0
  -23.6296   -8.2231   22.0751 C   0  0  0  0  0  0
  -22.4279   -8.0283   21.3546 C   0  0  0  0  0  0
  -21.9923   -9.0252   20.4646 C   0  0  0  0  0  0
  -22.7242  -10.2127   20.3056 C   0  0  0  0  0  0
  -21.6856   -6.0740   22.5268 C   0  0  0  0  0  0
  -21.4009   -6.5634   23.8197 C   0  0  0  0  0  0
  -21.3665   -5.6780   24.9158 C   0  0  0  0  0  0
  -21.6049   -4.3050   24.7220 C   0  0  0  0  0  0
  -21.8811   -3.8151   23.4333 C   0  0  0  0  0  0
  -21.9192   -4.6973   22.3401 C   0  0  0  0  0  0
  -22.7828  -13.5218   21.1850 C   0  0  0  0  0  0
  -22.1658   -4.2160   21.0986 F   0  0  0  0  0  0
  -21.5641   -3.4531   25.7726 F   0  0  0  0  0  0
  -30.0318  -13.3234   20.4449 N   0  0  0  0  0  0
  -26.3011  -12.9346   20.3393 N   0  0  0  0  0  0
  -25.9319  -11.6510   20.5799 N   0  0  0  0  0  0
  -22.0485  -12.8205   22.0401 N   0  0  0  0  0  0
  -25.4294  -15.1864   20.4074 N   0  0  0  0  0  0
  -31.8266  -14.6810   20.0879 O   0  0  0  0  0  0
  -21.6646   -6.8880   21.4229 O   0  0  0  0  0  0
  -22.3515  -14.5532   20.6703 O   0  0  0  0  0  0
  -24.6119  -31.8671   23.2048 C   0  0  0  0  0  0
  -25.9013  -32.4810   23.8355 C   0  0  1  0  0  0
  -27.2538  -27.4216   20.1249 C   0  0  0  0  0  0
  -25.5870  -33.8599   24.2316 N   0  0  0  0  0  0
  -23.3997  -30.4849   21.5445 C   0  0  2  0  0  0
  -24.8511  -28.9382   20.1143 C   0  0  0  0  0  0
  -22.7392  -29.4634   22.4980 C   0  0  0  0  0  0
  -18.0279  -28.1356   22.8501 C   0  0  0  0  0  0
  -24.1482  -36.7312   23.2631 C   0  0  0  0  0  0
  -25.9211  -30.8337   21.3463 C   0  0  0  0  0  0
  -26.0032  -29.4588   20.7119 C   0  0  0  0  0  0
  -27.1972  -28.7077   20.7135 C   0  0  0  0  0  0
  -26.0817  -26.9083   19.5227 C   0  0  0  0  0  0
  -24.8884  -27.6643   19.5135 C   0  0  0  0  0  0
  -23.6085  -29.8033   20.1615 C   0  0  0  0  0  0
  -25.4096  -36.3097   24.0355 C   0  0  1  0  0  0
  -20.5857  -28.3642   23.1332 C   0  0  2  0  0  0
  -20.6751  -26.9367   22.5422 C   0  0  0  0  0  0
  -19.5741  -26.6378   21.5197 C   0  0  0  0  0  0
  -18.1927  -26.7912   22.1622 C   0  0  0  0  0  0
  -19.1523  -28.8818   23.2921 C   0  0  0  0  0  0
  -18.9454  -30.1426   23.8916 C   0  0  0  0  0  0
  -17.6455  -30.6560   24.0563 C   0  0  0  0  0  0
  -25.9025  -34.9463   23.5136 C   0  0  0  0  0  0
  -16.5346  -29.9069   23.6299 C   0  0  0  0  0  0
  -16.7272  -28.6483   23.0336 C   0  0  0  0  0  0
  -26.4460  -31.6562   25.0667 C   0  0  0  0  0  0
  -25.3751  -31.3634   26.1433 C   0  0  0  0  0  0
  -27.0262  -30.3030   24.5932 C   0  0  0  0  0  0
  -27.6056  -32.4240   25.7433 C   0  0  0  0  0  0
  -27.5576  -37.1799   24.8470 C   0  0  0  0  0  0
  -21.4117  -29.3022   22.3745 N   0  0  0  0  0  0
  -26.4279  -37.3793   23.9435 N   0  0  0  0  0  0
  -24.6643  -31.0767   22.0935 N   0  0  0  0  0  0
  -23.4173  -28.8170   23.3013 O   0  0  0  0  0  0
  -28.4693  -26.7668   20.2013 O   0  0  0  0  0  0
  -26.5592  -34.8923   22.4695 O   0  0  0  0  0  0
  -23.5329  -32.1394   23.7491 O   0  0  0  0  0  0
  -30.2960  -19.4502   22.9110 C   0  0  0  0  0  0
  -30.4172  -18.2700   22.1530 C   0  0  0  0  0  0
  -29.5770  -20.5547   22.4096 C   0  0  0  0  0  0
  -29.1054  -19.3010   20.3742 C   0  0  0  0  0  0
  -29.8147  -18.1727   20.8833 C   0  0  0  0  0  0
  -28.9767  -20.5016   21.1307 C   0  0  0  0  0  0
  -29.4711  -22.8736   18.8685 C   0  0  0  0  0  0
  -30.5979  -22.1928   18.6122 C   0  0  0  0  0  0
  -28.7068  -23.7365   17.8668 C   0  0  0  0  0  0
  -28.7146  -25.2304   18.2514 C   0  0  0  0  0  0
  -28.1139  -24.2104   20.5278 C   0  0  0  0  0  0
  -28.7487  -25.4181   19.7751 C   0  0  2  0  0  0
  -29.9845  -16.8918   20.0480 C   0  0  0  0  0  0
  -28.1211  -21.6953   20.6430 C   0  0  0  0  0  0
  -29.8784  -15.5910   20.7499 N   0  0  0  0  0  0
  -28.8690  -22.9333   20.2478 N   0  3  1  0  0  0
  -31.4700  -12.4087   19.1436 H   0  0  0  0  0  0
  -30.3239  -11.3140   19.8561 H   0  0  0  0  0  0
  -29.7359  -11.7638   17.4494 H   0  0  0  0  0  0
  -29.6629  -13.4770   17.7644 H   0  0  0  0  0  0
  -27.8204  -11.3101   18.8305 H   0  0  0  0  0  0
  -27.3692  -12.6383   17.7979 H   0  0  0  0  0  0
  -27.6906  -14.2567   19.5600 H   0  0  0  0  0  0
  -28.6885  -11.9964   21.3743 H   0  0  0  0  0  0
  -28.4795  -13.6510   21.8688 H   0  0  0  0  0  0
  -25.2754   -9.5648   22.4742 H   0  0  0  0  0  0
  -24.0004   -7.4604   22.7448 H   0  0  0  0  0  0
  -21.0861   -8.8769   19.8936 H   0  0  0  0  0  0
  -22.3716  -10.9663   19.6175 H   0  0  0  0  0  0
  -21.2008   -7.6149   23.9707 H   0  0  0  0  0  0
  -21.1490   -6.0521   25.9055 H   0  0  0  0  0  0
  -22.0606   -2.7628   23.2831 H   0  0  0  0  0  0
  -22.4153  -11.9906   22.4829 H   0  0  0  0  0  0
  -21.1094  -13.1201   22.2588 H   0  0  0  0  0  0
  -24.6655  -15.8437   20.5183 H   0  0  0  0  0  0
  -26.2808  -15.6226   20.0795 H   0  0  0  0  0  0
  -26.7060  -32.5559   23.1098 H   0  0  0  0  0  0
  -25.0011  -33.9765   25.0455 H   0  0  0  0  0  0
  -22.6848  -31.2974   21.3994 H   0  0  0  0  0  0
  -23.3748  -35.9634   23.3285 H   0  0  0  0  0  0
  -24.3575  -36.8958   22.2044 H   0  0  0  0  0  0
  -23.7238  -37.6523   23.6646 H   0  0  0  0  0  0
  -26.0019  -31.5838   20.5604 H   0  0  0  0  0  0
  -26.8203  -30.9206   21.9434 H   0  0  0  0  0  0
  -28.0853  -29.1090   21.1852 H   0  0  0  0  0  0
  -26.0672  -25.9299   19.0683 H   0  0  0  0  0  0
  -24.0030  -27.2574   19.0441 H   0  0  0  0  0  0
  -23.7080  -30.5708   19.3945 H   0  0  0  0  0  0
  -22.7361  -29.2128   19.8736 H   0  0  0  0  0  0
  -25.1259  -36.1942   25.0851 H   0  0  0  0  0  0
  -20.9971  -28.3191   24.1450 H   0  0  0  0  0  0
  -20.5619  -26.2233   23.3615 H   0  0  0  0  0  0
  -21.6635  -26.7389   22.1230 H   0  0  0  0  0  0
  -19.6904  -25.6297   21.1218 H   0  0  0  0  0  0
  -19.6685  -27.3203   20.6746 H   0  0  0  0  0  0
  -17.4189  -26.6662   21.4029 H   0  0  0  0  0  0
  -18.0337  -26.0023   22.8997 H   0  0  0  0  0  0
  -19.7919  -30.7250   24.2276 H   0  0  0  0  0  0
  -17.5004  -31.6245   24.5161 H   0  0  0  0  0  0
  -15.5353  -30.2988   23.7601 H   0  0  0  0  0  0
  -15.8675  -28.0831   22.7017 H   0  0  0  0  0  0
  -24.5976  -30.6903   25.7788 H   0  0  0  0  0  0
  -24.8857  -32.2762   26.4823 H   0  0  0  0  0  0
  -25.8154  -30.8871   27.0200 H   0  0  0  0  0  0
  -26.2746  -29.6813   24.1043 H   0  0  0  0  0  0
  -27.4172  -29.7224   25.4292 H   0  0  0  0  0  0
  -27.8507  -30.4413   23.8938 H   0  0  0  0  0  0
  -27.2716  -33.3562   26.1976 H   0  0  0  0  0  0
  -28.3880  -32.6743   25.0262 H   0  0  0  0  0  0
  -28.0654  -31.8345   26.5369 H   0  0  0  0  0  0
  -28.2579  -38.0106   24.7529 H   0  0  0  0  0  0
  -28.1094  -36.2651   24.6260 H   0  0  0  0  0  0
  -27.2308  -37.1408   25.8876 H   0  0  0  0  0  0
  -20.9247  -29.8763   21.7001 H   0  0  0  0  0  0
  -26.0174  -38.2874   24.1457 H   0  0  0  0  0  0
  -30.7487  -19.5081   23.8912 H   0  0  0  0  0  0
  -30.9833  -17.4380   22.5507 H   0  0  0  0  0  0
  -29.4830  -21.4334   23.0346 H   0  0  0  0  0  0
  -28.6422  -19.2394   19.3983 H   0  0  0  0  0  0
  -31.0349  -22.1948   17.6225 H   0  0  0  0  0  0
  -31.1082  -21.6290   19.3789 H   0  0  0  0  0  0
  -27.6795  -23.3733   17.8319 H   0  0  0  0  0  0
  -29.1128  -23.6034   16.8647 H   0  0  0  0  0  0
  -27.8577  -25.7298   17.8047 H   0  0  0  0  0  0
  -29.5903  -25.7214   17.8269 H   0  0  0  0  0  0
  -27.0716  -24.1030   20.2251 H   0  0  0  0  0  0
  -28.1152  -24.3903   21.6042 H   0  0  0  0  0  0
  -29.8070  -25.3579   20.0385 H   0  0  0  0  0  0
  -30.9416  -16.9728   19.5326 H   0  0  0  0  0  0
  -29.2297  -16.8852   19.2614 H   0  0  0  0  0  0
  -27.4521  -21.9403   21.4686 H   0  0  0  0  0  0
  -27.4727  -21.3851   19.8228 H   0  0  0  0  0  0
  -28.9697  -15.3767   21.1279 H   0  0  0  0  0  0
  -29.6420  -22.9663   20.8969 H   0  0  0  0  0  0
  1 25  1  0  0  0
  1 30  2  0  0  0
  1 85  1  0  0  0
  2  3  1  0  0  0
  2 25  1  0  0  0
  2 87  1  0  0  0
  2 88  1  0  0  0
  3  4  1  0  0  0
  3 89  1  0  0  0
  3 90  1  0  0  0
  4  5  1  0  0  0
  4 91  1  0  0  0
  4 92  1  0  0  0
  5  6  1  0  0  0
  5 26  1  0  0  0
  5 93  1  0  0  0
  6 25  1  0  0  0
  6 94  1  0  0  0
  6 95  1  0  0  0
  7  8  2  0  0  0
  7 26  1  0  0  0
  7 29  1  0  0  0
  8  9  1  0  0  0
  8 22  1  0  0  0
  9 10  1  0  0  0
  9 27  2  0  0  0
 10 11  2  0  0  0
 10 15  1  0  0  0
 11 12  1  0  0  0
 11 96  1  0  0  0
 12 13  2  0  0  0
 12 97  1  0  0  0
 13 14  1  0  0  0
 13 31  1  0  0  0
 14 15  2  0  0  0
 14 98  1  0  0  0
 15 99  1  0  0  0
 16 17  2  0  0  0
 16 21  1  0  0  0
 16 31  1  0  0  0
 17 18  1  0  0  0
 17100  1  0  0  0
 18 19  2  0  0  0
 18101  1  0  0  0
 19 20  1  0  0  0
 19 24  1  0  0  0
 20 21  2  0  0  0
 20102  1  0  0  0
 21 23  1  0  0  0
 22 28  1  0  0  0
 22 32  2  0  0  0
 26 27  1  0  0  0
 28103  1  0  0  0
 28104  1  0  0  0
 29105  1  0  0  0
 29106  1  0  0  0
 33 34  1  0  0  0
 33 66  1  0  0  0
 33 70  2  0  0  0
 34 36  1  0  0  0
 34 59  1  0  0  0
 34107  1  0  0  0
 35 44  2  0  0  0
 35 45  1  0  0  0
 35 68  1  0  0  0
 36 56  1  0  0  0
 36108  1  0  0  0
 37 39  1  0  0  0
 37 47  1  0  0  0
 37 66  1  0  0  0
 37109  1  0  0  0
 38 43  2  0  0  0
 38 46  1  0  0  0
 38 47  1  0  0  0
 39 64  1  0  0  0
 39 67  2  0  0  0
 40 52  1  0  0  0
 40 53  2  0  0  0
 40 58  1  0  0  0
 41110  1  0  0  0
 41111  1  0  0  0
 41112  1  0  0  0
 41 48  1  0  0  0
 42 43  1  0  0  0
 42 66  1  0  0  0
 42113  1  0  0  0
 42114  1  0  0  0
 43 44  1  0  0  0
 44115  1  0  0  0
 45 46  2  0  0  0
 45116  1  0  0  0
 46117  1  0  0  0
 47118  1  0  0  0
 47119  1  0  0  0
 48 56  1  0  0  0
 48 65  1  0  0  0
 48120  1  0  0  0
 49 50  1  0  0  0
 49 53  1  0  0  0
 49 64  1  0  0  0
 49121  1  0  0  0
 50 51  1  0  0  0
 50122  1  0  0  0
 50123  1  0  0  0
 51 52  1  0  0  0
 51124  1  0  0  0
 51125  1  0  0  0
 52126  1  0  0  0
 52127  1  0  0  0
 53 54  1  0  0  0
 54 55  2  0  0  0
 54128  1  0  0  0
 55 57  1  0  0  0
 55129  1  0  0  0
 56 69  2  0  0  0
 57 58  2  0  0  0
 57130  1  0  0  0
 58131  1  0  0  0
 59 60  1  0  0  0
 59 61  1  0  0  0
 59 62  1  0  0  0
 60132  1  0  0  0
 60133  1  0  0  0
 60134  1  0  0  0
 61135  1  0  0  0
 61136  1  0  0  0
 61137  1  0  0  0
 62138  1  0  0  0
 62139  1  0  0  0
 62140  1  0  0  0
 63 65  1  0  0  0
 63141  1  0  0  0
 63142  1  0  0  0
 63143  1  0  0  0
 64144  1  0  0  0
 65145  1  0  0  0
 68 82  1  0  0  0
 71 72  2  0  0  0
 71 73  1  0  0  0
 71146  1  0  0  0
 72 75  1  0  0  0
 72147  1  0  0  0
 73 76  2  0  0  0
 73148  1  0  0  0
 74 75  2  0  0  0
 74 76  1  0  0  0
 74149  1  0  0  0
 75 83  1  0  0  0
 76 84  1  0  0  0
 77 78  2  0  0  0
 77 79  1  0  0  0
 77 86  1  0  0  0
 78150  1  0  0  0
 78151  1  0  0  0
 79 80  1  0  0  0
 79152  1  0  0  0
 79153  1  0  0  0
 80 82  1  0  0  0
 80154  1  0  0  0
 80155  1  0  0  0
 81 82  1  0  0  0
 81 86  1  0  0  0
 81156  1  0  0  0
 81157  1  0  0  0
 82158  1  0  0  0
 83 85  1  0  0  0
 83159  1  0  0  0
 83160  1  0  0  0
 84161  1  0  0  0
 84162  1  0  0  0
 84 86  1  0  0  0
 85163  1  0  0  0
 86164  1  0  0  0
M  CHG  1  86   1
M  ISO  4   1 100  68 101  82 101  85 100
M  END
> <chiral flag>
0

> <version>
0

> <s_m_source_file>
/data/baiqing/PycharmProjects/Reinvent-master-3.2/result/LINK_invent/BTK/process_docking_weight1_custom_product_contain_oxygen_bond_distance_aromatic_linkinvent_7_9_3/rearranged_h_0048.sdf

> <i_m_source_file_index>
15

> <r_mmod_Potential_Energy-OPLS-2005>
-141.128890991211

> <r_mmod_Stretch_Energy-OPLS-2005>
47.5064239501953

> <r_mmod_Bend_Energy-OPLS-2005>
141.27082824707

> <r_mmod_Torsional_Energy-OPLS-2005>
224.862701416016

> <r_mmod_Improper_Torsional_Energy-OPLS-2005>
9.09366893768311

> <r_mmod_Van_der_Waal_Energy-OPLS-2005>
150.838973999023

> <r_mmod_Electrostatic_Energy-OPLS-2005>
-309.845947265625

> <r_mmod_Solvation_Energy-OPLS-2005>
-425.865173339844

> <b_mmod_Minimization_Converged-OPLS-2005>
0

> <r_mmod_RMS_Derivative-OPLS-2005>
3.81489777565002

$$$$
15
                    3D
 Structure written by MMmdl.
161170  0  0  1  0            999 V2000
  -30.6010  -14.7832   20.3879 C   0  0  0  0  0  0
  -30.4270  -12.4608   19.4905 C   0  0  0  0  0  0
  -29.5215  -12.5101   18.2424 C   0  0  0  0  0  0
  -28.0470  -12.3343   18.6555 C   0  0  0  0  0  0
  -27.6395  -13.2435   19.8467 C   0  0  2  0  0  0
  -28.6814  -13.2098   20.9845 C   0  0  0  0  0  0
  -25.2451  -13.8232   20.5663 C   0  0  0  0  0  0
  -24.1761  -13.0450   20.9188 C   0  0  0  0  0  0
  -24.6361  -11.6939   20.8726 C   0  0  0  0  0  0
  -23.9038  -10.4310   21.0395 C   0  0  0  0  0  0
  -24.3594   -9.4234   21.9174 C   0  0  0  0  0  0
  -23.6287   -8.2257   22.0746 C   0  0  0  0  0  0
  -22.4286   -8.0260   21.3528 C   0  0  0  0  0  0
  -21.9906   -9.0231   20.4627 C   0  0  0  0  0  0
  -22.7213  -10.2123   20.3042 C   0  0  0  0  0  0
  -21.6869   -6.0724   22.5264 C   0  0  0  0  0  0
  -21.4052   -6.5636   23.8197 C   0  0  0  0  0  0
  -21.3671   -5.6780   24.9150 C   0  0  0  0  0  0
  -21.6059   -4.3042   24.7194 C   0  0  0  0  0  0
  -21.8810   -3.8131   23.4307 C   0  0  0  0  0  0
  -21.9188   -4.6952   22.3379 C   0  0  0  0  0  0
  -22.7776  -13.5220   21.1837 C   0  0  0  0  0  0
  -22.1645   -4.2134   21.0955 F   0  0  0  0  0  0
  -21.5613   -3.4532   25.7705 F   0  0  0  0  0  0
  -29.9849  -13.5481   20.3968 N   0  0  0  0  0  0
  -26.2909  -12.9461   20.3261 N   0  0  0  0  0  0
  -25.9314  -11.6598   20.5742 N   0  0  0  0  0  0
  -22.0395  -12.8259   22.0379 N   0  0  0  0  0  0
  -25.4121  -15.1950   20.4062 N   0  0  0  0  0  0
  -31.8013  -14.8399   20.0990 O   0  0  0  0  0  0
  -21.6654   -6.8858   21.4220 O   0  0  0  0  0  0
  -22.3471  -14.5516   20.6611 O   0  0  0  0  0  0
  -24.6333  -31.8540   23.1909 C   0  0  0  0  0  0
  -25.9113  -32.4754   23.8285 C   0  0  1  0  0  0
  -27.2182  -27.2551   20.1251 C   0  0  0  0  0  0
  -25.5888  -33.8545   24.2252 N   0  0  0  0  0  0
  -23.4292  -30.4708   21.5421 C   0  0  2  0  0  0
  -24.8702  -28.9041   20.1208 C   0  0  0  0  0  0
  -22.7503  -29.4574   22.4966 C   0  0  0  0  0  0
  -18.0279  -28.1396   22.8485 C   0  0  0  0  0  0
  -24.1491  -36.7333   23.2640 C   0  0  0  0  0  0
  -25.9702  -30.7676   21.3578 C   0  0  0  0  0  0
  -26.0455  -29.3790   20.7206 C   0  0  0  0  0  0
  -27.2253  -28.5694   20.7070 C   0  0  0  0  0  0
  -26.0235  -26.8377   19.5096 C   0  0  0  0  0  0
  -24.8637  -27.6404   19.5047 C   0  0  0  0  0  0
  -23.6427  -29.7964   20.1622 C   0  0  0  0  0  0
  -25.4099  -36.3100   24.0352 C   0  0  1  0  0  0
  -20.5891  -28.3685   23.1290 C   0  0  2  0  0  0
  -20.6775  -26.9408   22.5417 C   0  0  0  0  0  0
  -19.5747  -26.6395   21.5227 C   0  0  0  0  0  0
  -18.1926  -26.7929   22.1630 C   0  0  0  0  0  0
  -19.1540  -28.8865   23.2865 C   0  0  0  0  0  0
  -18.9457  -30.1483   23.8853 C   0  0  0  0  0  0
  -17.6457  -30.6584   24.0589 C   0  0  0  0  0  0
  -25.9044  -34.9460   23.5133 C   0  0  0  0  0  0
  -16.5346  -29.9088   23.6352 C   0  0  0  0  0  0
  -16.7269  -28.6529   23.0321 C   0  0  0  0  0  0
  -26.4458  -31.6519   25.0645 C   0  0  0  0  0  0
  -25.3677  -31.3631   26.1366 C   0  0  0  0  0  0
  -27.0290  -30.2958   24.6020 C   0  0  0  0  0  0
  -27.6048  -32.4205   25.7415 C   0  0  0  0  0  0
  -27.5584  -37.1813   24.8464 C   0  0  0  0  0  0
  -21.4219  -29.3019   22.3677 N   0  0  0  0  0  0
  -26.4291  -37.3783   23.9416 N   0  0  0  0  0  0
  -24.6992  -31.0481   22.0890 N   0  0  0  0  0  0
  -23.4189  -28.8145   23.3095 O   0  0  0  0  0  0
  -28.3282  -26.3894   20.0449 O   0  0  0  0  0  0
  -26.5646  -34.8943   22.4724 O   0  0  0  0  0  0
  -23.5482  -32.1348   23.7206 O   0  0  0  0  0  0
  -31.1568  -18.8999   18.4906 C   0  0  0  0  0  0
  -30.9792  -17.6103   19.0345 C   0  0  0  0  0  0
  -29.2227  -18.5006   20.4378 C   0  0  0  0  0  0
  -30.3645  -20.0021   18.8818 C   0  0  0  0  0  0
  -29.3589  -19.8407   19.8671 C   0  0  0  0  0  0
  -30.0185  -17.3407   20.0387 C   0  0  0  0  0  0
  -28.2745  -23.6830   19.9191 C   0  0  0  0  0  0
  -29.6806  -23.7652   22.4564 C   0  0  0  0  0  0
  -29.5696  -25.0613   21.6497 C   0  0  0  0  0  0
  -29.7565  -22.5203   21.5569 C   0  0  0  0  0  0
  -28.3254  -25.0624   20.7517 C   0  0  1  0  0  0
  -30.5785  -21.3357   18.1791 C   0  0  0  0  0  0
  -28.3464  -21.0516   20.1376 C   0  0  0  0  0  0
  -28.7722  -22.4902   20.4660 N   0  0  0  0  0  0
  -29.8251  -15.9369   20.5312 N   0  0  0  0  0  0
  -27.6925  -23.6852   18.8304 O   0  0  0  0  0  0
  -31.4772  -12.5479   19.2029 H   0  0  0  0  0  0
  -30.3366  -11.4936   19.9884 H   0  0  0  0  0  0
  -29.8160  -11.7382   17.5299 H   0  0  0  0  0  0
  -29.6446  -13.4666   17.7321 H   0  0  0  0  0  0
  -27.9110  -11.2883   18.9319 H   0  0  0  0  0  0
  -27.3917  -12.5142   17.8028 H   0  0  0  0  0  0
  -27.6251  -14.2616   19.4569 H   0  0  0  0  0  0
  -28.7105  -12.2294   21.4591 H   0  0  0  0  0  0
  -28.4136  -13.9200   21.7680 H   0  0  0  0  0  0
  -25.2731   -9.5754   22.4740 H   0  0  0  0  0  0
  -24.0005   -7.4687   22.7497 H   0  0  0  0  0  0
  -21.0828   -8.8728   19.8948 H   0  0  0  0  0  0
  -22.3649  -10.9635   19.6132 H   0  0  0  0  0  0
  -21.2094   -7.6152   23.9697 H   0  0  0  0  0  0
  -21.1504   -6.0512   25.9056 H   0  0  0  0  0  0
  -22.0585   -2.7590   23.2804 H   0  0  0  0  0  0
  -22.4037  -12.0028   22.4975 H   0  0  0  0  0  0
  -21.0951  -13.1255   22.2433 H   0  0  0  0  0  0
  -24.6317  -15.8403   20.4707 H   0  0  0  0  0  0
  -26.2607  -15.6312   20.0670 H   0  0  0  0  0  0
  -26.7181  -32.5421   23.1029 H   0  0  0  0  0  0
  -24.9957  -33.9653   25.0347 H   0  0  0  0  0  0
  -22.7253  -31.2917   21.3940 H   0  0  0  0  0  0
  -23.3748  -35.9673   23.3283 H   0  0  0  0  0  0
  -24.3601  -36.8965   22.2060 H   0  0  0  0  0  0
  -23.7235  -37.6534   23.6663 H   0  0  0  0  0  0
  -26.0736  -31.5099   20.5652 H   0  0  0  0  0  0
  -26.8638  -30.8491   21.9642 H   0  0  0  0  0  0
  -28.1348  -28.9388   21.1589 H   0  0  0  0  0  0
  -25.9905  -25.8782   19.0120 H   0  0  0  0  0  0
  -23.9667  -27.2706   19.0252 H   0  0  0  0  0  0
  -23.7641  -30.5675   19.4004 H   0  0  0  0  0  0
  -22.7597  -29.2278   19.8677 H   0  0  0  0  0  0
  -25.1267  -36.1982   25.0846 H   0  0  0  0  0  0
  -20.9952  -28.3270   24.1427 H   0  0  0  0  0  0
  -20.5703  -26.2302   23.3622 H   0  0  0  0  0  0
  -21.6644  -26.7464   22.1199 H   0  0  0  0  0  0
  -19.6906  -25.6315   21.1248 H   0  0  0  0  0  0
  -19.6678  -27.3230   20.6776 H   0  0  0  0  0  0
  -17.4204  -26.6689   21.4024 H   0  0  0  0  0  0
  -18.0296  -26.0072   22.9028 H   0  0  0  0  0  0
  -19.7944  -30.7331   24.2151 H   0  0  0  0  0  0
  -17.5013  -31.6246   24.5239 H   0  0  0  0  0  0
  -15.5341  -30.2972   23.7706 H   0  0  0  0  0  0
  -15.8675  -28.0877   22.6966 H   0  0  0  0  0  0
  -24.5890  -30.6931   25.7680 H   0  0  0  0  0  0
  -24.8803  -32.2781   26.4745 H   0  0  0  0  0  0
  -25.8000  -30.8838   27.0155 H   0  0  0  0  0  0
  -26.2825  -29.6674   24.1140 H   0  0  0  0  0  0
  -27.4146  -29.7201   25.4434 H   0  0  0  0  0  0
  -27.8617  -30.4277   23.9110 H   0  0  0  0  0  0
  -27.2705  -33.3522   26.1970 H   0  0  0  0  0  0
  -28.3859  -32.6681   25.0226 H   0  0  0  0  0  0
  -28.0683  -31.8292   26.5309 H   0  0  0  0  0  0
  -28.2610  -38.0103   24.7528 H   0  0  0  0  0  0
  -28.1082  -36.2647   24.6281 H   0  0  0  0  0  0
  -27.2334  -37.1465   25.8874 H   0  0  0  0  0  0
  -20.9407  -29.8694   21.6844 H   0  0  0  0  0  0
  -26.0205  -38.2891   24.1346 H   0  0  0  0  0  0
  -31.9040  -19.0305   17.7190 H   0  0  0  0  0  0
  -31.5880  -16.8184   18.6250 H   0  0  0  0  0  0
  -28.4531  -18.3603   21.1840 H   0  0  0  0  0  0
  -28.8217  -23.6741   23.1214 H   0  0  0  0  0  0
  -30.5606  -23.8003   23.1000 H   0  0  0  0  0  0
  -30.4615  -25.2066   21.0358 H   0  0  0  0  0  0
  -29.5258  -25.9041   22.3359 H   0  0  0  0  0  0
  -29.6385  -21.6369   22.1856 H   0  0  0  0  0  0
  -30.7525  -22.4418   21.1200 H   0  0  0  0  0  0
  -27.4486  -25.0285   21.3996 H   0  0  0  0  0  0
  -31.2389  -21.2474   17.3150 H   0  0  0  0  0  0
  -31.0302  -22.0641   18.8525 H   0  0  0  0  0  0
  -29.6364  -21.7473   17.8192 H   0  0  0  0  0  0
  -27.6754  -20.7374   20.9390 H   0  0  0  0  0  0
  -27.7031  -21.0781   19.2552 H   0  0  0  0  0  0
  -28.9129  -15.7588   20.9241 H   0  0  0  0  0  0
  1 25  1  0  0  0
  1 30  2  0  0  0
  1 85  1  0  0  0
  2  3  1  0  0  0
  2 25  1  0  0  0
  2 87  1  0  0  0
  2 88  1  0  0  0
  3  4  1  0  0  0
  3 89  1  0  0  0
  3 90  1  0  0  0
  4  5  1  0  0  0
  4 91  1  0  0  0
  4 92  1  0  0  0
  5  6  1  0  0  0
  5 26  1  0  0  0
  5 93  1  0  0  0
  6 25  1  0  0  0
  6 94  1  0  0  0
  6 95  1  0  0  0
  7  8  2  0  0  0
  7 26  1  0  0  0
  7 29  1  0  0  0
  8  9  1  0  0  0
  8 22  1  0  0  0
  9 10  1  0  0  0
  9 27  2  0  0  0
 10 11  2  0  0  0
 10 15  1  0  0  0
 11 12  1  0  0  0
 11 96  1  0  0  0
 12 13  2  0  0  0
 12 97  1  0  0  0
 13 14  1  0  0  0
 13 31  1  0  0  0
 14 15  2  0  0  0
 14 98  1  0  0  0
 15 99  1  0  0  0
 16 17  2  0  0  0
 16 21  1  0  0  0
 16 31  1  0  0  0
 17 18  1  0  0  0
 17100  1  0  0  0
 18 19  2  0  0  0
 18101  1  0  0  0
 19 20  1  0  0  0
 19 24  1  0  0  0
 20 21  2  0  0  0
 20102  1  0  0  0
 21 23  1  0  0  0
 22 28  1  0  0  0
 22 32  2  0  0  0
 26 27  1  0  0  0
 28103  1  0  0  0
 28104  1  0  0  0
 29105  1  0  0  0
 29106  1  0  0  0
 33 34  1  0  0  0
 33 66  1  0  0  0
 33 70  2  0  0  0
 34 36  1  0  0  0
 34 59  1  0  0  0
 34107  1  0  0  0
 35 44  2  0  0  0
 35 45  1  0  0  0
 35 68  1  0  0  0
 36 56  1  0  0  0
 36108  1  0  0  0
 37 39  1  0  0  0
 37 47  1  0  0  0
 37 66  1  0  0  0
 37109  1  0  0  0
 38 43  2  0  0  0
 38 46  1  0  0  0
 38 47  1  0  0  0
 39 64  1  0  0  0
 39 67  2  0  0  0
 40 52  1  0  0  0
 40 53  2  0  0  0
 40 58  1  0  0  0
 41110  1  0  0  0
 41111  1  0  0  0
 41112  1  0  0  0
 41 48  1  0  0  0
 42 43  1  0  0  0
 42 66  1  0  0  0
 42113  1  0  0  0
 42114  1  0  0  0
 43 44  1  0  0  0
 44115  1  0  0  0
 45 46  2  0  0  0
 45116  1  0  0  0
 46117  1  0  0  0
 47118  1  0  0  0
 47119  1  0  0  0
 48 56  1  0  0  0
 48 65  1  0  0  0
 48120  1  0  0  0
 49 50  1  0  0  0
 49 53  1  0  0  0
 49 64  1  0  0  0
 49121  1  0  0  0
 50 51  1  0  0  0
 50122  1  0  0  0
 50123  1  0  0  0
 51 52  1  0  0  0
 51124  1  0  0  0
 51125  1  0  0  0
 52126  1  0  0  0
 52127  1  0  0  0
 53 54  1  0  0  0
 54 55  2  0  0  0
 54128  1  0  0  0
 55 57  1  0  0  0
 55129  1  0  0  0
 56 69  2  0  0  0
 57 58  2  0  0  0
 57130  1  0  0  0
 58131  1  0  0  0
 59 60  1  0  0  0
 59 61  1  0  0  0
 59 62  1  0  0  0
 60132  1  0  0  0
 60133  1  0  0  0
 60134  1  0  0  0
 61135  1  0  0  0
 61136  1  0  0  0
 61137  1  0  0  0
 62138  1  0  0  0
 62139  1  0  0  0
 62140  1  0  0  0
 63 65  1  0  0  0
 63141  1  0  0  0
 63142  1  0  0  0
 63143  1  0  0  0
 64144  1  0  0  0
 65145  1  0  0  0
 68 81  1  0  0  0
 71 72  2  0  0  0
 71 74  1  0  0  0
 71146  1  0  0  0
 72 76  1  0  0  0
 72147  1  0  0  0
 73 75  1  0  0  0
 73 76  2  0  0  0
 73148  1  0  0  0
 74 75  2  0  0  0
 74 82  1  0  0  0
 75 83  1  0  0  0
 76 85  1  0  0  0
 77 81  1  0  0  0
 77 84  1  0  0  0
 77 86  2  0  0  0
 78 79  1  0  0  0
 78 80  1  0  0  0
 78149  1  0  0  0
 78150  1  0  0  0
 79 81  1  0  0  0
 79151  1  0  0  0
 79152  1  0  0  0
 80 84  1  0  0  0
 80153  1  0  0  0
 80154  1  0  0  0
 81155  1  0  0  0
 82156  1  0  0  0
 82157  1  0  0  0
 82158  1  0  0  0
 83 84  1  0  0  0
 83159  1  0  0  0
 83160  1  0  0  0
 85161  1  0  0  0
M  ISO  4   1 100  68 101  81 101  85 100
M  END
> <chiral flag>
0

> <version>
0

> <s_m_source_file>
/data/baiqing/PycharmProjects/Reinvent-master-3.2/result/LINK_invent/BTK/process_docking_weight1_custom_product_contain_oxygen_bond_distance_aromatic_linkinvent_7_9_3/rearranged_h_0048.sdf

> <i_m_source_file_index>
16

> <r_mmod_Potential_Energy-OPLS-2005>
256.546722412109

> <r_mmod_Stretch_Energy-OPLS-2005>
136.707366943359

> <r_mmod_Bend_Energy-OPLS-2005>
175.014175415039

> <r_mmod_Torsional_Energy-OPLS-2005>
275.775604248047

> <r_mmod_Improper_Torsional_Energy-OPLS-2005>
6.3417329788208

> <r_mmod_Van_der_Waal_Energy-OPLS-2005>
138.163177490234

> <r_mmod_Electrostatic_Energy-OPLS-2005>
-344.518768310547

> <r_mmod_Solvation_Energy-OPLS-2005>
-224.630920410156

> <b_mmod_Minimization_Converged-OPLS-2005>
0

> <r_mmod_RMS_Derivative-OPLS-2005>
4.21870803833008

$$$$
16
                    3D
 Structure written by MMmdl.
164173  0  0  1  0            999 V2000
  -30.4604  -14.9183   20.4612 C   0  0  0  0  0  0
  -30.4696  -12.5659   19.4895 C   0  0  0  0  0  0
  -29.5263  -12.4915   18.2600 C   0  0  0  0  0  0
  -28.0581  -12.2767   18.6831 C   0  0  0  0  0  0
  -27.6356  -13.2127   19.8436 C   0  0  2  0  0  0
  -28.6799  -13.1691   20.9748 C   0  0  0  0  0  0
  -25.2442  -13.8018   20.5615 C   0  0  0  0  0  0
  -24.1743  -13.0321   20.9239 C   0  0  0  0  0  0
  -24.6337  -11.6809   20.8774 C   0  0  0  0  0  0
  -23.8967  -10.4237   21.0415 C   0  0  0  0  0  0
  -24.3528   -9.4168   21.9183 C   0  0  0  0  0  0
  -23.6205   -8.2207   22.0740 C   0  0  0  0  0  0
  -22.4205   -8.0220   21.3521 C   0  0  0  0  0  0
  -21.9827   -9.0214   20.4646 C   0  0  0  0  0  0
  -22.7136  -10.2099   20.3068 C   0  0  0  0  0  0
  -21.6811   -6.0663   22.5273 C   0  0  0  0  0  0
  -21.3993   -6.5589   23.8226 C   0  0  0  0  0  0
  -21.3695   -5.6760   24.9189 C   0  0  0  0  0  0
  -21.6064   -4.3010   24.7252 C   0  0  0  0  0  0
  -21.8797   -3.8075   23.4384 C   0  0  0  0  0  0
  -21.9194   -4.6887   22.3422 C   0  0  0  0  0  0
  -22.7803  -13.5185   21.1885 C   0  0  0  0  0  0
  -22.1646   -4.2058   21.1007 F   0  0  0  0  0  0
  -21.5681   -3.4528   25.7789 F   0  0  0  0  0  0
  -29.9471  -13.6286   20.3887 N   0  0  0  0  0  0
  -26.2873  -12.9248   20.3222 N   0  0  0  0  0  0
  -25.9265  -11.6407   20.5758 N   0  0  0  0  0  0
  -22.0418  -12.8252   22.0472 N   0  0  0  0  0  0
  -25.3923  -15.1695   20.3838 N   0  0  0  0  0  0
  -31.6738  -15.0712   20.2511 O   0  0  0  0  0  0
  -21.6572   -6.8796   21.4219 O   0  0  0  0  0  0
  -22.3531  -14.5528   20.6744 O   0  0  0  0  0  0
  -24.6423  -31.8433   23.1824 C   0  0  0  0  0  0
  -25.9202  -32.4651   23.8196 C   0  0  1  0  0  0
  -27.2192  -27.1667   20.1166 C   0  0  0  0  0  0
  -25.5990  -33.8448   24.2178 N   0  0  0  0  0  0
  -23.4413  -30.4613   21.5300 C   0  0  2  0  0  0
  -24.8852  -28.8785   20.1135 C   0  0  0  0  0  0
  -22.7538  -29.4562   22.4868 C   0  0  0  0  0  0
  -18.0308  -28.1448   22.8486 C   0  0  0  0  0  0
  -24.1513  -36.7180   23.2641 C   0  0  0  0  0  0
  -25.9929  -30.7213   21.3737 C   0  0  0  0  0  0
  -26.0592  -29.3326   20.7239 C   0  0  0  0  0  0
  -27.2267  -28.4884   20.7065 C   0  0  0  0  0  0
  -26.0171  -26.7878   19.4891 C   0  0  0  0  0  0
  -24.8734  -27.6200   19.4875 C   0  0  0  0  0  0
  -23.6642  -29.7801   20.1523 C   0  0  0  0  0  0
  -25.4135  -36.2963   24.0331 C   0  0  1  0  0  0
  -20.5915  -28.3739   23.1268 C   0  0  2  0  0  0
  -20.6803  -26.9452   22.5401 C   0  0  0  0  0  0
  -19.5770  -26.6444   21.5207 C   0  0  0  0  0  0
  -18.1953  -26.7983   22.1615 C   0  0  0  0  0  0
  -19.1569  -28.8909   23.2879 C   0  0  0  0  0  0
  -18.9462  -30.1500   23.8916 C   0  0  0  0  0  0
  -17.6460  -30.6632   24.0590 C   0  0  0  0  0  0
  -25.9089  -34.9359   23.5047 C   0  0  0  0  0  0
  -16.5365  -29.9134   23.6346 C   0  0  0  0  0  0
  -16.7282  -28.6564   23.0342 C   0  0  0  0  0  0
  -26.4595  -31.6465   25.0560 C   0  0  0  0  0  0
  -25.3832  -31.3625   26.1280 C   0  0  0  0  0  0
  -27.0453  -30.2892   24.6006 C   0  0  0  0  0  0
  -27.6171  -32.4190   25.7333 C   0  0  0  0  0  0
  -27.5584  -37.1719   24.8488 C   0  0  0  0  0  0
  -21.4238  -29.3052   22.3623 N   0  0  0  0  0  0
  -26.4303  -37.3666   23.9422 N   0  0  0  0  0  0
  -24.7110  -31.0305   22.0846 N   0  0  0  0  0  0
  -23.4194  -28.8155   23.3023 O   0  0  0  0  0  0
  -28.3569  -26.3080   20.0761 O   0  0  0  0  0  0
  -26.5633  -34.8888   22.4594 O   0  0  0  0  0  0
  -23.5542  -32.1328   23.7061 O   0  0  0  0  0  0
  -27.1281  -18.4672   19.4564 C   0  0  0  0  0  0
  -26.9095  -17.8936   20.7295 C   0  0  0  0  0  0
  -28.4529  -18.7587   19.0699 C   0  0  0  0  0  0
  -28.0072  -17.3920   21.4779 C   0  0  0  0  0  0
  -29.3852  -18.7035   20.1177 C   0  0  0  0  0  0
  -29.3022  -17.4194   20.8863 C   0  0  0  0  0  0
  -29.5072  -22.7503   21.4038 C   0  0  0  0  0  0
  -30.5616  -22.7114   22.2462 C   0  0  0  0  0  0
  -28.5054  -23.9706   21.4106 C   0  0  0  0  0  0
  -27.9983  -23.6622   19.0375 C   0  0  0  0  0  0
  -28.0626  -22.0908   19.4970 C   0  0  0  0  0  0
  -28.4855  -24.7641   20.0806 C   0  0  1  0  0  0
  -27.7049  -16.6456   22.7698 C   0  0  0  0  0  0
  -29.4110  -20.1558   20.8904 C   0  0  0  0  0  0
  -29.5227  -15.9821   20.4012 N   0  0  0  0  0  0
  -29.2661  -21.6421   20.3305 N   0  3  2  0  0  0
  -31.4948  -12.7667   19.1652 H   0  0  0  0  0  0
  -30.5111  -11.6078   20.0133 H   0  0  0  0  0  0
  -29.8332  -11.6791   17.6030 H   0  0  0  0  0  0
  -29.5966  -13.4107   17.6764 H   0  0  0  0  0  0
  -27.9613  -11.2369   19.0027 H   0  0  0  0  0  0
  -27.3844  -12.3893   17.8320 H   0  0  0  0  0  0
  -27.6172  -14.2182   19.4251 H   0  0  0  0  0  0
  -28.7700  -12.1541   21.3635 H   0  0  0  0  0  0
  -28.3824  -13.7827   21.8247 H   0  0  0  0  0  0
  -25.2692   -9.5630   22.4745 H   0  0  0  0  0  0
  -23.9919   -7.4580   22.7454 H   0  0  0  0  0  0
  -21.0776   -8.8722   19.8953 H   0  0  0  0  0  0
  -22.3588  -10.9634   19.6178 H   0  0  0  0  0  0
  -21.1922   -7.6083   23.9686 H   0  0  0  0  0  0
  -21.1556   -6.0498   25.9096 H   0  0  0  0  0  0
  -22.0534   -2.7527   23.2941 H   0  0  0  0  0  0
  -22.4004  -11.9966   22.4983 H   0  0  0  0  0  0
  -21.1091  -13.1408   22.2729 H   0  0  0  0  0  0
  -24.5899  -15.7819   20.4734 H   0  0  0  0  0  0
  -26.1956  -15.6271   19.9766 H   0  0  0  0  0  0
  -26.7222  -32.5282   23.0886 H   0  0  0  0  0  0
  -25.0154  -33.9552   25.0346 H   0  0  0  0  0  0
  -22.7428  -31.2837   21.3684 H   0  0  0  0  0  0
  -23.3783  -35.9500   23.3286 H   0  0  0  0  0  0
  -24.3616  -36.8790   22.2050 H   0  0  0  0  0  0
  -23.7268  -37.6383   23.6671 H   0  0  0  0  0  0
  -26.1321  -31.4678   20.5901 H   0  0  0  0  0  0
  -26.8746  -30.7853   21.9975 H   0  0  0  0  0  0
  -28.1370  -28.8322   21.1770 H   0  0  0  0  0  0
  -25.9512  -25.8359   18.9836 H   0  0  0  0  0  0
  -23.9755  -27.2775   18.9929 H   0  0  0  0  0  0
  -23.7981  -30.5469   19.3898 H   0  0  0  0  0  0
  -22.7809  -29.2173   19.8455 H   0  0  0  0  0  0
  -25.1319  -36.1762   25.0826 H   0  0  0  0  0  0
  -21.0013  -28.3333   24.1388 H   0  0  0  0  0  0
  -20.5722  -26.2328   23.3585 H   0  0  0  0  0  0
  -21.6666  -26.7508   22.1173 H   0  0  0  0  0  0
  -19.6935  -25.6364   21.1201 H   0  0  0  0  0  0
  -19.6738  -27.3281   20.6753 H   0  0  0  0  0  0
  -17.4218  -26.6728   21.4035 H   0  0  0  0  0  0
  -18.0396  -26.0162   22.9045 H   0  0  0  0  0  0
  -19.7934  -30.7330   24.2312 H   0  0  0  0  0  0
  -17.5008  -31.6302   24.5177 H   0  0  0  0  0  0
  -15.5363  -30.3022   23.7686 H   0  0  0  0  0  0
  -15.8688  -28.0890   22.7032 H   0  0  0  0  0  0
  -24.6046  -30.6925   25.7614 H   0  0  0  0  0  0
  -24.8987  -32.2792   26.4632 H   0  0  0  0  0  0
  -25.8179  -30.8855   27.0067 H   0  0  0  0  0  0
  -26.3001  -29.6548   24.1175 H   0  0  0  0  0  0
  -27.4366  -29.7206   25.4450 H   0  0  0  0  0  0
  -27.8789  -30.4185   23.9097 H   0  0  0  0  0  0
  -27.2823  -33.3534   26.1851 H   0  0  0  0  0  0
  -28.4022  -32.6636   25.0166 H   0  0  0  0  0  0
  -28.0785  -31.8293   26.5257 H   0  0  0  0  0  0
  -28.2587  -38.0024   24.7510 H   0  0  0  0  0  0
  -28.1092  -36.2537   24.6362 H   0  0  0  0  0  0
  -27.2287  -37.1427   25.8889 H   0  0  0  0  0  0
  -20.9444  -29.8680   21.6746 H   0  0  0  0  0  0
  -26.0151  -38.2730   24.1427 H   0  0  0  0  0  0
  -26.2929  -18.7679   18.8382 H   0  0  0  0  0  0
  -25.8961  -17.7654   21.0910 H   0  0  0  0  0  0
  -28.5903  -19.4097   18.2182 H   0  0  0  0  0  0
  -30.7117  -23.4997   22.9729 H   0  0  0  0  0  0
  -31.3037  -21.9294   22.2598 H   0  0  0  0  0  0
  -28.7627  -24.6533   22.2188 H   0  0  0  0  0  0
  -27.4964  -23.6210   21.6437 H   0  0  0  0  0  0
  -26.9689  -23.8661   18.7544 H   0  0  0  0  0  0
  -28.5623  -23.7919   18.1074 H   0  0  0  0  0  0
  -27.9302  -21.4689   18.6137 H   0  0  0  0  0  0
  -27.1826  -21.8719   20.1022 H   0  0  0  0  0  0
  -29.5521  -24.7692   19.8461 H   0  0  0  0  0  0
  -27.4834  -15.5994   22.5889 H   0  0  0  0  0  0
  -26.8266  -17.0801   23.2496 H   0  0  0  0  0  0
  -28.5310  -16.7166   23.4742 H   0  0  0  0  0  0
  -30.3778  -20.1310   21.3906 H   0  0  0  0  0  0
  -28.6940  -20.0911   21.7060 H   0  0  0  0  0  0
  -28.6260  -15.5336   20.3165 H   0  0  0  0  0  0
  -30.0317  -21.7003   19.6762 H   0  0  0  0  0  0
  1 25  1  0  0  0
  1 30  2  0  0  0
  1 85  1  0  0  0
  2  3  1  0  0  0
  2 25  1  0  0  0
  2 87  1  0  0  0
  2 88  1  0  0  0
  3  4  1  0  0  0
  3 89  1  0  0  0
  3 90  1  0  0  0
  4  5  1  0  0  0
  4 91  1  0  0  0
  4 92  1  0  0  0
  5  6  1  0  0  0
  5 26  1  0  0  0
  5 93  1  0  0  0
  6 25  1  0  0  0
  6 94  1  0  0  0
  6 95  1  0  0  0
  7  8  2  0  0  0
  7 26  1  0  0  0
  7 29  1  0  0  0
  8  9  1  0  0  0
  8 22  1  0  0  0
  9 10  1  0  0  0
  9 27  2  0  0  0
 10 11  2  0  0  0
 10 15  1  0  0  0
 11 12  1  0  0  0
 11 96  1  0  0  0
 12 13  2  0  0  0
 12 97  1  0  0  0
 13 14  1  0  0  0
 13 31  1  0  0  0
 14 15  2  0  0  0
 14 98  1  0  0  0
 15 99  1  0  0  0
 16 17  2  0  0  0
 16 21  1  0  0  0
 16 31  1  0  0  0
 17 18  1  0  0  0
 17100  1  0  0  0
 18 19  2  0  0  0
 18101  1  0  0  0
 19 20  1  0  0  0
 19 24  1  0  0  0
 20 21  2  0  0  0
 20102  1  0  0  0
 21 23  1  0  0  0
 22 28  1  0  0  0
 22 32  2  0  0  0
 26 27  1  0  0  0
 28103  1  0  0  0
 28104  1  0  0  0
 29105  1  0  0  0
 29106  1  0  0  0
 33 34  1  0  0  0
 33 66  1  0  0  0
 33 70  2  0  0  0
 34 36  1  0  0  0
 34 59  1  0  0  0
 34107  1  0  0  0
 35 44  2  0  0  0
 35 45  1  0  0  0
 35 68  1  0  0  0
 36 56  1  0  0  0
 36108  1  0  0  0
 37 39  1  0  0  0
 37 47  1  0  0  0
 37 66  1  0  0  0
 37109  1  0  0  0
 38 43  2  0  0  0
 38 46  1  0  0  0
 38 47  1  0  0  0
 39 64  1  0  0  0
 39 67  2  0  0  0
 40 52  1  0  0  0
 40 53  2  0  0  0
 40 58  1  0  0  0
 41110  1  0  0  0
 41111  1  0  0  0
 41112  1  0  0  0
 41 48  1  0  0  0
 42 43  1  0  0  0
 42 66  1  0  0  0
 42113  1  0  0  0
 42114  1  0  0  0
 43 44  1  0  0  0
 44115  1  0  0  0
 45 46  2  0  0  0
 45116  1  0  0  0
 46117  1  0  0  0
 47118  1  0  0  0
 47119  1  0  0  0
 48 56  1  0  0  0
 48 65  1  0  0  0
 48120  1  0  0  0
 49 50  1  0  0  0
 49 53  1  0  0  0
 49 64  1  0  0  0
 49121  1  0  0  0
 50 51  1  0  0  0
 50122  1  0  0  0
 50123  1  0  0  0
 51 52  1  0  0  0
 51124  1  0  0  0
 51125  1  0  0  0
 52126  1  0  0  0
 52127  1  0  0  0
 53 54  1  0  0  0
 54 55  2  0  0  0
 54128  1  0  0  0
 55 57  1  0  0  0
 55129  1  0  0  0
 56 69  2  0  0  0
 57 58  2  0  0  0
 57130  1  0  0  0
 58131  1  0  0  0
 59 60  1  0  0  0
 59 61  1  0  0  0
 59 62  1  0  0  0
 60132  1  0  0  0
 60133  1  0  0  0
 60134  1  0  0  0
 61135  1  0  0  0
 61136  1  0  0  0
 61137  1  0  0  0
 62138  1  0  0  0
 62139  1  0  0  0
 62140  1  0  0  0
 63 65  1  0  0  0
 63141  1  0  0  0
 63142  1  0  0  0
 63143  1  0  0  0
 64144  1  0  0  0
 65145  1  0  0  0
 68 82  1  0  0  0
 71 72  2  0  0  0
 71 73  1  0  0  0
 71146  1  0  0  0
 72 74  1  0  0  0
 72147  1  0  0  0
 73 75  2  0  0  0
 73148  1  0  0  0
 74 76  2  0  0  0
 74 83  1  0  0  0
 75 76  1  0  0  0
 75 84  1  0  0  0
 76 85  1  0  0  0
 77 78  2  0  0  0
 77 79  1  0  0  0
 77 86  1  0  0  0
 78149  1  0  0  0
 78150  1  0  0  0
 79 82  1  0  0  0
 79151  1  0  0  0
 79152  1  0  0  0
 80 81  1  0  0  0
 80 82  1  0  0  0
 80153  1  0  0  0
 80154  1  0  0  0
 81 86  1  0  0  0
 81155  1  0  0  0
 81156  1  0  0  0
 82157  1  0  0  0
 83158  1  0  0  0
 83159  1  0  0  0
 83160  1  0  0  0
 84161  1  0  0  0
 84162  1  0  0  0
 84 86  1  0  0  0
 85163  1  0  0  0
 86164  1  0  0  0
M  CHG  1  86   1
M  ISO  4   1 100  68 101  82 101  85 100
M  END
> <chiral flag>
0

> <version>
0

> <s_m_source_file>
/data/baiqing/PycharmProjects/Reinvent-master-3.2/result/LINK_invent/BTK/process_docking_weight1_custom_product_contain_oxygen_bond_distance_aromatic_linkinvent_7_9_3/rearranged_h_0048.sdf

> <i_m_source_file_index>
17

> <r_mmod_Potential_Energy-OPLS-2005>
739.142456054688

> <r_mmod_Stretch_Energy-OPLS-2005>
228.423294067383

> <r_mmod_Bend_Energy-OPLS-2005>
398.788177490234

> <r_mmod_Torsional_Energy-OPLS-2005>
496.692626953125

> <r_mmod_Improper_Torsional_Energy-OPLS-2005>
56.5845832824707

> <r_mmod_Van_der_Waal_Energy-OPLS-2005>
142.354705810547

> <r_mmod_Electrostatic_Energy-OPLS-2005>
-305.006408691406

> <r_mmod_Solvation_Energy-OPLS-2005>
-442.481323242188

> <b_mmod_Minimization_Converged-OPLS-2005>
0

> <r_mmod_RMS_Derivative-OPLS-2005>
7.96139430999756

$$$$
17
                    3D
 Structure written by MMmdl.
164173  0  0  1  0            999 V2000
  -30.6109  -14.7340   20.4603 C   0  0  0  0  0  0
  -30.4336  -12.4461   19.4668 C   0  0  0  0  0  0
  -29.5099  -12.5013   18.2302 C   0  0  0  0  0  0
  -28.0360  -12.3248   18.6460 C   0  0  0  0  0  0
  -27.6414  -13.2259   19.8467 C   0  0  2  0  0  0
  -28.6864  -13.1569   20.9814 C   0  0  0  0  0  0
  -25.2517  -13.8167   20.5690 C   0  0  0  0  0  0
  -24.1802  -13.0421   20.9194 C   0  0  0  0  0  0
  -24.6387  -11.6899   20.8745 C   0  0  0  0  0  0
  -23.9058  -10.4281   21.0404 C   0  0  0  0  0  0
  -24.3613   -9.4205   21.9185 C   0  0  0  0  0  0
  -23.6289   -8.2246   22.0762 C   0  0  0  0  0  0
  -22.4271   -8.0282   21.3548 C   0  0  0  0  0  0
  -21.9905   -9.0250   20.4650 C   0  0  0  0  0  0
  -22.7233  -10.2125   20.3054 C   0  0  0  0  0  0
  -21.6852   -6.0735   22.5279 C   0  0  0  0  0  0
  -21.4012   -6.5640   23.8211 C   0  0  0  0  0  0
  -21.3653   -5.6793   24.9175 C   0  0  0  0  0  0
  -21.6039   -4.3055   24.7222 C   0  0  0  0  0  0
  -21.8823   -3.8145   23.4344 C   0  0  0  0  0  0
  -21.9195   -4.6964   22.3402 C   0  0  0  0  0  0
  -22.7828  -13.5219   21.1849 C   0  0  0  0  0  0
  -22.1664   -4.2152   21.0978 F   0  0  0  0  0  0
  -21.5622   -3.4538   25.7733 F   0  0  0  0  0  0
  -29.9865  -13.5083   20.3967 N   0  0  0  0  0  0
  -26.2933  -12.9369   20.3256 N   0  0  0  0  0  0
  -25.9310  -11.6514   20.5727 N   0  0  0  0  0  0
  -22.0466  -12.8217   22.0405 N   0  0  0  0  0  0
  -25.4205  -15.1892   20.4118 N   0  0  0  0  0  0
  -31.8050  -14.8169   20.1591 O   0  0  0  0  0  0
  -21.6641   -6.8876   21.4239 O   0  0  0  0  0  0
  -22.3528  -14.5532   20.6699 O   0  0  0  0  0  0
  -24.6309  -31.8522   23.1948 C   0  0  0  0  0  0
  -25.9124  -32.4746   23.8308 C   0  0  1  0  0  0
  -27.2277  -27.2509   20.1211 C   0  0  0  0  0  0
  -25.5923  -33.8551   24.2239 N   0  0  0  0  0  0
  -23.4284  -30.4710   21.5404 C   0  0  2  0  0  0
  -24.8747  -28.9139   20.1058 C   0  0  0  0  0  0
  -22.7506  -29.4560   22.4938 C   0  0  0  0  0  0
  -18.0284  -28.1386   22.8494 C   0  0  0  0  0  0
  -24.1480  -36.7270   23.2648 C   0  0  0  0  0  0
  -25.9744  -30.7607   21.3743 C   0  0  0  0  0  0
  -26.0446  -29.3823   20.7158 C   0  0  0  0  0  0
  -27.2169  -28.5600   20.7145 C   0  0  0  0  0  0
  -26.0299  -26.8453   19.4917 C   0  0  0  0  0  0
  -24.8740  -27.6539   19.4863 C   0  0  0  0  0  0
  -23.6428  -29.7992   20.1571 C   0  0  0  0  0  0
  -25.4114  -36.3070   24.0327 C   0  0  1  0  0  0
  -20.5885  -28.3663   23.1301 C   0  0  2  0  0  0
  -20.6767  -26.9390   22.5427 C   0  0  0  0  0  0
  -19.5748  -26.6364   21.5233 C   0  0  0  0  0  0
  -18.1920  -26.7936   22.1620 C   0  0  0  0  0  0
  -19.1535  -28.8848   23.2886 C   0  0  0  0  0  0
  -18.9464  -30.1467   23.8880 C   0  0  0  0  0  0
  -17.6465  -30.6591   24.0565 C   0  0  0  0  0  0
  -25.9052  -34.9439   23.5084 C   0  0  0  0  0  0
  -16.5352  -29.9085   23.6353 C   0  0  0  0  0  0
  -16.7267  -28.6504   23.0366 C   0  0  0  0  0  0
  -26.4483  -31.6602   25.0721 C   0  0  0  0  0  0
  -25.3697  -31.3761   26.1443 C   0  0  0  0  0  0
  -27.0353  -30.3034   24.6202 C   0  0  0  0  0  0
  -27.6038  -32.4353   25.7489 C   0  0  0  0  0  0
  -27.5579  -37.1797   24.8474 C   0  0  0  0  0  0
  -21.4206  -29.3022   22.3709 N   0  0  0  0  0  0
  -26.4291  -37.3776   23.9418 N   0  0  0  0  0  0
  -24.6976  -31.0474   22.0929 N   0  0  0  0  0  0
  -23.4213  -28.8105   23.3030 O   0  0  0  0  0  0
  -28.3463  -26.3885   20.2221 O   0  0  0  0  0  0
  -26.5640  -34.8921   22.4666 O   0  0  0  0  0  0
  -23.5451  -32.1342   23.7235 O   0  0  0  0  0  0
  -31.7871  -19.0275   21.3969 C   0  0  0  0  0  0
  -31.4363  -17.6840   21.1797 C   0  0  0  0  0  0
  -30.8832  -20.0911   21.1826 C   0  0  0  0  0  0
  -29.5773  -19.8467   20.6759 C   0  0  0  0  0  0
  -29.2340  -18.4317   20.4658 C   0  0  0  0  0  0
  -30.1528  -17.3183   20.7244 C   0  0  0  0  0  0
  -28.3527  -23.7002   20.4483 C   0  0  0  0  0  0
  -30.5028  -23.6995   18.5231 C   0  0  0  0  0  0
  -29.8811  -25.0730   18.8784 C   0  0  0  0  0  0
  -29.5481  -22.4981   18.6868 C   0  0  0  0  0  0
  -28.4934  -25.0387   19.5607 C   0  0  2  0  0  0
  -31.3650  -21.4813   21.5625 C   0  0  0  0  0  0
  -27.8391  -18.1028   19.9564 C   0  0  0  0  0  0
  -28.5365  -21.0706   20.5071 C   0  0  0  0  0  0
  -28.8692  -22.4845   19.9864 N   0  0  0  0  0  0
  -29.8179  -15.8679   20.6200 N   0  0  0  0  0  0
  -27.7268  -23.7650   21.5089 O   0  0  0  0  0  0
  -31.4741  -12.5699   19.1626 H   0  0  0  0  0  0
  -30.3776  -11.4673   19.9463 H   0  0  0  0  0  0
  -29.7913  -11.7277   17.5137 H   0  0  0  0  0  0
  -29.6374  -13.4563   17.7167 H   0  0  0  0  0  0
  -27.8968  -11.2755   18.9110 H   0  0  0  0  0  0
  -27.3780  -12.5121   17.7970 H   0  0  0  0  0  0
  -27.6365  -14.2467   19.4651 H   0  0  0  0  0  0
  -28.7185  -12.1570   21.4184 H   0  0  0  0  0  0
  -28.4221  -13.8369   21.7926 H   0  0  0  0  0  0
  -25.2758   -9.5686   22.4761 H   0  0  0  0  0  0
  -23.9995   -7.4639   22.7488 H   0  0  0  0  0  0
  -21.0838   -8.8761   19.8958 H   0  0  0  0  0  0
  -22.3689  -10.9661   19.6165 H   0  0  0  0  0  0
  -21.2006   -7.6150   23.9715 H   0  0  0  0  0  0
  -21.1462   -6.0522   25.9076 H   0  0  0  0  0  0
  -22.0605   -2.7609   23.2841 H   0  0  0  0  0  0
  -22.4075  -11.9875   22.4789 H   0  0  0  0  0  0
  -21.1086  -13.1253   22.2600 H   0  0  0  0  0  0
  -24.6511  -15.8389   20.5291 H   0  0  0  0  0  0
  -26.2576  -15.6272   20.0547 H   0  0  0  0  0  0
  -26.7196  -32.5366   23.1051 H   0  0  0  0  0  0
  -25.0130  -33.9705   25.0423 H   0  0  0  0  0  0
  -22.7257  -31.2926   21.3926 H   0  0  0  0  0  0
  -23.3761  -35.9585   23.3304 H   0  0  0  0  0  0
  -24.3579  -36.8899   22.2069 H   0  0  0  0  0  0
  -23.7207  -37.6456   23.6668 H   0  0  0  0  0  0
  -26.1186  -31.5200   20.6041 H   0  0  0  0  0  0
  -26.8515  -30.8081   22.0081 H   0  0  0  0  0  0
  -28.1106  -28.9119   21.2095 H   0  0  0  0  0  0
  -25.9400  -25.8742   19.0310 H   0  0  0  0  0  0
  -23.9743  -27.2830   19.0148 H   0  0  0  0  0  0
  -23.7590  -30.5719   19.3967 H   0  0  0  0  0  0
  -22.7607  -29.2277   19.8583 H   0  0  0  0  0  0
  -25.1300  -36.1923   25.0819 H   0  0  0  0  0  0
  -20.9967  -28.3200   24.1423 H   0  0  0  0  0  0
  -20.5685  -26.2263   23.3616 H   0  0  0  0  0  0
  -21.6633  -26.7425   22.1216 H   0  0  0  0  0  0
  -19.6913  -25.6272   21.1264 H   0  0  0  0  0  0
  -19.6700  -27.3172   20.6766 H   0  0  0  0  0  0
  -17.4214  -26.6717   21.3993 H   0  0  0  0  0  0
  -18.0271  -26.0068   22.8991 H   0  0  0  0  0  0
  -19.7942  -30.7300   24.2200 H   0  0  0  0  0  0
  -17.5022  -31.6269   24.5169 H   0  0  0  0  0  0
  -15.5358  -30.2994   23.7690 H   0  0  0  0  0  0
  -15.8657  -28.0831   22.7093 H   0  0  0  0  0  0
  -24.5907  -30.7053   25.7805 H   0  0  0  0  0  0
  -24.8836  -32.2924   26.4791 H   0  0  0  0  0  0
  -25.8012  -30.9029   27.0274 H   0  0  0  0  0  0
  -26.2945  -29.6782   24.1206 H   0  0  0  0  0  0
  -27.4062  -29.7291   25.4708 H   0  0  0  0  0  0
  -27.8793  -30.4370   23.9438 H   0  0  0  0  0  0
  -27.2663  -33.3706   26.1961 H   0  0  0  0  0  0
  -28.3882  -32.6822   25.0326 H   0  0  0  0  0  0
  -28.0646  -31.8540   26.5487 H   0  0  0  0  0  0
  -28.2604  -38.0090   24.7529 H   0  0  0  0  0  0
  -28.1065  -36.2624   24.6280 H   0  0  0  0  0  0
  -27.2305  -37.1427   25.8882 H   0  0  0  0  0  0
  -20.9381  -29.8784   21.6958 H   0  0  0  0  0  0
  -26.0162  -38.2847   24.1422 H   0  0  0  0  0  0
  -32.7782  -19.2377   21.7765 H   0  0  0  0  0  0
  -32.1772  -16.9323   21.4125 H   0  0  0  0  0  0
  -31.3797  -23.5449   19.1515 H   0  0  0  0  0  0
  -30.8853  -23.7189   17.5022 H   0  0  0  0  0  0
  -29.8038  -25.6754   17.9719 H   0  0  0  0  0  0
  -30.5836  -25.6127   19.5158 H   0  0  0  0  0  0
  -30.1030  -21.5711   18.5400 H   0  0  0  0  0  0
  -28.7909  -22.5209   17.9010 H   0  0  0  0  0  0
  -27.7710  -24.9281   18.7552 H   0  0  0  0  0  0
  -32.1463  -21.4305   22.3230 H   0  0  0  0  0  0
  -30.5698  -22.0979   21.9805 H   0  0  0  0  0  0
  -31.7898  -21.9806   20.6946 H   0  0  0  0  0  0
  -27.0874  -18.3975   20.6892 H   0  0  0  0  0  0
  -27.7015  -17.0434   19.7470 H   0  0  0  0  0  0
  -27.6432  -18.6313   19.0234 H   0  0  0  0  0  0
  -28.0614  -21.1823   21.4817 H   0  0  0  0  0  0
  -27.7348  -20.7343   19.8528 H   0  0  0  0  0  0
  -28.8352  -15.6544   20.6829 H   0  0  0  0  0  0
  1 25  1  0  0  0
  1 30  2  0  0  0
  1 86  1  0  0  0
  2  3  1  0  0  0
  2 25  1  0  0  0
  2 88  1  0  0  0
  2 89  1  0  0  0
  3  4  1  0  0  0
  3 90  1  0  0  0
  3 91  1  0  0  0
  4  5  1  0  0  0
  4 92  1  0  0  0
  4 93  1  0  0  0
  5  6  1  0  0  0
  5 26  1  0  0  0
  5 94  1  0  0  0
  6 25  1  0  0  0
  6 95  1  0  0  0
  6 96  1  0  0  0
  7  8  2  0  0  0
  7 26  1  0  0  0
  7 29  1  0  0  0
  8  9  1  0  0  0
  8 22  1  0  0  0
  9 10  1  0  0  0
  9 27  2  0  0  0
 10 11  2  0  0  0
 10 15  1  0  0  0
 11 12  1  0  0  0
 11 97  1  0  0  0
 12 13  2  0  0  0
 12 98  1  0  0  0
 13 14  1  0  0  0
 13 31  1  0  0  0
 14 15  2  0  0  0
 14 99  1  0  0  0
 15100  1  0  0  0
 16 17  2  0  0  0
 16 21  1  0  0  0
 16 31  1  0  0  0
 17 18  1  0  0  0
 17101  1  0  0  0
 18 19  2  0  0  0
 18102  1  0  0  0
 19 20  1  0  0  0
 19 24  1  0  0  0
 20 21  2  0  0  0
 20103  1  0  0  0
 21 23  1  0  0  0
 22 28  1  0  0  0
 22 32  2  0  0  0
 26 27  1  0  0  0
 28104  1  0  0  0
 28105  1  0  0  0
 29106  1  0  0  0
 29107  1  0  0  0
 33 34  1  0  0  0
 33 66  1  0  0  0
 33 70  2  0  0  0
 34 36  1  0  0  0
 34 59  1  0  0  0
 34108  1  0  0  0
 35 44  2  0  0  0
 35 45  1  0  0  0
 35 68  1  0  0  0
 36 56  1  0  0  0
 36109  1  0  0  0
 37 39  1  0  0  0
 37 47  1  0  0  0
 37 66  1  0  0  0
 37110  1  0  0  0
 38 43  2  0  0  0
 38 46  1  0  0  0
 38 47  1  0  0  0
 39 64  1  0  0  0
 39 67  2  0  0  0
 40 52  1  0  0  0
 40 53  2  0  0  0
 40 58  1  0  0  0
 41111  1  0  0  0
 41112  1  0  0  0
 41113  1  0  0  0
 41 48  1  0  0  0
 42 43  1  0  0  0
 42 66  1  0  0  0
 42114  1  0  0  0
 42115  1  0  0  0
 43 44  1  0  0  0
 44116  1  0  0  0
 45 46  2  0  0  0
 45117  1  0  0  0
 46118  1  0  0  0
 47119  1  0  0  0
 47120  1  0  0  0
 48 56  1  0  0  0
 48 65  1  0  0  0
 48121  1  0  0  0
 49 50  1  0  0  0
 49 53  1  0  0  0
 49 64  1  0  0  0
 49122  1  0  0  0
 50 51  1  0  0  0
 50123  1  0  0  0
 50124  1  0  0  0
 51 52  1  0  0  0
 51125  1  0  0  0
 51126  1  0  0  0
 52127  1  0  0  0
 52128  1  0  0  0
 53 54  1  0  0  0
 54 55  2  0  0  0
 54129  1  0  0  0
 55 57  1  0  0  0
 55130  1  0  0  0
 56 69  2  0  0  0
 57 58  2  0  0  0
 57131  1  0  0  0
 58132  1  0  0  0
 59 60  1  0  0  0
 59 61  1  0  0  0
 59 62  1  0  0  0
 60133  1  0  0  0
 60134  1  0  0  0
 60135  1  0  0  0
 61136  1  0  0  0
 61137  1  0  0  0
 61138  1  0  0  0
 62139  1  0  0  0
 62140  1  0  0  0
 62141  1  0  0  0
 63 65  1  0  0  0
 63142  1  0  0  0
 63143  1  0  0  0
 63144  1  0  0  0
 64145  1  0  0  0
 65146  1  0  0  0
 68 81  1  0  0  0
 71 72  2  0  0  0
 71 73  1  0  0  0
 71147  1  0  0  0
 72 76  1  0  0  0
 72148  1  0  0  0
 73 74  2  0  0  0
 73 82  1  0  0  0
 74 75  1  0  0  0
 74 84  1  0  0  0
 75 76  2  0  0  0
 75 83  1  0  0  0
 76 86  1  0  0  0
 77 81  1  0  0  0
 77 85  1  0  0  0
 77 87  2  0  0  0
 78 79  1  0  0  0
 78 80  1  0  0  0
 78149  1  0  0  0
 78150  1  0  0  0
 79 81  1  0  0  0
 79151  1  0  0  0
 79152  1  0  0  0
 80 85  1  0  0  0
 80153  1  0  0  0
 80154  1  0  0  0
 81155  1  0  0  0
 82156  1  0  0  0
 82157  1  0  0  0
 82158  1  0  0  0
 83159  1  0  0  0
 83160  1  0  0  0
 83161  1  0  0  0
 84 85  1  0  0  0
 84162  1  0  0  0
 84163  1  0  0  0
 86164  1  0  0  0
M  ISO  4   1 100  68 101  81 101  86 100
M  END
> <chiral flag>
0

> <version>
0

> <s_m_source_file>
/data/baiqing/PycharmProjects/Reinvent-master-3.2/result/LINK_invent/BTK/process_docking_weight1_custom_product_contain_oxygen_bond_distance_aromatic_linkinvent_7_9_3/rearranged_h_0048.sdf

> <i_m_source_file_index>
18

> <r_mmod_Potential_Energy-OPLS-2005>
227.776519775391

> <r_mmod_Stretch_Energy-OPLS-2005>
144.085372924805

> <r_mmod_Bend_Energy-OPLS-2005>
184.228210449219

> <r_mmod_Torsional_Energy-OPLS-2005>
247.96891784668

> <r_mmod_Improper_Torsional_Energy-OPLS-2005>
7.25725126266479

> <r_mmod_Van_der_Waal_Energy-OPLS-2005>
146.975189208984

> <r_mmod_Electrostatic_Energy-OPLS-2005>
-355.822052001953

> <r_mmod_Solvation_Energy-OPLS-2005>
-231.152877807617

> <b_mmod_Minimization_Converged-OPLS-2005>
0

> <r_mmod_RMS_Derivative-OPLS-2005>
2.08424782752991

$$$$
18
                    3D
 Structure written by MMmdl.
172181  0  0  1  0            999 V2000
  -30.7896  -14.3136   20.7762 C   0  0  0  0  0  0
  -30.4298  -12.2940   19.3946 C   0  0  0  0  0  0
  -29.4963  -12.5489   18.1986 C   0  0  0  0  0  0
  -28.0217  -12.3817   18.6115 C   0  0  0  0  0  0
  -27.6730  -13.1996   19.8817 C   0  0  2  0  0  0
  -28.7023  -12.9291   21.0001 C   0  0  0  0  0  0
  -25.2642  -13.8162   20.5636 C   0  0  0  0  0  0
  -24.1888  -13.0446   20.9159 C   0  0  0  0  0  0
  -24.6434  -11.6906   20.8729 C   0  0  0  0  0  0
  -23.9085  -10.4288   21.0396 C   0  0  0  0  0  0
  -24.3632   -9.4206   21.9174 C   0  0  0  0  0  0
  -23.6297   -8.2249   22.0755 C   0  0  0  0  0  0
  -22.4277   -8.0287   21.3547 C   0  0  0  0  0  0
  -21.9915   -9.0260   20.4648 C   0  0  0  0  0  0
  -22.7257  -10.2132   20.3047 C   0  0  0  0  0  0
  -21.6842   -6.0744   22.5282 C   0  0  0  0  0  0
  -21.4004   -6.5641   23.8219 C   0  0  0  0  0  0
  -21.3662   -5.6793   24.9183 C   0  0  0  0  0  0
  -21.6044   -4.3053   24.7222 C   0  0  0  0  0  0
  -21.8819   -3.8149   23.4339 C   0  0  0  0  0  0
  -21.9188   -4.6973   22.3401 C   0  0  0  0  0  0
  -22.7904  -13.5245   21.1826 C   0  0  0  0  0  0
  -22.1656   -4.2167   21.0975 F   0  0  0  0  0  0
  -21.5637   -3.4528   25.7728 F   0  0  0  0  0  0
  -30.0563  -13.2110   20.4809 N   0  0  0  0  0  0
  -26.3077  -12.9314   20.3349 N   0  0  0  0  0  0
  -25.9354  -11.6475   20.5750 N   0  0  0  0  0  0
  -22.0537  -12.8237   22.0385 N   0  0  0  0  0  0
  -25.4354  -15.1866   20.3983 N   0  0  0  0  0  0
  -31.7476  -14.6982   20.0965 O   0  0  0  0  0  0
  -21.6633   -6.8890   21.4248 O   0  0  0  0  0  0
  -22.3582  -14.5550   20.6687 O   0  0  0  0  0  0
  -24.6128  -31.8692   23.2128 C   0  0  0  0  0  0
  -25.9044  -32.4809   23.8412 C   0  0  1  0  0  0
  -27.2407  -27.4621   20.1183 C   0  0  0  0  0  0
  -25.5957  -33.8622   24.2340 N   0  0  0  0  0  0
  -23.3963  -30.4934   21.5503 C   0  0  2  0  0  0
  -24.8459  -28.9594   20.1167 C   0  0  0  0  0  0
  -22.7361  -29.4683   22.4988 C   0  0  0  0  0  0
  -18.0263  -28.1406   22.8484 C   0  0  0  0  0  0
  -24.1492  -36.7312   23.2633 C   0  0  0  0  0  0
  -25.9181  -30.8506   21.3534 C   0  0  0  0  0  0
  -25.9999  -29.4843   20.7095 C   0  0  0  0  0  0
  -27.1987  -28.7432   20.7069 C   0  0  0  0  0  0
  -26.0746  -26.9445   19.5170 C   0  0  0  0  0  0
  -24.8797  -27.6910   19.5116 C   0  0  0  0  0  0
  -23.6022  -29.8187   20.1658 C   0  0  0  0  0  0
  -25.4102  -36.3112   24.0333 C   0  0  1  0  0  0
  -20.5848  -28.3687   23.1321 C   0  0  2  0  0  0
  -20.6758  -26.9425   22.5430 C   0  0  0  0  0  0
  -19.5753  -26.6400   21.5227 C   0  0  0  0  0  0
  -18.1917  -26.7940   22.1612 C   0  0  0  0  0  0
  -19.1510  -28.8853   23.2896 C   0  0  0  0  0  0
  -18.9427  -30.1440   23.8915 C   0  0  0  0  0  0
  -17.6450  -30.6586   24.0574 C   0  0  0  0  0  0
  -25.9055  -34.9479   23.5116 C   0  0  0  0  0  0
  -16.5336  -29.9095   23.6361 C   0  0  0  0  0  0
  -16.7242  -28.6516   23.0351 C   0  0  0  0  0  0
  -26.4494  -31.6561   25.0707 C   0  0  0  0  0  0
  -25.3746  -31.3695   26.1435 C   0  0  0  0  0  0
  -27.0327  -30.3009   24.6054 C   0  0  0  0  0  0
  -27.6077  -32.4278   25.7467 C   0  0  0  0  0  0
  -27.5559  -37.1792   24.8448 C   0  0  0  0  0  0
  -21.4084  -29.3068   22.3711 N   0  0  0  0  0  0
  -26.4260  -37.3817   23.9417 N   0  0  0  0  0  0
  -24.6613  -31.0837   22.0999 N   0  0  0  0  0  0
  -23.4119  -28.8207   23.3024 O   0  0  0  0  0  0
  -28.4212  -26.7569   20.1296 O   0  0  0  0  0  0
  -26.5587  -34.8929   22.4658 O   0  0  0  0  0  0
  -23.5336  -32.1399   23.7568 O   0  0  0  0  0  0
  -31.8084  -18.3331   22.0203 C   0  0  0  0  0  0
  -31.5899  -19.5817   21.4241 C   0  0  0  0  0  0
  -29.5343  -17.6784   21.4442 C   0  0  0  0  0  0
  -30.7935  -17.3624   22.0138 C   0  0  0  0  0  0
  -29.3005  -18.9313   20.8209 C   0  0  0  0  0  0
  -30.3662  -19.8799   20.8030 C   0  0  0  0  0  0
  -27.4858  -23.2635   19.6086 C   0  0  0  0  0  0
  -26.9172  -20.9826   18.6453 C   0  0  0  0  0  0
  -24.6478  -18.3929   17.2971 C   0  0  0  0  0  0
  -28.2367  -24.3876   19.6049 C   0  0  0  0  0  0
  -25.9928  -20.3396   17.8996 C   0  0  0  0  0  0
  -25.3035  -19.1062   18.2259 C   0  0  0  0  0  0
  -27.4544  -22.3804   18.3550 C   0  0  0  0  0  0
  -26.6468  -22.7440   20.7854 C   0  0  0  0  0  0
  -26.9117  -21.2386   21.1119 C   0  0  0  0  0  0
  -31.1078  -15.9950   22.6110 C   0  0  0  0  0  0
  -27.9424  -19.1386   20.1183 C   0  0  0  0  0  0
  -28.3715  -25.4402   20.6901 C   0  0  0  0  0  0
  -30.4583  -14.8741   21.9435 N   0  0  0  0  0  0
  -27.5089  -20.5489   19.9448 N   0  3  1  0  0  0
  -30.2791  -21.4212   20.0298 Cl  0  0  0  0  0  0
  -31.4748  -12.4105   19.0980 H   0  0  0  0  0  0
  -30.3411  -11.2613   19.7363 H   0  0  0  0  0  0
  -29.7401  -11.8717   17.3791 H   0  0  0  0  0  0
  -29.6637  -13.5598   17.8242 H   0  0  0  0  0  0
  -27.8426  -11.3213   18.7900 H   0  0  0  0  0  0
  -27.3666  -12.6678   17.7881 H   0  0  0  0  0  0
  -27.7382  -14.2554   19.6166 H   0  0  0  0  0  0
  -28.6574  -11.8871   21.3172 H   0  0  0  0  0  0
  -28.4315  -13.5084   21.8828 H   0  0  0  0  0  0
  -25.2781   -9.5665   22.4753 H   0  0  0  0  0  0
  -24.0002   -7.4625   22.7462 H   0  0  0  0  0  0
  -21.0851   -8.8773   19.8936 H   0  0  0  0  0  0
  -22.3725  -10.9671   19.6146 H   0  0  0  0  0  0
  -21.1985   -7.6149   23.9733 H   0  0  0  0  0  0
  -21.1490   -6.0516   25.9090 H   0  0  0  0  0  0
  -22.0602   -2.7617   23.2828 H   0  0  0  0  0  0
  -22.4108  -11.9851   22.4733 H   0  0  0  0  0  0
  -21.1159  -13.1275   22.2596 H   0  0  0  0  0  0
  -24.6568  -15.8317   20.4633 H   0  0  0  0  0  0
  -26.2762  -15.6092   20.0268 H   0  0  0  0  0  0
  -26.7094  -32.5534   23.1173 H   0  0  0  0  0  0
  -25.0200  -33.9840   25.0543 H   0  0  0  0  0  0
  -22.6872  -31.3120   21.4058 H   0  0  0  0  0  0
  -23.3773  -35.9638   23.3294 H   0  0  0  0  0  0
  -24.3601  -36.8924   22.2057 H   0  0  0  0  0  0
  -23.7255  -37.6514   23.6649 H   0  0  0  0  0  0
  -26.0139  -31.6114   20.5762 H   0  0  0  0  0  0
  -26.8135  -30.9180   21.9598 H   0  0  0  0  0  0
  -28.0848  -29.1496   21.1738 H   0  0  0  0  0  0
  -26.0834  -25.9744   19.0414 H   0  0  0  0  0  0
  -24.0005  -27.2834   19.0355 H   0  0  0  0  0  0
  -23.6945  -30.5876   19.3985 H   0  0  0  0  0  0
  -22.7298  -29.2262   19.8843 H   0  0  0  0  0  0
  -25.1282  -36.1982   25.0828 H   0  0  0  0  0  0
  -20.9915  -28.3278   24.1453 H   0  0  0  0  0  0
  -20.5734  -26.2284   23.3624 H   0  0  0  0  0  0
  -21.6622  -26.7556   22.1180 H   0  0  0  0  0  0
  -19.6960  -25.6326   21.1238 H   0  0  0  0  0  0
  -19.6714  -27.3221   20.6770 H   0  0  0  0  0  0
  -17.4216  -26.6705   21.3979 H   0  0  0  0  0  0
  -18.0275  -26.0076   22.8984 H   0  0  0  0  0  0
  -19.7919  -30.7229   24.2296 H   0  0  0  0  0  0
  -17.5033  -31.6291   24.5151 H   0  0  0  0  0  0
  -15.5345  -30.3017   23.7694 H   0  0  0  0  0  0
  -15.8620  -28.0852   22.7076 H   0  0  0  0  0  0
  -24.5965  -30.6979   25.7773 H   0  0  0  0  0  0
  -24.8885  -32.2858   26.4794 H   0  0  0  0  0  0
  -25.8059  -30.8940   27.0241 H   0  0  0  0  0  0
  -26.2865  -29.6738   24.1144 H   0  0  0  0  0  0
  -27.4150  -29.7268   25.4506 H   0  0  0  0  0  0
  -27.8661  -30.4329   23.9146 H   0  0  0  0  0  0
  -27.2720  -33.3595   26.2031 H   0  0  0  0  0  0
  -28.3899  -32.6789   25.0289 H   0  0  0  0  0  0
  -28.0716  -31.8395   26.5393 H   0  0  0  0  0  0
  -28.2557  -38.0109   24.7546 H   0  0  0  0  0  0
  -28.1046  -36.2637   24.6182 H   0  0  0  0  0  0
  -27.2267  -37.1347   25.8845 H   0  0  0  0  0  0
  -20.9203  -29.8758   21.6923 H   0  0  0  0  0  0
  -26.0129  -38.2870   24.1481 H   0  0  0  0  0  0
  -32.7717  -18.1159   22.4597 H   0  0  0  0  0  0
  -32.3818  -20.3145   21.4122 H   0  0  0  0  0  0
  -28.7481  -16.9355   21.4531 H   0  0  0  0  0  0
  -24.1185  -17.4864   17.5571 H   0  0  0  0  0  0
  -24.6280  -18.6937   16.2582 H   0  0  0  0  0  0
  -28.8250  -24.5997   18.7246 H   0  0  0  0  0  0
  -25.6741  -20.8447   16.9955 H   0  0  0  0  0  0
  -25.2704  -18.7542   19.2465 H   0  0  0  0  0  0
  -28.4519  -22.3061   17.9239 H   0  0  0  0  0  0
  -26.8312  -22.8659   17.6020 H   0  0  0  0  0  0
  -25.5980  -22.8668   20.5080 H   0  0  0  0  0  0
  -26.7940  -23.3344   21.6884 H   0  0  0  0  0  0
  -25.9810  -20.7478   21.4038 H   0  0  0  0  0  0
  -27.5895  -21.1522   21.9601 H   0  0  0  0  0  0
  -30.8012  -15.9935   23.6572 H   0  0  0  0  0  0
  -32.1869  -15.8318   22.6184 H   0  0  0  0  0  0
  -27.1613  -18.5747   20.6306 H   0  0  0  0  0  0
  -28.0467  -18.6875   19.1319 H   0  0  0  0  0  0
  -29.3167  -25.2684   21.2065 H   0  0  0  0  0  0
  -27.5863  -25.3609   21.4428 H   0  0  0  0  0  0
  -29.7345  -14.4023   22.4647 H   0  0  0  0  0  0
  -28.4239  -20.9818   19.9291 H   0  0  0  0  0  0
  1 25  1  0  0  0
  1 30  2  0  0  0
  1 89  1  0  0  0
  2  3  1  0  0  0
  2 25  1  0  0  0
  2 92  1  0  0  0
  2 93  1  0  0  0
  3  4  1  0  0  0
  3 94  1  0  0  0
  3 95  1  0  0  0
  4  5  1  0  0  0
  4 96  1  0  0  0
  4 97  1  0  0  0
  5  6  1  0  0  0
  5 26  1  0  0  0
  5 98  1  0  0  0
  6 25  1  0  0  0
  6 99  1  0  0  0
  6100  1  0  0  0
  7  8  2  0  0  0
  7 26  1  0  0  0
  7 29  1  0  0  0
  8  9  1  0  0  0
  8 22  1  0  0  0
  9 10  1  0  0  0
  9 27  2  0  0  0
 10 11  2  0  0  0
 10 15  1  0  0  0
 11 12  1  0  0  0
 11101  1  0  0  0
 12 13  2  0  0  0
 12102  1  0  0  0
 13 14  1  0  0  0
 13 31  1  0  0  0
 14 15  2  0  0  0
 14103  1  0  0  0
 15104  1  0  0  0
 16 17  2  0  0  0
 16 21  1  0  0  0
 16 31  1  0  0  0
 17 18  1  0  0  0
 17105  1  0  0  0
 18 19  2  0  0  0
 18106  1  0  0  0
 19 20  1  0  0  0
 19 24  1  0  0  0
 20 21  2  0  0  0
 20107  1  0  0  0
 21 23  1  0  0  0
 22 28  1  0  0  0
 22 32  2  0  0  0
 26 27  1  0  0  0
 28108  1  0  0  0
 28109  1  0  0  0
 29110  1  0  0  0
 29111  1  0  0  0
 33 34  1  0  0  0
 33 66  1  0  0  0
 33 70  2  0  0  0
 34 36  1  0  0  0
 34 59  1  0  0  0
 34112  1  0  0  0
 35 44  2  0  0  0
 35 45  1  0  0  0
 35 68  1  0  0  0
 36 56  1  0  0  0
 36113  1  0  0  0
 37 39  1  0  0  0
 37 47  1  0  0  0
 37 66  1  0  0  0
 37114  1  0  0  0
 38 43  2  0  0  0
 38 46  1  0  0  0
 38 47  1  0  0  0
 39 64  1  0  0  0
 39 67  2  0  0  0
 40 52  1  0  0  0
 40 53  2  0  0  0
 40 58  1  0  0  0
 41115  1  0  0  0
 41116  1  0  0  0
 41117  1  0  0  0
 41 48  1  0  0  0
 42 43  1  0  0  0
 42 66  1  0  0  0
 42118  1  0  0  0
 42119  1  0  0  0
 43 44  1  0  0  0
 44120  1  0  0  0
 45 46  2  0  0  0
 45121  1  0  0  0
 46122  1  0  0  0
 47123  1  0  0  0
 47124  1  0  0  0
 48 56  1  0  0  0
 48 65  1  0  0  0
 48125  1  0  0  0
 49 50  1  0  0  0
 49 53  1  0  0  0
 49 64  1  0  0  0
 49126  1  0  0  0
 50 51  1  0  0  0
 50127  1  0  0  0
 50128  1  0  0  0
 51 52  1  0  0  0
 51129  1  0  0  0
 51130  1  0  0  0
 52131  1  0  0  0
 52132  1  0  0  0
 53 54  1  0  0  0
 54 55  2  0  0  0
 54133  1  0  0  0
 55 57  1  0  0  0
 55134  1  0  0  0
 56 69  2  0  0  0
 57 58  2  0  0  0
 57135  1  0  0  0
 58136  1  0  0  0
 59 60  1  0  0  0
 59 61  1  0  0  0
 59 62  1  0  0  0
 60137  1  0  0  0
 60138  1  0  0  0
 60139  1  0  0  0
 61140  1  0  0  0
 61141  1  0  0  0
 61142  1  0  0  0
 62143  1  0  0  0
 62144  1  0  0  0
 62145  1  0  0  0
 63 65  1  0  0  0
 63146  1  0  0  0
 63147  1  0  0  0
 63148  1  0  0  0
 64149  1  0  0  0
 65150  1  0  0  0
 68 88  1  0  0  0
 71 72  2  0  0  0
 71 74  1  0  0  0
 71151  1  0  0  0
 72 76  1  0  0  0
 72152  1  0  0  0
 73 74  2  0  0  0
 73 75  1  0  0  0
 73153  1  0  0  0
 74 86  1  0  0  0
 75 76  2  0  0  0
 75 87  1  0  0  0
 76 91  1  0  0  0
 77 80  2  0  0  0
 77 83  1  0  0  0
 77 84  1  0  0  0
 78 81  2  0  0  0
 78 83  1  0  0  0
 78 90  1  0  0  0
 79 82  2  0  0  0
 79154  1  0  0  0
 79155  1  0  0  0
 80 88  1  0  0  0
 80156  1  0  0  0
 81 82  1  0  0  0
 81157  1  0  0  0
 82158  1  0  0  0
 83159  1  0  0  0
 83160  1  0  0  0
 84 85  1  0  0  0
 84161  1  0  0  0
 84162  1  0  0  0
 85 90  1  0  0  0
 85163  1  0  0  0
 85164  1  0  0  0
 86 89  1  0  0  0
 86165  1  0  0  0
 86166  1  0  0  0
 87167  1  0  0  0
 87168  1  0  0  0
 87 90  1  0  0  0
 88169  1  0  0  0
 88170  1  0  0  0
 89171  1  0  0  0
 90172  1  0  0  0
M  CHG  1  90   1
M  ISO  4   1 100  68 101  88 101  89 100
M  END
> <chiral flag>
0

> <version>
0

> <s_m_source_file>
/data/baiqing/PycharmProjects/Reinvent-master-3.2/result/LINK_invent/BTK/process_docking_weight1_custom_product_contain_oxygen_bond_distance_aromatic_linkinvent_7_9_3/rearranged_h_0048.sdf

> <i_m_source_file_index>
19

> <r_mmod_Potential_Energy-OPLS-2005>
-193.233428955078

> <r_mmod_Stretch_Energy-OPLS-2005>
38.7474937438965

> <r_mmod_Bend_Energy-OPLS-2005>
127.921508789062

> <r_mmod_Torsional_Energy-OPLS-2005>
219.69580078125

> <r_mmod_Improper_Torsional_Energy-OPLS-2005>
3.5910313129425

> <r_mmod_Van_der_Waal_Energy-OPLS-2005>
160.876876831055

> <r_mmod_Electrostatic_Energy-OPLS-2005>
-332.942535400391

> <r_mmod_Solvation_Energy-OPLS-2005>
-420.445861816406

> <b_mmod_Minimization_Converged-OPLS-2005>
0

> <r_mmod_RMS_Derivative-OPLS-2005>
4.64841365814209

$$$$
19
                    3D
 Structure written by MMmdl.
164173  0  0  1  0            999 V2000
  -30.6273  -14.6044   20.5370 C   0  0  0  0  0  0
  -30.4441  -12.3790   19.4471 C   0  0  0  0  0  0
  -29.5119  -12.5076   18.2221 C   0  0  0  0  0  0
  -28.0328  -12.3454   18.6303 C   0  0  0  0  0  0
  -27.6582  -13.2065   19.8665 C   0  0  2  0  0  0
  -28.6994  -13.0327   20.9951 C   0  0  0  0  0  0
  -25.2581  -13.8151   20.5643 C   0  0  0  0  0  0
  -24.1838  -13.0437   20.9173 C   0  0  0  0  0  0
  -24.6385  -11.6900   20.8724 C   0  0  0  0  0  0
  -23.9042  -10.4293   21.0393 C   0  0  0  0  0  0
  -24.3595   -9.4210   21.9166 C   0  0  0  0  0  0
  -23.6272   -8.2251   22.0748 C   0  0  0  0  0  0
  -22.4251   -8.0284   21.3545 C   0  0  0  0  0  0
  -21.9872   -9.0256   20.4643 C   0  0  0  0  0  0
  -22.7206  -10.2128   20.3046 C   0  0  0  0  0  0
  -21.6858   -6.0722   22.5268 C   0  0  0  0  0  0
  -21.4026   -6.5626   23.8201 C   0  0  0  0  0  0
  -21.3653   -5.6782   24.9162 C   0  0  0  0  0  0
  -21.6036   -4.3042   24.7217 C   0  0  0  0  0  0
  -21.8826   -3.8133   23.4341 C   0  0  0  0  0  0
  -21.9199   -4.6947   22.3394 C   0  0  0  0  0  0
  -22.7861  -13.5238   21.1829 C   0  0  0  0  0  0
  -22.1666   -4.2137   21.0973 F   0  0  0  0  0  0
  -21.5615   -3.4525   25.7728 F   0  0  0  0  0  0
  -30.0196  -13.3810   20.4434 N   0  0  0  0  0  0
  -26.3002  -12.9308   20.3295 N   0  0  0  0  0  0
  -25.9308  -11.6474   20.5740 N   0  0  0  0  0  0
  -22.0488  -12.8257   22.0397 N   0  0  0  0  0  0
  -25.4321  -15.1867   20.4008 N   0  0  0  0  0  0
  -31.7744  -14.7906   20.1213 O   0  0  0  0  0  0
  -21.6638   -6.8867   21.4235 O   0  0  0  0  0  0
  -22.3553  -14.5539   20.6664 O   0  0  0  0  0  0
  -24.6229  -31.8628   23.2060 C   0  0  0  0  0  0
  -25.9093  -32.4795   23.8373 C   0  0  1  0  0  0
  -27.2306  -27.3531   20.1130 C   0  0  0  0  0  0
  -25.5933  -33.8589   24.2318 N   0  0  0  0  0  0
  -23.4143  -30.4857   21.5492 C   0  0  2  0  0  0
  -24.8606  -28.9453   20.1134 C   0  0  0  0  0  0
  -22.7459  -29.4625   22.4977 C   0  0  0  0  0  0
  -18.0286  -28.1401   22.8478 C   0  0  0  0  0  0
  -24.1483  -36.7282   23.2626 C   0  0  0  0  0  0
  -25.9519  -30.8025   21.3729 C   0  0  0  0  0  0
  -26.0259  -29.4324   20.7179 C   0  0  0  0  0  0
  -27.2092  -28.6441   20.7148 C   0  0  0  0  0  0
  -26.0418  -26.9120   19.4829 C   0  0  0  0  0  0
  -24.8677  -27.6874   19.4924 C   0  0  0  0  0  0
  -23.6268  -29.8216   20.1638 C   0  0  0  0  0  0
  -25.4097  -36.3084   24.0341 C   0  0  1  0  0  0
  -20.5881  -28.3680   23.1312 C   0  0  2  0  0  0
  -20.6784  -26.9411   22.5411 C   0  0  0  0  0  0
  -19.5753  -26.6390   21.5218 C   0  0  0  0  0  0
  -18.1931  -26.7943   22.1625 C   0  0  0  0  0  0
  -19.1533  -28.8863   23.2884 C   0  0  0  0  0  0
  -18.9455  -30.1474   23.8893 C   0  0  0  0  0  0
  -17.6453  -30.6592   24.0566 C   0  0  0  0  0  0
  -25.9043  -34.9460   23.5122 C   0  0  0  0  0  0
  -16.5348  -29.9085   23.6338 C   0  0  0  0  0  0
  -16.7269  -28.6507   23.0341 C   0  0  0  0  0  0
  -26.4496  -31.6588   25.0722 C   0  0  0  0  0  0
  -25.3760  -31.3761   26.1484 C   0  0  0  0  0  0
  -27.0291  -30.2999   24.6150 C   0  0  0  0  0  0
  -27.6092  -32.4297   25.7461 C   0  0  0  0  0  0
  -27.5596  -37.1767   24.8446 C   0  0  0  0  0  0
  -21.4183  -29.3026   22.3711 N   0  0  0  0  0  0
  -26.4278  -37.3778   23.9441 N   0  0  0  0  0  0
  -24.6816  -31.0663   22.0999 N   0  0  0  0  0  0
  -23.4200  -28.8161   23.3044 O   0  0  0  0  0  0
  -28.3789  -26.5544   20.1864 O   0  0  0  0  0  0
  -26.5579  -34.8926   22.4673 O   0  0  0  0  0  0
  -23.5401  -32.1424   23.7404 O   0  0  0  0  0  0
  -28.6009  -19.2028   20.7234 C   0  0  0  0  0  0
  -28.6634  -17.8001   20.9420 C   0  0  0  0  0  0
  -31.0323  -17.8288   20.5341 C   0  0  0  0  0  0
  -29.7478  -19.9646   20.3836 C   0  0  0  0  0  0
  -30.9904  -19.2460   20.3323 C   0  0  0  0  0  0
  -29.8697  -17.0662   20.8130 C   0  0  0  0  0  0
  -30.4087  -23.7977   20.5451 C   0  0  0  0  0  0
  -31.5051  -24.0807   21.2704 C   0  0  0  0  0  0
  -29.8483  -24.6614   19.4038 C   0  0  0  0  0  0
  -27.5222  -24.0900   20.2497 C   0  0  0  0  0  0
  -28.1946  -23.1078   21.2660 C   0  0  0  0  0  0
  -28.4085  -25.2070   19.6061 C   0  0  1  0  0  0
  -29.5834  -21.4524   19.8892 C   0  0  0  0  0  0
  -32.3024  -19.9599   20.0074 C   0  0  0  0  0  0
  -29.8244  -15.6183   20.9837 N   0  0  0  0  0  0
  -29.5441  -22.6077   20.8703 N   0  3  1  0  0  0
  -33.3615  -19.2451   20.3929 F   0  0  0  0  0  0
  -32.3898  -20.1637   18.6939 F   0  0  0  0  0  0
  -32.3658  -21.1347   20.6320 F   0  0  0  0  0  0
  -31.4846  -12.5106   19.1453 H   0  0  0  0  0  0
  -30.3838  -11.3772   19.8748 H   0  0  0  0  0  0
  -29.7748  -11.7611   17.4708 H   0  0  0  0  0  0
  -29.6602  -13.4802   17.7514 H   0  0  0  0  0  0
  -27.8656  -11.2909   18.8514 H   0  0  0  0  0  0
  -27.3822  -12.5861   17.7885 H   0  0  0  0  0  0
  -27.6871  -14.2459   19.5398 H   0  0  0  0  0  0
  -28.7058  -12.0004   21.3490 H   0  0  0  0  0  0
  -28.4402  -13.6355   21.8665 H   0  0  0  0  0  0
  -25.2744   -9.5690   22.4733 H   0  0  0  0  0  0
  -23.9982   -7.4641   22.7465 H   0  0  0  0  0  0
  -21.0797   -8.8764   19.8952 H   0  0  0  0  0  0
  -22.3656  -10.9661   19.6149 H   0  0  0  0  0  0
  -21.2038   -7.6137   23.9697 H   0  0  0  0  0  0
  -21.1457   -6.0511   25.9060 H   0  0  0  0  0  0
  -22.0616   -2.7596   23.2849 H   0  0  0  0  0  0
  -22.4083  -11.9936   22.4822 H   0  0  0  0  0  0
  -21.1103  -13.1309   22.2564 H   0  0  0  0  0  0
  -24.6603  -15.8393   20.4876 H   0  0  0  0  0  0
  -26.2631  -15.6096   20.0073 H   0  0  0  0  0  0
  -26.7152  -32.5483   23.1115 H   0  0  0  0  0  0
  -25.0155  -33.9737   25.0514 H   0  0  0  0  0  0
  -22.7049  -31.3041   21.4093 H   0  0  0  0  0  0
  -23.3787  -35.9566   23.3215 H   0  0  0  0  0  0
  -24.3602  -36.8964   22.2056 H   0  0  0  0  0  0
  -23.7175  -37.6442   23.6682 H   0  0  0  0  0  0
  -26.0780  -31.5658   20.6040 H   0  0  0  0  0  0
  -26.8347  -30.8528   21.9986 H   0  0  0  0  0  0
  -28.1038  -29.0122   21.1976 H   0  0  0  0  0  0
  -25.9823  -25.9532   18.9923 H   0  0  0  0  0  0
  -23.9711  -27.3064   19.0230 H   0  0  0  0  0  0
  -23.7460  -30.5990   19.4079 H   0  0  0  0  0  0
  -22.7476  -29.2490   19.8623 H   0  0  0  0  0  0
  -25.1254  -36.1930   25.0828 H   0  0  0  0  0  0
  -20.9959  -28.3250   24.1439 H   0  0  0  0  0  0
  -20.5728  -26.2265   23.3588 H   0  0  0  0  0  0
  -21.6655  -26.7476   22.1178 H   0  0  0  0  0  0
  -19.6906  -25.6302   21.1249 H   0  0  0  0  0  0
  -19.6705  -27.3205   20.6754 H   0  0  0  0  0  0
  -17.4197  -26.6693   21.4032 H   0  0  0  0  0  0
  -18.0326  -26.0107   22.9042 H   0  0  0  0  0  0
  -19.7932  -30.7304   24.2257 H   0  0  0  0  0  0
  -17.4999  -31.6279   24.5165 H   0  0  0  0  0  0
  -15.5346  -30.2971   23.7682 H   0  0  0  0  0  0
  -15.8672  -28.0829   22.7053 H   0  0  0  0  0  0
  -24.5834  -30.7219   25.7832 H   0  0  0  0  0  0
  -24.9085  -32.2965   26.4997 H   0  0  0  0  0  0
  -25.8091  -30.8847   27.0207 H   0  0  0  0  0  0
  -26.2826  -29.6769   24.1210 H   0  0  0  0  0  0
  -27.4024  -29.7230   25.4624 H   0  0  0  0  0  0
  -27.8688  -30.4266   23.9313 H   0  0  0  0  0  0
  -27.2748  -33.3629   26.2007 H   0  0  0  0  0  0
  -28.3904  -32.6806   25.0270 H   0  0  0  0  0  0
  -28.0745  -31.8433   26.5397 H   0  0  0  0  0  0
  -28.2538  -38.0141   24.7615 H   0  0  0  0  0  0
  -28.1177  -36.2687   24.6109 H   0  0  0  0  0  0
  -27.2344  -37.1212   25.8850 H   0  0  0  0  0  0
  -20.9366  -29.8722   21.6893 H   0  0  0  0  0  0
  -26.0167  -38.2833   24.1539 H   0  0  0  0  0  0
  -27.6332  -19.6832   20.7688 H   0  0  0  0  0  0
  -27.7436  -17.2800   21.1723 H   0  0  0  0  0  0
  -31.9820  -17.3212   20.4529 H   0  0  0  0  0  0
  -32.0960  -24.9610   21.0618 H   0  0  0  0  0  0
  -31.8311  -23.4567   22.0900 H   0  0  0  0  0  0
  -29.8565  -24.0396   18.5075 H   0  0  0  0  0  0
  -30.5308  -25.4830   19.1873 H   0  0  0  0  0  0
  -26.6416  -24.5295   20.7178 H   0  0  0  0  0  0
  -27.1333  -23.4814   19.4331 H   0  0  0  0  0  0
  -27.5332  -22.2695   21.4867 H   0  0  0  0  0  0
  -28.3175  -23.6388   22.2106 H   0  0  0  0  0  0
  -28.0442  -25.3579   18.5884 H   0  0  0  0  0  0
  -28.6861  -21.5020   19.2723 H   0  0  0  0  0  0
  -30.3876  -21.6515   19.1822 H   0  0  0  0  0  0
  -28.9358  -15.2681   21.3066 H   0  0  0  0  0  0
  -29.9113  -22.2017   21.7182 H   0  0  0  0  0  0
  1 25  1  0  0  0
  1 30  2  0  0  0
  1 85  1  0  0  0
  2  3  1  0  0  0
  2 25  1  0  0  0
  2 90  1  0  0  0
  2 91  1  0  0  0
  3  4  1  0  0  0
  3 92  1  0  0  0
  3 93  1  0  0  0
  4  5  1  0  0  0
  4 94  1  0  0  0
  4 95  1  0  0  0
  5  6  1  0  0  0
  5 26  1  0  0  0
  5 96  1  0  0  0
  6 25  1  0  0  0
  6 97  1  0  0  0
  6 98  1  0  0  0
  7  8  2  0  0  0
  7 26  1  0  0  0
  7 29  1  0  0  0
  8  9  1  0  0  0
  8 22  1  0  0  0
  9 10  1  0  0  0
  9 27  2  0  0  0
 10 11  2  0  0  0
 10 15  1  0  0  0
 11 12  1  0  0  0
 11 99  1  0  0  0
 12 13  2  0  0  0
 12100  1  0  0  0
 13 14  1  0  0  0
 13 31  1  0  0  0
 14 15  2  0  0  0
 14101  1  0  0  0
 15102  1  0  0  0
 16 17  2  0  0  0
 16 21  1  0  0  0
 16 31  1  0  0  0
 17 18  1  0  0  0
 17103  1  0  0  0
 18 19  2  0  0  0
 18104  1  0  0  0
 19 20  1  0  0  0
 19 24  1  0  0  0
 20 21  2  0  0  0
 20105  1  0  0  0
 21 23  1  0  0  0
 22 28  1  0  0  0
 22 32  2  0  0  0
 26 27  1  0  0  0
 28106  1  0  0  0
 28107  1  0  0  0
 29108  1  0  0  0
 29109  1  0  0  0
 33 34  1  0  0  0
 33 66  1  0  0  0
 33 70  2  0  0  0
 34 36  1  0  0  0
 34 59  1  0  0  0
 34110  1  0  0  0
 35 44  2  0  0  0
 35 45  1  0  0  0
 35 68  1  0  0  0
 36 56  1  0  0  0
 36111  1  0  0  0
 37 39  1  0  0  0
 37 47  1  0  0  0
 37 66  1  0  0  0
 37112  1  0  0  0
 38 43  2  0  0  0
 38 46  1  0  0  0
 38 47  1  0  0  0
 39 64  1  0  0  0
 39 67  2  0  0  0
 40 52  1  0  0  0
 40 53  2  0  0  0
 40 58  1  0  0  0
 41113  1  0  0  0
 41114  1  0  0  0
 41115  1  0  0  0
 41 48  1  0  0  0
 42 43  1  0  0  0
 42 66  1  0  0  0
 42116  1  0  0  0
 42117  1  0  0  0
 43 44  1  0  0  0
 44118  1  0  0  0
 45 46  2  0  0  0
 45119  1  0  0  0
 46120  1  0  0  0
 47121  1  0  0  0
 47122  1  0  0  0
 48 56  1  0  0  0
 48 65  1  0  0  0
 48123  1  0  0  0
 49 50  1  0  0  0
 49 53  1  0  0  0
 49 64  1  0  0  0
 49124  1  0  0  0
 50 51  1  0  0  0
 50125  1  0  0  0
 50126  1  0  0  0
 51 52  1  0  0  0
 51127  1  0  0  0
 51128  1  0  0  0
 52129  1  0  0  0
 52130  1  0  0  0
 53 54  1  0  0  0
 54 55  2  0  0  0
 54131  1  0  0  0
 55 57  1  0  0  0
 55132  1  0  0  0
 56 69  2  0  0  0
 57 58  2  0  0  0
 57133  1  0  0  0
 58134  1  0  0  0
 59 60  1  0  0  0
 59 61  1  0  0  0
 59 62  1  0  0  0
 60135  1  0  0  0
 60136  1  0  0  0
 60137  1  0  0  0
 61138  1  0  0  0
 61139  1  0  0  0
 61140  1  0  0  0
 62141  1  0  0  0
 62142  1  0  0  0
 62143  1  0  0  0
 63 65  1  0  0  0
 63144  1  0  0  0
 63145  1  0  0  0
 63146  1  0  0  0
 64147  1  0  0  0
 65148  1  0  0  0
 68 82  1  0  0  0
 71 72  2  0  0  0
 71 74  1  0  0  0
 71149  1  0  0  0
 72 76  1  0  0  0
 72150  1  0  0  0
 73 75  1  0  0  0
 73 76  2  0  0  0
 73151  1  0  0  0
 74 75  2  0  0  0
 74 83  1  0  0  0
 75 84  1  0  0  0
 76 85  1  0  0  0
 77 78  2  0  0  0
 77 79  1  0  0  0
 77 86  1  0  0  0
 78152  1  0  0  0
 78153  1  0  0  0
 79 82  1  0  0  0
 79154  1  0  0  0
 79155  1  0  0  0
 80 81  1  0  0  0
 80 82  1  0  0  0
 80156  1  0  0  0
 80157  1  0  0  0
 81 86  1  0  0  0
 81158  1  0  0  0
 81159  1  0  0  0
 82160  1  0  0  0
 83161  1  0  0  0
 83162  1  0  0  0
 83 86  1  0  0  0
 84 87  1  0  0  0
 84 88  1  0  0  0
 84 89  1  0  0  0
 85163  1  0  0  0
 86164  1  0  0  0
M  CHG  1  86   1
M  ISO  4   1 100  68 101  82 101  85 100
M  END
> <chiral flag>
0

> <version>
0

> <s_m_source_file>
/data/baiqing/PycharmProjects/Reinvent-master-3.2/result/LINK_invent/BTK/process_docking_weight1_custom_product_contain_oxygen_bond_distance_aromatic_linkinvent_7_9_3/rearranged_h_0048.sdf

> <i_m_source_file_index>
20

> <r_mmod_Potential_Energy-OPLS-2005>
-66.7171401977539

> <r_mmod_Stretch_Energy-OPLS-2005>
69.8426895141602

> <r_mmod_Bend_Energy-OPLS-2005>
158.817672729492

> <r_mmod_Torsional_Energy-OPLS-2005>
239.40641784668

> <r_mmod_Improper_Torsional_Energy-OPLS-2005>
5.32893466949463

> <r_mmod_Van_der_Waal_Energy-OPLS-2005>
148.499786376953

> <r_mmod_Electrostatic_Energy-OPLS-2005>
-282.345916748047

> <r_mmod_Solvation_Energy-OPLS-2005>
-442.768676757812

> <b_mmod_Minimization_Converged-OPLS-2005>
0

> <r_mmod_RMS_Derivative-OPLS-2005>
2.17332172393799

$$$$
20
                    3D
 Structure written by MMmdl.
170179  0  0  1  0            999 V2000
  -30.5939  -14.6478   20.5261 C   0  0  0  0  0  0
  -30.4353  -12.4053   19.4545 C   0  0  0  0  0  0
  -29.5114  -12.5456   18.2263 C   0  0  0  0  0  0
  -28.0277  -12.3922   18.6195 C   0  0  0  0  0  0
  -27.6513  -13.2248   19.8744 C   0  0  2  0  0  0
  -28.6903  -13.0463   21.0005 C   0  0  0  0  0  0
  -25.2519  -13.8179   20.5681 C   0  0  0  0  0  0
  -24.1799  -13.0420   20.9180 C   0  0  0  0  0  0
  -24.6370  -11.6887   20.8689 C   0  0  0  0  0  0
  -23.9021  -10.4285   21.0355 C   0  0  0  0  0  0
  -24.3592   -9.4230   21.9148 C   0  0  0  0  0  0
  -23.6309   -8.2245   22.0729 C   0  0  0  0  0  0
  -22.4290   -8.0265   21.3524 C   0  0  0  0  0  0
  -21.9882   -9.0207   20.4620 C   0  0  0  0  0  0
  -22.7174  -10.2115   20.3029 C   0  0  0  0  0  0
  -21.6884   -6.0714   22.5268 C   0  0  0  0  0  0
  -21.4014   -6.5625   23.8195 C   0  0  0  0  0  0
  -21.3678   -5.6785   24.9158 C   0  0  0  0  0  0
  -21.6069   -4.3046   24.7221 C   0  0  0  0  0  0
  -21.8830   -3.8132   23.4341 C   0  0  0  0  0  0
  -21.9193   -4.6942   22.3382 C   0  0  0  0  0  0
  -22.7825  -13.5204   21.1867 C   0  0  0  0  0  0
  -22.1678   -4.2115   21.0969 F   0  0  0  0  0  0
  -21.5632   -3.4534   25.7740 F   0  0  0  0  0  0
  -30.0117  -13.4065   20.4531 N   0  0  0  0  0  0
  -26.2950  -12.9362   20.3331 N   0  0  0  0  0  0
  -25.9316  -11.6506   20.5713 N   0  0  0  0  0  0
  -22.0482  -12.8171   22.0421 N   0  0  0  0  0  0
  -25.4240  -15.1909   20.4147 N   0  0  0  0  0  0
  -31.7287  -14.8560   20.0799 O   0  0  0  0  0  0
  -21.6684   -6.8839   21.4226 O   0  0  0  0  0  0
  -22.3470  -14.5491   20.6734 O   0  0  0  0  0  0
  -24.6251  -31.8574   23.2027 C   0  0  0  0  0  0
  -25.9101  -32.4759   23.8359 C   0  0  1  0  0  0
  -27.2450  -27.3195   20.1462 C   0  0  0  0  0  0
  -25.5914  -33.8570   24.2296 N   0  0  0  0  0  0
  -23.4203  -30.4767   21.5437 C   0  0  2  0  0  0
  -24.8711  -28.9114   20.1356 C   0  0  0  0  0  0
  -22.7458  -29.4618   22.4967 C   0  0  0  0  0  0
  -18.0274  -28.1354   22.8499 C   0  0  0  0  0  0
  -24.1489  -36.7290   23.2656 C   0  0  0  0  0  0
  -25.9588  -30.7897   21.3731 C   0  0  0  0  0  0
  -26.0367  -29.4101   20.7297 C   0  0  0  0  0  0
  -27.2292  -28.6297   20.7148 C   0  0  0  0  0  0
  -26.0559  -26.8550   19.5485 C   0  0  0  0  0  0
  -24.8804  -27.6366   19.5402 C   0  0  0  0  0  0
  -23.6405  -29.7964   20.1659 C   0  0  0  0  0  0
  -25.4111  -36.3075   24.0344 C   0  0  1  0  0  0
  -20.5879  -28.3662   23.1308 C   0  0  2  0  0  0
  -20.6778  -26.9382   22.5451 C   0  0  0  0  0  0
  -19.5762  -26.6354   21.5251 C   0  0  0  0  0  0
  -18.1920  -26.7901   22.1613 C   0  0  0  0  0  0
  -19.1530  -28.8819   23.2900 C   0  0  0  0  0  0
  -18.9450  -30.1430   23.8904 C   0  0  0  0  0  0
  -17.6450  -30.6573   24.0543 C   0  0  0  0  0  0
  -25.9043  -34.9443   23.5126 C   0  0  0  0  0  0
  -16.5342  -29.9064   23.6329 C   0  0  0  0  0  0
  -16.7261  -28.6472   23.0369 C   0  0  0  0  0  0
  -26.4502  -31.6566   25.0722 C   0  0  0  0  0  0
  -25.3736  -31.3684   26.1450 C   0  0  0  0  0  0
  -27.0412  -30.3001   24.6202 C   0  0  0  0  0  0
  -27.6057  -32.4296   25.7495 C   0  0  0  0  0  0
  -27.5578  -37.1800   24.8450 C   0  0  0  0  0  0
  -21.4176  -29.3009   22.3686 N   0  0  0  0  0  0
  -26.4279  -37.3769   23.9407 N   0  0  0  0  0  0
  -24.6860  -31.0581   22.0970 N   0  0  0  0  0  0
  -23.4181  -28.8172   23.3065 O   0  0  0  0  0  0
  -28.4205  -26.5872   19.9765 O   0  0  0  0  0  0
  -26.5618  -34.8908   22.4696 O   0  0  0  0  0  0
  -23.5421  -32.1367   23.7377 O   0  0  0  0  0  0
  -30.0191  -19.2692   19.7409 C   0  0  0  0  0  0
  -30.3538  -17.8892   19.9392 C   0  0  0  0  0  0
  -28.3218  -19.1155   21.4300 C   0  0  0  0  0  0
  -28.9733  -19.9197   20.4561 C   0  0  0  0  0  0
  -28.6611  -17.7433   21.6492 C   0  0  0  0  0  0
  -29.6547  -17.0753   20.8747 C   0  0  0  0  0  0
  -30.4762  -22.8266   20.6346 C   0  0  0  0  0  0
  -31.3712  -22.1281   21.3815 C   0  0  0  0  0  0
  -30.8085  -24.0142   19.7344 C   0  0  0  0  0  0
  -30.3240  -25.2997   20.4274 C   0  0  0  0  0  0
  -28.1712  -23.9124   20.2944 C   0  0  0  0  0  0
  -28.7913  -25.3378   20.6780 C   0  0  2  0  0  0
  -27.9289  -16.9715   22.7395 C   0  0  0  0  0  0
  -31.0100  -21.1141   22.4574 C   0  0  0  0  0  0
  -32.8773  -22.3295   21.2863 C   0  0  0  0  0  0
  -28.4484  -21.3716   20.0842 C   0  0  0  0  0  0
  -29.8062  -15.6303   21.0637 N   0  0  0  0  0  0
  -28.9720  -22.6585   20.7206 N   0  3  1  0  0  0
  -31.4774  -12.5444   19.1588 H   0  0  0  0  0  0
  -30.3733  -11.3997   19.8740 H   0  0  0  0  0  0
  -29.7762  -11.8093   17.4665 H   0  0  0  0  0  0
  -29.6711  -13.5256   17.7682 H   0  0  0  0  0  0
  -27.8340  -11.3348   18.7985 H   0  0  0  0  0  0
  -27.3935  -12.6805   17.7793 H   0  0  0  0  0  0
  -27.6727  -14.2734   19.5773 H   0  0  0  0  0  0
  -28.6942  -12.0145   21.3535 H   0  0  0  0  0  0
  -28.4168  -13.6434   21.8724 H   0  0  0  0  0  0
  -25.2727   -9.5758   22.4713 H   0  0  0  0  0  0
  -24.0055   -7.4637   22.7451 H   0  0  0  0  0  0
  -21.0803   -8.8665   19.8929 H   0  0  0  0  0  0
  -22.3568  -10.9630   19.6148 H   0  0  0  0  0  0
  -21.2011   -7.6140   23.9663 H   0  0  0  0  0  0
  -21.1511   -6.0530   25.9040 H   0  0  0  0  0  0
  -22.0601   -2.7595   23.2855 H   0  0  0  0  0  0
  -22.4141  -11.9874   22.4852 H   0  0  0  0  0  0
  -21.1062  -13.1144   22.2570 H   0  0  0  0  0  0
  -24.6655  -15.8539   20.5360 H   0  0  0  0  0  0
  -26.2899  -15.6314   20.1246 H   0  0  0  0  0  0
  -26.7163  -32.5441   23.1121 H   0  0  0  0  0  0
  -25.0047  -33.9699   25.0424 H   0  0  0  0  0  0
  -22.7150  -31.2955   21.3917 H   0  0  0  0  0  0
  -23.3752  -35.9617   23.3308 H   0  0  0  0  0  0
  -24.3587  -36.8924   22.2068 H   0  0  0  0  0  0
  -23.7232  -37.6492   23.6680 H   0  0  0  0  0  0
  -26.0881  -31.5528   20.6050 H   0  0  0  0  0  0
  -26.8366  -30.8410   22.0060 H   0  0  0  0  0  0
  -28.1398  -29.0345   21.1340 H   0  0  0  0  0  0
  -26.0461  -25.8894   19.0622 H   0  0  0  0  0  0
  -23.9846  -27.2459   19.0779 H   0  0  0  0  0  0
  -23.7711  -30.5642   19.4023 H   0  0  0  0  0  0
  -22.7600  -29.2265   19.8628 H   0  0  0  0  0  0
  -25.1307  -36.1948   25.0835 H   0  0  0  0  0  0
  -20.9963  -28.3243   24.1437 H   0  0  0  0  0  0
  -20.5695  -26.2273   23.3658 H   0  0  0  0  0  0
  -21.6646  -26.7430   22.1237 H   0  0  0  0  0  0
  -19.6937  -25.6269   21.1281 H   0  0  0  0  0  0
  -19.6720  -27.3177   20.6791 H   0  0  0  0  0  0
  -17.4236  -26.6717   21.3963 H   0  0  0  0  0  0
  -18.0238  -26.0014   22.8956 H   0  0  0  0  0  0
  -19.7928  -30.7245   24.2286 H   0  0  0  0  0  0
  -17.5000  -31.6265   24.5111 H   0  0  0  0  0  0
  -15.5343  -30.2961   23.7639 H   0  0  0  0  0  0
  -15.8659  -28.0778   22.7104 H   0  0  0  0  0  0
  -24.5883  -30.7082   25.7756 H   0  0  0  0  0  0
  -24.8967  -32.2847   26.4937 H   0  0  0  0  0  0
  -25.8050  -30.8790   27.0194 H   0  0  0  0  0  0
  -26.3038  -29.6683   24.1241 H   0  0  0  0  0  0
  -27.4147  -29.7326   25.4744 H   0  0  0  0  0  0
  -27.8869  -30.4334   23.9447 H   0  0  0  0  0  0
  -27.2669  -33.3567   26.2147 H   0  0  0  0  0  0
  -28.3841  -32.6907   25.0304 H   0  0  0  0  0  0
  -28.0772  -31.8371   26.5357 H   0  0  0  0  0  0
  -28.2590  -38.0105   24.7514 H   0  0  0  0  0  0
  -28.1085  -36.2640   24.6259 H   0  0  0  0  0  0
  -27.2302  -37.1435   25.8853 H   0  0  0  0  0  0
  -20.9372  -29.8661   21.6825 H   0  0  0  0  0  0
  -26.0178  -38.2854   24.1401 H   0  0  0  0  0  0
  -30.5618  -19.8273   18.9919 H   0  0  0  0  0  0
  -31.1394  -17.4568   19.3366 H   0  0  0  0  0  0
  -27.5142  -19.5455   22.0054 H   0  0  0  0  0  0
  -30.3454  -23.8982   18.7533 H   0  0  0  0  0  0
  -31.8709  -24.1024   19.5213 H   0  0  0  0  0  0
  -30.6528  -26.1555   19.8376 H   0  0  0  0  0  0
  -30.8417  -25.3973   21.3841 H   0  0  0  0  0  0
  -28.0533  -23.8833   19.2102 H   0  0  0  0  0  0
  -27.1587  -23.8458   20.6976 H   0  0  0  0  0  0
  -28.6236  -25.5057   21.7424 H   0  0  0  0  0  0
  -27.3712  -17.6316   23.4049 H   0  0  0  0  0  0
  -28.6417  -16.4253   23.3589 H   0  0  0  0  0  0
  -27.2272  -16.2548   22.3153 H   0  0  0  0  0  0
  -29.9479  -21.1043   22.6976 H   0  0  0  0  0  0
  -31.5444  -21.3378   23.3811 H   0  0  0  0  0  0
  -31.3119  -20.1124   22.1453 H   0  0  0  0  0  0
  -33.2071  -22.7468   20.3372 H   0  0  0  0  0  0
  -33.3866  -21.3705   21.3854 H   0  0  0  0  0  0
  -33.2244  -22.9818   22.0885 H   0  0  0  0  0  0
  -27.3732  -21.3589   20.2663 H   0  0  0  0  0  0
  -28.5472  -21.4763   19.0029 H   0  0  0  0  0  0
  -29.0313  -15.2247   21.5641 H   0  0  0  0  0  0
  -28.7620  -22.5485   21.7009 H   0  0  0  0  0  0
  1 25  1  0  0  0
  1 30  2  0  0  0
  1 87  1  0  0  0
  2  3  1  0  0  0
  2 25  1  0  0  0
  2 89  1  0  0  0
  2 90  1  0  0  0
  3  4  1  0  0  0
  3 91  1  0  0  0
  3 92  1  0  0  0
  4  5  1  0  0  0
  4 93  1  0  0  0
  4 94  1  0  0  0
  5  6  1  0  0  0
  5 26  1  0  0  0
  5 95  1  0  0  0
  6 25  1  0  0  0
  6 96  1  0  0  0
  6 97  1  0  0  0
  7  8  2  0  0  0
  7 26  1  0  0  0
  7 29  1  0  0  0
  8  9  1  0  0  0
  8 22  1  0  0  0
  9 10  1  0  0  0
  9 27  2  0  0  0
 10 11  2  0  0  0
 10 15  1  0  0  0
 11 12  1  0  0  0
 11 98  1  0  0  0
 12 13  2  0  0  0
 12 99  1  0  0  0
 13 14  1  0  0  0
 13 31  1  0  0  0
 14 15  2  0  0  0
 14100  1  0  0  0
 15101  1  0  0  0
 16 17  2  0  0  0
 16 21  1  0  0  0
 16 31  1  0  0  0
 17 18  1  0  0  0
 17102  1  0  0  0
 18 19  2  0  0  0
 18103  1  0  0  0
 19 20  1  0  0  0
 19 24  1  0  0  0
 20 21  2  0  0  0
 20104  1  0  0  0
 21 23  1  0  0  0
 22 28  1  0  0  0
 22 32  2  0  0  0
 26 27  1  0  0  0
 28105  1  0  0  0
 28106  1  0  0  0
 29107  1  0  0  0
 29108  1  0  0  0
 33 34  1  0  0  0
 33 66  1  0  0  0
 33 70  2  0  0  0
 34 36  1  0  0  0
 34 59  1  0  0  0
 34109  1  0  0  0
 35 44  2  0  0  0
 35 45  1  0  0  0
 35 68  1  0  0  0
 36 56  1  0  0  0
 36110  1  0  0  0
 37 39  1  0  0  0
 37 47  1  0  0  0
 37 66  1  0  0  0
 37111  1  0  0  0
 38 43  2  0  0  0
 38 46  1  0  0  0
 38 47  1  0  0  0
 39 64  1  0  0  0
 39 67  2  0  0  0
 40 52  1  0  0  0
 40 53  2  0  0  0
 40 58  1  0  0  0
 41112  1  0  0  0
 41113  1  0  0  0
 41114  1  0  0  0
 41 48  1  0  0  0
 42 43  1  0  0  0
 42 66  1  0  0  0
 42115  1  0  0  0
 42116  1  0  0  0
 43 44  1  0  0  0
 44117  1  0  0  0
 45 46  2  0  0  0
 45118  1  0  0  0
 46119  1  0  0  0
 47120  1  0  0  0
 47121  1  0  0  0
 48 56  1  0  0  0
 48 65  1  0  0  0
 48122  1  0  0  0
 49 50  1  0  0  0
 49 53  1  0  0  0
 49 64  1  0  0  0
 49123  1  0  0  0
 50 51  1  0  0  0
 50124  1  0  0  0
 50125  1  0  0  0
 51 52  1  0  0  0
 51126  1  0  0  0
 51127  1  0  0  0
 52128  1  0  0  0
 52129  1  0  0  0
 53 54  1  0  0  0
 54 55  2  0  0  0
 54130  1  0  0  0
 55 57  1  0  0  0
 55131  1  0  0  0
 56 69  2  0  0  0
 57 58  2  0  0  0
 57132  1  0  0  0
 58133  1  0  0  0
 59 60  1  0  0  0
 59 61  1  0  0  0
 59 62  1  0  0  0
 60134  1  0  0  0
 60135  1  0  0  0
 60136  1  0  0  0
 61137  1  0  0  0
 61138  1  0  0  0
 61139  1  0  0  0
 62140  1  0  0  0
 62141  1  0  0  0
 62142  1  0  0  0
 63 65  1  0  0  0
 63143  1  0  0  0
 63144  1  0  0  0
 63145  1  0  0  0
 64146  1  0  0  0
 65147  1  0  0  0
 68 82  1  0  0  0
 71 72  2  0  0  0
 71 74  1  0  0  0
 71148  1  0  0  0
 72 76  1  0  0  0
 72149  1  0  0  0
 73 74  2  0  0  0
 73 75  1  0  0  0
 73150  1  0  0  0
 74 86  1  0  0  0
 75 76  2  0  0  0
 75 83  1  0  0  0
 76 87  1  0  0  0
 77 78  2  0  0  0
 77 79  1  0  0  0
 77 88  1  0  0  0
 78 84  1  0  0  0
 78 85  1  0  0  0
 79 80  1  0  0  0
 79151  1  0  0  0
 79152  1  0  0  0
 80 82  1  0  0  0
 80153  1  0  0  0
 80154  1  0  0  0
 81 82  1  0  0  0
 81 88  1  0  0  0
 81155  1  0  0  0
 81156  1  0  0  0
 82157  1  0  0  0
 83158  1  0  0  0
 83159  1  0  0  0
 83160  1  0  0  0
 84161  1  0  0  0
 84162  1  0  0  0
 84163  1  0  0  0
 85164  1  0  0  0
 85165  1  0  0  0
 85166  1  0  0  0
 86167  1  0  0  0
 86168  1  0  0  0
 86 88  1  0  0  0
 87169  1  0  0  0
 88170  1  0  0  0
M  CHG  1  88   1
M  ISO  4   1 100  68 101  82 101  87 100
M  END
> <chiral flag>
0

> <version>
0

> <s_m_source_file>
/data/baiqing/PycharmProjects/Reinvent-master-3.2/result/LINK_invent/BTK/process_docking_weight1_custom_product_contain_oxygen_bond_distance_aromatic_linkinvent_7_9_3/rearranged_h_0048.sdf

> <i_m_source_file_index>
21

> <r_mmod_Potential_Energy-OPLS-2005>
29.3751220703125

> <r_mmod_Stretch_Energy-OPLS-2005>
92.6512832641602

> <r_mmod_Bend_Energy-OPLS-2005>
193.463317871094

> <r_mmod_Torsional_Energy-OPLS-2005>
275.918426513672

> <r_mmod_Improper_Torsional_Energy-OPLS-2005>
4.93449258804321

> <r_mmod_Van_der_Waal_Energy-OPLS-2005>
147.21110534668

> <r_mmod_Electrostatic_Energy-OPLS-2005>
-310.455078125

> <r_mmod_Solvation_Energy-OPLS-2005>
-417.818695068359

> <b_mmod_Minimization_Converged-OPLS-2005>
0

> <r_mmod_RMS_Derivative-OPLS-2005>
4.43403291702271

$$$$
21
                    3D
 Structure written by MMmdl.
151159  0  0  1  0            999 V2000
  -30.6076  -14.7373   20.4748 C   0  0  0  0  0  0
  -30.4394  -12.4559   19.4595 C   0  0  0  0  0  0
  -29.5084  -12.5054   18.2283 C   0  0  0  0  0  0
  -28.0355  -12.3278   18.6480 C   0  0  0  0  0  0
  -27.6428  -13.2266   19.8505 C   0  0  2  0  0  0
  -28.6919  -13.1532   20.9812 C   0  0  0  0  0  0
  -25.2525  -13.8181   20.5704 C   0  0  0  0  0  0
  -24.1811  -13.0434   20.9214 C   0  0  0  0  0  0
  -24.6395  -11.6909   20.8752 C   0  0  0  0  0  0
  -23.9068  -10.4289   21.0408 C   0  0  0  0  0  0
  -24.3617   -9.4205   21.9186 C   0  0  0  0  0  0
  -23.6292   -8.2241   22.0754 C   0  0  0  0  0  0
  -22.4276   -8.0279   21.3541 C   0  0  0  0  0  0
  -21.9910   -9.0253   20.4645 C   0  0  0  0  0  0
  -22.7239  -10.2132   20.3057 C   0  0  0  0  0  0
  -21.6852   -6.0735   22.5276 C   0  0  0  0  0  0
  -21.4013   -6.5638   23.8208 C   0  0  0  0  0  0
  -21.3662   -5.6791   24.9171 C   0  0  0  0  0  0
  -21.6045   -4.3054   24.7221 C   0  0  0  0  0  0
  -21.8821   -3.8145   23.4341 C   0  0  0  0  0  0
  -21.9194   -4.6962   22.3398 C   0  0  0  0  0  0
  -22.7832  -13.5223   21.1869 C   0  0  0  0  0  0
  -22.1663   -4.2148   21.0975 F   0  0  0  0  0  0
  -21.5632   -3.4537   25.7734 F   0  0  0  0  0  0
  -29.9888  -13.5113   20.3925 N   0  0  0  0  0  0
  -26.2948  -12.9378   20.3291 N   0  0  0  0  0  0
  -25.9325  -11.6526   20.5757 N   0  0  0  0  0  0
  -22.0474  -12.8211   22.0419 N   0  0  0  0  0  0
  -25.4198  -15.1910   20.4126 N   0  0  0  0  0  0
  -31.8009  -14.8480   20.1799 O   0  0  0  0  0  0
  -21.6640   -6.8876   21.4237 O   0  0  0  0  0  0
  -22.3521  -14.5532   20.6718 O   0  0  0  0  0  0
  -24.6322  -31.8556   23.1979 C   0  0  0  0  0  0
  -25.9143  -32.4761   23.8331 C   0  0  1  0  0  0
  -27.2220  -27.2673   20.1280 C   0  0  0  0  0  0
  -25.5938  -33.8561   24.2261 N   0  0  0  0  0  0
  -23.4285  -30.4783   21.5414 C   0  0  2  0  0  0
  -24.8752  -28.9236   20.1129 C   0  0  0  0  0  0
  -22.7510  -29.4607   22.4912 C   0  0  0  0  0  0
  -18.0300  -28.1404   22.8492 C   0  0  0  0  0  0
  -24.1484  -36.7278   23.2638 C   0  0  0  0  0  0
  -25.9741  -30.7726   21.3735 C   0  0  0  0  0  0
  -26.0485  -29.3946   20.7162 C   0  0  0  0  0  0
  -27.2283  -28.5818   20.7062 C   0  0  0  0  0  0
  -26.0212  -26.8581   19.5068 C   0  0  0  0  0  0
  -24.8662  -27.6638   19.4961 C   0  0  0  0  0  0
  -23.6467  -29.8119   20.1581 C   0  0  0  0  0  0
  -25.4111  -36.3069   24.0328 C   0  0  1  0  0  0
  -20.5902  -28.3709   23.1278 C   0  0  2  0  0  0
  -20.6781  -26.9424   22.5417 C   0  0  0  0  0  0
  -19.5751  -26.6399   21.5222 C   0  0  0  0  0  0
  -18.1935  -26.7947   22.1635 C   0  0  0  0  0  0
  -19.1553  -28.8875   23.2882 C   0  0  0  0  0  0
  -18.9467  -30.1477   23.8899 C   0  0  0  0  0  0
  -17.6463  -30.6598   24.0572 C   0  0  0  0  0  0
  -25.9057  -34.9441   23.5095 C   0  0  0  0  0  0
  -16.5358  -29.9095   23.6337 C   0  0  0  0  0  0
  -16.7285  -28.6517   23.0354 C   0  0  0  0  0  0
  -26.4503  -31.6584   25.0721 C   0  0  0  0  0  0
  -25.3723  -31.3737   26.1440 C   0  0  0  0  0  0
  -27.0344  -30.3001   24.6199 C   0  0  0  0  0  0
  -27.6057  -32.4318   25.7503 C   0  0  0  0  0  0
  -27.5576  -37.1794   24.8463 C   0  0  0  0  0  0
  -21.4217  -29.3054   22.3658 N   0  0  0  0  0  0
  -26.4282  -37.3772   23.9416 N   0  0  0  0  0  0
  -24.6976  -31.0535   22.0944 N   0  0  0  0  0  0
  -23.4212  -28.8147   23.3010 O   0  0  0  0  0  0
  -28.3200  -26.3758   20.1527 O   0  0  0  0  0  0
  -26.5626  -34.8919   22.4664 O   0  0  0  0  0  0
  -23.5473  -32.1369   23.7283 O   0  0  0  0  0  0
  -29.5532  -18.4224   20.2550 C   0  0  0  0  0  0
  -31.0667  -18.8953   22.5255 C   0  0  0  0  0  0
  -29.7658  -19.8111   20.6529 C   0  0  0  0  0  0
  -30.0974  -17.2671   20.9590 C   0  0  0  0  0  0
  -30.5562  -19.9994   21.8129 C   0  0  0  0  0  0
  -30.8456  -17.5606   22.1292 C   0  0  0  0  0  0
  -29.0091  -23.6847   19.9580 C   0  0  0  0  0  0
  -29.2914  -21.0649   19.7795 C   0  0  0  0  0  0
  -28.0314  -24.9092   20.3436 C   0  0  0  0  0  0
  -29.7964  -15.8550   20.6120 N   0  0  0  0  0  0
  -28.7311  -22.3784   20.3387 N   0  0  0  0  0  0
  -30.0092  -23.9137   19.2669 O   0  0  0  0  0  0
  -30.9627  -21.5762   22.3934 Cl  0  0  0  0  0  0
  -31.4569  -16.3175   23.1682 Cl  0  0  0  0  0  0
  -31.4771  -12.5945   19.1512 H   0  0  0  0  0  0
  -30.3966  -11.4780   19.9415 H   0  0  0  0  0  0
  -29.7882  -11.7323   17.5113 H   0  0  0  0  0  0
  -29.6303  -13.4592   17.7125 H   0  0  0  0  0  0
  -27.8951  -11.2790   18.9125 H   0  0  0  0  0  0
  -27.3743  -12.5176   17.8018 H   0  0  0  0  0  0
  -27.6361  -14.2482   19.4710 H   0  0  0  0  0  0
  -28.7310  -12.1521   21.4127 H   0  0  0  0  0  0
  -28.4316  -13.8277   21.7990 H   0  0  0  0  0  0
  -25.2759   -9.5686   22.4763 H   0  0  0  0  0  0
  -24.0001   -7.4633   22.7476 H   0  0  0  0  0  0
  -21.0840   -8.8773   19.8950 H   0  0  0  0  0  0
  -22.3694  -10.9674   19.6169 H   0  0  0  0  0  0
  -21.2004   -7.6145   23.9709 H   0  0  0  0  0  0
  -21.1485   -6.0521   25.9074 H   0  0  0  0  0  0
  -22.0599   -2.7607   23.2839 H   0  0  0  0  0  0
  -22.4087  -11.9868   22.4801 H   0  0  0  0  0  0
  -21.1094  -13.1240   22.2629 H   0  0  0  0  0  0
  -24.6486  -15.8396   20.5292 H   0  0  0  0  0  0
  -26.2582  -15.6356   20.0630 H   0  0  0  0  0  0
  -26.7216  -32.5414   23.1081 H   0  0  0  0  0  0
  -25.0083  -33.9696   25.0407 H   0  0  0  0  0  0
  -22.7249  -31.3005   21.3956 H   0  0  0  0  0  0
  -23.3747  -35.9609   23.3299 H   0  0  0  0  0  0
  -24.3575  -36.8904   22.2053 H   0  0  0  0  0  0
  -23.7235  -37.6479   23.6661 H   0  0  0  0  0  0
  -26.1107  -31.5331   20.6028 H   0  0  0  0  0  0
  -26.8525  -30.8239   22.0054 H   0  0  0  0  0  0
  -28.1296  -28.9412   21.1826 H   0  0  0  0  0  0
  -25.9531  -25.8929   19.0268 H   0  0  0  0  0  0
  -23.9679  -27.2975   19.0183 H   0  0  0  0  0  0
  -23.7737  -30.5874   19.4017 H   0  0  0  0  0  0
  -22.7641  -29.2469   19.8525 H   0  0  0  0  0  0
  -25.1294  -36.1911   25.0820 H   0  0  0  0  0  0
  -21.0012  -28.3286   24.1393 H   0  0  0  0  0  0
  -20.5685  -26.2319   23.3624 H   0  0  0  0  0  0
  -21.6647  -26.7449   22.1205 H   0  0  0  0  0  0
  -19.6901  -25.6311   21.1252 H   0  0  0  0  0  0
  -19.6684  -27.3209   20.6750 H   0  0  0  0  0  0
  -17.4205  -26.6715   21.4033 H   0  0  0  0  0  0
  -18.0319  -26.0096   22.9037 H   0  0  0  0  0  0
  -19.7938  -30.7303   24.2264 H   0  0  0  0  0  0
  -17.5012  -31.6271   24.5181 H   0  0  0  0  0  0
  -15.5357  -30.2993   23.7655 H   0  0  0  0  0  0
  -15.8692  -28.0836   22.7058 H   0  0  0  0  0  0
  -24.5913  -30.7066   25.7774 H   0  0  0  0  0  0
  -24.8892  -32.2904   26.4830 H   0  0  0  0  0  0
  -25.8042  -30.8949   27.0238 H   0  0  0  0  0  0
  -26.2924  -29.6757   24.1206 H   0  0  0  0  0  0
  -27.4009  -29.7260   25.4721 H   0  0  0  0  0  0
  -27.8812  -30.4281   23.9452 H   0  0  0  0  0  0
  -27.2672  -33.3636   26.2048 H   0  0  0  0  0  0
  -28.3890  -32.6847   25.0342 H   0  0  0  0  0  0
  -28.0693  -31.8455   26.5447 H   0  0  0  0  0  0
  -28.2587  -38.0097   24.7525 H   0  0  0  0  0  0
  -28.1083  -36.2633   24.6271 H   0  0  0  0  0  0
  -27.2304  -37.1421   25.8869 H   0  0  0  0  0  0
  -20.9401  -29.8779   21.6868 H   0  0  0  0  0  0
  -26.0157  -38.2846   24.1425 H   0  0  0  0  0  0
  -28.9647  -18.2404   19.3673 H   0  0  0  0  0  0
  -31.6479  -19.0796   23.4162 H   0  0  0  0  0  0
  -28.5403  -20.6923   19.0825 H   0  0  0  0  0  0
  -30.1461  -21.3148   19.1493 H   0  0  0  0  0  0
  -28.8125  -25.0607   21.0896 H   0  0  0  0  0  0
  -27.9682  -24.9615   19.2557 H   0  0  0  0  0  0
  -28.8133  -15.6420   20.5632 H   0  0  0  0  0  0
  -27.9238  -22.2731   20.9380 H   0  0  0  0  0  0
  1 25  1  0  0  0
  1 30  2  0  0  0
  1 80  1  0  0  0
  2  3  1  0  0  0
  2 25  1  0  0  0
  2 85  1  0  0  0
  2 86  1  0  0  0
  3  4  1  0  0  0
  3 87  1  0  0  0
  3 88  1  0  0  0
  4  5  1  0  0  0
  4 89  1  0  0  0
  4 90  1  0  0  0
  5  6  1  0  0  0
  5 26  1  0  0  0
  5 91  1  0  0  0
  6 25  1  0  0  0
  6 92  1  0  0  0
  6 93  1  0  0  0
  7  8  2  0  0  0
  7 26  1  0  0  0
  7 29  1  0  0  0
  8  9  1  0  0  0
  8 22  1  0  0  0
  9 10  1  0  0  0
  9 27  2  0  0  0
 10 11  2  0  0  0
 10 15  1  0  0  0
 11 12  1  0  0  0
 11 94  1  0  0  0
 12 13  2  0  0  0
 12 95  1  0  0  0
 13 14  1  0  0  0
 13 31  1  0  0  0
 14 15  2  0  0  0
 14 96  1  0  0  0
 15 97  1  0  0  0
 16 17  2  0  0  0
 16 21  1  0  0  0
 16 31  1  0  0  0
 17 18  1  0  0  0
 17 98  1  0  0  0
 18 19  2  0  0  0
 18 99  1  0  0  0
 19 20  1  0  0  0
 19 24  1  0  0  0
 20 21  2  0  0  0
 20100  1  0  0  0
 21 23  1  0  0  0
 22 28  1  0  0  0
 22 32  2  0  0  0
 26 27  1  0  0  0
 28101  1  0  0  0
 28102  1  0  0  0
 29103  1  0  0  0
 29104  1  0  0  0
 33 34  1  0  0  0
 33 66  1  0  0  0
 33 70  2  0  0  0
 34 36  1  0  0  0
 34 59  1  0  0  0
 34105  1  0  0  0
 35 44  2  0  0  0
 35 45  1  0  0  0
 35 68  1  0  0  0
 36 56  1  0  0  0
 36106  1  0  0  0
 37 39  1  0  0  0
 37 47  1  0  0  0
 37 66  1  0  0  0
 37107  1  0  0  0
 38 43  2  0  0  0
 38 46  1  0  0  0
 38 47  1  0  0  0
 39 64  1  0  0  0
 39 67  2  0  0  0
 40 52  1  0  0  0
 40 53  2  0  0  0
 40 58  1  0  0  0
 41108  1  0  0  0
 41109  1  0  0  0
 41110  1  0  0  0
 41 48  1  0  0  0
 42 43  1  0  0  0
 42 66  1  0  0  0
 42111  1  0  0  0
 42112  1  0  0  0
 43 44  1  0  0  0
 44113  1  0  0  0
 45 46  2  0  0  0
 45114  1  0  0  0
 46115  1  0  0  0
 47116  1  0  0  0
 47117  1  0  0  0
 48 56  1  0  0  0
 48 65  1  0  0  0
 48118  1  0  0  0
 49 50  1  0  0  0
 49 53  1  0  0  0
 49 64  1  0  0  0
 49119  1  0  0  0
 50 51  1  0  0  0
 50120  1  0  0  0
 50121  1  0  0  0
 51 52  1  0  0  0
 51122  1  0  0  0
 51123  1  0  0  0
 52124  1  0  0  0
 52125  1  0  0  0
 53 54  1  0  0  0
 54 55  2  0  0  0
 54126  1  0  0  0
 55 57  1  0  0  0
 55127  1  0  0  0
 56 69  2  0  0  0
 57 58  2  0  0  0
 57128  1  0  0  0
 58129  1  0  0  0
 59 60  1  0  0  0
 59 61  1  0  0  0
 59 62  1  0  0  0
 60130  1  0  0  0
 60131  1  0  0  0
 60132  1  0  0  0
 61133  1  0  0  0
 61134  1  0  0  0
 61135  1  0  0  0
 62136  1  0  0  0
 62137  1  0  0  0
 62138  1  0  0  0
 63 65  1  0  0  0
 63139  1  0  0  0
 63140  1  0  0  0
 63141  1  0  0  0
 64142  1  0  0  0
 65143  1  0  0  0
 68 79  1  0  0  0
 71 73  2  0  0  0
 71 74  1  0  0  0
 71144  1  0  0  0
 72 75  2  0  0  0
 72 76  1  0  0  0
 72145  1  0  0  0
 73 75  1  0  0  0
 73 78  1  0  0  0
 74 76  2  0  0  0
 74 80  1  0  0  0
 75 83  1  0  0  0
 76 84  1  0  0  0
 77 79  1  0  0  0
 77 81  1  0  0  0
 77 82  2  0  0  0
 78 81  1  0  0  0
 78146  1  0  0  0
 78147  1  0  0  0
 79148  1  0  0  0
 79149  1  0  0  0
 80150  1  0  0  0
 81151  1  0  0  0
M  ISO  4   1 100  68 101  79 101  80 100
M  END
> <chiral flag>
0

> <version>
0

> <s_m_source_file>
/data/baiqing/PycharmProjects/Reinvent-master-3.2/result/LINK_invent/BTK/process_docking_weight1_custom_product_contain_oxygen_bond_distance_aromatic_linkinvent_7_9_3/rearranged_h_0048.sdf

> <i_m_source_file_index>
22

> <r_mmod_Potential_Energy-OPLS-2005>
281.887237548828

> <r_mmod_Stretch_Energy-OPLS-2005>
124.000419616699

> <r_mmod_Bend_Energy-OPLS-2005>
363.781982421875

> <r_mmod_Torsional_Energy-OPLS-2005>
241.800521850586

> <r_mmod_Improper_Torsional_Energy-OPLS-2005>
8.38270854949951

> <r_mmod_Van_der_Waal_Energy-OPLS-2005>
143.148635864258

> <r_mmod_Electrostatic_Energy-OPLS-2005>
-429.496490478516

> <r_mmod_Solvation_Energy-OPLS-2005>
-251.705581665039

> <b_mmod_Minimization_Converged-OPLS-2005>
0

> <r_mmod_RMS_Derivative-OPLS-2005>
0.821827948093414

$$$$
22
                    3D
 Structure written by MMmdl.
165173  0  0  1  0            999 V2000
  -30.6560  -14.4910   20.5350 C   0  0  0  0  0  0
  -30.4277  -12.3089   19.4200 C   0  0  0  0  0  0
  -29.4954  -12.5003   18.2027 C   0  0  0  0  0  0
  -28.0143  -12.3649   18.6121 C   0  0  0  0  0  0
  -27.6582  -13.2029   19.8692 C   0  0  2  0  0  0
  -28.6984  -12.9742   20.9899 C   0  0  0  0  0  0
  -25.2569  -13.8148   20.5673 C   0  0  0  0  0  0
  -24.1809  -13.0437   20.9177 C   0  0  0  0  0  0
  -24.6355  -11.6895   20.8722 C   0  0  0  0  0  0
  -23.9022  -10.4296   21.0408 C   0  0  0  0  0  0
  -24.3592   -9.4217   21.9181 C   0  0  0  0  0  0
  -23.6283   -8.2248   22.0748 C   0  0  0  0  0  0
  -22.4271   -8.0284   21.3543 C   0  0  0  0  0  0
  -21.9890   -9.0245   20.4648 C   0  0  0  0  0  0
  -22.7200  -10.2131   20.3061 C   0  0  0  0  0  0
  -21.6854   -6.0735   22.5269 C   0  0  0  0  0  0
  -21.4014   -6.5628   23.8207 C   0  0  0  0  0  0
  -21.3659   -5.6780   24.9165 C   0  0  0  0  0  0
  -21.6052   -4.3046   24.7219 C   0  0  0  0  0  0
  -21.8816   -3.8145   23.4336 C   0  0  0  0  0  0
  -21.9183   -4.6961   22.3396 C   0  0  0  0  0  0
  -22.7834  -13.5265   21.1832 C   0  0  0  0  0  0
  -22.1660   -4.2150   21.0974 F   0  0  0  0  0  0
  -21.5623   -3.4528   25.7732 F   0  0  0  0  0  0
  -30.0275  -13.2880   20.4395 N   0  0  0  0  0  0
  -26.2992  -12.9312   20.3334 N   0  0  0  0  0  0
  -25.9280  -11.6479   20.5736 N   0  0  0  0  0  0
  -22.0447  -12.8302   22.0399 N   0  0  0  0  0  0
  -25.4282  -15.1874   20.4087 N   0  0  0  0  0  0
  -31.8144  -14.6728   20.1468 O   0  0  0  0  0  0
  -21.6636   -6.8881   21.4239 O   0  0  0  0  0  0
  -22.3524  -14.5555   20.6639 O   0  0  0  0  0  0
  -24.6170  -31.8655   23.2082 C   0  0  0  0  0  0
  -25.9064  -32.4794   23.8377 C   0  0  1  0  0  0
  -27.2390  -27.4252   20.0785 C   0  0  0  0  0  0
  -25.5925  -33.8588   24.2322 N   0  0  0  0  0  0
  -23.4041  -30.4876   21.5490 C   0  0  2  0  0  0
  -24.8467  -28.9469   20.1179 C   0  0  0  0  0  0
  -22.7400  -29.4648   22.4991 C   0  0  0  0  0  0
  -18.0260  -28.1366   22.8486 C   0  0  0  0  0  0
  -24.1478  -36.7291   23.2645 C   0  0  0  0  0  0
  -25.9324  -30.8287   21.3593 C   0  0  0  0  0  0
  -26.0076  -29.4594   20.7094 C   0  0  0  0  0  0
  -27.2011  -28.7024   20.6897 C   0  0  0  0  0  0
  -26.0442  -26.9094   19.5276 C   0  0  0  0  0  0
  -24.8589  -27.6706   19.5295 C   0  0  0  0  0  0
  -23.6107  -29.8147   20.1655 C   0  0  0  0  0  0
  -25.4103  -36.3095   24.0352 C   0  0  1  0  0  0
  -20.5850  -28.3654   23.1316 C   0  0  2  0  0  0
  -20.6741  -26.9387   22.5412 C   0  0  0  0  0  0
  -19.5729  -26.6376   21.5198 C   0  0  0  0  0  0
  -18.1913  -26.7909   22.1614 C   0  0  0  0  0  0
  -19.1516  -28.8823   23.2899 C   0  0  0  0  0  0
  -18.9449  -30.1421   23.8911 C   0  0  0  0  0  0
  -17.6455  -30.6574   24.0554 C   0  0  0  0  0  0
  -25.9032  -34.9451   23.5132 C   0  0  0  0  0  0
  -16.5347  -29.9087   23.6310 C   0  0  0  0  0  0
  -16.7251  -28.6501   23.0357 C   0  0  0  0  0  0
  -26.4509  -31.6584   25.0700 C   0  0  0  0  0  0
  -25.3801  -31.3677   26.1471 C   0  0  0  0  0  0
  -27.0360  -30.3037   24.6057 C   0  0  0  0  0  0
  -27.6083  -32.4329   25.7461 C   0  0  0  0  0  0
  -27.5577  -37.1798   24.8468 C   0  0  0  0  0  0
  -21.4125  -29.3032   22.3728 N   0  0  0  0  0  0
  -26.4284  -37.3788   23.9418 N   0  0  0  0  0  0
  -24.6699  -31.0755   22.0971 N   0  0  0  0  0  0
  -23.4158  -28.8175   23.3032 O   0  0  0  0  0  0
  -28.4449  -26.7434   20.0686 O   0  0  0  0  0  0
  -26.5567  -34.8914   22.4671 O   0  0  0  0  0  0
  -23.5376  -32.1386   23.7505 O   0  0  0  0  0  0
  -30.5182  -18.9667   19.5335 C   0  0  0  0  0  0
  -29.6245  -17.7244   21.8707 C   0  0  0  0  0  0
  -30.1778  -19.7723   20.6439 C   0  0  0  0  0  0
  -30.4083  -17.5559   19.5709 C   0  0  0  0  0  0
  -29.7050  -19.1368   21.8226 C   0  0  0  0  0  0
  -30.0070  -16.9124   20.7771 C   0  0  0  0  0  0
  -30.3826  -21.2316   20.5403 C   0  0  0  0  0  0
  -30.6739  -16.7956   18.2806 C   0  0  0  0  0  0
  -29.3222  -19.9229   23.0693 C   0  0  0  0  0  0
  -28.3578  -25.9361   17.6853 C   0  0  0  0  0  0
  -28.3803  -24.2336   19.6430 C   0  0  0  0  0  0
  -29.4106  -23.6003   20.6188 C   0  0  0  0  0  0
  -28.7462  -25.6665   19.1551 C   0  0  2  0  0  0
  -31.6225  -21.6745   20.3324 N   0  0  0  0  0  0
  -29.8524  -15.4989   20.9323 N   0  0  0  0  0  0
  -29.3632  -22.1107   20.6520 N   0  3  0  0  0  0
  -31.4735  -12.4166   19.1240 H   0  0  0  0  0  0
  -30.3337  -11.2975   19.8202 H   0  0  0  0  0  0
  -29.7370  -11.7728   17.4267 H   0  0  0  0  0  0
  -29.6590  -13.4846   17.7593 H   0  0  0  0  0  0
  -27.8154  -11.3092   18.8033 H   0  0  0  0  0  0
  -27.3677  -12.6456   17.7799 H   0  0  0  0  0  0
  -27.7011  -14.2509   19.5680 H   0  0  0  0  0  0
  -28.6727  -11.9348   21.3230 H   0  0  0  0  0  0
  -28.4629  -13.5662   21.8760 H   0  0  0  0  0  0
  -25.2731   -9.5700   22.4753 H   0  0  0  0  0  0
  -23.9984   -7.4647   22.7472 H   0  0  0  0  0  0
  -21.0814   -8.8776   19.8968 H   0  0  0  0  0  0
  -22.3658  -10.9671   19.6181 H   0  0  0  0  0  0
  -21.2021   -7.6140   23.9722 H   0  0  0  0  0  0
  -21.1479   -6.0502   25.9072 H   0  0  0  0  0  0
  -22.0599   -2.7611   23.2825 H   0  0  0  0  0  0
  -22.4031  -11.9989   22.4878 H   0  0  0  0  0  0
  -21.1070  -13.1368   22.2560 H   0  0  0  0  0  0
  -24.6562  -15.8377   20.5060 H   0  0  0  0  0  0
  -26.2754  -15.6301   20.0755 H   0  0  0  0  0  0
  -26.7122  -32.5504   23.1137 H   0  0  0  0  0  0
  -25.0151  -33.9719   25.0523 H   0  0  0  0  0  0
  -22.6956  -31.3054   21.4075 H   0  0  0  0  0  0
  -23.3744  -35.9620   23.3308 H   0  0  0  0  0  0
  -24.3568  -36.8890   22.2054 H   0  0  0  0  0  0
  -23.7199  -37.6493   23.6641 H   0  0  0  0  0  0
  -26.0417  -31.5941   20.5910 H   0  0  0  0  0  0
  -26.8225  -30.8832   21.9744 H   0  0  0  0  0  0
  -28.1042  -29.1000   21.1358 H   0  0  0  0  0  0
  -26.0024  -25.9171   19.1097 H   0  0  0  0  0  0
  -23.9592  -27.2595   19.0933 H   0  0  0  0  0  0
  -23.7145  -30.5809   19.3967 H   0  0  0  0  0  0
  -22.7352  -29.2305   19.8779 H   0  0  0  0  0  0
  -25.1272  -36.1977   25.0847 H   0  0  0  0  0  0
  -20.9943  -28.3221   24.1436 H   0  0  0  0  0  0
  -20.5617  -26.2263   23.3603 H   0  0  0  0  0  0
  -21.6625  -26.7433   22.1225 H   0  0  0  0  0  0
  -19.6889  -25.6298   21.1210 H   0  0  0  0  0  0
  -19.6662  -27.3198   20.6735 H   0  0  0  0  0  0
  -17.4177  -26.6655   21.4019 H   0  0  0  0  0  0
  -18.0322  -26.0054   22.9010 H   0  0  0  0  0  0
  -19.7934  -30.7213   24.2315 H   0  0  0  0  0  0
  -17.5028  -31.6253   24.5154 H   0  0  0  0  0  0
  -15.5359  -30.3012   23.7606 H   0  0  0  0  0  0
  -15.8647  -28.0810   22.7102 H   0  0  0  0  0  0
  -24.5972  -30.7017   25.7818 H   0  0  0  0  0  0
  -24.9010  -32.2836   26.4949 H   0  0  0  0  0  0
  -25.8211  -30.8833   27.0193 H   0  0  0  0  0  0
  -26.2876  -29.6743   24.1228 H   0  0  0  0  0  0
  -27.4265  -29.7331   25.4491 H   0  0  0  0  0  0
  -27.8648  -30.4355   23.9099 H   0  0  0  0  0  0
  -27.2677  -33.3614   26.2056 H   0  0  0  0  0  0
  -28.3892  -32.6914   25.0295 H   0  0  0  0  0  0
  -28.0752  -31.8442   26.5365 H   0  0  0  0  0  0
  -28.2621  -38.0075   24.7545 H   0  0  0  0  0  0
  -28.1053  -36.2616   24.6287 H   0  0  0  0  0  0
  -27.2289  -37.1449   25.8868 H   0  0  0  0  0  0
  -20.9281  -29.8777   21.6980 H   0  0  0  0  0  0
  -26.0179  -38.2863   24.1451 H   0  0  0  0  0  0
  -30.8457  -19.4489   18.6210 H   0  0  0  0  0  0
  -29.2733  -17.2504   22.7760 H   0  0  0  0  0  0
  -30.5709  -17.4474   17.4141 H   0  0  0  0  0  0
  -29.9685  -15.9748   18.1497 H   0  0  0  0  0  0
  -31.6866  -16.3953   18.2683 H   0  0  0  0  0  0
  -29.1064  -19.2561   23.9043 H   0  0  0  0  0  0
  -28.4319  -20.5284   22.8911 H   0  0  0  0  0  0
  -30.1355  -20.5786   23.3804 H   0  0  0  0  0  0
  -28.9784  -25.3390   17.0162 H   0  0  0  0  0  0
  -28.5048  -26.9817   17.4158 H   0  0  0  0  0  0
  -27.3278  -25.6651   17.4589 H   0  0  0  0  0  0
  -27.3895  -24.2393   20.0964 H   0  0  0  0  0  0
  -28.3038  -23.5834   18.7721 H   0  0  0  0  0  0
  -29.2551  -23.9910   21.6252 H   0  0  0  0  0  0
  -30.4121  -23.9192   20.3286 H   0  0  0  0  0  0
  -29.8348  -25.6962   19.1245 H   0  0  0  0  0  0
  -32.3738  -21.0024   20.2545 H   0  0  0  0  0  0
  -31.8667  -22.6486   20.3835 H   0  0  0  0  0  0
  -28.9980  -15.1990   21.3747 H   0  0  0  0  0  0
  -28.4524  -21.6953   20.8100 H   0  0  0  0  0  0
  1 25  1  0  0  0
  1 30  2  0  0  0
  1 85  1  0  0  0
  2  3  1  0  0  0
  2 25  1  0  0  0
  2 87  1  0  0  0
  2 88  1  0  0  0
  3  4  1  0  0  0
  3 89  1  0  0  0
  3 90  1  0  0  0
  4  5  1  0  0  0
  4 91  1  0  0  0
  4 92  1  0  0  0
  5  6  1  0  0  0
  5 26  1  0  0  0
  5 93  1  0  0  0
  6 25  1  0  0  0
  6 94  1  0  0  0
  6 95  1  0  0  0
  7  8  2  0  0  0
  7 26  1  0  0  0
  7 29  1  0  0  0
  8  9  1  0  0  0
  8 22  1  0  0  0
  9 10  1  0  0  0
  9 27  2  0  0  0
 10 11  2  0  0  0
 10 15  1  0  0  0
 11 12  1  0  0  0
 11 96  1  0  0  0
 12 13  2  0  0  0
 12 97  1  0  0  0
 13 14  1  0  0  0
 13 31  1  0  0  0
 14 15  2  0  0  0
 14 98  1  0  0  0
 15 99  1  0  0  0
 16 17  2  0  0  0
 16 21  1  0  0  0
 16 31  1  0  0  0
 17 18  1  0  0  0
 17100  1  0  0  0
 18 19  2  0  0  0
 18101  1  0  0  0
 19 20  1  0  0  0
 19 24  1  0  0  0
 20 21  2  0  0  0
 20102  1  0  0  0
 21 23  1  0  0  0
 22 28  1  0  0  0
 22 32  2  0  0  0
 26 27  1  0  0  0
 28103  1  0  0  0
 28104  1  0  0  0
 29105  1  0  0  0
 29106  1  0  0  0
 33 34  1  0  0  0
 33 66  1  0  0  0
 33 70  2  0  0  0
 34 36  1  0  0  0
 34 59  1  0  0  0
 34107  1  0  0  0
 35 44  2  0  0  0
 35 45  1  0  0  0
 35 68  1  0  0  0
 36 56  1  0  0  0
 36108  1  0  0  0
 37 39  1  0  0  0
 37 47  1  0  0  0
 37 66  1  0  0  0
 37109  1  0  0  0
 38 43  2  0  0  0
 38 46  1  0  0  0
 38 47  1  0  0  0
 39 64  1  0  0  0
 39 67  2  0  0  0
 40 52  1  0  0  0
 40 53  2  0  0  0
 40 58  1  0  0  0
 41110  1  0  0  0
 41111  1  0  0  0
 41112  1  0  0  0
 41 48  1  0  0  0
 42 43  1  0  0  0
 42 66  1  0  0  0
 42113  1  0  0  0
 42114  1  0  0  0
 43 44  1  0  0  0
 44115  1  0  0  0
 45 46  2  0  0  0
 45116  1  0  0  0
 46117  1  0  0  0
 47118  1  0  0  0
 47119  1  0  0  0
 48 56  1  0  0  0
 48 65  1  0  0  0
 48120  1  0  0  0
 49 50  1  0  0  0
 49 53  1  0  0  0
 49 64  1  0  0  0
 49121  1  0  0  0
 50 51  1  0  0  0
 50122  1  0  0  0
 50123  1  0  0  0
 51 52  1  0  0  0
 51124  1  0  0  0
 51125  1  0  0  0
 52126  1  0  0  0
 52127  1  0  0  0
 53 54  1  0  0  0
 54 55  2  0  0  0
 54128  1  0  0  0
 55 57  1  0  0  0
 55129  1  0  0  0
 56 69  2  0  0  0
 57 58  2  0  0  0
 57130  1  0  0  0
 58131  1  0  0  0
 59 60  1  0  0  0
 59 61  1  0  0  0
 59 62  1  0  0  0
 60132  1  0  0  0
 60133  1  0  0  0
 60134  1  0  0  0
 61135  1  0  0  0
 61136  1  0  0  0
 61137  1  0  0  0
 62138  1  0  0  0
 62139  1  0  0  0
 62140  1  0  0  0
 63 65  1  0  0  0
 63141  1  0  0  0
 63142  1  0  0  0
 63143  1  0  0  0
 64144  1  0  0  0
 65145  1  0  0  0
 68 83  1  0  0  0
 71 73  2  0  0  0
 71 74  1  0  0  0
 71146  1  0  0  0
 72 75  2  0  0  0
 72 76  1  0  0  0
 72147  1  0  0  0
 73 75  1  0  0  0
 73 77  1  0  0  0
 74 76  2  0  0  0
 74 78  1  0  0  0
 75 79  1  0  0  0
 76 85  1  0  0  0
 77 84  1  0  0  0
 77 86  2  0  0  0
 78148  1  0  0  0
 78149  1  0  0  0
 78150  1  0  0  0
 79151  1  0  0  0
 79152  1  0  0  0
 79153  1  0  0  0
 80154  1  0  0  0
 80155  1  0  0  0
 80156  1  0  0  0
 80 83  1  0  0  0
 81 82  1  0  0  0
 81 83  1  0  0  0
 81157  1  0  0  0
 81158  1  0  0  0
 82 86  1  0  0  0
 82159  1  0  0  0
 82160  1  0  0  0
 83161  1  0  0  0
 84162  1  0  0  0
 84163  1  0  0  0
 85164  1  0  0  0
 86165  1  0  0  0
M  CHG  1  86   1
M  ISO  4   1 100  68 101  83 101  85 100
M  END
> <chiral flag>
0

> <version>
0

> <s_m_source_file>
/data/baiqing/PycharmProjects/Reinvent-master-3.2/result/LINK_invent/BTK/process_docking_weight1_custom_product_contain_oxygen_bond_distance_aromatic_linkinvent_7_9_3/rearranged_h_0048.sdf

> <i_m_source_file_index>
23

> <r_mmod_Potential_Energy-OPLS-2005>
-179.891662597656

> <r_mmod_Stretch_Energy-OPLS-2005>
41.704044342041

> <r_mmod_Bend_Energy-OPLS-2005>
126.875503540039

> <r_mmod_Torsional_Energy-OPLS-2005>
240.736953735352

> <r_mmod_Improper_Torsional_Energy-OPLS-2005>
4.5701470375061

> <r_mmod_Van_der_Waal_Energy-OPLS-2005>
157.449737548828

> <r_mmod_Electrostatic_Energy-OPLS-2005>
-371.652465820312

> <r_mmod_Solvation_Energy-OPLS-2005>
-395.081756591797

> <b_mmod_Minimization_Converged-OPLS-2005>
0

> <r_mmod_RMS_Derivative-OPLS-2005>
3.05145978927612

$$$$
23
                    3D
 Structure written by MMmdl.
168176  0  0  1  0            999 V2000
  -30.7050  -14.4432   20.4309 C   0  0  0  0  0  0
  -30.4198  -12.2595   19.4098 C   0  0  0  0  0  0
  -29.4925  -12.4735   18.1940 C   0  0  0  0  0  0
  -28.0067  -12.3585   18.6009 C   0  0  0  0  0  0
  -27.6574  -13.2025   19.8553 C   0  0  2  0  0  0
  -28.7099  -13.0148   20.9752 C   0  0  0  0  0  0
  -25.2557  -13.8107   20.5546 C   0  0  0  0  0  0
  -24.1835  -13.0417   20.9170 C   0  0  0  0  0  0
  -24.6408  -11.6896   20.8760 C   0  0  0  0  0  0
  -23.9053  -10.4302   21.0417 C   0  0  0  0  0  0
  -24.3621   -9.4216   21.9186 C   0  0  0  0  0  0
  -23.6321   -8.2233   22.0722 C   0  0  0  0  0  0
  -22.4292   -8.0280   21.3523 C   0  0  0  0  0  0
  -21.9927   -9.0248   20.4605 C   0  0  0  0  0  0
  -22.7237  -10.2146   20.3043 C   0  0  0  0  0  0
  -21.6859   -6.0756   22.5286 C   0  0  0  0  0  0
  -21.4007   -6.5656   23.8218 C   0  0  0  0  0  0
  -21.3654   -5.6795   24.9167 C   0  0  0  0  0  0
  -21.6051   -4.3063   24.7215 C   0  0  0  0  0  0
  -21.8822   -3.8169   23.4331 C   0  0  0  0  0  0
  -21.9195   -4.6988   22.3395 C   0  0  0  0  0  0
  -22.7857  -13.5195   21.1850 C   0  0  0  0  0  0
  -22.1654   -4.2174   21.0974 F   0  0  0  0  0  0
  -21.5640   -3.4544   25.7730 F   0  0  0  0  0  0
  -30.0446  -13.2631   20.4085 N   0  0  0  0  0  0
  -26.3008  -12.9299   20.3256 N   0  0  0  0  0  0
  -25.9329  -11.6474   20.5758 N   0  0  0  0  0  0
  -22.0501  -12.8186   22.0417 N   0  0  0  0  0  0
  -25.4142  -15.1803   20.3756 N   0  0  0  0  0  0
  -31.9236  -14.5392   20.3273 O   0  0  0  0  0  0
  -21.6641   -6.8896   21.4247 O   0  0  0  0  0  0
  -22.3526  -14.5505   20.6699 O   0  0  0  0  0  0
  -24.6119  -31.8711   23.2123 C   0  0  0  0  0  0
  -25.9042  -32.4856   23.8400 C   0  0  1  0  0  0
  -27.2283  -27.4648   20.0977 C   0  0  0  0  0  0
  -25.5913  -33.8657   24.2337 N   0  0  0  0  0  0
  -23.3946  -30.5027   21.5488 C   0  0  2  0  0  0
  -24.8386  -28.9710   20.1212 C   0  0  0  0  0  0
  -22.7380  -29.4711   22.4951 C   0  0  0  0  0  0
  -18.0266  -28.1360   22.8505 C   0  0  0  0  0  0
  -24.1459  -36.7310   23.2634 C   0  0  0  0  0  0
  -25.9213  -30.8554   21.3553 C   0  0  0  0  0  0
  -25.9988  -29.4886   20.7084 C   0  0  0  0  0  0
  -27.1988  -28.7466   20.6895 C   0  0  0  0  0  0
  -26.0443  -26.9594   19.5085 C   0  0  0  0  0  0
  -24.8527  -27.7022   19.5215 C   0  0  0  0  0  0
  -23.6031  -29.8369   20.1615 C   0  0  0  0  0  0
  -25.4101  -36.3148   24.0338 C   0  0  1  0  0  0
  -20.5855  -28.3682   23.1311 C   0  0  2  0  0  0
  -20.6766  -26.9422   22.5412 C   0  0  0  0  0  0
  -19.5723  -26.6390   21.5226 C   0  0  0  0  0  0
  -18.1902  -26.7905   22.1638 C   0  0  0  0  0  0
  -19.1517  -28.8823   23.2901 C   0  0  0  0  0  0
  -18.9469  -30.1435   23.8907 C   0  0  0  0  0  0
  -17.6479  -30.6576   24.0579 C   0  0  0  0  0  0
  -25.9047  -34.9513   23.5123 C   0  0  0  0  0  0
  -16.5368  -29.9095   23.6296 C   0  0  0  0  0  0
  -16.7263  -28.6492   23.0345 C   0  0  0  0  0  0
  -26.4489  -31.6639   25.0726 C   0  0  0  0  0  0
  -25.3756  -31.3747   26.1481 C   0  0  0  0  0  0
  -27.0304  -30.3071   24.6095 C   0  0  0  0  0  0
  -27.6051  -32.4350   25.7518 C   0  0  0  0  0  0
  -27.5569  -37.1831   24.8483 C   0  0  0  0  0  0
  -21.4114  -29.3058   22.3711 N   0  0  0  0  0  0
  -26.4287  -37.3853   23.9428 N   0  0  0  0  0  0
  -24.6613  -31.0899   22.0969 N   0  0  0  0  0  0
  -23.4189  -28.8243   23.2956 O   0  0  0  0  0  0
  -28.4105  -26.7590   20.1066 O   0  0  0  0  0  0
  -26.5612  -34.8971   22.4691 O   0  0  0  0  0  0
  -23.5337  -32.1390   23.7584 O   0  0  0  0  0  0
  -30.3628  -19.4716   18.8241 C   0  0  0  0  0  0
  -31.2903  -18.5059   18.4221 C   0  0  0  0  0  0
  -29.2600  -19.1191   19.6308 C   0  0  0  0  0  0
  -31.1297  -17.1631   18.8003 C   0  0  0  0  0  0
  -29.1893  -17.8058   20.1748 C   0  0  0  0  0  0
  -30.1251  -16.8127   19.7617 C   0  0  0  0  0  0
  -28.1142  -20.0949   19.7351 C   0  0  0  0  0  0
  -28.8628  -24.6516   18.9598 C   0  0  0  0  0  0
  -31.9993  -16.1701   18.0402 C   0  0  0  0  0  0
  -28.0746  -17.4601   21.1712 C   0  0  0  0  0  0
  -29.0493  -22.7025   17.3519 C   0  0  0  0  0  0
  -26.9185  -23.9839   17.4946 C   0  0  0  0  0  0
  -28.3044  -25.3376   20.2170 C   0  0  0  0  0  0
  -27.5264  -22.4631   19.4093 C   0  0  0  0  0  0
  -28.1002  -23.4462   18.3352 C   0  0  0  0  0  0
  -29.8859  -15.4894   20.2453 N   0  0  0  0  0  0
  -28.4448  -21.3880   19.7830 N   0  0  0  0  0  0
  -26.9428  -19.7079   19.6916 O   0  0  0  0  0  0
  -29.9017  -25.0802   18.4433 O   0  0  0  0  0  0
  -31.4648  -12.3481   19.1060 H   0  0  0  0  0  0
  -30.3009  -11.2550   19.8188 H   0  0  0  0  0  0
  -29.7289  -11.7465   17.4146 H   0  0  0  0  0  0
  -29.6684  -13.4575   17.7549 H   0  0  0  0  0  0
  -27.7920  -11.3073   18.7877 H   0  0  0  0  0  0
  -27.3649  -12.6498   17.7678 H   0  0  0  0  0  0
  -27.6826  -14.2421   19.5345 H   0  0  0  0  0  0
  -28.6718  -12.0000   21.3759 H   0  0  0  0  0  0
  -28.5030  -13.6852   21.8113 H   0  0  0  0  0  0
  -25.2775   -9.5709   22.4772 H   0  0  0  0  0  0
  -24.0068   -7.4622   22.7425 H   0  0  0  0  0  0
  -21.0873   -8.8748   19.8904 H   0  0  0  0  0  0
  -22.3690  -10.9690   19.6159 H   0  0  0  0  0  0
  -21.1973   -7.6158   23.9729 H   0  0  0  0  0  0
  -21.1472   -6.0510   25.9075 H   0  0  0  0  0  0
  -22.0604   -2.7631   23.2817 H   0  0  0  0  0  0
  -22.4153  -11.9882   22.4849 H   0  0  0  0  0  0
  -21.1080  -13.1137   22.2571 H   0  0  0  0  0  0
  -24.6171  -15.8061   20.4329 H   0  0  0  0  0  0
  -26.2141  -15.6019   19.9236 H   0  0  0  0  0  0
  -26.7130  -32.5586   23.1186 H   0  0  0  0  0  0
  -25.0140  -33.9818   25.0540 H   0  0  0  0  0  0
  -22.6797  -31.3165   21.4127 H   0  0  0  0  0  0
  -23.3732  -35.9616   23.3332 H   0  0  0  0  0  0
  -24.3545  -36.8886   22.2039 H   0  0  0  0  0  0
  -23.7184  -37.6519   23.6616 H   0  0  0  0  0  0
  -26.0305  -31.6243   20.5882 H   0  0  0  0  0  0
  -26.8099  -30.9103   21.9709 H   0  0  0  0  0  0
  -28.0964  -29.1542   21.1339 H   0  0  0  0  0  0
  -26.0217  -26.0019   19.0243 H   0  0  0  0  0  0
  -23.9561  -27.3000   19.0696 H   0  0  0  0  0  0
  -23.7194  -30.6087   19.3988 H   0  0  0  0  0  0
  -22.7266  -29.2600   19.8622 H   0  0  0  0  0  0
  -25.1278  -36.2015   25.0828 H   0  0  0  0  0  0
  -20.9973  -28.3269   24.1425 H   0  0  0  0  0  0
  -20.5665  -26.2322   23.3618 H   0  0  0  0  0  0
  -21.6643  -26.7448   22.1227 H   0  0  0  0  0  0
  -19.6897  -25.6304   21.1237 H   0  0  0  0  0  0
  -19.6637  -27.3219   20.6763 H   0  0  0  0  0  0
  -17.4188  -26.6677   21.4022 H   0  0  0  0  0  0
  -18.0284  -26.0027   22.9001 H   0  0  0  0  0  0
  -19.7968  -30.7227   24.2279 H   0  0  0  0  0  0
  -17.5054  -31.6247   24.5206 H   0  0  0  0  0  0
  -15.5369  -30.3034   23.7575 H   0  0  0  0  0  0
  -15.8667  -28.0827   22.7061 H   0  0  0  0  0  0
  -24.5928  -30.7100   25.7820 H   0  0  0  0  0  0
  -24.8961  -32.2906   26.4927 H   0  0  0  0  0  0
  -25.8117  -30.8931   27.0233 H   0  0  0  0  0  0
  -26.2821  -29.6869   24.1124 H   0  0  0  0  0  0
  -27.4051  -29.7311   25.4568 H   0  0  0  0  0  0
  -27.8682  -30.4394   23.9230 H   0  0  0  0  0  0
  -27.2646  -33.3633   26.2112 H   0  0  0  0  0  0
  -28.3860  -32.6933   25.0355 H   0  0  0  0  0  0
  -28.0690  -31.8452   26.5433 H   0  0  0  0  0  0
  -28.2652  -38.0078   24.7532 H   0  0  0  0  0  0
  -28.1015  -36.2640   24.6301 H   0  0  0  0  0  0
  -27.2305  -37.1457   25.8891 H   0  0  0  0  0  0
  -20.9246  -29.8843   21.7008 H   0  0  0  0  0  0
  -26.0171  -38.2923   24.1432 H   0  0  0  0  0  0
  -30.4658  -20.4629   18.4156 H   0  0  0  0  0  0
  -32.0720  -18.7969   17.7312 H   0  0  0  0  0  0
  -32.2460  -16.5578   17.0515 H   0  0  0  0  0  0
  -31.4900  -15.2225   17.8682 H   0  0  0  0  0  0
  -32.9457  -15.9982   18.5520 H   0  0  0  0  0  0
  -27.1309  -17.3061   20.6489 H   0  0  0  0  0  0
  -27.9365  -18.2783   21.8805 H   0  0  0  0  0  0
  -28.2665  -16.5743   21.7730 H   0  0  0  0  0  0
  -29.2338  -23.2863   16.4511 H   0  0  0  0  0  0
  -28.6297  -21.7482   17.0323 H   0  0  0  0  0  0
  -30.0255  -22.5045   17.7978 H   0  0  0  0  0  0
  -27.1459  -24.9285   16.9961 H   0  0  0  0  0  0
  -26.0262  -24.1277   18.1013 H   0  0  0  0  0  0
  -26.6350  -23.2717   16.7192 H   0  0  0  0  0  0
  -28.9185  -25.0277   21.0619 H   0  0  0  0  0  0
  -27.2923  -25.0170   20.4537 H   0  0  0  0  0  0
  -26.6054  -22.0349   19.0072 H   0  0  0  0  0  0
  -27.2065  -22.9573   20.3244 H   0  0  0  0  0  0
  -28.9181  -15.2768   20.4206 H   0  0  0  0  0  0
  -29.4250  -21.6086   19.8900 H   0  0  0  0  0  0
  1 25  1  0  0  0
  1 30  2  0  0  0
  1 86  1  0  0  0
  2  3  1  0  0  0
  2 25  1  0  0  0
  2 90  1  0  0  0
  2 91  1  0  0  0
  3  4  1  0  0  0
  3 92  1  0  0  0
  3 93  1  0  0  0
  4  5  1  0  0  0
  4 94  1  0  0  0
  4 95  1  0  0  0
  5  6  1  0  0  0
  5 26  1  0  0  0
  5 96  1  0  0  0
  6 25  1  0  0  0
  6 97  1  0  0  0
  6 98  1  0  0  0
  7  8  2  0  0  0
  7 26  1  0  0  0
  7 29  1  0  0  0
  8  9  1  0  0  0
  8 22  1  0  0  0
  9 10  1  0  0  0
  9 27  2  0  0  0
 10 11  2  0  0  0
 10 15  1  0  0  0
 11 12  1  0  0  0
 11 99  1  0  0  0
 12 13  2  0  0  0
 12100  1  0  0  0
 13 14  1  0  0  0
 13 31  1  0  0  0
 14 15  2  0  0  0
 14101  1  0  0  0
 15102  1  0  0  0
 16 17  2  0  0  0
 16 21  1  0  0  0
 16 31  1  0  0  0
 17 18  1  0  0  0
 17103  1  0  0  0
 18 19  2  0  0  0
 18104  1  0  0  0
 19 20  1  0  0  0
 19 24  1  0  0  0
 20 21  2  0  0  0
 20105  1  0  0  0
 21 23  1  0  0  0
 22 28  1  0  0  0
 22 32  2  0  0  0
 26 27  1  0  0  0
 28106  1  0  0  0
 28107  1  0  0  0
 29108  1  0  0  0
 29109  1  0  0  0
 33 34  1  0  0  0
 33 66  1  0  0  0
 33 70  2  0  0  0
 34 36  1  0  0  0
 34 59  1  0  0  0
 34110  1  0  0  0
 35 44  2  0  0  0
 35 45  1  0  0  0
 35 68  1  0  0  0
 36 56  1  0  0  0
 36111  1  0  0  0
 37 39  1  0  0  0
 37 47  1  0  0  0
 37 66  1  0  0  0
 37112  1  0  0  0
 38 43  2  0  0  0
 38 46  1  0  0  0
 38 47  1  0  0  0
 39 64  1  0  0  0
 39 67  2  0  0  0
 40 52  1  0  0  0
 40 53  2  0  0  0
 40 58  1  0  0  0
 41113  1  0  0  0
 41114  1  0  0  0
 41115  1  0  0  0
 41 48  1  0  0  0
 42 43  1  0  0  0
 42 66  1  0  0  0
 42116  1  0  0  0
 42117  1  0  0  0
 43 44  1  0  0  0
 44118  1  0  0  0
 45 46  2  0  0  0
 45119  1  0  0  0
 46120  1  0  0  0
 47121  1  0  0  0
 47122  1  0  0  0
 48 56  1  0  0  0
 48 65  1  0  0  0
 48123  1  0  0  0
 49 50  1  0  0  0
 49 53  1  0  0  0
 49 64  1  0  0  0
 49124  1  0  0  0
 50 51  1  0  0  0
 50125  1  0  0  0
 50126  1  0  0  0
 51 52  1  0  0  0
 51127  1  0  0  0
 51128  1  0  0  0
 52129  1  0  0  0
 52130  1  0  0  0
 53 54  1  0  0  0
 54 55  2  0  0  0
 54131  1  0  0  0
 55 57  1  0  0  0
 55132  1  0  0  0
 56 69  2  0  0  0
 57 58  2  0  0  0
 57133  1  0  0  0
 58134  1  0  0  0
 59 60  1  0  0  0
 59 61  1  0  0  0
 59 62  1  0  0  0
 60135  1  0  0  0
 60136  1  0  0  0
 60137  1  0  0  0
 61138  1  0  0  0
 61139  1  0  0  0
 61140  1  0  0  0
 62141  1  0  0  0
 62142  1  0  0  0
 62143  1  0  0  0
 63 65  1  0  0  0
 63144  1  0  0  0
 63145  1  0  0  0
 63146  1  0  0  0
 64147  1  0  0  0
 65148  1  0  0  0
 68 83  1  0  0  0
 71 72  2  0  0  0
 71 73  1  0  0  0
 71149  1  0  0  0
 72 74  1  0  0  0
 72150  1  0  0  0
 73 75  2  0  0  0
 73 77  1  0  0  0
 74 76  2  0  0  0
 74 79  1  0  0  0
 75 76  1  0  0  0
 75 80  1  0  0  0
 76 86  1  0  0  0
 77 87  1  0  0  0
 77 88  2  0  0  0
 78 83  1  0  0  0
 78 85  1  0  0  0
 78 89  2  0  0  0
 79151  1  0  0  0
 79152  1  0  0  0
 79153  1  0  0  0
 80154  1  0  0  0
 80155  1  0  0  0
 80156  1  0  0  0
 81157  1  0  0  0
 81158  1  0  0  0
 81159  1  0  0  0
 81 85  1  0  0  0
 82 85  1  0  0  0
 82160  1  0  0  0
 82161  1  0  0  0
 82162  1  0  0  0
 83163  1  0  0  0
 83164  1  0  0  0
 84 85  1  0  0  0
 84 87  1  0  0  0
 84165  1  0  0  0
 84166  1  0  0  0
 86167  1  0  0  0
 87168  1  0  0  0
M  ISO  4   1 100  68 101  83 101  86 100
M  END
> <chiral flag>
0

> <version>
0

> <s_m_source_file>
/data/baiqing/PycharmProjects/Reinvent-master-3.2/result/LINK_invent/BTK/process_docking_weight1_custom_product_contain_oxygen_bond_distance_aromatic_linkinvent_7_9_3/rearranged_h_0048.sdf

> <i_m_source_file_index>
24

> <r_mmod_Potential_Energy-OPLS-2005>
15.1426582336426

> <r_mmod_Stretch_Energy-OPLS-2005>
41.5988349914551

> <r_mmod_Bend_Energy-OPLS-2005>
112.25129699707

> <r_mmod_Torsional_Energy-OPLS-2005>
290.246704101562

> <r_mmod_Improper_Torsional_Energy-OPLS-2005>
11.9477643966675

> <r_mmod_Van_der_Waal_Energy-OPLS-2005>
190.293716430664

> <r_mmod_Electrostatic_Energy-OPLS-2005>
-422.411468505859

> <r_mmod_Solvation_Energy-OPLS-2005>
-235.477325439453

> <b_mmod_Minimization_Converged-OPLS-2005>
0

> <r_mmod_RMS_Derivative-OPLS-2005>
3.84815216064453

$$$$
24
                    3D
 Structure written by MMmdl.
158167  0  0  1  0            999 V2000
  -30.5879  -15.0635   20.3882 C   0  0  0  0  0  0
  -30.4142  -12.6740   19.4963 C   0  0  0  0  0  0
  -29.5044  -12.5182   18.2579 C   0  0  0  0  0  0
  -28.0506  -12.2904   18.6989 C   0  0  0  0  0  0
  -27.6122  -13.2675   19.8199 C   0  0  2  0  0  0
  -28.6582  -13.4024   20.9469 C   0  0  0  0  0  0
  -25.2397  -13.8258   20.5790 C   0  0  0  0  0  0
  -24.1734  -13.0457   20.9297 C   0  0  0  0  0  0
  -24.6383  -11.6951   20.8815 C   0  0  0  0  0  0
  -23.9076  -10.4313   21.0445 C   0  0  0  0  0  0
  -24.3632   -9.4215   21.9202 C   0  0  0  0  0  0
  -23.6310   -8.2248   22.0757 C   0  0  0  0  0  0
  -22.4288   -8.0298   21.3547 C   0  0  0  0  0  0
  -21.9935   -9.0279   20.4651 C   0  0  0  0  0  0
  -22.7265  -10.2158   20.3066 C   0  0  0  0  0  0
  -21.6856   -6.0753   22.5290 C   0  0  0  0  0  0
  -21.4034   -6.5653   23.8227 C   0  0  0  0  0  0
  -21.3656   -5.6789   24.9182 C   0  0  0  0  0  0
  -21.6036   -4.3053   24.7223 C   0  0  0  0  0  0
  -21.8809   -3.8159   23.4343 C   0  0  0  0  0  0
  -21.9186   -4.6979   22.3413 C   0  0  0  0  0  0
  -22.7734  -13.5220   21.1893 C   0  0  0  0  0  0
  -22.1645   -4.2168   21.0982 F   0  0  0  0  0  0
  -21.5616   -3.4534   25.7733 F   0  0  0  0  0  0
  -29.9059  -13.8359   20.3047 N   0  0  0  0  0  0
  -26.2816  -12.9530   20.3258 N   0  0  0  0  0  0
  -25.9317  -11.6644   20.5795 N   0  0  0  0  0  0
  -22.0339  -12.8260   22.0452 N   0  0  0  0  0  0
  -25.4004  -15.1993   20.4237 N   0  0  0  0  0  0
  -31.8059  -14.9079   20.2823 O   0  0  0  0  0  0
  -21.6639   -6.8901   21.4248 O   0  0  0  0  0  0
  -22.3441  -14.5502   20.6684 O   0  0  0  0  0  0
  -24.6525  -31.8369   23.1801 C   0  0  0  0  0  0
  -25.9250  -32.4655   23.8236 C   0  0  1  0  0  0
  -27.2098  -27.0368   20.1718 C   0  0  0  0  0  0
  -25.5955  -33.8461   24.2147 N   0  0  0  0  0  0
  -23.4623  -30.4532   21.5281 C   0  0  2  0  0  0
  -24.9136  -28.8663   20.1139 C   0  0  0  0  0  0
  -22.7629  -29.4497   22.4813 C   0  0  0  0  0  0
  -18.0313  -28.1407   22.8482 C   0  0  0  0  0  0
  -24.1491  -36.7235   23.2647 C   0  0  0  0  0  0
  -26.0264  -30.6785   21.3973 C   0  0  0  0  0  0
  -26.0956  -29.2797   20.7418 C   0  0  0  0  0  0
  -27.2439  -28.3842   20.7499 C   0  0  0  0  0  0
  -26.0015  -26.7568   19.4960 C   0  0  0  0  0  0
  -24.8854  -27.6214   19.4729 C   0  0  0  0  0  0
  -23.6977  -29.7818   20.1500 C   0  0  0  0  0  0
  -25.4125  -36.3010   24.0312 C   0  0  1  0  0  0
  -20.5932  -28.3733   23.1217 C   0  0  2  0  0  0
  -20.6786  -26.9423   22.5404 C   0  0  0  0  0  0
  -19.5754  -26.6379   21.5219 C   0  0  0  0  0  0
  -18.1940  -26.7936   22.1632 C   0  0  0  0  0  0
  -19.1575  -28.8883   23.2835 C   0  0  0  0  0  0
  -18.9484  -30.1479   23.8866 C   0  0  0  0  0  0
  -17.6482  -30.6593   24.0560 C   0  0  0  0  0  0
  -25.9084  -34.9386   23.5047 C   0  0  0  0  0  0
  -16.5371  -29.9092   23.6342 C   0  0  0  0  0  0
  -16.7295  -28.6508   23.0362 C   0  0  0  0  0  0
  -26.4538  -31.6556   25.0715 C   0  0  0  0  0  0
  -25.3697  -31.3770   26.1392 C   0  0  0  0  0  0
  -27.0420  -30.2938   24.6367 C   0  0  0  0  0  0
  -27.6048  -32.4340   25.7503 C   0  0  0  0  0  0
  -27.5569  -37.1777   24.8472 C   0  0  0  0  0  0
  -21.4301  -29.3047   22.3571 N   0  0  0  0  0  0
  -26.4280  -37.3729   23.9411 N   0  0  0  0  0  0
  -24.7336  -31.0137   22.0897 N   0  0  0  0  0  0
  -23.4225  -28.8043   23.3000 O   0  0  0  0  0  0
  -28.2255  -25.9806   20.2318 O   0  0  0  0  0  0
  -26.5679  -34.8899   22.4639 O   0  0  0  0  0  0
  -23.5614  -32.1277   23.6965 O   0  0  0  0  0  0
  -32.5178  -20.0748   20.0192 C   0  0  0  0  0  0
  -31.1801  -20.3332   20.2930 C   0  0  0  0  0  0
  -31.9476  -17.7494   19.7826 C   0  0  0  0  0  0
  -32.8992  -18.7761   19.7264 C   0  0  0  0  0  0
  -30.1499  -19.3577   20.3338 C   0  0  0  0  0  0
  -30.5841  -17.8612   20.2040 C   0  0  0  0  0  0
  -28.8710  -23.1216   19.9580 C   0  0  0  0  0  0
  -27.2929  -23.8457   21.5395 C   0  0  0  0  0  0
  -27.4175  -22.2803   21.4630 C   0  0  0  0  0  0
  -27.8704  -24.4162   20.2404 C   0  0  1  0  0  0
  -34.3457  -18.4759   19.3831 C   0  0  0  0  0  0
  -28.7687  -20.2584   20.5008 C   0  0  0  0  0  0
  -28.5358  -21.8840   20.5856 N   0  0  0  0  0  0
  -29.9787  -16.4044   20.3846 N   0  0  0  0  0  0
  -29.8069  -23.2285   19.1604 O   0  0  0  0  0  0
  -31.4445  -12.8045   19.1632 H   0  0  0  0  0  0
  -30.4180  -11.7583   20.0887 H   0  0  0  0  0  0
  -29.8389  -11.6810   17.6423 H   0  0  0  0  0  0
  -29.5703  -13.4100   17.6332 H   0  0  0  0  0  0
  -27.9837  -11.2648   19.0663 H   0  0  0  0  0  0
  -27.3741  -12.3536   17.8458 H   0  0  0  0  0  0
  -27.5432  -14.2444   19.3381 H   0  0  0  0  0  0
  -28.7890  -12.4640   21.4877 H   0  0  0  0  0  0
  -28.3388  -14.1454   21.6793 H   0  0  0  0  0  0
  -25.2757   -9.5698   22.4807 H   0  0  0  0  0  0
  -24.0000   -7.4634   22.7501 H   0  0  0  0  0  0
  -21.0842   -8.8828   19.8973 H   0  0  0  0  0  0
  -22.3718  -10.9714   19.6193 H   0  0  0  0  0  0
  -21.2052   -7.6163   23.9754 H   0  0  0  0  0  0
  -21.1473   -6.0512   25.9087 H   0  0  0  0  0  0
  -22.0587   -2.7624   23.2837 H   0  0  0  0  0  0
  -22.3932  -11.9959   22.4918 H   0  0  0  0  0  0
  -21.0942  -13.1307   22.2588 H   0  0  0  0  0  0
  -24.6280  -15.8450   20.5531 H   0  0  0  0  0  0
  -26.2375  -15.6490   20.0755 H   0  0  0  0  0  0
  -26.7320  -32.5242   23.0958 H   0  0  0  0  0  0
  -25.0056  -33.9569   25.0262 H   0  0  0  0  0  0
  -22.7689  -31.2808   21.3662 H   0  0  0  0  0  0
  -23.3758  -35.9567   23.3313 H   0  0  0  0  0  0
  -24.3563  -36.8867   22.2062 H   0  0  0  0  0  0
  -23.7248  -37.6427   23.6689 H   0  0  0  0  0  0
  -26.1964  -31.4274   20.6224 H   0  0  0  0  0  0
  -26.8899  -30.7311   22.0478 H   0  0  0  0  0  0
  -28.1406  -28.6971   21.2669 H   0  0  0  0  0  0
  -25.8731  -25.8206   18.9803 H   0  0  0  0  0  0
  -23.9886  -27.3003   18.9615 H   0  0  0  0  0  0
  -23.8531  -30.5547   19.3969 H   0  0  0  0  0  0
  -22.8106  -29.2341   19.8282 H   0  0  0  0  0  0
  -25.1322  -36.1828   25.0802 H   0  0  0  0  0  0
  -21.0026  -28.3330   24.1339 H   0  0  0  0  0  0
  -20.5675  -26.2352   23.3637 H   0  0  0  0  0  0
  -21.6651  -26.7416   22.1204 H   0  0  0  0  0  0
  -19.6911  -25.6284   21.1265 H   0  0  0  0  0  0
  -19.6683  -27.3177   20.6739 H   0  0  0  0  0  0
  -17.4208  -26.6686   21.4038 H   0  0  0  0  0  0
  -18.0329  -26.0086   22.9036 H   0  0  0  0  0  0
  -19.7960  -30.7297   24.2228 H   0  0  0  0  0  0
  -17.5037  -31.6271   24.5167 H   0  0  0  0  0  0
  -15.5369  -30.2984   23.7677 H   0  0  0  0  0  0
  -15.8697  -28.0814   22.7104 H   0  0  0  0  0  0
  -24.5871  -30.7127   25.7703 H   0  0  0  0  0  0
  -24.8892  -32.2966   26.4746 H   0  0  0  0  0  0
  -25.7954  -30.8977   27.0218 H   0  0  0  0  0  0
  -26.3069  -29.6623   24.1360 H   0  0  0  0  0  0
  -27.3988  -29.7268   25.4977 H   0  0  0  0  0  0
  -27.8998  -30.4145   23.9742 H   0  0  0  0  0  0
  -27.2628  -33.3663   26.2000 H   0  0  0  0  0  0
  -28.3894  -32.6860   25.0359 H   0  0  0  0  0  0
  -28.0679  -31.8521   26.5480 H   0  0  0  0  0  0
  -28.2594  -38.0063   24.7494 H   0  0  0  0  0  0
  -28.1052  -36.2590   24.6333 H   0  0  0  0  0  0
  -27.2281  -37.1472   25.8872 H   0  0  0  0  0  0
  -20.9526  -29.8782   21.6755 H   0  0  0  0  0  0
  -26.0144  -38.2799   24.1396 H   0  0  0  0  0  0
  -33.2331  -20.8848   19.9976 H   0  0  0  0  0  0
  -30.9628  -21.3715   20.4753 H   0  0  0  0  0  0
  -32.3832  -16.8294   19.4580 H   0  0  0  0  0  0
  -27.8756  -24.2153   22.3845 H   0  0  0  0  0  0
  -26.2613  -24.1612   21.7003 H   0  0  0  0  0  0
  -26.5021  -21.8626   21.0412 H   0  0  0  0  0  0
  -27.5327  -21.8504   22.4577 H   0  0  0  0  0  0
  -27.1356  -24.2661   19.4545 H   0  0  0  0  0  0
  -35.0168  -19.1556   19.9115 H   0  0  0  0  0  0
  -34.5181  -18.5900   18.3134 H   0  0  0  0  0  0
  -34.6202  -17.4602   19.6727 H   0  0  0  0  0  0
  -28.3605  -19.8794   21.4382 H   0  0  0  0  0  0
  -28.0729  -19.8957   19.7462 H   0  0  0  0  0  0
  -28.9772  -16.3778   20.5101 H   0  0  0  0  0  0
  1 25  1  0  0  0
  1 30  2  0  0  0
  1 84  1  0  0  0
  2  3  1  0  0  0
  2 25  1  0  0  0
  2 86  1  0  0  0
  2 87  1  0  0  0
  3  4  1  0  0  0
  3 88  1  0  0  0
  3 89  1  0  0  0
  4  5  1  0  0  0
  4 90  1  0  0  0
  4 91  1  0  0  0
  5  6  1  0  0  0
  5 26  1  0  0  0
  5 92  1  0  0  0
  6 25  1  0  0  0
  6 93  1  0  0  0
  6 94  1  0  0  0
  7  8  2  0  0  0
  7 26  1  0  0  0
  7 29  1  0  0  0
  8  9  1  0  0  0
  8 22  1  0  0  0
  9 10  1  0  0  0
  9 27  2  0  0  0
 10 11  2  0  0  0
 10 15  1  0  0  0
 11 12  1  0  0  0
 11 95  1  0  0  0
 12 13  2  0  0  0
 12 96  1  0  0  0
 13 14  1  0  0  0
 13 31  1  0  0  0
 14 15  2  0  0  0
 14 97  1  0  0  0
 15 98  1  0  0  0
 16 17  2  0  0  0
 16 21  1  0  0  0
 16 31  1  0  0  0
 17 18  1  0  0  0
 17 99  1  0  0  0
 18 19  2  0  0  0
 18100  1  0  0  0
 19 20  1  0  0  0
 19 24  1  0  0  0
 20 21  2  0  0  0
 20101  1  0  0  0
 21 23  1  0  0  0
 22 28  1  0  0  0
 22 32  2  0  0  0
 26 27  1  0  0  0
 28102  1  0  0  0
 28103  1  0  0  0
 29104  1  0  0  0
 29105  1  0  0  0
 33 34  1  0  0  0
 33 66  1  0  0  0
 33 70  2  0  0  0
 34 36  1  0  0  0
 34 59  1  0  0  0
 34106  1  0  0  0
 35 44  2  0  0  0
 35 45  1  0  0  0
 35 68  1  0  0  0
 36 56  1  0  0  0
 36107  1  0  0  0
 37 39  1  0  0  0
 37 47  1  0  0  0
 37 66  1  0  0  0
 37108  1  0  0  0
 38 43  2  0  0  0
 38 46  1  0  0  0
 38 47  1  0  0  0
 39 64  1  0  0  0
 39 67  2  0  0  0
 40 52  1  0  0  0
 40 53  2  0  0  0
 40 58  1  0  0  0
 41109  1  0  0  0
 41110  1  0  0  0
 41111  1  0  0  0
 41 48  1  0  0  0
 42 43  1  0  0  0
 42 66  1  0  0  0
 42112  1  0  0  0
 42113  1  0  0  0
 43 44  1  0  0  0
 44114  1  0  0  0
 45 46  2  0  0  0
 45115  1  0  0  0
 46116  1  0  0  0
 47117  1  0  0  0
 47118  1  0  0  0
 48 56  1  0  0  0
 48 65  1  0  0  0
 48119  1  0  0  0
 49 50  1  0  0  0
 49 53  1  0  0  0
 49 64  1  0  0  0
 49120  1  0  0  0
 50 51  1  0  0  0
 50121  1  0  0  0
 50122  1  0  0  0
 51 52  1  0  0  0
 51123  1  0  0  0
 51124  1  0  0  0
 52125  1  0  0  0
 52126  1  0  0  0
 53 54  1  0  0  0
 54 55  2  0  0  0
 54127  1  0  0  0
 55 57  1  0  0  0
 55128  1  0  0  0
 56 69  2  0  0  0
 57 58  2  0  0  0
 57129  1  0  0  0
 58130  1  0  0  0
 59 60  1  0  0  0
 59 61  1  0  0  0
 59 62  1  0  0  0
 60131  1  0  0  0
 60132  1  0  0  0
 60133  1  0  0  0
 61134  1  0  0  0
 61135  1  0  0  0
 61136  1  0  0  0
 62137  1  0  0  0
 62138  1  0  0  0
 62139  1  0  0  0
 63 65  1  0  0  0
 63140  1  0  0  0
 63141  1  0  0  0
 63142  1  0  0  0
 64143  1  0  0  0
 65144  1  0  0  0
 68 80  1  0  0  0
 71 72  2  0  0  0
 71 74  1  0  0  0
 71145  1  0  0  0
 72 75  1  0  0  0
 72146  1  0  0  0
 73 74  2  0  0  0
 73 76  1  0  0  0
 73147  1  0  0  0
 74 81  1  0  0  0
 75 76  2  0  0  0
 75 82  1  0  0  0
 76 84  1  0  0  0
 77 80  1  0  0  0
 77 83  1  0  0  0
 77 85  2  0  0  0
 78 79  1  0  0  0
 78 80  1  0  0  0
 78148  1  0  0  0
 78149  1  0  0  0
 79 83  1  0  0  0
 79150  1  0  0  0
 79151  1  0  0  0
 80152  1  0  0  0
 81153  1  0  0  0
 81154  1  0  0  0
 81155  1  0  0  0
 82 83  1  0  0  0
 82156  1  0  0  0
 82157  1  0  0  0
 84158  1  0  0  0
M  ISO  4   1 100  68 101  80 101  84 100
M  END
> <chiral flag>
0

> <version>
0

> <s_m_source_file>
/data/baiqing/PycharmProjects/Reinvent-master-3.2/result/LINK_invent/BTK/process_docking_weight1_custom_product_contain_oxygen_bond_distance_aromatic_linkinvent_7_9_3/rearranged_h_0048.sdf

> <i_m_source_file_index>
25

> <r_mmod_Potential_Energy-OPLS-2005>
993.504760742188

> <r_mmod_Stretch_Energy-OPLS-2005>
407.000396728516

> <r_mmod_Bend_Energy-OPLS-2005>
469.733825683594

> <r_mmod_Torsional_Energy-OPLS-2005>
250.112319946289

> <r_mmod_Improper_Torsional_Energy-OPLS-2005>
5.31139755249023

> <r_mmod_Van_der_Waal_Energy-OPLS-2005>
154.53923034668

> <r_mmod_Electrostatic_Energy-OPLS-2005>
-340.787017822266

> <r_mmod_Solvation_Energy-OPLS-2005>
-243.242095947266

> <b_mmod_Minimization_Converged-OPLS-2005>
0

> <r_mmod_RMS_Derivative-OPLS-2005>
3.23577737808228

$$$$
25
                    3D
 Structure written by MMmdl.
162170  0  0  1  0            999 V2000
  -30.8014  -14.3942   20.6275 C   0  0  0  0  0  0
  -30.4213  -12.3073   19.3732 C   0  0  0  0  0  0
  -29.4662  -12.5058   18.1814 C   0  0  0  0  0  0
  -27.9970  -12.3672   18.6206 C   0  0  0  0  0  0
  -27.6620  -13.1975   19.8867 C   0  0  2  0  0  0
  -28.7271  -12.9528   20.9834 C   0  0  0  0  0  0
  -25.2578  -13.8168   20.5704 C   0  0  0  0  0  0
  -24.1814  -13.0432   20.9166 C   0  0  0  0  0  0
  -24.6375  -11.6901   20.8735 C   0  0  0  0  0  0
  -23.9036  -10.4287   21.0376 C   0  0  0  0  0  0
  -24.3613   -9.4223   21.9161 C   0  0  0  0  0  0
  -23.6285   -8.2260   22.0739 C   0  0  0  0  0  0
  -22.4244   -8.0297   21.3533 C   0  0  0  0  0  0
  -21.9872   -9.0264   20.4621 C   0  0  0  0  0  0
  -22.7222  -10.2147   20.3014 C   0  0  0  0  0  0
  -21.6890   -6.0732   22.5272 C   0  0  0  0  0  0
  -21.4034   -6.5637   23.8213 C   0  0  0  0  0  0
  -21.3625   -5.6777   24.9160 C   0  0  0  0  0  0
  -21.6043   -4.3038   24.7204 C   0  0  0  0  0  0
  -21.8816   -3.8136   23.4325 C   0  0  0  0  0  0
  -21.9215   -4.6961   22.3387 C   0  0  0  0  0  0
  -22.7838  -13.5245   21.1815 C   0  0  0  0  0  0
  -22.1664   -4.2135   21.0967 F   0  0  0  0  0  0
  -21.5617   -3.4516   25.7707 F   0  0  0  0  0  0
  -30.0549  -13.2708   20.4261 N   0  0  0  0  0  0
  -26.3043  -12.9305   20.3527 N   0  0  0  0  0  0
  -25.9312  -11.6477   20.5855 N   0  0  0  0  0  0
  -22.0452  -12.8243   22.0344 N   0  0  0  0  0  0
  -25.4273  -15.1891   20.4093 N   0  0  0  0  0  0
  -31.8709  -14.6005   20.0524 O   0  0  0  0  0  0
  -21.6637   -6.8881   21.4231 O   0  0  0  0  0  0
  -22.3535  -14.5572   20.6710 O   0  0  0  0  0  0
  -24.6132  -31.8706   23.2108 C   0  0  0  0  0  0
  -25.9026  -32.4816   23.8395 C   0  0  1  0  0  0
  -27.2302  -27.4584   20.1009 C   0  0  0  0  0  0
  -25.5901  -33.8611   24.2333 N   0  0  0  0  0  0
  -23.4011  -30.4962   21.5467 C   0  0  2  0  0  0
  -24.8516  -28.9712   20.1020 C   0  0  0  0  0  0
  -22.7396  -29.4691   22.4931 C   0  0  0  0  0  0
  -18.0314  -28.1354   22.8447 C   0  0  0  0  0  0
  -24.1497  -36.7338   23.2631 C   0  0  0  0  0  0
  -25.9261  -30.8434   21.3632 C   0  0  0  0  0  0
  -26.0077  -29.4826   20.7079 C   0  0  0  0  0  0
  -27.2033  -28.7323   20.7066 C   0  0  0  0  0  0
  -26.0666  -26.9615   19.4755 C   0  0  0  0  0  0
  -24.8747  -27.7083   19.4826 C   0  0  0  0  0  0
  -23.6099  -29.8345   20.1579 C   0  0  0  0  0  0
  -25.4103  -36.3098   24.0331 C   0  0  1  0  0  0
  -20.5877  -28.3624   23.1293 C   0  0  2  0  0  0
  -20.6749  -26.9397   22.5307 C   0  0  0  0  0  0
  -19.5760  -26.6517   21.5047 C   0  0  0  0  0  0
  -18.1949  -26.7974   22.1452 C   0  0  0  0  0  0
  -19.1537  -28.8789   23.2925 C   0  0  0  0  0  0
  -18.9456  -30.1352   23.8998 C   0  0  0  0  0  0
  -17.6449  -30.6510   24.0619 C   0  0  0  0  0  0
  -25.9016  -34.9462   23.5114 C   0  0  0  0  0  0
  -16.5370  -29.9051   23.6274 C   0  0  0  0  0  0
  -16.7306  -28.6519   23.0240 C   0  0  0  0  0  0
  -26.4471  -31.6592   25.0716 C   0  0  0  0  0  0
  -25.3770  -31.3696   26.1484 C   0  0  0  0  0  0
  -27.0300  -30.3020   24.6127 C   0  0  0  0  0  0
  -27.6037  -32.4330   25.7486 C   0  0  0  0  0  0
  -27.5578  -37.1824   24.8454 C   0  0  0  0  0  0
  -21.4128  -29.3032   22.3699 N   0  0  0  0  0  0
  -26.4294  -37.3779   23.9388 N   0  0  0  0  0  0
  -24.6621  -31.0847   22.0986 N   0  0  0  0  0  0
  -23.4216  -28.8246   23.2965 O   0  0  0  0  0  0
  -28.3486  -26.6645   20.1745 O   0  0  0  0  0  0
  -26.5562  -34.8902   22.4671 O   0  0  0  0  0  0
  -23.5325  -32.1439   23.7529 O   0  0  0  0  0  0
  -28.9710  -16.5149   19.0543 C   0  0  0  0  0  0
  -28.5120  -17.2186   17.9309 C   0  0  0  0  0  0
  -28.2279  -19.1854   19.3148 C   0  0  0  0  0  0
  -29.0354  -17.1075   20.3393 C   0  0  0  0  0  0
  -28.7377  -18.5061   20.4549 C   0  0  0  0  0  0
  -28.0941  -18.5424   18.0723 C   0  0  0  0  0  0
  -29.2943  -16.2036   21.5730 C   0  0  0  0  0  0
  -28.9931  -19.2807   21.7641 C   0  0  0  0  0  0
  -28.3492  -23.0859   21.5024 C   0  0  0  0  0  0
  -28.8478  -24.2832   20.6643 C   0  0  0  0  0  0
  -29.1190  -21.7649   21.2897 C   0  0  0  0  0  0
  -28.1723  -25.5932   21.1136 C   0  0  0  0  0  0
  -30.4276  -15.2682   21.5634 N   0  0  0  0  0  0
  -28.3866  -20.6262   21.9008 N   0  3  0  0  0  0
  -27.4019  -19.3701   16.7257 Cl  0  0  0  0  0  0
  -31.4552  -12.4156   19.0398 H   0  0  0  0  0  0
  -30.3437  -11.2868   19.7505 H   0  0  0  0  0  0
  -29.6821  -11.7739   17.4009 H   0  0  0  0  0  0
  -29.6326  -13.4859   17.7340 H   0  0  0  0  0  0
  -27.8156  -11.3118   18.8275 H   0  0  0  0  0  0
  -27.3339  -12.6366   17.7997 H   0  0  0  0  0  0
  -27.6870  -14.2414   19.6035 H   0  0  0  0  0  0
  -28.7168  -11.9000   21.2684 H   0  0  0  0  0  0
  -28.5079  -13.4991   21.8969 H   0  0  0  0  0  0
  -25.2770   -9.5753   22.4723 H   0  0  0  0  0  0
  -24.0026   -7.4653   22.7439 H   0  0  0  0  0  0
  -21.0825   -8.8772   19.8902 H   0  0  0  0  0  0
  -22.3680  -10.9680   19.6107 H   0  0  0  0  0  0
  -21.2010   -7.6146   23.9713 H   0  0  0  0  0  0
  -21.1457   -6.0495   25.9072 H   0  0  0  0  0  0
  -22.0625   -2.7597   23.2826 H   0  0  0  0  0  0
  -22.4112  -11.9939   22.4764 H   0  0  0  0  0  0
  -21.1016  -13.1167   22.2449 H   0  0  0  0  0  0
  -24.6545  -15.8412   20.4919 H   0  0  0  0  0  0
  -26.2854  -15.6349   20.1151 H   0  0  0  0  0  0
  -26.7113  -32.5546   23.1174 H   0  0  0  0  0  0
  -25.0121  -33.9767   25.0523 H   0  0  0  0  0  0
  -22.6876  -31.3117   21.4071 H   0  0  0  0  0  0
  -23.3726  -35.9706   23.3296 H   0  0  0  0  0  0
  -24.3602  -36.8950   22.2047 H   0  0  0  0  0  0
  -23.7298  -37.6566   23.6646 H   0  0  0  0  0  0
  -26.0442  -31.6143   20.6016 H   0  0  0  0  0  0
  -26.8122  -30.8898   21.9864 H   0  0  0  0  0  0
  -28.0900  -29.1099   21.1973 H   0  0  0  0  0  0
  -26.0754  -25.9879   19.0037 H   0  0  0  0  0  0
  -23.9846  -27.3065   19.0150 H   0  0  0  0  0  0
  -23.7206  -30.6147   19.4043 H   0  0  0  0  0  0
  -22.7369  -29.2547   19.8591 H   0  0  0  0  0  0
  -25.1289  -36.1963   25.0831 H   0  0  0  0  0  0
  -21.0037  -28.3125   24.1384 H   0  0  0  0  0  0
  -20.5676  -26.2157   23.3387 H   0  0  0  0  0  0
  -21.6600  -26.7503   22.1043 H   0  0  0  0  0  0
  -19.6951  -25.6526   21.0864 H   0  0  0  0  0  0
  -19.6659  -27.3486   20.6700 H   0  0  0  0  0  0
  -17.4258  -26.6903   21.3777 H   0  0  0  0  0  0
  -18.0301  -25.9980   22.8664 H   0  0  0  0  0  0
  -19.7951  -30.7111   24.2432 H   0  0  0  0  0  0
  -17.4996  -31.6172   24.5278 H   0  0  0  0  0  0
  -15.5378  -30.2989   23.7475 H   0  0  0  0  0  0
  -15.8736  -28.0890   22.6789 H   0  0  0  0  0  0
  -24.5919  -30.7056   25.7838 H   0  0  0  0  0  0
  -24.8996  -32.2859   26.4979 H   0  0  0  0  0  0
  -25.8148  -30.8847   27.0223 H   0  0  0  0  0  0
  -26.2837  -29.6765   24.1204 H   0  0  0  0  0  0
  -27.4058  -29.7270   25.4606 H   0  0  0  0  0  0
  -27.8695  -30.4282   23.9278 H   0  0  0  0  0  0
  -27.2618  -33.3598   26.2114 H   0  0  0  0  0  0
  -28.3828  -32.6969   25.0316 H   0  0  0  0  0  0
  -28.0754  -31.8458   26.5385 H   0  0  0  0  0  0
  -28.2599  -38.0117   24.7476 H   0  0  0  0  0  0
  -28.1073  -36.2646   24.6309 H   0  0  0  0  0  0
  -27.2297  -37.1517   25.8859 H   0  0  0  0  0  0
  -20.9211  -29.8785   21.6992 H   0  0  0  0  0  0
  -26.0184  -38.2864   24.1367 H   0  0  0  0  0  0
  -29.2278  -15.4853   18.8889 H   0  0  0  0  0  0
  -28.4431  -16.7300   16.9701 H   0  0  0  0  0  0
  -27.9101  -20.2117   19.3531 H   0  0  0  0  0  0
  -28.3747  -15.6705   21.8025 H   0  0  0  0  0  0
  -29.4936  -16.8108   22.4516 H   0  0  0  0  0  0
  -28.5754  -18.7119   22.5937 H   0  0  0  0  0  0
  -30.0711  -19.3575   21.9169 H   0  0  0  0  0  0
  -27.2934  -22.9286   21.2764 H   0  0  0  0  0  0
  -28.3917  -23.3498   22.5601 H   0  0  0  0  0  0
  -29.9301  -24.3879   20.7402 H   0  0  0  0  0  0
  -28.6207  -24.0861   19.6167 H   0  0  0  0  0  0
  -30.1126  -21.8494   21.7323 H   0  0  0  0  0  0
  -29.2788  -21.5961   20.2241 H   0  0  0  0  0  0
  -28.5722  -25.9076   22.0804 H   0  0  0  0  0  0
  -27.1137  -25.3820   21.2913 H   0  0  0  0  0  0
  -31.2479  -15.7290   21.9308 H   0  0  0  0  0  0
  -28.3548  -20.8079   22.8916 H   0  0  0  0  0  0
  -27.4337  -20.5855   21.5827 H   0  0  0  0  0  0
  1 25  1  0  0  0
  1 30  2  0  0  0
  1 83  1  0  0  0
  2  3  1  0  0  0
  2 25  1  0  0  0
  2 86  1  0  0  0
  2 87  1  0  0  0
  3  4  1  0  0  0
  3 88  1  0  0  0
  3 89  1  0  0  0
  4  5  1  0  0  0
  4 90  1  0  0  0
  4 91  1  0  0  0
  5  6  1  0  0  0
  5 26  1  0  0  0
  5 92  1  0  0  0
  6 25  1  0  0  0
  6 93  1  0  0  0
  6 94  1  0  0  0
  7  8  2  0  0  0
  7 26  1  0  0  0
  7 29  1  0  0  0
  8  9  1  0  0  0
  8 22  1  0  0  0
  9 10  1  0  0  0
  9 27  2  0  0  0
 10 11  2  0  0  0
 10 15  1  0  0  0
 11 12  1  0  0  0
 11 95  1  0  0  0
 12 13  2  0  0  0
 12 96  1  0  0  0
 13 14  1  0  0  0
 13 31  1  0  0  0
 14 15  2  0  0  0
 14 97  1  0  0  0
 15 98  1  0  0  0
 16 17  2  0  0  0
 16 21  1  0  0  0
 16 31  1  0  0  0
 17 18  1  0  0  0
 17 99  1  0  0  0
 18 19  2  0  0  0
 18100  1  0  0  0
 19 20  1  0  0  0
 19 24  1  0  0  0
 20 21  2  0  0  0
 20101  1  0  0  0
 21 23  1  0  0  0
 22 28  1  0  0  0
 22 32  2  0  0  0
 26 27  1  0  0  0
 28102  1  0  0  0
 28103  1  0  0  0
 29104  1  0  0  0
 29105  1  0  0  0
 33 34  1  0  0  0
 33 66  1  0  0  0
 33 70  2  0  0  0
 34 36  1  0  0  0
 34 59  1  0  0  0
 34106  1  0  0  0
 35 44  2  0  0  0
 35 45  1  0  0  0
 35 68  1  0  0  0
 36 56  1  0  0  0
 36107  1  0  0  0
 37 39  1  0  0  0
 37 47  1  0  0  0
 37 66  1  0  0  0
 37108  1  0  0  0
 38 43  2  0  0  0
 38 46  1  0  0  0
 38 47  1  0  0  0
 39 64  1  0  0  0
 39 67  2  0  0  0
 40 52  1  0  0  0
 40 53  2  0  0  0
 40 58  1  0  0  0
 41109  1  0  0  0
 41110  1  0  0  0
 41111  1  0  0  0
 41 48  1  0  0  0
 42 43  1  0  0  0
 42 66  1  0  0  0
 42112  1  0  0  0
 42113  1  0  0  0
 43 44  1  0  0  0
 44114  1  0  0  0
 45 46  2  0  0  0
 45115  1  0  0  0
 46116  1  0  0  0
 47117  1  0  0  0
 47118  1  0  0  0
 48 56  1  0  0  0
 48 65  1  0  0  0
 48119  1  0  0  0
 49 50  1  0  0  0
 49 53  1  0  0  0
 49 64  1  0  0  0
 49120  1  0  0  0
 50 51  1  0  0  0
 50121  1  0  0  0
 50122  1  0  0  0
 51 52  1  0  0  0
 51123  1  0  0  0
 51124  1  0  0  0
 52125  1  0  0  0
 52126  1  0  0  0
 53 54  1  0  0  0
 54 55  2  0  0  0
 54127  1  0  0  0
 55 57  1  0  0  0
 55128  1  0  0  0
 56 69  2  0  0  0
 57 58  2  0  0  0
 57129  1  0  0  0
 58130  1  0  0  0
 59 60  1  0  0  0
 59 61  1  0  0  0
 59 62  1  0  0  0
 60131  1  0  0  0
 60132  1  0  0  0
 60133  1  0  0  0
 61134  1  0  0  0
 61135  1  0  0  0
 61136  1  0  0  0
 62137  1  0  0  0
 62138  1  0  0  0
 62139  1  0  0  0
 63 65  1  0  0  0
 63140  1  0  0  0
 63141  1  0  0  0
 63142  1  0  0  0
 64143  1  0  0  0
 65144  1  0  0  0
 68 82  1  0  0  0
 71 72  2  0  0  0
 71 74  1  0  0  0
 71145  1  0  0  0
 72 76  1  0  0  0
 72146  1  0  0  0
 73 75  1  0  0  0
 73 76  2  0  0  0
 73147  1  0  0  0
 74 75  2  0  0  0
 74 77  1  0  0  0
 75 78  1  0  0  0
 76 85  1  0  0  0
 77 83  1  0  0  0
 77148  1  0  0  0
 77149  1  0  0  0
 78 84  1  0  0  0
 78150  1  0  0  0
 78151  1  0  0  0
 79 80  1  0  0  0
 79 81  1  0  0  0
 79152  1  0  0  0
 79153  1  0  0  0
 80 82  1  0  0  0
 80154  1  0  0  0
 80155  1  0  0  0
 81 84  1  0  0  0
 81156  1  0  0  0
 81157  1  0  0  0
 82158  1  0  0  0
 82159  1  0  0  0
 83160  1  0  0  0
 84161  1  0  0  0
 84162  1  0  0  0
M  CHG  1  84   1
M  ISO  4   1 100  68 101  82 101  83 100
M  END
> <chiral flag>
0

> <version>
0

> <s_m_source_file>
/data/baiqing/PycharmProjects/Reinvent-master-3.2/result/LINK_invent/BTK/process_docking_weight1_custom_product_contain_oxygen_bond_distance_aromatic_linkinvent_7_9_3/rearranged_h_0048.sdf

> <i_m_source_file_index>
26

> <r_mmod_Potential_Energy-OPLS-2005>
-200.818389892578

> <r_mmod_Stretch_Energy-OPLS-2005>
39.4777030944824

> <r_mmod_Bend_Energy-OPLS-2005>
124.121322631836

> <r_mmod_Torsional_Energy-OPLS-2005>
284.909454345703

> <r_mmod_Improper_Torsional_Energy-OPLS-2005>
6.62168645858765

> <r_mmod_Van_der_Waal_Energy-OPLS-2005>
150.274673461914

> <r_mmod_Electrostatic_Energy-OPLS-2005>
-323.433258056641

> <r_mmod_Solvation_Energy-OPLS-2005>
-495.741790771484

> <b_mmod_Minimization_Converged-OPLS-2005>
0

> <r_mmod_RMS_Derivative-OPLS-2005>
5.45993852615356

$$$$
26
                    3D
 Structure written by MMmdl.
154162  0  0  1  0            999 V2000
  -30.6191  -14.6455   20.4992 C   0  0  0  0  0  0
  -30.4393  -12.3940   19.4566 C   0  0  0  0  0  0
  -29.5097  -12.5077   18.2272 C   0  0  0  0  0  0
  -28.0323  -12.3441   18.6378 C   0  0  0  0  0  0
  -27.6542  -13.2159   19.8649 C   0  0  2  0  0  0
  -28.6981  -13.0712   20.9957 C   0  0  0  0  0  0
  -25.2567  -13.8168   20.5686 C   0  0  0  0  0  0
  -24.1830  -13.0438   20.9186 C   0  0  0  0  0  0
  -24.6395  -11.6907   20.8736 C   0  0  0  0  0  0
  -23.9061  -10.4292   21.0404 C   0  0  0  0  0  0
  -24.3614   -9.4208   21.9183 C   0  0  0  0  0  0
  -23.6290   -8.2243   22.0753 C   0  0  0  0  0  0
  -22.4273   -8.0280   21.3544 C   0  0  0  0  0  0
  -21.9906   -9.0251   20.4646 C   0  0  0  0  0  0
  -22.7233  -10.2132   20.3055 C   0  0  0  0  0  0
  -21.6853   -6.0736   22.5279 C   0  0  0  0  0  0
  -21.4014   -6.5640   23.8212 C   0  0  0  0  0  0
  -21.3659   -5.6793   24.9174 C   0  0  0  0  0  0
  -21.6044   -4.3056   24.7225 C   0  0  0  0  0  0
  -21.8820   -3.8147   23.4346 C   0  0  0  0  0  0
  -21.9192   -4.6964   22.3403 C   0  0  0  0  0  0
  -22.7855  -13.5234   21.1850 C   0  0  0  0  0  0
  -22.1662   -4.2150   21.0981 F   0  0  0  0  0  0
  -21.5628   -3.4539   25.7737 F   0  0  0  0  0  0
  -30.0143  -13.4161   20.4346 N   0  0  0  0  0  0
  -26.2993  -12.9347   20.3323 N   0  0  0  0  0  0
  -25.9323  -11.6502   20.5755 N   0  0  0  0  0  0
  -22.0495  -12.8225   22.0406 N   0  0  0  0  0  0
  -25.4288  -15.1890   20.4106 N   0  0  0  0  0  0
  -31.7767  -14.8079   20.1020 O   0  0  0  0  0  0
  -21.6639   -6.8877   21.4240 O   0  0  0  0  0  0
  -22.3541  -14.5541   20.6700 O   0  0  0  0  0  0
  -24.6264  -31.8598   23.2018 C   0  0  0  0  0  0
  -25.9108  -32.4778   23.8351 C   0  0  1  0  0  0
  -27.2263  -27.3188   20.1154 C   0  0  0  0  0  0
  -25.5924  -33.8579   24.2275 N   0  0  0  0  0  0
  -23.4196  -30.4830   21.5450 C   0  0  2  0  0  0
  -24.8663  -28.9382   20.1113 C   0  0  0  0  0  0
  -22.7476  -29.4617   22.4937 C   0  0  0  0  0  0
  -18.0284  -28.1383   22.8479 C   0  0  0  0  0  0
  -24.1490  -36.7293   23.2640 C   0  0  0  0  0  0
  -25.9611  -30.7911   21.3724 C   0  0  0  0  0  0
  -26.0358  -29.4188   20.7137 C   0  0  0  0  0  0
  -27.2184  -28.6214   20.7046 C   0  0  0  0  0  0
  -26.0311  -26.8903   19.4924 C   0  0  0  0  0  0
  -24.8658  -27.6792   19.4922 C   0  0  0  0  0  0
  -23.6345  -29.8185   20.1601 C   0  0  0  0  0  0
  -25.4116  -36.3082   24.0330 C   0  0  1  0  0  0
  -20.5884  -28.3682   23.1286 C   0  0  2  0  0  0
  -20.6774  -26.9405   22.5412 C   0  0  0  0  0  0
  -19.5754  -26.6381   21.5212 C   0  0  0  0  0  0
  -18.1931  -26.7925   22.1620 C   0  0  0  0  0  0
  -19.1537  -28.8849   23.2876 C   0  0  0  0  0  0
  -18.9465  -30.1452   23.8890 C   0  0  0  0  0  0
  -17.6466  -30.6583   24.0561 C   0  0  0  0  0  0
  -25.9052  -34.9452   23.5101 C   0  0  0  0  0  0
  -16.5354  -29.9083   23.6333 C   0  0  0  0  0  0
  -16.7273  -28.6506   23.0343 C   0  0  0  0  0  0
  -26.4493  -31.6587   25.0722 C   0  0  0  0  0  0
  -25.3725  -31.3734   26.1448 C   0  0  0  0  0  0
  -27.0339  -30.3015   24.6171 C   0  0  0  0  0  0
  -27.6050  -32.4322   25.7494 C   0  0  0  0  0  0
  -27.5578  -37.1801   24.8466 C   0  0  0  0  0  0
  -21.4188  -29.3036   22.3683 N   0  0  0  0  0  0
  -26.4292  -37.3776   23.9408 N   0  0  0  0  0  0
  -24.6878  -31.0610   22.0969 N   0  0  0  0  0  0
  -23.4202  -28.8155   23.3015 O   0  0  0  0  0  0
  -28.3491  -26.4759   20.1640 O   0  0  0  0  0  0
  -26.5622  -34.8920   22.4667 O   0  0  0  0  0  0
  -23.5428  -32.1396   23.7348 O   0  0  0  0  0  0
  -28.9683  -17.9825   21.3923 C   0  0  0  0  0  0
  -30.8586  -17.8295   19.9271 C   0  0  0  0  0  0
  -29.9518  -20.0983   20.5097 C   0  0  0  0  0  0
  -28.9807  -19.4129   21.3057 C   0  0  0  0  0  0
  -29.9124  -17.1474   20.7326 C   0  0  0  0  0  0
  -30.8769  -19.2532   19.8183 C   0  0  0  0  0  0
  -30.1616  -21.6371   20.5126 C   0  0  0  0  0  0
  -27.9553  -20.1811   22.1271 C   0  0  0  0  0  0
  -29.3553  -24.0516   20.4060 C   0  0  0  0  0  0
  -28.1437  -25.0115   20.0423 C   0  0  0  0  0  0
  -29.8179  -15.6894   20.8886 N   0  0  0  0  0  0
  -29.1529  -22.5509   20.3471 N   0  0  0  0  0  0
  -31.3110  -22.0527   20.6771 O   0  0  0  0  0  0
  -31.8301  -19.8031   19.0260 F   0  0  0  0  0  0
  -31.4810  -12.5190   19.1556 H   0  0  0  0  0  0
  -30.3742  -11.3987   19.8985 H   0  0  0  0  0  0
  -29.7755  -11.7559   17.4828 H   0  0  0  0  0  0
  -29.6512  -13.4771   17.7465 H   0  0  0  0  0  0
  -27.8705  -11.2908   18.8706 H   0  0  0  0  0  0
  -27.3780  -12.5723   17.7956 H   0  0  0  0  0  0
  -27.6727  -14.2511   19.5233 H   0  0  0  0  0  0
  -28.7100  -12.0490   21.3769 H   0  0  0  0  0  0
  -28.4406  -13.7009   21.8485 H   0  0  0  0  0  0
  -25.2759   -9.5688   22.4755 H   0  0  0  0  0  0
  -24.0002   -7.4637   22.7473 H   0  0  0  0  0  0
  -21.0838   -8.8768   19.8951 H   0  0  0  0  0  0
  -22.3690  -10.9670   19.6164 H   0  0  0  0  0  0
  -21.2007   -7.6147   23.9716 H   0  0  0  0  0  0
  -21.1481   -6.0523   25.9077 H   0  0  0  0  0  0
  -22.0598   -2.7609   23.2846 H   0  0  0  0  0  0
  -22.4109  -11.9886   22.4795 H   0  0  0  0  0  0
  -21.1113  -13.1254   22.2611 H   0  0  0  0  0  0
  -24.6598  -15.8422   20.5133 H   0  0  0  0  0  0
  -26.2761  -15.6272   20.0722 H   0  0  0  0  0  0
  -26.7175  -32.5447   23.1099 H   0  0  0  0  0  0
  -25.0073  -33.9727   25.0421 H   0  0  0  0  0  0
  -22.7134  -31.3037   21.4025 H   0  0  0  0  0  0
  -23.3751  -35.9626   23.3308 H   0  0  0  0  0  0
  -24.3583  -36.8909   22.2052 H   0  0  0  0  0  0
  -23.7250  -37.6499   23.6660 H   0  0  0  0  0  0
  -26.0931  -31.5556   20.6053 H   0  0  0  0  0  0
  -26.8414  -30.8386   22.0021 H   0  0  0  0  0  0
  -28.1159  -28.9860   21.1846 H   0  0  0  0  0  0
  -25.9671  -25.9293   19.0056 H   0  0  0  0  0  0
  -23.9691  -27.3041   19.0183 H   0  0  0  0  0  0
  -23.7545  -30.5959   19.4049 H   0  0  0  0  0  0
  -22.7543  -29.2490   19.8557 H   0  0  0  0  0  0
  -25.1296  -36.1934   25.0825 H   0  0  0  0  0  0
  -20.9972  -28.3250   24.1410 H   0  0  0  0  0  0
  -20.5681  -26.2285   23.3607 H   0  0  0  0  0  0
  -21.6642  -26.7437   22.1202 H   0  0  0  0  0  0
  -19.6920  -25.6296   21.1237 H   0  0  0  0  0  0
  -19.6696  -27.3192   20.6744 H   0  0  0  0  0  0
  -17.4201  -26.6665   21.4022 H   0  0  0  0  0  0
  -18.0332  -26.0073   22.9024 H   0  0  0  0  0  0
  -19.7944  -30.7267   24.2252 H   0  0  0  0  0  0
  -17.5026  -31.6265   24.5162 H   0  0  0  0  0  0
  -15.5356  -30.2985   23.7667 H   0  0  0  0  0  0
  -15.8672  -28.0833   22.7051 H   0  0  0  0  0  0
  -24.5898  -30.7084   25.7781 H   0  0  0  0  0  0
  -24.8920  -32.2903   26.4866 H   0  0  0  0  0  0
  -25.8046  -30.8918   27.0228 H   0  0  0  0  0  0
  -26.2914  -29.6765   24.1195 H   0  0  0  0  0  0
  -27.4048  -29.7273   25.4671 H   0  0  0  0  0  0
  -27.8777  -30.4314   23.9391 H   0  0  0  0  0  0
  -27.2659  -33.3625   26.2064 H   0  0  0  0  0  0
  -28.3862  -32.6874   25.0322 H   0  0  0  0  0  0
  -28.0712  -31.8452   26.5417 H   0  0  0  0  0  0
  -28.2593  -38.0099   24.7506 H   0  0  0  0  0  0
  -28.1074  -36.2627   24.6296 H   0  0  0  0  0  0
  -27.2296  -37.1457   25.8869 H   0  0  0  0  0  0
  -20.9365  -29.8773   21.6907 H   0  0  0  0  0  0
  -26.0173  -38.2853   24.1408 H   0  0  0  0  0  0
  -28.2164  -17.5113   22.0110 H   0  0  0  0  0  0
  -31.5971  -17.2697   19.3729 H   0  0  0  0  0  0
  -27.4435  -19.5311   22.8373 H   0  0  0  0  0  0
  -27.1985  -20.6222   21.4784 H   0  0  0  0  0  0
  -28.4258  -20.9780   22.7043 H   0  0  0  0  0  0
  -29.6887  -24.2954   21.4154 H   0  0  0  0  0  0
  -30.1897  -24.3072   19.7510 H   0  0  0  0  0  0
  -27.3002  -24.7303   20.6751 H   0  0  0  0  0  0
  -27.8522  -24.7914   19.0151 H   0  0  0  0  0  0
  -28.9459  -15.3702   21.2826 H   0  0  0  0  0  0
  -28.2161  -22.2031   20.1971 H   0  0  0  0  0  0
  1 25  1  0  0  0
  1 30  2  0  0  0
  1 81  1  0  0  0
  2  3  1  0  0  0
  2 25  1  0  0  0
  2 85  1  0  0  0
  2 86  1  0  0  0
  3  4  1  0  0  0
  3 87  1  0  0  0
  3 88  1  0  0  0
  4  5  1  0  0  0
  4 89  1  0  0  0
  4 90  1  0  0  0
  5  6  1  0  0  0
  5 26  1  0  0  0
  5 91  1  0  0  0
  6 25  1  0  0  0
  6 92  1  0  0  0
  6 93  1  0  0  0
  7  8  2  0  0  0
  7 26  1  0  0  0
  7 29  1  0  0  0
  8  9  1  0  0  0
  8 22  1  0  0  0
  9 10  1  0  0  0
  9 27  2  0  0  0
 10 11  2  0  0  0
 10 15  1  0  0  0
 11 12  1  0  0  0
 11 94  1  0  0  0
 12 13  2  0  0  0
 12 95  1  0  0  0
 13 14  1  0  0  0
 13 31  1  0  0  0
 14 15  2  0  0  0
 14 96  1  0  0  0
 15 97  1  0  0  0
 16 17  2  0  0  0
 16 21  1  0  0  0
 16 31  1  0  0  0
 17 18  1  0  0  0
 17 98  1  0  0  0
 18 19  2  0  0  0
 18 99  1  0  0  0
 19 20  1  0  0  0
 19 24  1  0  0  0
 20 21  2  0  0  0
 20100  1  0  0  0
 21 23  1  0  0  0
 22 28  1  0  0  0
 22 32  2  0  0  0
 26 27  1  0  0  0
 28101  1  0  0  0
 28102  1  0  0  0
 29103  1  0  0  0
 29104  1  0  0  0
 33 34  1  0  0  0
 33 66  1  0  0  0
 33 70  2  0  0  0
 34 36  1  0  0  0
 34 59  1  0  0  0
 34105  1  0  0  0
 35 44  2  0  0  0
 35 45  1  0  0  0
 35 68  1  0  0  0
 36 56  1  0  0  0
 36106  1  0  0  0
 37 39  1  0  0  0
 37 47  1  0  0  0
 37 66  1  0  0  0
 37107  1  0  0  0
 38 43  2  0  0  0
 38 46  1  0  0  0
 38 47  1  0  0  0
 39 64  1  0  0  0
 39 67  2  0  0  0
 40 52  1  0  0  0
 40 53  2  0  0  0
 40 58  1  0  0  0
 41108  1  0  0  0
 41109  1  0  0  0
 41110  1  0  0  0
 41 48  1  0  0  0
 42 43  1  0  0  0
 42 66  1  0  0  0
 42111  1  0  0  0
 42112  1  0  0  0
 43 44  1  0  0  0
 44113  1  0  0  0
 45 46  2  0  0  0
 45114  1  0  0  0
 46115  1  0  0  0
 47116  1  0  0  0
 47117  1  0  0  0
 48 56  1  0  0  0
 48 65  1  0  0  0
 48118  1  0  0  0
 49 50  1  0  0  0
 49 53  1  0  0  0
 49 64  1  0  0  0
 49119  1  0  0  0
 50 51  1  0  0  0
 50120  1  0  0  0
 50121  1  0  0  0
 51 52  1  0  0  0
 51122  1  0  0  0
 51123  1  0  0  0
 52124  1  0  0  0
 52125  1  0  0  0
 53 54  1  0  0  0
 54 55  2  0  0  0
 54126  1  0  0  0
 55 57  1  0  0  0
 55127  1  0  0  0
 56 69  2  0  0  0
 57 58  2  0  0  0
 57128  1  0  0  0
 58129  1  0  0  0
 59 60  1  0  0  0
 59 61  1  0  0  0
 59 62  1  0  0  0
 60130  1  0  0  0
 60131  1  0  0  0
 60132  1  0  0  0
 61133  1  0  0  0
 61134  1  0  0  0
 61135  1  0  0  0
 62136  1  0  0  0
 62137  1  0  0  0
 62138  1  0  0  0
 63 65  1  0  0  0
 63139  1  0  0  0
 63140  1  0  0  0
 63141  1  0  0  0
 64142  1  0  0  0
 65143  1  0  0  0
 68 80  1  0  0  0
 71 74  2  0  0  0
 71 75  1  0  0  0
 71144  1  0  0  0
 72 75  2  0  0  0
 72 76  1  0  0  0
 72145  1  0  0  0
 73 74  1  0  0  0
 73 76  2  0  0  0
 73 77  1  0  0  0
 74 78  1  0  0  0
 75 81  1  0  0  0
 76 84  1  0  0  0
 77 82  1  0  0  0
 77 83  2  0  0  0
 78146  1  0  0  0
 78147  1  0  0  0
 78148  1  0  0  0
 79 80  1  0  0  0
 79 82  1  0  0  0
 79149  1  0  0  0
 79150  1  0  0  0
 80151  1  0  0  0
 80152  1  0  0  0
 81153  1  0  0  0
 82154  1  0  0  0
M  ISO  4   1 100  68 101  80 101  81 100
M  END
> <chiral flag>
0

> <version>
0

> <s_m_source_file>
/data/baiqing/PycharmProjects/Reinvent-master-3.2/result/LINK_invent/BTK/process_docking_weight1_custom_product_contain_oxygen_bond_distance_aromatic_linkinvent_7_9_3/rearranged_h_0048.sdf

> <i_m_source_file_index>
27

> <r_mmod_Potential_Energy-OPLS-2005>
60.3446922302246

> <r_mmod_Stretch_Energy-OPLS-2005>
83.045295715332

> <r_mmod_Bend_Energy-OPLS-2005>
140.287750244141

> <r_mmod_Torsional_Energy-OPLS-2005>
225.857406616211

> <r_mmod_Improper_Torsional_Energy-OPLS-2005>
4.35589647293091

> <r_mmod_Van_der_Waal_Energy-OPLS-2005>
148.778915405273

> <r_mmod_Electrostatic_Energy-OPLS-2005>
-351.594299316406

> <r_mmod_Solvation_Energy-OPLS-2005>
-239.243453979492

> <b_mmod_Minimization_Converged-OPLS-2005>
0

> <r_mmod_RMS_Derivative-OPLS-2005>
0.611391246318817

$$$$
27
                    3D
 Structure written by MMmdl.
164173  0  0  1  0            999 V2000
  -30.5870  -14.7629   20.4551 C   0  0  0  0  0  0
  -30.4424  -12.4634   19.4818 C   0  0  0  0  0  0
  -29.5167  -12.4986   18.2445 C   0  0  0  0  0  0
  -28.0387  -12.3368   18.6484 C   0  0  0  0  0  0
  -27.6424  -13.2280   19.8539 C   0  0  2  0  0  0
  -28.6856  -13.1515   20.9896 C   0  0  0  0  0  0
  -25.2524  -13.8186   20.5695 C   0  0  0  0  0  0
  -24.1795  -13.0434   20.9205 C   0  0  0  0  0  0
  -24.6373  -11.6909   20.8723 C   0  0  0  0  0  0
  -23.9048  -10.4290   21.0397 C   0  0  0  0  0  0
  -24.3600   -9.4223   21.9194 C   0  0  0  0  0  0
  -23.6284   -8.2257   22.0762 C   0  0  0  0  0  0
  -22.4275   -8.0276   21.3536 C   0  0  0  0  0  0
  -21.9905   -9.0249   20.4644 C   0  0  0  0  0  0
  -22.7214  -10.2134   20.3052 C   0  0  0  0  0  0
  -21.6851   -6.0727   22.5274 C   0  0  0  0  0  0
  -21.4014   -6.5634   23.8208 C   0  0  0  0  0  0
  -21.3670   -5.6785   24.9171 C   0  0  0  0  0  0
  -21.6046   -4.3053   24.7222 C   0  0  0  0  0  0
  -21.8817   -3.8141   23.4345 C   0  0  0  0  0  0
  -21.9187   -4.6958   22.3397 C   0  0  0  0  0  0
  -22.7819  -13.5240   21.1851 C   0  0  0  0  0  0
  -22.1644   -4.2144   21.0977 F   0  0  0  0  0  0
  -21.5644   -3.4531   25.7741 F   0  0  0  0  0  0
  -29.9871  -13.5212   20.4127 N   0  0  0  0  0  0
  -26.2920  -12.9364   20.3256 N   0  0  0  0  0  0
  -25.9301  -11.6512   20.5715 N   0  0  0  0  0  0
  -22.0437  -12.8237   22.0407 N   0  0  0  0  0  0
  -25.4220  -15.1898   20.4096 N   0  0  0  0  0  0
  -31.7676  -14.8852   20.1146 O   0  0  0  0  0  0
  -21.6630   -6.8874   21.4241 O   0  0  0  0  0  0
  -22.3503  -14.5521   20.6669 O   0  0  0  0  0  0
  -24.6349  -31.8505   23.1902 C   0  0  0  0  0  0
  -25.9165  -32.4746   23.8246 C   0  0  1  0  0  0
  -27.2374  -27.2327   20.1468 C   0  0  0  0  0  0
  -25.5939  -33.8533   24.2196 N   0  0  0  0  0  0
  -23.4337  -30.4712   21.5328 C   0  0  2  0  0  0
  -24.8847  -28.8965   20.1143 C   0  0  0  0  0  0
  -22.7507  -29.4624   22.4882 C   0  0  0  0  0  0
  -18.0320  -28.1416   22.8495 C   0  0  0  0  0  0
  -24.1483  -36.7282   23.2640 C   0  0  0  0  0  0
  -25.9796  -30.7541   21.3721 C   0  0  0  0  0  0
  -26.0550  -29.3684   20.7252 C   0  0  0  0  0  0
  -27.2312  -28.5505   20.7256 C   0  0  0  0  0  0
  -26.0472  -26.8291   19.5054 C   0  0  0  0  0  0
  -24.8876  -27.6357   19.4913 C   0  0  0  0  0  0
  -23.6564  -29.7917   20.1536 C   0  0  0  0  0  0
  -25.4108  -36.3055   24.0320 C   0  0  1  0  0  0
  -20.5919  -28.3745   23.1257 C   0  0  2  0  0  0
  -20.6812  -26.9462   22.5394 C   0  0  0  0  0  0
  -19.5782  -26.6420   21.5211 C   0  0  0  0  0  0
  -18.1959  -26.7967   22.1623 C   0  0  0  0  0  0
  -19.1573  -28.8893   23.2879 C   0  0  0  0  0  0
  -18.9484  -30.1481   23.8915 C   0  0  0  0  0  0
  -17.6482  -30.6610   24.0601 C   0  0  0  0  0  0
  -25.9060  -34.9444   23.5074 C   0  0  0  0  0  0
  -16.5376  -29.9111   23.6343 C   0  0  0  0  0  0
  -16.7301  -28.6532   23.0350 C   0  0  0  0  0  0
  -26.4496  -31.6573   25.0653 C   0  0  0  0  0  0
  -25.3693  -31.3753   26.1359 C   0  0  0  0  0  0
  -27.0361  -30.2987   24.6187 C   0  0  0  0  0  0
  -27.6050  -32.4290   25.7461 C   0  0  0  0  0  0
  -27.5574  -37.1801   24.8464 C   0  0  0  0  0  0
  -21.4211  -29.3076   22.3612 N   0  0  0  0  0  0
  -26.4281  -37.3764   23.9412 N   0  0  0  0  0  0
  -24.7024  -31.0448   22.0888 N   0  0  0  0  0  0
  -23.4193  -28.8162   23.2988 O   0  0  0  0  0  0
  -28.3681  -26.3755   20.1334 O   0  0  0  0  0  0
  -26.5630  -34.8932   22.4642 O   0  0  0  0  0  0
  -23.5495  -32.1327   23.7191 O   0  0  0  0  0  0
  -28.5081  -17.2811   18.5365 C   0  0  0  0  0  0
  -27.6440  -19.0137   17.1290 C   0  0  0  0  0  0
  -29.1164  -18.1985   19.4401 C   0  0  0  0  0  0
  -28.9074  -19.6639   19.1876 C   0  0  0  0  0  0
  -27.7665  -17.6631   17.4234 C   0  0  0  0  0  0
  -28.2252  -19.9809   17.9633 C   0  0  0  0  0  0
  -27.5386  -22.0584   21.4409 C   0  0  0  0  0  0
  -26.8081  -20.9519   21.6636 C   0  0  0  0  0  0
  -27.5309  -23.2879   22.3482 C   0  0  0  0  0  0
  -27.2508  -24.6153   21.6191 C   0  0  0  0  0  0
  -28.7273  -23.6390   19.7362 C   0  0  0  0  0  0
  -28.3911  -24.9431   20.6553 C   0  0  1  0  0  0
  -29.9924  -17.4024   20.5115 C   0  0  0  0  0  0
  -29.3967  -20.9736   20.0056 C   0  0  0  0  0  0
  -29.7842  -15.8749   20.6777 N   0  0  0  0  0  0
  -28.4141  -22.1807   20.2211 N   0  3  1  0  0  0
  -27.2179  -16.7285   16.6124 F   0  0  0  0  0  0
  -28.0940  -21.5862   17.3447 Cl  0  0  0  0  0  0
  -31.4801  -12.6064   19.1698 H   0  0  0  0  0  0
  -30.4119  -11.4879   19.9719 H   0  0  0  0  0  0
  -29.8001  -11.7089   17.5469 H   0  0  0  0  0  0
  -29.6515  -13.4428   17.7155 H   0  0  0  0  0  0
  -27.8844  -11.2872   18.8984 H   0  0  0  0  0  0
  -27.3927  -12.5436   17.7950 H   0  0  0  0  0  0
  -27.6379  -14.2511   19.4831 H   0  0  0  0  0  0
  -28.7242  -12.1446   21.4108 H   0  0  0  0  0  0
  -28.4092  -13.8153   21.8117 H   0  0  0  0  0  0
  -25.2742   -9.5706   22.4765 H   0  0  0  0  0  0
  -24.0003   -7.4654   22.7475 H   0  0  0  0  0  0
  -21.0851   -8.8765   19.8933 H   0  0  0  0  0  0
  -22.3691  -10.9678   19.6155 H   0  0  0  0  0  0
  -21.2009   -7.6136   23.9716 H   0  0  0  0  0  0
  -21.1493   -6.0509   25.9077 H   0  0  0  0  0  0
  -22.0591   -2.7609   23.2839 H   0  0  0  0  0  0
  -22.4013  -11.9905   22.4829 H   0  0  0  0  0  0
  -21.1041  -13.1263   22.2549 H   0  0  0  0  0  0
  -24.6568  -15.8434   20.5318 H   0  0  0  0  0  0
  -26.2547  -15.6287   20.0416 H   0  0  0  0  0  0
  -26.7233  -32.5384   23.0981 H   0  0  0  0  0  0
  -25.0086  -33.9626   25.0345 H   0  0  0  0  0  0
  -22.7350  -31.2968   21.3801 H   0  0  0  0  0  0
  -23.3746  -35.9621   23.3292 H   0  0  0  0  0  0
  -24.3555  -36.8914   22.2057 H   0  0  0  0  0  0
  -23.7239  -37.6481   23.6664 H   0  0  0  0  0  0
  -26.1143  -31.5035   20.5891 H   0  0  0  0  0  0
  -26.8584  -30.8129   22.0009 H   0  0  0  0  0  0
  -28.1301  -28.9170   21.2011 H   0  0  0  0  0  0
  -26.0101  -25.8674   19.0153 H   0  0  0  0  0  0
  -23.9983  -27.2735   18.9961 H   0  0  0  0  0  0
  -23.7829  -30.5614   19.3941 H   0  0  0  0  0  0
  -22.7728  -29.2273   19.8506 H   0  0  0  0  0  0
  -25.1302  -36.1892   25.0813 H   0  0  0  0  0  0
  -21.0053  -28.3345   24.1362 H   0  0  0  0  0  0
  -20.5765  -26.2344   23.3586 H   0  0  0  0  0  0
  -21.6663  -26.7508   22.1154 H   0  0  0  0  0  0
  -19.6931  -25.6335   21.1226 H   0  0  0  0  0  0
  -19.6718  -27.3251   20.6745 H   0  0  0  0  0  0
  -17.4234  -26.6758   21.4014 H   0  0  0  0  0  0
  -18.0357  -26.0109   22.9007 H   0  0  0  0  0  0
  -19.7953  -30.7317   24.2290 H   0  0  0  0  0  0
  -17.5026  -31.6294   24.5200 H   0  0  0  0  0  0
  -15.5369  -30.3023   23.7651 H   0  0  0  0  0  0
  -15.8697  -28.0859   22.7029 H   0  0  0  0  0  0
  -24.5878  -30.7112   25.7650 H   0  0  0  0  0  0
  -24.8897  -32.2954   26.4713 H   0  0  0  0  0  0
  -25.7979  -30.8941   27.0174 H   0  0  0  0  0  0
  -26.2969  -29.6723   24.1196 H   0  0  0  0  0  0
  -27.4010  -29.7254   25.4717 H   0  0  0  0  0  0
  -27.8840  -30.4223   23.9454 H   0  0  0  0  0  0
  -27.2655  -33.3595   26.2027 H   0  0  0  0  0  0
  -28.3899  -32.6849   25.0331 H   0  0  0  0  0  0
  -28.0685  -31.8420   26.5404 H   0  0  0  0  0  0
  -28.2585  -38.0099   24.7511 H   0  0  0  0  0  0
  -28.1071  -36.2635   24.6288 H   0  0  0  0  0  0
  -27.2292  -37.1450   25.8865 H   0  0  0  0  0  0
  -20.9389  -29.8726   21.6763 H   0  0  0  0  0  0
  -26.0158  -38.2843   24.1408 H   0  0  0  0  0  0
  -28.6187  -16.2151   18.6386 H   0  0  0  0  0  0
  -27.1146  -19.3082   16.2363 H   0  0  0  0  0  0
  -26.1726  -20.8774   22.5353 H   0  0  0  0  0  0
  -26.8214  -20.1009   20.9980 H   0  0  0  0  0  0
  -28.4731  -23.3342   22.8972 H   0  0  0  0  0  0
  -26.7585  -23.1445   23.1036 H   0  0  0  0  0  0
  -27.1695  -25.4138   22.3572 H   0  0  0  0  0  0
  -26.2952  -24.5661   21.0971 H   0  0  0  0  0  0
  -29.7510  -23.7021   19.3637 H   0  0  0  0  0  0
  -28.1037  -23.7729   18.8564 H   0  0  0  0  0  0
  -29.2623  -25.0017   21.3122 H   0  0  0  0  0  0
  -29.8354  -17.8724   21.4824 H   0  0  0  0  0  0
  -31.0411  -17.5764   20.2657 H   0  0  0  0  0  0
  -30.2735  -21.3508   19.4747 H   0  0  0  0  0  0
  -29.7797  -20.6471   20.9732 H   0  0  0  0  0  0
  -28.8506  -15.6279   20.9695 H   0  0  0  0  0  0
  -27.7943  -21.9518   19.4553 H   0  0  0  0  0  0
  1 25  1  0  0  0
  1 30  2  0  0  0
  1 85  1  0  0  0
  2  3  1  0  0  0
  2 25  1  0  0  0
  2 89  1  0  0  0
  2 90  1  0  0  0
  3  4  1  0  0  0
  3 91  1  0  0  0
  3 92  1  0  0  0
  4  5  1  0  0  0
  4 93  1  0  0  0
  4 94  1  0  0  0
  5  6  1  0  0  0
  5 26  1  0  0  0
  5 95  1  0  0  0
  6 25  1  0  0  0
  6 96  1  0  0  0
  6 97  1  0  0  0
  7  8  2  0  0  0
  7 26  1  0  0  0
  7 29  1  0  0  0
  8  9  1  0  0  0
  8 22  1  0  0  0
  9 10  1  0  0  0
  9 27  2  0  0  0
 10 11  2  0  0  0
 10 15  1  0  0  0
 11 12  1  0  0  0
 11 98  1  0  0  0
 12 13  2  0  0  0
 12 99  1  0  0  0
 13 14  1  0  0  0
 13 31  1  0  0  0
 14 15  2  0  0  0
 14100  1  0  0  0
 15101  1  0  0  0
 16 17  2  0  0  0
 16 21  1  0  0  0
 16 31  1  0  0  0
 17 18  1  0  0  0
 17102  1  0  0  0
 18 19  2  0  0  0
 18103  1  0  0  0
 19 20  1  0  0  0
 19 24  1  0  0  0
 20 21  2  0  0  0
 20104  1  0  0  0
 21 23  1  0  0  0
 22 28  1  0  0  0
 22 32  2  0  0  0
 26 27  1  0  0  0
 28105  1  0  0  0
 28106  1  0  0  0
 29107  1  0  0  0
 29108  1  0  0  0
 33 34  1  0  0  0
 33 66  1  0  0  0
 33 70  2  0  0  0
 34 36  1  0  0  0
 34 59  1  0  0  0
 34109  1  0  0  0
 35 44  2  0  0  0
 35 45  1  0  0  0
 35 68  1  0  0  0
 36 56  1  0  0  0
 36110  1  0  0  0
 37 39  1  0  0  0
 37 47  1  0  0  0
 37 66  1  0  0  0
 37111  1  0  0  0
 38 43  2  0  0  0
 38 46  1  0  0  0
 38 47  1  0  0  0
 39 64  1  0  0  0
 39 67  2  0  0  0
 40 52  1  0  0  0
 40 53  2  0  0  0
 40 58  1  0  0  0
 41112  1  0  0  0
 41113  1  0  0  0
 41114  1  0  0  0
 41 48  1  0  0  0
 42 43  1  0  0  0
 42 66  1  0  0  0
 42115  1  0  0  0
 42116  1  0  0  0
 43 44  1  0  0  0
 44117  1  0  0  0
 45 46  2  0  0  0
 45118  1  0  0  0
 46119  1  0  0  0
 47120  1  0  0  0
 47121  1  0  0  0
 48 56  1  0  0  0
 48 65  1  0  0  0
 48122  1  0  0  0
 49 50  1  0  0  0
 49 53  1  0  0  0
 49 64  1  0  0  0
 49123  1  0  0  0
 50 51  1  0  0  0
 50124  1  0  0  0
 50125  1  0  0  0
 51 52  1  0  0  0
 51126  1  0  0  0
 51127  1  0  0  0
 52128  1  0  0  0
 52129  1  0  0  0
 53 54  1  0  0  0
 54 55  2  0  0  0
 54130  1  0  0  0
 55 57  1  0  0  0
 55131  1  0  0  0
 56 69  2  0  0  0
 57 58  2  0  0  0
 57132  1  0  0  0
 58133  1  0  0  0
 59 60  1  0  0  0
 59 61  1  0  0  0
 59 62  1  0  0  0
 60134  1  0  0  0
 60135  1  0  0  0
 60136  1  0  0  0
 61137  1  0  0  0
 61138  1  0  0  0
 61139  1  0  0  0
 62140  1  0  0  0
 62141  1  0  0  0
 62142  1  0  0  0
 63 65  1  0  0  0
 63143  1  0  0  0
 63144  1  0  0  0
 63145  1  0  0  0
 64146  1  0  0  0
 65147  1  0  0  0
 68 82  1  0  0  0
 71 73  2  0  0  0
 71 75  1  0  0  0
 71148  1  0  0  0
 72 75  2  0  0  0
 72 76  1  0  0  0
 72149  1  0  0  0
 73 74  1  0  0  0
 73 83  1  0  0  0
 74 76  2  0  0  0
 74 84  1  0  0  0
 75 87  1  0  0  0
 76 88  1  0  0  0
 77 78  2  0  0  0
 77 79  1  0  0  0
 77 86  1  0  0  0
 78150  1  0  0  0
 78151  1  0  0  0
 79 80  1  0  0  0
 79152  1  0  0  0
 79153  1  0  0  0
 80 82  1  0  0  0
 80154  1  0  0  0
 80155  1  0  0  0
 81 82  1  0  0  0
 81 86  1  0  0  0
 81156  1  0  0  0
 81157  1  0  0  0
 82158  1  0  0  0
 83 85  1  0  0  0
 83159  1  0  0  0
 83160  1  0  0  0
 84161  1  0  0  0
 84162  1  0  0  0
 84 86  1  0  0  0
 85163  1  0  0  0
 86164  1  0  0  0
M  CHG  1  86   1
M  ISO  4   1 100  68 101  82 101  85 100
M  END
> <chiral flag>
0

> <version>
0

> <s_m_source_file>
/data/baiqing/PycharmProjects/Reinvent-master-3.2/result/LINK_invent/BTK/process_docking_weight1_custom_product_contain_oxygen_bond_distance_aromatic_linkinvent_7_9_3/rearranged_h_0048.sdf

> <i_m_source_file_index>
28

> <r_mmod_Potential_Energy-OPLS-2005>
156.782180786133

> <r_mmod_Stretch_Energy-OPLS-2005>
177.634658813477

> <r_mmod_Bend_Energy-OPLS-2005>
263.122894287109

> <r_mmod_Torsional_Energy-OPLS-2005>
251.729537963867

> <r_mmod_Improper_Torsional_Energy-OPLS-2005>
5.31896638870239

> <r_mmod_Van_der_Waal_Energy-OPLS-2005>
142.596466064453

> <r_mmod_Electrostatic_Energy-OPLS-2005>
-342.730529785156

> <r_mmod_Solvation_Energy-OPLS-2005>
-432.560974121094

> <b_mmod_Minimization_Converged-OPLS-2005>
0

> <r_mmod_RMS_Derivative-OPLS-2005>
3.72999405860901

$$$$
28
                    3D
 Structure written by MMmdl.
170179  0  0  1  0            999 V2000
  -30.6828  -14.6226   20.2337 C   0  0  0  0  0  0
  -30.4193  -12.3231   19.4412 C   0  0  0  0  0  0
  -29.4882  -12.3564   18.2164 C   0  0  0  0  0  0
  -28.0027  -12.3021   18.6457 C   0  0  0  0  0  0
  -27.6451  -13.2001   19.8697 C   0  0  2  0  0  0
  -28.7270  -13.1608   20.9654 C   0  0  0  0  0  0
  -25.2529  -13.8161   20.5838 C   0  0  0  0  0  0
  -24.1774  -13.0435   20.9270 C   0  0  0  0  0  0
  -24.6335  -11.6903   20.8852 C   0  0  0  0  0  0
  -23.9031  -10.4265   21.0451 C   0  0  0  0  0  0
  -24.3597   -9.4184   21.9216 C   0  0  0  0  0  0
  -23.6283   -8.2212   22.0766 C   0  0  0  0  0  0
  -22.4275   -8.0255   21.3549 C   0  0  0  0  0  0
  -21.9908   -9.0222   20.4675 C   0  0  0  0  0  0
  -22.7216  -10.2117   20.3078 C   0  0  0  0  0  0
  -21.6806   -6.0742   22.5281 C   0  0  0  0  0  0
  -21.3962   -6.5652   23.8220 C   0  0  0  0  0  0
  -21.3654   -5.6803   24.9180 C   0  0  0  0  0  0
  -21.6055   -4.3059   24.7215 C   0  0  0  0  0  0
  -21.8821   -3.8157   23.4337 C   0  0  0  0  0  0
  -21.9161   -4.6986   22.3388 C   0  0  0  0  0  0
  -22.7777  -13.5230   21.1878 C   0  0  0  0  0  0
  -22.1629   -4.2181   21.0964 F   0  0  0  0  0  0
  -21.5655   -3.4547   25.7737 F   0  0  0  0  0  0
  -30.0077  -13.4361   20.3024 N   0  0  0  0  0  0
  -26.2983  -12.9316   20.3620 N   0  0  0  0  0  0
  -25.9279  -11.6502   20.6026 N   0  0  0  0  0  0
  -22.0414  -12.8257   22.0473 N   0  0  0  0  0  0
  -25.4145  -15.1895   20.4200 N   0  0  0  0  0  0
  -31.8991  -14.6523   20.4142 O   0  0  0  0  0  0
  -21.6625   -6.8868   21.4240 O   0  0  0  0  0  0
  -22.3457  -14.5505   20.6635 O   0  0  0  0  0  0
  -24.6194  -31.8676   23.2062 C   0  0  0  0  0  0
  -25.9079  -32.4810   23.8368 C   0  0  1  0  0  0
  -27.2172  -27.3803   20.1134 C   0  0  0  0  0  0
  -25.5917  -33.8606   24.2303 N   0  0  0  0  0  0
  -23.4057  -30.4936   21.5501 C   0  0  2  0  0  0
  -24.8487  -28.9573   20.1111 C   0  0  0  0  0  0
  -22.7430  -29.4677   22.4980 C   0  0  0  0  0  0
  -18.0289  -28.1375   22.8512 C   0  0  0  0  0  0
  -24.1489  -36.7297   23.2640 C   0  0  0  0  0  0
  -25.9413  -30.8211   21.3633 C   0  0  0  0  0  0
  -26.0157  -29.4537   20.7062 C   0  0  0  0  0  0
  -27.2034  -28.6760   20.6975 C   0  0  0  0  0  0
  -26.0288  -26.9185   19.5007 C   0  0  0  0  0  0
  -24.8546  -27.6926   19.5026 C   0  0  0  0  0  0
  -23.6112  -29.8284   20.1639 C   0  0  0  0  0  0
  -25.4112  -36.3102   24.0337 C   0  0  1  0  0  0
  -20.5883  -28.3667   23.1315 C   0  0  2  0  0  0
  -20.6769  -26.9404   22.5415 C   0  0  0  0  0  0
  -19.5740  -26.6388   21.5225 C   0  0  0  0  0  0
  -18.1923  -26.7929   22.1635 C   0  0  0  0  0  0
  -19.1540  -28.8838   23.2910 C   0  0  0  0  0  0
  -18.9455  -30.1441   23.8922 C   0  0  0  0  0  0
  -17.6458  -30.6584   24.0566 C   0  0  0  0  0  0
  -25.9048  -34.9472   23.5123 C   0  0  0  0  0  0
  -16.5350  -29.9083   23.6333 C   0  0  0  0  0  0
  -16.7275  -28.6494   23.0368 C   0  0  0  0  0  0
  -26.4494  -31.6591   25.0702 C   0  0  0  0  0  0
  -25.3726  -31.3708   26.1414 C   0  0  0  0  0  0
  -27.0330  -30.3029   24.6096 C   0  0  0  0  0  0
  -27.6058  -32.4312   25.7465 C   0  0  0  0  0  0
  -27.5589  -37.1799   24.8471 C   0  0  0  0  0  0
  -21.4159  -29.3041   22.3721 N   0  0  0  0  0  0
  -26.4298  -37.3786   23.9417 N   0  0  0  0  0  0
  -24.6744  -31.0754   22.0979 N   0  0  0  0  0  0
  -23.4190  -28.8239   23.3045 O   0  0  0  0  0  0
  -28.3593  -26.5869   20.1628 O   0  0  0  0  0  0
  -26.5610  -34.8942   22.4684 O   0  0  0  0  0  0
  -23.5382  -32.1440   23.7447 O   0  0  0  0  0  0
  -27.4244  -18.0340   18.9832 C   0  0  0  0  0  0
  -29.9850  -17.8844   20.0453 C   0  0  0  0  0  0
  -27.9670  -19.1799   19.5996 C   0  0  0  0  0  0
  -28.1763  -16.8598   18.7999 C   0  0  0  0  0  0
  -29.3186  -19.1559   20.0365 C   0  0  0  0  0  0
  -29.4197  -16.6993   19.4734 C   0  0  0  0  0  0
  -29.5208  -22.8566   19.9356 C   0  0  0  0  0  0
  -28.9247  -23.2107   22.7371 C   0  0  0  0  0  0
  -29.6893  -24.3403   22.0425 C   0  0  0  0  0  0
  -29.4106  -21.8440   22.2189 C   0  0  0  0  0  0
  -29.4410  -24.3126   20.5233 C   0  0  2  0  0  0
  -27.0943  -20.4225   19.6629 C   0  0  0  0  0  0
  -27.6688  -15.8942   17.7382 C   0  0  0  0  0  0
  -31.0442  -15.5970   18.0619 C   0  0  0  0  0  0
  -30.1646  -20.4400   20.3156 C   0  0  0  0  0  0
  -28.1788  -25.1396   20.1065 C   0  0  0  0  0  0
  -29.5896  -21.7562   20.7577 N   0  0  0  0  0  0
  -30.2033  -15.4940   19.2715 N   0  0  0  0  0  0
  -29.6013  -22.7455   18.7093 O   0  0  0  0  0  0
  -31.4662  -12.4023   19.1372 H   0  0  0  0  0  0
  -30.3385  -11.3735   19.9732 H   0  0  0  0  0  0
  -29.7174  -11.5090   17.5705 H   0  0  0  0  0  0
  -29.6707  -13.2386   17.6100 H   0  0  0  0  0  0
  -27.7860  -11.2601   18.8853 H   0  0  0  0  0  0
  -27.3646  -12.5462   17.7968 H   0  0  0  0  0  0
  -27.6352  -14.2240   19.5400 H   0  0  0  0  0  0
  -28.7532  -12.1893   21.4582 H   0  0  0  0  0  0
  -28.5206  -13.9132   21.7301 H   0  0  0  0  0  0
  -25.2722   -9.5676   22.4830 H   0  0  0  0  0  0
  -23.9987   -7.4592   22.7472 H   0  0  0  0  0  0
  -21.0842   -8.8716   19.8964 H   0  0  0  0  0  0
  -22.3649  -10.9651   19.6187 H   0  0  0  0  0  0
  -21.1917   -7.6157   23.9709 H   0  0  0  0  0  0
  -21.1483   -6.0546   25.9091 H   0  0  0  0  0  0
  -22.0610   -2.7630   23.2809 H   0  0  0  0  0  0
  -22.4041  -11.9978   22.4965 H   0  0  0  0  0  0
  -21.1023  -13.1275   22.2666 H   0  0  0  0  0  0
  -24.6313  -15.8296   20.4988 H   0  0  0  0  0  0
  -26.2760  -15.6501   20.1539 H   0  0  0  0  0  0
  -26.7159  -32.5502   23.1137 H   0  0  0  0  0  0
  -25.0056  -33.9760   25.0440 H   0  0  0  0  0  0
  -22.6957  -31.3122   21.4136 H   0  0  0  0  0  0
  -23.3760  -35.9620   23.3302 H   0  0  0  0  0  0
  -24.3591  -36.8904   22.2055 H   0  0  0  0  0  0
  -23.7224  -37.6499   23.6645 H   0  0  0  0  0  0
  -26.0587  -31.5900   20.5964 H   0  0  0  0  0  0
  -26.8265  -30.8725   21.9845 H   0  0  0  0  0  0
  -28.1017  -29.0526   21.1661 H   0  0  0  0  0  0
  -25.9786  -25.9514   19.0241 H   0  0  0  0  0  0
  -23.9563  -27.3031   19.0436 H   0  0  0  0  0  0
  -23.7145  -30.6046   19.4056 H   0  0  0  0  0  0
  -22.7316  -29.2515   19.8711 H   0  0  0  0  0  0
  -25.1294  -36.1966   25.0829 H   0  0  0  0  0  0
  -20.9983  -28.3227   24.1428 H   0  0  0  0  0  0
  -20.5684  -26.2281   23.3606 H   0  0  0  0  0  0
  -21.6631  -26.7448   22.1191 H   0  0  0  0  0  0
  -19.6893  -25.6301   21.1245 H   0  0  0  0  0  0
  -19.6675  -27.3211   20.6765 H   0  0  0  0  0  0
  -17.4196  -26.6709   21.4024 H   0  0  0  0  0  0
  -18.0305  -26.0052   22.9009 H   0  0  0  0  0  0
  -19.7922  -30.7255   24.2294 H   0  0  0  0  0  0
  -17.5006  -31.6267   24.5151 H   0  0  0  0  0  0
  -15.5346  -30.2983   23.7632 H   0  0  0  0  0  0
  -15.8676  -28.0803   22.7085 H   0  0  0  0  0  0
  -24.5894  -30.7083   25.7716 H   0  0  0  0  0  0
  -24.8923  -32.2868   26.4860 H   0  0  0  0  0  0
  -25.8027  -30.8847   27.0174 H   0  0  0  0  0  0
  -26.2881  -29.6770   24.1160 H   0  0  0  0  0  0
  -27.4117  -29.7293   25.4571 H   0  0  0  0  0  0
  -27.8716  -30.4358   23.9247 H   0  0  0  0  0  0
  -27.2683  -33.3613   26.2052 H   0  0  0  0  0  0
  -28.3854  -32.6862   25.0271 H   0  0  0  0  0  0
  -28.0738  -31.8418   26.5360 H   0  0  0  0  0  0
  -28.2604  -38.0104   24.7535 H   0  0  0  0  0  0
  -28.1094  -36.2635   24.6275 H   0  0  0  0  0  0
  -27.2315  -37.1421   25.8878 H   0  0  0  0  0  0
  -20.9316  -29.8748   21.6932 H   0  0  0  0  0  0
  -26.0194  -38.2870   24.1401 H   0  0  0  0  0  0
  -26.4400  -18.0881   18.5375 H   0  0  0  0  0  0
  -31.0115  -17.8385   20.3810 H   0  0  0  0  0  0
  -27.8513  -23.3188   22.5737 H   0  0  0  0  0  0
  -29.0788  -23.2631   23.8166 H   0  0  0  0  0  0
  -30.7576  -24.2256   22.2279 H   0  0  0  0  0  0
  -29.4208  -25.3111   22.4662 H   0  0  0  0  0  0
  -28.7235  -21.0630   22.5484 H   0  0  0  0  0  0
  -30.3705  -21.6334   22.6888 H   0  0  0  0  0  0
  -30.2812  -24.8364   20.0652 H   0  0  0  0  0  0
  -26.0355  -20.1787   19.5453 H   0  0  0  0  0  0
  -27.3732  -21.1221   18.8731 H   0  0  0  0  0  0
  -27.1816  -20.9207   20.6278 H   0  0  0  0  0  0
  -26.6540  -15.5624   17.9481 H   0  0  0  0  0  0
  -28.3061  -15.0248   17.6032 H   0  0  0  0  0  0
  -27.6482  -16.4000   16.7741 H   0  0  0  0  0  0
  -31.9035  -16.2405   18.2436 H   0  0  0  0  0  0
  -30.4966  -16.0238   17.2191 H   0  0  0  0  0  0
  -31.4274  -14.6295   17.7332 H   0  0  0  0  0  0
  -30.7273  -20.6058   19.3954 H   0  0  0  0  0  0
  -30.9370  -20.1652   21.0321 H   0  0  0  0  0  0
  -27.3554  -24.8537   20.7654 H   0  0  0  0  0  0
  -27.8830  -24.8519   19.0970 H   0  0  0  0  0  0
  1 25  1  0  0  0
  1 30  2  0  0  0
  1 88  1  0  0  0
  2  3  1  0  0  0
  2 25  1  0  0  0
  2 90  1  0  0  0
  2 91  1  0  0  0
  3  4  1  0  0  0
  3 92  1  0  0  0
  3 93  1  0  0  0
  4  5  1  0  0  0
  4 94  1  0  0  0
  4 95  1  0  0  0
  5  6  1  0  0  0
  5 26  1  0  0  0
  5 96  1  0  0  0
  6 25  1  0  0  0
  6 97  1  0  0  0
  6 98  1  0  0  0
  7  8  2  0  0  0
  7 26  1  0  0  0
  7 29  1  0  0  0
  8  9  1  0  0  0
  8 22  1  0  0  0
  9 10  1  0  0  0
  9 27  2  0  0  0
 10 11  2  0  0  0
 10 15  1  0  0  0
 11 12  1  0  0  0
 11 99  1  0  0  0
 12 13  2  0  0  0
 12100  1  0  0  0
 13 14  1  0  0  0
 13 31  1  0  0  0
 14 15  2  0  0  0
 14101  1  0  0  0
 15102  1  0  0  0
 16 17  2  0  0  0
 16 21  1  0  0  0
 16 31  1  0  0  0
 17 18  1  0  0  0
 17103  1  0  0  0
 18 19  2  0  0  0
 18104  1  0  0  0
 19 20  1  0  0  0
 19 24  1  0  0  0
 20 21  2  0  0  0
 20105  1  0  0  0
 21 23  1  0  0  0
 22 28  1  0  0  0
 22 32  2  0  0  0
 26 27  1  0  0  0
 28106  1  0  0  0
 28107  1  0  0  0
 29108  1  0  0  0
 29109  1  0  0  0
 33 34  1  0  0  0
 33 66  1  0  0  0
 33 70  2  0  0  0
 34 36  1  0  0  0
 34 59  1  0  0  0
 34110  1  0  0  0
 35 44  2  0  0  0
 35 45  1  0  0  0
 35 68  1  0  0  0
 36 56  1  0  0  0
 36111  1  0  0  0
 37 39  1  0  0  0
 37 47  1  0  0  0
 37 66  1  0  0  0
 37112  1  0  0  0
 38 43  2  0  0  0
 38 46  1  0  0  0
 38 47  1  0  0  0
 39 64  1  0  0  0
 39 67  2  0  0  0
 40 52  1  0  0  0
 40 53  2  0  0  0
 40 58  1  0  0  0
 41113  1  0  0  0
 41114  1  0  0  0
 41115  1  0  0  0
 41 48  1  0  0  0
 42 43  1  0  0  0
 42 66  1  0  0  0
 42116  1  0  0  0
 42117  1  0  0  0
 43 44  1  0  0  0
 44118  1  0  0  0
 45 46  2  0  0  0
 45119  1  0  0  0
 46120  1  0  0  0
 47121  1  0  0  0
 47122  1  0  0  0
 48 56  1  0  0  0
 48 65  1  0  0  0
 48123  1  0  0  0
 49 50  1  0  0  0
 49 53  1  0  0  0
 49 64  1  0  0  0
 49124  1  0  0  0
 50 51  1  0  0  0
 50125  1  0  0  0
 50126  1  0  0  0
 51 52  1  0  0  0
 51127  1  0  0  0
 51128  1  0  0  0
 52129  1  0  0  0
 52130  1  0  0  0
 53 54  1  0  0  0
 54 55  2  0  0  0
 54131  1  0  0  0
 55 57  1  0  0  0
 55132  1  0  0  0
 56 69  2  0  0  0
 57 58  2  0  0  0
 57133  1  0  0  0
 58134  1  0  0  0
 59 60  1  0  0  0
 59 61  1  0  0  0
 59 62  1  0  0  0
 60135  1  0  0  0
 60136  1  0  0  0
 60137  1  0  0  0
 61138  1  0  0  0
 61139  1  0  0  0
 61140  1  0  0  0
 62141  1  0  0  0
 62142  1  0  0  0
 62143  1  0  0  0
 63 65  1  0  0  0
 63144  1  0  0  0
 63145  1  0  0  0
 63146  1  0  0  0
 64147  1  0  0  0
 65148  1  0  0  0
 68 86  1  0  0  0
 71 73  2  0  0  0
 71 74  1  0  0  0
 71149  1  0  0  0
 72 75  2  0  0  0
 72 76  1  0  0  0
 72150  1  0  0  0
 73 75  1  0  0  0
 73 82  1  0  0  0
 74 76  2  0  0  0
 74 83  1  0  0  0
 75 85  1  0  0  0
 76 88  1  0  0  0
 77 81  1  0  0  0
 77 87  1  0  0  0
 77 89  2  0  0  0
 78 79  1  0  0  0
 78 80  1  0  0  0
 78151  1  0  0  0
 78152  1  0  0  0
 79 81  1  0  0  0
 79153  1  0  0  0
 79154  1  0  0  0
 80 87  1  0  0  0
 80155  1  0  0  0
 80156  1  0  0  0
 81 86  1  0  0  0
 81157  1  0  0  0
 82158  1  0  0  0
 82159  1  0  0  0
 82160  1  0  0  0
 83161  1  0  0  0
 83162  1  0  0  0
 83163  1  0  0  0
 84 88  1  0  0  0
 84164  1  0  0  0
 84165  1  0  0  0
 84166  1  0  0  0
 85 87  1  0  0  0
 85167  1  0  0  0
 85168  1  0  0  0
 86169  1  0  0  0
 86170  1  0  0  0
M  ISO  4   1 100  68 101  86 101  88 100
M  END
> <chiral flag>
0

> <version>
0

> <s_m_source_file>
/data/baiqing/PycharmProjects/Reinvent-master-3.2/result/LINK_invent/BTK/process_docking_weight1_custom_product_contain_oxygen_bond_distance_aromatic_linkinvent_7_9_3/rearranged_h_0048.sdf

> <i_m_source_file_index>
29

> <r_mmod_Potential_Energy-OPLS-2005>
360.530517578125

> <r_mmod_Stretch_Energy-OPLS-2005>
69.4491500854492

> <r_mmod_Bend_Energy-OPLS-2005>
152.531646728516

> <r_mmod_Torsional_Energy-OPLS-2005>
387.058776855469

> <r_mmod_Improper_Torsional_Energy-OPLS-2005>
37.6110763549805

> <r_mmod_Van_der_Waal_Energy-OPLS-2005>
159.118667602539

> <r_mmod_Electrostatic_Energy-OPLS-2005>
-317.062683105469

> <r_mmod_Solvation_Energy-OPLS-2005>
-200.913955688477

> <b_mmod_Minimization_Converged-OPLS-2005>
0

> <r_mmod_RMS_Derivative-OPLS-2005>
4.67829513549805

$$$$
29
                    3D
 Structure written by MMmdl.
181189  0  0  1  0            999 V2000
  -30.6897  -14.5051   20.5224 C   0  0  0  0  0  0
  -30.4087  -12.3116   19.4239 C   0  0  0  0  0  0
  -29.4863  -12.5046   18.2020 C   0  0  0  0  0  0
  -28.0057  -12.3642   18.6154 C   0  0  0  0  0  0
  -27.6516  -13.2134   19.8688 C   0  0  2  0  0  0
  -28.6992  -13.0280   20.9926 C   0  0  0  0  0  0
  -25.2495  -13.8196   20.5801 C   0  0  0  0  0  0
  -24.1768  -13.0448   20.9265 C   0  0  0  0  0  0
  -24.6329  -11.6920   20.8744 C   0  0  0  0  0  0
  -23.8985  -10.4299   21.0368 C   0  0  0  0  0  0
  -24.3536   -9.4213   21.9154 C   0  0  0  0  0  0
  -23.6242   -8.2228   22.0698 C   0  0  0  0  0  0
  -22.4231   -8.0237   21.3498 C   0  0  0  0  0  0
  -21.9836   -9.0200   20.4608 C   0  0  0  0  0  0
  -22.7138  -10.2105   20.3021 C   0  0  0  0  0  0
  -21.6844   -6.0722   22.5268 C   0  0  0  0  0  0
  -21.4028   -6.5628   23.8204 C   0  0  0  0  0  0
  -21.3663   -5.6782   24.9163 C   0  0  0  0  0  0
  -21.6034   -4.3039   24.7219 C   0  0  0  0  0  0
  -21.8809   -3.8138   23.4331 C   0  0  0  0  0  0
  -21.9188   -4.6951   22.3388 C   0  0  0  0  0  0
  -22.7748  -13.5147   21.1949 C   0  0  0  0  0  0
  -22.1660   -4.2126   21.0968 F   0  0  0  0  0  0
  -21.5609   -3.4516   25.7736 F   0  0  0  0  0  0
  -30.0212  -13.3215   20.4204 N   0  0  0  0  0  0
  -26.2929  -12.9388   20.3389 N   0  0  0  0  0  0
  -25.9263  -11.6538   20.5765 N   0  0  0  0  0  0
  -22.0397  -12.8093   22.0480 N   0  0  0  0  0  0
  -25.4273  -15.1929   20.4246 N   0  0  0  0  0  0
  -31.8594  -14.6249   20.1552 O   0  0  0  0  0  0
  -21.6588   -6.8851   21.4231 O   0  0  0  0  0  0
  -22.3409  -14.5466   20.6803 O   0  0  0  0  0  0
  -24.6206  -31.8675   23.2034 C   0  0  0  0  0  0
  -25.9079  -32.4820   23.8348 C   0  0  1  0  0  0
  -27.2367  -27.4026   20.0941 C   0  0  0  0  0  0
  -25.5887  -33.8594   24.2303 N   0  0  0  0  0  0
  -23.4086  -30.4872   21.5520 C   0  0  2  0  0  0
  -24.8502  -28.9347   20.1269 C   0  0  0  0  0  0
  -22.7453  -29.4653   22.5027 C   0  0  0  0  0  0
  -18.0306  -28.1405   22.8523 C   0  0  0  0  0  0
  -24.1478  -36.7332   23.2635 C   0  0  0  0  0  0
  -25.9392  -30.8141   21.3645 C   0  0  0  0  0  0
  -26.0164  -29.4461   20.7129 C   0  0  0  0  0  0
  -27.2136  -28.6903   20.6849 C   0  0  0  0  0  0
  -26.0526  -26.9117   19.5036 C   0  0  0  0  0  0
  -24.8644  -27.6642   19.5220 C   0  0  0  0  0  0
  -23.6197  -29.8112   20.1711 C   0  0  0  0  0  0
  -25.4104  -36.3131   24.0355 C   0  0  1  0  0  0
  -20.5889  -28.3663   23.1357 C   0  0  2  0  0  0
  -20.6785  -26.9404   22.5455 C   0  0  0  0  0  0
  -19.5731  -26.6371   21.5275 C   0  0  0  0  0  0
  -18.1920  -26.7949   22.1673 C   0  0  0  0  0  0
  -19.1558  -28.8843   23.2922 C   0  0  0  0  0  0
  -18.9492  -30.1475   23.8890 C   0  0  0  0  0  0
  -17.6496  -30.6592   24.0597 C   0  0  0  0  0  0
  -25.9049  -34.9488   23.5148 C   0  0  0  0  0  0
  -16.5380  -29.9133   23.6355 C   0  0  0  0  0  0
  -16.7299  -28.6566   23.0342 C   0  0  0  0  0  0
  -26.4473  -31.6611   25.0699 C   0  0  0  0  0  0
  -25.3723  -31.3686   26.1442 C   0  0  0  0  0  0
  -27.0286  -30.3055   24.6066 C   0  0  0  0  0  0
  -27.6070  -32.4316   25.7449 C   0  0  0  0  0  0
  -27.5604  -37.1823   24.8471 C   0  0  0  0  0  0
  -21.4179  -29.3062   22.3783 N   0  0  0  0  0  0
  -26.4306  -37.3821   23.9433 N   0  0  0  0  0  0
  -24.6741  -31.0720   22.0971 N   0  0  0  0  0  0
  -23.4237  -28.8220   23.3061 O   0  0  0  0  0  0
  -28.3904  -26.6343   20.0987 O   0  0  0  0  0  0
  -26.5624  -34.8939   22.4723 O   0  0  0  0  0  0
  -23.5386  -32.1417   23.7430 O   0  0  0  0  0  0
  -29.3179  -17.9945   20.6333 C   0  0  0  0  0  0
  -31.5921  -17.3874   21.2230 C   0  0  0  0  0  0
  -29.6297  -19.3825   20.7632 C   0  0  0  0  0  0
  -31.9267  -18.7440   21.4143 C   0  0  0  0  0  0
  -30.9307  -19.7508   21.2266 C   0  0  0  0  0  0
  -30.2883  -16.9796   20.8729 C   0  0  0  0  0  0
  -28.5659  -20.4022   20.4959 C   0  0  0  0  0  0
  -34.7382  -21.1200   22.1646 C   0  0  0  0  0  0
  -31.2465  -21.1909   21.6280 C   0  0  0  0  0  0
  -33.9392  -22.4960   24.1495 C   0  0  0  0  0  0
  -34.2411  -20.1738   19.9658 C   0  0  0  0  0  0
  -36.0712  -20.8519   25.7333 C   0  0  0  0  0  0
  -33.3474  -19.0032   21.9461 C   0  0  0  0  0  0
  -28.5646  -24.1534   19.5015 C   0  0  0  0  0  0
  -27.8905  -22.7679   19.7701 C   0  0  0  0  0  0
  -28.2470  -25.2634   20.5514 C   0  0  0  0  0  0
  -34.6506  -21.1991   23.7097 C   0  0  2  0  0  0
  -27.3120  -20.1620   20.8680 N   0  0  0  0  0  0
  -29.9210  -15.5835   20.8227 N   0  0  0  0  0  0
  -34.0945  -20.1665   21.4280 N   0  0  0  0  0  0
  -28.8208  -21.6039   19.9186 N   0  3  0  0  0  0
  -36.0116  -21.1317   24.2832 N   0  3  0  0  0  0
  -35.4229  -21.9891   21.6149 O   0  0  0  0  0  0
  -31.4589  -12.3741   19.1370 H   0  0  0  0  0  0
  -30.2737  -11.3120   19.8383 H   0  0  0  0  0  0
  -29.7222  -11.7756   17.4264 H   0  0  0  0  0  0
  -29.6486  -13.4907   17.7654 H   0  0  0  0  0  0
  -27.8111  -11.3093   18.8162 H   0  0  0  0  0  0
  -27.3462  -12.6357   17.7877 H   0  0  0  0  0  0
  -27.6882  -14.2553   19.5482 H   0  0  0  0  0  0
  -28.6759  -12.0050   21.3729 H   0  0  0  0  0  0
  -28.4740  -13.6660   21.8479 H   0  0  0  0  0  0
  -25.2659   -9.5667   22.4741 H   0  0  0  0  0  0
  -23.9936   -7.4594   22.7381 H   0  0  0  0  0  0
  -21.0769   -8.8680   19.8908 H   0  0  0  0  0  0
  -22.3562  -10.9618   19.6106 H   0  0  0  0  0  0
  -21.2061   -7.6136   23.9706 H   0  0  0  0  0  0
  -21.1494   -6.0513   25.9068 H   0  0  0  0  0  0
  -22.0599   -2.7594   23.2840 H   0  0  0  0  0  0
  -22.3997  -11.9774   22.4951 H   0  0  0  0  0  0
  -21.0993  -13.1090   22.2687 H   0  0  0  0  0  0
  -24.6732  -15.8566   20.5545 H   0  0  0  0  0  0
  -26.2608  -15.6181   20.0408 H   0  0  0  0  0  0
  -26.7189  -32.5552   23.1145 H   0  0  0  0  0  0
  -25.0018  -33.9723   25.0437 H   0  0  0  0  0  0
  -22.6954  -31.3035   21.4104 H   0  0  0  0  0  0
  -23.3769  -35.9648   23.3292 H   0  0  0  0  0  0
  -24.3555  -36.8901   22.2036 H   0  0  0  0  0  0
  -23.7172  -37.6510   23.6646 H   0  0  0  0  0  0
  -26.0472  -31.5661   20.5812 H   0  0  0  0  0  0
  -26.8273  -30.8701   21.9833 H   0  0  0  0  0  0
  -28.1119  -29.0721   21.1464 H   0  0  0  0  0  0
  -26.0471  -25.9374   19.0310 H   0  0  0  0  0  0
  -23.9682  -27.2469   19.0844 H   0  0  0  0  0  0
  -23.7412  -30.5782   19.4050 H   0  0  0  0  0  0
  -22.7384  -29.2367   19.8769 H   0  0  0  0  0  0
  -25.1271  -36.2022   25.0851 H   0  0  0  0  0  0
  -20.9968  -28.3212   24.1477 H   0  0  0  0  0  0
  -20.5671  -26.2260   23.3631 H   0  0  0  0  0  0
  -21.6672  -26.7476   22.1254 H   0  0  0  0  0  0
  -19.6867  -25.6291   21.1258 H   0  0  0  0  0  0
  -19.6656  -27.3183   20.6792 H   0  0  0  0  0  0
  -17.4205  -26.6783   21.4057 H   0  0  0  0  0  0
  -18.0274  -26.0069   22.9024 H   0  0  0  0  0  0
  -19.7966  -30.7336   24.2175 H   0  0  0  0  0  0
  -17.5080  -31.6226   24.5292 H   0  0  0  0  0  0
  -15.5376  -30.3041   23.7743 H   0  0  0  0  0  0
  -15.8688  -28.0951   22.7013 H   0  0  0  0  0  0
  -24.5977  -30.6934   25.7777 H   0  0  0  0  0  0
  -24.8834  -32.2799   26.4908 H   0  0  0  0  0  0
  -25.8077  -30.8865   27.0212 H   0  0  0  0  0  0
  -26.2800  -29.6819   24.1153 H   0  0  0  0  0  0
  -27.4053  -29.7282   25.4526 H   0  0  0  0  0  0
  -27.8656  -30.4351   23.9200 H   0  0  0  0  0  0
  -27.2745  -33.3643   26.2041 H   0  0  0  0  0  0
  -28.3865  -32.6813   25.0240 H   0  0  0  0  0  0
  -28.0776  -31.8406   26.5317 H   0  0  0  0  0  0
  -28.2655  -38.0102   24.7561 H   0  0  0  0  0  0
  -28.1057  -36.2636   24.6269 H   0  0  0  0  0  0
  -27.2307  -37.1406   25.8863 H   0  0  0  0  0  0
  -20.9310  -29.8893   21.7129 H   0  0  0  0  0  0
  -26.0214  -38.2920   24.1396 H   0  0  0  0  0  0
  -28.3138  -17.7057   20.3536 H   0  0  0  0  0  0
  -32.3599  -16.6495   21.4113 H   0  0  0  0  0  0
  -30.3819  -21.7460   21.9851 H   0  0  0  0  0  0
  -31.7022  -21.7489   20.8103 H   0  0  0  0  0  0
  -31.9186  -21.1908   22.4781 H   0  0  0  0  0  0
  -33.0398  -22.6901   23.5631 H   0  0  0  0  0  0
  -34.5868  -23.3670   24.0407 H   0  0  0  0  0  0
  -33.6389  -22.4314   25.1973 H   0  0  0  0  0  0
  -35.2895  -20.0638   19.6847 H   0  0  0  0  0  0
  -33.8825  -21.1118   19.5420 H   0  0  0  0  0  0
  -33.6884  -19.3692   19.4774 H   0  0  0  0  0  0
  -37.1061  -20.7561   26.0618 H   0  0  0  0  0  0
  -35.5671  -19.9160   25.9762 H   0  0  0  0  0  0
  -35.6056  -21.6473   26.3160 H   0  0  0  0  0  0
  -33.9692  -18.1317   21.7261 H   0  0  0  0  0  0
  -33.2531  -18.9831   23.0247 H   0  0  0  0  0  0
  -28.2016  -24.4945   18.5338 H   0  0  0  0  0  0
  -29.6430  -24.0511   19.3885 H   0  0  0  0  0  0
  -27.2037  -22.5474   18.9497 H   0  0  0  0  0  0
  -27.2648  -22.8459   20.6594 H   0  0  0  0  0  0
  -28.9316  -25.1455   21.3920 H   0  0  0  0  0  0
  -27.2583  -25.0981   20.9788 H   0  0  0  0  0  0
  -34.0864  -20.3797   24.1353 H   0  0  0  0  0  0
  -27.0863  -19.3196   21.3695 H   0  0  0  0  0  0
  -26.5745  -20.8250   20.7013 H   0  0  0  0  0  0
  -28.9455  -15.3760   20.9552 H   0  0  0  0  0  0
  -29.7202  -21.6768   19.4588 H   0  0  0  0  0  0
  -36.4999  -20.3905   23.8078 H   0  0  0  0  0  0
  -36.5034  -21.9845   24.0616 H   0  0  0  0  0  0
  1 25  1  0  0  0
  1 30  2  0  0  0
  1 89  1  0  0  0
  2  3  1  0  0  0
  2 25  1  0  0  0
  2 94  1  0  0  0
  2 95  1  0  0  0
  3  4  1  0  0  0
  3 96  1  0  0  0
  3 97  1  0  0  0
  4  5  1  0  0  0
  4 98  1  0  0  0
  4 99  1  0  0  0
  5  6  1  0  0  0
  5 26  1  0  0  0
  5100  1  0  0  0
  6 25  1  0  0  0
  6101  1  0  0  0
  6102  1  0  0  0
  7  8  2  0  0  0
  7 26  1  0  0  0
  7 29  1  0  0  0
  8  9  1  0  0  0
  8 22  1  0  0  0
  9 10  1  0  0  0
  9 27  2  0  0  0
 10 11  2  0  0  0
 10 15  1  0  0  0
 11 12  1  0  0  0
 11103  1  0  0  0
 12 13  2  0  0  0
 12104  1  0  0  0
 13 14  1  0  0  0
 13 31  1  0  0  0
 14 15  2  0  0  0
 14105  1  0  0  0
 15106  1  0  0  0
 16 17  2  0  0  0
 16 21  1  0  0  0
 16 31  1  0  0  0
 17 18  1  0  0  0
 17107  1  0  0  0
 18 19  2  0  0  0
 18108  1  0  0  0
 19 20  1  0  0  0
 19 24  1  0  0  0
 20 21  2  0  0  0
 20109  1  0  0  0
 21 23  1  0  0  0
 22 28  1  0  0  0
 22 32  2  0  0  0
 26 27  1  0  0  0
 28110  1  0  0  0
 28111  1  0  0  0
 29112  1  0  0  0
 29113  1  0  0  0
 33 34  1  0  0  0
 33 66  1  0  0  0
 33 70  2  0  0  0
 34 36  1  0  0  0
 34 59  1  0  0  0
 34114  1  0  0  0
 35 44  2  0  0  0
 35 45  1  0  0  0
 35 68  1  0  0  0
 36 56  1  0  0  0
 36115  1  0  0  0
 37 39  1  0  0  0
 37 47  1  0  0  0
 37 66  1  0  0  0
 37116  1  0  0  0
 38 43  2  0  0  0
 38 46  1  0  0  0
 38 47  1  0  0  0
 39 64  1  0  0  0
 39 67  2  0  0  0
 40 52  1  0  0  0
 40 53  2  0  0  0
 40 58  1  0  0  0
 41117  1  0  0  0
 41118  1  0  0  0
 41119  1  0  0  0
 41 48  1  0  0  0
 42 43  1  0  0  0
 42 66  1  0  0  0
 42120  1  0  0  0
 42121  1  0  0  0
 43 44  1  0  0  0
 44122  1  0  0  0
 45 46  2  0  0  0
 45123  1  0  0  0
 46124  1  0  0  0
 47125  1  0  0  0
 47126  1  0  0  0
 48 56  1  0  0  0
 48 65  1  0  0  0
 48127  1  0  0  0
 49 50  1  0  0  0
 49 53  1  0  0  0
 49 64  1  0  0  0
 49128  1  0  0  0
 50 51  1  0  0  0
 50129  1  0  0  0
 50130  1  0  0  0
 51 52  1  0  0  0
 51131  1  0  0  0
 51132  1  0  0  0
 52133  1  0  0  0
 52134  1  0  0  0
 53 54  1  0  0  0
 54 55  2  0  0  0
 54135  1  0  0  0
 55 57  1  0  0  0
 55136  1  0  0  0
 56 69  2  0  0  0
 57 58  2  0  0  0
 57137  1  0  0  0
 58138  1  0  0  0
 59 60  1  0  0  0
 59 61  1  0  0  0
 59 62  1  0  0  0
 60139  1  0  0  0
 60140  1  0  0  0
 60141  1  0  0  0
 61142  1  0  0  0
 61143  1  0  0  0
 61144  1  0  0  0
 62145  1  0  0  0
 62146  1  0  0  0
 62147  1  0  0  0
 63 65  1  0  0  0
 63148  1  0  0  0
 63149  1  0  0  0
 63150  1  0  0  0
 64151  1  0  0  0
 65152  1  0  0  0
 68 86  1  0  0  0
 71 73  2  0  0  0
 71 76  1  0  0  0
 71153  1  0  0  0
 72 74  1  0  0  0
 72 76  2  0  0  0
 72154  1  0  0  0
 73 75  1  0  0  0
 73 77  1  0  0  0
 74 75  2  0  0  0
 74 83  1  0  0  0
 75 79  1  0  0  0
 76 89  1  0  0  0
 77 88  1  0  0  0
 77 91  2  0  0  0
 78 87  1  0  0  0
 78 90  1  0  0  0
 78 93  2  0  0  0
 79155  1  0  0  0
 79156  1  0  0  0
 79157  1  0  0  0
 80158  1  0  0  0
 80159  1  0  0  0
 80160  1  0  0  0
 80 87  1  0  0  0
 81 90  1  0  0  0
 81161  1  0  0  0
 81162  1  0  0  0
 81163  1  0  0  0
 82 92  1  0  0  0
 82164  1  0  0  0
 82165  1  0  0  0
 82166  1  0  0  0
 83 90  1  0  0  0
 83167  1  0  0  0
 83168  1  0  0  0
 84 85  1  0  0  0
 84 86  1  0  0  0
 84169  1  0  0  0
 84170  1  0  0  0
 85 91  1  0  0  0
 85171  1  0  0  0
 85172  1  0  0  0
 86173  1  0  0  0
 86174  1  0  0  0
 87 92  1  0  0  0
 87175  1  0  0  0
 88176  1  0  0  0
 88177  1  0  0  0
 89178  1  0  0  0
 91179  1  0  0  0
 92180  1  0  0  0
 92181  1  0  0  0
M  CHG  2  91   1  92   1
M  ISO  4   1 100  68 101  86 101  89 100
M  END
> <chiral flag>
0

> <version>
0

> <s_m_source_file>
/data/baiqing/PycharmProjects/Reinvent-master-3.2/result/LINK_invent/BTK/process_docking_weight1_custom_product_contain_oxygen_bond_distance_aromatic_linkinvent_7_9_3/rearranged_h_0048.sdf

> <i_m_source_file_index>
30

> <r_mmod_Potential_Energy-OPLS-2005>
-386.395080566406

> <r_mmod_Stretch_Energy-OPLS-2005>
58.0457611083984

> <r_mmod_Bend_Energy-OPLS-2005>
129.624160766602

> <r_mmod_Torsional_Energy-OPLS-2005>
271.492919921875

> <r_mmod_Improper_Torsional_Energy-OPLS-2005>
6.66437530517578

> <r_mmod_Van_der_Waal_Energy-OPLS-2005>
181.107681274414

> <r_mmod_Electrostatic_Energy-OPLS-2005>
-182.477142333984

> <r_mmod_Solvation_Energy-OPLS-2005>
-871.513488769531

> <b_mmod_Minimization_Converged-OPLS-2005>
0

> <r_mmod_RMS_Derivative-OPLS-2005>
6.49174165725708

$$$$
30
                    3D
 Structure written by MMmdl.
165174  0  0  1  0            999 V2000
  -30.6411  -14.6643   20.5472 C   0  0  0  0  0  0
  -30.4490  -12.4248   19.4597 C   0  0  0  0  0  0
  -29.5181  -12.5360   18.2307 C   0  0  0  0  0  0
  -28.0415  -12.3639   18.6356 C   0  0  0  0  0  0
  -27.6610  -13.2150   19.8720 C   0  0  2  0  0  0
  -28.7061  -13.0835   21.0051 C   0  0  0  0  0  0
  -25.2660  -13.8135   20.5644 C   0  0  0  0  0  0
  -24.1865  -13.0464   20.9128 C   0  0  0  0  0  0
  -24.6363  -11.6904   20.8679 C   0  0  0  0  0  0
  -23.8988  -10.4325   21.0360 C   0  0  0  0  0  0
  -24.3546   -9.4243   21.9146 C   0  0  0  0  0  0
  -23.6290   -8.2254   22.0691 C   0  0  0  0  0  0
  -22.4277   -8.0269   21.3500 C   0  0  0  0  0  0
  -21.9870   -9.0244   20.4624 C   0  0  0  0  0  0
  -22.7148  -10.2149   20.3046 C   0  0  0  0  0  0
  -21.6871   -6.0691   22.5243 C   0  0  0  0  0  0
  -21.4027   -6.5598   23.8165 C   0  0  0  0  0  0
  -21.3687   -5.6764   24.9137 C   0  0  0  0  0  0
  -21.6047   -4.3029   24.7202 C   0  0  0  0  0  0
  -21.8840   -3.8087   23.4327 C   0  0  0  0  0  0
  -21.9182   -4.6921   22.3383 C   0  0  0  0  0  0
  -22.7896  -13.5324   21.1764 C   0  0  0  0  0  0
  -22.1668   -4.2064   21.0967 F   0  0  0  0  0  0
  -21.5645   -3.4529   25.7742 F   0  0  0  0  0  0
  -30.0227  -13.4405   20.4541 N   0  0  0  0  0  0
  -26.3048  -12.9262   20.3329 N   0  0  0  0  0  0
  -25.9314  -11.6429   20.5745 N   0  0  0  0  0  0
  -22.0506  -12.8382   22.0354 N   0  0  0  0  0  0
  -25.4577  -15.1854   20.4040 N   0  0  0  0  0  0
  -31.7642  -14.8345   20.0603 O   0  0  0  0  0  0
  -21.6641   -6.8884   21.4225 O   0  0  0  0  0  0
  -22.3598  -14.5613   20.6616 O   0  0  0  0  0  0
  -24.6335  -31.8535   23.1899 C   0  0  0  0  0  0
  -25.9207  -32.4720   23.8189 C   0  0  1  0  0  0
  -27.2486  -27.3174   20.0583 C   0  0  0  0  0  0
  -25.6010  -33.8529   24.2092 N   0  0  0  0  0  0
  -23.4223  -30.4672   21.5482 C   0  0  2  0  0  0
  -24.8612  -28.9067   20.1119 C   0  0  0  0  0  0
  -22.7517  -29.4564   22.5052 C   0  0  0  0  0  0
  -18.0273  -28.1443   22.8463 C   0  0  0  0  0  0
  -24.1498  -36.7298   23.2580 C   0  0  0  0  0  0
  -25.9676  -30.7596   21.3725 C   0  0  0  0  0  0
  -26.0302  -29.3890   20.7112 C   0  0  0  0  0  0
  -27.2205  -28.6047   20.6739 C   0  0  0  0  0  0
  -26.0636  -26.8919   19.4175 C   0  0  0  0  0  0
  -24.8793  -27.6610   19.4611 C   0  0  0  0  0  0
  -23.6236  -29.7852   20.1702 C   0  0  0  0  0  0
  -25.4105  -36.3033   24.0263 C   0  0  1  0  0  0
  -20.5880  -28.3710   23.1357 C   0  0  2  0  0  0
  -20.6806  -26.9437   22.5485 C   0  0  0  0  0  0
  -19.5787  -26.6391   21.5289 C   0  0  0  0  0  0
  -18.1933  -26.7989   22.1622 C   0  0  0  0  0  0
  -19.1525  -28.8895   23.2879 C   0  0  0  0  0  0
  -18.9448  -30.1519   23.8848 C   0  0  0  0  0  0
  -17.6442  -30.6622   24.0559 C   0  0  0  0  0  0
  -25.9136  -34.9441   23.4984 C   0  0  0  0  0  0
  -16.5326  -29.9094   23.6381 C   0  0  0  0  0  0
  -16.7257  -28.6551   23.0322 C   0  0  0  0  0  0
  -26.4519  -31.6613   25.0651 C   0  0  0  0  0  0
  -25.3679  -31.3903   26.1353 C   0  0  0  0  0  0
  -27.0278  -30.2955   24.6258 C   0  0  0  0  0  0
  -27.6077  -32.4367   25.7386 C   0  0  0  0  0  0
  -27.5712  -37.1592   24.8287 C   0  0  0  0  0  0
  -21.4239  -29.2989   22.3743 N   0  0  0  0  0  0
  -26.4190  -37.3841   23.9599 N   0  0  0  0  0  0
  -24.6931  -31.0455   22.0918 N   0  0  0  0  0  0
  -23.4229  -28.8169   23.3186 O   0  0  0  0  0  0
  -28.4143  -26.5360   20.1181 O   0  0  0  0  0  0
  -26.5736  -34.8959   22.4573 O   0  0  0  0  0  0
  -23.5513  -32.1402   23.7235 O   0  0  0  0  0  0
  -29.8769  -18.3299   21.0589 C   0  0  0  0  0  0
  -28.6751  -19.4150   19.2404 C   0  0  0  0  0  0
  -28.8390  -16.9683   19.3376 C   0  0  0  0  0  0
  -29.4517  -19.5672   20.4191 C   0  0  0  0  0  0
  -29.6085  -17.0111   20.5167 C   0  0  0  0  0  0
  -28.3649  -18.1400   18.7231 C   0  0  0  0  0  0
  -30.0132  -23.5862   21.1884 C   0  0  0  0  0  0
  -31.2596  -23.6085   24.6815 C   0  0  0  0  0  0
  -30.6321  -23.9007   22.3444 C   0  0  0  0  0  0
  -30.6749  -23.1248   23.5732 C   0  0  0  0  0  0
  -29.9722  -24.5774   19.9906 C   0  0  0  0  0  0
  -27.5350  -24.0643   20.0794 C   0  0  0  0  0  0
  -28.0723  -22.5839   20.0067 C   0  0  0  0  0  0
  -28.5588  -25.1438   19.6172 C   0  0  1  0  0  0
  -29.9975  -21.0003   20.8563 C   0  0  0  0  0  0
  -29.9609  -15.7169   21.1248 N   0  0  0  0  0  0
  -29.1877  -22.3068   20.9692 N   0  3  1  0  0  0
  -27.4120  -17.9948   17.2889 Cl  0  0  0  0  0  0
  -31.4866  -12.5654   19.1503 H   0  0  0  0  0  0
  -30.4049  -11.4221   19.8847 H   0  0  0  0  0  0
  -29.7907  -11.7914   17.4823 H   0  0  0  0  0  0
  -29.6644  -13.5034   17.7510 H   0  0  0  0  0  0
  -27.8795  -11.3112   18.8579 H   0  0  0  0  0  0
  -27.3891  -12.6065   17.7955 H   0  0  0  0  0  0
  -27.6710  -14.2474   19.5331 H   0  0  0  0  0  0
  -28.7266  -12.0609   21.3890 H   0  0  0  0  0  0
  -28.4392  -13.7134   21.8550 H   0  0  0  0  0  0
  -25.2696   -9.5737   22.4694 H   0  0  0  0  0  0
  -23.9994   -7.4673   22.7440 H   0  0  0  0  0  0
  -21.0728   -8.8789   19.9028 H   0  0  0  0  0  0
  -22.3567  -10.9682   19.6173 H   0  0  0  0  0  0
  -21.2038   -7.6113   23.9657 H   0  0  0  0  0  0
  -21.1505   -6.0479   25.9051 H   0  0  0  0  0  0
  -22.0600   -2.7552   23.2798 H   0  0  0  0  0  0
  -22.4069  -12.0048   22.4766 H   0  0  0  0  0  0
  -21.1183  -13.1520   22.2632 H   0  0  0  0  0  0
  -24.7177  -15.8762   20.4809 H   0  0  0  0  0  0
  -26.3320  -15.5797   20.0775 H   0  0  0  0  0  0
  -26.7252  -32.5283   23.0889 H   0  0  0  0  0  0
  -25.0045  -33.9608   25.0154 H   0  0  0  0  0  0
  -22.7133  -31.2854   21.4084 H   0  0  0  0  0  0
  -23.3925  -35.9453   23.2723 H   0  0  0  0  0  0
  -24.3713  -36.9493   22.2135 H   0  0  0  0  0  0
  -23.6973  -37.6181   23.6977 H   0  0  0  0  0  0
  -26.1296  -31.5185   20.6063 H   0  0  0  0  0  0
  -26.8418  -30.7806   22.0150 H   0  0  0  0  0  0
  -28.1292  -28.9799   21.1212 H   0  0  0  0  0  0
  -26.0252  -25.9770   18.8486 H   0  0  0  0  0  0
  -23.9918  -27.2911   18.9616 H   0  0  0  0  0  0
  -23.7156  -30.5513   19.4018 H   0  0  0  0  0  0
  -22.7418  -29.2045   19.8937 H   0  0  0  0  0  0
  -25.1222  -36.1706   25.0715 H   0  0  0  0  0  0
  -20.9912  -28.3298   24.1512 H   0  0  0  0  0  0
  -20.5831  -26.2300   23.3677 H   0  0  0  0  0  0
  -21.6659  -26.7559   22.1195 H   0  0  0  0  0  0
  -19.6950  -25.6289   21.1348 H   0  0  0  0  0  0
  -19.6774  -27.3179   20.6808 H   0  0  0  0  0  0
  -17.4266  -26.6782   21.3954 H   0  0  0  0  0  0
  -18.0221  -26.0141   22.9014 H   0  0  0  0  0  0
  -19.7920  -30.7386   24.2164 H   0  0  0  0  0  0
  -17.4977  -31.6291   24.5185 H   0  0  0  0  0  0
  -15.5313  -30.2947   23.7792 H   0  0  0  0  0  0
  -15.8670  -28.0888   22.6988 H   0  0  0  0  0  0
  -24.5729  -30.7430   25.7634 H   0  0  0  0  0  0
  -24.9056  -32.3180   26.4759 H   0  0  0  0  0  0
  -25.7903  -30.8985   27.0131 H   0  0  0  0  0  0
  -26.2828  -29.6714   24.1331 H   0  0  0  0  0  0
  -27.3861  -29.7249   25.4840 H   0  0  0  0  0  0
  -27.8788  -30.4054   23.9528 H   0  0  0  0  0  0
  -27.2657  -33.3626   26.2008 H   0  0  0  0  0  0
  -28.3844  -32.7019   25.0204 H   0  0  0  0  0  0
  -28.0834  -31.8501   26.5252 H   0  0  0  0  0  0
  -28.2123  -38.0419   24.8327 H   0  0  0  0  0  0
  -28.1759  -36.3189   24.4844 H   0  0  0  0  0  0
  -27.2685  -36.9655   25.8589 H   0  0  0  0  0  0
  -20.9524  -29.8504   21.6720 H   0  0  0  0  0  0
  -26.0007  -38.2739   24.2168 H   0  0  0  0  0  0
  -30.4631  -18.4070   21.9660 H   0  0  0  0  0  0
  -28.3343  -20.2691   18.6803 H   0  0  0  0  0  0
  -28.5906  -16.0268   18.8812 H   0  0  0  0  0  0
  -31.3001  -23.0451   25.6034 H   0  0  0  0  0  0
  -31.7096  -24.5943   24.6963 H   0  0  0  0  0  0
  -31.1341  -24.8601   22.3666 H   0  0  0  0  0  0
  -30.2313  -22.1422   23.6254 H   0  0  0  0  0  0
  -30.3995  -24.0515   19.1343 H   0  0  0  0  0  0
  -30.6606  -25.4088   20.1600 H   0  0  0  0  0  0
  -27.1990  -24.3061   21.0884 H   0  0  0  0  0  0
  -26.6554  -24.0889   19.4371 H   0  0  0  0  0  0
  -28.3974  -22.4017   18.9806 H   0  0  0  0  0  0
  -27.2496  -21.9017   20.2181 H   0  0  0  0  0  0
  -28.5370  -25.1946   18.5237 H   0  0  0  0  0  0
  -30.8651  -21.2189   20.2327 H   0  0  0  0  0  0
  -30.4226  -20.8546   21.8503 H   0  0  0  0  0  0
  -29.2682  -15.3940   21.7874 H   0  0  0  0  0  0
  -28.6927  -22.1517   21.8338 H   0  0  0  0  0  0
  1 25  1  0  0  0
  1 30  2  0  0  0
  1 86  1  0  0  0
  2  3  1  0  0  0
  2 25  1  0  0  0
  2 89  1  0  0  0
  2 90  1  0  0  0
  3  4  1  0  0  0
  3 91  1  0  0  0
  3 92  1  0  0  0
  4  5  1  0  0  0
  4 93  1  0  0  0
  4 94  1  0  0  0
  5  6  1  0  0  0
  5 26  1  0  0  0
  5 95  1  0  0  0
  6 25  1  0  0  0
  6 96  1  0  0  0
  6 97  1  0  0  0
  7  8  2  0  0  0
  7 26  1  0  0  0
  7 29  1  0  0  0
  8  9  1  0  0  0
  8 22  1  0  0  0
  9 10  1  0  0  0
  9 27  2  0  0  0
 10 11  2  0  0  0
 10 15  1  0  0  0
 11 12  1  0  0  0
 11 98  1  0  0  0
 12 13  2  0  0  0
 12 99  1  0  0  0
 13 14  1  0  0  0
 13 31  1  0  0  0
 14 15  2  0  0  0
 14100  1  0  0  0
 15101  1  0  0  0
 16 17  2  0  0  0
 16 21  1  0  0  0
 16 31  1  0  0  0
 17 18  1  0  0  0
 17102  1  0  0  0
 18 19  2  0  0  0
 18103  1  0  0  0
 19 20  1  0  0  0
 19 24  1  0  0  0
 20 21  2  0  0  0
 20104  1  0  0  0
 21 23  1  0  0  0
 22 28  1  0  0  0
 22 32  2  0  0  0
 26 27  1  0  0  0
 28105  1  0  0  0
 28106  1  0  0  0
 29107  1  0  0  0
 29108  1  0  0  0
 33 34  1  0  0  0
 33 66  1  0  0  0
 33 70  2  0  0  0
 34 36  1  0  0  0
 34 59  1  0  0  0
 34109  1  0  0  0
 35 44  2  0  0  0
 35 45  1  0  0  0
 35 68  1  0  0  0
 36 56  1  0  0  0
 36110  1  0  0  0
 37 39  1  0  0  0
 37 47  1  0  0  0
 37 66  1  0  0  0
 37111  1  0  0  0
 38 43  2  0  0  0
 38 46  1  0  0  0
 38 47  1  0  0  0
 39 64  1  0  0  0
 39 67  2  0  0  0
 40 52  1  0  0  0
 40 53  2  0  0  0
 40 58  1  0  0  0
 41112  1  0  0  0
 41113  1  0  0  0
 41114  1  0  0  0
 41 48  1  0  0  0
 42 43  1  0  0  0
 42 66  1  0  0  0
 42115  1  0  0  0
 42116  1  0  0  0
 43 44  1  0  0  0
 44117  1  0  0  0
 45 46  2  0  0  0
 45118  1  0  0  0
 46119  1  0  0  0
 47120  1  0  0  0
 47121  1  0  0  0
 48 56  1  0  0  0
 48 65  1  0  0  0
 48122  1  0  0  0
 49 50  1  0  0  0
 49 53  1  0  0  0
 49 64  1  0  0  0
 49123  1  0  0  0
 50 51  1  0  0  0
 50124  1  0  0  0
 50125  1  0  0  0
 51 52  1  0  0  0
 51126  1  0  0  0
 51127  1  0  0  0
 52128  1  0  0  0
 52129  1  0  0  0
 53 54  1  0  0  0
 54 55  2  0  0  0
 54130  1  0  0  0
 55 57  1  0  0  0
 55131  1  0  0  0
 56 69  2  0  0  0
 57 58  2  0  0  0
 57132  1  0  0  0
 58133  1  0  0  0
 59 60  1  0  0  0
 59 61  1  0  0  0
 59 62  1  0  0  0
 60134  1  0  0  0
 60135  1  0  0  0
 60136  1  0  0  0
 61137  1  0  0  0
 61138  1  0  0  0
 61139  1  0  0  0
 62140  1  0  0  0
 62141  1  0  0  0
 62142  1  0  0  0
 63 65  1  0  0  0
 63143  1  0  0  0
 63144  1  0  0  0
 63145  1  0  0  0
 64146  1  0  0  0
 65147  1  0  0  0
 68 84  1  0  0  0
 71 74  2  0  0  0
 71 75  1  0  0  0
 71148  1  0  0  0
 72 74  1  0  0  0
 72 76  2  0  0  0
 72149  1  0  0  0
 73 75  2  0  0  0
 73 76  1  0  0  0
 73150  1  0  0  0
 74 85  1  0  0  0
 75 86  1  0  0  0
 76 88  1  0  0  0
 77 79  2  0  0  0
 77 81  1  0  0  0
 77 87  1  0  0  0
 78 80  2  0  0  0
 78151  1  0  0  0
 78152  1  0  0  0
 79 80  1  0  0  0
 79153  1  0  0  0
 80154  1  0  0  0
 81 84  1  0  0  0
 81155  1  0  0  0
 81156  1  0  0  0
 82 83  1  0  0  0
 82 84  1  0  0  0
 82157  1  0  0  0
 82158  1  0  0  0
 83 87  1  0  0  0
 83159  1  0  0  0
 83160  1  0  0  0
 84161  1  0  0  0
 85162  1  0  0  0
 85163  1  0  0  0
 85 87  1  0  0  0
 86164  1  0  0  0
 87165  1  0  0  0
M  CHG  1  87   1
M  ISO  4   1 100  68 101  84 101  86 100
M  END
> <chiral flag>
0

> <version>
0

> <s_m_source_file>
/data/baiqing/PycharmProjects/Reinvent-master-3.2/result/LINK_invent/BTK/process_docking_weight1_custom_product_contain_oxygen_bond_distance_aromatic_linkinvent_7_9_3/rearranged_h_0048.sdf

> <i_m_source_file_index>
31

> <r_mmod_Potential_Energy-OPLS-2005>
55.4523277282715

> <r_mmod_Stretch_Energy-OPLS-2005>
101.914405822754

> <r_mmod_Bend_Energy-OPLS-2005>
198.193435668945

> <r_mmod_Torsional_Energy-OPLS-2005>
272.124084472656

> <r_mmod_Improper_Torsional_Energy-OPLS-2005>
6.31785821914673

> <r_mmod_Van_der_Waal_Energy-OPLS-2005>
142.415771484375

> <r_mmod_Electrostatic_Energy-OPLS-2005>
-257.053253173828

> <r_mmod_Solvation_Energy-OPLS-2005>
-460.954437255859

> <b_mmod_Minimization_Converged-OPLS-2005>
0

> <r_mmod_RMS_Derivative-OPLS-2005>
7.95473718643188

$$$$
31
                    3D
 Structure written by MMmdl.
159167  0  0  1  0            999 V2000
  -30.0258  -15.7413   20.8331 C   0  0  0  0  0  0
  -30.3411  -13.2440   19.7355 C   0  0  0  0  0  0
  -29.5602  -12.7745   18.4587 C   0  0  0  0  0  0
  -28.1350  -12.3424   18.8146 C   0  0  0  0  0  0
  -27.5540  -13.3108   19.8655 C   0  0  2  0  0  0
  -28.4646  -13.5927   21.0769 C   0  0  0  0  0  0
  -25.2001  -13.8269   20.5742 C   0  0  0  0  0  0
  -24.1450  -13.0396   20.9252 C   0  0  0  0  0  0
  -24.6181  -11.6911   20.8742 C   0  0  0  0  0  0
  -23.8973  -10.4255   21.0404 C   0  0  0  0  0  0
  -24.3571   -9.4187   21.9174 C   0  0  0  0  0  0
  -23.6267   -8.2213   22.0744 C   0  0  0  0  0  0
  -22.4251   -8.0240   21.3537 C   0  0  0  0  0  0
  -21.9860   -9.0195   20.4638 C   0  0  0  0  0  0
  -22.7164  -10.2079   20.3042 C   0  0  0  0  0  0
  -21.6841   -6.0710   22.5282 C   0  0  0  0  0  0
  -21.4012   -6.5624   23.8215 C   0  0  0  0  0  0
  -21.3660   -5.6780   24.9180 C   0  0  0  0  0  0
  -21.6045   -4.3042   24.7230 C   0  0  0  0  0  0
  -21.8827   -3.8129   23.4355 C   0  0  0  0  0  0
  -21.9191   -4.6941   22.3408 C   0  0  0  0  0  0
  -22.7509  -13.5142   21.1950 C   0  0  0  0  0  0
  -22.1661   -4.2130   21.0984 F   0  0  0  0  0  0
  -21.5628   -3.4529   25.7744 F   0  0  0  0  0  0
  -29.5999  -14.3501   20.5630 N   0  0  0  0  0  0
  -26.2341  -12.9550   20.3127 N   0  0  0  0  0  0
  -25.9082  -11.6634   20.5632 N   0  0  0  0  0  0
  -22.0213  -12.8119   22.0532 N   0  0  0  0  0  0
  -25.3685  -15.2027   20.4330 N   0  0  0  0  0  0
  -31.2458  -15.6988   20.5213 O   0  0  0  0  0  0
  -21.6628   -6.8837   21.4237 O   0  0  0  0  0  0
  -22.3202  -14.5456   20.6805 O   0  0  0  0  0  0
  -25.3293  -31.4664   23.1408 C   0  0  0  0  0  0
  -26.3787  -32.3604   23.8410 C   0  0  1  0  0  0
  -26.0924  -29.5654   19.3407 C   0  0  0  0  0  0
  -25.8782  -33.7585   24.1783 N   0  0  0  0  0  0
  -24.3838  -28.5925   21.9659 C   0  0  2  0  0  0
  -25.5449  -27.6832   20.5202 C   0  0  0  0  0  0
  -22.7659  -28.0838   22.1108 C   0  0  0  0  0  0
  -17.9332  -28.1864   22.7549 C   0  0  0  0  0  0
  -24.1668  -36.6423   23.2609 C   0  0  0  0  0  0
  -26.7196  -29.6693   22.1129 C   0  0  0  0  0  0
  -26.6443  -28.6130   20.9865 C   0  0  0  0  0  0
  -27.2763  -29.1968   19.9616 C   0  0  0  0  0  0
  -25.7766  -28.3856   18.5440 C   0  0  0  0  0  0
  -25.5838  -27.2224   19.2370 C   0  0  0  0  0  0
  -24.1412  -28.1834   20.5764 C   0  0  0  0  0  0
  -25.4430  -36.2203   24.0125 C   0  0  1  0  0  0
  -20.4843  -28.1519   22.9418 C   0  0  2  0  0  0
  -20.2501  -26.6520   22.6001 C   0  0  0  0  0  0
  -19.3018  -26.5214   21.4525 C   0  0  0  0  0  0
  -17.9456  -26.8580   22.0215 C   0  0  0  0  0  0
  -19.1280  -28.8621   23.1319 C   0  0  0  0  0  0
  -19.0089  -30.1107   23.7894 C   0  0  0  0  0  0
  -17.7340  -30.6651   24.0480 C   0  0  0  0  0  0
  -26.0040  -34.8809   23.4527 C   0  0  0  0  0  0
  -16.5661  -29.9760   23.6736 C   0  0  0  0  0  0
  -16.6717  -28.7341   23.0357 C   0  0  0  0  0  0
  -26.6991  -31.6885   25.2106 C   0  0  0  0  0  0
  -25.5099  -31.5482   26.2001 C   0  0  0  0  0  0
  -27.3369  -30.3088   25.0217 C   0  0  0  0  0  0
  -27.7748  -32.5412   25.8983 C   0  0  0  0  0  0
  -27.5590  -37.1644   24.8492 C   0  0  0  0  0  0
  -21.5247  -28.6982   22.0183 N   0  0  0  0  0  0
  -26.4183  -37.3364   23.9558 N   0  0  0  0  0  0
  -25.4592  -30.0279   22.5712 N   0  0  0  0  0  0
  -22.8228  -27.1425   22.8188 O   0  0  0  0  0  0
  -25.1577  -30.4056   20.2830 O   0  0  0  0  0  0
  -26.6050  -34.8851   22.3798 O   0  0  0  0  0  0
  -24.2800  -32.1686   23.2955 O   0  0  0  0  0  0
  -25.6744  -22.3290   22.5320 C   0  0  0  0  0  0
  -27.6202  -22.9350   23.2407 C   0  0  0  0  0  0
  -26.2482  -20.9300   22.1512 C   0  0  0  0  0  0
  -28.2007  -21.5196   22.8579 C   0  0  0  0  0  0
  -26.2428  -23.5885   23.1519 C   0  0  0  0  0  0
  -27.6071  -20.2619   22.2292 C   0  0  0  0  0  0
  -24.2564  -28.3255   24.5967 C   0  0  0  0  0  0
  -22.6151  -31.7643   21.0524 C   0  0  0  0  0  0
  -25.4674  -25.3881   23.3262 C   0  0  0  0  0  0
  -28.0917  -18.4147   21.7414 C   0  0  0  0  0  0
  -23.2998  -29.9067   23.6465 C   0  0  0  0  0  0
  -24.9462  -26.8375   24.3728 N   0  0  0  0  0  0
  -29.3839  -17.1633   21.2954 N   0  0  0  0  0  0
  -23.4041  -30.6319   21.5206 N   0  0  0  0  0  0
  -24.2871  -28.5624   25.8011 O   0  0  0  0  0  0
  -31.3189  -13.5942   19.4047 H   0  0  0  0  0  0
  -30.5664  -12.3859   20.3723 H   0  0  0  0  0  0
  -30.0918  -11.9675   17.9548 H   0  0  0  0  0  0
  -29.5160  -13.6029   17.7502 H   0  0  0  0  0  0
  -28.1696  -11.3322   19.2225 H   0  0  0  0  0  0
  -27.5048  -12.3016   17.9249 H   0  0  0  0  0  0
  -27.4423  -14.2529   19.3254 H   0  0  0  0  0  0
  -28.7484  -12.6795   21.6033 H   0  0  0  0  0  0
  -27.9431  -14.2160   21.8053 H   0  0  0  0  0  0
  -25.2712   -9.5696   22.4746 H   0  0  0  0  0  0
  -23.9990   -7.4614   22.7459 H   0  0  0  0  0  0
  -21.0794   -8.8689   19.8948 H   0  0  0  0  0  0
  -22.3602  -10.9608   19.6151 H   0  0  0  0  0  0
  -21.2004   -7.6134   23.9710 H   0  0  0  0  0  0
  -21.1477   -6.0513   25.9082 H   0  0  0  0  0  0
  -22.0607   -2.7589   23.2859 H   0  0  0  0  0  0
  -22.3875  -11.9794   22.4914 H   0  0  0  0  0  0
  -21.0827  -13.1111   22.2787 H   0  0  0  0  0  0
  -24.6040  -15.8563   20.5602 H   0  0  0  0  0  0
  -26.2214  -15.6428   20.1111 H   0  0  0  0  0  0
  -27.2706  -32.4315   23.2166 H   0  0  0  0  0  0
  -25.3338  -33.8167   25.0255 H   0  0  0  0  0  0
  -24.8912  -27.7845   22.4295 H   0  0  0  0  0  0
  -23.4211  -35.8452   23.2828 H   0  0  0  0  0  0
  -24.3752  -36.8675   22.2141 H   0  0  0  0  0  0
  -23.7088  -37.5268   23.7060 H   0  0  0  0  0  0
  -27.3456  -30.5450   21.9341 H   0  0  0  0  0  0
  -27.2340  -29.0746   22.8566 H   0  0  0  0  0  0
  -28.0028  -29.9777   20.1422 H   0  0  0  0  0  0
  -25.2671  -28.4802   17.5962 H   0  0  0  0  0  0
  -24.9508  -26.4593   18.8006 H   0  0  0  0  0  0
  -23.6908  -28.8568   19.8402 H   0  0  0  0  0  0
  -23.6268  -27.2275   20.3197 H   0  0  0  0  0  0
  -25.1620  -36.0617   25.0557 H   0  0  0  0  0  0
  -20.8956  -28.1650   23.9535 H   0  0  0  0  0  0
  -19.8359  -26.1681   23.4862 H   0  0  0  0  0  0
  -21.0541  -25.9789   22.3298 H   0  0  0  0  0  0
  -19.2926  -25.5052   21.0559 H   0  0  0  0  0  0
  -19.5687  -27.1874   20.6311 H   0  0  0  0  0  0
  -17.2119  -26.8904   21.2130 H   0  0  0  0  0  0
  -17.6112  -26.0794   22.7080 H   0  0  0  0  0  0
  -19.8962  -30.6412   24.1056 H   0  0  0  0  0  0
  -17.6555  -31.6174   24.5522 H   0  0  0  0  0  0
  -15.5912  -30.3975   23.8815 H   0  0  0  0  0  0
  -15.7720  -28.2076   22.7438 H   0  0  0  0  0  0
  -24.7066  -30.9379   25.8327 H   0  0  0  0  0  0
  -25.0772  -32.5168   26.4551 H   0  0  0  0  0  0
  -25.8308  -31.0858   27.1344 H   0  0  0  0  0  0
  -26.6255  -29.5245   24.8017 H   0  0  0  0  0  0
  -27.7967  -29.9760   25.9534 H   0  0  0  0  0  0
  -28.1567  -30.3397   24.3035 H   0  0  0  0  0  0
  -27.4117  -33.5241   26.1976 H   0  0  0  0  0  0
  -28.6386  -32.7081   25.2518 H   0  0  0  0  0  0
  -28.1444  -32.0758   26.8131 H   0  0  0  0  0  0
  -28.2177  -38.0313   24.7770 H   0  0  0  0  0  0
  -28.1499  -36.2819   24.5971 H   0  0  0  0  0  0
  -27.2322  -37.0788   25.8874 H   0  0  0  0  0  0
  -21.4382  -29.6220   21.6184 H   0  0  0  0  0  0
  -25.9690  -38.2176   24.1909 H   0  0  0  0  0  0
  -24.6312  -22.4345   22.2680 H   0  0  0  0  0  0
  -28.3729  -23.6071   23.6304 H   0  0  0  0  0  0
  -25.4983  -20.2801   21.7199 H   0  0  0  0  0  0
  -29.2534  -21.4206   23.0865 H   0  0  0  0  0  0
  -21.7098  -31.8662   21.6479 H   0  0  0  0  0  0
  -22.3206  -31.6121   20.0149 H   0  0  0  0  0  0
  -23.1781  -32.6957   21.1074 H   0  0  0  0  0  0
  -24.5306  -25.2131   22.7974 H   0  0  0  0  0  0
  -26.0918  -25.9001   22.5944 H   0  0  0  0  0  0
  -27.4330  -18.2829   20.8833 H   0  0  0  0  0  0
  -27.5731  -17.8743   22.5337 H   0  0  0  0  0  0
  -23.2664  -30.6618   24.4202 H   0  0  0  0  0  0
  -22.2567  -29.8102   23.9221 H   0  0  0  0  0  0
  -25.2071  -26.5553   25.3084 H   0  0  0  0  0  0
  -30.2239  -17.7243   21.3107 H   0  0  0  0  0  0
  1 25  1  0  0  0
  1 30  2  0  0  0
  1 83  1  0  0  0
  2  3  1  0  0  0
  2 25  1  0  0  0
  2 86  1  0  0  0
  2 87  1  0  0  0
  3  4  1  0  0  0
  3 88  1  0  0  0
  3 89  1  0  0  0
  4  5  1  0  0  0
  4 90  1  0  0  0
  4 91  1  0  0  0
  5  6  1  0  0  0
  5 26  1  0  0  0
  5 92  1  0  0  0
  6 25  1  0  0  0
  6 93  1  0  0  0
  6 94  1  0  0  0
  7  8  2  0  0  0
  7 26  1  0  0  0
  7 29  1  0  0  0
  8  9  1  0  0  0
  8 22  1  0  0  0
  9 10  1  0  0  0
  9 27  2  0  0  0
 10 11  2  0  0  0
 10 15  1  0  0  0
 11 12  1  0  0  0
 11 95  1  0  0  0
 12 13  2  0  0  0
 12 96  1  0  0  0
 13 14  1  0  0  0
 13 31  1  0  0  0
 14 15  2  0  0  0
 14 97  1  0  0  0
 15 98  1  0  0  0
 16 17  2  0  0  0
 16 21  1  0  0  0
 16 31  1  0  0  0
 17 18  1  0  0  0
 17 99  1  0  0  0
 18 19  2  0  0  0
 18100  1  0  0  0
 19 20  1  0  0  0
 19 24  1  0  0  0
 20 21  2  0  0  0
 20101  1  0  0  0
 21 23  1  0  0  0
 22 28  1  0  0  0
 22 32  2  0  0  0
 26 27  1  0  0  0
 28102  1  0  0  0
 28103  1  0  0  0
 29104  1  0  0  0
 29105  1  0  0  0
 33 34  1  0  0  0
 33 66  1  0  0  0
 33 70  2  0  0  0
 34 36  1  0  0  0
 34 59  1  0  0  0
 34106  1  0  0  0
 35 44  2  0  0  0
 35 45  1  0  0  0
 35 68  1  0  0  0
 36 56  1  0  0  0
 36107  1  0  0  0
 37 39  1  0  0  0
 37 47  1  0  0  0
 37 66  1  0  0  0
 37108  1  0  0  0
 38 43  2  0  0  0
 38 46  1  0  0  0
 38 47  1  0  0  0
 39 64  1  0  0  0
 39 67  2  0  0  0
 40 52  1  0  0  0
 40 53  2  0  0  0
 40 58  1  0  0  0
 41109  1  0  0  0
 41110  1  0  0  0
 41111  1  0  0  0
 41 48  1  0  0  0
 42 43  1  0  0  0
 42 66  1  0  0  0
 42112  1  0  0  0
 42113  1  0  0  0
 43 44  1  0  0  0
 44114  1  0  0  0
 45 46  2  0  0  0
 45115  1  0  0  0
 46116  1  0  0  0
 47117  1  0  0  0
 47118  1  0  0  0
 48 56  1  0  0  0
 48 65  1  0  0  0
 48119  1  0  0  0
 49 50  1  0  0  0
 49 53  1  0  0  0
 49 64  1  0  0  0
 49120  1  0  0  0
 50 51  1  0  0  0
 50121  1  0  0  0
 50122  1  0  0  0
 51 52  1  0  0  0
 51123  1  0  0  0
 51124  1  0  0  0
 52125  1  0  0  0
 52126  1  0  0  0
 53 54  1  0  0  0
 54 55  2  0  0  0
 54127  1  0  0  0
 55 57  1  0  0  0
 55128  1  0  0  0
 56 69  2  0  0  0
 57 58  2  0  0  0
 57129  1  0  0  0
 58130  1  0  0  0
 59 60  1  0  0  0
 59 61  1  0  0  0
 59 62  1  0  0  0
 60131  1  0  0  0
 60132  1  0  0  0
 60133  1  0  0  0
 61134  1  0  0  0
 61135  1  0  0  0
 61136  1  0  0  0
 62137  1  0  0  0
 62138  1  0  0  0
 62139  1  0  0  0
 63 65  1  0  0  0
 63140  1  0  0  0
 63141  1  0  0  0
 63142  1  0  0  0
 64143  1  0  0  0
 65144  1  0  0  0
 68 84  1  0  0  0
 71 73  2  0  0  0
 71 75  1  0  0  0
 71145  1  0  0  0
 72 74  1  0  0  0
 72 75  2  0  0  0
 72146  1  0  0  0
 73 76  1  0  0  0
 73147  1  0  0  0
 74 76  2  0  0  0
 74148  1  0  0  0
 75 79  1  0  0  0
 76 80  1  0  0  0
 77 81  1  0  0  0
 77 82  1  0  0  0
 77 85  2  0  0  0
 78 84  1  0  0  0
 78149  1  0  0  0
 78150  1  0  0  0
 78151  1  0  0  0
 79 82  1  0  0  0
 79152  1  0  0  0
 79153  1  0  0  0
 80 83  1  0  0  0
 80154  1  0  0  0
 80155  1  0  0  0
 81 84  1  0  0  0
 81156  1  0  0  0
 81157  1  0  0  0
 82158  1  0  0  0
 83159  1  0  0  0
M  ISO  4   1 100  68 101  83 100  84 101
M  END
> <chiral flag>
0

> <version>
0

> <s_m_source_file>
/data/baiqing/PycharmProjects/Reinvent-master-3.2/result/LINK_invent/BTK/process_docking_weight1_custom_product_contain_oxygen_bond_distance_aromatic_linkinvent_7_9_3/rearranged_h_0048.sdf

> <i_m_source_file_index>
32

> <r_mmod_Potential_Energy-OPLS-2005>
14963.6982421875

> <r_mmod_Stretch_Energy-OPLS-2005>
4129.04150390625

> <r_mmod_Bend_Energy-OPLS-2005>
2247.29541015625

> <r_mmod_Torsional_Energy-OPLS-2005>
656.670715332031

> <r_mmod_Improper_Torsional_Energy-OPLS-2005>
93.6704483032227

> <r_mmod_Van_der_Waal_Energy-OPLS-2005>
1780.001953125

> <r_mmod_Electrostatic_Energy-OPLS-2005>
-454.123565673828

> <r_mmod_Solvation_Energy-OPLS-2005>
-211.172729492188

> <b_mmod_Minimization_Converged-OPLS-2005>
0

> <r_mmod_RMS_Derivative-OPLS-2005>
3.67472910881042

$$$$
32
                    3D
 Structure written by MMmdl.
159168  0  0  1  0            999 V2000
  -30.6821  -14.4780   20.5925 C   0  0  0  0  0  0
  -30.4346  -12.3173   19.4156 C   0  0  0  0  0  0
  -29.4984  -12.5118   18.2041 C   0  0  0  0  0  0
  -28.0197  -12.3665   18.6167 C   0  0  0  0  0  0
  -27.6653  -13.1986   19.8776 C   0  0  2  0  0  0
  -28.7072  -12.9600   20.9944 C   0  0  0  0  0  0
  -25.2612  -13.8151   20.5665 C   0  0  0  0  0  0
  -24.1849  -13.0442   20.9170 C   0  0  0  0  0  0
  -24.6385  -11.6902   20.8727 C   0  0  0  0  0  0
  -23.9043  -10.4294   21.0393 C   0  0  0  0  0  0
  -24.3602   -9.4213   21.9173 C   0  0  0  0  0  0
  -23.6278   -8.2250   22.0750 C   0  0  0  0  0  0
  -22.4258   -8.0286   21.3543 C   0  0  0  0  0  0
  -21.9882   -9.0259   20.4649 C   0  0  0  0  0  0
  -22.7212  -10.2137   20.3053 C   0  0  0  0  0  0
  -21.6857   -6.0724   22.5273 C   0  0  0  0  0  0
  -21.4019   -6.5628   23.8202 C   0  0  0  0  0  0
  -21.3661   -5.6783   24.9170 C   0  0  0  0  0  0
  -21.6043   -4.3049   24.7226 C   0  0  0  0  0  0
  -21.8822   -3.8133   23.4346 C   0  0  0  0  0  0
  -21.9195   -4.6946   22.3400 C   0  0  0  0  0  0
  -22.7872  -13.5253   21.1831 C   0  0  0  0  0  0
  -22.1662   -4.2127   21.0977 F   0  0  0  0  0  0
  -21.5628   -3.4538   25.7744 F   0  0  0  0  0  0
  -30.0384  -13.2861   20.4489 N   0  0  0  0  0  0
  -26.3038  -12.9296   20.3357 N   0  0  0  0  0  0
  -25.9312  -11.6466   20.5755 N   0  0  0  0  0  0
  -22.0499  -12.8275   22.0398 N   0  0  0  0  0  0
  -25.4366  -15.1867   20.4063 N   0  0  0  0  0  0
  -31.7987  -14.6960   20.1116 O   0  0  0  0  0  0
  -21.6637   -6.8871   21.4236 O   0  0  0  0  0  0
  -22.3562  -14.5551   20.6661 O   0  0  0  0  0  0
  -24.6151  -31.8675   23.2094 C   0  0  0  0  0  0
  -25.9043  -32.4819   23.8390 C   0  0  1  0  0  0
  -27.2381  -27.4326   20.1060 C   0  0  0  0  0  0
  -25.5901  -33.8616   24.2329 N   0  0  0  0  0  0
  -23.4036  -30.4888   21.5500 C   0  0  2  0  0  0
  -24.8525  -28.9513   20.1180 C   0  0  0  0  0  0
  -22.7412  -29.4651   22.4999 C   0  0  0  0  0  0
  -18.0274  -28.1378   22.8495 C   0  0  0  0  0  0
  -24.1480  -36.7312   23.2635 C   0  0  0  0  0  0
  -25.9315  -30.8340   21.3609 C   0  0  0  0  0  0
  -26.0122  -29.4655   20.7133 C   0  0  0  0  0  0
  -27.2104  -28.7138   20.7033 C   0  0  0  0  0  0
  -26.0639  -26.9306   19.5076 C   0  0  0  0  0  0
  -24.8723  -27.6820   19.5125 C   0  0  0  0  0  0
  -23.6132  -29.8177   20.1657 C   0  0  0  0  0  0
  -25.4096  -36.3107   24.0342 C   0  0  1  0  0  0
  -20.5862  -28.3660   23.1324 C   0  0  2  0  0  0
  -20.6762  -26.9394   22.5425 C   0  0  0  0  0  0
  -19.5742  -26.6382   21.5217 C   0  0  0  0  0  0
  -18.1919  -26.7927   22.1622 C   0  0  0  0  0  0
  -19.1522  -28.8837   23.2906 C   0  0  0  0  0  0
  -18.9451  -30.1446   23.8916 C   0  0  0  0  0  0
  -17.6451  -30.6582   24.0572 C   0  0  0  0  0  0
  -25.9030  -34.9472   23.5131 C   0  0  0  0  0  0
  -16.5344  -29.9086   23.6326 C   0  0  0  0  0  0
  -16.7263  -28.6503   23.0347 C   0  0  0  0  0  0
  -26.4475  -31.6597   25.0714 C   0  0  0  0  0  0
  -25.3755  -31.3727   26.1486 C   0  0  0  0  0  0
  -27.0282  -30.3030   24.6082 C   0  0  0  0  0  0
  -27.6077  -32.4302   25.7451 C   0  0  0  0  0  0
  -27.5582  -37.1790   24.8455 C   0  0  0  0  0  0
  -21.4139  -29.3021   22.3727 N   0  0  0  0  0  0
  -26.4280  -37.3792   23.9423 N   0  0  0  0  0  0
  -24.6683  -31.0778   22.0992 N   0  0  0  0  0  0
  -23.4181  -28.8200   23.3046 O   0  0  0  0  0  0
  -28.3917  -26.6803   20.0807 O   0  0  0  0  0  0
  -26.5589  -34.8928   22.4691 O   0  0  0  0  0  0
  -23.5344  -32.1425   23.7493 O   0  0  0  0  0  0
  -29.0229  -19.0443   21.5608 C   0  0  0  0  0  0
  -28.9429  -17.6427   21.4012 C   0  0  0  0  0  0
  -31.3627  -17.5090   21.2486 C   0  0  0  0  0  0
  -30.2763  -19.6910   21.6017 C   0  0  0  0  0  0
  -30.1074  -16.8533   21.2557 C   0  0  0  0  0  0
  -31.4451  -18.9099   21.4246 C   0  0  0  0  0  0
  -29.1522  -24.4154   20.4285 C   0  0  0  0  0  0
  -29.0990  -23.2115   21.2933 C   0  0  0  0  0  0
  -28.3708  -25.4759   20.7529 C   0  0  0  0  0  0
  -30.0978  -24.4918   19.2334 C   0  0  0  0  0  0
  -31.2293  -23.4666   19.2971 C   0  0  0  0  0  0
  -30.6621  -22.1035   19.6929 C   0  0  0  0  0  0
  -30.3711  -21.1792   21.9763 C   0  0  0  0  0  0
  -29.9499  -22.1882   20.9736 N   0  0  0  0  0  0
  -29.9404  -15.4317   21.1947 N   0  0  0  0  0  0
  -28.3900  -23.1524   22.3046 O   0  0  0  0  0  0
  -32.6651  -19.4985   21.4623 F   0  0  0  0  0  0
  -31.4765  -12.4347   19.1119 H   0  0  0  0  0  0
  -30.3520  -11.3014   19.8044 H   0  0  0  0  0  0
  -29.7392  -11.7890   17.4233 H   0  0  0  0  0  0
  -29.6623  -13.4994   17.7687 H   0  0  0  0  0  0
  -27.8314  -11.3091   18.8071 H   0  0  0  0  0  0
  -27.3693  -12.6464   17.7874 H   0  0  0  0  0  0
  -27.7156  -14.2484   19.5893 H   0  0  0  0  0  0
  -28.6912  -11.9155   21.3076 H   0  0  0  0  0  0
  -28.4588  -13.5283   21.8919 H   0  0  0  0  0  0
  -25.2747   -9.5692   22.4743 H   0  0  0  0  0  0
  -23.9985   -7.4645   22.7475 H   0  0  0  0  0  0
  -21.0802   -8.8788   19.8965 H   0  0  0  0  0  0
  -22.3664  -10.9682   19.6168 H   0  0  0  0  0  0
  -21.2015   -7.6136   23.9703 H   0  0  0  0  0  0
  -21.1476   -6.0514   25.9069 H   0  0  0  0  0  0
  -22.0597   -2.7594   23.2862 H   0  0  0  0  0  0
  -22.4099  -11.9951   22.4825 H   0  0  0  0  0  0
  -21.1120  -13.1329   22.2582 H   0  0  0  0  0  0
  -24.6716  -15.8446   20.5114 H   0  0  0  0  0  0
  -26.2810  -15.6173   20.0514 H   0  0  0  0  0  0
  -26.7117  -32.5540   23.1162 H   0  0  0  0  0  0
  -25.0062  -33.9773   25.0483 H   0  0  0  0  0  0
  -22.6912  -31.3044   21.4094 H   0  0  0  0  0  0
  -23.3740  -35.9645   23.3290 H   0  0  0  0  0  0
  -24.3585  -36.8930   22.2051 H   0  0  0  0  0  0
  -23.7230  -37.6517   23.6650 H   0  0  0  0  0  0
  -26.0387  -31.5970   20.5887 H   0  0  0  0  0  0
  -26.8211  -30.8938   21.9758 H   0  0  0  0  0  0
  -28.1085  -29.1057   21.1595 H   0  0  0  0  0  0
  -26.0751  -25.9576   19.0374 H   0  0  0  0  0  0
  -23.9812  -27.2793   19.0506 H   0  0  0  0  0  0
  -23.7206  -30.5913   19.4046 H   0  0  0  0  0  0
  -22.7372  -29.2367   19.8710 H   0  0  0  0  0  0
  -25.1263  -36.1968   25.0832 H   0  0  0  0  0  0
  -20.9951  -28.3231   24.1447 H   0  0  0  0  0  0
  -20.5660  -26.2263   23.3608 H   0  0  0  0  0  0
  -21.6638  -26.7433   22.1224 H   0  0  0  0  0  0
  -19.6899  -25.6300   21.1229 H   0  0  0  0  0  0
  -19.6682  -27.3208   20.6759 H   0  0  0  0  0  0
  -17.4187  -26.6683   21.4024 H   0  0  0  0  0  0
  -18.0311  -26.0065   22.9011 H   0  0  0  0  0  0
  -19.7926  -30.7262   24.2284 H   0  0  0  0  0  0
  -17.5006  -31.6261   24.5174 H   0  0  0  0  0  0
  -15.5347  -30.2993   23.7641 H   0  0  0  0  0  0
  -15.8662  -28.0831   22.7048 H   0  0  0  0  0  0
  -24.5898  -30.7099   25.7845 H   0  0  0  0  0  0
  -24.8990  -32.2899   26.4957 H   0  0  0  0  0  0
  -25.8119  -30.8881   27.0228 H   0  0  0  0  0  0
  -26.2801  -29.6792   24.1174 H   0  0  0  0  0  0
  -27.4086  -29.7270   25.4529 H   0  0  0  0  0  0
  -27.8627  -30.4337   23.9189 H   0  0  0  0  0  0
  -27.2722  -33.3591   26.2071 H   0  0  0  0  0  0
  -28.3850  -32.6874   25.0245 H   0  0  0  0  0  0
  -28.0782  -31.8399   26.5324 H   0  0  0  0  0  0
  -28.2591  -38.0098   24.7538 H   0  0  0  0  0  0
  -28.1086  -36.2640   24.6219 H   0  0  0  0  0  0
  -27.2321  -37.1372   25.8862 H   0  0  0  0  0  0
  -20.9295  -29.8736   21.6947 H   0  0  0  0  0  0
  -26.0172  -38.2861   24.1465 H   0  0  0  0  0  0
  -28.1169  -19.6156   21.7057 H   0  0  0  0  0  0
  -27.9678  -17.1752   21.4164 H   0  0  0  0  0  0
  -32.2811  -16.9489   21.1540 H   0  0  0  0  0  0
  -27.6900  -25.4872   21.5956 H   0  0  0  0  0  0
  -30.5133  -25.4969   19.1453 H   0  0  0  0  0  0
  -29.5043  -24.3206   18.3347 H   0  0  0  0  0  0
  -31.9764  -23.7815   20.0283 H   0  0  0  0  0  0
  -31.7419  -23.4052   18.3364 H   0  0  0  0  0  0
  -31.4738  -21.3759   19.7367 H   0  0  0  0  0  0
  -29.9666  -21.7455   18.9320 H   0  0  0  0  0  0
  -31.4020  -21.4109   22.2462 H   0  0  0  0  0  0
  -29.8244  -21.2915   22.9134 H   0  0  0  0  0  0
  -29.0435  -15.0908   21.5043 H   0  0  0  0  0  0
  1 25  1  0  0  0
  1 30  2  0  0  0
  1 85  1  0  0  0
  2  3  1  0  0  0
  2 25  1  0  0  0
  2 88  1  0  0  0
  2 89  1  0  0  0
  3  4  1  0  0  0
  3 90  1  0  0  0
  3 91  1  0  0  0
  4  5  1  0  0  0
  4 92  1  0  0  0
  4 93  1  0  0  0
  5  6  1  0  0  0
  5 26  1  0  0  0
  5 94  1  0  0  0
  6 25  1  0  0  0
  6 95  1  0  0  0
  6 96  1  0  0  0
  7  8  2  0  0  0
  7 26  1  0  0  0
  7 29  1  0  0  0
  8  9  1  0  0  0
  8 22  1  0  0  0
  9 10  1  0  0  0
  9 27  2  0  0  0
 10 11  2  0  0  0
 10 15  1  0  0  0
 11 12  1  0  0  0
 11 97  1  0  0  0
 12 13  2  0  0  0
 12 98  1  0  0  0
 13 14  1  0  0  0
 13 31  1  0  0  0
 14 15  2  0  0  0
 14 99  1  0  0  0
 15100  1  0  0  0
 16 17  2  0  0  0
 16 21  1  0  0  0
 16 31  1  0  0  0
 17 18  1  0  0  0
 17101  1  0  0  0
 18 19  2  0  0  0
 18102  1  0  0  0
 19 20  1  0  0  0
 19 24  1  0  0  0
 20 21  2  0  0  0
 20103  1  0  0  0
 21 23  1  0  0  0
 22 28  1  0  0  0
 22 32  2  0  0  0
 26 27  1  0  0  0
 28104  1  0  0  0
 28105  1  0  0  0
 29106  1  0  0  0
 29107  1  0  0  0
 33 34  1  0  0  0
 33 66  1  0  0  0
 33 70  2  0  0  0
 34 36  1  0  0  0
 34 59  1  0  0  0
 34108  1  0  0  0
 35 44  2  0  0  0
 35 45  1  0  0  0
 35 68  1  0  0  0
 36 56  1  0  0  0
 36109  1  0  0  0
 37 39  1  0  0  0
 37 47  1  0  0  0
 37 66  1  0  0  0
 37110  1  0  0  0
 38 43  2  0  0  0
 38 46  1  0  0  0
 38 47  1  0  0  0
 39 64  1  0  0  0
 39 67  2  0  0  0
 40 52  1  0  0  0
 40 53  2  0  0  0
 40 58  1  0  0  0
 41111  1  0  0  0
 41112  1  0  0  0
 41113  1  0  0  0
 41 48  1  0  0  0
 42 43  1  0  0  0
 42 66  1  0  0  0
 42114  1  0  0  0
 42115  1  0  0  0
 43 44  1  0  0  0
 44116  1  0  0  0
 45 46  2  0  0  0
 45117  1  0  0  0
 46118  1  0  0  0
 47119  1  0  0  0
 47120  1  0  0  0
 48 56  1  0  0  0
 48 65  1  0  0  0
 48121  1  0  0  0
 49 50  1  0  0  0
 49 53  1  0  0  0
 49 64  1  0  0  0
 49122  1  0  0  0
 50 51  1  0  0  0
 50123  1  0  0  0
 50124  1  0  0  0
 51 52  1  0  0  0
 51125  1  0  0  0
 51126  1  0  0  0
 52127  1  0  0  0
 52128  1  0  0  0
 53 54  1  0  0  0
 54 55  2  0  0  0
 54129  1  0  0  0
 55 57  1  0  0  0
 55130  1  0  0  0
 56 69  2  0  0  0
 57 58  2  0  0  0
 57131  1  0  0  0
 58132  1  0  0  0
 59 60  1  0  0  0
 59 61  1  0  0  0
 59 62  1  0  0  0
 60133  1  0  0  0
 60134  1  0  0  0
 60135  1  0  0  0
 61136  1  0  0  0
 61137  1  0  0  0
 61138  1  0  0  0
 62139  1  0  0  0
 62140  1  0  0  0
 62141  1  0  0  0
 63 65  1  0  0  0
 63142  1  0  0  0
 63143  1  0  0  0
 63144  1  0  0  0
 64145  1  0  0  0
 65146  1  0  0  0
 68 79  1  0  0  0
 71 72  2  0  0  0
 71 74  1  0  0  0
 71147  1  0  0  0
 72 75  1  0  0  0
 72148  1  0  0  0
 73 75  2  0  0  0
 73 76  1  0  0  0
 73149  1  0  0  0
 74 76  2  0  0  0
 74 83  1  0  0  0
 75 85  1  0  0  0
 76 87  1  0  0  0
 77 78  1  0  0  0
 77 79  2  0  0  0
 77 80  1  0  0  0
 78 84  1  0  0  0
 78 86  2  0  0  0
 79150  1  0  0  0
 80 81  1  0  0  0
 80151  1  0  0  0
 80152  1  0  0  0
 81 82  1  0  0  0
 81153  1  0  0  0
 81154  1  0  0  0
 82 84  1  0  0  0
 82155  1  0  0  0
 82156  1  0  0  0
 83 84  1  0  0  0
 83157  1  0  0  0
 83158  1  0  0  0
 85159  1  0  0  0
M  ISO  4   1 100  68 101  79 101  85 100
M  END
> <chiral flag>
0

> <version>
0

> <s_m_source_file>
/data/baiqing/PycharmProjects/Reinvent-master-3.2/result/LINK_invent/BTK/process_docking_weight1_custom_product_contain_oxygen_bond_distance_aromatic_linkinvent_7_9_3/rearranged_h_0048.sdf

> <i_m_source_file_index>
33

> <r_mmod_Potential_Energy-OPLS-2005>
27.5318737030029

> <r_mmod_Stretch_Energy-OPLS-2005>
44.1711730957031

> <r_mmod_Bend_Energy-OPLS-2005>
105.528747558594

> <r_mmod_Torsional_Energy-OPLS-2005>
252.817962646484

> <r_mmod_Improper_Torsional_Energy-OPLS-2005>
4.77807760238647

> <r_mmod_Van_der_Waal_Energy-OPLS-2005>
166.650192260742

> <r_mmod_Electrostatic_Energy-OPLS-2005>
-346.678436279297

> <r_mmod_Solvation_Energy-OPLS-2005>
-211.978179931641

> <b_mmod_Minimization_Converged-OPLS-2005>
0

> <r_mmod_RMS_Derivative-OPLS-2005>
1.13913404941559

$$$$
33
                    3D
 Structure written by MMmdl.
157165  0  0  1  0            999 V2000
  -30.7190  -14.4580   20.4575 C   0  0  0  0  0  0
  -30.4162  -12.2727   19.4138 C   0  0  0  0  0  0
  -29.4882  -12.4681   18.1968 C   0  0  0  0  0  0
  -28.0063  -12.3564   18.6148 C   0  0  0  0  0  0
  -27.6584  -13.2089   19.8655 C   0  0  2  0  0  0
  -28.7126  -13.0255   20.9803 C   0  0  0  0  0  0
  -25.2624  -13.8168   20.5746 C   0  0  0  0  0  0
  -24.1864  -13.0466   20.9236 C   0  0  0  0  0  0
  -24.6411  -11.6915   20.8785 C   0  0  0  0  0  0
  -23.9053  -10.4308   21.0423 C   0  0  0  0  0  0
  -24.3618   -9.4229   21.9200 C   0  0  0  0  0  0
  -23.6297   -8.2270   22.0776 C   0  0  0  0  0  0
  -22.4272   -8.0308   21.3577 C   0  0  0  0  0  0
  -21.9914   -9.0271   20.4673 C   0  0  0  0  0  0
  -22.7234  -10.2154   20.3066 C   0  0  0  0  0  0
  -21.6840   -6.0750   22.5275 C   0  0  0  0  0  0
  -21.4015   -6.5649   23.8215 C   0  0  0  0  0  0
  -21.3656   -5.6803   24.9179 C   0  0  0  0  0  0
  -21.6032   -4.3063   24.7225 C   0  0  0  0  0  0
  -21.8804   -3.8155   23.4344 C   0  0  0  0  0  0
  -21.9209   -4.6981   22.3404 C   0  0  0  0  0  0
  -22.7871  -13.5273   21.1824 C   0  0  0  0  0  0
  -22.1663   -4.2164   21.0985 F   0  0  0  0  0  0
  -21.5633   -3.4545   25.7740 F   0  0  0  0  0  0
  -30.0404  -13.2858   20.4037 N   0  0  0  0  0  0
  -26.3057  -12.9355   20.3408 N   0  0  0  0  0  0
  -25.9351  -11.6504   20.5829 N   0  0  0  0  0  0
  -22.0436  -12.8327   22.0392 N   0  0  0  0  0  0
  -25.4281  -15.1889   20.4162 N   0  0  0  0  0  0
  -31.9117  -14.5773   20.1759 O   0  0  0  0  0  0
  -21.6638   -6.8904   21.4246 O   0  0  0  0  0  0
  -22.3611  -14.5548   20.6593 O   0  0  0  0  0  0
  -24.6194  -31.8673   23.2083 C   0  0  0  0  0  0
  -25.9068  -32.4818   23.8406 C   0  0  1  0  0  0
  -27.2510  -27.4249   20.0849 C   0  0  0  0  0  0
  -25.5926  -33.8615   24.2348 N   0  0  0  0  0  0
  -23.4100  -30.4911   21.5445 C   0  0  2  0  0  0
  -24.8598  -28.9502   20.1142 C   0  0  0  0  0  0
  -22.7416  -29.4718   22.4940 C   0  0  0  0  0  0
  -18.0293  -28.1356   22.8445 C   0  0  0  0  0  0
  -24.1491  -36.7322   23.2633 C   0  0  0  0  0  0
  -25.9378  -30.8213   21.3667 C   0  0  0  0  0  0
  -26.0140  -29.4500   20.7269 C   0  0  0  0  0  0
  -27.2038  -28.6856   20.7251 C   0  0  0  0  0  0
  -26.0785  -26.9535   19.4463 C   0  0  0  0  0  0
  -24.8854  -27.7012   19.4738 C   0  0  0  0  0  0
  -23.6226  -29.8176   20.1614 C   0  0  0  0  0  0
  -25.4111  -36.3114   24.0333 C   0  0  1  0  0  0
  -20.5885  -28.3640   23.1045 C   0  0  2  0  0  0
  -20.6951  -26.9466   22.4915 C   0  0  0  0  0  0
  -19.5599  -26.6026   21.5180 C   0  0  0  0  0  0
  -18.1940  -26.7770   22.1880 C   0  0  0  0  0  0
  -19.1546  -28.8806   23.2740 C   0  0  0  0  0  0
  -18.9503  -30.1415   23.8756 C   0  0  0  0  0  0
  -17.6487  -30.6520   24.0536 C   0  0  0  0  0  0
  -25.9027  -34.9478   23.5137 C   0  0  0  0  0  0
  -16.5361  -29.9024   23.6359 C   0  0  0  0  0  0
  -16.7288  -28.6443   23.0377 C   0  0  0  0  0  0
  -26.4510  -31.6593   25.0729 C   0  0  0  0  0  0
  -25.3763  -31.3695   26.1458 C   0  0  0  0  0  0
  -27.0336  -30.3038   24.6090 C   0  0  0  0  0  0
  -27.6085  -32.4306   25.7504 C   0  0  0  0  0  0
  -27.5581  -37.1829   24.8475 C   0  0  0  0  0  0
  -21.4144  -29.3168   22.3640 N   0  0  0  0  0  0
  -26.4308  -37.3786   23.9401 N   0  0  0  0  0  0
  -24.6730  -31.0758   22.0990 N   0  0  0  0  0  0
  -23.4161  -28.8265   23.3001 O   0  0  0  0  0  0
  -28.4309  -26.7026   20.1472 O   0  0  0  0  0  0
  -26.5563  -34.8913   22.4689 O   0  0  0  0  0  0
  -23.5370  -32.1431   23.7457 O   0  0  0  0  0  0
  -29.4009  -16.1617   22.5877 C   0  0  0  0  0  0
  -28.8163  -17.0962   23.4621 C   0  0  0  0  0  0
  -28.9162  -17.6456   20.7077 C   0  0  0  0  0  0
  -28.2980  -18.5648   21.5755 C   0  0  0  0  0  0
  -29.4348  -16.4319   21.2014 C   0  0  0  0  0  0
  -28.2423  -18.2846   22.9639 C   0  0  0  0  0  0
  -28.5707  -23.0820   19.5266 C   0  0  0  0  0  0
  -28.0077  -24.3061   19.5252 C   0  0  0  0  0  0
  -27.6267  -19.7129   20.9728 C   0  0  0  0  0  0
  -27.7273  -21.8184   19.6119 C   0  0  0  0  0  0
  -28.7020  -25.6370   19.2259 C   0  0  0  0  0  0
  -26.2992  -19.6876   20.8630 N   0  0  0  0  0  0
  -29.9407  -15.5233   20.2452 N   0  0  0  0  0  0
  -28.3127  -20.7528   20.4534 N   0  3  0  0  0  0
  -27.4669  -19.3549   24.0782 Cl  0  0  0  0  0  0
  -31.4594  -12.3478   19.1049 H   0  0  0  0  0  0
  -30.2967  -11.2755   19.8365 H   0  0  0  0  0  0
  -29.7133  -11.7235   17.4317 H   0  0  0  0  0  0
  -29.6705  -13.4406   17.7367 H   0  0  0  0  0  0
  -27.7963  -11.3031   18.8131 H   0  0  0  0  0  0
  -27.3605  -12.6400   17.7833 H   0  0  0  0  0  0
  -27.6824  -14.2528   19.5543 H   0  0  0  0  0  0
  -28.6871  -12.0086   21.3737 H   0  0  0  0  0  0
  -28.4909  -13.6837   21.8198 H   0  0  0  0  0  0
  -25.2745   -9.5713   22.4816 H   0  0  0  0  0  0
  -23.9973   -7.4662   22.7494 H   0  0  0  0  0  0
  -21.0856   -8.8820   19.8970 H   0  0  0  0  0  0
  -22.3695  -10.9726   19.6201 H   0  0  0  0  0  0
  -21.1984   -7.6150   23.9728 H   0  0  0  0  0  0
  -21.1484   -6.0526   25.9087 H   0  0  0  0  0  0
  -22.0584   -2.7616   23.2840 H   0  0  0  0  0  0
  -22.3991  -12.0030   22.4899 H   0  0  0  0  0  0
  -21.1040  -13.1403   22.2433 H   0  0  0  0  0  0
  -24.6424  -15.8238   20.4975 H   0  0  0  0  0  0
  -26.2754  -15.6373   20.0930 H   0  0  0  0  0  0
  -26.7129  -32.5546   23.1162 H   0  0  0  0  0  0
  -25.0162  -33.9794   25.0547 H   0  0  0  0  0  0
  -22.7033  -31.3093   21.3959 H   0  0  0  0  0  0
  -23.3728  -35.9676   23.3306 H   0  0  0  0  0  0
  -24.3581  -36.8922   22.2047 H   0  0  0  0  0  0
  -23.7270  -37.6545   23.6627 H   0  0  0  0  0  0
  -26.0443  -31.5751   20.5839 H   0  0  0  0  0  0
  -26.8299  -30.8893   21.9770 H   0  0  0  0  0  0
  -28.0898  -29.0624   21.2196 H   0  0  0  0  0  0
  -26.0593  -26.0185   18.9133 H   0  0  0  0  0  0
  -24.0026  -27.3195   18.9766 H   0  0  0  0  0  0
  -23.7373  -30.5872   19.3963 H   0  0  0  0  0  0
  -22.7496  -29.2326   19.8651 H   0  0  0  0  0  0
  -25.1285  -36.1973   25.0818 H   0  0  0  0  0  0
  -20.9997  -28.3114   24.1148 H   0  0  0  0  0  0
  -20.6514  -26.2207   23.3062 H   0  0  0  0  0  0
  -21.6670  -26.7927   22.0162 H   0  0  0  0  0  0
  -19.6611  -25.5682   21.1870 H   0  0  0  0  0  0
  -19.6296  -27.2199   20.6225 H   0  0  0  0  0  0
  -17.3914  -26.6125   21.4673 H   0  0  0  0  0  0
  -18.0714  -26.0196   22.9635 H   0  0  0  0  0  0
  -19.7989  -30.7236   24.2065 H   0  0  0  0  0  0
  -17.5057  -31.6097   24.5294 H   0  0  0  0  0  0
  -15.5356  -30.2838   23.7829 H   0  0  0  0  0  0
  -15.8668  -28.0734   22.7173 H   0  0  0  0  0  0
  -24.5948  -30.7031   25.7795 H   0  0  0  0  0  0
  -24.8933  -32.2846   26.4892 H   0  0  0  0  0  0
  -25.8103  -30.8881   27.0225 H   0  0  0  0  0  0
  -26.2882  -29.6789   24.1146 H   0  0  0  0  0  0
  -27.4136  -29.7278   25.4541 H   0  0  0  0  0  0
  -27.8701  -30.4372   23.9217 H   0  0  0  0  0  0
  -27.2716  -33.3598   26.2105 H   0  0  0  0  0  0
  -28.3894  -32.6875   25.0336 H   0  0  0  0  0  0
  -28.0743  -31.8403   26.5404 H   0  0  0  0  0  0
  -28.2621  -38.0105   24.7481 H   0  0  0  0  0  0
  -28.1052  -36.2637   24.6334 H   0  0  0  0  0  0
  -27.2290  -37.1516   25.8877 H   0  0  0  0  0  0
  -20.9363  -29.8873   21.6785 H   0  0  0  0  0  0
  -26.0188  -38.2865   24.1358 H   0  0  0  0  0  0
  -29.7973  -15.2418   22.9892 H   0  0  0  0  0  0
  -28.7791  -16.8804   24.5177 H   0  0  0  0  0  0
  -28.9336  -17.8533   19.6464 H   0  0  0  0  0  0
  -29.6381  -22.9625   19.3991 H   0  0  0  0  0  0
  -26.9428  -24.3468   19.6926 H   0  0  0  0  0  0
  -27.6122  -21.4381   18.5936 H   0  0  0  0  0  0
  -26.7272  -22.0808   19.9607 H   0  0  0  0  0  0
  -28.4411  -25.9577   18.2157 H   0  0  0  0  0  0
  -29.7795  -25.4681   19.2225 H   0  0  0  0  0  0
  -25.7928  -18.8741   21.1766 H   0  0  0  0  0  0
  -25.7743  -20.4299   20.4324 H   0  0  0  0  0  0
  -30.1838  -15.9723   19.3748 H   0  0  0  0  0  0
  -29.3174  -20.7414   20.5729 H   0  0  0  0  0  0
  1 25  1  0  0  0
  1 30  2  0  0  0
  1 83  1  0  0  0
  2  3  1  0  0  0
  2 25  1  0  0  0
  2 86  1  0  0  0
  2 87  1  0  0  0
  3  4  1  0  0  0
  3 88  1  0  0  0
  3 89  1  0  0  0
  4  5  1  0  0  0
  4 90  1  0  0  0
  4 91  1  0  0  0
  5  6  1  0  0  0
  5 26  1  0  0  0
  5 92  1  0  0  0
  6 25  1  0  0  0
  6 93  1  0  0  0
  6 94  1  0  0  0
  7  8  2  0  0  0
  7 26  1  0  0  0
  7 29  1  0  0  0
  8  9  1  0  0  0
  8 22  1  0  0  0
  9 10  1  0  0  0
  9 27  2  0  0  0
 10 11  2  0  0  0
 10 15  1  0  0  0
 11 12  1  0  0  0
 11 95  1  0  0  0
 12 13  2  0  0  0
 12 96  1  0  0  0
 13 14  1  0  0  0
 13 31  1  0  0  0
 14 15  2  0  0  0
 14 97  1  0  0  0
 15 98  1  0  0  0
 16 17  2  0  0  0
 16 21  1  0  0  0
 16 31  1  0  0  0
 17 18  1  0  0  0
 17 99  1  0  0  0
 18 19  2  0  0  0
 18100  1  0  0  0
 19 20  1  0  0  0
 19 24  1  0  0  0
 20 21  2  0  0  0
 20101  1  0  0  0
 21 23  1  0  0  0
 22 28  1  0  0  0
 22 32  2  0  0  0
 26 27  1  0  0  0
 28102  1  0  0  0
 28103  1  0  0  0
 29104  1  0  0  0
 29105  1  0  0  0
 33 34  1  0  0  0
 33 66  1  0  0  0
 33 70  2  0  0  0
 34 36  1  0  0  0
 34 59  1  0  0  0
 34106  1  0  0  0
 35 44  2  0  0  0
 35 45  1  0  0  0
 35 68  1  0  0  0
 36 56  1  0  0  0
 36107  1  0  0  0
 37 39  1  0  0  0
 37 47  1  0  0  0
 37 66  1  0  0  0
 37108  1  0  0  0
 38 43  2  0  0  0
 38 46  1  0  0  0
 38 47  1  0  0  0
 39 64  1  0  0  0
 39 67  2  0  0  0
 40 52  1  0  0  0
 40 53  2  0  0  0
 40 58  1  0  0  0
 41109  1  0  0  0
 41110  1  0  0  0
 41111  1  0  0  0
 41 48  1  0  0  0
 42 43  1  0  0  0
 42 66  1  0  0  0
 42112  1  0  0  0
 42113  1  0  0  0
 43 44  1  0  0  0
 44114  1  0  0  0
 45 46  2  0  0  0
 45115  1  0  0  0
 46116  1  0  0  0
 47117  1  0  0  0
 47118  1  0  0  0
 48 56  1  0  0  0
 48 65  1  0  0  0
 48119  1  0  0  0
 49 50  1  0  0  0
 49 53  1  0  0  0
 49 64  1  0  0  0
 49120  1  0  0  0
 50 51  1  0  0  0
 50121  1  0  0  0
 50122  1  0  0  0
 51 52  1  0  0  0
 51123  1  0  0  0
 51124  1  0  0  0
 52125  1  0  0  0
 52126  1  0  0  0
 53 54  1  0  0  0
 54 55  2  0  0  0
 54127  1  0  0  0
 55 57  1  0  0  0
 55128  1  0  0  0
 56 69  2  0  0  0
 57 58  2  0  0  0
 57129  1  0  0  0
 58130  1  0  0  0
 59 60  1  0  0  0
 59 61  1  0  0  0
 59 62  1  0  0  0
 60131  1  0  0  0
 60132  1  0  0  0
 60133  1  0  0  0
 61134  1  0  0  0
 61135  1  0  0  0
 61136  1  0  0  0
 62137  1  0  0  0
 62138  1  0  0  0
 62139  1  0  0  0
 63 65  1  0  0  0
 63140  1  0  0  0
 63141  1  0  0  0
 63142  1  0  0  0
 64143  1  0  0  0
 65144  1  0  0  0
 68 81  1  0  0  0
 71 72  2  0  0  0
 71 75  1  0  0  0
 71145  1  0  0  0
 72 76  1  0  0  0
 72146  1  0  0  0
 73 74  1  0  0  0
 73 75  2  0  0  0
 73147  1  0  0  0
 74 76  2  0  0  0
 74 79  1  0  0  0
 75 83  1  0  0  0
 76 85  1  0  0  0
 77 78  2  0  0  0
 77 80  1  0  0  0
 77148  1  0  0  0
 78 81  1  0  0  0
 78149  1  0  0  0
 79 82  1  0  0  0
 79 84  2  0  0  0
 80 84  1  0  0  0
 80150  1  0  0  0
 80151  1  0  0  0
 81152  1  0  0  0
 81153  1  0  0  0
 82154  1  0  0  0
 82155  1  0  0  0
 83156  1  0  0  0
 84157  1  0  0  0
M  CHG  1  84   1
M  ISO  4   1 100  68 101  81 101  83 100
M  END
> <chiral flag>
0

> <version>
0

> <s_m_source_file>
/data/baiqing/PycharmProjects/Reinvent-master-3.2/result/LINK_invent/BTK/process_docking_weight1_custom_product_contain_oxygen_bond_distance_aromatic_linkinvent_7_9_3/rearranged_h_0048.sdf

> <i_m_source_file_index>
34

> <r_mmod_Potential_Energy-OPLS-2005>
-192.512756347656

> <r_mmod_Stretch_Energy-OPLS-2005>
33.2190399169922

> <r_mmod_Bend_Energy-OPLS-2005>
114.535514831543

> <r_mmod_Torsional_Energy-OPLS-2005>
274.106140136719

> <r_mmod_Improper_Torsional_Energy-OPLS-2005>
24.5448722839355

> <r_mmod_Van_der_Waal_Energy-OPLS-2005>
150.791412353516

> <r_mmod_Electrostatic_Energy-OPLS-2005>
-382.390930175781

> <r_mmod_Solvation_Energy-OPLS-2005>
-429.755767822266

> <b_mmod_Minimization_Converged-OPLS-2005>
0

> <r_mmod_RMS_Derivative-OPLS-2005>
5.75818681716919

$$$$
34
                    3D
 Structure written by MMmdl.
174183  0  0  1  0            999 V2000
  -30.7024  -14.4614   20.5160 C   0  0  0  0  0  0
  -30.4119  -12.2816   19.4268 C   0  0  0  0  0  0
  -29.4990  -12.5060   18.2025 C   0  0  0  0  0  0
  -28.0159  -12.3842   18.6067 C   0  0  0  0  0  0
  -27.6595  -13.2174   19.8687 C   0  0  2  0  0  0
  -28.6999  -13.0072   20.9938 C   0  0  0  0  0  0
  -25.2587  -13.8202   20.5666 C   0  0  0  0  0  0
  -24.1853  -13.0463   20.9197 C   0  0  0  0  0  0
  -24.6398  -11.6926   20.8709 C   0  0  0  0  0  0
  -23.9082  -10.4299   21.0363 C   0  0  0  0  0  0
  -24.3632   -9.4221   21.9158 C   0  0  0  0  0  0
  -23.6301   -8.2261   22.0745 C   0  0  0  0  0  0
  -22.4267   -8.0299   21.3548 C   0  0  0  0  0  0
  -21.9903   -9.0277   20.4648 C   0  0  0  0  0  0
  -22.7243  -10.2148   20.3026 C   0  0  0  0  0  0
  -21.6858   -6.0739   22.5276 C   0  0  0  0  0  0
  -21.4028   -6.5628   23.8214 C   0  0  0  0  0  0
  -21.3666   -5.6780   24.9175 C   0  0  0  0  0  0
  -21.6037   -4.3044   24.7222 C   0  0  0  0  0  0
  -21.8838   -3.8145   23.4342 C   0  0  0  0  0  0
  -21.9176   -4.6958   22.3400 C   0  0  0  0  0  0
  -22.7859  -13.5254   21.1854 C   0  0  0  0  0  0
  -22.1663   -4.2149   21.0978 F   0  0  0  0  0  0
  -21.5614   -3.4528   25.7736 F   0  0  0  0  0  0
  -30.0336  -13.2836   20.4361 N   0  0  0  0  0  0
  -26.3016  -12.9380   20.3331 N   0  0  0  0  0  0
  -25.9322  -11.6531   20.5706 N   0  0  0  0  0  0
  -22.0469  -12.8300   22.0408 N   0  0  0  0  0  0
  -25.4281  -15.1936   20.4056 N   0  0  0  0  0  0
  -31.8776  -14.5760   20.1508 O   0  0  0  0  0  0
  -21.6644   -6.8887   21.4230 O   0  0  0  0  0  0
  -22.3537  -14.5522   20.6634 O   0  0  0  0  0  0
  -24.6123  -31.8698   23.2107 C   0  0  0  0  0  0
  -25.9010  -32.4844   23.8403 C   0  0  1  0  0  0
  -27.2106  -27.4080   20.1155 C   0  0  0  0  0  0
  -25.5875  -33.8631   24.2354 N   0  0  0  0  0  0
  -23.4027  -30.4938   21.5515 C   0  0  2  0  0  0
  -24.8480  -28.9643   20.1126 C   0  0  0  0  0  0
  -22.7394  -29.4660   22.4973 C   0  0  0  0  0  0
  -18.0287  -28.1375   22.8510 C   0  0  0  0  0  0
  -24.1485  -36.7320   23.2646 C   0  0  0  0  0  0
  -25.9341  -30.8266   21.3722 C   0  0  0  0  0  0
  -26.0105  -29.4602   20.7214 C   0  0  0  0  0  0
  -27.1978  -28.6878   20.7248 C   0  0  0  0  0  0
  -26.0452  -26.9501   19.4694 C   0  0  0  0  0  0
  -24.8638  -27.7089   19.4808 C   0  0  0  0  0  0
  -23.6140  -29.8333   20.1642 C   0  0  0  0  0  0
  -25.4114  -36.3128   24.0346 C   0  0  1  0  0  0
  -20.5875  -28.3686   23.1310 C   0  0  2  0  0  0
  -20.6769  -26.9410   22.5429 C   0  0  0  0  0  0
  -19.5746  -26.6384   21.5228 C   0  0  0  0  0  0
  -18.1929  -26.7916   22.1633 C   0  0  0  0  0  0
  -19.1539  -28.8843   23.2917 C   0  0  0  0  0  0
  -18.9454  -30.1446   23.8936 C   0  0  0  0  0  0
  -17.6458  -30.6589   24.0566 C   0  0  0  0  0  0
  -25.9032  -34.9484   23.5144 C   0  0  0  0  0  0
  -16.5355  -29.9085   23.6326 C   0  0  0  0  0  0
  -16.7274  -28.6489   23.0374 C   0  0  0  0  0  0
  -26.4440  -31.6609   25.0723 C   0  0  0  0  0  0
  -25.3677  -31.3713   26.1454 C   0  0  0  0  0  0
  -27.0300  -30.3048   24.6127 C   0  0  0  0  0  0
  -27.6047  -32.4299   25.7480 C   0  0  0  0  0  0
  -27.5599  -37.1826   24.8467 C   0  0  0  0  0  0
  -21.4114  -29.3043   22.3696 N   0  0  0  0  0  0
  -26.4317  -37.3809   23.9413 N   0  0  0  0  0  0
  -24.6683  -31.0779   22.1021 N   0  0  0  0  0  0
  -23.4164  -28.8179   23.3007 O   0  0  0  0  0  0
  -28.3187  -26.5864   20.1491 O   0  0  0  0  0  0
  -26.5608  -34.8913   22.4733 O   0  0  0  0  0  0
  -23.5301  -32.1493   23.7446 O   0  0  0  0  0  0
  -31.0271  -17.2774   19.4716 C   0  0  0  0  0  0
  -31.3205  -18.6148   19.1999 C   0  0  0  0  0  0
  -29.5992  -17.9638   21.3366 C   0  0  0  0  0  0
  -29.9531  -19.3443   21.1059 C   0  0  0  0  0  0
  -30.2038  -16.9216   20.5640 C   0  0  0  0  0  0
  -30.8262  -19.6336   20.0225 C   0  0  0  0  0  0
  -29.3679  -23.1094   21.3982 C   0  0  0  0  0  0
  -32.2206  -23.3981   23.7116 C   0  0  0  0  0  0
  -30.5154  -23.5850   21.9536 C   0  0  0  0  0  0
  -31.6003  -22.9002   22.6336 C   0  0  0  0  0  0
  -26.4677  -22.6962   21.3455 C   0  0  0  0  0  0
  -27.1305  -23.3637   20.1371 C   0  0  0  0  0  0
  -27.3835  -21.6487   22.0027 C   0  0  0  0  0  0
  -28.4622  -24.0464   20.5329 C   0  0  1  0  0  0
  -29.2031  -17.2553   23.7704 C   0  0  0  0  0  0
  -28.5773  -17.5573   22.4020 C   0  0  0  0  0  0
  -29.5420  -20.4958   22.0674 C   0  0  0  0  0  0
  -28.2292  -25.4997   21.1093 C   0  0  0  0  0  0
  -29.9543  -15.5361   20.8580 N   0  0  0  0  0  0
  -28.7832  -21.6675   21.4831 N   0  3  2  0  0  0
  -31.3383  -21.2349   19.6451 Cl  0  0  0  0  0  0
  -31.4636  -12.3447   19.1415 H   0  0  0  0  0  0
  -30.2808  -11.2716   19.8204 H   0  0  0  0  0  0
  -29.7350  -11.7906   17.4132 H   0  0  0  0  0  0
  -29.6917  -13.4959   17.7798 H   0  0  0  0  0  0
  -27.8108  -11.3311   18.7928 H   0  0  0  0  0  0
  -27.3806  -12.6792   17.7708 H   0  0  0  0  0  0
  -27.7007  -14.2651   19.5685 H   0  0  0  0  0  0
  -28.6669  -11.9808   21.3668 H   0  0  0  0  0  0
  -28.4797  -13.6363   21.8575 H   0  0  0  0  0  0
  -25.2785   -9.5690   22.4734 H   0  0  0  0  0  0
  -23.9999   -7.4645   22.7470 H   0  0  0  0  0  0
  -21.0849   -8.8808   19.8967 H   0  0  0  0  0  0
  -22.3714  -10.9683   19.6130 H   0  0  0  0  0  0
  -21.2055   -7.6139   23.9742 H   0  0  0  0  0  0
  -21.1451   -6.0491   25.9084 H   0  0  0  0  0  0
  -22.0597   -2.7606   23.2837 H   0  0  0  0  0  0
  -22.4025  -11.9980   22.4870 H   0  0  0  0  0  0
  -21.1052  -13.1329   22.2483 H   0  0  0  0  0  0
  -24.6600  -15.8504   20.4934 H   0  0  0  0  0  0
  -26.2755  -15.6245   20.0573 H   0  0  0  0  0  0
  -26.7066  -32.5583   23.1164 H   0  0  0  0  0  0
  -24.9950  -33.9790   25.0434 H   0  0  0  0  0  0
  -22.6925  -31.3108   21.4116 H   0  0  0  0  0  0
  -23.3732  -35.9667   23.3319 H   0  0  0  0  0  0
  -24.3571  -36.8917   22.2052 H   0  0  0  0  0  0
  -23.7205  -37.6524   23.6639 H   0  0  0  0  0  0
  -26.0542  -31.5919   20.6031 H   0  0  0  0  0  0
  -26.8166  -30.8742   21.9969 H   0  0  0  0  0  0
  -28.0905  -29.0538   21.2141 H   0  0  0  0  0  0
  -26.0474  -26.0031   18.9528 H   0  0  0  0  0  0
  -23.9756  -27.3292   18.9936 H   0  0  0  0  0  0
  -23.7258  -30.6109   19.4066 H   0  0  0  0  0  0
  -22.7373  -29.2565   19.8683 H   0  0  0  0  0  0
  -25.1271  -36.2044   25.0835 H   0  0  0  0  0  0
  -21.0020  -28.3263   24.1411 H   0  0  0  0  0  0
  -20.5664  -26.2284   23.3622 H   0  0  0  0  0  0
  -21.6634  -26.7437   22.1231 H   0  0  0  0  0  0
  -19.6884  -25.6297   21.1254 H   0  0  0  0  0  0
  -19.6667  -27.3192   20.6761 H   0  0  0  0  0  0
  -17.4198  -26.6716   21.4031 H   0  0  0  0  0  0
  -18.0292  -26.0041   22.9013 H   0  0  0  0  0  0
  -19.7938  -30.7261   24.2305 H   0  0  0  0  0  0
  -17.5021  -31.6269   24.5156 H   0  0  0  0  0  0
  -15.5353  -30.3007   23.7615 H   0  0  0  0  0  0
  -15.8678  -28.0807   22.7099 H   0  0  0  0  0  0
  -24.5876  -30.7042   25.7780 H   0  0  0  0  0  0
  -24.8811  -32.2851   26.4860 H   0  0  0  0  0  0
  -25.7982  -30.8912   27.0242 H   0  0  0  0  0  0
  -26.2891  -29.6798   24.1140 H   0  0  0  0  0  0
  -27.4013  -29.7301   25.4618 H   0  0  0  0  0  0
  -27.8725  -30.4356   23.9335 H   0  0  0  0  0  0
  -27.2740  -33.3620   26.2063 H   0  0  0  0  0  0
  -28.3859  -32.6817   25.0299 H   0  0  0  0  0  0
  -28.0702  -31.8398   26.5376 H   0  0  0  0  0  0
  -28.2647  -38.0109   24.7537 H   0  0  0  0  0  0
  -28.1072  -36.2641   24.6277 H   0  0  0  0  0  0
  -27.2316  -37.1460   25.8874 H   0  0  0  0  0  0
  -20.9240  -29.8782   21.6967 H   0  0  0  0  0  0
  -26.0203  -38.2902   24.1396 H   0  0  0  0  0  0
  -31.4551  -16.5371   18.8137 H   0  0  0  0  0  0
  -31.9607  -18.8580   18.3634 H   0  0  0  0  0  0
  -33.0446  -22.8649   24.1672 H   0  0  0  0  0  0
  -31.9264  -24.3338   24.1611 H   0  0  0  0  0  0
  -30.7459  -24.6166   21.7361 H   0  0  0  0  0  0
  -31.9932  -21.9779   22.2341 H   0  0  0  0  0  0
  -25.5392  -22.2182   21.0346 H   0  0  0  0  0  0
  -26.1769  -23.4445   22.0856 H   0  0  0  0  0  0
  -26.4359  -24.0624   19.6800 H   0  0  0  0  0  0
  -27.3109  -22.6076   19.3731 H   0  0  0  0  0  0
  -26.9553  -20.6569   21.8406 H   0  0  0  0  0  0
  -27.3880  -21.8046   23.0837 H   0  0  0  0  0  0
  -29.0336  -24.1886   19.6131 H   0  0  0  0  0  0
  -29.6490  -18.1432   24.2163 H   0  0  0  0  0  0
  -29.9787  -16.4932   23.6917 H   0  0  0  0  0  0
  -28.4465  -16.8745   24.4600 H   0  0  0  0  0  0
  -28.0388  -16.6708   22.0630 H   0  0  0  0  0  0
  -27.7896  -18.3045   22.4919 H   0  0  0  0  0  0
  -30.4216  -20.7752   22.6185 H   0  0  0  0  0  0
  -28.9569  -20.0836   22.8853 H   0  0  0  0  0  0
  -28.9608  -25.7472   21.8749 H   0  0  0  0  0  0
  -27.2828  -25.5269   21.6543 H   0  0  0  0  0  0
  -29.0663  -15.3210   21.2861 H   0  0  0  0  0  0
  -28.6665  -21.3785   20.5248 H   0  0  0  0  0  0
  1 25  1  0  0  0
  1 30  2  0  0  0
  1 89  1  0  0  0
  2  3  1  0  0  0
  2 25  1  0  0  0
  2 92  1  0  0  0
  2 93  1  0  0  0
  3  4  1  0  0  0
  3 94  1  0  0  0
  3 95  1  0  0  0
  4  5  1  0  0  0
  4 96  1  0  0  0
  4 97  1  0  0  0
  5  6  1  0  0  0
  5 26  1  0  0  0
  5 98  1  0  0  0
  6 25  1  0  0  0
  6 99  1  0  0  0
  6100  1  0  0  0
  7  8  2  0  0  0
  7 26  1  0  0  0
  7 29  1  0  0  0
  8  9  1  0  0  0
  8 22  1  0  0  0
  9 10  1  0  0  0
  9 27  2  0  0  0
 10 11  2  0  0  0
 10 15  1  0  0  0
 11 12  1  0  0  0
 11101  1  0  0  0
 12 13  2  0  0  0
 12102  1  0  0  0
 13 14  1  0  0  0
 13 31  1  0  0  0
 14 15  2  0  0  0
 14103  1  0  0  0
 15104  1  0  0  0
 16 17  2  0  0  0
 16 21  1  0  0  0
 16 31  1  0  0  0
 17 18  1  0  0  0
 17105  1  0  0  0
 18 19  2  0  0  0
 18106  1  0  0  0
 19 20  1  0  0  0
 19 24  1  0  0  0
 20 21  2  0  0  0
 20107  1  0  0  0
 21 23  1  0  0  0
 22 28  1  0  0  0
 22 32  2  0  0  0
 26 27  1  0  0  0
 28108  1  0  0  0
 28109  1  0  0  0
 29110  1  0  0  0
 29111  1  0  0  0
 33 34  1  0  0  0
 33 66  1  0  0  0
 33 70  2  0  0  0
 34 36  1  0  0  0
 34 59  1  0  0  0
 34112  1  0  0  0
 35 44  2  0  0  0
 35 45  1  0  0  0
 35 68  1  0  0  0
 36 56  1  0  0  0
 36113  1  0  0  0
 37 39  1  0  0  0
 37 47  1  0  0  0
 37 66  1  0  0  0
 37114  1  0  0  0
 38 43  2  0  0  0
 38 46  1  0  0  0
 38 47  1  0  0  0
 39 64  1  0  0  0
 39 67  2  0  0  0
 40 52  1  0  0  0
 40 53  2  0  0  0
 40 58  1  0  0  0
 41115  1  0  0  0
 41116  1  0  0  0
 41117  1  0  0  0
 41 48  1  0  0  0
 42 43  1  0  0  0
 42 66  1  0  0  0
 42118  1  0  0  0
 42119  1  0  0  0
 43 44  1  0  0  0
 44120  1  0  0  0
 45 46  2  0  0  0
 45121  1  0  0  0
 46122  1  0  0  0
 47123  1  0  0  0
 47124  1  0  0  0
 48 56  1  0  0  0
 48 65  1  0  0  0
 48125  1  0  0  0
 49 50  1  0  0  0
 49 53  1  0  0  0
 49 64  1  0  0  0
 49126  1  0  0  0
 50 51  1  0  0  0
 50127  1  0  0  0
 50128  1  0  0  0
 51 52  1  0  0  0
 51129  1  0  0  0
 51130  1  0  0  0
 52131  1  0  0  0
 52132  1  0  0  0
 53 54  1  0  0  0
 54 55  2  0  0  0
 54133  1  0  0  0
 55 57  1  0  0  0
 55134  1  0  0  0
 56 69  2  0  0  0
 57 58  2  0  0  0
 57135  1  0  0  0
 58136  1  0  0  0
 59 60  1  0  0  0
 59 61  1  0  0  0
 59 62  1  0  0  0
 60137  1  0  0  0
 60138  1  0  0  0
 60139  1  0  0  0
 61140  1  0  0  0
 61141  1  0  0  0
 61142  1  0  0  0
 62143  1  0  0  0
 62144  1  0  0  0
 62145  1  0  0  0
 63 65  1  0  0  0
 63146  1  0  0  0
 63147  1  0  0  0
 63148  1  0  0  0
 64149  1  0  0  0
 65150  1  0  0  0
 68 88  1  0  0  0
 71 72  2  0  0  0
 71 75  1  0  0  0
 71151  1  0  0  0
 72 76  1  0  0  0
 72152  1  0  0  0
 73 74  1  0  0  0
 73 75  2  0  0  0
 73 86  1  0  0  0
 74 76  2  0  0  0
 74 87  1  0  0  0
 75 89  1  0  0  0
 76 91  1  0  0  0
 77 79  2  0  0  0
 77 84  1  0  0  0
 77 90  1  0  0  0
 78 80  2  0  0  0
 78153  1  0  0  0
 78154  1  0  0  0
 79 80  1  0  0  0
 79155  1  0  0  0
 80156  1  0  0  0
 81 82  1  0  0  0
 81 83  1  0  0  0
 81157  1  0  0  0
 81158  1  0  0  0
 82 84  1  0  0  0
 82159  1  0  0  0
 82160  1  0  0  0
 83 90  1  0  0  0
 83161  1  0  0  0
 83162  1  0  0  0
 84 88  1  0  0  0
 84163  1  0  0  0
 85 86  1  0  0  0
 85164  1  0  0  0
 85165  1  0  0  0
 85166  1  0  0  0
 86167  1  0  0  0
 86168  1  0  0  0
 87169  1  0  0  0
 87170  1  0  0  0
 87 90  1  0  0  0
 88171  1  0  0  0
 88172  1  0  0  0
 89173  1  0  0  0
 90174  1  0  0  0
M  CHG  1  90   1
M  ISO  4   1 100  68 101  88 101  89 100
M  END
> <chiral flag>
0

> <version>
0

> <s_m_source_file>
/data/baiqing/PycharmProjects/Reinvent-master-3.2/result/LINK_invent/BTK/process_docking_weight1_custom_product_contain_oxygen_bond_distance_aromatic_linkinvent_7_9_3/rearranged_h_0048.sdf

> <i_m_source_file_index>
35

> <r_mmod_Potential_Energy-OPLS-2005>
3.07035160064697

> <r_mmod_Stretch_Energy-OPLS-2005>
66.0958862304688

> <r_mmod_Bend_Energy-OPLS-2005>
145.966735839844

> <r_mmod_Torsional_Energy-OPLS-2005>
310.994354248047

> <r_mmod_Improper_Torsional_Energy-OPLS-2005>
5.48001480102539

> <r_mmod_Van_der_Waal_Energy-OPLS-2005>
175.83186340332

> <r_mmod_Electrostatic_Energy-OPLS-2005>
-302.076354980469

> <r_mmod_Solvation_Energy-OPLS-2005>
-420.155609130859

> <b_mmod_Minimization_Converged-OPLS-2005>
0

> <r_mmod_RMS_Derivative-OPLS-2005>
4.60377979278564

$$$$
35
                    3D
 Structure written by MMmdl.
165174  0  0  1  0            999 V2000
  -30.6150  -14.5970   20.5134 C   0  0  0  0  0  0
  -30.4280  -12.3627   19.4556 C   0  0  0  0  0  0
  -29.5089  -12.5122   18.2212 C   0  0  0  0  0  0
  -28.0269  -12.3608   18.6211 C   0  0  0  0  0  0
  -27.6549  -13.2113   19.8648 C   0  0  2  0  0  0
  -28.6908  -13.0352   20.9971 C   0  0  0  0  0  0
  -25.2593  -13.8167   20.5664 C   0  0  0  0  0  0
  -24.1845  -13.0452   20.9128 C   0  0  0  0  0  0
  -24.6367  -11.6916   20.8681 C   0  0  0  0  0  0
  -23.9015  -10.4312   21.0362 C   0  0  0  0  0  0
  -24.3588   -9.4250   21.9136 C   0  0  0  0  0  0
  -23.6294   -8.2268   22.0717 C   0  0  0  0  0  0
  -22.4274   -8.0286   21.3519 C   0  0  0  0  0  0
  -21.9889   -9.0238   20.4622 C   0  0  0  0  0  0
  -22.7185  -10.2133   20.3015 C   0  0  0  0  0  0
  -21.6857   -6.0725   22.5257 C   0  0  0  0  0  0
  -21.4011   -6.5623   23.8198 C   0  0  0  0  0  0
  -21.3665   -5.6780   24.9154 C   0  0  0  0  0  0
  -21.6048   -4.3040   24.7203 C   0  0  0  0  0  0
  -21.8830   -3.8132   23.4321 C   0  0  0  0  0  0
  -21.9199   -4.6942   22.3389 C   0  0  0  0  0  0
  -22.7867  -13.5264   21.1793 C   0  0  0  0  0  0
  -22.1674   -4.2128   21.0967 F   0  0  0  0  0  0
  -21.5628   -3.4534   25.7719 F   0  0  0  0  0  0
  -30.0105  -13.3707   20.4512 N   0  0  0  0  0  0
  -26.2994  -12.9317   20.3290 N   0  0  0  0  0  0
  -25.9291  -11.6481   20.5686 N   0  0  0  0  0  0
  -22.0505  -12.8277   22.0365 N   0  0  0  0  0  0
  -25.4428  -15.1892   20.4132 N   0  0  0  0  0  0
  -31.7582  -14.7722   20.0805 O   0  0  0  0  0  0
  -21.6643   -6.8873   21.4234 O   0  0  0  0  0  0
  -22.3574  -14.5575   20.6635 O   0  0  0  0  0  0
  -24.6221  -31.8614   23.2034 C   0  0  0  0  0  0
  -25.9067  -32.4792   23.8369 C   0  0  1  0  0  0
  -27.2170  -27.3246   20.1239 C   0  0  0  0  0  0
  -25.5900  -33.8597   24.2297 N   0  0  0  0  0  0
  -23.4155  -30.4821   21.5471 C   0  0  2  0  0  0
  -24.8601  -28.9314   20.1195 C   0  0  0  0  0  0
  -22.7454  -29.4619   22.4978 C   0  0  0  0  0  0
  -18.0270  -28.1392   22.8480 C   0  0  0  0  0  0
  -24.1495  -36.7297   23.2631 C   0  0  0  0  0  0
  -25.9544  -30.7945   21.3730 C   0  0  0  0  0  0
  -26.0271  -29.4195   20.7205 C   0  0  0  0  0  0
  -27.2065  -28.6231   20.7173 C   0  0  0  0  0  0
  -26.0293  -26.8858   19.4985 C   0  0  0  0  0  0
  -24.8583  -27.6657   19.5111 C   0  0  0  0  0  0
  -23.6306  -29.8112   20.1647 C   0  0  0  0  0  0
  -25.4105  -36.3103   24.0349 C   0  0  1  0  0  0
  -20.5866  -28.3671   23.1307 C   0  0  2  0  0  0
  -20.6764  -26.9405   22.5417 C   0  0  0  0  0  0
  -19.5741  -26.6385   21.5211 C   0  0  0  0  0  0
  -18.1921  -26.7938   22.1621 C   0  0  0  0  0  0
  -19.1529  -28.8840   23.2888 C   0  0  0  0  0  0
  -18.9459  -30.1453   23.8897 C   0  0  0  0  0  0
  -17.6460  -30.6585   24.0564 C   0  0  0  0  0  0
  -25.9050  -34.9473   23.5127 C   0  0  0  0  0  0
  -16.5346  -29.9090   23.6345 C   0  0  0  0  0  0
  -16.7256  -28.6517   23.0338 C   0  0  0  0  0  0
  -26.4471  -31.6594   25.0714 C   0  0  0  0  0  0
  -25.3724  -31.3689   26.1447 C   0  0  0  0  0  0
  -27.0296  -30.3035   24.6120 C   0  0  0  0  0  0
  -27.6056  -32.4316   25.7445 C   0  0  0  0  0  0
  -27.5630  -37.1740   24.8416 C   0  0  0  0  0  0
  -21.4169  -29.3024   22.3711 N   0  0  0  0  0  0
  -26.4265  -37.3815   23.9480 N   0  0  0  0  0  0
  -24.6829  -31.0631   22.0981 N   0  0  0  0  0  0
  -23.4194  -28.8173   23.3052 O   0  0  0  0  0  0
  -28.3513  -26.5097   20.1893 O   0  0  0  0  0  0
  -26.5622  -34.8934   22.4691 O   0  0  0  0  0  0
  -23.5390  -32.1410   23.7370 O   0  0  0  0  0  0
  -29.5568  -18.1811   21.0387 C   0  0  0  0  0  0
  -29.2386  -19.4561   18.9862 C   0  0  0  0  0  0
  -29.5715  -17.0206   18.9068 C   0  0  0  0  0  0
  -29.3430  -19.4556   20.3970 C   0  0  0  0  0  0
  -29.6968  -16.9496   20.3111 C   0  0  0  0  0  0
  -29.3397  -18.2513   18.2579 C   0  0  0  0  0  0
  -29.9000  -23.3363   21.0192 C   0  0  0  0  0  0
  -31.0730  -23.2766   24.5480 C   0  0  0  0  0  0
  -30.4968  -23.5797   22.2092 C   0  0  0  0  0  0
  -30.4776  -22.8099   23.4398 C   0  0  0  0  0  0
  -29.7484  -24.4644   19.9754 C   0  0  0  0  0  0
  -27.3818  -24.1841   20.8269 C   0  0  0  0  0  0
  -27.5744  -22.6165   20.6833 C   0  0  0  0  0  0
  -28.3012  -25.0586   19.9011 C   0  0  1  0  0  0
  -29.3070  -20.7822   21.2388 C   0  0  0  0  0  0
  -29.8495  -15.6450   20.9471 N   0  0  0  0  0  0
  -29.0094  -22.1599   20.6360 N   0  3  2  0  0  0
  -29.1760  -18.2773   16.5402 Cl  0  0  0  0  0  0
  -31.4753  -12.4737   19.1683 H   0  0  0  0  0  0
  -30.3378  -11.3569   19.8751 H   0  0  0  0  0  0
  -29.7722  -11.7751   17.4611 H   0  0  0  0  0  0
  -29.6673  -13.4886   17.7602 H   0  0  0  0  0  0
  -27.8476  -11.3064   18.8313 H   0  0  0  0  0  0
  -27.3782  -12.6164   17.7807 H   0  0  0  0  0  0
  -27.6848  -14.2519   19.5420 H   0  0  0  0  0  0
  -28.6900  -12.0055   21.3555 H   0  0  0  0  0  0
  -28.4371  -13.6496   21.8606 H   0  0  0  0  0  0
  -25.2724   -9.5734   22.4699 H   0  0  0  0  0  0
  -23.9991   -7.4677   22.7460 H   0  0  0  0  0  0
  -21.0783   -8.8740   19.8975 H   0  0  0  0  0  0
  -22.3604  -10.9646   19.6125 H   0  0  0  0  0  0
  -21.2012   -7.6129   23.9690 H   0  0  0  0  0  0
  -21.1474   -6.0499   25.9061 H   0  0  0  0  0  0
  -22.0612   -2.7587   23.2811 H   0  0  0  0  0  0
  -22.4094  -11.9913   22.4735 H   0  0  0  0  0  0
  -21.1116  -13.1317   22.2549 H   0  0  0  0  0  0
  -24.6912  -15.8606   20.5206 H   0  0  0  0  0  0
  -26.3137  -15.6156   20.1217 H   0  0  0  0  0  0
  -26.7119  -32.5484   23.1110 H   0  0  0  0  0  0
  -25.0021  -33.9760   25.0428 H   0  0  0  0  0  0
  -22.7085  -31.3016   21.4012 H   0  0  0  0  0  0
  -23.3843  -35.9531   23.3101 H   0  0  0  0  0  0
  -24.3649  -36.9106   22.2091 H   0  0  0  0  0  0
  -23.7115  -37.6383   23.6763 H   0  0  0  0  0  0
  -26.0793  -31.5543   20.6005 H   0  0  0  0  0  0
  -26.8378  -30.8506   21.9969 H   0  0  0  0  0  0
  -28.0991  -28.9837   21.2094 H   0  0  0  0  0  0
  -25.9757  -25.9239   19.0129 H   0  0  0  0  0  0
  -23.9541  -27.2769   19.0622 H   0  0  0  0  0  0
  -23.7591  -30.5832   19.4058 H   0  0  0  0  0  0
  -22.7514  -29.2388   19.8606 H   0  0  0  0  0  0
  -25.1267  -36.1920   25.0836 H   0  0  0  0  0  0
  -20.9964  -28.3231   24.1423 H   0  0  0  0  0  0
  -20.5658  -26.2280   23.3610 H   0  0  0  0  0  0
  -21.6632  -26.7439   22.1205 H   0  0  0  0  0  0
  -19.6899  -25.6294   21.1237 H   0  0  0  0  0  0
  -19.6692  -27.3197   20.6742 H   0  0  0  0  0  0
  -17.4202  -26.6684   21.4015 H   0  0  0  0  0  0
  -18.0312  -26.0077   22.9012 H   0  0  0  0  0  0
  -19.7934  -30.7267   24.2279 H   0  0  0  0  0  0
  -17.5009  -31.6268   24.5164 H   0  0  0  0  0  0
  -15.5345  -30.2982   23.7671 H   0  0  0  0  0  0
  -15.8659  -28.0833   22.7049 H   0  0  0  0  0  0
  -24.5897  -30.7051   25.7747 H   0  0  0  0  0  0
  -24.8912  -32.2833   26.4930 H   0  0  0  0  0  0
  -25.8066  -30.8805   27.0183 H   0  0  0  0  0  0
  -26.2823  -29.6767   24.1238 H   0  0  0  0  0  0
  -27.4111  -29.7299   25.4575 H   0  0  0  0  0  0
  -27.8648  -30.4330   23.9236 H   0  0  0  0  0  0
  -27.2713  -33.3644   26.1993 H   0  0  0  0  0  0
  -28.3854  -32.6830   25.0243 H   0  0  0  0  0  0
  -28.0730  -31.8452   26.5361 H   0  0  0  0  0  0
  -28.2439  -38.0242   24.7816 H   0  0  0  0  0  0
  -28.1345  -36.2825   24.5793 H   0  0  0  0  0  0
  -27.2430  -37.0816   25.8809 H   0  0  0  0  0  0
  -20.9360  -29.8735   21.6908 H   0  0  0  0  0  0
  -26.0148  -38.2843   24.1672 H   0  0  0  0  0  0
  -29.6391  -18.1534   22.1182 H   0  0  0  0  0  0
  -29.0820  -20.3719   18.4350 H   0  0  0  0  0  0
  -29.6330  -16.1213   18.3104 H   0  0  0  0  0  0
  -31.0674  -22.7214   25.4743 H   0  0  0  0  0  0
  -31.5759  -24.2346   24.5519 H   0  0  0  0  0  0
  -30.9922  -24.5385   22.2845 H   0  0  0  0  0  0
  -29.9770  -21.8569   23.5156 H   0  0  0  0  0  0
  -30.0750  -24.1068   18.9971 H   0  0  0  0  0  0
  -30.4391  -25.2721   20.2264 H   0  0  0  0  0  0
  -27.5854  -24.4562   21.8635 H   0  0  0  0  0  0
  -26.3319  -24.4321   20.6837 H   0  0  0  0  0  0
  -27.0544  -22.2499   19.7970 H   0  0  0  0  0  0
  -27.0701  -22.1469   21.5288 H   0  0  0  0  0  0
  -27.9684  -24.9352   18.8682 H   0  0  0  0  0  0
  -30.3225  -20.8190   21.6303 H   0  0  0  0  0  0
  -28.6604  -20.6133   22.0998 H   0  0  0  0  0  0
  -29.0667  -15.3648   21.5210 H   0  0  0  0  0  0
  -29.1880  -22.0094   19.6558 H   0  0  0  0  0  0
  1 25  1  0  0  0
  1 30  2  0  0  0
  1 86  1  0  0  0
  2  3  1  0  0  0
  2 25  1  0  0  0
  2 89  1  0  0  0
  2 90  1  0  0  0
  3  4  1  0  0  0
  3 91  1  0  0  0
  3 92  1  0  0  0
  4  5  1  0  0  0
  4 93  1  0  0  0
  4 94  1  0  0  0
  5  6  1  0  0  0
  5 26  1  0  0  0
  5 95  1  0  0  0
  6 25  1  0  0  0
  6 96  1  0  0  0
  6 97  1  0  0  0
  7  8  2  0  0  0
  7 26  1  0  0  0
  7 29  1  0  0  0
  8  9  1  0  0  0
  8 22  1  0  0  0
  9 10  1  0  0  0
  9 27  2  0  0  0
 10 11  2  0  0  0
 10 15  1  0  0  0
 11 12  1  0  0  0
 11 98  1  0  0  0
 12 13  2  0  0  0
 12 99  1  0  0  0
 13 14  1  0  0  0
 13 31  1  0  0  0
 14 15  2  0  0  0
 14100  1  0  0  0
 15101  1  0  0  0
 16 17  2  0  0  0
 16 21  1  0  0  0
 16 31  1  0  0  0
 17 18  1  0  0  0
 17102  1  0  0  0
 18 19  2  0  0  0
 18103  1  0  0  0
 19 20  1  0  0  0
 19 24  1  0  0  0
 20 21  2  0  0  0
 20104  1  0  0  0
 21 23  1  0  0  0
 22 28  1  0  0  0
 22 32  2  0  0  0
 26 27  1  0  0  0
 28105  1  0  0  0
 28106  1  0  0  0
 29107  1  0  0  0
 29108  1  0  0  0
 33 34  1  0  0  0
 33 66  1  0  0  0
 33 70  2  0  0  0
 34 36  1  0  0  0
 34 59  1  0  0  0
 34109  1  0  0  0
 35 44  2  0  0  0
 35 45  1  0  0  0
 35 68  1  0  0  0
 36 56  1  0  0  0
 36110  1  0  0  0
 37 39  1  0  0  0
 37 47  1  0  0  0
 37 66  1  0  0  0
 37111  1  0  0  0
 38 43  2  0  0  0
 38 46  1  0  0  0
 38 47  1  0  0  0
 39 64  1  0  0  0
 39 67  2  0  0  0
 40 52  1  0  0  0
 40 53  2  0  0  0
 40 58  1  0  0  0
 41112  1  0  0  0
 41113  1  0  0  0
 41114  1  0  0  0
 41 48  1  0  0  0
 42 43  1  0  0  0
 42 66  1  0  0  0
 42115  1  0  0  0
 42116  1  0  0  0
 43 44  1  0  0  0
 44117  1  0  0  0
 45 46  2  0  0  0
 45118  1  0  0  0
 46119  1  0  0  0
 47120  1  0  0  0
 47121  1  0  0  0
 48 56  1  0  0  0
 48 65  1  0  0  0
 48122  1  0  0  0
 49 50  1  0  0  0
 49 53  1  0  0  0
 49 64  1  0  0  0
 49123  1  0  0  0
 50 51  1  0  0  0
 50124  1  0  0  0
 50125  1  0  0  0
 51 52  1  0  0  0
 51126  1  0  0  0
 51127  1  0  0  0
 52128  1  0  0  0
 52129  1  0  0  0
 53 54  1  0  0  0
 54 55  2  0  0  0
 54130  1  0  0  0
 55 57  1  0  0  0
 55131  1  0  0  0
 56 69  2  0  0  0
 57 58  2  0  0  0
 57132  1  0  0  0
 58133  1  0  0  0
 59 60  1  0  0  0
 59 61  1  0  0  0
 59 62  1  0  0  0
 60134  1  0  0  0
 60135  1  0  0  0
 60136  1  0  0  0
 61137  1  0  0  0
 61138  1  0  0  0
 61139  1  0  0  0
 62140  1  0  0  0
 62141  1  0  0  0
 62142  1  0  0  0
 63 65  1  0  0  0
 63143  1  0  0  0
 63144  1  0  0  0
 63145  1  0  0  0
 64146  1  0  0  0
 65147  1  0  0  0
 68 84  1  0  0  0
 71 74  2  0  0  0
 71 75  1  0  0  0
 71148  1  0  0  0
 72 74  1  0  0  0
 72 76  2  0  0  0
 72149  1  0  0  0
 73 75  2  0  0  0
 73 76  1  0  0  0
 73150  1  0  0  0
 74 85  1  0  0  0
 75 86  1  0  0  0
 76 88  1  0  0  0
 77 79  2  0  0  0
 77 81  1  0  0  0
 77 87  1  0  0  0
 78 80  2  0  0  0
 78151  1  0  0  0
 78152  1  0  0  0
 79 80  1  0  0  0
 79153  1  0  0  0
 80154  1  0  0  0
 81 84  1  0  0  0
 81155  1  0  0  0
 81156  1  0  0  0
 82 83  1  0  0  0
 82 84  1  0  0  0
 82157  1  0  0  0
 82158  1  0  0  0
 83 87  1  0  0  0
 83159  1  0  0  0
 83160  1  0  0  0
 84161  1  0  0  0
 85162  1  0  0  0
 85163  1  0  0  0
 85 87  1  0  0  0
 86164  1  0  0  0
 87165  1  0  0  0
M  CHG  1  87   1
M  ISO  4   1 100  68 101  84 101  86 100
M  END
> <chiral flag>
0

> <version>
0

> <s_m_source_file>
/data/baiqing/PycharmProjects/Reinvent-master-3.2/result/LINK_invent/BTK/process_docking_weight1_custom_product_contain_oxygen_bond_distance_aromatic_linkinvent_7_9_3/rearranged_h_0048.sdf

> <i_m_source_file_index>
36

> <r_mmod_Potential_Energy-OPLS-2005>
13.7861623764038

> <r_mmod_Stretch_Energy-OPLS-2005>
81.3430786132812

> <r_mmod_Bend_Energy-OPLS-2005>
162.455810546875

> <r_mmod_Torsional_Energy-OPLS-2005>
280.771850585938

> <r_mmod_Improper_Torsional_Energy-OPLS-2005>
6.05534362792969

> <r_mmod_Van_der_Waal_Energy-OPLS-2005>
155.13591003418

> <r_mmod_Electrostatic_Energy-OPLS-2005>
-249.704971313477

> <r_mmod_Solvation_Energy-OPLS-2005>
-462.506042480469

> <b_mmod_Minimization_Converged-OPLS-2005>
0

> <r_mmod_RMS_Derivative-OPLS-2005>
3.94398021697998

$$$$
36
                    3D
 Structure written by MMmdl.
165173  0  0  1  0            999 V2000
  -30.7195  -14.4590   20.5041 C   0  0  0  0  0  0
  -30.4139  -12.2817   19.4294 C   0  0  0  0  0  0
  -29.4908  -12.4785   18.2080 C   0  0  0  0  0  0
  -28.0089  -12.3658   18.6186 C   0  0  0  0  0  0
  -27.6599  -13.2115   19.8714 C   0  0  2  0  0  0
  -28.7067  -13.0184   20.9939 C   0  0  0  0  0  0
  -25.2581  -13.8188   20.5682 C   0  0  0  0  0  0
  -24.1832  -13.0457   20.9201 C   0  0  0  0  0  0
  -24.6406  -11.6933   20.8764 C   0  0  0  0  0  0
  -23.9073  -10.4304   21.0414 C   0  0  0  0  0  0
  -24.3622   -9.4219   21.9197 C   0  0  0  0  0  0
  -23.6295   -8.2252   22.0762 C   0  0  0  0  0  0
  -22.4274   -8.0293   21.3553 C   0  0  0  0  0  0
  -21.9928   -9.0265   20.4647 C   0  0  0  0  0  0
  -22.7254  -10.2147   20.3065 C   0  0  0  0  0  0
  -21.6854   -6.0746   22.5276 C   0  0  0  0  0  0
  -21.4016   -6.5642   23.8210 C   0  0  0  0  0  0
  -21.3661   -5.6800   24.9168 C   0  0  0  0  0  0
  -21.6036   -4.3062   24.7223 C   0  0  0  0  0  0
  -21.8827   -3.8155   23.4334 C   0  0  0  0  0  0
  -21.9196   -4.6972   22.3388 C   0  0  0  0  0  0
  -22.7855  -13.5255   21.1843 C   0  0  0  0  0  0
  -22.1662   -4.2164   21.0972 F   0  0  0  0  0  0
  -21.5636   -3.4540   25.7733 F   0  0  0  0  0  0
  -30.0387  -13.2874   20.4320 N   0  0  0  0  0  0
  -26.3013  -12.9367   20.3370 N   0  0  0  0  0  0
  -25.9338  -11.6532   20.5795 N   0  0  0  0  0  0
  -22.0487  -12.8222   22.0377 N   0  0  0  0  0  0
  -25.4318  -15.1887   20.4032 N   0  0  0  0  0  0
  -31.8975  -14.5683   20.1584 O   0  0  0  0  0  0
  -21.6640   -6.8889   21.4233 O   0  0  0  0  0  0
  -22.3545  -14.5552   20.6694 O   0  0  0  0  0  0
  -24.6128  -31.8666   23.2075 C   0  0  0  0  0  0
  -25.9035  -32.4802   23.8382 C   0  0  1  0  0  0
  -27.2351  -27.4216   20.1103 C   0  0  0  0  0  0
  -25.5919  -33.8600   24.2330 N   0  0  0  0  0  0
  -23.4058  -30.4879   21.5464 C   0  0  2  0  0  0
  -24.8557  -28.9566   20.1083 C   0  0  0  0  0  0
  -22.7439  -29.4612   22.4963 C   0  0  0  0  0  0
  -18.0294  -28.1369   22.8450 C   0  0  0  0  0  0
  -24.1500  -36.7323   23.2633 C   0  0  0  0  0  0
  -25.9300  -30.8297   21.3620 C   0  0  0  0  0  0
  -26.0149  -29.4621   20.7126 C   0  0  0  0  0  0
  -27.2078  -28.7020   20.7109 C   0  0  0  0  0  0
  -26.0608  -26.9355   19.4894 C   0  0  0  0  0  0
  -24.8741  -27.6937   19.4911 C   0  0  0  0  0  0
  -23.6176  -29.8236   20.1591 C   0  0  0  0  0  0
  -25.4109  -36.3102   24.0332 C   0  0  1  0  0  0
  -20.5878  -28.3652   23.1320 C   0  0  2  0  0  0
  -20.6813  -26.9412   22.5411 C   0  0  0  0  0  0
  -19.5790  -26.6363   21.5215 C   0  0  0  0  0  0
  -18.1941  -26.7901   22.1590 C   0  0  0  0  0  0
  -19.1545  -28.8827   23.2869 C   0  0  0  0  0  0
  -18.9478  -30.1431   23.8889 C   0  0  0  0  0  0
  -17.6485  -30.6587   24.0542 C   0  0  0  0  0  0
  -25.9032  -34.9454   23.5120 C   0  0  0  0  0  0
  -16.5371  -29.9093   23.6311 C   0  0  0  0  0  0
  -16.7286  -28.6513   23.0316 C   0  0  0  0  0  0
  -26.4457  -31.6570   25.0706 C   0  0  0  0  0  0
  -25.3694  -31.3683   26.1440 C   0  0  0  0  0  0
  -27.0308  -30.3031   24.6039 C   0  0  0  0  0  0
  -27.6050  -32.4253   25.7476 C   0  0  0  0  0  0
  -27.5599  -37.1795   24.8442 C   0  0  0  0  0  0
  -21.4160  -29.3009   22.3721 N   0  0  0  0  0  0
  -26.4290  -37.3785   23.9407 N   0  0  0  0  0  0
  -24.6676  -31.0760   22.0979 N   0  0  0  0  0  0
  -23.4201  -28.8186   23.3028 O   0  0  0  0  0  0
  -28.3734  -26.6416   20.1426 O   0  0  0  0  0  0
  -26.5612  -34.8905   22.4690 O   0  0  0  0  0  0
  -23.5320  -32.1438   23.7475 O   0  0  0  0  0  0
  -30.2663  -19.4518   19.0589 C   0  0  0  0  0  0
  -30.9543  -17.1240   19.1177 C   0  0  0  0  0  0
  -29.4141  -19.2442   20.1637 C   0  0  0  0  0  0
  -29.3388  -17.9446   20.7676 C   0  0  0  0  0  0
  -30.1117  -16.8692   20.2337 C   0  0  0  0  0  0
  -31.0321  -18.4014   18.5410 C   0  0  0  0  0  0
  -28.6100  -20.4072   20.5852 C   0  0  0  0  0  0
  -28.4305  -17.6852   21.9730 C   0  0  0  0  0  0
  -30.5173  -24.3946   20.6598 C   0  0  0  0  0  0
  -28.8540  -24.0146   18.7972 C   0  0  0  0  0  0
  -28.4751  -22.9050   21.0305 C   0  0  0  0  0  0
  -28.2075  -25.4012   20.8620 C   0  0  0  0  0  0
  -29.0261  -24.1820   20.3232 C   0  0  0  0  0  0
  -27.3240  -20.2452   20.8822 N   0  0  0  0  0  0
  -29.9701  -15.5438   20.7805 N   0  0  0  0  0  0
  -29.1457  -21.6439   20.6369 N   0  3  0  0  0  0
  -32.0527  -18.6755   17.1764 Cl  0  0  0  0  0  0
  -31.4601  -12.3571   19.1265 H   0  0  0  0  0  0
  -30.2957  -11.2790   19.8451 H   0  0  0  0  0  0
  -29.7178  -11.7321   17.4459 H   0  0  0  0  0  0
  -29.6767  -13.4499   17.7502 H   0  0  0  0  0  0
  -27.7990  -11.3130   18.8130 H   0  0  0  0  0  0
  -27.3680  -12.6523   17.7850 H   0  0  0  0  0  0
  -27.6983  -14.2543   19.5585 H   0  0  0  0  0  0
  -28.6701  -11.9983   21.3789 H   0  0  0  0  0  0
  -28.4844  -13.6630   21.8467 H   0  0  0  0  0  0
  -25.2768   -9.5693   22.4777 H   0  0  0  0  0  0
  -24.0008   -7.4647   22.7483 H   0  0  0  0  0  0
  -21.0876   -8.8786   19.8935 H   0  0  0  0  0  0
  -22.3723  -10.9694   19.6173 H   0  0  0  0  0  0
  -21.2010   -7.6160   23.9717 H   0  0  0  0  0  0
  -21.1475   -6.0525   25.9072 H   0  0  0  0  0  0
  -22.0603   -2.7621   23.2831 H   0  0  0  0  0  0
  -22.4092  -11.9865   22.4749 H   0  0  0  0  0  0
  -21.1099  -13.1247   22.2596 H   0  0  0  0  0  0
  -24.6620  -15.8428   20.4857 H   0  0  0  0  0  0
  -26.2709  -15.6090   20.0247 H   0  0  0  0  0  0
  -26.7117  -32.5549   23.1168 H   0  0  0  0  0  0
  -25.0078  -33.9752   25.0486 H   0  0  0  0  0  0
  -22.6944  -31.3059   21.4116 H   0  0  0  0  0  0
  -23.3760  -35.9650   23.3237 H   0  0  0  0  0  0
  -24.3677  -36.8993   22.2074 H   0  0  0  0  0  0
  -23.7215  -37.6478   23.6702 H   0  0  0  0  0  0
  -26.0380  -31.5914   20.5875 H   0  0  0  0  0  0
  -26.8166  -30.8913   21.9806 H   0  0  0  0  0  0
  -28.0967  -29.0701   21.2062 H   0  0  0  0  0  0
  -26.0593  -25.9631   19.0175 H   0  0  0  0  0  0
  -23.9855  -27.3063   19.0108 H   0  0  0  0  0  0
  -23.7332  -30.6062   19.4061 H   0  0  0  0  0  0
  -22.7367  -29.2537   19.8554 H   0  0  0  0  0  0
  -25.1253  -36.1970   25.0809 H   0  0  0  0  0  0
  -20.9957  -28.3266   24.1444 H   0  0  0  0  0  0
  -20.5826  -26.2267   23.3598 H   0  0  0  0  0  0
  -21.6678  -26.7529   22.1175 H   0  0  0  0  0  0
  -19.6999  -25.6284   21.1246 H   0  0  0  0  0  0
  -19.6756  -27.3194   20.6752 H   0  0  0  0  0  0
  -17.4244  -26.6658   21.3954 H   0  0  0  0  0  0
  -18.0331  -26.0045   22.8987 H   0  0  0  0  0  0
  -19.7975  -30.7196   24.2308 H   0  0  0  0  0  0
  -17.5066  -31.6270   24.5134 H   0  0  0  0  0  0
  -15.5380  -30.2985   23.7648 H   0  0  0  0  0  0
  -15.8676  -28.0850   22.7004 H   0  0  0  0  0  0
  -24.5932  -30.6946   25.7803 H   0  0  0  0  0  0
  -24.8806  -32.2830   26.4791 H   0  0  0  0  0  0
  -25.8006  -30.8962   27.0278 H   0  0  0  0  0  0
  -26.2861  -29.6783   24.1094 H   0  0  0  0  0  0
  -27.4138  -29.7250   25.4456 H   0  0  0  0  0  0
  -27.8651  -30.4386   23.9141 H   0  0  0  0  0  0
  -27.2729  -33.3598   26.2013 H   0  0  0  0  0  0
  -28.3901  -32.6717   25.0322 H   0  0  0  0  0  0
  -28.0653  -31.8374   26.5425 H   0  0  0  0  0  0
  -28.2499  -38.0211   24.7642 H   0  0  0  0  0  0
  -28.1204  -36.2738   24.6059 H   0  0  0  0  0  0
  -27.2372  -37.1192   25.8857 H   0  0  0  0  0  0
  -20.9369  -29.8714   21.6915 H   0  0  0  0  0  0
  -26.0169  -38.2830   24.1527 H   0  0  0  0  0  0
  -30.3205  -20.4161   18.5746 H   0  0  0  0  0  0
  -31.5438  -16.3516   18.6517 H   0  0  0  0  0  0
  -28.4901  -18.5009   22.6934 H   0  0  0  0  0  0
  -28.6872  -16.7872   22.5313 H   0  0  0  0  0  0
  -27.3912  -17.5816   21.6570 H   0  0  0  0  0  0
  -31.1425  -23.5666   20.3274 H   0  0  0  0  0  0
  -30.6666  -24.5050   21.7370 H   0  0  0  0  0  0
  -30.9076  -25.2965   20.1869 H   0  0  0  0  0  0
  -29.5116  -23.2370   18.4022 H   0  0  0  0  0  0
  -29.0955  -24.9295   18.2551 H   0  0  0  0  0  0
  -27.8310  -23.7395   18.5399 H   0  0  0  0  0  0
  -27.4087  -22.8233   20.8053 H   0  0  0  0  0  0
  -28.5409  -23.0104   22.1158 H   0  0  0  0  0  0
  -28.5043  -25.6001   21.8967 H   0  0  0  0  0  0
  -27.1556  -25.1163   20.9439 H   0  0  0  0  0  0
  -26.9195  -19.3264   20.7834 H   0  0  0  0  0  0
  -26.7462  -20.9838   21.2421 H   0  0  0  0  0  0
  -29.0944  -15.3494   21.2399 H   0  0  0  0  0  0
  -30.1495  -21.6917   20.5257 H   0  0  0  0  0  0
  1 25  1  0  0  0
  1 30  2  0  0  0
  1 85  1  0  0  0
  2  3  1  0  0  0
  2 25  1  0  0  0
  2 88  1  0  0  0
  2 89  1  0  0  0
  3  4  1  0  0  0
  3 90  1  0  0  0
  3 91  1  0  0  0
  4  5  1  0  0  0
  4 92  1  0  0  0
  4 93  1  0  0  0
  5  6  1  0  0  0
  5 26  1  0  0  0
  5 94  1  0  0  0
  6 25  1  0  0  0
  6 95  1  0  0  0
  6 96  1  0  0  0
  7  8  2  0  0  0
  7 26  1  0  0  0
  7 29  1  0  0  0
  8  9  1  0  0  0
  8 22  1  0  0  0
  9 10  1  0  0  0
  9 27  2  0  0  0
 10 11  2  0  0  0
 10 15  1  0  0  0
 11 12  1  0  0  0
 11 97  1  0  0  0
 12 13  2  0  0  0
 12 98  1  0  0  0
 13 14  1  0  0  0
 13 31  1  0  0  0
 14 15  2  0  0  0
 14 99  1  0  0  0
 15100  1  0  0  0
 16 17  2  0  0  0
 16 21  1  0  0  0
 16 31  1  0  0  0
 17 18  1  0  0  0
 17101  1  0  0  0
 18 19  2  0  0  0
 18102  1  0  0  0
 19 20  1  0  0  0
 19 24  1  0  0  0
 20 21  2  0  0  0
 20103  1  0  0  0
 21 23  1  0  0  0
 22 28  1  0  0  0
 22 32  2  0  0  0
 26 27  1  0  0  0
 28104  1  0  0  0
 28105  1  0  0  0
 29106  1  0  0  0
 29107  1  0  0  0
 33 34  1  0  0  0
 33 66  1  0  0  0
 33 70  2  0  0  0
 34 36  1  0  0  0
 34 59  1  0  0  0
 34108  1  0  0  0
 35 44  2  0  0  0
 35 45  1  0  0  0
 35 68  1  0  0  0
 36 56  1  0  0  0
 36109  1  0  0  0
 37 39  1  0  0  0
 37 47  1  0  0  0
 37 66  1  0  0  0
 37110  1  0  0  0
 38 43  2  0  0  0
 38 46  1  0  0  0
 38 47  1  0  0  0
 39 64  1  0  0  0
 39 67  2  0  0  0
 40 52  1  0  0  0
 40 53  2  0  0  0
 40 58  1  0  0  0
 41111  1  0  0  0
 41112  1  0  0  0
 41113  1  0  0  0
 41 48  1  0  0  0
 42 43  1  0  0  0
 42 66  1  0  0  0
 42114  1  0  0  0
 42115  1  0  0  0
 43 44  1  0  0  0
 44116  1  0  0  0
 45 46  2  0  0  0
 45117  1  0  0  0
 46118  1  0  0  0
 47119  1  0  0  0
 47120  1  0  0  0
 48 56  1  0  0  0
 48 65  1  0  0  0
 48121  1  0  0  0
 49 50  1  0  0  0
 49 53  1  0  0  0
 49 64  1  0  0  0
 49122  1  0  0  0
 50 51  1  0  0  0
 50123  1  0  0  0
 50124  1  0  0  0
 51 52  1  0  0  0
 51125  1  0  0  0
 51126  1  0  0  0
 52127  1  0  0  0
 52128  1  0  0  0
 53 54  1  0  0  0
 54 55  2  0  0  0
 54129  1  0  0  0
 55 57  1  0  0  0
 55130  1  0  0  0
 56 69  2  0  0  0
 57 58  2  0  0  0
 57131  1  0  0  0
 58132  1  0  0  0
 59 60  1  0  0  0
 59 61  1  0  0  0
 59 62  1  0  0  0
 60133  1  0  0  0
 60134  1  0  0  0
 60135  1  0  0  0
 61136  1  0  0  0
 61137  1  0  0  0
 61138  1  0  0  0
 62139  1  0  0  0
 62140  1  0  0  0
 62141  1  0  0  0
 63 65  1  0  0  0
 63142  1  0  0  0
 63143  1  0  0  0
 63144  1  0  0  0
 64145  1  0  0  0
 65146  1  0  0  0
 68 82  1  0  0  0
 71 73  2  0  0  0
 71 76  1  0  0  0
 71147  1  0  0  0
 72 75  1  0  0  0
 72 76  2  0  0  0
 72148  1  0  0  0
 73 74  1  0  0  0
 73 77  1  0  0  0
 74 75  2  0  0  0
 74 78  1  0  0  0
 75 85  1  0  0  0
 76 87  1  0  0  0
 77 84  1  0  0  0
 77 86  2  0  0  0
 78149  1  0  0  0
 78150  1  0  0  0
 78151  1  0  0  0
 79152  1  0  0  0
 79153  1  0  0  0
 79154  1  0  0  0
 79 83  1  0  0  0
 80 83  1  0  0  0
 80155  1  0  0  0
 80156  1  0  0  0
 80157  1  0  0  0
 81 83  1  0  0  0
 81 86  1  0  0  0
 81158  1  0  0  0
 81159  1  0  0  0
 82 83  1  0  0  0
 82160  1  0  0  0
 82161  1  0  0  0
 84162  1  0  0  0
 84163  1  0  0  0
 85164  1  0  0  0
 86165  1  0  0  0
M  CHG  1  86   1
M  ISO  4   1 100  68 101  82 101  85 100
M  END
> <chiral flag>
0

> <version>
0

> <s_m_source_file>
/data/baiqing/PycharmProjects/Reinvent-master-3.2/result/LINK_invent/BTK/process_docking_weight1_custom_product_contain_oxygen_bond_distance_aromatic_linkinvent_7_9_3/rearranged_h_0048.sdf

> <i_m_source_file_index>
37

> <r_mmod_Potential_Energy-OPLS-2005>
-271.036773681641

> <r_mmod_Stretch_Energy-OPLS-2005>
43.6391143798828

> <r_mmod_Bend_Energy-OPLS-2005>
102.440460205078

> <r_mmod_Torsional_Energy-OPLS-2005>
262.083618164062

> <r_mmod_Improper_Torsional_Energy-OPLS-2005>
5.9998893737793

> <r_mmod_Van_der_Waal_Energy-OPLS-2005>
168.283676147461

> <r_mmod_Electrostatic_Energy-OPLS-2005>
-450.691070556641

> <r_mmod_Solvation_Energy-OPLS-2005>
-421.941467285156

> <b_mmod_Minimization_Converged-OPLS-2005>
0

> <r_mmod_RMS_Derivative-OPLS-2005>
4.64762878417969

$$$$
37
                    3D
 Structure written by MMmdl.
161170  0  0  1  0            999 V2000
  -30.5727  -14.7006   20.4717 C   0  0  0  0  0  0
  -30.4402  -12.4262   19.4571 C   0  0  0  0  0  0
  -29.5072  -12.5176   18.2277 C   0  0  0  0  0  0
  -28.0314  -12.3387   18.6386 C   0  0  0  0  0  0
  -27.6458  -13.2051   19.8658 C   0  0  2  0  0  0
  -28.6935  -13.0831   20.9935 C   0  0  0  0  0  0
  -25.2518  -13.8111   20.5720 C   0  0  0  0  0  0
  -24.1800  -13.0373   20.9218 C   0  0  0  0  0  0
  -24.6377  -11.6851   20.8763 C   0  0  0  0  0  0
  -23.9049  -10.4250   21.0414 C   0  0  0  0  0  0
  -24.3617   -9.4170   21.9194 C   0  0  0  0  0  0
  -23.6288   -8.2213   22.0760 C   0  0  0  0  0  0
  -22.4262   -8.0265   21.3550 C   0  0  0  0  0  0
  -21.9890   -9.0228   20.4640 C   0  0  0  0  0  0
  -22.7220  -10.2107   20.3049 C   0  0  0  0  0  0
  -21.6846   -6.0719   22.5289 C   0  0  0  0  0  0
  -21.4001   -6.5629   23.8213 C   0  0  0  0  0  0
  -21.3667   -5.6783   24.9184 C   0  0  0  0  0  0
  -21.6058   -4.3045   24.7241 C   0  0  0  0  0  0
  -21.8812   -3.8134   23.4354 C   0  0  0  0  0  0
  -21.9184   -4.6946   22.3407 C   0  0  0  0  0  0
  -22.7826  -13.5175   21.1888 C   0  0  0  0  0  0
  -22.1656   -4.2139   21.0982 F   0  0  0  0  0  0
  -21.5647   -3.4520   25.7753 F   0  0  0  0  0  0
  -29.9980  -13.4539   20.4235 N   0  0  0  0  0  0
  -26.2938  -12.9278   20.3334 N   0  0  0  0  0  0
  -25.9293  -11.6440   20.5770 N   0  0  0  0  0  0
  -22.0488  -12.8169   22.0454 N   0  0  0  0  0  0
  -25.4128  -15.1840   20.4179 N   0  0  0  0  0  0
  -31.7447  -14.8691   20.1187 O   0  0  0  0  0  0
  -21.6635   -6.8857   21.4254 O   0  0  0  0  0  0
  -22.3500  -14.5473   20.6726 O   0  0  0  0  0  0
  -24.6265  -31.8599   23.1996 C   0  0  0  0  0  0
  -25.9103  -32.4778   23.8341 C   0  0  1  0  0  0
  -27.2256  -27.3059   20.1308 C   0  0  0  0  0  0
  -25.5907  -33.8577   24.2265 N   0  0  0  0  0  0
  -23.4221  -30.4814   21.5425 C   0  0  2  0  0  0
  -24.8714  -28.9297   20.1130 C   0  0  0  0  0  0
  -22.7478  -29.4642   22.4931 C   0  0  0  0  0  0
  -18.0288  -28.1394   22.8489 C   0  0  0  0  0  0
  -24.1491  -36.7295   23.2642 C   0  0  0  0  0  0
  -25.9638  -30.7878   21.3733 C   0  0  0  0  0  0
  -26.0401  -29.4132   20.7157 C   0  0  0  0  0  0
  -27.2243  -28.6139   20.7113 C   0  0  0  0  0  0
  -26.0381  -26.8782   19.5003 C   0  0  0  0  0  0
  -24.8715  -27.6679   19.4972 C   0  0  0  0  0  0
  -23.6394  -29.8115   20.1597 C   0  0  0  0  0  0
  -25.4116  -36.3088   24.0329 C   0  0  1  0  0  0
  -20.5891  -28.3711   23.1277 C   0  0  2  0  0  0
  -20.6784  -26.9432   22.5416 C   0  0  0  0  0  0
  -19.5756  -26.6398   21.5220 C   0  0  0  0  0  0
  -18.1930  -26.7940   22.1631 C   0  0  0  0  0  0
  -19.1542  -28.8862   23.2883 C   0  0  0  0  0  0
  -18.9471  -30.1460   23.8905 C   0  0  0  0  0  0
  -17.6471  -30.6600   24.0563 C   0  0  0  0  0  0
  -25.9056  -34.9455   23.5108 C   0  0  0  0  0  0
  -16.5359  -29.9100   23.6326 C   0  0  0  0  0  0
  -16.7277  -28.6513   23.0356 C   0  0  0  0  0  0
  -26.4471  -31.6586   25.0715 C   0  0  0  0  0  0
  -25.3696  -31.3722   26.1436 C   0  0  0  0  0  0
  -27.0311  -30.3007   24.6180 C   0  0  0  0  0  0
  -27.6037  -32.4315   25.7481 C   0  0  0  0  0  0
  -27.5585  -37.1799   24.8463 C   0  0  0  0  0  0
  -21.4195  -29.3058   22.3663 N   0  0  0  0  0  0
  -26.4293  -37.3786   23.9407 N   0  0  0  0  0  0
  -24.6892  -31.0589   22.0964 N   0  0  0  0  0  0
  -23.4183  -28.8195   23.3037 O   0  0  0  0  0  0
  -28.3270  -26.4334   20.1599 O   0  0  0  0  0  0
  -26.5647  -34.8919   22.4688 O   0  0  0  0  0  0
  -23.5427  -32.1400   23.7312 O   0  0  0  0  0  0
  -28.7205  -19.1700   19.3142 C   0  0  0  0  0  0
  -30.6124  -18.1381   21.0688 C   0  0  0  0  0  0
  -29.6082  -20.1210   19.8907 C   0  0  0  0  0  0
  -29.7585  -17.1901   20.4363 C   0  0  0  0  0  0
  -30.5545  -19.5499   20.7979 C   0  0  0  0  0  0
  -28.7920  -17.7667   19.5628 C   0  0  0  0  0  0
  -30.6988  -23.4170   20.8465 C   0  0  0  0  0  0
  -31.9566  -22.9511   20.7363 C   0  0  0  0  0  0
  -30.3629  -24.6053   21.7506 C   0  0  0  0  0  0
  -28.8816  -24.8732   22.0189 C   0  0  0  0  0  0
  -28.2815  -23.7380   19.8597 C   0  0  0  0  0  0
  -28.1088  -25.0666   20.7188 C   0  0  2  0  0  0
  -29.6655  -21.5830   19.2442 C   0  0  0  0  0  0
  -29.7245  -15.7481   20.7599 N   0  0  0  0  0  0
  -29.6030  -22.9789   19.8961 N   0  3  2  0  0  0
  -31.4589  -20.3388   21.4164 F   0  0  0  0  0  0
  -27.6789  -16.7597   18.7156 Cl  0  0  0  0  0  0
  -31.4808  -12.5634   19.1566 H   0  0  0  0  0  0
  -30.3866  -11.4351   19.9077 H   0  0  0  0  0  0
  -29.7806  -11.7654   17.4873 H   0  0  0  0  0  0
  -29.6357  -13.4879   17.7446 H   0  0  0  0  0  0
  -27.8767  -11.2840   18.8673 H   0  0  0  0  0  0
  -27.3758  -12.5689   17.7968 H   0  0  0  0  0  0
  -27.6521  -14.2320   19.5197 H   0  0  0  0  0  0
  -28.7276  -12.0602   21.3724 H   0  0  0  0  0  0
  -28.4326  -13.7118   21.8460 H   0  0  0  0  0  0
  -25.2773   -9.5642   22.4764 H   0  0  0  0  0  0
  -24.0001   -7.4589   22.7458 H   0  0  0  0  0  0
  -21.0832   -8.8720   19.8936 H   0  0  0  0  0  0
  -22.3684  -10.9643   19.6151 H   0  0  0  0  0  0
  -21.1988   -7.6138   23.9707 H   0  0  0  0  0  0
  -21.1508   -6.0531   25.9085 H   0  0  0  0  0  0
  -22.0591   -2.7599   23.2865 H   0  0  0  0  0  0
  -22.4124  -11.9843   22.4844 H   0  0  0  0  0  0
  -21.1102  -13.1164   22.2668 H   0  0  0  0  0  0
  -24.6261  -15.8166   20.5070 H   0  0  0  0  0  0
  -26.2234  -15.6239   19.9976 H   0  0  0  0  0  0
  -26.7173  -32.5448   23.1097 H   0  0  0  0  0  0
  -24.9964  -33.9724   25.0346 H   0  0  0  0  0  0
  -22.7168  -31.3013   21.3950 H   0  0  0  0  0  0
  -23.3762  -35.9624   23.3306 H   0  0  0  0  0  0
  -24.3580  -36.8920   22.2060 H   0  0  0  0  0  0
  -23.7234  -37.6489   23.6665 H   0  0  0  0  0  0
  -26.0948  -31.5513   20.6047 H   0  0  0  0  0  0
  -26.8428  -30.8370   22.0039 H   0  0  0  0  0  0
  -28.1238  -28.9820   21.1851 H   0  0  0  0  0  0
  -26.0002  -25.9096   19.0222 H   0  0  0  0  0  0
  -23.9740  -27.2900   19.0265 H   0  0  0  0  0  0
  -23.7597  -30.5861   19.4012 H   0  0  0  0  0  0
  -22.7585  -29.2408   19.8580 H   0  0  0  0  0  0
  -25.1302  -36.1946   25.0825 H   0  0  0  0  0  0
  -20.9974  -28.3299   24.1401 H   0  0  0  0  0  0
  -20.5684  -26.2333   23.3626 H   0  0  0  0  0  0
  -21.6656  -26.7464   22.1206 H   0  0  0  0  0  0
  -19.6919  -25.6299   21.1268 H   0  0  0  0  0  0
  -19.6690  -27.3201   20.6737 H   0  0  0  0  0  0
  -17.4205  -26.6689   21.4032 H   0  0  0  0  0  0
  -18.0321  -26.0072   22.9018 H   0  0  0  0  0  0
  -19.7950  -30.7274   24.2284 H   0  0  0  0  0  0
  -17.5031  -31.6283   24.5169 H   0  0  0  0  0  0
  -15.5360  -30.3015   23.7641 H   0  0  0  0  0  0
  -15.8676  -28.0833   22.7079 H   0  0  0  0  0  0
  -24.5854  -30.7103   25.7738 H   0  0  0  0  0  0
  -24.8909  -32.2893   26.4887 H   0  0  0  0  0  0
  -25.8003  -30.8858   27.0201 H   0  0  0  0  0  0
  -26.2896  -29.6763   24.1191 H   0  0  0  0  0  0
  -27.3978  -29.7254   25.4690 H   0  0  0  0  0  0
  -27.8778  -30.4274   23.9429 H   0  0  0  0  0  0
  -27.2648  -33.3595   26.2097 H   0  0  0  0  0  0
  -28.3826  -32.6912   25.0300 H   0  0  0  0  0  0
  -28.0736  -31.8422   26.5365 H   0  0  0  0  0  0
  -28.2603  -38.0095   24.7520 H   0  0  0  0  0  0
  -28.1082  -36.2632   24.6284 H   0  0  0  0  0  0
  -27.2308  -37.1445   25.8866 H   0  0  0  0  0  0
  -20.9372  -29.8741   21.6839 H   0  0  0  0  0  0
  -26.0184  -38.2866   24.1406 H   0  0  0  0  0  0
  -27.9933  -19.5058   18.5883 H   0  0  0  0  0  0
  -31.3385  -17.7848   21.7842 H   0  0  0  0  0  0
  -32.7387  -23.3480   21.3671 H   0  0  0  0  0  0
  -32.2479  -22.1855   20.0337 H   0  0  0  0  0  0
  -30.8065  -25.4943   21.2991 H   0  0  0  0  0  0
  -30.8785  -24.4696   22.7021 H   0  0  0  0  0  0
  -28.7622  -25.7444   22.6631 H   0  0  0  0  0  0
  -28.4667  -24.0285   22.5716 H   0  0  0  0  0  0
  -28.0178  -23.9456   18.8231 H   0  0  0  0  0  0
  -27.5304  -23.0308   20.2132 H   0  0  0  0  0  0
  -27.0647  -25.0445   21.0325 H   0  0  0  0  0  0
  -28.9001  -21.6059   18.4664 H   0  0  0  0  0  0
  -30.5866  -21.5795   18.6643 H   0  0  0  0  0  0
  -28.7993  -15.4121   20.9798 H   0  0  0  0  0  0
  -29.9279  -23.4411   19.0592 H   0  0  0  0  0  0
  1 25  1  0  0  0
  1 30  2  0  0  0
  1 84  1  0  0  0
  2  3  1  0  0  0
  2 25  1  0  0  0
  2 88  1  0  0  0
  2 89  1  0  0  0
  3  4  1  0  0  0
  3 90  1  0  0  0
  3 91  1  0  0  0
  4  5  1  0  0  0
  4 92  1  0  0  0
  4 93  1  0  0  0
  5  6  1  0  0  0
  5 26  1  0  0  0
  5 94  1  0  0  0
  6 25  1  0  0  0
  6 95  1  0  0  0
  6 96  1  0  0  0
  7  8  2  0  0  0
  7 26  1  0  0  0
  7 29  1  0  0  0
  8  9  1  0  0  0
  8 22  1  0  0  0
  9 10  1  0  0  0
  9 27  2  0  0  0
 10 11  2  0  0  0
 10 15  1  0  0  0
 11 12  1  0  0  0
 11 97  1  0  0  0
 12 13  2  0  0  0
 12 98  1  0  0  0
 13 14  1  0  0  0
 13 31  1  0  0  0
 14 15  2  0  0  0
 14 99  1  0  0  0
 15100  1  0  0  0
 16 17  2  0  0  0
 16 21  1  0  0  0
 16 31  1  0  0  0
 17 18  1  0  0  0
 17101  1  0  0  0
 18 19  2  0  0  0
 18102  1  0  0  0
 19 20  1  0  0  0
 19 24  1  0  0  0
 20 21  2  0  0  0
 20103  1  0  0  0
 21 23  1  0  0  0
 22 28  1  0  0  0
 22 32  2  0  0  0
 26 27  1  0  0  0
 28104  1  0  0  0
 28105  1  0  0  0
 29106  1  0  0  0
 29107  1  0  0  0
 33 34  1  0  0  0
 33 66  1  0  0  0
 33 70  2  0  0  0
 34 36  1  0  0  0
 34 59  1  0  0  0
 34108  1  0  0  0
 35 44  2  0  0  0
 35 45  1  0  0  0
 35 68  1  0  0  0
 36 56  1  0  0  0
 36109  1  0  0  0
 37 39  1  0  0  0
 37 47  1  0  0  0
 37 66  1  0  0  0
 37110  1  0  0  0
 38 43  2  0  0  0
 38 46  1  0  0  0
 38 47  1  0  0  0
 39 64  1  0  0  0
 39 67  2  0  0  0
 40 52  1  0  0  0
 40 53  2  0  0  0
 40 58  1  0  0  0
 41111  1  0  0  0
 41112  1  0  0  0
 41113  1  0  0  0
 41 48  1  0  0  0
 42 43  1  0  0  0
 42 66  1  0  0  0
 42114  1  0  0  0
 42115  1  0  0  0
 43 44  1  0  0  0
 44116  1  0  0  0
 45 46  2  0  0  0
 45117  1  0  0  0
 46118  1  0  0  0
 47119  1  0  0  0
 47120  1  0  0  0
 48 56  1  0  0  0
 48 65  1  0  0  0
 48121  1  0  0  0
 49 50  1  0  0  0
 49 53  1  0  0  0
 49 64  1  0  0  0
 49122  1  0  0  0
 50 51  1  0  0  0
 50123  1  0  0  0
 50124  1  0  0  0
 51 52  1  0  0  0
 51125  1  0  0  0
 51126  1  0  0  0
 52127  1  0  0  0
 52128  1  0  0  0
 53 54  1  0  0  0
 54 55  2  0  0  0
 54129  1  0  0  0
 55 57  1  0  0  0
 55130  1  0  0  0
 56 69  2  0  0  0
 57 58  2  0  0  0
 57131  1  0  0  0
 58132  1  0  0  0
 59 60  1  0  0  0
 59 61  1  0  0  0
 59 62  1  0  0  0
 60133  1  0  0  0
 60134  1  0  0  0
 60135  1  0  0  0
 61136  1  0  0  0
 61137  1  0  0  0
 61138  1  0  0  0
 62139  1  0  0  0
 62140  1  0  0  0
 62141  1  0  0  0
 63 65  1  0  0  0
 63142  1  0  0  0
 63143  1  0  0  0
 63144  1  0  0  0
 64145  1  0  0  0
 65146  1  0  0  0
 68 82  1  0  0  0
 71 73  2  0  0  0
 71 76  1  0  0  0
 71147  1  0  0  0
 72 74  1  0  0  0
 72 75  2  0  0  0
 72148  1  0  0  0
 73 75  1  0  0  0
 73 83  1  0  0  0
 74 76  2  0  0  0
 74 84  1  0  0  0
 75 86  1  0  0  0
 76 87  1  0  0  0
 77 78  2  0  0  0
 77 79  1  0  0  0
 77 85  1  0  0  0
 78149  1  0  0  0
 78150  1  0  0  0
 79 80  1  0  0  0
 79151  1  0  0  0
 79152  1  0  0  0
 80 82  1  0  0  0
 80153  1  0  0  0
 80154  1  0  0  0
 81 82  1  0  0  0
 81 85  1  0  0  0
 81155  1  0  0  0
 81156  1  0  0  0
 82157  1  0  0  0
 83158  1  0  0  0
 83159  1  0  0  0
 83 85  1  0  0  0
 84160  1  0  0  0
 85161  1  0  0  0
M  CHG  1  85   1
M  ISO  4   1 100  68 101  82 101  84 100
M  END
> <chiral flag>
0

> <version>
0

> <s_m_source_file>
/data/baiqing/PycharmProjects/Reinvent-master-3.2/result/LINK_invent/BTK/process_docking_weight1_custom_product_contain_oxygen_bond_distance_aromatic_linkinvent_7_9_3/rearranged_h_0048.sdf

> <i_m_source_file_index>
38

> <r_mmod_Potential_Energy-OPLS-2005>
85.8307342529297

> <r_mmod_Stretch_Energy-OPLS-2005>
99.1681594848633

> <r_mmod_Bend_Energy-OPLS-2005>
242.892654418945

> <r_mmod_Torsional_Energy-OPLS-2005>
291.4931640625

> <r_mmod_Improper_Torsional_Energy-OPLS-2005>
8.91909217834473

> <r_mmod_Van_der_Waal_Energy-OPLS-2005>
140.194366455078

> <r_mmod_Electrostatic_Energy-OPLS-2005>
-332.692047119141

> <r_mmod_Solvation_Energy-OPLS-2005>
-428.568908691406

> <b_mmod_Minimization_Converged-OPLS-2005>
0

> <r_mmod_RMS_Derivative-OPLS-2005>
2.70310711860657

$$$$
38
                    3D
 Structure written by MMmdl.
157165  0  0  1  0            999 V2000
  -30.7455  -14.4052   20.6999 C   0  0  0  0  0  0
  -30.4283  -12.3409   19.3793 C   0  0  0  0  0  0
  -29.4762  -12.5459   18.1838 C   0  0  0  0  0  0
  -28.0069  -12.3747   18.6133 C   0  0  0  0  0  0
  -27.6640  -13.1945   19.8837 C   0  0  2  0  0  0
  -28.7083  -12.9269   20.9896 C   0  0  0  0  0  0
  -25.2609  -13.8115   20.5697 C   0  0  0  0  0  0
  -24.1843  -13.0412   20.9166 C   0  0  0  0  0  0
  -24.6377  -11.6878   20.8749 C   0  0  0  0  0  0
  -23.9036  -10.4279   21.0422 C   0  0  0  0  0  0
  -24.3590   -9.4201   21.9209 C   0  0  0  0  0  0
  -23.6269   -8.2236   22.0769 C   0  0  0  0  0  0
  -22.4263   -8.0267   21.3534 C   0  0  0  0  0  0
  -21.9888   -9.0244   20.4646 C   0  0  0  0  0  0
  -22.7207  -10.2131   20.3067 C   0  0  0  0  0  0
  -21.6844   -6.0728   22.5275 C   0  0  0  0  0  0
  -21.4010   -6.5629   23.8211 C   0  0  0  0  0  0
  -21.3652   -5.6779   24.9166 C   0  0  0  0  0  0
  -21.6054   -4.3049   24.7222 C   0  0  0  0  0  0
  -21.8809   -3.8136   23.4343 C   0  0  0  0  0  0
  -21.9190   -4.6955   22.3400 C   0  0  0  0  0  0
  -22.7877  -13.5237   21.1830 C   0  0  0  0  0  0
  -22.1657   -4.2135   21.0985 F   0  0  0  0  0  0
  -21.5640   -3.4544   25.7743 F   0  0  0  0  0  0
  -30.0376  -13.2696   20.4538 N   0  0  0  0  0  0
  -26.3043  -12.9267   20.3416 N   0  0  0  0  0  0
  -25.9302  -11.6430   20.5772 N   0  0  0  0  0  0
  -22.0480  -12.8258   22.0372 N   0  0  0  0  0  0
  -25.4322  -15.1841   20.4146 N   0  0  0  0  0  0
  -31.7887  -14.6850   20.1015 O   0  0  0  0  0  0
  -21.6624   -6.8863   21.4232 O   0  0  0  0  0  0
  -22.3581  -14.5532   20.6652 O   0  0  0  0  0  0
  -24.6136  -31.8700   23.2082 C   0  0  0  0  0  0
  -25.9023  -32.4833   23.8390 C   0  0  1  0  0  0
  -27.2211  -27.4319   20.1093 C   0  0  0  0  0  0
  -25.5901  -33.8640   24.2329 N   0  0  0  0  0  0
  -23.4013  -30.4898   21.5485 C   0  0  2  0  0  0
  -24.8462  -28.9531   20.1148 C   0  0  0  0  0  0
  -22.7368  -29.4694   22.5024 C   0  0  0  0  0  0
  -18.0296  -28.1356   22.8431 C   0  0  0  0  0  0
  -24.1489  -36.7328   23.2637 C   0  0  0  0  0  0
  -25.9264  -30.8332   21.3600 C   0  0  0  0  0  0
  -26.0052  -29.4650   20.7153 C   0  0  0  0  0  0
  -27.2006  -28.7114   20.7074 C   0  0  0  0  0  0
  -26.0575  -26.9356   19.4895 C   0  0  0  0  0  0
  -24.8685  -27.6912   19.4956 C   0  0  0  0  0  0
  -23.6087  -29.8179   20.1636 C   0  0  0  0  0  0
  -25.4108  -36.3119   24.0325 C   0  0  1  0  0  0
  -20.5870  -28.3664   23.1356 C   0  0  2  0  0  0
  -20.6803  -26.9397   22.5465 C   0  0  0  0  0  0
  -19.5886  -26.6453   21.5164 C   0  0  0  0  0  0
  -18.2024  -26.7925   22.1536 C   0  0  0  0  0  0
  -19.1537  -28.8794   23.2907 C   0  0  0  0  0  0
  -18.9430  -30.1401   23.8932 C   0  0  0  0  0  0
  -17.6420  -30.6544   24.0547 C   0  0  0  0  0  0
  -25.9036  -34.9476   23.5135 C   0  0  0  0  0  0
  -16.5327  -29.9060   23.6256 C   0  0  0  0  0  0
  -16.7264  -28.6495   23.0221 C   0  0  0  0  0  0
  -26.4449  -31.6622   25.0730 C   0  0  0  0  0  0
  -25.3708  -31.3722   26.1475 C   0  0  0  0  0  0
  -27.0282  -30.3069   24.6072 C   0  0  0  0  0  0
  -27.6023  -32.4339   25.7486 C   0  0  0  0  0  0
  -27.5581  -37.1815   24.8460 C   0  0  0  0  0  0
  -21.4106  -29.3085   22.3779 N   0  0  0  0  0  0
  -26.4294  -37.3786   23.9402 N   0  0  0  0  0  0
  -24.6655  -31.0767   22.0999 N   0  0  0  0  0  0
  -23.4161  -28.8268   23.3076 O   0  0  0  0  0  0
  -28.3523  -26.6516   20.1190 O   0  0  0  0  0  0
  -26.5596  -34.8920   22.4701 O   0  0  0  0  0  0
  -23.5337  -32.1471   23.7487 O   0  0  0  0  0  0
  -29.0572  -18.4720   21.1577 C   0  0  0  0  0  0
  -29.7502  -20.1984   22.7319 C   0  0  0  0  0  0
  -30.0042  -17.8334   23.3081 C   0  0  0  0  0  0
  -29.1785  -19.8407   21.4887 C   0  0  0  0  0  0
  -29.4363  -17.4630   22.0688 C   0  0  0  0  0  0
  -30.1691  -19.1971   23.6321 C   0  0  0  0  0  0
  -28.7200  -23.3400   20.9970 C   0  0  0  0  0  0
  -28.7037  -20.8881   20.4824 C   0  0  0  0  0  0
  -29.1652  -15.9989   21.7409 C   0  0  0  0  0  0
  -27.8731  -24.5540   21.4419 C   0  0  0  0  0  0
  -28.5680  -25.9492   21.3545 C   0  0  0  0  0  0
  -28.1454  -22.1240   21.0505 N   0  0  0  0  0  0
  -30.3621  -15.1546   21.7480 N   0  0  0  0  0  0
  -29.8766  -23.4896   20.6052 O   0  0  0  0  0  0
  -30.8582  -19.6405   25.1506 Cl  0  0  0  0  0  0
  -31.4627  -12.4863   19.0584 H   0  0  0  0  0  0
  -30.3719  -11.3143   19.7426 H   0  0  0  0  0  0
  -29.7187  -11.8436   17.3850 H   0  0  0  0  0  0
  -29.6176  -13.5429   17.7628 H   0  0  0  0  0  0
  -27.8359  -11.3143   18.8008 H   0  0  0  0  0  0
  -27.3381  -12.6546   17.7969 H   0  0  0  0  0  0
  -27.7128  -14.2457   19.6050 H   0  0  0  0  0  0
  -28.7051  -11.8699   21.2594 H   0  0  0  0  0  0
  -28.4544  -13.4465   21.9123 H   0  0  0  0  0  0
  -25.2742   -9.5679   22.4775 H   0  0  0  0  0  0
  -23.9972   -7.4627   22.7507 H   0  0  0  0  0  0
  -21.0807   -8.8736   19.8968 H   0  0  0  0  0  0
  -22.3648  -10.9656   19.6169 H   0  0  0  0  0  0
  -21.1987   -7.6138   23.9694 H   0  0  0  0  0  0
  -21.1494   -6.0527   25.9065 H   0  0  0  0  0  0
  -22.0601   -2.7602   23.2849 H   0  0  0  0  0  0
  -22.4062  -11.9945   22.4812 H   0  0  0  0  0  0
  -21.1112  -13.1329   22.2541 H   0  0  0  0  0  0
  -24.6655  -15.8380   20.5308 H   0  0  0  0  0  0
  -26.2810  -15.6285   20.0887 H   0  0  0  0  0  0
  -26.7107  -32.5531   23.1165 H   0  0  0  0  0  0
  -25.0040  -33.9806   25.0461 H   0  0  0  0  0  0
  -22.6901  -31.3070   21.4072 H   0  0  0  0  0  0
  -23.3738  -35.9679   23.3323 H   0  0  0  0  0  0
  -24.3563  -36.8921   22.2050 H   0  0  0  0  0  0
  -23.7253  -37.6543   23.6642 H   0  0  0  0  0  0
  -26.0320  -31.5947   20.5858 H   0  0  0  0  0  0
  -26.8218  -30.8951   21.9687 H   0  0  0  0  0  0
  -28.1012  -29.0983   21.1628 H   0  0  0  0  0  0
  -26.0682  -25.9618   19.0197 H   0  0  0  0  0  0
  -23.9831  -27.2993   19.0175 H   0  0  0  0  0  0
  -23.7134  -30.5907   19.4007 H   0  0  0  0  0  0
  -22.7316  -29.2337   19.8764 H   0  0  0  0  0  0
  -25.1287  -36.1984   25.0810 H   0  0  0  0  0  0
  -20.9898  -28.3186   24.1476 H   0  0  0  0  0  0
  -20.5590  -26.2297   23.3661 H   0  0  0  0  0  0
  -21.6703  -26.7405   22.1358 H   0  0  0  0  0  0
  -19.7129  -25.6394   21.1101 H   0  0  0  0  0  0
  -19.6838  -27.3378   20.6790 H   0  0  0  0  0  0
  -17.4385  -26.6598   21.3847 H   0  0  0  0  0  0
  -18.0446  -26.0036   22.8882 H   0  0  0  0  0  0
  -19.7928  -30.7158   24.2347 H   0  0  0  0  0  0
  -17.4971  -31.6190   24.5215 H   0  0  0  0  0  0
  -15.5321  -30.2893   23.7537 H   0  0  0  0  0  0
  -15.8695  -28.0847   22.6746 H   0  0  0  0  0  0
  -24.5858  -30.7093   25.7790 H   0  0  0  0  0  0
  -24.8932  -32.2899   26.4930 H   0  0  0  0  0  0
  -25.8061  -30.8865   27.0226 H   0  0  0  0  0  0
  -26.2835  -29.6827   24.1110 H   0  0  0  0  0  0
  -27.4071  -29.7268   25.4499 H   0  0  0  0  0  0
  -27.8656  -30.4397   23.9211 H   0  0  0  0  0  0
  -27.2623  -33.3615   26.2093 H   0  0  0  0  0  0
  -28.3807  -32.6939   25.0303 H   0  0  0  0  0  0
  -28.0714  -31.8453   26.5367 H   0  0  0  0  0  0
  -28.2607  -38.0108   24.7485 H   0  0  0  0  0  0
  -28.1072  -36.2628   24.6321 H   0  0  0  0  0  0
  -27.2289  -37.1496   25.8862 H   0  0  0  0  0  0
  -20.9271  -29.8846   21.7006 H   0  0  0  0  0  0
  -26.0201  -38.2875   24.1383 H   0  0  0  0  0  0
  -28.6350  -18.1953   20.2016 H   0  0  0  0  0  0
  -29.8616  -21.2371   23.0021 H   0  0  0  0  0  0
  -30.2886  -17.0782   24.0306 H   0  0  0  0  0  0
  -27.9257  -20.4354   19.8675 H   0  0  0  0  0  0
  -29.5265  -21.0998   19.7961 H   0  0  0  0  0  0
  -28.6574  -15.9419   20.7770 H   0  0  0  0  0  0
  -28.4538  -15.6309   22.4805 H   0  0  0  0  0  0
  -27.6016  -24.3780   22.4824 H   0  0  0  0  0  0
  -26.9338  -24.5637   20.8875 H   0  0  0  0  0  0
  -29.6451  -25.8575   21.4994 H   0  0  0  0  0  0
  -28.2361  -26.5602   22.1977 H   0  0  0  0  0  0
  -27.1915  -22.0641   21.3878 H   0  0  0  0  0  0
  -31.1423  -15.6331   22.1681 H   0  0  0  0  0  0
  1 25  1  0  0  0
  1 30  2  0  0  0
  1 83  1  0  0  0
  2  3  1  0  0  0
  2 25  1  0  0  0
  2 86  1  0  0  0
  2 87  1  0  0  0
  3  4  1  0  0  0
  3 88  1  0  0  0
  3 89  1  0  0  0
  4  5  1  0  0  0
  4 90  1  0  0  0
  4 91  1  0  0  0
  5  6  1  0  0  0
  5 26  1  0  0  0
  5 92  1  0  0  0
  6 25  1  0  0  0
  6 93  1  0  0  0
  6 94  1  0  0  0
  7  8  2  0  0  0
  7 26  1  0  0  0
  7 29  1  0  0  0
  8  9  1  0  0  0
  8 22  1  0  0  0
  9 10  1  0  0  0
  9 27  2  0  0  0
 10 11  2  0  0  0
 10 15  1  0  0  0
 11 12  1  0  0  0
 11 95  1  0  0  0
 12 13  2  0  0  0
 12 96  1  0  0  0
 13 14  1  0  0  0
 13 31  1  0  0  0
 14 15  2  0  0  0
 14 97  1  0  0  0
 15 98  1  0  0  0
 16 17  2  0  0  0
 16 21  1  0  0  0
 16 31  1  0  0  0
 17 18  1  0  0  0
 17 99  1  0  0  0
 18 19  2  0  0  0
 18100  1  0  0  0
 19 20  1  0  0  0
 19 24  1  0  0  0
 20 21  2  0  0  0
 20101  1  0  0  0
 21 23  1  0  0  0
 22 28  1  0  0  0
 22 32  2  0  0  0
 26 27  1  0  0  0
 28102  1  0  0  0
 28103  1  0  0  0
 29104  1  0  0  0
 29105  1  0  0  0
 33 34  1  0  0  0
 33 66  1  0  0  0
 33 70  2  0  0  0
 34 36  1  0  0  0
 34 59  1  0  0  0
 34106  1  0  0  0
 35 44  2  0  0  0
 35 45  1  0  0  0
 35 68  1  0  0  0
 36 56  1  0  0  0
 36107  1  0  0  0
 37 39  1  0  0  0
 37 47  1  0  0  0
 37 66  1  0  0  0
 37108  1  0  0  0
 38 43  2  0  0  0
 38 46  1  0  0  0
 38 47  1  0  0  0
 39 64  1  0  0  0
 39 67  2  0  0  0
 40 52  1  0  0  0
 40 53  2  0  0  0
 40 58  1  0  0  0
 41109  1  0  0  0
 41110  1  0  0  0
 41111  1  0  0  0
 41 48  1  0  0  0
 42 43  1  0  0  0
 42 66  1  0  0  0
 42112  1  0  0  0
 42113  1  0  0  0
 43 44  1  0  0  0
 44114  1  0  0  0
 45 46  2  0  0  0
 45115  1  0  0  0
 46116  1  0  0  0
 47117  1  0  0  0
 47118  1  0  0  0
 48 56  1  0  0  0
 48 65  1  0  0  0
 48119  1  0  0  0
 49 50  1  0  0  0
 49 53  1  0  0  0
 49 64  1  0  0  0
 49120  1  0  0  0
 50 51  1  0  0  0
 50121  1  0  0  0
 50122  1  0  0  0
 51 52  1  0  0  0
 51123  1  0  0  0
 51124  1  0  0  0
 52125  1  0  0  0
 52126  1  0  0  0
 53 54  1  0  0  0
 54 55  2  0  0  0
 54127  1  0  0  0
 55 57  1  0  0  0
 55128  1  0  0  0
 56 69  2  0  0  0
 57 58  2  0  0  0
 57129  1  0  0  0
 58130  1  0  0  0
 59 60  1  0  0  0
 59 61  1  0  0  0
 59 62  1  0  0  0
 60131  1  0  0  0
 60132  1  0  0  0
 60133  1  0  0  0
 61134  1  0  0  0
 61135  1  0  0  0
 61136  1  0  0  0
 62137  1  0  0  0
 62138  1  0  0  0
 62139  1  0  0  0
 63 65  1  0  0  0
 63140  1  0  0  0
 63141  1  0  0  0
 63142  1  0  0  0
 64143  1  0  0  0
 65144  1  0  0  0
 68 81  1  0  0  0
 71 74  2  0  0  0
 71 75  1  0  0  0
 71145  1  0  0  0
 72 74  1  0  0  0
 72 76  2  0  0  0
 72146  1  0  0  0
 73 75  2  0  0  0
 73 76  1  0  0  0
 73147  1  0  0  0
 74 78  1  0  0  0
 75 79  1  0  0  0
 76 85  1  0  0  0
 77 80  1  0  0  0
 77 82  1  0  0  0
 77 84  2  0  0  0
 78 82  1  0  0  0
 78148  1  0  0  0
 78149  1  0  0  0
 79 83  1  0  0  0
 79150  1  0  0  0
 79151  1  0  0  0
 80 81  1  0  0  0
 80152  1  0  0  0
 80153  1  0  0  0
 81154  1  0  0  0
 81155  1  0  0  0
 82156  1  0  0  0
 83157  1  0  0  0
M  ISO  4   1 100  68 101  81 101  83 100
M  END
> <chiral flag>
0

> <version>
0

> <s_m_source_file>
/data/baiqing/PycharmProjects/Reinvent-master-3.2/result/LINK_invent/BTK/process_docking_weight1_custom_product_contain_oxygen_bond_distance_aromatic_linkinvent_7_9_3/rearranged_h_0048.sdf

> <i_m_source_file_index>
39

> <r_mmod_Potential_Energy-OPLS-2005>
-162.074554443359

> <r_mmod_Stretch_Energy-OPLS-2005>
35.9500923156738

> <r_mmod_Bend_Energy-OPLS-2005>
98.0889434814453

> <r_mmod_Torsional_Energy-OPLS-2005>
265.381561279297

> <r_mmod_Improper_Torsional_Energy-OPLS-2005>
7.45641660690308

> <r_mmod_Van_der_Waal_Energy-OPLS-2005>
145.145309448242

> <r_mmod_Electrostatic_Energy-OPLS-2005>
-482.750610351562

> <r_mmod_Solvation_Energy-OPLS-2005>
-242.631378173828

> <b_mmod_Minimization_Converged-OPLS-2005>
0

> <r_mmod_RMS_Derivative-OPLS-2005>
5.59062767028809

$$$$
39
                    3D
 Structure written by MMmdl.
158167  0  0  1  0            999 V2000
  -30.5469  -15.0421   20.3877 C   0  0  0  0  0  0
  -30.4269  -12.6460   19.5137 C   0  0  0  0  0  0
  -29.5232  -12.5388   18.2645 C   0  0  0  0  0  0
  -28.0581  -12.3156   18.6817 C   0  0  0  0  0  0
  -27.6205  -13.2649   19.8286 C   0  0  2  0  0  0
  -28.6608  -13.3577   20.9654 C   0  0  0  0  0  0
  -25.2419  -13.8247   20.5728 C   0  0  0  0  0  0
  -24.1758  -13.0445   20.9240 C   0  0  0  0  0  0
  -24.6398  -11.6937   20.8762 C   0  0  0  0  0  0
  -23.9090  -10.4299   21.0406 C   0  0  0  0  0  0
  -24.3645   -9.4210   21.9178 C   0  0  0  0  0  0
  -23.6316   -8.2246   22.0749 C   0  0  0  0  0  0
  -22.4291   -8.0291   21.3546 C   0  0  0  0  0  0
  -21.9927   -9.0261   20.4646 C   0  0  0  0  0  0
  -22.7261  -10.2136   20.3054 C   0  0  0  0  0  0
  -21.6854   -6.0745   22.5279 C   0  0  0  0  0  0
  -21.4020   -6.5647   23.8214 C   0  0  0  0  0  0
  -21.3660   -5.6797   24.9174 C   0  0  0  0  0  0
  -21.6041   -4.3059   24.7225 C   0  0  0  0  0  0
  -21.8820   -3.8154   23.4345 C   0  0  0  0  0  0
  -21.9191   -4.6971   22.3401 C   0  0  0  0  0  0
  -22.7774  -13.5200   21.1889 C   0  0  0  0  0  0
  -22.1659   -4.2158   21.0978 F   0  0  0  0  0  0
  -21.5624   -3.4543   25.7737 F   0  0  0  0  0  0
  -29.9246  -13.7840   20.3511 N   0  0  0  0  0  0
  -26.2852  -12.9512   20.3231 N   0  0  0  0  0  0
  -25.9335  -11.6622   20.5739 N   0  0  0  0  0  0
  -22.0432  -12.8182   22.0446 N   0  0  0  0  0  0
  -25.4053  -15.1981   20.4165 N   0  0  0  0  0  0
  -31.7575  -14.9994   20.1535 O   0  0  0  0  0  0
  -21.6643   -6.8896   21.4246 O   0  0  0  0  0  0
  -22.3449  -14.5498   20.6729 O   0  0  0  0  0  0
  -24.6503  -31.8372   23.1814 C   0  0  0  0  0  0
  -25.9255  -32.4653   23.8220 C   0  0  1  0  0  0
  -27.2115  -27.0659   20.1568 C   0  0  0  0  0  0
  -25.5980  -33.8458   24.2143 N   0  0  0  0  0  0
  -23.4561  -30.4545   21.5280 C   0  0  2  0  0  0
  -24.9051  -28.8687   20.1074 C   0  0  0  0  0  0
  -22.7600  -29.4517   22.4830 C   0  0  0  0  0  0
  -18.0313  -28.1401   22.8471 C   0  0  0  0  0  0
  -24.1492  -36.7233   23.2641 C   0  0  0  0  0  0
  -26.0161  -30.6885   21.3894 C   0  0  0  0  0  0
  -26.0851  -29.2923   20.7319 C   0  0  0  0  0  0
  -27.2370  -28.4074   20.7386 C   0  0  0  0  0  0
  -26.0067  -26.7652   19.4832 C   0  0  0  0  0  0
  -24.8831  -27.6219   19.4654 C   0  0  0  0  0  0
  -23.6854  -29.7799   20.1490 C   0  0  0  0  0  0
  -25.4126  -36.3001   24.0309 C   0  0  1  0  0  0
  -20.5927  -28.3736   23.1220 C   0  0  2  0  0  0
  -20.6795  -26.9434   22.5402 C   0  0  0  0  0  0
  -19.5768  -26.6384   21.5210 C   0  0  0  0  0  0
  -18.1948  -26.7938   22.1620 C   0  0  0  0  0  0
  -19.1569  -28.8887   23.2836 C   0  0  0  0  0  0
  -18.9488  -30.1480   23.8866 C   0  0  0  0  0  0
  -17.6485  -30.6598   24.0556 C   0  0  0  0  0  0
  -25.9089  -34.9383   23.5037 C   0  0  0  0  0  0
  -16.5376  -29.9089   23.6337 C   0  0  0  0  0  0
  -16.7296  -28.6506   23.0356 C   0  0  0  0  0  0
  -26.4550  -31.6540   25.0686 C   0  0  0  0  0  0
  -25.3725  -31.3757   26.1376 C   0  0  0  0  0  0
  -27.0422  -30.2926   24.6313 C   0  0  0  0  0  0
  -27.6059  -32.4322   25.7487 C   0  0  0  0  0  0
  -27.5572  -37.1770   24.8466 C   0  0  0  0  0  0
  -21.4284  -29.3049   22.3584 N   0  0  0  0  0  0
  -26.4278  -37.3728   23.9414 N   0  0  0  0  0  0
  -24.7278  -31.0165   22.0878 N   0  0  0  0  0  0
  -23.4215  -28.8078   23.3012 O   0  0  0  0  0  0
  -28.2370  -26.0322   20.2456 O   0  0  0  0  0  0
  -26.5672  -34.8902   22.4616 O   0  0  0  0  0  0
  -23.5611  -32.1277   23.7001 O   0  0  0  0  0  0
  -30.2902  -18.8682   17.7644 C   0  0  0  0  0  0
  -31.4890  -18.4542   18.3835 C   0  0  0  0  0  0
  -29.1611  -19.1363   18.5679 C   0  0  0  0  0  0
  -31.4633  -18.0076   19.7236 C   0  0  0  0  0  0
  -29.3097  -19.0100   19.9637 C   0  0  0  0  0  0
  -30.1933  -17.8239   20.3226 C   0  0  0  0  0  0
  -28.7160  -23.2503   20.8219 C   0  0  0  0  0  0
  -28.1294  -23.8580   18.6490 C   0  0  0  0  0  0
  -28.2943  -22.2929   18.8158 C   0  0  0  0  0  0
  -27.9493  -24.4787   20.0477 C   0  0  2  0  0  0
  -32.7626  -17.6663   20.4284 C   0  0  0  0  0  0
  -29.1980  -20.5140   20.7147 C   0  0  0  0  0  0
  -28.7700  -21.9862   20.1761 N   0  0  0  0  0  0
  -29.8262  -16.3012   20.4834 N   0  0  0  0  0  0
  -29.1670  -23.4246   21.9576 O   0  0  0  0  0  0
  -31.4635  -12.7827   19.2030 H   0  0  0  0  0  0
  -30.4137  -11.7140   20.0809 H   0  0  0  0  0  0
  -29.8592  -11.7268   17.6178 H   0  0  0  0  0  0
  -29.6035  -13.4531   17.6751 H   0  0  0  0  0  0
  -27.9666  -11.2798   19.0090 H   0  0  0  0  0  0
  -27.3956  -12.4236   17.8216 H   0  0  0  0  0  0
  -27.5637  -14.2536   19.3714 H   0  0  0  0  0  0
  -28.7692  -12.4046   21.4843 H   0  0  0  0  0  0
  -28.3463  -14.0870   21.7132 H   0  0  0  0  0  0
  -25.2795   -9.5686   22.4748 H   0  0  0  0  0  0
  -24.0027   -7.4636   22.7464 H   0  0  0  0  0  0
  -21.0853   -8.8787   19.8957 H   0  0  0  0  0  0
  -22.3721  -10.9677   19.6166 H   0  0  0  0  0  0
  -21.2021   -7.6154   23.9729 H   0  0  0  0  0  0
  -21.1478   -6.0520   25.9078 H   0  0  0  0  0  0
  -22.0598   -2.7616   23.2837 H   0  0  0  0  0  0
  -22.4068  -11.9858   22.4845 H   0  0  0  0  0  0
  -21.1042  -13.1181   22.2648 H   0  0  0  0  0  0
  -24.6328  -15.8465   20.5261 H   0  0  0  0  0  0
  -26.2452  -15.6417   20.0685 H   0  0  0  0  0  0
  -26.7315  -32.5236   23.0934 H   0  0  0  0  0  0
  -25.0112  -33.9547   25.0283 H   0  0  0  0  0  0
  -22.7626  -31.2828   21.3692 H   0  0  0  0  0  0
  -23.3760  -35.9558   23.3279 H   0  0  0  0  0  0
  -24.3581  -36.8892   22.2062 H   0  0  0  0  0  0
  -23.7245  -37.6421   23.6696 H   0  0  0  0  0  0
  -26.1789  -31.4389   20.6142 H   0  0  0  0  0  0
  -26.8842  -30.7412   22.0350 H   0  0  0  0  0  0
  -28.1319  -28.7237   21.2565 H   0  0  0  0  0  0
  -25.8966  -25.8148   18.9835 H   0  0  0  0  0  0
  -23.9840  -27.2949   18.9606 H   0  0  0  0  0  0
  -23.8285  -30.5517   19.3919 H   0  0  0  0  0  0
  -22.7973  -29.2275   19.8365 H   0  0  0  0  0  0
  -25.1318  -36.1805   25.0799 H   0  0  0  0  0  0
  -21.0015  -28.3334   24.1344 H   0  0  0  0  0  0
  -20.5683  -26.2355   23.3630 H   0  0  0  0  0  0
  -21.6664  -26.7433   22.1206 H   0  0  0  0  0  0
  -19.6932  -25.6287   21.1261 H   0  0  0  0  0  0
  -19.6703  -27.3175   20.6723 H   0  0  0  0  0  0
  -17.4220  -26.6677   21.4024 H   0  0  0  0  0  0
  -18.0350  -26.0092   22.9027 H   0  0  0  0  0  0
  -19.7967  -30.7295   24.2227 H   0  0  0  0  0  0
  -17.5043  -31.6274   24.5164 H   0  0  0  0  0  0
  -15.5373  -30.2981   23.7681 H   0  0  0  0  0  0
  -15.8696  -28.0812   22.7093 H   0  0  0  0  0  0
  -24.5915  -30.7086   25.7710 H   0  0  0  0  0  0
  -24.8906  -32.2948   26.4717 H   0  0  0  0  0  0
  -25.8010  -30.8996   27.0205 H   0  0  0  0  0  0
  -26.3053  -29.6631   24.1311 H   0  0  0  0  0  0
  -27.4004  -29.7245   25.4908 H   0  0  0  0  0  0
  -27.8974  -30.4138   23.9661 H   0  0  0  0  0  0
  -27.2633  -33.3649   26.1980 H   0  0  0  0  0  0
  -28.3923  -32.6839   25.0358 H   0  0  0  0  0  0
  -28.0665  -31.8504   26.5481 H   0  0  0  0  0  0
  -28.2575  -38.0078   24.7521 H   0  0  0  0  0  0
  -28.1082  -36.2610   24.6281 H   0  0  0  0  0  0
  -27.2297  -37.1408   25.8871 H   0  0  0  0  0  0
  -20.9512  -29.8751   21.6740 H   0  0  0  0  0  0
  -26.0133  -38.2790   24.1423 H   0  0  0  0  0  0
  -30.2862  -19.1441   16.7187 H   0  0  0  0  0  0
  -32.4153  -18.4587   17.8258 H   0  0  0  0  0  0
  -28.3745  -19.7354   18.1365 H   0  0  0  0  0  0
  -27.2985  -24.0979   17.9857 H   0  0  0  0  0  0
  -29.0285  -24.2718   18.1908 H   0  0  0  0  0  0
  -28.9897  -21.9107   18.0682 H   0  0  0  0  0  0
  -27.3341  -21.7984   18.6647 H   0  0  0  0  0  0
  -26.9118  -24.3307   20.3486 H   0  0  0  0  0  0
  -33.3612  -16.9737   19.8368 H   0  0  0  0  0  0
  -32.5818  -17.2283   21.4110 H   0  0  0  0  0  0
  -33.3521  -18.5718   20.5712 H   0  0  0  0  0  0
  -30.1824  -20.6660   21.1584 H   0  0  0  0  0  0
  -28.5460  -20.3376   21.5704 H   0  0  0  0  0  0
  -28.8405  -16.1478   20.6344 H   0  0  0  0  0  0
  1 25  1  0  0  0
  1 30  2  0  0  0
  1 84  1  0  0  0
  2  3  1  0  0  0
  2 25  1  0  0  0
  2 86  1  0  0  0
  2 87  1  0  0  0
  3  4  1  0  0  0
  3 88  1  0  0  0
  3 89  1  0  0  0
  4  5  1  0  0  0
  4 90  1  0  0  0
  4 91  1  0  0  0
  5  6  1  0  0  0
  5 26  1  0  0  0
  5 92  1  0  0  0
  6 25  1  0  0  0
  6 93  1  0  0  0
  6 94  1  0  0  0
  7  8  2  0  0  0
  7 26  1  0  0  0
  7 29  1  0  0  0
  8  9  1  0  0  0
  8 22  1  0  0  0
  9 10  1  0  0  0
  9 27  2  0  0  0
 10 11  2  0  0  0
 10 15  1  0  0  0
 11 12  1  0  0  0
 11 95  1  0  0  0
 12 13  2  0  0  0
 12 96  1  0  0  0
 13 14  1  0  0  0
 13 31  1  0  0  0
 14 15  2  0  0  0
 14 97  1  0  0  0
 15 98  1  0  0  0
 16 17  2  0  0  0
 16 21  1  0  0  0
 16 31  1  0  0  0
 17 18  1  0  0  0
 17 99  1  0  0  0
 18 19  2  0  0  0
 18100  1  0  0  0
 19 20  1  0  0  0
 19 24  1  0  0  0
 20 21  2  0  0  0
 20101  1  0  0  0
 21 23  1  0  0  0
 22 28  1  0  0  0
 22 32  2  0  0  0
 26 27  1  0  0  0
 28102  1  0  0  0
 28103  1  0  0  0
 29104  1  0  0  0
 29105  1  0  0  0
 33 34  1  0  0  0
 33 66  1  0  0  0
 33 70  2  0  0  0
 34 36  1  0  0  0
 34 59  1  0  0  0
 34106  1  0  0  0
 35 44  2  0  0  0
 35 45  1  0  0  0
 35 68  1  0  0  0
 36 56  1  0  0  0
 36107  1  0  0  0
 37 39  1  0  0  0
 37 47  1  0  0  0
 37 66  1  0  0  0
 37108  1  0  0  0
 38 43  2  0  0  0
 38 46  1  0  0  0
 38 47  1  0  0  0
 39 64  1  0  0  0
 39 67  2  0  0  0
 40 52  1  0  0  0
 40 53  2  0  0  0
 40 58  1  0  0  0
 41109  1  0  0  0
 41110  1  0  0  0
 41111  1  0  0  0
 41 48  1  0  0  0
 42 43  1  0  0  0
 42 66  1  0  0  0
 42112  1  0  0  0
 42113  1  0  0  0
 43 44  1  0  0  0
 44114  1  0  0  0
 45 46  2  0  0  0
 45115  1  0  0  0
 46116  1  0  0  0
 47117  1  0  0  0
 47118  1  0  0  0
 48 56  1  0  0  0
 48 65  1  0  0  0
 48119  1  0  0  0
 49 50  1  0  0  0
 49 53  1  0  0  0
 49 64  1  0  0  0
 49120  1  0  0  0
 50 51  1  0  0  0
 50121  1  0  0  0
 50122  1  0  0  0
 51 52  1  0  0  0
 51123  1  0  0  0
 51124  1  0  0  0
 52125  1  0  0  0
 52126  1  0  0  0
 53 54  1  0  0  0
 54 55  2  0  0  0
 54127  1  0  0  0
 55 57  1  0  0  0
 55128  1  0  0  0
 56 69  2  0  0  0
 57 58  2  0  0  0
 57129  1  0  0  0
 58130  1  0  0  0
 59 60  1  0  0  0
 59 61  1  0  0  0
 59 62  1  0  0  0
 60131  1  0  0  0
 60132  1  0  0  0
 60133  1  0  0  0
 61134  1  0  0  0
 61135  1  0  0  0
 61136  1  0  0  0
 62137  1  0  0  0
 62138  1  0  0  0
 62139  1  0  0  0
 63 65  1  0  0  0
 63140  1  0  0  0
 63141  1  0  0  0
 63142  1  0  0  0
 64143  1  0  0  0
 65144  1  0  0  0
 68 80  1  0  0  0
 71 72  2  0  0  0
 71 73  1  0  0  0
 71145  1  0  0  0
 72 74  1  0  0  0
 72146  1  0  0  0
 73 75  2  0  0  0
 73147  1  0  0  0
 74 76  2  0  0  0
 74 81  1  0  0  0
 75 76  1  0  0  0
 75 82  1  0  0  0
 76 84  1  0  0  0
 77 80  1  0  0  0
 77 83  1  0  0  0
 77 85  2  0  0  0
 78 79  1  0  0  0
 78 80  1  0  0  0
 78148  1  0  0  0
 78149  1  0  0  0
 79 83  1  0  0  0
 79150  1  0  0  0
 79151  1  0  0  0
 80152  1  0  0  0
 81153  1  0  0  0
 81154  1  0  0  0
 81155  1  0  0  0
 82 83  1  0  0  0
 82156  1  0  0  0
 82157  1  0  0  0
 84158  1  0  0  0
M  ISO  4   1 100  68 101  80 101  84 100
M  END
> <chiral flag>
0

> <version>
0

> <s_m_source_file>
/data/baiqing/PycharmProjects/Reinvent-master-3.2/result/LINK_invent/BTK/process_docking_weight1_custom_product_contain_oxygen_bond_distance_aromatic_linkinvent_7_9_3/rearranged_h_0048.sdf

> <i_m_source_file_index>
40

> <r_mmod_Potential_Energy-OPLS-2005>
1005.76129150391

> <r_mmod_Stretch_Energy-OPLS-2005>
345.921630859375

> <r_mmod_Bend_Energy-OPLS-2005>
356.046752929688

> <r_mmod_Torsional_Energy-OPLS-2005>
487.058837890625

> <r_mmod_Improper_Torsional_Energy-OPLS-2005>
30.2638683319092

> <r_mmod_Van_der_Waal_Energy-OPLS-2005>
135.829849243164

> <r_mmod_Electrostatic_Energy-OPLS-2005>
-370.239837646484

> <r_mmod_Solvation_Energy-OPLS-2005>
-240.472702026367

> <b_mmod_Minimization_Converged-OPLS-2005>
0

> <r_mmod_RMS_Derivative-OPLS-2005>
1.15380334854126

$$$$
40
                    3D
 Structure written by MMmdl.
164173  0  0  1  0            999 V2000
  -30.6565  -14.6065   20.5123 C   0  0  0  0  0  0
  -30.4245  -12.3751   19.4452 C   0  0  0  0  0  0
  -29.5012  -12.5049   18.2157 C   0  0  0  0  0  0
  -28.0234  -12.3515   18.6279 C   0  0  0  0  0  0
  -27.6496  -13.2199   19.8591 C   0  0  2  0  0  0
  -28.6940  -13.0808   20.9883 C   0  0  0  0  0  0
  -25.2535  -13.8174   20.5673 C   0  0  0  0  0  0
  -24.1813  -13.0434   20.9197 C   0  0  0  0  0  0
  -24.6385  -11.6907   20.8727 C   0  0  0  0  0  0
  -23.9057  -10.4290   21.0400 C   0  0  0  0  0  0
  -24.3611   -9.4209   21.9179 C   0  0  0  0  0  0
  -23.6291   -8.2239   22.0747 C   0  0  0  0  0  0
  -22.4272   -8.0270   21.3541 C   0  0  0  0  0  0
  -21.9905   -9.0245   20.4645 C   0  0  0  0  0  0
  -22.7227  -10.2129   20.3052 C   0  0  0  0  0  0
  -21.6850   -6.0728   22.5281 C   0  0  0  0  0  0
  -21.4013   -6.5635   23.8213 C   0  0  0  0  0  0
  -21.3660   -5.6791   24.9174 C   0  0  0  0  0  0
  -21.6047   -4.3052   24.7228 C   0  0  0  0  0  0
  -21.8816   -3.8141   23.4348 C   0  0  0  0  0  0
  -21.9193   -4.6958   22.3402 C   0  0  0  0  0  0
  -22.7835  -13.5224   21.1866 C   0  0  0  0  0  0
  -22.1661   -4.2144   21.0979 F   0  0  0  0  0  0
  -21.5633   -3.4536   25.7741 F   0  0  0  0  0  0
  -30.0072  -13.4055   20.4158 N   0  0  0  0  0  0
  -26.2963  -12.9367   20.3292 N   0  0  0  0  0  0
  -25.9312  -11.6517   20.5731 N   0  0  0  0  0  0
  -22.0473  -12.8215   22.0419 N   0  0  0  0  0  0
  -25.4227  -15.1897   20.4071 N   0  0  0  0  0  0
  -31.8303  -14.7221   20.1484 O   0  0  0  0  0  0
  -21.6634   -6.8868   21.4238 O   0  0  0  0  0  0
  -22.3524  -14.5531   20.6715 O   0  0  0  0  0  0
  -24.6239  -31.8616   23.2041 C   0  0  0  0  0  0
  -25.9104  -32.4788   23.8366 C   0  0  1  0  0  0
  -27.2245  -27.3375   20.1136 C   0  0  0  0  0  0
  -25.5929  -33.8585   24.2296 N   0  0  0  0  0  0
  -23.4161  -30.4869   21.5455 C   0  0  2  0  0  0
  -24.8616  -28.9445   20.1114 C   0  0  0  0  0  0
  -22.7463  -29.4635   22.4926 C   0  0  0  0  0  0
  -18.0288  -28.1389   22.8482 C   0  0  0  0  0  0
  -24.1493  -36.7294   23.2639 C   0  0  0  0  0  0
  -25.9556  -30.7995   21.3716 C   0  0  0  0  0  0
  -26.0290  -29.4286   20.7132 C   0  0  0  0  0  0
  -27.2117  -28.6363   20.7046 C   0  0  0  0  0  0
  -26.0287  -26.8955   19.5002 C   0  0  0  0  0  0
  -24.8619  -27.6822   19.4986 C   0  0  0  0  0  0
  -23.6302  -29.8239   20.1596 C   0  0  0  0  0  0
  -25.4114  -36.3086   24.0334 C   0  0  1  0  0  0
  -20.5885  -28.3692   23.1283 C   0  0  2  0  0  0
  -20.6775  -26.9414   22.5413 C   0  0  0  0  0  0
  -19.5757  -26.6384   21.5210 C   0  0  0  0  0  0
  -18.1934  -26.7933   22.1616 C   0  0  0  0  0  0
  -19.1539  -28.8855   23.2879 C   0  0  0  0  0  0
  -18.9462  -30.1453   23.8902 C   0  0  0  0  0  0
  -17.6463  -30.6587   24.0564 C   0  0  0  0  0  0
  -25.9049  -34.9455   23.5109 C   0  0  0  0  0  0
  -16.5354  -29.9089   23.6324 C   0  0  0  0  0  0
  -16.7274  -28.6506   23.0345 C   0  0  0  0  0  0
  -26.4492  -31.6590   25.0728 C   0  0  0  0  0  0
  -25.3731  -31.3733   26.1460 C   0  0  0  0  0  0
  -27.0326  -30.3015   24.6170 C   0  0  0  0  0  0
  -27.6061  -32.4316   25.7496 C   0  0  0  0  0  0
  -27.5585  -37.1801   24.8459 C   0  0  0  0  0  0
  -21.4179  -29.3046   22.3675 N   0  0  0  0  0  0
  -26.4294  -37.3780   23.9410 N   0  0  0  0  0  0
  -24.6841  -31.0659   22.0975 N   0  0  0  0  0  0
  -23.4199  -28.8169   23.2992 O   0  0  0  0  0  0
  -28.3676  -26.5286   20.1661 O   0  0  0  0  0  0
  -26.5607  -34.8916   22.4669 O   0  0  0  0  0  0
  -23.5412  -32.1396   23.7388 O   0  0  0  0  0  0
  -31.5399  -17.3846   21.5836 C   0  0  0  0  0  0
  -29.4299  -18.2122   20.7214 C   0  0  0  0  0  0
  -31.9220  -18.7067   21.8840 C   0  0  0  0  0  0
  -29.7866  -19.5799   21.0081 C   0  0  0  0  0  0
  -30.2886  -17.0945   21.0036 C   0  0  0  0  0  0
  -31.0562  -19.7971   21.6174 C   0  0  0  0  0  0
  -29.6567  -22.8974   19.5369 C   0  0  0  0  0  0
  -30.0672  -22.2202   18.4487 C   0  0  0  0  0  0
  -29.7035  -24.4390   19.6849 C   0  0  0  0  0  0
  -27.4504  -24.1907   20.7716 C   0  0  0  0  0  0
  -28.2306  -23.1011   21.5888 C   0  0  0  0  0  0
  -28.3030  -25.0935   19.8252 C   0  0  1  0  0  0
  -33.2769  -18.9353   22.5349 C   0  0  0  0  0  0
  -28.7435  -20.7352   20.7345 C   0  0  0  0  0  0
  -29.8868  -15.7061   20.7961 N   0  0  0  0  0  0
  -29.1459  -22.2097   20.7915 N   0  3  1  0  0  0
  -31.5855  -21.3755   22.1011 Cl  0  0  0  0  0  0
  -31.4686  -12.4806   19.1457 H   0  0  0  0  0  0
  -30.3382  -11.3801   19.8853 H   0  0  0  0  0  0
  -29.7606  -11.7559   17.4661 H   0  0  0  0  0  0
  -29.6533  -13.4766   17.7424 H   0  0  0  0  0  0
  -27.8501  -11.2987   18.8529 H   0  0  0  0  0  0
  -27.3720  -12.5931   17.7871 H   0  0  0  0  0  0
  -27.6673  -14.2552   19.5184 H   0  0  0  0  0  0
  -28.6984  -12.0649   21.3851 H   0  0  0  0  0  0
  -28.4494  -13.7307   21.8301 H   0  0  0  0  0  0
  -25.2755   -9.5696   22.4754 H   0  0  0  0  0  0
  -24.0008   -7.4630   22.7464 H   0  0  0  0  0  0
  -21.0833   -8.8755   19.8952 H   0  0  0  0  0  0
  -22.3673  -10.9662   19.6162 H   0  0  0  0  0  0
  -21.1999   -7.6145   23.9716 H   0  0  0  0  0  0
  -21.1489   -6.0517   25.9081 H   0  0  0  0  0  0
  -22.0596   -2.7604   23.2844 H   0  0  0  0  0  0
  -22.4079  -11.9876   22.4817 H   0  0  0  0  0  0
  -21.1093  -13.1244   22.2618 H   0  0  0  0  0  0
  -24.6490  -15.8378   20.5071 H   0  0  0  0  0  0
  -26.2592  -15.6276   20.0438 H   0  0  0  0  0  0
  -26.7170  -32.5463   23.1114 H   0  0  0  0  0  0
  -25.0106  -33.9733   25.0463 H   0  0  0  0  0  0
  -22.7087  -31.3067   21.4046 H   0  0  0  0  0  0
  -23.3756  -35.9624   23.3297 H   0  0  0  0  0  0
  -24.3591  -36.8913   22.2054 H   0  0  0  0  0  0
  -23.7243  -37.6495   23.6659 H   0  0  0  0  0  0
  -26.0862  -31.5648   20.6053 H   0  0  0  0  0  0
  -26.8360  -30.8461   22.0009 H   0  0  0  0  0  0
  -28.1090  -29.0066   21.1806 H   0  0  0  0  0  0
  -25.9580  -25.9273   19.0297 H   0  0  0  0  0  0
  -23.9635  -27.3034   19.0311 H   0  0  0  0  0  0
  -23.7522  -30.6016   19.4047 H   0  0  0  0  0  0
  -22.7500  -29.2550   19.8549 H   0  0  0  0  0  0
  -25.1294  -36.1939   25.0828 H   0  0  0  0  0  0
  -20.9984  -28.3275   24.1401 H   0  0  0  0  0  0
  -20.5675  -26.2305   23.3615 H   0  0  0  0  0  0
  -21.6645  -26.7443   22.1213 H   0  0  0  0  0  0
  -19.6918  -25.6291   21.1252 H   0  0  0  0  0  0
  -19.6706  -27.3182   20.6733 H   0  0  0  0  0  0
  -17.4208  -26.6682   21.4012 H   0  0  0  0  0  0
  -18.0330  -26.0079   22.9016 H   0  0  0  0  0  0
  -19.7937  -30.7261   24.2287 H   0  0  0  0  0  0
  -17.5018  -31.6268   24.5166 H   0  0  0  0  0  0
  -15.5355  -30.2991   23.7647 H   0  0  0  0  0  0
  -15.8675  -28.0825   22.7058 H   0  0  0  0  0  0
  -24.5910  -30.7072   25.7796 H   0  0  0  0  0  0
  -24.8913  -32.2901   26.4871 H   0  0  0  0  0  0
  -25.8059  -30.8929   27.0243 H   0  0  0  0  0  0
  -26.2889  -29.6775   24.1197 H   0  0  0  0  0  0
  -27.4028  -29.7265   25.4670 H   0  0  0  0  0  0
  -27.8761  -30.4301   23.9382 H   0  0  0  0  0  0
  -27.2687  -33.3624   26.2067 H   0  0  0  0  0  0
  -28.3879  -32.6859   25.0326 H   0  0  0  0  0  0
  -28.0721  -31.8440   26.5417 H   0  0  0  0  0  0
  -28.2591  -38.0110   24.7516 H   0  0  0  0  0  0
  -28.1092  -36.2638   24.6268 H   0  0  0  0  0  0
  -27.2306  -37.1430   25.8864 H   0  0  0  0  0  0
  -20.9352  -29.8780   21.6898 H   0  0  0  0  0  0
  -26.0174  -38.2855   24.1413 H   0  0  0  0  0  0
  -32.2167  -16.5820   21.8388 H   0  0  0  0  0  0
  -28.4585  -18.0170   20.2878 H   0  0  0  0  0  0
  -30.4422  -22.7485   17.5834 H   0  0  0  0  0  0
  -30.0490  -21.1423   18.3875 H   0  0  0  0  0  0
  -30.2185  -24.8694   18.8251 H   0  0  0  0  0  0
  -30.3212  -24.6883   20.5488 H   0  0  0  0  0  0
  -26.8823  -24.8149   21.4612 H   0  0  0  0  0  0
  -26.7011  -23.6776   20.1676 H   0  0  0  0  0  0
  -27.5261  -22.5263   22.1888 H   0  0  0  0  0  0
  -28.8569  -23.6165   22.3174 H   0  0  0  0  0  0
  -27.8746  -25.0250   18.8249 H   0  0  0  0  0  0
  -33.8354  -18.0050   22.6416 H   0  0  0  0  0  0
  -33.1556  -19.3634   23.5307 H   0  0  0  0  0  0
  -33.8831  -19.6166   21.9370 H   0  0  0  0  0  0
  -27.9673  -20.5576   21.4782 H   0  0  0  0  0  0
  -28.2467  -20.5449   19.7830 H   0  0  0  0  0  0
  -28.8999  -15.5168   20.8747 H   0  0  0  0  0  0
  -29.9470  -22.1396   21.4095 H   0  0  0  0  0  0
  1 25  1  0  0  0
  1 30  2  0  0  0
  1 85  1  0  0  0
  2  3  1  0  0  0
  2 25  1  0  0  0
  2 88  1  0  0  0
  2 89  1  0  0  0
  3  4  1  0  0  0
  3 90  1  0  0  0
  3 91  1  0  0  0
  4  5  1  0  0  0
  4 92  1  0  0  0
  4 93  1  0  0  0
  5  6  1  0  0  0
  5 26  1  0  0  0
  5 94  1  0  0  0
  6 25  1  0  0  0
  6 95  1  0  0  0
  6 96  1  0  0  0
  7  8  2  0  0  0
  7 26  1  0  0  0
  7 29  1  0  0  0
  8  9  1  0  0  0
  8 22  1  0  0  0
  9 10  1  0  0  0
  9 27  2  0  0  0
 10 11  2  0  0  0
 10 15  1  0  0  0
 11 12  1  0  0  0
 11 97  1  0  0  0
 12 13  2  0  0  0
 12 98  1  0  0  0
 13 14  1  0  0  0
 13 31  1  0  0  0
 14 15  2  0  0  0
 14 99  1  0  0  0
 15100  1  0  0  0
 16 17  2  0  0  0
 16 21  1  0  0  0
 16 31  1  0  0  0
 17 18  1  0  0  0
 17101  1  0  0  0
 18 19  2  0  0  0
 18102  1  0  0  0
 19 20  1  0  0  0
 19 24  1  0  0  0
 20 21  2  0  0  0
 20103  1  0  0  0
 21 23  1  0  0  0
 22 28  1  0  0  0
 22 32  2  0  0  0
 26 27  1  0  0  0
 28104  1  0  0  0
 28105  1  0  0  0
 29106  1  0  0  0
 29107  1  0  0  0
 33 34  1  0  0  0
 33 66  1  0  0  0
 33 70  2  0  0  0
 34 36  1  0  0  0
 34 59  1  0  0  0
 34108  1  0  0  0
 35 44  2  0  0  0
 35 45  1  0  0  0
 35 68  1  0  0  0
 36 56  1  0  0  0
 36109  1  0  0  0
 37 39  1  0  0  0
 37 47  1  0  0  0
 37 66  1  0  0  0
 37110  1  0  0  0
 38 43  2  0  0  0
 38 46  1  0  0  0
 38 47  1  0  0  0
 39 64  1  0  0  0
 39 67  2  0  0  0
 40 52  1  0  0  0
 40 53  2  0  0  0
 40 58  1  0  0  0
 41111  1  0  0  0
 41112  1  0  0  0
 41113  1  0  0  0
 41 48  1  0  0  0
 42 43  1  0  0  0
 42 66  1  0  0  0
 42114  1  0  0  0
 42115  1  0  0  0
 43 44  1  0  0  0
 44116  1  0  0  0
 45 46  2  0  0  0
 45117  1  0  0  0
 46118  1  0  0  0
 47119  1  0  0  0
 47120  1  0  0  0
 48 56  1  0  0  0
 48 65  1  0  0  0
 48121  1  0  0  0
 49 50  1  0  0  0
 49 53  1  0  0  0
 49 64  1  0  0  0
 49122  1  0  0  0
 50 51  1  0  0  0
 50123  1  0  0  0
 50124  1  0  0  0
 51 52  1  0  0  0
 51125  1  0  0  0
 51126  1  0  0  0
 52127  1  0  0  0
 52128  1  0  0  0
 53 54  1  0  0  0
 54 55  2  0  0  0
 54129  1  0  0  0
 55 57  1  0  0  0
 55130  1  0  0  0
 56 69  2  0  0  0
 57 58  2  0  0  0
 57131  1  0  0  0
 58132  1  0  0  0
 59 60  1  0  0  0
 59 61  1  0  0  0
 59 62  1  0  0  0
 60133  1  0  0  0
 60134  1  0  0  0
 60135  1  0  0  0
 61136  1  0  0  0
 61137  1  0  0  0
 61138  1  0  0  0
 62139  1  0  0  0
 62140  1  0  0  0
 62141  1  0  0  0
 63 65  1  0  0  0
 63142  1  0  0  0
 63143  1  0  0  0
 63144  1  0  0  0
 64145  1  0  0  0
 65146  1  0  0  0
 68 82  1  0  0  0
 71 73  2  0  0  0
 71 75  1  0  0  0
 71147  1  0  0  0
 72 74  1  0  0  0
 72 75  2  0  0  0
 72148  1  0  0  0
 73 76  1  0  0  0
 73 83  1  0  0  0
 74 76  2  0  0  0
 74 84  1  0  0  0
 75 85  1  0  0  0
 76 87  1  0  0  0
 77 78  2  0  0  0
 77 79  1  0  0  0
 77 86  1  0  0  0
 78149  1  0  0  0
 78150  1  0  0  0
 79 82  1  0  0  0
 79151  1  0  0  0
 79152  1  0  0  0
 80 81  1  0  0  0
 80 82  1  0  0  0
 80153  1  0  0  0
 80154  1  0  0  0
 81 86  1  0  0  0
 81155  1  0  0  0
 81156  1  0  0  0
 82157  1  0  0  0
 83158  1  0  0  0
 83159  1  0  0  0
 83160  1  0  0  0
 84161  1  0  0  0
 84162  1  0  0  0
 84 86  1  0  0  0
 85163  1  0  0  0
 86164  1  0  0  0
M  CHG  1  86   1
M  ISO  4   1 100  68 101  82 101  85 100
M  END
> <chiral flag>
0

> <version>
0

> <s_m_source_file>
/data/baiqing/PycharmProjects/Reinvent-master-3.2/result/LINK_invent/BTK/process_docking_weight1_custom_product_contain_oxygen_bond_distance_aromatic_linkinvent_7_9_3/rearranged_h_0048.sdf

> <i_m_source_file_index>
41

> <r_mmod_Potential_Energy-OPLS-2005>
-60.6782035827637

> <r_mmod_Stretch_Energy-OPLS-2005>
79.7397613525391

> <r_mmod_Bend_Energy-OPLS-2005>
149.16081237793

> <r_mmod_Torsional_Energy-OPLS-2005>
251.865753173828

> <r_mmod_Improper_Torsional_Energy-OPLS-2005>
5.80916833877563

> <r_mmod_Van_der_Waal_Energy-OPLS-2005>
168.691635131836

> <r_mmod_Electrostatic_Energy-OPLS-2005>
-317.494018554688

> <r_mmod_Solvation_Energy-OPLS-2005>
-437.921752929688

> <b_mmod_Minimization_Converged-OPLS-2005>
0

> <r_mmod_RMS_Derivative-OPLS-2005>
1.19645607471466

$$$$
41
                    3D
 Structure written by MMmdl.
167176  0  0  1  0            999 V2000
  -30.6829  -14.5924   20.4859 C   0  0  0  0  0  0
  -30.4163  -12.3587   19.4558 C   0  0  0  0  0  0
  -29.4988  -12.4911   18.2227 C   0  0  0  0  0  0
  -28.0218  -12.3435   18.6346 C   0  0  0  0  0  0
  -27.6488  -13.2232   19.8584 C   0  0  2  0  0  0
  -28.6932  -13.1012   20.9911 C   0  0  0  0  0  0
  -25.2539  -13.8193   20.5689 C   0  0  0  0  0  0
  -24.1820  -13.0448   20.9211 C   0  0  0  0  0  0
  -24.6396  -11.6922   20.8754 C   0  0  0  0  0  0
  -23.9069  -10.4299   21.0411 C   0  0  0  0  0  0
  -24.3619   -9.4210   21.9186 C   0  0  0  0  0  0
  -23.6295   -8.2245   22.0753 C   0  0  0  0  0  0
  -22.4277   -8.0284   21.3543 C   0  0  0  0  0  0
  -21.9914   -9.0258   20.4645 C   0  0  0  0  0  0
  -22.7242  -10.2139   20.3057 C   0  0  0  0  0  0
  -21.6854   -6.0737   22.5280 C   0  0  0  0  0  0
  -21.4014   -6.5639   23.8213 C   0  0  0  0  0  0
  -21.3660   -5.6792   24.9174 C   0  0  0  0  0  0
  -21.6044   -4.3056   24.7224 C   0  0  0  0  0  0
  -21.8819   -3.8147   23.4346 C   0  0  0  0  0  0
  -21.9193   -4.6965   22.3403 C   0  0  0  0  0  0
  -22.7841  -13.5235   21.1866 C   0  0  0  0  0  0
  -22.1661   -4.2151   21.0981 F   0  0  0  0  0  0
  -21.5629   -3.4540   25.7736 F   0  0  0  0  0  0
  -30.0114  -13.4031   20.4177 N   0  0  0  0  0  0
  -26.2967  -12.9390   20.3311 N   0  0  0  0  0  0
  -25.9324  -11.6538   20.5768 N   0  0  0  0  0  0
  -22.0482  -12.8222   22.0417 N   0  0  0  0  0  0
  -25.4235  -15.1911   20.4063 N   0  0  0  0  0  0
  -31.8644  -14.6525   20.1443 O   0  0  0  0  0  0
  -21.6642   -6.8879   21.4240 O   0  0  0  0  0  0
  -22.3527  -14.5542   20.6714 O   0  0  0  0  0  0
  -24.6219  -31.8627   23.2059 C   0  0  0  0  0  0
  -25.9086  -32.4792   23.8373 C   0  0  1  0  0  0
  -27.2180  -27.3551   20.1169 C   0  0  0  0  0  0
  -25.5917  -33.8592   24.2301 N   0  0  0  0  0  0
  -23.4133  -30.4877   21.5475 C   0  0  2  0  0  0
  -24.8589  -28.9497   20.1088 C   0  0  0  0  0  0
  -22.7449  -29.4638   22.4951 C   0  0  0  0  0  0
  -18.0281  -28.1384   22.8486 C   0  0  0  0  0  0
  -24.1490  -36.7301   23.2639 C   0  0  0  0  0  0
  -25.9506  -30.8050   21.3717 C   0  0  0  0  0  0
  -26.0251  -29.4362   20.7138 C   0  0  0  0  0  0
  -27.2100  -28.6495   20.7094 C   0  0  0  0  0  0
  -26.0383  -26.9199   19.4726 C   0  0  0  0  0  0
  -24.8654  -27.6955   19.4792 C   0  0  0  0  0  0
  -23.6251  -29.8247   20.1611 C   0  0  0  0  0  0
  -25.4112  -36.3092   24.0333 C   0  0  1  0  0  0
  -20.5878  -28.3682   23.1295 C   0  0  2  0  0  0
  -20.6773  -26.9411   22.5412 C   0  0  0  0  0  0
  -19.5751  -26.6385   21.5212 C   0  0  0  0  0  0
  -18.1929  -26.7927   22.1621 C   0  0  0  0  0  0
  -19.1533  -28.8849   23.2887 C   0  0  0  0  0  0
  -18.9458  -30.1452   23.8902 C   0  0  0  0  0  0
  -17.6461  -30.6587   24.0565 C   0  0  0  0  0  0
  -25.9045  -34.9458   23.5115 C   0  0  0  0  0  0
  -16.5351  -29.9088   23.6331 C   0  0  0  0  0  0
  -16.7270  -28.6506   23.0350 C   0  0  0  0  0  0
  -26.4489  -31.6589   25.0727 C   0  0  0  0  0  0
  -25.3735  -31.3714   26.1462 C   0  0  0  0  0  0
  -27.0327  -30.3019   24.6151 C   0  0  0  0  0  0
  -27.6054  -32.4319   25.7493 C   0  0  0  0  0  0
  -27.5579  -37.1805   24.8465 C   0  0  0  0  0  0
  -21.4167  -29.3041   22.3691 N   0  0  0  0  0  0
  -26.4293  -37.3781   23.9408 N   0  0  0  0  0  0
  -24.6806  -31.0673   22.0993 N   0  0  0  0  0  0
  -23.4191  -28.8176   23.3016 O   0  0  0  0  0  0
  -28.3341  -26.5191   20.1721 O   0  0  0  0  0  0
  -26.5609  -34.8917   22.4678 O   0  0  0  0  0  0
  -23.5391  -32.1411   23.7411 O   0  0  0  0  0  0
  -31.5118  -17.5680   20.0864 C   0  0  0  0  0  0
  -31.8339  -18.9274   19.9583 C   0  0  0  0  0  0
  -29.3263  -18.1838   20.9546 C   0  0  0  0  0  0
  -29.6415  -19.5951   20.8173 C   0  0  0  0  0  0
  -30.2635  -17.1426   20.6023 C   0  0  0  0  0  0
  -30.9315  -19.9351   20.3303 C   0  0  0  0  0  0
  -28.3366  -23.1776   22.0777 C   0  0  0  0  0  0
  -27.5137  -22.9677   23.1342 C   0  0  0  0  0  0
  -28.8233  -24.5911   21.7151 C   0  0  0  0  0  0
  -28.4852  -24.1051   19.3196 C   0  0  0  0  0  0
  -28.2084  -22.5972   19.6806 C   0  0  0  0  0  0
  -28.0929  -25.0928   20.4514 C   0  0  2  0  0  0
  -27.9616  -17.7863   21.5141 C   0  0  0  0  0  0
  -26.7856  -21.7174   23.5945 C   0  0  0  0  0  0
  -28.6332  -20.6917   21.3190 C   0  0  0  0  0  0
  -29.9457  -15.7169   20.7588 N   0  0  0  0  0  0
  -28.7679  -22.1757   21.0051 N   0  3  2  0  0  0
  -31.4957  -21.5653   20.1996 Cl  0  0  0  0  0  0
  -31.4625  -12.4413   19.1564 H   0  0  0  0  0  0
  -30.3150  -11.3704   19.9072 H   0  0  0  0  0  0
  -29.7556  -11.7360   17.4786 H   0  0  0  0  0  0
  -29.6551  -13.4591   17.7440 H   0  0  0  0  0  0
  -27.8524  -11.2921   18.8703 H   0  0  0  0  0  0
  -27.3694  -12.5731   17.7914 H   0  0  0  0  0  0
  -27.6624  -14.2551   19.5074 H   0  0  0  0  0  0
  -28.6904  -12.0943   21.4110 H   0  0  0  0  0  0
  -28.4525  -13.7729   21.8165 H   0  0  0  0  0  0
  -25.2764   -9.5689   22.4761 H   0  0  0  0  0  0
  -24.0007   -7.4635   22.7470 H   0  0  0  0  0  0
  -21.0847   -8.8776   19.8948 H   0  0  0  0  0  0
  -22.3699  -10.9679   19.6169 H   0  0  0  0  0  0
  -21.2005   -7.6146   23.9717 H   0  0  0  0  0  0
  -21.1482   -6.0522   25.9077 H   0  0  0  0  0  0
  -22.0598   -2.7610   23.2846 H   0  0  0  0  0  0
  -22.4099  -11.9883   22.4805 H   0  0  0  0  0  0
  -21.1095  -13.1239   22.2613 H   0  0  0  0  0  0
  -24.6467  -15.8369   20.4950 H   0  0  0  0  0  0
  -26.2523  -15.6201   20.0172 H   0  0  0  0  0  0
  -26.7151  -32.5475   23.1122 H   0  0  0  0  0  0
  -25.0067  -33.9748   25.0445 H   0  0  0  0  0  0
  -22.7054  -31.3072   21.4074 H   0  0  0  0  0  0
  -23.3747  -35.9639   23.3308 H   0  0  0  0  0  0
  -24.3579  -36.8916   22.2052 H   0  0  0  0  0  0
  -23.7253  -37.6511   23.6653 H   0  0  0  0  0  0
  -26.0769  -31.5701   20.6045 H   0  0  0  0  0  0
  -26.8330  -30.8528   21.9981 H   0  0  0  0  0  0
  -28.1039  -29.0140   21.1957 H   0  0  0  0  0  0
  -26.0079  -25.9636   18.9704 H   0  0  0  0  0  0
  -23.9737  -27.3206   18.9959 H   0  0  0  0  0  0
  -23.7392  -30.6025   19.4050 H   0  0  0  0  0  0
  -22.7462  -29.2515   19.8607 H   0  0  0  0  0  0
  -25.1291  -36.1947   25.0826 H   0  0  0  0  0  0
  -20.9968  -28.3251   24.1417 H   0  0  0  0  0  0
  -20.5681  -26.2288   23.3605 H   0  0  0  0  0  0
  -21.6642  -26.7450   22.1203 H   0  0  0  0  0  0
  -19.6920  -25.6298   21.1238 H   0  0  0  0  0  0
  -19.6696  -27.3196   20.6742 H   0  0  0  0  0  0
  -17.4200  -26.6674   21.4023 H   0  0  0  0  0  0
  -18.0334  -26.0069   22.9018 H   0  0  0  0  0  0
  -19.7936  -30.7266   24.2272 H   0  0  0  0  0  0
  -17.5017  -31.6269   24.5165 H   0  0  0  0  0  0
  -15.5353  -30.2995   23.7655 H   0  0  0  0  0  0
  -15.8667  -28.0830   22.7064 H   0  0  0  0  0  0
  -24.5908  -30.7064   25.7794 H   0  0  0  0  0  0
  -24.8924  -32.2874   26.4900 H   0  0  0  0  0  0
  -25.8068  -30.8885   27.0230 H   0  0  0  0  0  0
  -26.2889  -29.6777   24.1184 H   0  0  0  0  0  0
  -27.4054  -29.7265   25.4636 H   0  0  0  0  0  0
  -27.8746  -30.4325   23.9348 H   0  0  0  0  0  0
  -27.2666  -33.3613   26.2082 H   0  0  0  0  0  0
  -28.3854  -32.6890   25.0314 H   0  0  0  0  0  0
  -28.0732  -31.8438   26.5400 H   0  0  0  0  0  0
  -28.2598  -38.0100   24.7502 H   0  0  0  0  0  0
  -28.1075  -36.2630   24.6299 H   0  0  0  0  0  0
  -27.2294  -37.1465   25.8868 H   0  0  0  0  0  0
  -20.9332  -29.8765   21.6912 H   0  0  0  0  0  0
  -26.0179  -38.2860   24.1399 H   0  0  0  0  0  0
  -32.2792  -16.8796   19.7766 H   0  0  0  0  0  0
  -32.8091  -19.2024   19.5828 H   0  0  0  0  0  0
  -27.3180  -23.8197   23.7712 H   0  0  0  0  0  0
  -29.9052  -24.5954   21.5742 H   0  0  0  0  0  0
  -28.6235  -25.2717   22.5439 H   0  0  0  0  0  0
  -27.9462  -24.3612   18.4072 H   0  0  0  0  0  0
  -29.5427  -24.2317   19.0844 H   0  0  0  0  0  0
  -28.6092  -21.9548   18.8957 H   0  0  0  0  0  0
  -27.1309  -22.4275   19.6946 H   0  0  0  0  0  0
  -27.0345  -24.9390   20.6665 H   0  0  0  0  0  0
  -27.7361  -18.3371   22.4271 H   0  0  0  0  0  0
  -27.8861  -16.7321   21.7743 H   0  0  0  0  0  0
  -27.1794  -17.9964   20.7840 H   0  0  0  0  0  0
  -26.4216  -21.1085   22.7700 H   0  0  0  0  0  0
  -25.9055  -22.0111   24.1678 H   0  0  0  0  0  0
  -27.4144  -21.1163   24.2524 H   0  0  0  0  0  0
  -28.7298  -20.5880   22.3971 H   0  0  0  0  0  0
  -27.6221  -20.3883   21.0512 H   0  0  0  0  0  0
  -29.0000  -15.5167   21.0425 H   0  0  0  0  0  0
  -29.7707  -22.2741   20.9040 H   0  0  0  0  0  0
  1 25  1  0  0  0
  1 30  2  0  0  0
  1 86  1  0  0  0
  2  3  1  0  0  0
  2 25  1  0  0  0
  2 89  1  0  0  0
  2 90  1  0  0  0
  3  4  1  0  0  0
  3 91  1  0  0  0
  3 92  1  0  0  0
  4  5  1  0  0  0
  4 93  1  0  0  0
  4 94  1  0  0  0
  5  6  1  0  0  0
  5 26  1  0  0  0
  5 95  1  0  0  0
  6 25  1  0  0  0
  6 96  1  0  0  0
  6 97  1  0  0  0
  7  8  2  0  0  0
  7 26  1  0  0  0
  7 29  1  0  0  0
  8  9  1  0  0  0
  8 22  1  0  0  0
  9 10  1  0  0  0
  9 27  2  0  0  0
 10 11  2  0  0  0
 10 15  1  0  0  0
 11 12  1  0  0  0
 11 98  1  0  0  0
 12 13  2  0  0  0
 12 99  1  0  0  0
 13 14  1  0  0  0
 13 31  1  0  0  0
 14 15  2  0  0  0
 14100  1  0  0  0
 15101  1  0  0  0
 16 17  2  0  0  0
 16 21  1  0  0  0
 16 31  1  0  0  0
 17 18  1  0  0  0
 17102  1  0  0  0
 18 19  2  0  0  0
 18103  1  0  0  0
 19 20  1  0  0  0
 19 24  1  0  0  0
 20 21  2  0  0  0
 20104  1  0  0  0
 21 23  1  0  0  0
 22 28  1  0  0  0
 22 32  2  0  0  0
 26 27  1  0  0  0
 28105  1  0  0  0
 28106  1  0  0  0
 29107  1  0  0  0
 29108  1  0  0  0
 33 34  1  0  0  0
 33 66  1  0  0  0
 33 70  2  0  0  0
 34 36  1  0  0  0
 34 59  1  0  0  0
 34109  1  0  0  0
 35 44  2  0  0  0
 35 45  1  0  0  0
 35 68  1  0  0  0
 36 56  1  0  0  0
 36110  1  0  0  0
 37 39  1  0  0  0
 37 47  1  0  0  0
 37 66  1  0  0  0
 37111  1  0  0  0
 38 43  2  0  0  0
 38 46  1  0  0  0
 38 47  1  0  0  0
 39 64  1  0  0  0
 39 67  2  0  0  0
 40 52  1  0  0  0
 40 53  2  0  0  0
 40 58  1  0  0  0
 41112  1  0  0  0
 41113  1  0  0  0
 41114  1  0  0  0
 41 48  1  0  0  0
 42 43  1  0  0  0
 42 66  1  0  0  0
 42115  1  0  0  0
 42116  1  0  0  0
 43 44  1  0  0  0
 44117  1  0  0  0
 45 46  2  0  0  0
 45118  1  0  0  0
 46119  1  0  0  0
 47120  1  0  0  0
 47121  1  0  0  0
 48 56  1  0  0  0
 48 65  1  0  0  0
 48122  1  0  0  0
 49 50  1  0  0  0
 49 53  1  0  0  0
 49 64  1  0  0  0
 49123  1  0  0  0
 50 51  1  0  0  0
 50124  1  0  0  0
 50125  1  0  0  0
 51 52  1  0  0  0
 51126  1  0  0  0
 51127  1  0  0  0
 52128  1  0  0  0
 52129  1  0  0  0
 53 54  1  0  0  0
 54 55  2  0  0  0
 54130  1  0  0  0
 55 57  1  0  0  0
 55131  1  0  0  0
 56 69  2  0  0  0
 57 58  2  0  0  0
 57132  1  0  0  0
 58133  1  0  0  0
 59 60  1  0  0  0
 59 61  1  0  0  0
 59 62  1  0  0  0
 60134  1  0  0  0
 60135  1  0  0  0
 60136  1  0  0  0
 61137  1  0  0  0
 61138  1  0  0  0
 61139  1  0  0  0
 62140  1  0  0  0
 62141  1  0  0  0
 62142  1  0  0  0
 63 65  1  0  0  0
 63143  1  0  0  0
 63144  1  0  0  0
 63145  1  0  0  0
 64146  1  0  0  0
 65147  1  0  0  0
 68 82  1  0  0  0
 71 72  2  0  0  0
 71 75  1  0  0  0
 71148  1  0  0  0
 72 76  1  0  0  0
 72149  1  0  0  0
 73 74  1  0  0  0
 73 75  2  0  0  0
 73 83  1  0  0  0
 74 76  2  0  0  0
 74 85  1  0  0  0
 75 86  1  0  0  0
 76 88  1  0  0  0
 77 78  2  0  0  0
 77 79  1  0  0  0
 77 87  1  0  0  0
 78 84  1  0  0  0
 78150  1  0  0  0
 79 82  1  0  0  0
 79151  1  0  0  0
 79152  1  0  0  0
 80 81  1  0  0  0
 80 82  1  0  0  0
 80153  1  0  0  0
 80154  1  0  0  0
 81 87  1  0  0  0
 81155  1  0  0  0
 81156  1  0  0  0
 82157  1  0  0  0
 83158  1  0  0  0
 83159  1  0  0  0
 83160  1  0  0  0
 84161  1  0  0  0
 84162  1  0  0  0
 84163  1  0  0  0
 85164  1  0  0  0
 85165  1  0  0  0
 85 87  1  0  0  0
 86166  1  0  0  0
 87167  1  0  0  0
M  CHG  1  87   1
M  ISO  4   1 100  68 101  82 101  86 100
M  END
> <chiral flag>
0

> <version>
0

> <s_m_source_file>
/data/baiqing/PycharmProjects/Reinvent-master-3.2/result/LINK_invent/BTK/process_docking_weight1_custom_product_contain_oxygen_bond_distance_aromatic_linkinvent_7_9_3/rearranged_h_0048.sdf

> <i_m_source_file_index>
42

> <r_mmod_Potential_Energy-OPLS-2005>
-68.9359130859375

> <r_mmod_Stretch_Energy-OPLS-2005>
78.5801773071289

> <r_mmod_Bend_Energy-OPLS-2005>
158.729507446289

> <r_mmod_Torsional_Energy-OPLS-2005>
247.457489013672

> <r_mmod_Improper_Torsional_Energy-OPLS-2005>
4.98971796035767

> <r_mmod_Van_der_Waal_Energy-OPLS-2005>
170.485443115234

> <r_mmod_Electrostatic_Energy-OPLS-2005>
-340.849487304688

> <r_mmod_Solvation_Energy-OPLS-2005>
-427.367309570312

> <b_mmod_Minimization_Converged-OPLS-2005>
0

> <r_mmod_RMS_Derivative-OPLS-2005>
0.457659214735031

$$$$
42
                    3D
 Structure written by MMmdl.
160168  0  0  1  0            999 V2000
  -30.6816  -14.6024   20.5224 C   0  0  0  0  0  0
  -30.4186  -12.3776   19.4493 C   0  0  0  0  0  0
  -29.4972  -12.4976   18.2189 C   0  0  0  0  0  0
  -28.0221  -12.3417   18.6351 C   0  0  0  0  0  0
  -27.6474  -13.2225   19.8578 C   0  0  2  0  0  0
  -28.6920  -13.1031   20.9891 C   0  0  0  0  0  0
  -25.2533  -13.8189   20.5692 C   0  0  0  0  0  0
  -24.1813  -13.0443   20.9204 C   0  0  0  0  0  0
  -24.6391  -11.6917   20.8751 C   0  0  0  0  0  0
  -23.9067  -10.4295   21.0411 C   0  0  0  0  0  0
  -24.3619   -9.4209   21.9187 C   0  0  0  0  0  0
  -23.6294   -8.2244   22.0755 C   0  0  0  0  0  0
  -22.4277   -8.0281   21.3545 C   0  0  0  0  0  0
  -21.9914   -9.0255   20.4647 C   0  0  0  0  0  0
  -22.7242  -10.2136   20.3058 C   0  0  0  0  0  0
  -21.6854   -6.0737   22.5281 C   0  0  0  0  0  0
  -21.4014   -6.5640   23.8213 C   0  0  0  0  0  0
  -21.3659   -5.6793   24.9176 C   0  0  0  0  0  0
  -21.6044   -4.3055   24.7227 C   0  0  0  0  0  0
  -21.8819   -3.8148   23.4347 C   0  0  0  0  0  0
  -21.9192   -4.6965   22.3403 C   0  0  0  0  0  0
  -22.7835  -13.5230   21.1862 C   0  0  0  0  0  0
  -22.1661   -4.2150   21.0981 F   0  0  0  0  0  0
  -21.5628   -3.4539   25.7738 F   0  0  0  0  0  0
  -30.0040  -13.4190   20.4108 N   0  0  0  0  0  0
  -26.2959  -12.9384   20.3313 N   0  0  0  0  0  0
  -25.9320  -11.6532   20.5767 N   0  0  0  0  0  0
  -22.0477  -12.8218   22.0413 N   0  0  0  0  0  0
  -25.4230  -15.1912   20.4094 N   0  0  0  0  0  0
  -31.8479  -14.6944   20.1291 O   0  0  0  0  0  0
  -21.6641   -6.8879   21.4242 O   0  0  0  0  0  0
  -22.3523  -14.5537   20.6708 O   0  0  0  0  0  0
  -24.6225  -31.8609   23.2032 C   0  0  0  0  0  0
  -25.9086  -32.4780   23.8351 C   0  0  1  0  0  0
  -27.2271  -27.3460   20.1045 C   0  0  0  0  0  0
  -25.5916  -33.8583   24.2281 N   0  0  0  0  0  0
  -23.4141  -30.4835   21.5450 C   0  0  2  0  0  0
  -24.8589  -28.9381   20.1092 C   0  0  0  0  0  0
  -22.7452  -29.4626   22.4949 C   0  0  0  0  0  0
  -18.0281  -28.1381   22.8496 C   0  0  0  0  0  0
  -24.1488  -36.7290   23.2641 C   0  0  0  0  0  0
  -25.9514  -30.7977   21.3700 C   0  0  0  0  0  0
  -26.0234  -29.4267   20.7131 C   0  0  0  0  0  0
  -27.2060  -28.6379   20.7073 C   0  0  0  0  0  0
  -26.0361  -26.8910   19.4954 C   0  0  0  0  0  0
  -24.8646  -27.6738   19.4964 C   0  0  0  0  0  0
  -23.6256  -29.8154   20.1600 C   0  0  0  0  0  0
  -25.4112  -36.3084   24.0333 C   0  0  1  0  0  0
  -20.5880  -28.3674   23.1299 C   0  0  2  0  0  0
  -20.6771  -26.9402   22.5416 C   0  0  0  0  0  0
  -19.5746  -26.6386   21.5217 C   0  0  0  0  0  0
  -18.1925  -26.7926   22.1628 C   0  0  0  0  0  0
  -19.1536  -28.8845   23.2892 C   0  0  0  0  0  0
  -18.9457  -30.1451   23.8900 C   0  0  0  0  0  0
  -17.6460  -30.6585   24.0565 C   0  0  0  0  0  0
  -25.9050  -34.9454   23.5110 C   0  0  0  0  0  0
  -16.5349  -29.9084   23.6334 C   0  0  0  0  0  0
  -16.7270  -28.6502   23.0355 C   0  0  0  0  0  0
  -26.4485  -31.6592   25.0715 C   0  0  0  0  0  0
  -25.3731  -31.3725   26.1451 C   0  0  0  0  0  0
  -27.0329  -30.3022   24.6153 C   0  0  0  0  0  0
  -27.6044  -32.4332   25.7481 C   0  0  0  0  0  0
  -27.5579  -37.1799   24.8466 C   0  0  0  0  0  0
  -21.4171  -29.3032   22.3695 N   0  0  0  0  0  0
  -26.4289  -37.3779   23.9413 N   0  0  0  0  0  0
  -24.6813  -31.0643   22.0965 N   0  0  0  0  0  0
  -23.4193  -28.8177   23.3024 O   0  0  0  0  0  0
  -28.3789  -26.5590   20.1682 O   0  0  0  0  0  0
  -26.5617  -34.8923   22.4673 O   0  0  0  0  0  0
  -23.5398  -32.1395   23.7383 O   0  0  0  0  0  0
  -32.2595  -18.2210   22.4859 C   0  0  0  0  0  0
  -31.7244  -17.0351   21.9818 C   0  0  0  0  0  0
  -29.8421  -18.2981   21.0808 C   0  0  0  0  0  0
  -31.6038  -19.4545   22.3224 C   0  0  0  0  0  0
  -30.3782  -19.5476   21.5786 C   0  0  0  0  0  0
  -30.5061  -17.0265   21.2750 C   0  0  0  0  0  0
  -28.2775  -23.9598   20.1478 C   0  0  0  0  0  0
  -32.2734  -20.6256   23.0356 C   0  0  0  0  0  0
  -28.6237  -21.0540   22.6229 C   0  0  0  0  0  0
  -28.5393  -25.3209   19.3950 C   0  0  0  0  0  0
  -28.9645  -21.4079   20.1174 C   0  0  0  0  0  0
  -29.6335  -20.9510   21.4709 C   0  0  2  0  0  0
  -29.9735  -15.7273   20.8688 N   0  0  0  0  0  0
  -29.0273  -22.8795   19.7852 N   0  0  0  0  0  0
  -27.3800  -23.8798   20.9878 O   0  0  0  0  0  0
  -30.5009  -21.9436   21.6638 F   0  0  0  0  0  0
  -31.4628  -12.4733   19.1467 H   0  0  0  0  0  0
  -30.3307  -11.3887   19.9020 H   0  0  0  0  0  0
  -29.7580  -11.7424   17.4762 H   0  0  0  0  0  0
  -29.6457  -13.4658   17.7378 H   0  0  0  0  0  0
  -27.8596  -11.2902   18.8747 H   0  0  0  0  0  0
  -27.3657  -12.5650   17.7933 H   0  0  0  0  0  0
  -27.6604  -14.2539   19.5054 H   0  0  0  0  0  0
  -28.6979  -12.0954   21.4069 H   0  0  0  0  0  0
  -28.4469  -13.7718   21.8157 H   0  0  0  0  0  0
  -25.2765   -9.5685   22.4761 H   0  0  0  0  0  0
  -24.0003   -7.4636   22.7474 H   0  0  0  0  0  0
  -21.0846   -8.8778   19.8951 H   0  0  0  0  0  0
  -22.3705  -10.9675   19.6165 H   0  0  0  0  0  0
  -21.2006   -7.6148   23.9718 H   0  0  0  0  0  0
  -21.1481   -6.0523   25.9079 H   0  0  0  0  0  0
  -22.0597   -2.7610   23.2848 H   0  0  0  0  0  0
  -22.4090  -11.9875   22.4796 H   0  0  0  0  0  0
  -21.1092  -13.1242   22.2613 H   0  0  0  0  0  0
  -24.6540  -15.8437   20.5173 H   0  0  0  0  0  0
  -26.2674  -15.6309   20.0663 H   0  0  0  0  0  0
  -26.7149  -32.5449   23.1097 H   0  0  0  0  0  0
  -25.0076  -33.9736   25.0434 H   0  0  0  0  0  0
  -22.7066  -31.3032   21.4032 H   0  0  0  0  0  0
  -23.3754  -35.9618   23.3307 H   0  0  0  0  0  0
  -24.3580  -36.8904   22.2055 H   0  0  0  0  0  0
  -23.7240  -37.6493   23.6656 H   0  0  0  0  0  0
  -26.0821  -31.5620   20.6027 H   0  0  0  0  0  0
  -26.8325  -30.8438   21.9983 H   0  0  0  0  0  0
  -28.1014  -29.0090   21.1860 H   0  0  0  0  0  0
  -25.9762  -25.9131   19.0425 H   0  0  0  0  0  0
  -23.9663  -27.2880   19.0340 H   0  0  0  0  0  0
  -23.7410  -30.5903   19.4015 H   0  0  0  0  0  0
  -22.7460  -29.2422   19.8618 H   0  0  0  0  0  0
  -25.1295  -36.1932   25.0826 H   0  0  0  0  0  0
  -20.9977  -28.3240   24.1419 H   0  0  0  0  0  0
  -20.5678  -26.2282   23.3609 H   0  0  0  0  0  0
  -21.6638  -26.7439   22.1204 H   0  0  0  0  0  0
  -19.6907  -25.6300   21.1236 H   0  0  0  0  0  0
  -19.6685  -27.3205   20.6754 H   0  0  0  0  0  0
  -17.4202  -26.6689   21.4022 H   0  0  0  0  0  0
  -18.0314  -26.0061   22.9017 H   0  0  0  0  0  0
  -19.7931  -30.7271   24.2264 H   0  0  0  0  0  0
  -17.5012  -31.6264   24.5167 H   0  0  0  0  0  0
  -15.5349  -30.2988   23.7654 H   0  0  0  0  0  0
  -15.8672  -28.0822   22.7064 H   0  0  0  0  0  0
  -24.5900  -30.7076   25.7791 H   0  0  0  0  0  0
  -24.8925  -32.2891   26.4883 H   0  0  0  0  0  0
  -25.8068  -30.8904   27.0222 H   0  0  0  0  0  0
  -26.2892  -29.6775   24.1189 H   0  0  0  0  0  0
  -27.4055  -29.7274   25.4643 H   0  0  0  0  0  0
  -27.8752  -30.4326   23.9354 H   0  0  0  0  0  0
  -27.2644  -33.3629   26.2058 H   0  0  0  0  0  0
  -28.3847  -32.6902   25.0305 H   0  0  0  0  0  0
  -28.0719  -31.8462   26.5397 H   0  0  0  0  0  0
  -28.2598  -38.0095   24.7515 H   0  0  0  0  0  0
  -28.1073  -36.2628   24.6285 H   0  0  0  0  0  0
  -27.2300  -37.1440   25.8870 H   0  0  0  0  0  0
  -20.9340  -29.8745   21.6905 H   0  0  0  0  0  0
  -26.0170  -38.2854   24.1413 H   0  0  0  0  0  0
  -33.1836  -18.1636   23.0443 H   0  0  0  0  0  0
  -32.2637  -16.1209   22.1856 H   0  0  0  0  0  0
  -28.8943  -18.3187   20.5624 H   0  0  0  0  0  0
  -33.0747  -20.2960   23.6975 H   0  0  0  0  0  0
  -31.5643  -21.1656   23.6631 H   0  0  0  0  0  0
  -32.7205  -21.3145   22.3185 H   0  0  0  0  0  0
  -27.8356  -20.3079   22.5208 H   0  0  0  0  0  0
  -28.1505  -22.0337   22.6591 H   0  0  0  0  0  0
  -29.1065  -20.8918   23.5862 H   0  0  0  0  0  0
  -27.9698  -25.3413   18.4665 H   0  0  0  0  0  0
  -29.5813  -25.3108   19.0739 H   0  0  0  0  0  0
  -27.9388  -21.0431   20.0480 H   0  0  0  0  0  0
  -29.5008  -20.9128   19.3072 H   0  0  0  0  0  0
  -28.9727  -15.6150   20.9236 H   0  0  0  0  0  0
  -29.7482  -23.1003   19.1116 H   0  0  0  0  0  0
  1 25  1  0  0  0
  1 30  2  0  0  0
  1 83  1  0  0  0
  2  3  1  0  0  0
  2 25  1  0  0  0
  2 87  1  0  0  0
  2 88  1  0  0  0
  3  4  1  0  0  0
  3 89  1  0  0  0
  3 90  1  0  0  0
  4  5  1  0  0  0
  4 91  1  0  0  0
  4 92  1  0  0  0
  5  6  1  0  0  0
  5 26  1  0  0  0
  5 93  1  0  0  0
  6 25  1  0  0  0
  6 94  1  0  0  0
  6 95  1  0  0  0
  7  8  2  0  0  0
  7 26  1  0  0  0
  7 29  1  0  0  0
  8  9  1  0  0  0
  8 22  1  0  0  0
  9 10  1  0  0  0
  9 27  2  0  0  0
 10 11  2  0  0  0
 10 15  1  0  0  0
 11 12  1  0  0  0
 11 96  1  0  0  0
 12 13  2  0  0  0
 12 97  1  0  0  0
 13 14  1  0  0  0
 13 31  1  0  0  0
 14 15  2  0  0  0
 14 98  1  0  0  0
 15 99  1  0  0  0
 16 17  2  0  0  0
 16 21  1  0  0  0
 16 31  1  0  0  0
 17 18  1  0  0  0
 17100  1  0  0  0
 18 19  2  0  0  0
 18101  1  0  0  0
 19 20  1  0  0  0
 19 24  1  0  0  0
 20 21  2  0  0  0
 20102  1  0  0  0
 21 23  1  0  0  0
 22 28  1  0  0  0
 22 32  2  0  0  0
 26 27  1  0  0  0
 28103  1  0  0  0
 28104  1  0  0  0
 29105  1  0  0  0
 29106  1  0  0  0
 33 34  1  0  0  0
 33 66  1  0  0  0
 33 70  2  0  0  0
 34 36  1  0  0  0
 34 59  1  0  0  0
 34107  1  0  0  0
 35 44  2  0  0  0
 35 45  1  0  0  0
 35 68  1  0  0  0
 36 56  1  0  0  0
 36108  1  0  0  0
 37 39  1  0  0  0
 37 47  1  0  0  0
 37 66  1  0  0  0
 37109  1  0  0  0
 38 43  2  0  0  0
 38 46  1  0  0  0
 38 47  1  0  0  0
 39 64  1  0  0  0
 39 67  2  0  0  0
 40 52  1  0  0  0
 40 53  2  0  0  0
 40 58  1  0  0  0
 41110  1  0  0  0
 41111  1  0  0  0
 41112  1  0  0  0
 41 48  1  0  0  0
 42 43  1  0  0  0
 42 66  1  0  0  0
 42113  1  0  0  0
 42114  1  0  0  0
 43 44  1  0  0  0
 44115  1  0  0  0
 45 46  2  0  0  0
 45116  1  0  0  0
 46117  1  0  0  0
 47118  1  0  0  0
 47119  1  0  0  0
 48 56  1  0  0  0
 48 65  1  0  0  0
 48120  1  0  0  0
 49 50  1  0  0  0
 49 53  1  0  0  0
 49 64  1  0  0  0
 49121  1  0  0  0
 50 51  1  0  0  0
 50122  1  0  0  0
 50123  1  0  0  0
 51 52  1  0  0  0
 51124  1  0  0  0
 51125  1  0  0  0
 52126  1  0  0  0
 52127  1  0  0  0
 53 54  1  0  0  0
 54 55  2  0  0  0
 54128  1  0  0  0
 55 57  1  0  0  0
 55129  1  0  0  0
 56 69  2  0  0  0
 57 58  2  0  0  0
 57130  1  0  0  0
 58131  1  0  0  0
 59 60  1  0  0  0
 59 61  1  0  0  0
 59 62  1  0  0  0
 60132  1  0  0  0
 60133  1  0  0  0
 60134  1  0  0  0
 61135  1  0  0  0
 61136  1  0  0  0
 61137  1  0  0  0
 62138  1  0  0  0
 62139  1  0  0  0
 62140  1  0  0  0
 63 65  1  0  0  0
 63141  1  0  0  0
 63142  1  0  0  0
 63143  1  0  0  0
 64144  1  0  0  0
 65145  1  0  0  0
 68 80  1  0  0  0
 71 72  2  0  0  0
 71 74  1  0  0  0
 71146  1  0  0  0
 72 76  1  0  0  0
 72147  1  0  0  0
 73 75  1  0  0  0
 73 76  2  0  0  0
 73148  1  0  0  0
 74 75  2  0  0  0
 74 78  1  0  0  0
 75 82  1  0  0  0
 76 83  1  0  0  0
 77 80  1  0  0  0
 77 84  1  0  0  0
 77 85  2  0  0  0
 78149  1  0  0  0
 78150  1  0  0  0
 78151  1  0  0  0
 79152  1  0  0  0
 79153  1  0  0  0
 79154  1  0  0  0
 79 82  1  0  0  0
 80155  1  0  0  0
 80156  1  0  0  0
 81 82  1  0  0  0
 81 84  1  0  0  0
 81157  1  0  0  0
 81158  1  0  0  0
 82 86  1  0  0  0
 83159  1  0  0  0
 84160  1  0  0  0
M  ISO  4   1 100  68 101  80 101  83 100
M  END
> <chiral flag>
0

> <version>
0

> <s_m_source_file>
/data/baiqing/PycharmProjects/Reinvent-master-3.2/result/LINK_invent/BTK/process_docking_weight1_custom_product_contain_oxygen_bond_distance_aromatic_linkinvent_7_9_3/rearranged_h_0048.sdf

> <i_m_source_file_index>
43

> <r_mmod_Potential_Energy-OPLS-2005>
24.3446235656738

> <r_mmod_Stretch_Energy-OPLS-2005>
82.0697555541992

> <r_mmod_Bend_Energy-OPLS-2005>
156.211837768555

> <r_mmod_Torsional_Energy-OPLS-2005>
231.055572509766

> <r_mmod_Improper_Torsional_Energy-OPLS-2005>
5.78115320205688

> <r_mmod_Van_der_Waal_Energy-OPLS-2005>
161.106079101562

> <r_mmod_Electrostatic_Energy-OPLS-2005>
-408.267761230469

> <r_mmod_Solvation_Energy-OPLS-2005>
-241.649215698242

> <b_mmod_Minimization_Converged-OPLS-2005>
0

> <r_mmod_RMS_Derivative-OPLS-2005>
0.544299423694611

$$$$
43
                    3D
 Structure written by MMmdl.
167176  0  0  1  0            999 V2000
  -30.6459  -14.6000   20.5287 C   0  0  0  0  0  0
  -30.4272  -12.3762   19.4466 C   0  0  0  0  0  0
  -29.4996  -12.5058   18.2196 C   0  0  0  0  0  0
  -28.0223  -12.3515   18.6309 C   0  0  0  0  0  0
  -27.6497  -13.2165   19.8648 C   0  0  2  0  0  0
  -28.6921  -13.0651   20.9941 C   0  0  0  0  0  0
  -25.2527  -13.8163   20.5684 C   0  0  0  0  0  0
  -24.1805  -13.0426   20.9197 C   0  0  0  0  0  0
  -24.6381  -11.6900   20.8749 C   0  0  0  0  0  0
  -23.9054  -10.4288   21.0418 C   0  0  0  0  0  0
  -24.3617   -9.4203   21.9196 C   0  0  0  0  0  0
  -23.6294   -8.2241   22.0765 C   0  0  0  0  0  0
  -22.4278   -8.0281   21.3546 C   0  0  0  0  0  0
  -21.9913   -9.0249   20.4647 C   0  0  0  0  0  0
  -22.7234  -10.2132   20.3057 C   0  0  0  0  0  0
  -21.6850   -6.0737   22.5282 C   0  0  0  0  0  0
  -21.4011   -6.5644   23.8215 C   0  0  0  0  0  0
  -21.3656   -5.6798   24.9178 C   0  0  0  0  0  0
  -21.6042   -4.3059   24.7229 C   0  0  0  0  0  0
  -21.8820   -3.8151   23.4354 C   0  0  0  0  0  0
  -21.9195   -4.6966   22.3407 C   0  0  0  0  0  0
  -22.7834  -13.5224   21.1857 C   0  0  0  0  0  0
  -22.1663   -4.2149   21.0986 F   0  0  0  0  0  0
  -21.5629   -3.4544   25.7745 F   0  0  0  0  0  0
  -30.0078  -13.3949   20.4279 N   0  0  0  0  0  0
  -26.2960  -12.9354   20.3320 N   0  0  0  0  0  0
  -25.9309  -11.6508   20.5767 N   0  0  0  0  0  0
  -22.0480  -12.8203   22.0414 N   0  0  0  0  0  0
  -25.4208  -15.1874   20.4081 N   0  0  0  0  0  0
  -31.8138  -14.7368   20.1526 O   0  0  0  0  0  0
  -21.6643   -6.8876   21.4246 O   0  0  0  0  0  0
  -22.3529  -14.5544   20.6728 O   0  0  0  0  0  0
  -24.6223  -31.8632   23.2032 C   0  0  0  0  0  0
  -25.9086  -32.4802   23.8351 C   0  0  1  0  0  0
  -27.2282  -27.3431   20.1280 C   0  0  0  0  0  0
  -25.5913  -33.8598   24.2288 N   0  0  0  0  0  0
  -23.4150  -30.4820   21.5462 C   0  0  2  0  0  0
  -24.8598  -28.9266   20.1253 C   0  0  0  0  0  0
  -22.7448  -29.4642   22.4988 C   0  0  0  0  0  0
  -18.0279  -28.1408   22.8492 C   0  0  0  0  0  0
  -24.1486  -36.7302   23.2638 C   0  0  0  0  0  0
  -25.9510  -30.7958   21.3724 C   0  0  0  0  0  0
  -26.0239  -29.4190   20.7288 C   0  0  0  0  0  0
  -27.2114  -28.6379   20.7197 C   0  0  0  0  0  0
  -26.0473  -26.8880   19.5066 C   0  0  0  0  0  0
  -24.8699  -27.6630   19.5090 C   0  0  0  0  0  0
  -23.6285  -29.8076   20.1654 C   0  0  0  0  0  0
  -25.4119  -36.3098   24.0321 C   0  0  1  0  0  0
  -20.5868  -28.3712   23.1313 C   0  0  2  0  0  0
  -20.6774  -26.9446   22.5428 C   0  0  0  0  0  0
  -19.5754  -26.6408   21.5227 C   0  0  0  0  0  0
  -18.1931  -26.7950   22.1627 C   0  0  0  0  0  0
  -19.1526  -28.8877   23.2891 C   0  0  0  0  0  0
  -18.9450  -30.1474   23.8916 C   0  0  0  0  0  0
  -17.6451  -30.6609   24.0575 C   0  0  0  0  0  0
  -25.9059  -34.9468   23.5111 C   0  0  0  0  0  0
  -16.5344  -29.9115   23.6331 C   0  0  0  0  0  0
  -16.7263  -28.6529   23.0358 C   0  0  0  0  0  0
  -26.4473  -31.6601   25.0713 C   0  0  0  0  0  0
  -25.3693  -31.3720   26.1424 C   0  0  0  0  0  0
  -27.0328  -30.3033   24.6162 C   0  0  0  0  0  0
  -27.6042  -32.4334   25.7474 C   0  0  0  0  0  0
  -27.5586  -37.1803   24.8461 C   0  0  0  0  0  0
  -21.4170  -29.3051   22.3705 N   0  0  0  0  0  0
  -26.4302  -37.3794   23.9402 N   0  0  0  0  0  0
  -24.6813  -31.0652   22.0975 N   0  0  0  0  0  0
  -23.4183  -28.8205   23.3079 O   0  0  0  0  0  0
  -28.4007  -26.5989   20.0329 O   0  0  0  0  0  0
  -26.5639  -34.8922   22.4683 O   0  0  0  0  0  0
  -23.5400  -32.1439   23.7372 O   0  0  0  0  0  0
  -31.8034  -18.7580   21.8011 C   0  0  0  0  0  0
  -31.4551  -17.4195   21.5738 C   0  0  0  0  0  0
  -30.9428  -19.8244   21.4623 C   0  0  0  0  0  0
  -29.6779  -19.5616   20.8477 C   0  0  0  0  0  0
  -29.3345  -18.1651   20.6317 C   0  0  0  0  0  0
  -30.2197  -17.0838   20.9900 C   0  0  0  0  0  0
  -27.8087  -22.9254   21.4163 C   0  0  0  0  0  0
  -27.3460  -22.4895   22.6020 C   0  0  0  0  0  0
  -27.3617  -24.2458   20.7344 C   0  0  0  0  0  0
  -29.6645  -24.4701   19.7588 C   0  0  0  0  0  0
  -29.4147  -22.9413   19.5010 C   0  0  0  0  0  0
  -28.5513  -25.2254   20.5444 C   0  0  1  0  0  0
  -31.4545  -21.2158   21.8125 C   0  0  0  0  0  0
  -27.9934  -17.7908   20.0019 C   0  0  0  0  0  0
  -28.6723  -20.7047   20.4074 C   0  0  0  0  0  0
  -29.8622  -15.6764   20.8509 N   0  0  0  0  0  0
  -28.9252  -22.1795   20.6932 N   0  3  2  0  0  0
  -31.4684  -12.4949   19.1405 H   0  0  0  0  0  0
  -30.3544  -11.3799   19.8848 H   0  0  0  0  0  0
  -29.7602  -11.7588   17.4679 H   0  0  0  0  0  0
  -29.6471  -13.4788   17.7482 H   0  0  0  0  0  0
  -27.8484  -11.2979   18.8510 H   0  0  0  0  0  0
  -27.3724  -12.5967   17.7909 H   0  0  0  0  0  0
  -27.6700  -14.2537   19.5329 H   0  0  0  0  0  0
  -28.6957  -12.0444   21.3794 H   0  0  0  0  0  0
  -28.4429  -13.7041   21.8427 H   0  0  0  0  0  0
  -25.2764   -9.5686   22.4765 H   0  0  0  0  0  0
  -24.0000   -7.4637   22.7488 H   0  0  0  0  0  0
  -21.0847   -8.8769   19.8950 H   0  0  0  0  0  0
  -22.3698  -10.9675   19.6169 H   0  0  0  0  0  0
  -21.2001   -7.6154   23.9713 H   0  0  0  0  0  0
  -21.1476   -6.0536   25.9082 H   0  0  0  0  0  0
  -22.0604   -2.7610   23.2859 H   0  0  0  0  0  0
  -22.4116  -11.9860   22.4767 H   0  0  0  0  0  0
  -21.1099  -13.1220   22.2631 H   0  0  0  0  0  0
  -24.6467  -15.8338   20.5129 H   0  0  0  0  0  0
  -26.2555  -15.6243   20.0439 H   0  0  0  0  0  0
  -26.7157  -32.5485   23.1107 H   0  0  0  0  0  0
  -25.0018  -33.9755   25.0401 H   0  0  0  0  0  0
  -22.7077  -31.3002   21.3994 H   0  0  0  0  0  0
  -23.3758  -35.9624   23.3298 H   0  0  0  0  0  0
  -24.3577  -36.8942   22.2051 H   0  0  0  0  0  0
  -23.7219  -37.6487   23.6678 H   0  0  0  0  0  0
  -26.0760  -31.5500   20.5948 H   0  0  0  0  0  0
  -26.8349  -30.8520   21.9965 H   0  0  0  0  0  0
  -28.1149  -29.0218   21.1726 H   0  0  0  0  0  0
  -26.0391  -25.9383   18.9935 H   0  0  0  0  0  0
  -23.9803  -27.2856   19.0234 H   0  0  0  0  0  0
  -23.7500  -30.5776   19.4031 H   0  0  0  0  0  0
  -22.7500  -29.2325   19.8671 H   0  0  0  0  0  0
  -25.1299  -36.1949   25.0810 H   0  0  0  0  0  0
  -20.9948  -28.3292   24.1438 H   0  0  0  0  0  0
  -20.5712  -26.2328   23.3624 H   0  0  0  0  0  0
  -21.6646  -26.7508   22.1206 H   0  0  0  0  0  0
  -19.6928  -25.6320   21.1267 H   0  0  0  0  0  0
  -19.6697  -27.3210   20.6750 H   0  0  0  0  0  0
  -17.4207  -26.6710   21.4017 H   0  0  0  0  0  0
  -18.0314  -26.0091   22.9017 H   0  0  0  0  0  0
  -19.7922  -30.7277   24.2317 H   0  0  0  0  0  0
  -17.5007  -31.6290   24.5183 H   0  0  0  0  0  0
  -15.5349  -30.3027   23.7654 H   0  0  0  0  0  0
  -15.8657  -28.0852   22.7083 H   0  0  0  0  0  0
  -24.5880  -30.7074   25.7717 H   0  0  0  0  0  0
  -24.8858  -32.2874   26.4843 H   0  0  0  0  0  0
  -25.7987  -30.8878   27.0203 H   0  0  0  0  0  0
  -26.2904  -29.6777   24.1195 H   0  0  0  0  0  0
  -27.4041  -29.7298   25.4667 H   0  0  0  0  0  0
  -27.8761  -30.4341   23.9379 H   0  0  0  0  0  0
  -27.2671  -33.3651   26.2034 H   0  0  0  0  0  0
  -28.3841  -32.6873   25.0278 H   0  0  0  0  0  0
  -28.0719  -31.8462   26.5392 H   0  0  0  0  0  0
  -28.2597  -38.0108   24.7545 H   0  0  0  0  0  0
  -28.1087  -36.2644   24.6255 H   0  0  0  0  0  0
  -27.2309  -37.1414   25.8865 H   0  0  0  0  0  0
  -20.9378  -29.8722   21.6850 H   0  0  0  0  0  0
  -26.0183  -38.2867   24.1416 H   0  0  0  0  0  0
  -32.7607  -18.9560   22.2652 H   0  0  0  0  0  0
  -32.1481  -16.6496   21.8819 H   0  0  0  0  0  0
  -26.5860  -23.0405   23.1365 H   0  0  0  0  0  0
  -27.7178  -21.5883   23.0695 H   0  0  0  0  0  0
  -26.5952  -24.7185   21.3485 H   0  0  0  0  0  0
  -26.8870  -24.0053   19.7825 H   0  0  0  0  0  0
  -29.7945  -24.9458   18.7865 H   0  0  0  0  0  0
  -30.6167  -24.6054   20.2722 H   0  0  0  0  0  0
  -30.3206  -22.4754   19.1115 H   0  0  0  0  0  0
  -28.6716  -22.8448   18.7077 H   0  0  0  0  0  0
  -28.9416  -25.3859   21.5512 H   0  0  0  0  0  0
  -32.4331  -21.1644   22.2934 H   0  0  0  0  0  0
  -30.7971  -21.7165   22.5237 H   0  0  0  0  0  0
  -31.5934  -21.8313   20.9256 H   0  0  0  0  0  0
  -27.5684  -18.5746   19.3789 H   0  0  0  0  0  0
  -27.2666  -17.5447   20.7767 H   0  0  0  0  0  0
  -28.0957  -16.9246   19.3480 H   0  0  0  0  0  0
  -27.7087  -20.4448   20.8476 H   0  0  0  0  0  0
  -28.5176  -20.6008   19.3335 H   0  0  0  0  0  0
  -28.8877  -15.4561   20.9881 H   0  0  0  0  0  0
  -29.7138  -22.1483   21.3230 H   0  0  0  0  0  0
  1 25  1  0  0  0
  1 30  2  0  0  0
  1 86  1  0  0  0
  2  3  1  0  0  0
  2 25  1  0  0  0
  2 88  1  0  0  0
  2 89  1  0  0  0
  3  4  1  0  0  0
  3 90  1  0  0  0
  3 91  1  0  0  0
  4  5  1  0  0  0
  4 92  1  0  0  0
  4 93  1  0  0  0
  5  6  1  0  0  0
  5 26  1  0  0  0
  5 94  1  0  0  0
  6 25  1  0  0  0
  6 95  1  0  0  0
  6 96  1  0  0  0
  7  8  2  0  0  0
  7 26  1  0  0  0
  7 29  1  0  0  0
  8  9  1  0  0  0
  8 22  1  0  0  0
  9 10  1  0  0  0
  9 27  2  0  0  0
 10 11  2  0  0  0
 10 15  1  0  0  0
 11 12  1  0  0  0
 11 97  1  0  0  0
 12 13  2  0  0  0
 12 98  1  0  0  0
 13 14  1  0  0  0
 13 31  1  0  0  0
 14 15  2  0  0  0
 14 99  1  0  0  0
 15100  1  0  0  0
 16 17  2  0  0  0
 16 21  1  0  0  0
 16 31  1  0  0  0
 17 18  1  0  0  0
 17101  1  0  0  0
 18 19  2  0  0  0
 18102  1  0  0  0
 19 20  1  0  0  0
 19 24  1  0  0  0
 20 21  2  0  0  0
 20103  1  0  0  0
 21 23  1  0  0  0
 22 28  1  0  0  0
 22 32  2  0  0  0
 26 27  1  0  0  0
 28104  1  0  0  0
 28105  1  0  0  0
 29106  1  0  0  0
 29107  1  0  0  0
 33 34  1  0  0  0
 33 66  1  0  0  0
 33 70  2  0  0  0
 34 36  1  0  0  0
 34 59  1  0  0  0
 34108  1  0  0  0
 35 44  2  0  0  0
 35 45  1  0  0  0
 35 68  1  0  0  0
 36 56  1  0  0  0
 36109  1  0  0  0
 37 39  1  0  0  0
 37 47  1  0  0  0
 37 66  1  0  0  0
 37110  1  0  0  0
 38 43  2  0  0  0
 38 46  1  0  0  0
 38 47  1  0  0  0
 39 64  1  0  0  0
 39 67  2  0  0  0
 40 52  1  0  0  0
 40 53  2  0  0  0
 40 58  1  0  0  0
 41111  1  0  0  0
 41112  1  0  0  0
 41113  1  0  0  0
 41 48  1  0  0  0
 42 43  1  0  0  0
 42 66  1  0  0  0
 42114  1  0  0  0
 42115  1  0  0  0
 43 44  1  0  0  0
 44116  1  0  0  0
 45 46  2  0  0  0
 45117  1  0  0  0
 46118  1  0  0  0
 47119  1  0  0  0
 47120  1  0  0  0
 48 56  1  0  0  0
 48 65  1  0  0  0
 48121  1  0  0  0
 49 50  1  0  0  0
 49 53  1  0  0  0
 49 64  1  0  0  0
 49122  1  0  0  0
 50 51  1  0  0  0
 50123  1  0  0  0
 50124  1  0  0  0
 51 52  1  0  0  0
 51125  1  0  0  0
 51126  1  0  0  0
 52127  1  0  0  0
 52128  1  0  0  0
 53 54  1  0  0  0
 54 55  2  0  0  0
 54129  1  0  0  0
 55 57  1  0  0  0
 55130  1  0  0  0
 56 69  2  0  0  0
 57 58  2  0  0  0
 57131  1  0  0  0
 58132  1  0  0  0
 59 60  1  0  0  0
 59 61  1  0  0  0
 59 62  1  0  0  0
 60133  1  0  0  0
 60134  1  0  0  0
 60135  1  0  0  0
 61136  1  0  0  0
 61137  1  0  0  0
 61138  1  0  0  0
 62139  1  0  0  0
 62140  1  0  0  0
 62141  1  0  0  0
 63 65  1  0  0  0
 63142  1  0  0  0
 63143  1  0  0  0
 63144  1  0  0  0
 64145  1  0  0  0
 65146  1  0  0  0
 68 82  1  0  0  0
 71 72  2  0  0  0
 71 73  1  0  0  0
 71147  1  0  0  0
 72 76  1  0  0  0
 72148  1  0  0  0
 73 74  2  0  0  0
 73 83  1  0  0  0
 74 75  1  0  0  0
 74 85  1  0  0  0
 75 76  2  0  0  0
 75 84  1  0  0  0
 76 86  1  0  0  0
 77 78  2  0  0  0
 77 79  1  0  0  0
 77 87  1  0  0  0
 78149  1  0  0  0
 78150  1  0  0  0
 79 82  1  0  0  0
 79151  1  0  0  0
 79152  1  0  0  0
 80 81  1  0  0  0
 80 82  1  0  0  0
 80153  1  0  0  0
 80154  1  0  0  0
 81 87  1  0  0  0
 81155  1  0  0  0
 81156  1  0  0  0
 82157  1  0  0  0
 83158  1  0  0  0
 83159  1  0  0  0
 83160  1  0  0  0
 84161  1  0  0  0
 84162  1  0  0  0
 84163  1  0  0  0
 85164  1  0  0  0
 85165  1  0  0  0
 85 87  1  0  0  0
 86166  1  0  0  0
 87167  1  0  0  0
M  CHG  1  87   1
M  ISO  4   1 100  68 101  82 101  86 100
M  END
> <chiral flag>
0

> <version>
0

> <s_m_source_file>
/data/baiqing/PycharmProjects/Reinvent-master-3.2/result/LINK_invent/BTK/process_docking_weight1_custom_product_contain_oxygen_bond_distance_aromatic_linkinvent_7_9_3/rearranged_h_0048.sdf

> <i_m_source_file_index>
44

> <r_mmod_Potential_Energy-OPLS-2005>
-10.7380323410034

> <r_mmod_Stretch_Energy-OPLS-2005>
79.706787109375

> <r_mmod_Bend_Energy-OPLS-2005>
161.797302246094

> <r_mmod_Torsional_Energy-OPLS-2005>
272.856323242188

> <r_mmod_Improper_Torsional_Energy-OPLS-2005>
5.67601919174194

> <r_mmod_Van_der_Waal_Energy-OPLS-2005>
159.969451904297

> <r_mmod_Electrostatic_Energy-OPLS-2005>
-283.574554443359

> <r_mmod_Solvation_Energy-OPLS-2005>
-440.044555664062

> <b_mmod_Minimization_Converged-OPLS-2005>
0

> <r_mmod_RMS_Derivative-OPLS-2005>
1.64885699748993

$$$$
44
                    3D
 Structure written by MMmdl.
176185  0  0  1  0            999 V2000
  -30.7644  -14.3572   20.6485 C   0  0  0  0  0  0
  -30.4109  -12.2598   19.4110 C   0  0  0  0  0  0
  -29.4908  -12.5193   18.2029 C   0  0  0  0  0  0
  -28.0097  -12.3938   18.6103 C   0  0  0  0  0  0
  -27.6695  -13.2039   19.8886 C   0  0  2  0  0  0
  -28.7065  -12.9353   21.0048 C   0  0  0  0  0  0
  -25.2591  -13.8151   20.5659 C   0  0  0  0  0  0
  -24.1826  -13.0435   20.9135 C   0  0  0  0  0  0
  -24.6367  -11.6897   20.8686 C   0  0  0  0  0  0
  -23.9021  -10.4291   21.0363 C   0  0  0  0  0  0
  -24.3583   -9.4216   21.9144 C   0  0  0  0  0  0
  -23.6272   -8.2248   22.0737 C   0  0  0  0  0  0
  -22.4250   -8.0274   21.3532 C   0  0  0  0  0  0
  -21.9875   -9.0226   20.4617 C   0  0  0  0  0  0
  -22.7197  -10.2112   20.3010 C   0  0  0  0  0  0
  -21.6852   -6.0716   22.5268 C   0  0  0  0  0  0
  -21.4014   -6.5623   23.8206 C   0  0  0  0  0  0
  -21.3666   -5.6770   24.9165 C   0  0  0  0  0  0
  -21.6055   -4.3037   24.7212 C   0  0  0  0  0  0
  -21.8820   -3.8123   23.4333 C   0  0  0  0  0  0
  -21.9197   -4.6944   22.3390 C   0  0  0  0  0  0
  -22.7850  -13.5238   21.1814 C   0  0  0  0  0  0
  -22.1656   -4.2131   21.0966 F   0  0  0  0  0  0
  -21.5643   -3.4519   25.7727 F   0  0  0  0  0  0
  -30.0541  -13.2135   20.4704 N   0  0  0  0  0  0
  -26.3050  -12.9324   20.3403 N   0  0  0  0  0  0
  -25.9307  -11.6477   20.5739 N   0  0  0  0  0  0
  -22.0500  -12.8202   22.0365 N   0  0  0  0  0  0
  -25.4332  -15.1867   20.4072 N   0  0  0  0  0  0
  -31.7810  -14.6223   20.0020 O   0  0  0  0  0  0
  -21.6632   -6.8860   21.4231 O   0  0  0  0  0  0
  -22.3532  -14.5548   20.6696 O   0  0  0  0  0  0
  -24.6073  -31.8713   23.2124 C   0  0  0  0  0  0
  -25.9000  -32.4838   23.8401 C   0  0  1  0  0  0
  -27.2429  -27.4828   20.0773 C   0  0  0  0  0  0
  -25.5892  -33.8639   24.2343 N   0  0  0  0  0  0
  -23.3926  -30.4938   21.5510 C   0  0  2  0  0  0
  -24.8391  -28.9605   20.1143 C   0  0  0  0  0  0
  -22.7360  -29.4680   22.5018 C   0  0  0  0  0  0
  -18.0254  -28.1388   22.8487 C   0  0  0  0  0  0
  -24.1490  -36.7318   23.2638 C   0  0  0  0  0  0
  -25.9146  -30.8469   21.3592 C   0  0  0  0  0  0
  -25.9920  -29.4818   20.7129 C   0  0  0  0  0  0
  -27.1892  -28.7420   20.7056 C   0  0  0  0  0  0
  -26.0723  -26.9589   19.4802 C   0  0  0  0  0  0
  -24.8712  -27.6942   19.5015 C   0  0  0  0  0  0
  -23.5961  -29.8183   20.1673 C   0  0  0  0  0  0
  -25.4112  -36.3123   24.0338 C   0  0  1  0  0  0
  -20.5840  -28.3655   23.1352 C   0  0  2  0  0  0
  -20.6752  -26.9398   22.5448 C   0  0  0  0  0  0
  -19.5754  -26.6392   21.5217 C   0  0  0  0  0  0
  -18.1908  -26.7952   22.1581 C   0  0  0  0  0  0
  -19.1503  -28.8832   23.2924 C   0  0  0  0  0  0
  -18.9429  -30.1439   23.8934 C   0  0  0  0  0  0
  -17.6436  -30.6595   24.0561 C   0  0  0  0  0  0
  -25.9033  -34.9486   23.5134 C   0  0  0  0  0  0
  -16.5324  -29.9091   23.6338 C   0  0  0  0  0  0
  -16.7241  -28.6511   23.0352 C   0  0  0  0  0  0
  -26.4453  -31.6612   25.0711 C   0  0  0  0  0  0
  -25.3741  -31.3733   26.1483 C   0  0  0  0  0  0
  -27.0247  -30.3047   24.6071 C   0  0  0  0  0  0
  -27.6062  -32.4313   25.7443 C   0  0  0  0  0  0
  -27.5596  -37.1808   24.8448 C   0  0  0  0  0  0
  -21.4095  -29.3025   22.3751 N   0  0  0  0  0  0
  -26.4297  -37.3806   23.9407 N   0  0  0  0  0  0
  -24.6563  -31.0845   22.1003 N   0  0  0  0  0  0
  -23.4162  -28.8233   23.3051 O   0  0  0  0  0  0
  -28.4507  -26.8314   20.0858 O   0  0  0  0  0  0
  -26.5583  -34.8926   22.4688 O   0  0  0  0  0  0
  -23.5283  -32.1444   23.7552 O   0  0  0  0  0  0
  -30.6835  -21.5615   21.9079 C   0  0  0  0  0  0
  -31.1750  -20.2846   21.6046 C   0  0  0  0  0  0
  -34.2427  -18.0249   21.7023 C   0  0  0  0  0  0
  -30.9348  -22.6254   21.0327 C   0  0  0  0  0  0
  -34.8034  -17.2893   22.7623 C   0  0  0  0  0  0
  -32.6698  -16.1663   23.0955 C   0  0  0  0  0  0
  -31.9630  -20.0556   20.4529 C   0  0  0  0  0  0
  -32.8973  -17.8335   21.3162 C   0  0  0  0  0  0
  -34.0146  -16.3585   23.4635 C   0  0  0  0  0  0
  -31.6981  -22.4351   19.8599 C   0  0  0  0  0  0
  -32.1005  -16.8858   22.0216 C   0  0  0  0  0  0
  -32.2722  -21.1591   19.5969 C   0  0  0  0  0  0
  -32.3807  -18.6481   20.1889 C   0  0  0  0  0  0
  -30.1722  -25.4052   19.2095 C   0  0  0  0  0  0
  -34.5993  -15.5552   24.6054 C   0  0  0  0  0  0
  -33.2314  -21.0060   18.4157 C   0  0  0  0  0  0
  -29.7067  -23.5271   17.6719 C   0  0  0  0  0  0
  -31.8571  -23.6223   18.9005 C   0  0  0  0  0  0
  -30.6335  -16.6173   21.6636 C   0  0  0  0  0  0
  -28.6880  -25.8018   19.1337 C   0  0  0  0  0  0
  -32.2836  -18.1376   19.0343 N   0  0  0  0  0  0
  -30.2713  -15.2045   21.5577 N   0  0  0  0  0  0
  -30.5697  -24.2654   18.5993 N   0  0  0  0  0  0
  -30.9482  -26.0987   19.8792 O   0  0  0  0  0  0
  -31.4606  -12.3306   19.1201 H   0  0  0  0  0  0
  -30.2783  -11.2393   19.7725 H   0  0  0  0  0  0
  -29.7168  -11.8163   17.4000 H   0  0  0  0  0  0
  -29.6835  -13.5161   17.8018 H   0  0  0  0  0  0
  -27.7989  -11.3361   18.7703 H   0  0  0  0  0  0
  -27.3642  -12.7097   17.7898 H   0  0  0  0  0  0
  -27.7313  -14.2601   19.6255 H   0  0  0  0  0  0
  -28.6565  -11.8907   21.3142 H   0  0  0  0  0  0
  -28.4640  -13.5068   21.9007 H   0  0  0  0  0  0
  -25.2749   -9.5703   22.4678 H   0  0  0  0  0  0
  -24.0001   -7.4640   22.7450 H   0  0  0  0  0  0
  -21.0820   -8.8707   19.8906 H   0  0  0  0  0  0
  -22.3659  -10.9613   19.6077 H   0  0  0  0  0  0
  -21.1989   -7.6130   23.9702 H   0  0  0  0  0  0
  -21.1489   -6.0497   25.9072 H   0  0  0  0  0  0
  -22.0588   -2.7583   23.2823 H   0  0  0  0  0  0
  -22.4158  -11.9878   22.4734 H   0  0  0  0  0  0
  -21.1082  -13.1147   22.2528 H   0  0  0  0  0  0
  -24.6714  -15.8463   20.5207 H   0  0  0  0  0  0
  -26.2945  -15.6209   20.0996 H   0  0  0  0  0  0
  -26.7071  -32.5555   23.1164 H   0  0  0  0  0  0
  -25.0093  -33.9818   25.0518 H   0  0  0  0  0  0
  -22.6790  -31.3080   21.4119 H   0  0  0  0  0  0
  -23.3773  -35.9628   23.3258 H   0  0  0  0  0  0
  -24.3598  -36.8971   22.2056 H   0  0  0  0  0  0
  -23.7205  -37.6493   23.6672 H   0  0  0  0  0  0
  -26.0170  -31.6104   20.5864 H   0  0  0  0  0  0
  -26.8071  -30.9058   21.9706 H   0  0  0  0  0  0
  -28.0816  -29.1421   21.1679 H   0  0  0  0  0  0
  -26.0699  -25.9925   18.9981 H   0  0  0  0  0  0
  -23.9831  -27.2852   19.0397 H   0  0  0  0  0  0
  -23.6871  -30.5855   19.3980 H   0  0  0  0  0  0
  -22.7254  -29.2228   19.8865 H   0  0  0  0  0  0
  -25.1297  -36.1988   25.0829 H   0  0  0  0  0  0
  -20.9937  -28.3218   24.1475 H   0  0  0  0  0  0
  -20.5631  -26.2259   23.3626 H   0  0  0  0  0  0
  -21.6627  -26.7450   22.1243 H   0  0  0  0  0  0
  -19.6905  -25.6298   21.1253 H   0  0  0  0  0  0
  -19.6749  -27.3201   20.6758 H   0  0  0  0  0  0
  -17.4219  -26.6757   21.3927 H   0  0  0  0  0  0
  -18.0247  -26.0069   22.8935 H   0  0  0  0  0  0
  -19.7907  -30.7241   24.2324 H   0  0  0  0  0  0
  -17.4995  -31.6289   24.5137 H   0  0  0  0  0  0
  -15.5322  -30.2999   23.7672 H   0  0  0  0  0  0
  -15.8631  -28.0841   22.7061 H   0  0  0  0  0  0
  -24.5950  -30.7014   25.7860 H   0  0  0  0  0  0
  -24.8871  -32.2884   26.4873 H   0  0  0  0  0  0
  -25.8113  -30.8986   27.0276 H   0  0  0  0  0  0
  -26.2755  -29.6827   24.1158 H   0  0  0  0  0  0
  -27.4036  -29.7280   25.4516 H   0  0  0  0  0  0
  -27.8595  -30.4336   23.9177 H   0  0  0  0  0  0
  -27.2719  -33.3621   26.2042 H   0  0  0  0  0  0
  -28.3855  -32.6864   25.0243 H   0  0  0  0  0  0
  -28.0757  -31.8422   26.5329 H   0  0  0  0  0  0
  -28.2624  -38.0097   24.7506 H   0  0  0  0  0  0
  -28.1087  -36.2642   24.6255 H   0  0  0  0  0  0
  -27.2331  -37.1431   25.8854 H   0  0  0  0  0  0
  -20.9231  -29.8727   21.6968 H   0  0  0  0  0  0
  -26.0195  -38.2884   24.1430 H   0  0  0  0  0  0
  -30.0918  -21.7204   22.7999 H   0  0  0  0  0  0
  -30.9305  -19.4738   22.2752 H   0  0  0  0  0  0
  -34.8562  -18.7411   21.1725 H   0  0  0  0  0  0
  -30.5265  -23.5958   21.2751 H   0  0  0  0  0  0
  -35.8395  -17.4467   23.0300 H   0  0  0  0  0  0
  -32.0688  -15.4514   23.6414 H   0  0  0  0  0  0
  -35.6136  -15.8756   24.8474 H   0  0  0  0  0  0
  -34.6281  -14.4979   24.3397 H   0  0  0  0  0  0
  -33.9852  -15.6648   25.5003 H   0  0  0  0  0  0
  -33.8968  -20.1500   18.5139 H   0  0  0  0  0  0
  -33.8960  -21.8670   18.3422 H   0  0  0  0  0  0
  -32.6816  -20.9105   17.4794 H   0  0  0  0  0  0
  -29.3019  -24.1871   16.9036 H   0  0  0  0  0  0
  -28.8765  -23.0636   18.2054 H   0  0  0  0  0  0
  -30.2437  -22.7284   17.1589 H   0  0  0  0  0  0
  -32.2972  -23.3347   17.9475 H   0  0  0  0  0  0
  -32.5738  -24.3194   19.3390 H   0  0  0  0  0  0
  -30.3389  -17.0944   20.7294 H   0  0  0  0  0  0
  -30.0086  -17.0695   22.4342 H   0  0  0  0  0  0
  -28.0679  -24.9369   19.3719 H   0  0  0  0  0  0
  -28.4523  -26.1409   18.1242 H   0  0  0  0  0  0
  -31.9118  -18.8091   18.3730 H   0  0  0  0  0  0
  -29.4647  -14.8944   22.0785 H   0  0  0  0  0  0
  1 25  1  0  0  0
  1 30  2  0  0  0
  1 92  1  0  0  0
  2  3  1  0  0  0
  2 25  1  0  0  0
  2 95  1  0  0  0
  2 96  1  0  0  0
  3  4  1  0  0  0
  3 97  1  0  0  0
  3 98  1  0  0  0
  4  5  1  0  0  0
  4 99  1  0  0  0
  4100  1  0  0  0
  5  6  1  0  0  0
  5 26  1  0  0  0
  5101  1  0  0  0
  6 25  1  0  0  0
  6102  1  0  0  0
  6103  1  0  0  0
  7  8  2  0  0  0
  7 26  1  0  0  0
  7 29  1  0  0  0
  8  9  1  0  0  0
  8 22  1  0  0  0
  9 10  1  0  0  0
  9 27  2  0  0  0
 10 11  2  0  0  0
 10 15  1  0  0  0
 11 12  1  0  0  0
 11104  1  0  0  0
 12 13  2  0  0  0
 12105  1  0  0  0
 13 14  1  0  0  0
 13 31  1  0  0  0
 14 15  2  0  0  0
 14106  1  0  0  0
 15107  1  0  0  0
 16 17  2  0  0  0
 16 21  1  0  0  0
 16 31  1  0  0  0
 17 18  1  0  0  0
 17108  1  0  0  0
 18 19  2  0  0  0
 18109  1  0  0  0
 19 20  1  0  0  0
 19 24  1  0  0  0
 20 21  2  0  0  0
 20110  1  0  0  0
 21 23  1  0  0  0
 22 28  1  0  0  0
 22 32  2  0  0  0
 26 27  1  0  0  0
 28111  1  0  0  0
 28112  1  0  0  0
 29113  1  0  0  0
 29114  1  0  0  0
 33 34  1  0  0  0
 33 66  1  0  0  0
 33 70  2  0  0  0
 34 36  1  0  0  0
 34 59  1  0  0  0
 34115  1  0  0  0
 35 44  2  0  0  0
 35 45  1  0  0  0
 35 68  1  0  0  0
 36 56  1  0  0  0
 36116  1  0  0  0
 37 39  1  0  0  0
 37 47  1  0  0  0
 37 66  1  0  0  0
 37117  1  0  0  0
 38 43  2  0  0  0
 38 46  1  0  0  0
 38 47  1  0  0  0
 39 64  1  0  0  0
 39 67  2  0  0  0
 40 52  1  0  0  0
 40 53  2  0  0  0
 40 58  1  0  0  0
 41118  1  0  0  0
 41119  1  0  0  0
 41120  1  0  0  0
 41 48  1  0  0  0
 42 43  1  0  0  0
 42 66  1  0  0  0
 42121  1  0  0  0
 42122  1  0  0  0
 43 44  1  0  0  0
 44123  1  0  0  0
 45 46  2  0  0  0
 45124  1  0  0  0
 46125  1  0  0  0
 47126  1  0  0  0
 47127  1  0  0  0
 48 56  1  0  0  0
 48 65  1  0  0  0
 48128  1  0  0  0
 49 50  1  0  0  0
 49 53  1  0  0  0
 49 64  1  0  0  0
 49129  1  0  0  0
 50 51  1  0  0  0
 50130  1  0  0  0
 50131  1  0  0  0
 51 52  1  0  0  0
 51132  1  0  0  0
 51133  1  0  0  0
 52134  1  0  0  0
 52135  1  0  0  0
 53 54  1  0  0  0
 54 55  2  0  0  0
 54136  1  0  0  0
 55 57  1  0  0  0
 55137  1  0  0  0
 56 69  2  0  0  0
 57 58  2  0  0  0
 57138  1  0  0  0
 58139  1  0  0  0
 59 60  1  0  0  0
 59 61  1  0  0  0
 59 62  1  0  0  0
 60140  1  0  0  0
 60141  1  0  0  0
 60142  1  0  0  0
 61143  1  0  0  0
 61144  1  0  0  0
 61145  1  0  0  0
 62146  1  0  0  0
 62147  1  0  0  0
 62148  1  0  0  0
 63 65  1  0  0  0
 63149  1  0  0  0
 63150  1  0  0  0
 63151  1  0  0  0
 64152  1  0  0  0
 65153  1  0  0  0
 68 90  1  0  0  0
 71 72  2  0  0  0
 71 74  1  0  0  0
 71154  1  0  0  0
 72 77  1  0  0  0
 72155  1  0  0  0
 73 75  2  0  0  0
 73 78  1  0  0  0
 73156  1  0  0  0
 74 80  2  0  0  0
 74157  1  0  0  0
 75 79  1  0  0  0
 75158  1  0  0  0
 76 79  2  0  0  0
 76 81  1  0  0  0
 76159  1  0  0  0
 77 82  2  0  0  0
 77 83  1  0  0  0
 78 81  2  0  0  0
 78 83  1  0  0  0
 79 85  1  0  0  0
 80 82  1  0  0  0
 80 88  1  0  0  0
 81 89  1  0  0  0
 82 86  1  0  0  0
 83 91  2  0  0  0
 84 90  1  0  0  0
 84 93  1  0  0  0
 84 94  2  0  0  0
 85160  1  0  0  0
 85161  1  0  0  0
 85162  1  0  0  0
 86163  1  0  0  0
 86164  1  0  0  0
 86165  1  0  0  0
 87 93  1  0  0  0
 87166  1  0  0  0
 87167  1  0  0  0
 87168  1  0  0  0
 88 93  1  0  0  0
 88169  1  0  0  0
 88170  1  0  0  0
 89 92  1  0  0  0
 89171  1  0  0  0
 89172  1  0  0  0
 90173  1  0  0  0
 90174  1  0  0  0
 91175  1  0  0  0
 92176  1  0  0  0
M  ISO  4   1 100  68 101  90 101  92 100
M  END
> <chiral flag>
0

> <version>
0

> <s_m_source_file>
/data/baiqing/PycharmProjects/Reinvent-master-3.2/result/LINK_invent/BTK/process_docking_weight1_custom_product_contain_oxygen_bond_distance_aromatic_linkinvent_7_9_3/rearranged_h_0048.sdf

> <i_m_source_file_index>
45

> <r_mmod_Potential_Energy-OPLS-2005>
-13.4713020324707

> <r_mmod_Stretch_Energy-OPLS-2005>
40.4016189575195

> <r_mmod_Bend_Energy-OPLS-2005>
101.274765014648

> <r_mmod_Torsional_Energy-OPLS-2005>
241.909866333008

> <r_mmod_Improper_Torsional_Energy-OPLS-2005>
2.85308861732483

> <r_mmod_Van_der_Waal_Energy-OPLS-2005>
195.599258422852

> <r_mmod_Electrostatic_Energy-OPLS-2005>
-338.929504394531

> <r_mmod_Solvation_Energy-OPLS-2005>
-264.987152099609

> <b_mmod_Minimization_Converged-OPLS-2005>
0

> <r_mmod_RMS_Derivative-OPLS-2005>
1.95348513126373

$$$$
45
                    3D
 Structure written by MMmdl.
154162  0  0  1  0            999 V2000
  -30.6885  -14.5313   20.4802 C   0  0  0  0  0  0
  -30.4193  -12.3241   19.4238 C   0  0  0  0  0  0
  -29.4815  -12.4930   18.2029 C   0  0  0  0  0  0
  -28.0068  -12.3662   18.6212 C   0  0  0  0  0  0
  -27.6459  -13.2296   19.8540 C   0  0  2  0  0  0
  -28.6999  -13.0784   20.9757 C   0  0  0  0  0  0
  -25.2512  -13.8194   20.5595 C   0  0  0  0  0  0
  -24.1794  -13.0496   20.9102 C   0  0  0  0  0  0
  -24.6398  -11.6955   20.8662 C   0  0  0  0  0  0
  -23.9136  -10.4299   21.0364 C   0  0  0  0  0  0
  -24.3705   -9.4209   21.9123 C   0  0  0  0  0  0
  -23.6356   -8.2220   22.0664 C   0  0  0  0  0  0
  -22.4323   -8.0282   21.3430 C   0  0  0  0  0  0
  -21.9962   -9.0327   20.4551 C   0  0  0  0  0  0
  -22.7333  -10.2223   20.2989 C   0  0  0  0  0  0
  -21.6858   -6.0774   22.5214 C   0  0  0  0  0  0
  -21.4096   -6.5634   23.8161 C   0  0  0  0  0  0
  -21.3700   -5.6771   24.9100 C   0  0  0  0  0  0
  -21.6121   -4.3024   24.7151 C   0  0  0  0  0  0
  -21.8865   -3.8133   23.4254 C   0  0  0  0  0  0
  -21.9201   -4.6984   22.3307 C   0  0  0  0  0  0
  -22.7834  -13.5214   21.1886 C   0  0  0  0  0  0
  -22.1672   -4.2230   21.0877 F   0  0  0  0  0  0
  -21.5631   -3.4474   25.7634 F   0  0  0  0  0  0
  -30.0224  -13.3475   20.3958 N   0  0  0  0  0  0
  -26.3004  -12.9456   20.3351 N   0  0  0  0  0  0
  -25.9319  -11.6607   20.5701 N   0  0  0  0  0  0
  -22.0622  -12.8149   22.0465 N   0  0  0  0  0  0
  -25.4144  -15.1925   20.3944 N   0  0  0  0  0  0
  -31.8628  -14.6675   20.1373 O   0  0  0  0  0  0
  -21.6566   -6.8938   21.4181 O   0  0  0  0  0  0
  -22.3389  -14.5469   20.6761 O   0  0  0  0  0  0
  -24.6251  -31.8643   23.2016 C   0  0  0  0  0  0
  -25.9110  -32.4793   23.8341 C   0  0  1  0  0  0
  -27.2403  -27.3687   20.1227 C   0  0  0  0  0  0
  -25.5925  -33.8575   24.2275 N   0  0  0  0  0  0
  -23.4179  -30.4785   21.5387 C   0  0  2  0  0  0
  -24.8707  -28.9362   20.1177 C   0  0  0  0  0  0
  -22.7453  -29.4643   22.4930 C   0  0  0  0  0  0
  -18.0279  -28.1400   22.8466 C   0  0  0  0  0  0
  -24.1493  -36.7315   23.2638 C   0  0  0  0  0  0
  -25.9534  -30.8051   21.3685 C   0  0  0  0  0  0
  -26.0350  -29.4354   20.7190 C   0  0  0  0  0  0
  -27.2253  -28.6601   20.7137 C   0  0  0  0  0  0
  -26.0594  -26.9014   19.5076 C   0  0  0  0  0  0
  -24.8857  -27.6731   19.4996 C   0  0  0  0  0  0
  -23.6356  -29.8107   20.1552 C   0  0  0  0  0  0
  -25.4114  -36.3103   24.0339 C   0  0  1  0  0  0
  -20.5873  -28.3720   23.1285 C   0  0  2  0  0  0
  -20.6761  -26.9437   22.5414 C   0  0  0  0  0  0
  -19.5753  -26.6388   21.5198 C   0  0  0  0  0  0
  -18.1936  -26.7932   22.1596 C   0  0  0  0  0  0
  -19.1528  -28.8873   23.2870 C   0  0  0  0  0  0
  -18.9449  -30.1463   23.8900 C   0  0  0  0  0  0
  -17.6453  -30.6599   24.0566 C   0  0  0  0  0  0
  -25.9052  -34.9471   23.5121 C   0  0  0  0  0  0
  -16.5347  -29.9106   23.6326 C   0  0  0  0  0  0
  -16.7259  -28.6526   23.0339 C   0  0  0  0  0  0
  -26.4500  -31.6580   25.0692 C   0  0  0  0  0  0
  -25.3684  -31.3748   26.1364 C   0  0  0  0  0  0
  -27.0380  -30.3003   24.6186 C   0  0  0  0  0  0
  -27.6082  -32.4295   25.7467 C   0  0  0  0  0  0
  -27.5578  -37.1819   24.8455 C   0  0  0  0  0  0
  -21.4176  -29.3063   22.3650 N   0  0  0  0  0  0
  -26.4286  -37.3786   23.9407 N   0  0  0  0  0  0
  -24.6831  -31.0653   22.0958 N   0  0  0  0  0  0
  -23.4184  -28.8167   23.2987 O   0  0  0  0  0  0
  -28.3710  -26.5596   20.1383 O   0  0  0  0  0  0
  -26.5613  -34.8942   22.4678 O   0  0  0  0  0  0
  -23.5410  -32.1421   23.7330 O   0  0  0  0  0  0
  -27.7392  -20.3004   21.7319 C   0  0  0  0  0  0
  -27.2864  -19.1375   22.3844 C   0  0  0  0  0  0
  -29.6812  -19.0541   20.9329 C   0  0  0  0  0  0
  -28.9340  -20.2754   20.9751 C   0  0  0  0  0  0
  -29.2393  -17.8736   21.6135 C   0  0  0  0  0  0
  -28.0113  -17.9283   22.3207 C   0  0  0  0  0  0
  -28.8855  -24.0500   20.0529 C   0  0  0  0  0  0
  -29.3877  -21.5420   20.1980 C   0  0  0  0  0  0
  -30.1196  -16.6036   21.6624 C   0  0  0  0  0  0
  -28.1909  -25.2551   20.7714 C   0  0  0  0  0  0
  -28.8546  -22.8428   20.6766 N   0  0  0  0  0  0
  -29.9102  -15.6227   20.5892 N   0  0  0  0  0  0
  -29.4168  -24.1991   18.9530 O   0  0  0  0  0  0
  -27.3581  -16.5373   23.1161 Cl  0  0  0  0  0  0
  -31.4725  -12.4006   19.1444 H   0  0  0  0  0  0
  -30.2948  -11.3468   19.8781 H   0  0  0  0  0  0
  -29.7087  -11.7523   17.4347 H   0  0  0  0  0  0
  -29.6559  -13.4651   17.7411 H   0  0  0  0  0  0
  -27.8087  -11.3149   18.8381 H   0  0  0  0  0  0
  -27.3624  -12.6388   17.7874 H   0  0  0  0  0  0
  -27.6499  -14.2636   19.5111 H   0  0  0  0  0  0
  -28.6794  -12.0766   21.4000 H   0  0  0  0  0  0
  -28.4798  -13.7667   21.7978 H   0  0  0  0  0  0
  -25.2861   -9.5821   22.4703 H   0  0  0  0  0  0
  -24.0073   -7.4532   22.7308 H   0  0  0  0  0  0
  -21.0965   -8.8885   19.8753 H   0  0  0  0  0  0
  -22.3845  -10.9899   19.6174 H   0  0  0  0  0  0
  -21.2132   -7.6131   23.9752 H   0  0  0  0  0  0
  -21.1453   -6.0404   25.9025 H   0  0  0  0  0  0
  -22.0596   -2.7575   23.2688 H   0  0  0  0  0  0
  -22.4410  -11.9955   22.4978 H   0  0  0  0  0  0
  -21.1146  -13.1016   22.2579 H   0  0  0  0  0  0
  -24.6590  -15.8700   20.4675 H   0  0  0  0  0  0
  -26.2996  -15.6116   20.1544 H   0  0  0  0  0  0
  -26.7174  -32.5493   23.1079 H   0  0  0  0  0  0
  -25.0058  -33.9716   25.0405 H   0  0  0  0  0  0
  -22.7153  -31.3007   21.3934 H   0  0  0  0  0  0
  -23.3752  -35.9647   23.3318 H   0  0  0  0  0  0
  -24.3565  -36.8909   22.2048 H   0  0  0  0  0  0
  -23.7266  -37.6534   23.6634 H   0  0  0  0  0  0
  -26.0786  -31.5611   20.5947 H   0  0  0  0  0  0
  -26.8344  -30.8577   21.9935 H   0  0  0  0  0  0
  -28.1164  -29.0384   21.1928 H   0  0  0  0  0  0
  -26.0474  -25.9257   19.0429 H   0  0  0  0  0  0
  -23.9972  -27.2872   19.0210 H   0  0  0  0  0  0
  -23.7587  -30.5865   19.3985 H   0  0  0  0  0  0
  -22.7590  -29.2358   19.8527 H   0  0  0  0  0  0
  -25.1299  -36.1962   25.0830 H   0  0  0  0  0  0
  -20.9950  -28.3296   24.1406 H   0  0  0  0  0  0
  -20.5675  -26.2330   23.3612 H   0  0  0  0  0  0
  -21.6647  -26.7472   22.1218 H   0  0  0  0  0  0
  -19.6940  -25.6302   21.1253 H   0  0  0  0  0  0
  -19.6706  -27.3179   20.6728 H   0  0  0  0  0  0
  -17.4205  -26.6660   21.4006 H   0  0  0  0  0  0
  -18.0342  -26.0083   22.9016 H   0  0  0  0  0  0
  -19.7940  -30.7258   24.2269 H   0  0  0  0  0  0
  -17.5034  -31.6273   24.5191 H   0  0  0  0  0  0
  -15.5367  -30.3024   23.7657 H   0  0  0  0  0  0
  -15.8645  -28.0859   22.7052 H   0  0  0  0  0  0
  -24.5874  -30.7101   25.7635 H   0  0  0  0  0  0
  -24.8838  -32.2934   26.4697 H   0  0  0  0  0  0
  -25.7917  -30.8950   27.0188 H   0  0  0  0  0  0
  -26.2993  -29.6703   24.1208 H   0  0  0  0  0  0
  -27.4075  -29.7313   25.4736 H   0  0  0  0  0  0
  -27.8853  -30.4294   23.9440 H   0  0  0  0  0  0
  -27.2732  -33.3610   26.2030 H   0  0  0  0  0  0
  -28.3898  -32.6796   25.0285 H   0  0  0  0  0  0
  -28.0720  -31.8394   26.5374 H   0  0  0  0  0  0
  -28.2609  -38.0109   24.7500 H   0  0  0  0  0  0
  -28.1080  -36.2647   24.6295 H   0  0  0  0  0  0
  -27.2292  -37.1477   25.8855 H   0  0  0  0  0  0
  -20.9339  -29.8808   21.6875 H   0  0  0  0  0  0
  -26.0200  -38.2874   24.1361 H   0  0  0  0  0  0
  -27.1528  -21.2066   21.8231 H   0  0  0  0  0  0
  -26.3633  -19.1592   22.9464 H   0  0  0  0  0  0
  -30.6281  -19.0359   20.3967 H   0  0  0  0  0  0
  -29.1219  -21.3986   19.1497 H   0  0  0  0  0  0
  -30.4742  -21.5846   20.2213 H   0  0  0  0  0  0
  -29.9776  -16.1022   22.6188 H   0  0  0  0  0  0
  -31.1627  -16.9264   21.6613 H   0  0  0  0  0  0
  -28.5897  -25.3195   21.7863 H   0  0  0  0  0  0
  -27.1399  -24.9917   20.8978 H   0  0  0  0  0  0
  -28.4449  -22.8516   21.5982 H   0  0  0  0  0  0
  -29.8908  -16.0975   19.6962 H   0  0  0  0  0  0
  1 25  1  0  0  0
  1 30  2  0  0  0
  1 82  1  0  0  0
  2  3  1  0  0  0
  2 25  1  0  0  0
  2 85  1  0  0  0
  2 86  1  0  0  0
  3  4  1  0  0  0
  3 87  1  0  0  0
  3 88  1  0  0  0
  4  5  1  0  0  0
  4 89  1  0  0  0
  4 90  1  0  0  0
  5  6  1  0  0  0
  5 26  1  0  0  0
  5 91  1  0  0  0
  6 25  1  0  0  0
  6 92  1  0  0  0
  6 93  1  0  0  0
  7  8  2  0  0  0
  7 26  1  0  0  0
  7 29  1  0  0  0
  8  9  1  0  0  0
  8 22  1  0  0  0
  9 10  1  0  0  0
  9 27  2  0  0  0
 10 11  2  0  0  0
 10 15  1  0  0  0
 11 12  1  0  0  0
 11 94  1  0  0  0
 12 13  2  0  0  0
 12 95  1  0  0  0
 13 14  1  0  0  0
 13 31  1  0  0  0
 14 15  2  0  0  0
 14 96  1  0  0  0
 15 97  1  0  0  0
 16 17  2  0  0  0
 16 21  1  0  0  0
 16 31  1  0  0  0
 17 18  1  0  0  0
 17 98  1  0  0  0
 18 19  2  0  0  0
 18 99  1  0  0  0
 19 20  1  0  0  0
 19 24  1  0  0  0
 20 21  2  0  0  0
 20100  1  0  0  0
 21 23  1  0  0  0
 22 28  1  0  0  0
 22 32  2  0  0  0
 26 27  1  0  0  0
 28101  1  0  0  0
 28102  1  0  0  0
 29103  1  0  0  0
 29104  1  0  0  0
 33 34  1  0  0  0
 33 66  1  0  0  0
 33 70  2  0  0  0
 34 36  1  0  0  0
 34 59  1  0  0  0
 34105  1  0  0  0
 35 44  2  0  0  0
 35 45  1  0  0  0
 35 68  1  0  0  0
 36 56  1  0  0  0
 36106  1  0  0  0
 37 39  1  0  0  0
 37 47  1  0  0  0
 37 66  1  0  0  0
 37107  1  0  0  0
 38 43  2  0  0  0
 38 46  1  0  0  0
 38 47  1  0  0  0
 39 64  1  0  0  0
 39 67  2  0  0  0
 40 52  1  0  0  0
 40 53  2  0  0  0
 40 58  1  0  0  0
 41108  1  0  0  0
 41109  1  0  0  0
 41110  1  0  0  0
 41 48  1  0  0  0
 42 43  1  0  0  0
 42 66  1  0  0  0
 42111  1  0  0  0
 42112  1  0  0  0
 43 44  1  0  0  0
 44113  1  0  0  0
 45 46  2  0  0  0
 45114  1  0  0  0
 46115  1  0  0  0
 47116  1  0  0  0
 47117  1  0  0  0
 48 56  1  0  0  0
 48 65  1  0  0  0
 48118  1  0  0  0
 49 50  1  0  0  0
 49 53  1  0  0  0
 49 64  1  0  0  0
 49119  1  0  0  0
 50 51  1  0  0  0
 50120  1  0  0  0
 50121  1  0  0  0
 51 52  1  0  0  0
 51122  1  0  0  0
 51123  1  0  0  0
 52124  1  0  0  0
 52125  1  0  0  0
 53 54  1  0  0  0
 54 55  2  0  0  0
 54126  1  0  0  0
 55 57  1  0  0  0
 55127  1  0  0  0
 56 69  2  0  0  0
 57 58  2  0  0  0
 57128  1  0  0  0
 58129  1  0  0  0
 59 60  1  0  0  0
 59 61  1  0  0  0
 59 62  1  0  0  0
 60130  1  0  0  0
 60131  1  0  0  0
 60132  1  0  0  0
 61133  1  0  0  0
 61134  1  0  0  0
 61135  1  0  0  0
 62136  1  0  0  0
 62137  1  0  0  0
 62138  1  0  0  0
 63 65  1  0  0  0
 63139  1  0  0  0
 63140  1  0  0  0
 63141  1  0  0  0
 64142  1  0  0  0
 65143  1  0  0  0
 68 80  1  0  0  0
 71 72  2  0  0  0
 71 74  1  0  0  0
 71144  1  0  0  0
 72 76  1  0  0  0
 72145  1  0  0  0
 73 74  2  0  0  0
 73 75  1  0  0  0
 73146  1  0  0  0
 74 78  1  0  0  0
 75 76  2  0  0  0
 75 79  1  0  0  0
 76 84  1  0  0  0
 77 80  1  0  0  0
 77 81  1  0  0  0
 77 83  2  0  0  0
 78 81  1  0  0  0
 78147  1  0  0  0
 78148  1  0  0  0
 79 82  1  0  0  0
 79149  1  0  0  0
 79150  1  0  0  0
 80151  1  0  0  0
 80152  1  0  0  0
 81153  1  0  0  0
 82154  1  0  0  0
M  ISO  4   1 100  68 101  80 101  82 100
M  END
> <chiral flag>
0

> <version>
0

> <s_m_source_file>
/data/baiqing/PycharmProjects/Reinvent-master-3.2/result/LINK_invent/BTK/process_docking_weight1_custom_product_contain_oxygen_bond_distance_aromatic_linkinvent_7_9_3/rearranged_h_0048.sdf

> <i_m_source_file_index>
46

> <r_mmod_Potential_Energy-OPLS-2005>
-42.1426162719727

> <r_mmod_Stretch_Energy-OPLS-2005>
52.3514289855957

> <r_mmod_Bend_Energy-OPLS-2005>
106.488388061523

> <r_mmod_Torsional_Energy-OPLS-2005>
291.782867431641

> <r_mmod_Improper_Torsional_Energy-OPLS-2005>
15.2074031829834

> <r_mmod_Van_der_Waal_Energy-OPLS-2005>
137.412612915039

> <r_mmod_Electrostatic_Energy-OPLS-2005>
-438.147186279297

> <r_mmod_Solvation_Energy-OPLS-2005>
-237.012496948242

> <b_mmod_Minimization_Converged-OPLS-2005>
0

> <r_mmod_RMS_Derivative-OPLS-2005>
11.544056892395

$$$$
46
                    3D
 Structure written by MMmdl.
165174  0  0  1  0            999 V2000
  -30.7132  -14.4411   20.5872 C   0  0  0  0  0  0
  -30.4253  -12.2914   19.4178 C   0  0  0  0  0  0
  -29.4974  -12.5087   18.2039 C   0  0  0  0  0  0
  -28.0176  -12.3725   18.6143 C   0  0  0  0  0  0
  -27.6673  -13.2032   19.8782 C   0  0  2  0  0  0
  -28.7075  -12.9616   20.9973 C   0  0  0  0  0  0
  -25.2617  -13.8154   20.5644 C   0  0  0  0  0  0
  -24.1868  -13.0444   20.9173 C   0  0  0  0  0  0
  -24.6415  -11.6907   20.8737 C   0  0  0  0  0  0
  -23.9073  -10.4296   21.0410 C   0  0  0  0  0  0
  -24.3623   -9.4207   21.9188 C   0  0  0  0  0  0
  -23.6295   -8.2243   22.0758 C   0  0  0  0  0  0
  -22.4278   -8.0283   21.3545 C   0  0  0  0  0  0
  -21.9915   -9.0262   20.4651 C   0  0  0  0  0  0
  -22.7246  -10.2142   20.3063 C   0  0  0  0  0  0
  -21.6855   -6.0737   22.5276 C   0  0  0  0  0  0
  -21.4016   -6.5639   23.8209 C   0  0  0  0  0  0
  -21.3660   -5.6793   24.9172 C   0  0  0  0  0  0
  -21.6043   -4.3055   24.7218 C   0  0  0  0  0  0
  -21.8824   -3.8147   23.4340 C   0  0  0  0  0  0
  -21.9197   -4.6967   22.3399 C   0  0  0  0  0  0
  -22.7888  -13.5250   21.1830 C   0  0  0  0  0  0
  -22.1668   -4.2152   21.0975 F   0  0  0  0  0  0
  -21.5626   -3.4537   25.7730 F   0  0  0  0  0  0
  -30.0453  -13.2633   20.4552 N   0  0  0  0  0  0
  -26.3057  -12.9318   20.3355 N   0  0  0  0  0  0
  -25.9341  -11.6482   20.5763 N   0  0  0  0  0  0
  -22.0516  -12.8251   22.0386 N   0  0  0  0  0  0
  -25.4340  -15.1867   20.3982 N   0  0  0  0  0  0
  -31.8199  -14.6385   20.0774 O   0  0  0  0  0  0
  -21.6643   -6.8881   21.4238 O   0  0  0  0  0  0
  -22.3577  -14.5558   20.6677 O   0  0  0  0  0  0
  -24.6136  -31.8688   23.2103 C   0  0  0  0  0  0
  -25.9033  -32.4827   23.8401 C   0  0  1  0  0  0
  -27.2352  -27.4507   20.0923 C   0  0  0  0  0  0
  -25.5897  -33.8625   24.2338 N   0  0  0  0  0  0
  -23.4016  -30.4918   21.5506 C   0  0  2  0  0  0
  -24.8501  -28.9628   20.1108 C   0  0  0  0  0  0
  -22.7407  -29.4658   22.4990 C   0  0  0  0  0  0
  -18.0272  -28.1368   22.8495 C   0  0  0  0  0  0
  -24.1488  -36.7317   23.2636 C   0  0  0  0  0  0
  -25.9293  -30.8403   21.3613 C   0  0  0  0  0  0
  -26.0099  -29.4774   20.7052 C   0  0  0  0  0  0
  -27.2090  -28.7292   20.6916 C   0  0  0  0  0  0
  -26.0635  -26.9507   19.4856 C   0  0  0  0  0  0
  -24.8713  -27.6984   19.4961 C   0  0  0  0  0  0
  -23.6088  -29.8244   20.1648 C   0  0  0  0  0  0
  -25.4107  -36.3115   24.0338 C   0  0  1  0  0  0
  -20.5864  -28.3656   23.1319 C   0  0  2  0  0  0
  -20.6762  -26.9394   22.5415 C   0  0  0  0  0  0
  -19.5743  -26.6378   21.5209 C   0  0  0  0  0  0
  -18.1921  -26.7916   22.1621 C   0  0  0  0  0  0
  -19.1521  -28.8828   23.2904 C   0  0  0  0  0  0
  -18.9451  -30.1434   23.8913 C   0  0  0  0  0  0
  -17.6455  -30.6579   24.0559 C   0  0  0  0  0  0
  -25.9032  -34.9478   23.5134 C   0  0  0  0  0  0
  -16.5345  -29.9081   23.6323 C   0  0  0  0  0  0
  -16.7263  -28.6493   23.0353 C   0  0  0  0  0  0
  -26.4468  -31.6595   25.0716 C   0  0  0  0  0  0
  -25.3743  -31.3701   26.1471 C   0  0  0  0  0  0
  -27.0290  -30.3039   24.6073 C   0  0  0  0  0  0
  -27.6052  -32.4305   25.7473 C   0  0  0  0  0  0
  -27.5584  -37.1811   24.8463 C   0  0  0  0  0  0
  -21.4136  -29.3029   22.3729 N   0  0  0  0  0  0
  -26.4297  -37.3796   23.9406 N   0  0  0  0  0  0
  -24.6663  -31.0802   22.0995 N   0  0  0  0  0  0
  -23.4182  -28.8202   23.3030 O   0  0  0  0  0  0
  -28.3712  -26.6749   20.1280 O   0  0  0  0  0  0
  -26.5594  -34.8924   22.4695 O   0  0  0  0  0  0
  -23.5331  -32.1433   23.7506 O   0  0  0  0  0  0
  -28.7168  -18.8532   20.6948 C   0  0  0  0  0  0
  -28.8110  -17.4926   21.0558 C   0  0  0  0  0  0
  -31.1830  -17.5238   20.5312 C   0  0  0  0  0  0
  -29.8472  -19.5605   20.2300 C   0  0  0  0  0  0
  -31.0986  -18.8894   20.1627 C   0  0  0  0  0  0
  -30.0353  -16.7998   20.9433 C   0  0  0  0  0  0
  -29.4139  -23.4243   20.0852 C   0  0  0  0  0  0
  -29.6512  -20.9425   19.7367 C   0  0  0  0  0  0
  -30.6599  -23.0567   22.6816 C   0  0  0  0  0  0
  -29.6279  -24.1655   22.5621 C   0  0  0  0  0  0
  -30.1359  -21.8146   21.9608 C   0  0  0  0  0  0
  -29.4487  -24.6042   21.0983 C   0  0  2  0  0  0
  -32.3584  -19.5951   19.6772 C   0  0  0  0  0  0
  -28.2056  -25.5303   20.9803 C   0  0  0  0  0  0
  -29.7429  -22.0555   20.5399 N   0  0  0  0  0  0
  -30.0405  -15.4043   21.2438 N   0  0  0  0  0  0
  -29.3540  -21.0180   18.4378 N   0  3  0  0  0  0
  -29.1083  -23.6555   18.9087 O   0  0  0  0  0  0
  -31.4706  -12.3849   19.1172 H   0  0  0  0  0  0
  -30.3199  -11.2758   19.8027 H   0  0  0  0  0  0
  -29.7334  -11.7914   17.4163 H   0  0  0  0  0  0
  -29.6720  -13.4978   17.7778 H   0  0  0  0  0  0
  -27.8217  -11.3159   18.7990 H   0  0  0  0  0  0
  -27.3704  -12.6586   17.7843 H   0  0  0  0  0  0
  -27.7189  -14.2542   19.5934 H   0  0  0  0  0  0
  -28.6773  -11.9190   21.3181 H   0  0  0  0  0  0
  -28.4672  -13.5408   21.8897 H   0  0  0  0  0  0
  -25.2773   -9.5669   22.4757 H   0  0  0  0  0  0
  -24.0000   -7.4633   22.7477 H   0  0  0  0  0  0
  -21.0846   -8.8787   19.8957 H   0  0  0  0  0  0
  -22.3716  -10.9682   19.6168 H   0  0  0  0  0  0
  -21.2011   -7.6151   23.9711 H   0  0  0  0  0  0
  -21.1475   -6.0525   25.9072 H   0  0  0  0  0  0
  -22.0602   -2.7609   23.2842 H   0  0  0  0  0  0
  -22.4120  -11.9912   22.4779 H   0  0  0  0  0  0
  -21.1129  -13.1287   22.2561 H   0  0  0  0  0  0
  -24.6563  -15.8332   20.4721 H   0  0  0  0  0  0
  -26.2592  -15.6060   19.9895 H   0  0  0  0  0  0
  -26.7108  -32.5547   23.1175 H   0  0  0  0  0  0
  -25.0056  -33.9792   25.0487 H   0  0  0  0  0  0
  -22.6896  -31.3079   21.4126 H   0  0  0  0  0  0
  -23.3742  -35.9660   23.3314 H   0  0  0  0  0  0
  -24.3582  -36.8913   22.2048 H   0  0  0  0  0  0
  -23.7249  -37.6531   23.6637 H   0  0  0  0  0  0
  -26.0408  -31.6095   20.5958 H   0  0  0  0  0  0
  -26.8172  -30.8919   21.9799 H   0  0  0  0  0  0
  -28.1034  -29.1176   21.1589 H   0  0  0  0  0  0
  -26.0695  -25.9790   19.0120 H   0  0  0  0  0  0
  -23.9809  -27.2977   19.0318 H   0  0  0  0  0  0
  -23.7095  -30.5996   19.4044 H   0  0  0  0  0  0
  -22.7345  -29.2401   19.8724 H   0  0  0  0  0  0
  -25.1282  -36.1988   25.0832 H   0  0  0  0  0  0
  -20.9957  -28.3218   24.1439 H   0  0  0  0  0  0
  -20.5664  -26.2263   23.3600 H   0  0  0  0  0  0
  -21.6634  -26.7436   22.1211 H   0  0  0  0  0  0
  -19.6907  -25.6295   21.1223 H   0  0  0  0  0  0
  -19.6683  -27.3198   20.6747 H   0  0  0  0  0  0
  -17.4195  -26.6674   21.4018 H   0  0  0  0  0  0
  -18.0319  -26.0047   22.9007 H   0  0  0  0  0  0
  -19.7926  -30.7242   24.2295 H   0  0  0  0  0  0
  -17.5010  -31.6263   24.5153 H   0  0  0  0  0  0
  -15.5348  -30.2991   23.7629 H   0  0  0  0  0  0
  -15.8663  -28.0811   22.7071 H   0  0  0  0  0  0
  -24.5907  -30.7057   25.7807 H   0  0  0  0  0  0
  -24.8947  -32.2860   26.4935 H   0  0  0  0  0  0
  -25.8101  -30.8854   27.0216 H   0  0  0  0  0  0
  -26.2825  -29.6806   24.1135 H   0  0  0  0  0  0
  -27.4078  -29.7265   25.4517 H   0  0  0  0  0  0
  -27.8653  -30.4363   23.9204 H   0  0  0  0  0  0
  -27.2679  -33.3591   26.2091 H   0  0  0  0  0  0
  -28.3841  -32.6886   25.0285 H   0  0  0  0  0  0
  -28.0742  -31.8401   26.5356 H   0  0  0  0  0  0
  -28.2608  -38.0102   24.7508 H   0  0  0  0  0  0
  -28.1075  -36.2636   24.6290 H   0  0  0  0  0  0
  -27.2303  -37.1459   25.8866 H   0  0  0  0  0  0
  -20.9290  -29.8759   21.6962 H   0  0  0  0  0  0
  -26.0189  -38.2877   24.1398 H   0  0  0  0  0  0
  -27.7543  -19.3443   20.7430 H   0  0  0  0  0  0
  -27.9186  -16.9767   21.3821 H   0  0  0  0  0  0
  -32.1422  -17.0301   20.4693 H   0  0  0  0  0  0
  -30.8315  -22.8231   23.7333 H   0  0  0  0  0  0
  -31.6216  -23.3681   22.2715 H   0  0  0  0  0  0
  -29.9384  -25.0193   23.1656 H   0  0  0  0  0  0
  -28.6760  -23.8267   22.9749 H   0  0  0  0  0  0
  -29.2780  -21.4100   22.5010 H   0  0  0  0  0  0
  -30.9239  -21.0638   22.0353 H   0  0  0  0  0  0
  -30.3296  -25.1913   20.8372 H   0  0  0  0  0  0
  -33.2355  -18.9526   19.7646 H   0  0  0  0  0  0
  -32.5567  -20.4950   20.2602 H   0  0  0  0  0  0
  -32.2620  -19.8776   18.6284 H   0  0  0  0  0  0
  -27.9441  -25.9096   21.9704 H   0  0  0  0  0  0
  -27.3456  -24.9356   20.6676 H   0  0  0  0  0  0
  -29.2066  -15.0603   21.6929 H   0  0  0  0  0  0
  -29.2872  -20.1846   17.8750 H   0  0  0  0  0  0
  -29.1740  -21.9309   18.0357 H   0  0  0  0  0  0
  1 25  1  0  0  0
  1 30  2  0  0  0
  1 86  1  0  0  0
  2  3  1  0  0  0
  2 25  1  0  0  0
  2 89  1  0  0  0
  2 90  1  0  0  0
  3  4  1  0  0  0
  3 91  1  0  0  0
  3 92  1  0  0  0
  4  5  1  0  0  0
  4 93  1  0  0  0
  4 94  1  0  0  0
  5  6  1  0  0  0
  5 26  1  0  0  0
  5 95  1  0  0  0
  6 25  1  0  0  0
  6 96  1  0  0  0
  6 97  1  0  0  0
  7  8  2  0  0  0
  7 26  1  0  0  0
  7 29  1  0  0  0
  8  9  1  0  0  0
  8 22  1  0  0  0
  9 10  1  0  0  0
  9 27  2  0  0  0
 10 11  2  0  0  0
 10 15  1  0  0  0
 11 12  1  0  0  0
 11 98  1  0  0  0
 12 13  2  0  0  0
 12 99  1  0  0  0
 13 14  1  0  0  0
 13 31  1  0  0  0
 14 15  2  0  0  0
 14100  1  0  0  0
 15101  1  0  0  0
 16 17  2  0  0  0
 16 21  1  0  0  0
 16 31  1  0  0  0
 17 18  1  0  0  0
 17102  1  0  0  0
 18 19  2  0  0  0
 18103  1  0  0  0
 19 20  1  0  0  0
 19 24  1  0  0  0
 20 21  2  0  0  0
 20104  1  0  0  0
 21 23  1  0  0  0
 22 28  1  0  0  0
 22 32  2  0  0  0
 26 27  1  0  0  0
 28105  1  0  0  0
 28106  1  0  0  0
 29107  1  0  0  0
 29108  1  0  0  0
 33 34  1  0  0  0
 33 66  1  0  0  0
 33 70  2  0  0  0
 34 36  1  0  0  0
 34 59  1  0  0  0
 34109  1  0  0  0
 35 44  2  0  0  0
 35 45  1  0  0  0
 35 68  1  0  0  0
 36 56  1  0  0  0
 36110  1  0  0  0
 37 39  1  0  0  0
 37 47  1  0  0  0
 37 66  1  0  0  0
 37111  1  0  0  0
 38 43  2  0  0  0
 38 46  1  0  0  0
 38 47  1  0  0  0
 39 64  1  0  0  0
 39 67  2  0  0  0
 40 52  1  0  0  0
 40 53  2  0  0  0
 40 58  1  0  0  0
 41112  1  0  0  0
 41113  1  0  0  0
 41114  1  0  0  0
 41 48  1  0  0  0
 42 43  1  0  0  0
 42 66  1  0  0  0
 42115  1  0  0  0
 42116  1  0  0  0
 43 44  1  0  0  0
 44117  1  0  0  0
 45 46  2  0  0  0
 45118  1  0  0  0
 46119  1  0  0  0
 47120  1  0  0  0
 47121  1  0  0  0
 48 56  1  0  0  0
 48 65  1  0  0  0
 48122  1  0  0  0
 49 50  1  0  0  0
 49 53  1  0  0  0
 49 64  1  0  0  0
 49123  1  0  0  0
 50 51  1  0  0  0
 50124  1  0  0  0
 50125  1  0  0  0
 51 52  1  0  0  0
 51126  1  0  0  0
 51127  1  0  0  0
 52128  1  0  0  0
 52129  1  0  0  0
 53 54  1  0  0  0
 54 55  2  0  0  0
 54130  1  0  0  0
 55 57  1  0  0  0
 55131  1  0  0  0
 56 69  2  0  0  0
 57 58  2  0  0  0
 57132  1  0  0  0
 58133  1  0  0  0
 59 60  1  0  0  0
 59 61  1  0  0  0
 59 62  1  0  0  0
 60134  1  0  0  0
 60135  1  0  0  0
 60136  1  0  0  0
 61137  1  0  0  0
 61138  1  0  0  0
 61139  1  0  0  0
 62140  1  0  0  0
 62141  1  0  0  0
 62142  1  0  0  0
 63 65  1  0  0  0
 63143  1  0  0  0
 63144  1  0  0  0
 63145  1  0  0  0
 64146  1  0  0  0
 65147  1  0  0  0
 68 84  1  0  0  0
 71 72  2  0  0  0
 71 74  1  0  0  0
 71148  1  0  0  0
 72 76  1  0  0  0
 72149  1  0  0  0
 73 75  1  0  0  0
 73 76  2  0  0  0
 73150  1  0  0  0
 74 75  2  0  0  0
 74 78  1  0  0  0
 75 83  1  0  0  0
 76 86  1  0  0  0
 77 82  1  0  0  0
 77 85  1  0  0  0
 77 88  2  0  0  0
 78 85  1  0  0  0
 78 87  2  0  0  0
 79 80  1  0  0  0
 79 81  1  0  0  0
 79151  1  0  0  0
 79152  1  0  0  0
 80 82  1  0  0  0
 80153  1  0  0  0
 80154  1  0  0  0
 81 85  1  0  0  0
 81155  1  0  0  0
 81156  1  0  0  0
 82 84  1  0  0  0
 82157  1  0  0  0
 83158  1  0  0  0
 83159  1  0  0  0
 83160  1  0  0  0
 84161  1  0  0  0
 84162  1  0  0  0
 86163  1  0  0  0
 87164  1  0  0  0
 87165  1  0  0  0
M  CHG  1  87   1
M  ISO  4   1 100  68 101  84 101  86 100
M  END
> <chiral flag>
0

> <version>
0

> <s_m_source_file>
/data/baiqing/PycharmProjects/Reinvent-master-3.2/result/LINK_invent/BTK/process_docking_weight1_custom_product_contain_oxygen_bond_distance_aromatic_linkinvent_7_9_3/rearranged_h_0048.sdf

> <i_m_source_file_index>
47

> <r_mmod_Potential_Energy-OPLS-2005>
-91.2122421264648

> <r_mmod_Stretch_Energy-OPLS-2005>
47.0691795349121

> <r_mmod_Bend_Energy-OPLS-2005>
113.210708618164

> <r_mmod_Torsional_Energy-OPLS-2005>
282.583770751953

> <r_mmod_Improper_Torsional_Energy-OPLS-2005>
5.05519771575928

> <r_mmod_Van_der_Waal_Energy-OPLS-2005>
183.505706787109

> <r_mmod_Electrostatic_Energy-OPLS-2005>
-340.048980712891

> <r_mmod_Solvation_Energy-OPLS-2005>
-393.452301025391

> <b_mmod_Minimization_Converged-OPLS-2005>
0

> <r_mmod_RMS_Derivative-OPLS-2005>
0.875742793083191

$$$$
47
                    3D
 Structure written by MMmdl.
161170  0  0  1  0            999 V2000
  -30.6529  -14.6249   20.5336 C   0  0  0  0  0  0
  -30.4343  -12.3945   19.4470 C   0  0  0  0  0  0
  -29.5096  -12.5186   18.2167 C   0  0  0  0  0  0
  -28.0299  -12.3600   18.6243 C   0  0  0  0  0  0
  -27.6541  -13.2216   19.8604 C   0  0  2  0  0  0
  -28.6980  -13.0798   20.9902 C   0  0  0  0  0  0
  -25.2562  -13.8177   20.5666 C   0  0  0  0  0  0
  -24.1842  -13.0442   20.9194 C   0  0  0  0  0  0
  -24.6427  -11.6916   20.8727 C   0  0  0  0  0  0
  -23.9099  -10.4289   21.0395 C   0  0  0  0  0  0
  -24.3646   -9.4214   21.9183 C   0  0  0  0  0  0
  -23.6322   -8.2254   22.0760 C   0  0  0  0  0  0
  -22.4294   -8.0299   21.3555 C   0  0  0  0  0  0
  -21.9928   -9.0281   20.4654 C   0  0  0  0  0  0
  -22.7266  -10.2147   20.3058 C   0  0  0  0  0  0
  -21.6854   -6.0756   22.5295 C   0  0  0  0  0  0
  -21.4016   -6.5657   23.8227 C   0  0  0  0  0  0
  -21.3636   -5.6800   24.9186 C   0  0  0  0  0  0
  -21.6036   -4.3066   24.7228 C   0  0  0  0  0  0
  -21.8812   -3.8168   23.4349 C   0  0  0  0  0  0
  -21.9187   -4.6985   22.3406 C   0  0  0  0  0  0
  -22.7853  -13.5249   21.1835 C   0  0  0  0  0  0
  -22.1667   -4.2177   21.0977 F   0  0  0  0  0  0
  -21.5611   -3.4541   25.7736 F   0  0  0  0  0  0
  -30.0110  -13.4191   20.4232 N   0  0  0  0  0  0
  -26.3000  -12.9373   20.3279 N   0  0  0  0  0  0
  -25.9359  -11.6521   20.5746 N   0  0  0  0  0  0
  -22.0465  -12.8260   22.0382 N   0  0  0  0  0  0
  -25.4261  -15.1898   20.4051 N   0  0  0  0  0  0
  -31.8148  -14.7588   20.1408 O   0  0  0  0  0  0
  -21.6653   -6.8904   21.4255 O   0  0  0  0  0  0
  -22.3540  -14.5541   20.6650 O   0  0  0  0  0  0
  -24.6229  -31.8605   23.2020 C   0  0  0  0  0  0
  -25.9088  -32.4787   23.8358 C   0  0  1  0  0  0
  -27.2312  -27.3331   20.1421 C   0  0  0  0  0  0
  -25.5913  -33.8586   24.2292 N   0  0  0  0  0  0
  -23.4168  -30.4829   21.5435 C   0  0  2  0  0  0
  -24.8691  -28.9390   20.1113 C   0  0  0  0  0  0
  -22.7455  -29.4627   22.4931 C   0  0  0  0  0  0
  -18.0280  -28.1378   22.8488 C   0  0  0  0  0  0
  -24.1492  -36.7297   23.2636 C   0  0  0  0  0  0
  -25.9546  -30.8013   21.3685 C   0  0  0  0  0  0
  -26.0325  -29.4281   20.7169 C   0  0  0  0  0  0
  -27.2171  -28.6359   20.7214 C   0  0  0  0  0  0
  -26.0541  -26.9000   19.4903 C   0  0  0  0  0  0
  -24.8805  -27.6817   19.4860 C   0  0  0  0  0  0
  -23.6318  -29.8126   20.1597 C   0  0  0  0  0  0
  -25.4114  -36.3083   24.0328 C   0  0  1  0  0  0
  -20.5881  -28.3678   23.1284 C   0  0  2  0  0  0
  -20.6769  -26.9400   22.5412 C   0  0  0  0  0  0
  -19.5747  -26.6377   21.5210 C   0  0  0  0  0  0
  -18.1928  -26.7925   22.1613 C   0  0  0  0  0  0
  -19.1536  -28.8846   23.2888 C   0  0  0  0  0  0
  -18.9452  -30.1450   23.8901 C   0  0  0  0  0  0
  -17.6457  -30.6587   24.0560 C   0  0  0  0  0  0
  -25.9044  -34.9456   23.5112 C   0  0  0  0  0  0
  -16.5346  -29.9088   23.6328 C   0  0  0  0  0  0
  -16.7272  -28.6501   23.0356 C   0  0  0  0  0  0
  -26.4491  -31.6581   25.0709 C   0  0  0  0  0  0
  -25.3741  -31.3702   26.1444 C   0  0  0  0  0  0
  -27.0325  -30.3012   24.6131 C   0  0  0  0  0  0
  -27.6060  -32.4302   25.7481 C   0  0  0  0  0  0
  -27.5589  -37.1788   24.8453 C   0  0  0  0  0  0
  -21.4174  -29.3038   22.3684 N   0  0  0  0  0  0
  -26.4288  -37.3781   23.9419 N   0  0  0  0  0  0
  -24.6839  -31.0643   22.0964 N   0  0  0  0  0  0
  -23.4194  -28.8168   23.3006 O   0  0  0  0  0  0
  -28.3615  -26.5070   20.2202 O   0  0  0  0  0  0
  -26.5609  -34.8916   22.4672 O   0  0  0  0  0  0
  -23.5399  -32.1398   23.7359 O   0  0  0  0  0  0
  -29.4076  -18.2172   20.8496 C   0  0  0  0  0  0
  -30.9317  -19.7694   21.9346 C   0  0  0  0  0  0
  -29.7256  -19.5735   21.2267 C   0  0  0  0  0  0
  -30.2566  -17.0922   21.1601 C   0  0  0  0  0  0
  -31.4417  -17.3646   21.8907 C   0  0  0  0  0  0
  -31.7754  -18.6872   22.2574 C   0  0  0  0  0  0
  -28.5072  -22.7212   19.2478 C   0  0  0  0  0  0
  -27.8121  -21.9930   18.3531 C   0  0  0  0  0  0
  -28.6910  -24.2527   19.1200 C   0  0  0  0  0  0
  -28.8595  -24.4110   21.6140 C   0  0  0  0  0  0
  -29.7446  -23.1209   21.4107 C   0  0  0  0  0  0
  -28.1951  -25.0391   20.3510 C   0  0  1  0  0  0
  -28.7474  -20.7944   21.0247 C   0  0  0  0  0  0
  -29.8748  -15.7114   20.8537 N   0  0  0  0  0  0
  -29.2735  -22.0952   20.4142 N   0  3  1  0  0  0
  -32.2424  -16.3549   22.3116 F   0  0  0  0  0  0
  -33.2141  -18.9927   23.1651 Cl  0  0  0  0  0  0
  -31.4770  -12.5145   19.1477 H   0  0  0  0  0  0
  -30.3631  -11.3980   19.8845 H   0  0  0  0  0  0
  -29.7784  -11.7733   17.4661 H   0  0  0  0  0  0
  -29.6570  -13.4917   17.7447 H   0  0  0  0  0  0
  -27.8570  -11.3061   18.8407 H   0  0  0  0  0  0
  -27.3794  -12.6092   17.7848 H   0  0  0  0  0  0
  -27.6730  -14.2584   19.5270 H   0  0  0  0  0  0
  -28.7099  -12.0608   21.3805 H   0  0  0  0  0  0
  -28.4479  -13.7200   21.8366 H   0  0  0  0  0  0
  -25.2792   -9.5693   22.4753 H   0  0  0  0  0  0
  -24.0027   -7.4637   22.7465 H   0  0  0  0  0  0
  -21.0865   -8.8817   19.8959 H   0  0  0  0  0  0
  -22.3749  -10.9697   19.6165 H   0  0  0  0  0  0
  -21.2040   -7.6171   23.9742 H   0  0  0  0  0  0
  -21.1444   -6.0532   25.9082 H   0  0  0  0  0  0
  -22.0609   -2.7644   23.2837 H   0  0  0  0  0  0
  -22.4089  -11.9979   22.4860 H   0  0  0  0  0  0
  -21.1059  -13.1286   22.2479 H   0  0  0  0  0  0
  -24.6526  -15.8383   20.5125 H   0  0  0  0  0  0
  -26.2656  -15.6286   20.0499 H   0  0  0  0  0  0
  -26.7157  -32.5484   23.1114 H   0  0  0  0  0  0
  -25.0067  -33.9740   25.0444 H   0  0  0  0  0  0
  -22.7107  -31.3036   21.3982 H   0  0  0  0  0  0
  -23.3759  -35.9618   23.3266 H   0  0  0  0  0  0
  -24.3608  -36.8956   22.2059 H   0  0  0  0  0  0
  -23.7227  -37.6483   23.6683 H   0  0  0  0  0  0
  -26.0757  -31.5632   20.5977 H   0  0  0  0  0  0
  -26.8381  -30.8582   21.9921 H   0  0  0  0  0  0
  -28.1102  -29.0043   21.2076 H   0  0  0  0  0  0
  -26.0235  -25.9436   18.9886 H   0  0  0  0  0  0
  -23.9919  -27.3037   19.0010 H   0  0  0  0  0  0
  -23.7453  -30.5860   19.3995 H   0  0  0  0  0  0
  -22.7549  -29.2345   19.8604 H   0  0  0  0  0  0
  -25.1283  -36.1940   25.0816 H   0  0  0  0  0  0
  -20.9980  -28.3263   24.1401 H   0  0  0  0  0  0
  -20.5670  -26.2286   23.3615 H   0  0  0  0  0  0
  -21.6643  -26.7442   22.1213 H   0  0  0  0  0  0
  -19.6916  -25.6288   21.1247 H   0  0  0  0  0  0
  -19.6695  -27.3180   20.6737 H   0  0  0  0  0  0
  -17.4202  -26.6676   21.4014 H   0  0  0  0  0  0
  -18.0327  -26.0073   22.9011 H   0  0  0  0  0  0
  -19.7933  -30.7259   24.2280 H   0  0  0  0  0  0
  -17.5011  -31.6269   24.5145 H   0  0  0  0  0  0
  -15.5344  -30.2981   23.7650 H   0  0  0  0  0  0
  -15.8673  -28.0812   22.7072 H   0  0  0  0  0  0
  -24.5913  -30.7059   25.7771 H   0  0  0  0  0  0
  -24.8927  -32.2855   26.4894 H   0  0  0  0  0  0
  -25.8071  -30.8863   27.0207 H   0  0  0  0  0  0
  -26.2879  -29.6765   24.1179 H   0  0  0  0  0  0
  -27.4068  -29.7265   25.4613 H   0  0  0  0  0  0
  -27.8735  -30.4308   23.9313 H   0  0  0  0  0  0
  -27.2686  -33.3600   26.2074 H   0  0  0  0  0  0
  -28.3867  -32.6861   25.0305 H   0  0  0  0  0  0
  -28.0737  -31.8414   26.5385 H   0  0  0  0  0  0
  -28.2555  -38.0134   24.7562 H   0  0  0  0  0  0
  -28.1128  -36.2663   24.6189 H   0  0  0  0  0  0
  -27.2320  -37.1343   25.8857 H   0  0  0  0  0  0
  -20.9344  -29.8758   21.6896 H   0  0  0  0  0  0
  -26.0166  -38.2846   24.1452 H   0  0  0  0  0  0
  -28.4710  -18.0313   20.3412 H   0  0  0  0  0  0
  -31.2167  -20.7499   22.2778 H   0  0  0  0  0  0
  -27.3143  -22.4788   17.5272 H   0  0  0  0  0  0
  -27.7252  -20.9189   18.3961 H   0  0  0  0  0  0
  -28.1626  -24.6027   18.2328 H   0  0  0  0  0  0
  -29.7438  -24.4738   18.9377 H   0  0  0  0  0  0
  -29.4838  -25.1650   22.0959 H   0  0  0  0  0  0
  -28.0802  -24.1914   22.3455 H   0  0  0  0  0  0
  -29.9432  -22.6612   22.3793 H   0  0  0  0  0  0
  -30.7212  -23.4529   21.0548 H   0  0  0  0  0  0
  -27.1371  -24.8054   20.4682 H   0  0  0  0  0  0
  -28.3140  -21.0280   21.9979 H   0  0  0  0  0  0
  -27.8988  -20.4212   20.4573 H   0  0  0  0  0  0
  -28.8888  -15.5150   20.9022 H   0  0  0  0  0  0
  -30.1416  -21.7692   20.0167 H   0  0  0  0  0  0
  1 25  1  0  0  0
  1 30  2  0  0  0
  1 84  1  0  0  0
  2  3  1  0  0  0
  2 25  1  0  0  0
  2 88  1  0  0  0
  2 89  1  0  0  0
  3  4  1  0  0  0
  3 90  1  0  0  0
  3 91  1  0  0  0
  4  5  1  0  0  0
  4 92  1  0  0  0
  4 93  1  0  0  0
  5  6  1  0  0  0
  5 26  1  0  0  0
  5 94  1  0  0  0
  6 25  1  0  0  0
  6 95  1  0  0  0
  6 96  1  0  0  0
  7  8  2  0  0  0
  7 26  1  0  0  0
  7 29  1  0  0  0
  8  9  1  0  0  0
  8 22  1  0  0  0
  9 10  1  0  0  0
  9 27  2  0  0  0
 10 11  2  0  0  0
 10 15  1  0  0  0
 11 12  1  0  0  0
 11 97  1  0  0  0
 12 13  2  0  0  0
 12 98  1  0  0  0
 13 14  1  0  0  0
 13 31  1  0  0  0
 14 15  2  0  0  0
 14 99  1  0  0  0
 15100  1  0  0  0
 16 17  2  0  0  0
 16 21  1  0  0  0
 16 31  1  0  0  0
 17 18  1  0  0  0
 17101  1  0  0  0
 18 19  2  0  0  0
 18102  1  0  0  0
 19 20  1  0  0  0
 19 24  1  0  0  0
 20 21  2  0  0  0
 20103  1  0  0  0
 21 23  1  0  0  0
 22 28  1  0  0  0
 22 32  2  0  0  0
 26 27  1  0  0  0
 28104  1  0  0  0
 28105  1  0  0  0
 29106  1  0  0  0
 29107  1  0  0  0
 33 34  1  0  0  0
 33 66  1  0  0  0
 33 70  2  0  0  0
 34 36  1  0  0  0
 34 59  1  0  0  0
 34108  1  0  0  0
 35 44  2  0  0  0
 35 45  1  0  0  0
 35 68  1  0  0  0
 36 56  1  0  0  0
 36109  1  0  0  0
 37 39  1  0  0  0
 37 47  1  0  0  0
 37 66  1  0  0  0
 37110  1  0  0  0
 38 43  2  0  0  0
 38 46  1  0  0  0
 38 47  1  0  0  0
 39 64  1  0  0  0
 39 67  2  0  0  0
 40 52  1  0  0  0
 40 53  2  0  0  0
 40 58  1  0  0  0
 41111  1  0  0  0
 41112  1  0  0  0
 41113  1  0  0  0
 41 48  1  0  0  0
 42 43  1  0  0  0
 42 66  1  0  0  0
 42114  1  0  0  0
 42115  1  0  0  0
 43 44  1  0  0  0
 44116  1  0  0  0
 45 46  2  0  0  0
 45117  1  0  0  0
 46118  1  0  0  0
 47119  1  0  0  0
 47120  1  0  0  0
 48 56  1  0  0  0
 48 65  1  0  0  0
 48121  1  0  0  0
 49 50  1  0  0  0
 49 53  1  0  0  0
 49 64  1  0  0  0
 49122  1  0  0  0
 50 51  1  0  0  0
 50123  1  0  0  0
 50124  1  0  0  0
 51 52  1  0  0  0
 51125  1  0  0  0
 51126  1  0  0  0
 52127  1  0  0  0
 52128  1  0  0  0
 53 54  1  0  0  0
 54 55  2  0  0  0
 54129  1  0  0  0
 55 57  1  0  0  0
 55130  1  0  0  0
 56 69  2  0  0  0
 57 58  2  0  0  0
 57131  1  0  0  0
 58132  1  0  0  0
 59 60  1  0  0  0
 59 61  1  0  0  0
 59 62  1  0  0  0
 60133  1  0  0  0
 60134  1  0  0  0
 60135  1  0  0  0
 61136  1  0  0  0
 61137  1  0  0  0
 61138  1  0  0  0
 62139  1  0  0  0
 62140  1  0  0  0
 62141  1  0  0  0
 63 65  1  0  0  0
 63142  1  0  0  0
 63143  1  0  0  0
 63144  1  0  0  0
 64145  1  0  0  0
 65146  1  0  0  0
 68 82  1  0  0  0
 71 73  2  0  0  0
 71 74  1  0  0  0
 71147  1  0  0  0
 72 73  1  0  0  0
 72 76  2  0  0  0
 72148  1  0  0  0
 73 83  1  0  0  0
 74 75  2  0  0  0
 74 84  1  0  0  0
 75 76  1  0  0  0
 75 86  1  0  0  0
 76 87  1  0  0  0
 77 78  2  0  0  0
 77 79  1  0  0  0
 77 85  1  0  0  0
 78149  1  0  0  0
 78150  1  0  0  0
 79 82  1  0  0  0
 79151  1  0  0  0
 79152  1  0  0  0
 80 81  1  0  0  0
 80 82  1  0  0  0
 80153  1  0  0  0
 80154  1  0  0  0
 81 85  1  0  0  0
 81155  1  0  0  0
 81156  1  0  0  0
 82157  1  0  0  0
 83158  1  0  0  0
 83159  1  0  0  0
 83 85  1  0  0  0
 84160  1  0  0  0
 85161  1  0  0  0
M  CHG  1  85   1
M  ISO  4   1 100  68 101  82 101  84 100
M  END
> <chiral flag>
0

> <version>
0

> <s_m_source_file>
/data/baiqing/PycharmProjects/Reinvent-master-3.2/result/LINK_invent/BTK/process_docking_weight1_custom_product_contain_oxygen_bond_distance_aromatic_linkinvent_7_9_3/rearranged_h_0048.sdf

> <i_m_source_file_index>
48

> <r_mmod_Potential_Energy-OPLS-2005>
-20.2225475311279

> <r_mmod_Stretch_Energy-OPLS-2005>
84.2457504272461

> <r_mmod_Bend_Energy-OPLS-2005>
144.664932250977

> <r_mmod_Torsional_Energy-OPLS-2005>
267.536529541016

> <r_mmod_Improper_Torsional_Energy-OPLS-2005>
6.7395806312561

> <r_mmod_Van_der_Waal_Energy-OPLS-2005>
154.556701660156

> <r_mmod_Electrostatic_Energy-OPLS-2005>
-234.52668762207

> <r_mmod_Solvation_Energy-OPLS-2005>
-487.182861328125

> <b_mmod_Minimization_Converged-OPLS-2005>
0

> <r_mmod_RMS_Derivative-OPLS-2005>
2.55088496208191

$$$$
48
                    3D
 Structure written by MMmdl.
161170  0  0  1  0            999 V2000
  -30.5826  -14.6599   20.5231 C   0  0  0  0  0  0
  -30.4415  -12.4116   19.4549 C   0  0  0  0  0  0
  -29.5112  -12.5249   18.2246 C   0  0  0  0  0  0
  -28.0275  -12.3831   18.6213 C   0  0  0  0  0  0
  -27.6538  -13.2223   19.8704 C   0  0  2  0  0  0
  -28.6913  -13.0523   21.0003 C   0  0  0  0  0  0
  -25.2541  -13.8159   20.5607 C   0  0  0  0  0  0
  -24.1828  -13.0439   20.9175 C   0  0  0  0  0  0
  -24.6413  -11.6908   20.8751 C   0  0  0  0  0  0
  -23.9106  -10.4292   21.0423 C   0  0  0  0  0  0
  -24.3662   -9.4202   21.9201 C   0  0  0  0  0  0
  -23.6336   -8.2234   22.0749 C   0  0  0  0  0  0
  -22.4313   -8.0293   21.3542 C   0  0  0  0  0  0
  -21.9963   -9.0267   20.4638 C   0  0  0  0  0  0
  -22.7287  -10.2144   20.3062 C   0  0  0  0  0  0
  -21.6860   -6.0766   22.5287 C   0  0  0  0  0  0
  -21.4000   -6.5663   23.8219 C   0  0  0  0  0  0
  -21.3661   -5.6810   24.9189 C   0  0  0  0  0  0
  -21.6043   -4.3066   24.7226 C   0  0  0  0  0  0
  -21.8821   -3.8173   23.4336 C   0  0  0  0  0  0
  -21.9197   -4.6998   22.3404 C   0  0  0  0  0  0
  -22.7847  -13.5215   21.1872 C   0  0  0  0  0  0
  -22.1678   -4.2187   21.0979 F   0  0  0  0  0  0
  -21.5638   -3.4541   25.7732 F   0  0  0  0  0  0
  -30.0071  -13.4160   20.4504 N   0  0  0  0  0  0
  -26.2989  -12.9362   20.3305 N   0  0  0  0  0  0
  -25.9334  -11.6512   20.5735 N   0  0  0  0  0  0
  -22.0500  -12.8210   22.0425 N   0  0  0  0  0  0
  -25.4210  -15.1871   20.3861 N   0  0  0  0  0  0
  -31.7258  -14.8621   20.0961 O   0  0  0  0  0  0
  -21.6653   -6.8909   21.4248 O   0  0  0  0  0  0
  -22.3541  -14.5542   20.6756 O   0  0  0  0  0  0
  -24.6254  -31.8553   23.1964 C   0  0  0  0  0  0
  -25.9081  -32.4775   23.8307 C   0  0  1  0  0  0
  -27.2518  -27.3490   20.1200 C   0  0  0  0  0  0
  -25.5887  -33.8571   24.2246 N   0  0  0  0  0  0
  -23.4240  -30.4760   21.5358 C   0  0  2  0  0  0
  -24.8779  -28.9236   20.1195 C   0  0  0  0  0  0
  -22.7495  -29.4614   22.4897 C   0  0  0  0  0  0
  -18.0288  -28.1398   22.8523 C   0  0  0  0  0  0
  -24.1479  -36.7253   23.2651 C   0  0  0  0  0  0
  -25.9646  -30.7961   21.3684 C   0  0  0  0  0  0
  -26.0446  -29.4240   20.7170 C   0  0  0  0  0  0
  -27.2354  -28.6474   20.7060 C   0  0  0  0  0  0
  -26.0690  -26.8841   19.5117 C   0  0  0  0  0  0
  -24.8900  -27.6549   19.5132 C   0  0  0  0  0  0
  -23.6442  -29.7955   20.1567 C   0  0  0  0  0  0
  -25.4108  -36.3078   24.0345 C   0  0  1  0  0  0
  -20.5904  -28.3678   23.1276 C   0  0  2  0  0  0
  -20.6790  -26.9393   22.5413 C   0  0  0  0  0  0
  -19.5751  -26.6417   21.5224 C   0  0  0  0  0  0
  -18.1927  -26.7967   22.1621 C   0  0  0  0  0  0
  -19.1566  -28.8847   23.2918 C   0  0  0  0  0  0
  -18.9488  -30.1462   23.8919 C   0  0  0  0  0  0
  -17.6495  -30.6605   24.0587 C   0  0  0  0  0  0
  -25.9027  -34.9461   23.5087 C   0  0  0  0  0  0
  -16.5367  -29.9126   23.6349 C   0  0  0  0  0  0
  -16.7285  -28.6536   23.0378 C   0  0  0  0  0  0
  -26.4443  -31.6606   25.0696 C   0  0  0  0  0  0
  -25.3668  -31.3782   26.1423 C   0  0  0  0  0  0
  -27.0277  -30.3033   24.6148 C   0  0  0  0  0  0
  -27.6003  -32.4326   25.7469 C   0  0  0  0  0  0
  -27.5566  -37.1782   24.8480 C   0  0  0  0  0  0
  -21.4203  -29.3045   22.3674 N   0  0  0  0  0  0
  -26.4278  -37.3780   23.9423 N   0  0  0  0  0  0
  -24.6899  -31.0603   22.0900 N   0  0  0  0  0  0
  -23.4216  -28.8137   23.2962 O   0  0  0  0  0  0
  -28.3820  -26.5307   20.1047 O   0  0  0  0  0  0
  -26.5628  -34.8930   22.4670 O   0  0  0  0  0  0
  -23.5419  -32.1305   23.7327 O   0  0  0  0  0  0
  -28.6742  -19.3319   21.2972 C   0  0  0  0  0  0
  -30.0918  -17.7100   19.5262 C   0  0  0  0  0  0
  -28.9570  -17.9714   21.6262 C   0  0  0  0  0  0
  -29.0988  -19.9506   20.0892 C   0  0  0  0  0  0
  -29.6647  -17.1027   20.7349 C   0  0  0  0  0  0
  -29.8205  -19.0787   19.2111 C   0  0  0  0  0  0
  -28.4215  -23.9328   19.8641 C   0  0  0  0  0  0
  -29.1190  -23.8561   22.6766 C   0  0  0  0  0  0
  -29.3216  -25.1554   21.8921 C   0  0  0  0  0  0
  -29.3010  -22.6114   21.7842 C   0  0  0  0  0  0
  -28.2747  -25.2200   20.7745 C   0  0  1  0  0  0
  -28.4415  -17.4791   22.9702 C   0  0  0  0  0  0
  -28.6206  -21.4037   19.6292 C   0  0  0  0  0  0
  -28.7244  -22.6967   20.4280 N   0  0  0  0  0  0
  -29.7795  -15.6636   21.0136 N   0  0  0  0  0  0
  -28.2065  -24.0551   18.6522 O   0  0  0  0  0  0
  -30.3223  -19.6200   17.6496 Cl  0  0  0  0  0  0
  -31.4779  -12.5655   19.1486 H   0  0  0  0  0  0
  -30.4015  -11.4078   19.8786 H   0  0  0  0  0  0
  -29.7683  -11.7663   17.4842 H   0  0  0  0  0  0
  -29.6664  -13.4901   17.7385 H   0  0  0  0  0  0
  -27.8269  -11.3278   18.8096 H   0  0  0  0  0  0
  -27.3919  -12.6704   17.7823 H   0  0  0  0  0  0
  -27.6779  -14.2666   19.5592 H   0  0  0  0  0  0
  -28.6987  -12.0256   21.3683 H   0  0  0  0  0  0
  -28.4209  -13.6665   21.8600 H   0  0  0  0  0  0
  -25.2791   -9.5688   22.4796 H   0  0  0  0  0  0
  -24.0049   -7.4619   22.7459 H   0  0  0  0  0  0
  -21.0898   -8.8819   19.8922 H   0  0  0  0  0  0
  -22.3766  -10.9724   19.6195 H   0  0  0  0  0  0
  -21.1968   -7.6164   23.9745 H   0  0  0  0  0  0
  -21.1477   -6.0524   25.9097 H   0  0  0  0  0  0
  -22.0586   -2.7632   23.2817 H   0  0  0  0  0  0
  -22.4104  -11.9862   22.4815 H   0  0  0  0  0  0
  -21.1115  -13.1242   22.2622 H   0  0  0  0  0  0
  -24.6247  -15.8152   20.4030 H   0  0  0  0  0  0
  -26.2468  -15.6098   19.9801 H   0  0  0  0  0  0
  -26.7166  -32.5416   23.1077 H   0  0  0  0  0  0
  -25.0092  -33.9708   25.0434 H   0  0  0  0  0  0
  -22.7201  -31.2965   21.3800 H   0  0  0  0  0  0
  -23.3790  -35.9531   23.3315 H   0  0  0  0  0  0
  -24.3595  -36.8849   22.2068 H   0  0  0  0  0  0
  -23.7181  -37.6431   23.6649 H   0  0  0  0  0  0
  -26.1038  -31.5591   20.6010 H   0  0  0  0  0  0
  -26.8442  -30.8404   22.0004 H   0  0  0  0  0  0
  -28.1348  -29.0345   21.1636 H   0  0  0  0  0  0
  -26.0665  -25.9082   19.0438 H   0  0  0  0  0  0
  -23.9937  -27.2618   19.0513 H   0  0  0  0  0  0
  -23.7700  -30.5589   19.3891 H   0  0  0  0  0  0
  -22.7683  -29.2149   19.8530 H   0  0  0  0  0  0
  -25.1316  -36.1909   25.0844 H   0  0  0  0  0  0
  -20.9984  -28.3219   24.1394 H   0  0  0  0  0  0
  -20.5693  -26.2250   23.3600 H   0  0  0  0  0  0
  -21.6648  -26.7438   22.1155 H   0  0  0  0  0  0
  -19.6899  -25.6349   21.1190 H   0  0  0  0  0  0
  -19.6695  -27.3286   20.6801 H   0  0  0  0  0  0
  -17.4204  -26.6754   21.4021 H   0  0  0  0  0  0
  -18.0293  -26.0125   22.8999 H   0  0  0  0  0  0
  -19.7965  -30.7301   24.2267 H   0  0  0  0  0  0
  -17.5050  -31.6283   24.5193 H   0  0  0  0  0  0
  -15.5359  -30.3045   23.7707 H   0  0  0  0  0  0
  -15.8666  -28.0882   22.7073 H   0  0  0  0  0  0
  -24.5885  -30.7071   25.7785 H   0  0  0  0  0  0
  -24.8824  -32.2972   26.4719 H   0  0  0  0  0  0
  -25.7997  -30.9079   27.0264 H   0  0  0  0  0  0
  -26.2847  -29.6825   24.1131 H   0  0  0  0  0  0
  -27.3968  -29.7245   25.4624 H   0  0  0  0  0  0
  -27.8712  -30.4378   23.9381 H   0  0  0  0  0  0
  -27.2642  -33.3708   26.1897 H   0  0  0  0  0  0
  -28.3885  -32.6712   25.0323 H   0  0  0  0  0  0
  -28.0550  -31.8519   26.5508 H   0  0  0  0  0  0
  -28.2578  -38.0082   24.7548 H   0  0  0  0  0  0
  -28.1064  -36.2615   24.6288 H   0  0  0  0  0  0
  -27.2288  -37.1397   25.8883 H   0  0  0  0  0  0
  -20.9362  -29.8735   21.6873 H   0  0  0  0  0  0
  -26.0159  -38.2835   24.1476 H   0  0  0  0  0  0
  -28.0491  -19.8821   21.9842 H   0  0  0  0  0  0
  -30.5861  -17.1043   18.7798 H   0  0  0  0  0  0
  -28.1149  -23.8555   23.1080 H   0  0  0  0  0  0
  -29.8105  -23.8143   23.5197 H   0  0  0  0  0  0
  -30.3258  -25.1848   21.4659 H   0  0  0  0  0  0
  -29.2402  -26.0180   22.5522 H   0  0  0  0  0  0
  -28.8773  -21.7682   22.3193 H   0  0  0  0  0  0
  -30.3689  -22.4193   21.6736 H   0  0  0  0  0  0
  -27.2899  -25.1513   21.2400 H   0  0  0  0  0  0
  -28.6426  -16.4284   23.1703 H   0  0  0  0  0  0
  -27.3641  -17.6342   23.0328 H   0  0  0  0  0  0
  -28.9045  -18.0593   23.7690 H   0  0  0  0  0  0
  -27.5614  -21.2764   19.3941 H   0  0  0  0  0  0
  -29.0731  -21.6200   18.6639 H   0  0  0  0  0  0
  -28.9910  -15.2980   21.5254 H   0  0  0  0  0  0
  1 25  1  0  0  0
  1 30  2  0  0  0
  1 85  1  0  0  0
  2  3  1  0  0  0
  2 25  1  0  0  0
  2 88  1  0  0  0
  2 89  1  0  0  0
  3  4  1  0  0  0
  3 90  1  0  0  0
  3 91  1  0  0  0
  4  5  1  0  0  0
  4 92  1  0  0  0
  4 93  1  0  0  0
  5  6  1  0  0  0
  5 26  1  0  0  0
  5 94  1  0  0  0
  6 25  1  0  0  0
  6 95  1  0  0  0
  6 96  1  0  0  0
  7  8  2  0  0  0
  7 26  1  0  0  0
  7 29  1  0  0  0
  8  9  1  0  0  0
  8 22  1  0  0  0
  9 10  1  0  0  0
  9 27  2  0  0  0
 10 11  2  0  0  0
 10 15  1  0  0  0
 11 12  1  0  0  0
 11 97  1  0  0  0
 12 13  2  0  0  0
 12 98  1  0  0  0
 13 14  1  0  0  0
 13 31  1  0  0  0
 14 15  2  0  0  0
 14 99  1  0  0  0
 15100  1  0  0  0
 16 17  2  0  0  0
 16 21  1  0  0  0
 16 31  1  0  0  0
 17 18  1  0  0  0
 17101  1  0  0  0
 18 19  2  0  0  0
 18102  1  0  0  0
 19 20  1  0  0  0
 19 24  1  0  0  0
 20 21  2  0  0  0
 20103  1  0  0  0
 21 23  1  0  0  0
 22 28  1  0  0  0
 22 32  2  0  0  0
 26 27  1  0  0  0
 28104  1  0  0  0
 28105  1  0  0  0
 29106  1  0  0  0
 29107  1  0  0  0
 33 34  1  0  0  0
 33 66  1  0  0  0
 33 70  2  0  0  0
 34 36  1  0  0  0
 34 59  1  0  0  0
 34108  1  0  0  0
 35 44  2  0  0  0
 35 45  1  0  0  0
 35 68  1  0  0  0
 36 56  1  0  0  0
 36109  1  0  0  0
 37 39  1  0  0  0
 37 47  1  0  0  0
 37 66  1  0  0  0
 37110  1  0  0  0
 38 43  2  0  0  0
 38 46  1  0  0  0
 38 47  1  0  0  0
 39 64  1  0  0  0
 39 67  2  0  0  0
 40 52  1  0  0  0
 40 53  2  0  0  0
 40 58  1  0  0  0
 41111  1  0  0  0
 41112  1  0  0  0
 41113  1  0  0  0
 41 48  1  0  0  0
 42 43  1  0  0  0
 42 66  1  0  0  0
 42114  1  0  0  0
 42115  1  0  0  0
 43 44  1  0  0  0
 44116  1  0  0  0
 45 46  2  0  0  0
 45117  1  0  0  0
 46118  1  0  0  0
 47119  1  0  0  0
 47120  1  0  0  0
 48 56  1  0  0  0
 48 65  1  0  0  0
 48121  1  0  0  0
 49 50  1  0  0  0
 49 53  1  0  0  0
 49 64  1  0  0  0
 49122  1  0  0  0
 50 51  1  0  0  0
 50123  1  0  0  0
 50124  1  0  0  0
 51 52  1  0  0  0
 51125  1  0  0  0
 51126  1  0  0  0
 52127  1  0  0  0
 52128  1  0  0  0
 53 54  1  0  0  0
 54 55  2  0  0  0
 54129  1  0  0  0
 55 57  1  0  0  0
 55130  1  0  0  0
 56 69  2  0  0  0
 57 58  2  0  0  0
 57131  1  0  0  0
 58132  1  0  0  0
 59 60  1  0  0  0
 59 61  1  0  0  0
 59 62  1  0  0  0
 60133  1  0  0  0
 60134  1  0  0  0
 60135  1  0  0  0
 61136  1  0  0  0
 61137  1  0  0  0
 61138  1  0  0  0
 62139  1  0  0  0
 62140  1  0  0  0
 62141  1  0  0  0
 63 65  1  0  0  0
 63142  1  0  0  0
 63143  1  0  0  0
 63144  1  0  0  0
 64145  1  0  0  0
 65146  1  0  0  0
 68 81  1  0  0  0
 71 73  2  0  0  0
 71 74  1  0  0  0
 71147  1  0  0  0
 72 75  2  0  0  0
 72 76  1  0  0  0
 72148  1  0  0  0
 73 75  1  0  0  0
 73 82  1  0  0  0
 74 76  2  0  0  0
 74 83  1  0  0  0
 75 85  1  0  0  0
 76 87  1  0  0  0
 77 81  1  0  0  0
 77 84  1  0  0  0
 77 86  2  0  0  0
 78 79  1  0  0  0
 78 80  1  0  0  0
 78149  1  0  0  0
 78150  1  0  0  0
 79 81  1  0  0  0
 79151  1  0  0  0
 79152  1  0  0  0
 80 84  1  0  0  0
 80153  1  0  0  0
 80154  1  0  0  0
 81155  1  0  0  0
 82156  1  0  0  0
 82157  1  0  0  0
 82158  1  0  0  0
 83 84  1  0  0  0
 83159  1  0  0  0
 83160  1  0  0  0
 85161  1  0  0  0
M  ISO  4   1 100  68 101  81 101  85 100
M  END
> <chiral flag>
0

> <version>
0

> <s_m_source_file>
/data/baiqing/PycharmProjects/Reinvent-master-3.2/result/LINK_invent/BTK/process_docking_weight1_custom_product_contain_oxygen_bond_distance_aromatic_linkinvent_7_9_3/rearranged_h_0048.sdf

> <i_m_source_file_index>
49

> <r_mmod_Potential_Energy-OPLS-2005>
144.641845703125

> <r_mmod_Stretch_Energy-OPLS-2005>
91.9359970092773

> <r_mmod_Bend_Energy-OPLS-2005>
154.780715942383

> <r_mmod_Torsional_Energy-OPLS-2005>
272.225616455078

> <r_mmod_Improper_Torsional_Energy-OPLS-2005>
6.1530499458313

> <r_mmod_Van_der_Waal_Energy-OPLS-2005>
151.483337402344

> <r_mmod_Electrostatic_Energy-OPLS-2005>
-345.661956787109

> <r_mmod_Solvation_Energy-OPLS-2005>
-232.319915771484

> <b_mmod_Minimization_Converged-OPLS-2005>
0

> <r_mmod_RMS_Derivative-OPLS-2005>
4.99071931838989

$$$$
49
                    3D
 Structure written by MMmdl.
167176  0  0  1  0            999 V2000
  -30.6565  -14.6258   20.5098 C   0  0  0  0  0  0
  -30.4374  -12.3878   19.4505 C   0  0  0  0  0  0
  -29.5081  -12.5127   18.2226 C   0  0  0  0  0  0
  -28.0298  -12.3568   18.6326 C   0  0  0  0  0  0
  -27.6513  -13.2209   19.8654 C   0  0  2  0  0  0
  -28.7025  -13.0791   20.9929 C   0  0  0  0  0  0
  -25.2348  -13.7965   20.5535 C   0  0  0  0  0  0
  -24.1727  -13.0262   20.9226 C   0  0  0  0  0  0
  -24.6395  -11.6794   20.8791 C   0  0  0  0  0  0
  -23.9068  -10.4204   21.0423 C   0  0  0  0  0  0
  -24.3613   -9.4131   21.9205 C   0  0  0  0  0  0
  -23.6282   -8.2173   22.0757 C   0  0  0  0  0  0
  -22.4266   -8.0233   21.3541 C   0  0  0  0  0  0
  -21.9911   -9.0208   20.4642 C   0  0  0  0  0  0
  -22.7250  -10.2076   20.3062 C   0  0  0  0  0  0
  -21.6833   -6.0710   22.5278 C   0  0  0  0  0  0
  -21.3993   -6.5620   23.8207 C   0  0  0  0  0  0
  -21.3662   -5.6773   24.9176 C   0  0  0  0  0  0
  -21.6049   -4.3037   24.7227 C   0  0  0  0  0  0
  -21.8825   -3.8128   23.4348 C   0  0  0  0  0  0
  -21.9186   -4.6941   22.3406 C   0  0  0  0  0  0
  -22.7753  -13.5080   21.1876 C   0  0  0  0  0  0
  -22.1659   -4.2131   21.0979 F   0  0  0  0  0  0
  -21.5648   -3.4526   25.7738 F   0  0  0  0  0  0
  -30.0240  -13.4110   20.4303 N   0  0  0  0  0  0
  -26.2940  -12.9300   20.3321 N   0  0  0  0  0  0
  -25.9346  -11.6446   20.5822 N   0  0  0  0  0  0
  -22.0393  -12.8123   22.0463 N   0  0  0  0  0  0
  -25.3576  -15.1587   20.3582 N   0  0  0  0  0  0
  -31.8157  -14.7762   20.1149 O   0  0  0  0  0  0
  -21.6616   -6.8846   21.4239 O   0  0  0  0  0  0
  -22.3466  -14.5403   20.6729 O   0  0  0  0  0  0
  -24.6217  -31.8618   23.2042 C   0  0  0  0  0  0
  -25.9075  -32.4788   23.8370 C   0  0  1  0  0  0
  -27.2469  -27.3522   20.1188 C   0  0  0  0  0  0
  -25.5915  -33.8591   24.2302 N   0  0  0  0  0  0
  -23.4154  -30.4817   21.5463 C   0  0  2  0  0  0
  -24.8682  -28.9382   20.1121 C   0  0  0  0  0  0
  -22.7452  -29.4623   22.4973 C   0  0  0  0  0  0
  -18.0273  -28.1390   22.8494 C   0  0  0  0  0  0
  -24.1491  -36.7281   23.2643 C   0  0  0  0  0  0
  -25.9518  -30.8008   21.3745 C   0  0  0  0  0  0
  -26.0286  -29.4286   20.7212 C   0  0  0  0  0  0
  -27.2129  -28.6412   20.7260 C   0  0  0  0  0  0
  -26.0652  -26.9091   19.4784 C   0  0  0  0  0  0
  -24.8861  -27.6815   19.4851 C   0  0  0  0  0  0
  -23.6299  -29.8098   20.1624 C   0  0  0  0  0  0
  -25.4113  -36.3088   24.0342 C   0  0  1  0  0  0
  -20.5869  -28.3683   23.1316 C   0  0  2  0  0  0
  -20.6766  -26.9415   22.5426 C   0  0  0  0  0  0
  -19.5748  -26.6390   21.5227 C   0  0  0  0  0  0
  -18.1920  -26.7936   22.1620 C   0  0  0  0  0  0
  -19.1523  -28.8852   23.2893 C   0  0  0  0  0  0
  -18.9445  -30.1464   23.8903 C   0  0  0  0  0  0
  -17.6447  -30.6596   24.0552 C   0  0  0  0  0  0
  -25.9049  -34.9460   23.5119 C   0  0  0  0  0  0
  -16.5335  -29.9083   23.6335 C   0  0  0  0  0  0
  -16.7259  -28.6504   23.0361 C   0  0  0  0  0  0
  -26.4482  -31.6587   25.0726 C   0  0  0  0  0  0
  -25.3722  -31.3707   26.1460 C   0  0  0  0  0  0
  -27.0318  -30.3013   24.6168 C   0  0  0  0  0  0
  -27.6069  -32.4307   25.7475 C   0  0  0  0  0  0
  -27.5595  -37.1784   24.8456 C   0  0  0  0  0  0
  -21.4176  -29.3026   22.3710 N   0  0  0  0  0  0
  -26.4281  -37.3790   23.9438 N   0  0  0  0  0  0
  -24.6806  -31.0650   22.0983 N   0  0  0  0  0  0
  -23.4192  -28.8182   23.3054 O   0  0  0  0  0  0
  -28.4025  -26.5641   20.2036 O   0  0  0  0  0  0
  -26.5605  -34.8916   22.4679 O   0  0  0  0  0  0
  -23.5385  -32.1409   23.7380 O   0  0  0  0  0  0
  -28.8147  -19.2934   20.3364 C   0  0  0  0  0  0
  -31.2005  -17.8635   20.6452 C   0  0  0  0  0  0
  -30.0135  -20.0251   20.2315 C   0  0  0  0  0  0
  -28.7993  -17.8944   20.5711 C   0  0  0  0  0  0
  -31.2211  -19.2813   20.4294 C   0  0  0  0  0  0
  -29.9880  -17.1244   20.6934 C   0  0  0  0  0  0
  -30.5761  -23.8761   20.4622 C   0  0  0  0  0  0
  -31.6996  -24.0876   21.1686 C   0  0  0  0  0  0
  -30.0056  -24.8162   19.3826 C   0  0  0  0  0  0
  -27.6748  -24.0479   20.0385 C   0  0  0  0  0  0
  -28.3414  -23.0343   21.0242 C   0  0  0  0  0  0
  -28.5231  -25.2622   19.5378 C   0  0  1  0  0  0
  -27.4548  -17.2238   20.6165 C   0  0  0  0  0  0
  -32.5756  -19.9682   20.3786 C   0  0  0  0  0  0
  -29.9534  -21.5121   19.7249 C   0  0  0  0  0  0
  -29.8765  -15.6788   20.8951 N   0  0  0  0  0  0
  -29.7458  -22.6458   20.7020 N   0  3  1  0  0  0
  -31.4794  -12.5022   19.1475 H   0  0  0  0  0  0
  -30.3640  -11.3911   19.8888 H   0  0  0  0  0  0
  -29.7703  -11.7612   17.4774 H   0  0  0  0  0  0
  -29.6560  -13.4828   17.7443 H   0  0  0  0  0  0
  -27.8602  -11.3023   18.8537 H   0  0  0  0  0  0
  -27.3772  -12.5948   17.7918 H   0  0  0  0  0  0
  -27.6648  -14.2573   19.5300 H   0  0  0  0  0  0
  -28.7096  -12.0608   21.3838 H   0  0  0  0  0  0
  -28.4475  -13.7164   21.8409 H   0  0  0  0  0  0
  -25.2749   -9.5604   22.4784 H   0  0  0  0  0  0
  -23.9983   -7.4557   22.7476 H   0  0  0  0  0  0
  -21.0832   -8.8745   19.8938 H   0  0  0  0  0  0
  -22.3731  -10.9627   19.6166 H   0  0  0  0  0  0
  -21.1967   -7.6129   23.9713 H   0  0  0  0  0  0
  -21.1485   -6.0497   25.9081 H   0  0  0  0  0  0
  -22.0602   -2.7593   23.2843 H   0  0  0  0  0  0
  -22.3995  -11.9792   22.4871 H   0  0  0  0  0  0
  -21.1023  -13.1176   22.2670 H   0  0  0  0  0  0
  -24.5479  -15.7663   20.4064 H   0  0  0  0  0  0
  -26.1461  -15.5814   19.8901 H   0  0  0  0  0  0
  -26.7152  -32.5481   23.1132 H   0  0  0  0  0  0
  -25.0080  -33.9742   25.0459 H   0  0  0  0  0  0
  -22.7069  -31.3000   21.4019 H   0  0  0  0  0  0
  -23.3778  -35.9579   23.3248 H   0  0  0  0  0  0
  -24.3615  -36.8959   22.2073 H   0  0  0  0  0  0
  -23.7198  -37.6454   23.6680 H   0  0  0  0  0  0
  -26.0801  -31.5652   20.6063 H   0  0  0  0  0  0
  -26.8312  -30.8508   22.0039 H   0  0  0  0  0  0
  -28.0997  -29.0101   21.2221 H   0  0  0  0  0  0
  -26.0224  -25.9522   18.9818 H   0  0  0  0  0  0
  -23.9964  -27.3016   19.0031 H   0  0  0  0  0  0
  -23.7375  -30.5821   19.3999 H   0  0  0  0  0  0
  -22.7542  -29.2279   19.8687 H   0  0  0  0  0  0
  -25.1285  -36.1938   25.0830 H   0  0  0  0  0  0
  -20.9949  -28.3249   24.1443 H   0  0  0  0  0  0
  -20.5699  -26.2287   23.3615 H   0  0  0  0  0  0
  -21.6634  -26.7472   22.1207 H   0  0  0  0  0  0
  -19.6909  -25.6300   21.1266 H   0  0  0  0  0  0
  -19.6700  -27.3195   20.6754 H   0  0  0  0  0  0
  -17.4206  -26.6706   21.4004 H   0  0  0  0  0  0
  -18.0294  -26.0075   22.9009 H   0  0  0  0  0  0
  -19.7914  -30.7270   24.2283 H   0  0  0  0  0  0
  -17.4997  -31.6284   24.5141 H   0  0  0  0  0  0
  -15.5335  -30.2977   23.7681 H   0  0  0  0  0  0
  -15.8661  -28.0823   22.7082 H   0  0  0  0  0  0
  -24.5903  -30.7059   25.7771 H   0  0  0  0  0  0
  -24.8892  -32.2858   26.4897 H   0  0  0  0  0  0
  -25.8049  -30.8870   27.0227 H   0  0  0  0  0  0
  -26.2876  -29.6774   24.1201 H   0  0  0  0  0  0
  -27.4036  -29.7272   25.4668 H   0  0  0  0  0  0
  -27.8742  -30.4303   23.9366 H   0  0  0  0  0  0
  -27.2714  -33.3620   26.2045 H   0  0  0  0  0  0
  -28.3862  -32.6850   25.0275 H   0  0  0  0  0  0
  -28.0745  -31.8431   26.5389 H   0  0  0  0  0  0
  -28.2558  -38.0137   24.7591 H   0  0  0  0  0  0
  -28.1147  -36.2680   24.6144 H   0  0  0  0  0  0
  -27.2336  -37.1260   25.8860 H   0  0  0  0  0  0
  -20.9361  -29.8706   21.6878 H   0  0  0  0  0  0
  -26.0165  -38.2862   24.1466 H   0  0  0  0  0  0
  -27.8758  -19.8084   20.1828 H   0  0  0  0  0  0
  -32.1378  -17.3377   20.7668 H   0  0  0  0  0  0
  -32.2965  -24.9733   21.0077 H   0  0  0  0  0  0
  -32.0460  -23.3924   21.9206 H   0  0  0  0  0  0
  -30.1075  -24.2861   18.4348 H   0  0  0  0  0  0
  -30.6438  -25.6959   19.2882 H   0  0  0  0  0  0
  -26.7405  -24.3942   20.4778 H   0  0  0  0  0  0
  -27.3764  -23.4802   19.1561 H   0  0  0  0  0  0
  -27.7234  -22.1421   21.1293 H   0  0  0  0  0  0
  -28.3606  -23.4944   22.0131 H   0  0  0  0  0  0
  -28.1928  -25.4713   18.5192 H   0  0  0  0  0  0
  -26.6423  -17.9411   20.7334 H   0  0  0  0  0  0
  -27.3942  -16.5208   21.4474 H   0  0  0  0  0  0
  -27.3115  -16.7029   19.6712 H   0  0  0  0  0  0
  -33.3220  -19.3970   20.9321 H   0  0  0  0  0  0
  -32.5394  -20.9609   20.8262 H   0  0  0  0  0  0
  -32.9213  -20.0641   19.3493 H   0  0  0  0  0  0
  -29.1915  -21.5836   18.9479 H   0  0  0  0  0  0
  -30.8868  -21.7005   19.1944 H   0  0  0  0  0  0
  -28.9566  -15.3765   21.1747 H   0  0  0  0  0  0
  -30.0793  -22.2412   21.5634 H   0  0  0  0  0  0
  1 25  1  0  0  0
  1 30  2  0  0  0
  1 86  1  0  0  0
  2  3  1  0  0  0
  2 25  1  0  0  0
  2 88  1  0  0  0
  2 89  1  0  0  0
  3  4  1  0  0  0
  3 90  1  0  0  0
  3 91  1  0  0  0
  4  5  1  0  0  0
  4 92  1  0  0  0
  4 93  1  0  0  0
  5  6  1  0  0  0
  5 26  1  0  0  0
  5 94  1  0  0  0
  6 25  1  0  0  0
  6 95  1  0  0  0
  6 96  1  0  0  0
  7  8  2  0  0  0
  7 26  1  0  0  0
  7 29  1  0  0  0
  8  9  1  0  0  0
  8 22  1  0  0  0
  9 10  1  0  0  0
  9 27  2  0  0  0
 10 11  2  0  0  0
 10 15  1  0  0  0
 11 12  1  0  0  0
 11 97  1  0  0  0
 12 13  2  0  0  0
 12 98  1  0  0  0
 13 14  1  0  0  0
 13 31  1  0  0  0
 14 15  2  0  0  0
 14 99  1  0  0  0
 15100  1  0  0  0
 16 17  2  0  0  0
 16 21  1  0  0  0
 16 31  1  0  0  0
 17 18  1  0  0  0
 17101  1  0  0  0
 18 19  2  0  0  0
 18102  1  0  0  0
 19 20  1  0  0  0
 19 24  1  0  0  0
 20 21  2  0  0  0
 20103  1  0  0  0
 21 23  1  0  0  0
 22 28  1  0  0  0
 22 32  2  0  0  0
 26 27  1  0  0  0
 28104  1  0  0  0
 28105  1  0  0  0
 29106  1  0  0  0
 29107  1  0  0  0
 33 34  1  0  0  0
 33 66  1  0  0  0
 33 70  2  0  0  0
 34 36  1  0  0  0
 34 59  1  0  0  0
 34108  1  0  0  0
 35 44  2  0  0  0
 35 45  1  0  0  0
 35 68  1  0  0  0
 36 56  1  0  0  0
 36109  1  0  0  0
 37 39  1  0  0  0
 37 47  1  0  0  0
 37 66  1  0  0  0
 37110  1  0  0  0
 38 43  2  0  0  0
 38 46  1  0  0  0
 38 47  1  0  0  0
 39 64  1  0  0  0
 39 67  2  0  0  0
 40 52  1  0  0  0
 40 53  2  0  0  0
 40 58  1  0  0  0
 41111  1  0  0  0
 41112  1  0  0  0
 41113  1  0  0  0
 41 48  1  0  0  0
 42 43  1  0  0  0
 42 66  1  0  0  0
 42114  1  0  0  0
 42115  1  0  0  0
 43 44  1  0  0  0
 44116  1  0  0  0
 45 46  2  0  0  0
 45117  1  0  0  0
 46118  1  0  0  0
 47119  1  0  0  0
 47120  1  0  0  0
 48 56  1  0  0  0
 48 65  1  0  0  0
 48121  1  0  0  0
 49 50  1  0  0  0
 49 53  1  0  0  0
 49 64  1  0  0  0
 49122  1  0  0  0
 50 51  1  0  0  0
 50123  1  0  0  0
 50124  1  0  0  0
 51 52  1  0  0  0
 51125  1  0  0  0
 51126  1  0  0  0
 52127  1  0  0  0
 52128  1  0  0  0
 53 54  1  0  0  0
 54 55  2  0  0  0
 54129  1  0  0  0
 55 57  1  0  0  0
 55130  1  0  0  0
 56 69  2  0  0  0
 57 58  2  0  0  0
 57131  1  0  0  0
 58132  1  0  0  0
 59 60  1  0  0  0
 59 61  1  0  0  0
 59 62  1  0  0  0
 60133  1  0  0  0
 60134  1  0  0  0
 60135  1  0  0  0
 61136  1  0  0  0
 61137  1  0  0  0
 61138  1  0  0  0
 62139  1  0  0  0
 62140  1  0  0  0
 62141  1  0  0  0
 63 65  1  0  0  0
 63142  1  0  0  0
 63143  1  0  0  0
 63144  1  0  0  0
 64145  1  0  0  0
 65146  1  0  0  0
 68 82  1  0  0  0
 71 73  2  0  0  0
 71 74  1  0  0  0
 71147  1  0  0  0
 72 75  2  0  0  0
 72 76  1  0  0  0
 72148  1  0  0  0
 73 75  1  0  0  0
 73 85  1  0  0  0
 74 76  2  0  0  0
 74 83  1  0  0  0
 75 84  1  0  0  0
 76 86  1  0  0  0
 77 78  2  0  0  0
 77 79  1  0  0  0
 77 87  1  0  0  0
 78149  1  0  0  0
 78150  1  0  0  0
 79 82  1  0  0  0
 79151  1  0  0  0
 79152  1  0  0  0
 80 81  1  0  0  0
 80 82  1  0  0  0
 80153  1  0  0  0
 80154  1  0  0  0
 81 87  1  0  0  0
 81155  1  0  0  0
 81156  1  0  0  0
 82157  1  0  0  0
 83158  1  0  0  0
 83159  1  0  0  0
 83160  1  0  0  0
 84161  1  0  0  0
 84162  1  0  0  0
 84163  1  0  0  0
 85164  1  0  0  0
 85165  1  0  0  0
 85 87  1  0  0  0
 86166  1  0  0  0
 87167  1  0  0  0
M  CHG  1  87   1
M  ISO  4   1 100  68 101  82 101  86 100
M  END
> <chiral flag>
0

> <version>
0

> <s_m_source_file>
/data/baiqing/PycharmProjects/Reinvent-master-3.2/result/LINK_invent/BTK/process_docking_weight1_custom_product_contain_oxygen_bond_distance_aromatic_linkinvent_7_9_3/rearranged_h_0048.sdf

> <i_m_source_file_index>
50

> <r_mmod_Potential_Energy-OPLS-2005>
-55.8637504577637

> <r_mmod_Stretch_Energy-OPLS-2005>
69.2368774414062

> <r_mmod_Bend_Energy-OPLS-2005>
165.936218261719

> <r_mmod_Torsional_Energy-OPLS-2005>
241.782989501953

> <r_mmod_Improper_Torsional_Energy-OPLS-2005>
6.28907823562622

> <r_mmod_Van_der_Waal_Energy-OPLS-2005>
146.698883056641

> <r_mmod_Electrostatic_Energy-OPLS-2005>
-292.452239990234

> <r_mmod_Solvation_Energy-OPLS-2005>
-434.113525390625

> <b_mmod_Minimization_Converged-OPLS-2005>
0

> <r_mmod_RMS_Derivative-OPLS-2005>
1.89174520969391

$$$$
50
                    3D
 Structure written by MMmdl.
157165  0  0  1  0            999 V2000
  -30.5981  -14.6725   20.5030 C   0  0  0  0  0  0
  -30.4427  -12.4146   19.4578 C   0  0  0  0  0  0
  -29.5123  -12.5204   18.2276 C   0  0  0  0  0  0
  -28.0347  -12.3529   18.6361 C   0  0  0  0  0  0
  -27.6546  -13.2196   19.8662 C   0  0  2  0  0  0
  -28.6974  -13.0698   20.9965 C   0  0  0  0  0  0
  -25.2560  -13.8176   20.5688 C   0  0  0  0  0  0
  -24.1826  -13.0436   20.9178 C   0  0  0  0  0  0
  -24.6400  -11.6907   20.8720 C   0  0  0  0  0  0
  -23.9070  -10.4290   21.0393 C   0  0  0  0  0  0
  -24.3617   -9.4208   21.9175 C   0  0  0  0  0  0
  -23.6295   -8.2243   22.0752 C   0  0  0  0  0  0
  -22.4277   -8.0282   21.3543 C   0  0  0  0  0  0
  -21.9908   -9.0256   20.4651 C   0  0  0  0  0  0
  -22.7235  -10.2133   20.3053 C   0  0  0  0  0  0
  -21.6857   -6.0736   22.5279 C   0  0  0  0  0  0
  -21.4015   -6.5638   23.8212 C   0  0  0  0  0  0
  -21.3654   -5.6789   24.9173 C   0  0  0  0  0  0
  -21.6046   -4.3052   24.7225 C   0  0  0  0  0  0
  -21.8818   -3.8145   23.4345 C   0  0  0  0  0  0
  -21.9192   -4.6962   22.3401 C   0  0  0  0  0  0
  -22.7847  -13.5229   21.1840 C   0  0  0  0  0  0
  -22.1663   -4.2146   21.0980 F   0  0  0  0  0  0
  -21.5626   -3.4538   25.7737 F   0  0  0  0  0  0
  -30.0114  -13.4310   20.4414 N   0  0  0  0  0  0
  -26.2992  -12.9362   20.3318 N   0  0  0  0  0  0
  -25.9330  -11.6509   20.5731 N   0  0  0  0  0  0
  -22.0491  -12.8233   22.0408 N   0  0  0  0  0  0
  -25.4273  -15.1900   20.4129 N   0  0  0  0  0  0
  -31.7379  -14.8584   20.0647 O   0  0  0  0  0  0
  -21.6645   -6.8878   21.4243 O   0  0  0  0  0  0
  -22.3531  -14.5535   20.6682 O   0  0  0  0  0  0
  -24.6265  -31.8560   23.1984 C   0  0  0  0  0  0
  -25.9107  -32.4754   23.8320 C   0  0  1  0  0  0
  -27.2364  -27.3007   20.1166 C   0  0  0  0  0  0
  -25.5913  -33.8554   24.2250 N   0  0  0  0  0  0
  -23.4218  -30.4760   21.5409 C   0  0  2  0  0  0
  -24.8693  -28.9205   20.1119 C   0  0  0  0  0  0
  -22.7472  -29.4601   22.4929 C   0  0  0  0  0  0
  -18.0282  -28.1386   22.8482 C   0  0  0  0  0  0
  -24.1487  -36.7288   23.2640 C   0  0  0  0  0  0
  -25.9619  -30.7797   21.3717 C   0  0  0  0  0  0
  -26.0354  -29.4039   20.7157 C   0  0  0  0  0  0
  -27.2161  -28.6042   20.7081 C   0  0  0  0  0  0
  -26.0416  -26.8621   19.5025 C   0  0  0  0  0  0
  -24.8749  -27.6560   19.4990 C   0  0  0  0  0  0
  -23.6370  -29.8028   20.1586 C   0  0  0  0  0  0
  -25.4112  -36.3071   24.0326 C   0  0  1  0  0  0
  -20.5881  -28.3684   23.1283 C   0  0  2  0  0  0
  -20.6768  -26.9406   22.5412 C   0  0  0  0  0  0
  -19.5748  -26.6383   21.5208 C   0  0  0  0  0  0
  -18.1928  -26.7929   22.1621 C   0  0  0  0  0  0
  -19.1535  -28.8852   23.2879 C   0  0  0  0  0  0
  -18.9459  -30.1455   23.8891 C   0  0  0  0  0  0
  -17.6460  -30.6589   24.0560 C   0  0  0  0  0  0
  -25.9050  -34.9439   23.5096 C   0  0  0  0  0  0
  -16.5350  -29.9086   23.6332 C   0  0  0  0  0  0
  -16.7270  -28.6506   23.0349 C   0  0  0  0  0  0
  -26.4486  -31.6582   25.0712 C   0  0  0  0  0  0
  -25.3715  -31.3736   26.1442 C   0  0  0  0  0  0
  -27.0331  -30.3001   24.6191 C   0  0  0  0  0  0
  -27.6042  -32.4325   25.7480 C   0  0  0  0  0  0
  -27.5583  -37.1793   24.8460 C   0  0  0  0  0  0
  -21.4185  -29.3033   22.3675 N   0  0  0  0  0  0
  -26.4286  -37.3770   23.9415 N   0  0  0  0  0  0
  -24.6889  -31.0549   22.0941 N   0  0  0  0  0  0
  -23.4185  -28.8153   23.3029 O   0  0  0  0  0  0
  -28.3936  -26.5033   20.1787 O   0  0  0  0  0  0
  -26.5628  -34.8916   22.4668 O   0  0  0  0  0  0
  -23.5427  -32.1366   23.7307 O   0  0  0  0  0  0
  -29.5132  -19.4878   21.5197 C   0  0  0  0  0  0
  -29.8480  -18.1106   21.7298 C   0  0  0  0  0  0
  -29.3523  -17.6304   19.4348 C   0  0  0  0  0  0
  -29.0282  -19.9779   20.2744 C   0  0  0  0  0  0
  -28.9902  -19.0017   19.2213 C   0  0  0  0  0  0
  -29.7578  -17.1327   20.7001 C   0  0  0  0  0  0
  -28.3627  -21.3813   20.1467 C   0  0  0  0  0  0
  -28.5039  -19.3824   17.8305 C   0  0  0  0  0  0
  -29.9061  -25.0671   19.0295 C   0  0  0  0  0  0
  -28.3674  -23.9101   20.7317 C   0  0  0  0  0  0
  -28.5152  -25.1057   19.6771 C   0  0  1  0  0  0
  -29.8236  -15.6947   20.9978 N   0  0  0  0  0  0
  -28.9988  -22.5475   20.4721 N   0  0  0  0  0  0
  -27.1916  -21.4252   19.7664 O   0  0  0  0  0  0
  -31.4831  -12.5495   19.1581 H   0  0  0  0  0  0
  -30.3875  -11.4167   19.8968 H   0  0  0  0  0  0
  -29.7843  -11.7691   17.4848 H   0  0  0  0  0  0
  -29.6492  -13.4894   17.7444 H   0  0  0  0  0  0
  -27.8706  -11.2985   18.8625 H   0  0  0  0  0  0
  -27.3824  -12.5875   17.7941 H   0  0  0  0  0  0
  -27.6745  -14.2563   19.5292 H   0  0  0  0  0  0
  -28.7155  -12.0427   21.3649 H   0  0  0  0  0  0
  -28.4345  -13.6851   21.8574 H   0  0  0  0  0  0
  -25.2767   -9.5689   22.4737 H   0  0  0  0  0  0
  -24.0011   -7.4638   22.7464 H   0  0  0  0  0  0
  -21.0841   -8.8776   19.8960 H   0  0  0  0  0  0
  -22.3697  -10.9669   19.6159 H   0  0  0  0  0  0
  -21.2014   -7.6146   23.9718 H   0  0  0  0  0  0
  -21.1476   -6.0517   25.9077 H   0  0  0  0  0  0
  -22.0603   -2.7610   23.2845 H   0  0  0  0  0  0
  -22.4125  -11.9915   22.4821 H   0  0  0  0  0  0
  -21.1104  -13.1257   22.2600 H   0  0  0  0  0  0
  -24.6624  -15.8454   20.5320 H   0  0  0  0  0  0
  -26.2836  -15.6336   20.1053 H   0  0  0  0  0  0
  -26.7171  -32.5411   23.1060 H   0  0  0  0  0  0
  -25.0039  -33.9688   25.0380 H   0  0  0  0  0  0
  -22.7167  -31.2965   21.3936 H   0  0  0  0  0  0
  -23.3752  -35.9620   23.3291 H   0  0  0  0  0  0
  -24.3578  -36.8922   22.2058 H   0  0  0  0  0  0
  -23.7242  -37.6485   23.6670 H   0  0  0  0  0  0
  -26.0955  -31.5415   20.6022 H   0  0  0  0  0  0
  -26.8411  -30.8285   22.0029 H   0  0  0  0  0  0
  -28.1129  -28.9730   21.1868 H   0  0  0  0  0  0
  -25.9739  -25.8912   19.0371 H   0  0  0  0  0  0
  -23.9776  -27.2759   19.0305 H   0  0  0  0  0  0
  -23.7551  -30.5742   19.3966 H   0  0  0  0  0  0
  -22.7575  -29.2290   19.8614 H   0  0  0  0  0  0
  -25.1294  -36.1912   25.0820 H   0  0  0  0  0  0
  -20.9971  -28.3263   24.1403 H   0  0  0  0  0  0
  -20.5656  -26.2295   23.3611 H   0  0  0  0  0  0
  -21.6640  -26.7432   22.1216 H   0  0  0  0  0  0
  -19.6909  -25.6293   21.1240 H   0  0  0  0  0  0
  -19.6692  -27.3188   20.6734 H   0  0  0  0  0  0
  -17.4198  -26.6668   21.4026 H   0  0  0  0  0  0
  -18.0336  -26.0075   22.9022 H   0  0  0  0  0  0
  -19.7937  -30.7271   24.2261 H   0  0  0  0  0  0
  -17.5017  -31.6267   24.5166 H   0  0  0  0  0  0
  -15.5352  -30.2985   23.7664 H   0  0  0  0  0  0
  -15.8669  -28.0827   22.7061 H   0  0  0  0  0  0
  -24.5880  -30.7092   25.7779 H   0  0  0  0  0  0
  -24.8912  -32.2905   26.4864 H   0  0  0  0  0  0
  -25.8035  -30.8916   27.0221 H   0  0  0  0  0  0
  -26.2911  -29.6748   24.1209 H   0  0  0  0  0  0
  -27.4005  -29.7268   25.4713 H   0  0  0  0  0  0
  -27.8790  -30.4277   23.9433 H   0  0  0  0  0  0
  -27.2647  -33.3621   26.2059 H   0  0  0  0  0  0
  -28.3846  -32.6893   25.0305 H   0  0  0  0  0  0
  -28.0717  -31.8451   26.5391 H   0  0  0  0  0  0
  -28.2585  -38.0103   24.7522 H   0  0  0  0  0  0
  -28.1090  -36.2634   24.6258 H   0  0  0  0  0  0
  -27.2303  -37.1415   25.8861 H   0  0  0  0  0  0
  -20.9365  -29.8745   21.6875 H   0  0  0  0  0  0
  -26.0164  -38.2843   24.1424 H   0  0  0  0  0  0
  -29.5434  -20.1600   22.3663 H   0  0  0  0  0  0
  -30.1232  -17.7958   22.7269 H   0  0  0  0  0  0
  -29.2370  -16.9286   18.6203 H   0  0  0  0  0  0
  -28.7863  -18.6349   17.0886 H   0  0  0  0  0  0
  -28.9322  -20.3328   17.5112 H   0  0  0  0  0  0
  -27.4171  -19.4704   17.8169 H   0  0  0  0  0  0
  -30.0759  -24.1264   18.5050 H   0  0  0  0  0  0
  -30.6941  -25.1807   19.7745 H   0  0  0  0  0  0
  -30.0209  -25.8687   18.2997 H   0  0  0  0  0  0
  -27.3095  -23.7821   20.9657 H   0  0  0  0  0  0
  -28.8153  -24.2521   21.6647 H   0  0  0  0  0  0
  -27.8165  -24.9259   18.8629 H   0  0  0  0  0  0
  -29.0131  -15.3504   21.4906 H   0  0  0  0  0  0
  -29.9734  -22.4584   20.7257 H   0  0  0  0  0  0
  1 25  1  0  0  0
  1 30  2  0  0  0
  1 82  1  0  0  0
  2  3  1  0  0  0
  2 25  1  0  0  0
  2 85  1  0  0  0
  2 86  1  0  0  0
  3  4  1  0  0  0
  3 87  1  0  0  0
  3 88  1  0  0  0
  4  5  1  0  0  0
  4 89  1  0  0  0
  4 90  1  0  0  0
  5  6  1  0  0  0
  5 26  1  0  0  0
  5 91  1  0  0  0
  6 25  1  0  0  0
  6 92  1  0  0  0
  6 93  1  0  0  0
  7  8  2  0  0  0
  7 26  1  0  0  0
  7 29  1  0  0  0
  8  9  1  0  0  0
  8 22  1  0  0  0
  9 10  1  0  0  0
  9 27  2  0  0  0
 10 11  2  0  0  0
 10 15  1  0  0  0
 11 12  1  0  0  0
 11 94  1  0  0  0
 12 13  2  0  0  0
 12 95  1  0  0  0
 13 14  1  0  0  0
 13 31  1  0  0  0
 14 15  2  0  0  0
 14 96  1  0  0  0
 15 97  1  0  0  0
 16 17  2  0  0  0
 16 21  1  0  0  0
 16 31  1  0  0  0
 17 18  1  0  0  0
 17 98  1  0  0  0
 18 19  2  0  0  0
 18 99  1  0  0  0
 19 20  1  0  0  0
 19 24  1  0  0  0
 20 21  2  0  0  0
 20100  1  0  0  0
 21 23  1  0  0  0
 22 28  1  0  0  0
 22 32  2  0  0  0
 26 27  1  0  0  0
 28101  1  0  0  0
 28102  1  0  0  0
 29103  1  0  0  0
 29104  1  0  0  0
 33 34  1  0  0  0
 33 66  1  0  0  0
 33 70  2  0  0  0
 34 36  1  0  0  0
 34 59  1  0  0  0
 34105  1  0  0  0
 35 44  2  0  0  0
 35 45  1  0  0  0
 35 68  1  0  0  0
 36 56  1  0  0  0
 36106  1  0  0  0
 37 39  1  0  0  0
 37 47  1  0  0  0
 37 66  1  0  0  0
 37107  1  0  0  0
 38 43  2  0  0  0
 38 46  1  0  0  0
 38 47  1  0  0  0
 39 64  1  0  0  0
 39 67  2  0  0  0
 40 52  1  0  0  0
 40 53  2  0  0  0
 40 58  1  0  0  0
 41108  1  0  0  0
 41109  1  0  0  0
 41110  1  0  0  0
 41 48  1  0  0  0
 42 43  1  0  0  0
 42 66  1  0  0  0
 42111  1  0  0  0
 42112  1  0  0  0
 43 44  1  0  0  0
 44113  1  0  0  0
 45 46  2  0  0  0
 45114  1  0  0  0
 46115  1  0  0  0
 47116  1  0  0  0
 47117  1  0  0  0
 48 56  1  0  0  0
 48 65  1  0  0  0
 48118  1  0  0  0
 49 50  1  0  0  0
 49 53  1  0  0  0
 49 64  1  0  0  0
 49119  1  0  0  0
 50 51  1  0  0  0
 50120  1  0  0  0
 50121  1  0  0  0
 51 52  1  0  0  0
 51122  1  0  0  0
 51123  1  0  0  0
 52124  1  0  0  0
 52125  1  0  0  0
 53 54  1  0  0  0
 54 55  2  0  0  0
 54126  1  0  0  0
 55 57  1  0  0  0
 55127  1  0  0  0
 56 69  2  0  0  0
 57 58  2  0  0  0
 57128  1  0  0  0
 58129  1  0  0  0
 59 60  1  0  0  0
 59 61  1  0  0  0
 59 62  1  0  0  0
 60130  1  0  0  0
 60131  1  0  0  0
 60132  1  0  0  0
 61133  1  0  0  0
 61134  1  0  0  0
 61135  1  0  0  0
 62136  1  0  0  0
 62137  1  0  0  0
 62138  1  0  0  0
 63 65  1  0  0  0
 63139  1  0  0  0
 63140  1  0  0  0
 63141  1  0  0  0
 64142  1  0  0  0
 65143  1  0  0  0
 68 81  1  0  0  0
 71 72  2  0  0  0
 71 74  1  0  0  0
 71144  1  0  0  0
 72 76  1  0  0  0
 72145  1  0  0  0
 73 75  1  0  0  0
 73 76  2  0  0  0
 73146  1  0  0  0
 74 75  2  0  0  0
 74 77  1  0  0  0
 75 78  1  0  0  0
 76 82  1  0  0  0
 77 83  1  0  0  0
 77 84  2  0  0  0
 78147  1  0  0  0
 78148  1  0  0  0
 78149  1  0  0  0
 79150  1  0  0  0
 79151  1  0  0  0
 79152  1  0  0  0
 79 81  1  0  0  0
 80 81  1  0  0  0
 80 83  1  0  0  0
 80153  1  0  0  0
 80154  1  0  0  0
 81155  1  0  0  0
 82156  1  0  0  0
 83157  1  0  0  0
M  ISO  4   1 100  68 101  81 101  82 100
M  END
> <chiral flag>
0

> <version>
0

> <s_m_source_file>
/data/baiqing/PycharmProjects/Reinvent-master-3.2/result/LINK_invent/BTK/process_docking_weight1_custom_product_contain_oxygen_bond_distance_aromatic_linkinvent_7_9_3/rearranged_h_0048.sdf

> <i_m_source_file_index>
51

> <r_mmod_Potential_Energy-OPLS-2005>
56.8743171691895

> <r_mmod_Stretch_Energy-OPLS-2005>
91.5403442382812

> <r_mmod_Bend_Energy-OPLS-2005>
161.451461791992

> <r_mmod_Torsional_Energy-OPLS-2005>
267.060882568359

> <r_mmod_Improper_Torsional_Energy-OPLS-2005>
6.59800100326538

> <r_mmod_Van_der_Waal_Energy-OPLS-2005>
135.876419067383

> <r_mmod_Electrostatic_Energy-OPLS-2005>
-432.07958984375

> <r_mmod_Solvation_Energy-OPLS-2005>
-228.671890258789

> <b_mmod_Minimization_Converged-OPLS-2005>
0

> <r_mmod_RMS_Derivative-OPLS-2005>
1.05591368675232

$$$$
51
                    3D
 Structure written by MMmdl.
164173  0  0  1  0            999 V2000
  -30.6286  -14.5981   20.4858 C   0  0  0  0  0  0
  -30.4339  -12.3623   19.4407 C   0  0  0  0  0  0
  -29.5021  -12.5017   18.2162 C   0  0  0  0  0  0
  -28.0227  -12.3502   18.6283 C   0  0  0  0  0  0
  -27.6532  -13.2037   19.8704 C   0  0  2  0  0  0
  -28.7021  -13.0448   20.9941 C   0  0  0  0  0  0
  -25.2556  -13.8129   20.5715 C   0  0  0  0  0  0
  -24.1809  -13.0400   20.9181 C   0  0  0  0  0  0
  -24.6377  -11.6875   20.8738 C   0  0  0  0  0  0
  -23.9042  -10.4271   21.0404 C   0  0  0  0  0  0
  -24.3595   -9.4193   21.9184 C   0  0  0  0  0  0
  -23.6276   -8.2229   22.0760 C   0  0  0  0  0  0
  -22.4263   -8.0266   21.3543 C   0  0  0  0  0  0
  -21.9895   -9.0236   20.4647 C   0  0  0  0  0  0
  -22.7217  -10.2115   20.3054 C   0  0  0  0  0  0
  -21.6846   -6.0725   22.5281 C   0  0  0  0  0  0
  -21.4008   -6.5634   23.8211 C   0  0  0  0  0  0
  -21.3657   -5.6791   24.9176 C   0  0  0  0  0  0
  -21.6043   -4.3054   24.7228 C   0  0  0  0  0  0
  -21.8823   -3.8140   23.4350 C   0  0  0  0  0  0
  -21.9194   -4.6955   22.3405 C   0  0  0  0  0  0
  -22.7839  -13.5208   21.1851 C   0  0  0  0  0  0
  -22.1664   -4.2143   21.0980 F   0  0  0  0  0  0
  -21.5631   -3.4535   25.7740 F   0  0  0  0  0  0
  -30.0192  -13.3755   20.4268 N   0  0  0  0  0  0
  -26.2985  -12.9290   20.3373 N   0  0  0  0  0  0
  -25.9306  -11.6456   20.5775 N   0  0  0  0  0  0
  -22.0478  -12.8200   22.0406 N   0  0  0  0  0  0
  -25.4239  -15.1855   20.4192 N   0  0  0  0  0  0
  -31.7957  -14.7673   20.1210 O   0  0  0  0  0  0
  -21.6625   -6.8864   21.4242 O   0  0  0  0  0  0
  -22.3537  -14.5524   20.6709 O   0  0  0  0  0  0
  -24.6196  -31.8614   23.2049 C   0  0  0  0  0  0
  -25.9067  -32.4783   23.8364 C   0  0  1  0  0  0
  -27.2421  -27.3751   20.1101 C   0  0  0  0  0  0
  -25.5908  -33.8588   24.2299 N   0  0  0  0  0  0
  -23.4105  -30.4822   21.5442 C   0  0  2  0  0  0
  -24.8589  -28.9339   20.1116 C   0  0  0  0  0  0
  -22.7423  -29.4629   22.4952 C   0  0  0  0  0  0
  -18.0271  -28.1377   22.8493 C   0  0  0  0  0  0
  -24.1491  -36.7301   23.2638 C   0  0  0  0  0  0
  -25.9427  -30.8079   21.3664 C   0  0  0  0  0  0
  -26.0175  -29.4367   20.7135 C   0  0  0  0  0  0
  -27.2057  -28.6644   20.7076 C   0  0  0  0  0  0
  -26.0653  -26.8986   19.4918 C   0  0  0  0  0  0
  -24.8810  -27.6679   19.4959 C   0  0  0  0  0  0
  -23.6230  -29.8086   20.1603 C   0  0  0  0  0  0
  -25.4110  -36.3093   24.0341 C   0  0  1  0  0  0
  -20.5865  -28.3678   23.1303 C   0  0  2  0  0  0
  -20.6762  -26.9408   22.5417 C   0  0  0  0  0  0
  -19.5741  -26.6384   21.5210 C   0  0  0  0  0  0
  -18.1916  -26.7924   22.1622 C   0  0  0  0  0  0
  -19.1522  -28.8843   23.2895 C   0  0  0  0  0  0
  -18.9451  -30.1445   23.8912 C   0  0  0  0  0  0
  -17.6454  -30.6584   24.0567 C   0  0  0  0  0  0
  -25.9044  -34.9458   23.5121 C   0  0  0  0  0  0
  -16.5343  -29.9089   23.6327 C   0  0  0  0  0  0
  -16.7260  -28.6502   23.0354 C   0  0  0  0  0  0
  -26.4486  -31.6581   25.0715 C   0  0  0  0  0  0
  -25.3749  -31.3672   26.1460 C   0  0  0  0  0  0
  -27.0345  -30.3025   24.6125 C   0  0  0  0  0  0
  -27.6051  -32.4312   25.7485 C   0  0  0  0  0  0
  -27.5592  -37.1796   24.8456 C   0  0  0  0  0  0
  -21.4145  -29.3038   22.3701 N   0  0  0  0  0  0
  -26.4285  -37.3792   23.9426 N   0  0  0  0  0  0
  -24.6758  -31.0670   22.0966 N   0  0  0  0  0  0
  -23.4172  -28.8179   23.3022 O   0  0  0  0  0  0
  -28.4248  -26.6467   20.1734 O   0  0  0  0  0  0
  -26.5605  -34.8921   22.4683 O   0  0  0  0  0  0
  -23.5381  -32.1393   23.7413 O   0  0  0  0  0  0
  -30.7101  -19.3452   20.8609 C   0  0  0  0  0  0
  -30.6597  -17.9601   21.1925 C   0  0  0  0  0  0
  -29.2022  -18.9531   19.0208 C   0  0  0  0  0  0
  -29.9952  -19.8679   19.7522 C   0  0  0  0  0  0
  -29.1661  -17.5669   19.3280 C   0  0  0  0  0  0
  -29.9117  -17.0358   20.4183 C   0  0  0  0  0  0
  -30.5817  -23.6261   20.1543 C   0  0  0  0  0  0
  -31.5812  -23.3480   21.0121 C   0  0  0  0  0  0
  -30.1276  -25.0330   19.7305 C   0  0  0  0  0  0
  -27.8979  -24.1372   20.5253 C   0  0  0  0  0  0
  -28.2806  -22.6771   20.0525 C   0  0  0  0  0  0
  -28.5863  -25.2755   19.7021 C   0  0  1  0  0  0
  -28.3512  -16.6681   18.4172 C   0  0  0  0  0  0
  -30.3014  -21.2693   19.1384 C   0  0  0  0  0  0
  -29.8060  -15.6395   20.7947 N   0  0  0  0  0  0
  -29.6860  -22.5845   19.5671 N   0  3  2  0  0  0
  -31.4763  -12.4819   19.1394 H   0  0  0  0  0  0
  -30.3572  -11.3630   19.8723 H   0  0  0  0  0  0
  -29.7556  -11.7575   17.4599 H   0  0  0  0  0  0
  -29.6542  -13.4751   17.7464 H   0  0  0  0  0  0
  -27.8442  -11.2952   18.8392 H   0  0  0  0  0  0
  -27.3715  -12.6059   17.7919 H   0  0  0  0  0  0
  -27.6687  -14.2388   19.5444 H   0  0  0  0  0  0
  -28.7043  -12.0224   21.3744 H   0  0  0  0  0  0
  -28.4585  -13.6765   21.8495 H   0  0  0  0  0  0
  -25.2745   -9.5674   22.4750 H   0  0  0  0  0  0
  -23.9982   -7.4627   22.7488 H   0  0  0  0  0  0
  -21.0825   -8.8753   19.8953 H   0  0  0  0  0  0
  -22.3680  -10.9647   19.6159 H   0  0  0  0  0  0
  -21.2000   -7.6142   23.9708 H   0  0  0  0  0  0
  -21.1474   -6.0523   25.9074 H   0  0  0  0  0  0
  -22.0607   -2.7602   23.2851 H   0  0  0  0  0  0
  -22.4071  -11.9823   22.4745 H   0  0  0  0  0  0
  -21.1116  -13.1256   22.2652 H   0  0  0  0  0  0
  -24.6521  -15.8336   20.5341 H   0  0  0  0  0  0
  -26.2788  -15.6382   20.1270 H   0  0  0  0  0  0
  -26.7127  -32.5478   23.1111 H   0  0  0  0  0  0
  -25.0080  -33.9741   25.0461 H   0  0  0  0  0  0
  -22.7017  -31.3008   21.4005 H   0  0  0  0  0  0
  -23.3776  -35.9608   23.3249 H   0  0  0  0  0  0
  -24.3589  -36.8978   22.2063 H   0  0  0  0  0  0
  -23.7217  -37.6476   23.6693 H   0  0  0  0  0  0
  -26.0637  -31.5709   20.5964 H   0  0  0  0  0  0
  -26.8277  -30.8602   21.9888 H   0  0  0  0  0  0
  -28.0983  -29.0490   21.1816 H   0  0  0  0  0  0
  -26.0458  -25.9317   19.0107 H   0  0  0  0  0  0
  -23.9904  -27.2773   19.0234 H   0  0  0  0  0  0
  -23.7356  -30.5821   19.3993 H   0  0  0  0  0  0
  -22.7449  -29.2322   19.8638 H   0  0  0  0  0  0
  -25.1282  -36.1944   25.0831 H   0  0  0  0  0  0
  -20.9955  -28.3254   24.1425 H   0  0  0  0  0  0
  -20.5658  -26.2283   23.3606 H   0  0  0  0  0  0
  -21.6633  -26.7438   22.1221 H   0  0  0  0  0  0
  -19.6902  -25.6300   21.1227 H   0  0  0  0  0  0
  -19.6677  -27.3196   20.6740 H   0  0  0  0  0  0
  -17.4190  -26.6686   21.4018 H   0  0  0  0  0  0
  -18.0302  -26.0056   22.9005 H   0  0  0  0  0  0
  -19.7926  -30.7253   24.2290 H   0  0  0  0  0  0
  -17.5014  -31.6264   24.5171 H   0  0  0  0  0  0
  -15.5347  -30.3002   23.7644 H   0  0  0  0  0  0
  -15.8656  -28.0825   22.7073 H   0  0  0  0  0  0
  -24.5945  -30.6986   25.7801 H   0  0  0  0  0  0
  -24.8908  -32.2813   26.4907 H   0  0  0  0  0  0
  -25.8121  -30.8857   27.0216 H   0  0  0  0  0  0
  -26.2904  -29.6749   24.1206 H   0  0  0  0  0  0
  -27.4139  -29.7297   25.4595 H   0  0  0  0  0  0
  -27.8721  -30.4343   23.9273 H   0  0  0  0  0  0
  -27.2667  -33.3608   26.2067 H   0  0  0  0  0  0
  -28.3862  -32.6871   25.0315 H   0  0  0  0  0  0
  -28.0716  -31.8432   26.5398 H   0  0  0  0  0  0
  -28.2561  -38.0144   24.7586 H   0  0  0  0  0  0
  -28.1146  -36.2682   24.6183 H   0  0  0  0  0  0
  -27.2314  -37.1314   25.8856 H   0  0  0  0  0  0
  -20.9303  -29.8769   21.6932 H   0  0  0  0  0  0
  -26.0169  -38.2860   24.1473 H   0  0  0  0  0  0
  -31.3564  -19.9928   21.4359 H   0  0  0  0  0  0
  -31.2231  -17.6052   22.0447 H   0  0  0  0  0  0
  -28.6685  -19.3045   18.1481 H   0  0  0  0  0  0
  -32.1763  -24.1429   21.4380 H   0  0  0  0  0  0
  -31.8259  -22.3400   21.3109 H   0  0  0  0  0  0
  -30.5652  -25.2812   18.7624 H   0  0  0  0  0  0
  -30.5808  -25.7303   20.4374 H   0  0  0  0  0  0
  -28.1911  -24.2496   21.5706 H   0  0  0  0  0  0
  -26.8139  -24.2508   20.5169 H   0  0  0  0  0  0
  -27.6272  -22.3692   19.2356 H   0  0  0  0  0  0
  -28.1238  -21.9682   20.8651 H   0  0  0  0  0  0
  -28.2430  -25.2175   18.6684 H   0  0  0  0  0  0
  -28.1893  -17.1371   17.4462 H   0  0  0  0  0  0
  -27.3747  -16.4687   18.8537 H   0  0  0  0  0  0
  -28.8632  -15.7256   18.2302 H   0  0  0  0  0  0
  -30.0485  -21.1937   18.0806 H   0  0  0  0  0  0
  -31.3862  -21.3797   19.1219 H   0  0  0  0  0  0
  -28.8785  -15.3391   21.0495 H   0  0  0  0  0  0
  -29.5461  -22.9314   18.6304 H   0  0  0  0  0  0
  1 25  1  0  0  0
  1 30  2  0  0  0
  1 85  1  0  0  0
  2  3  1  0  0  0
  2 25  1  0  0  0
  2 87  1  0  0  0
  2 88  1  0  0  0
  3  4  1  0  0  0
  3 89  1  0  0  0
  3 90  1  0  0  0
  4  5  1  0  0  0
  4 91  1  0  0  0
  4 92  1  0  0  0
  5  6  1  0  0  0
  5 26  1  0  0  0
  5 93  1  0  0  0
  6 25  1  0  0  0
  6 94  1  0  0  0
  6 95  1  0  0  0
  7  8  2  0  0  0
  7 26  1  0  0  0
  7 29  1  0  0  0
  8  9  1  0  0  0
  8 22  1  0  0  0
  9 10  1  0  0  0
  9 27  2  0  0  0
 10 11  2  0  0  0
 10 15  1  0  0  0
 11 12  1  0  0  0
 11 96  1  0  0  0
 12 13  2  0  0  0
 12 97  1  0  0  0
 13 14  1  0  0  0
 13 31  1  0  0  0
 14 15  2  0  0  0
 14 98  1  0  0  0
 15 99  1  0  0  0
 16 17  2  0  0  0
 16 21  1  0  0  0
 16 31  1  0  0  0
 17 18  1  0  0  0
 17100  1  0  0  0
 18 19  2  0  0  0
 18101  1  0  0  0
 19 20  1  0  0  0
 19 24  1  0  0  0
 20 21  2  0  0  0
 20102  1  0  0  0
 21 23  1  0  0  0
 22 28  1  0  0  0
 22 32  2  0  0  0
 26 27  1  0  0  0
 28103  1  0  0  0
 28104  1  0  0  0
 29105  1  0  0  0
 29106  1  0  0  0
 33 34  1  0  0  0
 33 66  1  0  0  0
 33 70  2  0  0  0
 34 36  1  0  0  0
 34 59  1  0  0  0
 34107  1  0  0  0
 35 44  2  0  0  0
 35 45  1  0  0  0
 35 68  1  0  0  0
 36 56  1  0  0  0
 36108  1  0  0  0
 37 39  1  0  0  0
 37 47  1  0  0  0
 37 66  1  0  0  0
 37109  1  0  0  0
 38 43  2  0  0  0
 38 46  1  0  0  0
 38 47  1  0  0  0
 39 64  1  0  0  0
 39 67  2  0  0  0
 40 52  1  0  0  0
 40 53  2  0  0  0
 40 58  1  0  0  0
 41110  1  0  0  0
 41111  1  0  0  0
 41112  1  0  0  0
 41 48  1  0  0  0
 42 43  1  0  0  0
 42 66  1  0  0  0
 42113  1  0  0  0
 42114  1  0  0  0
 43 44  1  0  0  0
 44115  1  0  0  0
 45 46  2  0  0  0
 45116  1  0  0  0
 46117  1  0  0  0
 47118  1  0  0  0
 47119  1  0  0  0
 48 56  1  0  0  0
 48 65  1  0  0  0
 48120  1  0  0  0
 49 50  1  0  0  0
 49 53  1  0  0  0
 49 64  1  0  0  0
 49121  1  0  0  0
 50 51  1  0  0  0
 50122  1  0  0  0
 50123  1  0  0  0
 51 52  1  0  0  0
 51124  1  0  0  0
 51125  1  0  0  0
 52126  1  0  0  0
 52127  1  0  0  0
 53 54  1  0  0  0
 54 55  2  0  0  0
 54128  1  0  0  0
 55 57  1  0  0  0
 55129  1  0  0  0
 56 69  2  0  0  0
 57 58  2  0  0  0
 57130  1  0  0  0
 58131  1  0  0  0
 59 60  1  0  0  0
 59 61  1  0  0  0
 59 62  1  0  0  0
 60132  1  0  0  0
 60133  1  0  0  0
 60134  1  0  0  0
 61135  1  0  0  0
 61136  1  0  0  0
 61137  1  0  0  0
 62138  1  0  0  0
 62139  1  0  0  0
 62140  1  0  0  0
 63 65  1  0  0  0
 63141  1  0  0  0
 63142  1  0  0  0
 63143  1  0  0  0
 64144  1  0  0  0
 65145  1  0  0  0
 68 82  1  0  0  0
 71 72  2  0  0  0
 71 74  1  0  0  0
 71146  1  0  0  0
 72 76  1  0  0  0
 72147  1  0  0  0
 73 74  2  0  0  0
 73 75  1  0  0  0
 73148  1  0  0  0
 74 84  1  0  0  0
 75 76  2  0  0  0
 75 83  1  0  0  0
 76 85  1  0  0  0
 77 78  2  0  0  0
 77 79  1  0  0  0
 77 86  1  0  0  0
 78149  1  0  0  0
 78150  1  0  0  0
 79 82  1  0  0  0
 79151  1  0  0  0
 79152  1  0  0  0
 80 81  1  0  0  0
 80 82  1  0  0  0
 80153  1  0  0  0
 80154  1  0  0  0
 81 86  1  0  0  0
 81155  1  0  0  0
 81156  1  0  0  0
 82157  1  0  0  0
 83158  1  0  0  0
 83159  1  0  0  0
 83160  1  0  0  0
 84161  1  0  0  0
 84162  1  0  0  0
 84 86  1  0  0  0
 85163  1  0  0  0
 86164  1  0  0  0
M  CHG  1  86   1
M  ISO  4   1 100  68 101  82 101  85 100
M  END
> <chiral flag>
0

> <version>
0

> <s_m_source_file>
/data/baiqing/PycharmProjects/Reinvent-master-3.2/result/LINK_invent/BTK/process_docking_weight1_custom_product_contain_oxygen_bond_distance_aromatic_linkinvent_7_9_3/rearranged_h_0048.sdf

> <i_m_source_file_index>
52

> <r_mmod_Potential_Energy-OPLS-2005>
-45.2072944641113

> <r_mmod_Stretch_Energy-OPLS-2005>
59.9884872436523

> <r_mmod_Bend_Energy-OPLS-2005>
178.193908691406

> <r_mmod_Torsional_Energy-OPLS-2005>
267.799865722656

> <r_mmod_Improper_Torsional_Energy-OPLS-2005>
7.91912889480591

> <r_mmod_Van_der_Waal_Energy-OPLS-2005>
142.510894775391

> <r_mmod_Electrostatic_Energy-OPLS-2005>
-281.095886230469

> <r_mmod_Solvation_Energy-OPLS-2005>
-452.416687011719

> <b_mmod_Minimization_Converged-OPLS-2005>
0

> <r_mmod_RMS_Derivative-OPLS-2005>
1.21019721031189

$$$$
52
                    3D
 Structure written by MMmdl.
158166  0  0  1  0            999 V2000
  -30.7172  -14.4098   20.6566 C   0  0  0  0  0  0
  -30.4279  -12.3013   19.3933 C   0  0  0  0  0  0
  -29.4885  -12.5200   18.1903 C   0  0  0  0  0  0
  -28.0117  -12.3725   18.6082 C   0  0  0  0  0  0
  -27.6667  -13.1950   19.8777 C   0  0  2  0  0  0
  -28.7052  -12.9248   20.9877 C   0  0  0  0  0  0
  -25.2620  -13.8129   20.5666 C   0  0  0  0  0  0
  -24.1850  -13.0426   20.9150 C   0  0  0  0  0  0
  -24.6384  -11.6885   20.8710 C   0  0  0  0  0  0
  -23.9044  -10.4282   21.0392 C   0  0  0  0  0  0
  -24.3600   -9.4207   21.9177 C   0  0  0  0  0  0
  -23.6280   -8.2241   22.0758 C   0  0  0  0  0  0
  -22.4267   -8.0273   21.3543 C   0  0  0  0  0  0
  -21.9889   -9.0242   20.4647 C   0  0  0  0  0  0
  -22.7213  -10.2120   20.3049 C   0  0  0  0  0  0
  -21.6850   -6.0731   22.5283 C   0  0  0  0  0  0
  -21.4013   -6.5638   23.8215 C   0  0  0  0  0  0
  -21.3658   -5.6792   24.9178 C   0  0  0  0  0  0
  -21.6043   -4.3054   24.7227 C   0  0  0  0  0  0
  -21.8821   -3.8143   23.4350 C   0  0  0  0  0  0
  -21.9193   -4.6960   22.3406 C   0  0  0  0  0  0
  -22.7881  -13.5242   21.1821 C   0  0  0  0  0  0
  -22.1664   -4.2146   21.0982 F   0  0  0  0  0  0
  -21.5625   -3.4538   25.7741 F   0  0  0  0  0  0
  -30.0420  -13.2475   20.4499 N   0  0  0  0  0  0
  -26.3048  -12.9273   20.3359 N   0  0  0  0  0  0
  -25.9303  -11.6443   20.5730 N   0  0  0  0  0  0
  -22.0522  -12.8243   22.0382 N   0  0  0  0  0  0
  -25.4376  -15.1842   20.4099 N   0  0  0  0  0  0
  -31.7837  -14.6859   20.0967 O   0  0  0  0  0  0
  -21.6638   -6.8866   21.4241 O   0  0  0  0  0  0
  -22.3575  -14.5555   20.6684 O   0  0  0  0  0  0
  -24.6095  -31.8723   23.2139 C   0  0  0  0  0  0
  -25.9015  -32.4850   23.8414 C   0  0  1  0  0  0
  -27.2431  -27.4576   20.1032 C   0  0  0  0  0  0
  -25.5900  -33.8649   24.2351 N   0  0  0  0  0  0
  -23.3997  -30.4936   21.5526 C   0  0  2  0  0  0
  -24.8513  -28.9598   20.1229 C   0  0  0  0  0  0
  -22.7399  -29.4675   22.5008 C   0  0  0  0  0  0
  -18.0275  -28.1372   22.8498 C   0  0  0  0  0  0
  -24.1493  -36.7310   23.2642 C   0  0  0  0  0  0
  -25.9260  -30.8388   21.3716 C   0  0  0  0  0  0
  -26.0065  -29.4724   20.7278 C   0  0  0  0  0  0
  -27.2047  -28.7245   20.7314 C   0  0  0  0  0  0
  -26.0796  -26.9618   19.4845 C   0  0  0  0  0  0
  -24.8799  -27.6978   19.5034 C   0  0  0  0  0  0
  -23.6112  -29.8237   20.1684 C   0  0  0  0  0  0
  -25.4112  -36.3130   24.0353 C   0  0  1  0  0  0
  -20.5858  -28.3656   23.1321 C   0  0  2  0  0  0
  -20.6772  -26.9393   22.5413 C   0  0  0  0  0  0
  -19.5753  -26.6386   21.5213 C   0  0  0  0  0  0
  -18.1926  -26.7923   22.1622 C   0  0  0  0  0  0
  -19.1521  -28.8835   23.2908 C   0  0  0  0  0  0
  -18.9450  -30.1440   23.8910 C   0  0  0  0  0  0
  -17.6455  -30.6579   24.0570 C   0  0  0  0  0  0
  -25.9027  -34.9495   23.5143 C   0  0  0  0  0  0
  -16.5343  -29.9091   23.6328 C   0  0  0  0  0  0
  -16.7267  -28.6509   23.0351 C   0  0  0  0  0  0
  -26.4459  -31.6626   25.0733 C   0  0  0  0  0  0
  -25.3751  -31.3724   26.1498 C   0  0  0  0  0  0
  -27.0267  -30.3069   24.6084 C   0  0  0  0  0  0
  -27.6038  -32.4352   25.7483 C   0  0  0  0  0  0
  -27.5589  -37.1807   24.8477 C   0  0  0  0  0  0
  -21.4133  -29.3034   22.3741 N   0  0  0  0  0  0
  -26.4305  -37.3802   23.9417 N   0  0  0  0  0  0
  -24.6628  -31.0830   22.1038 N   0  0  0  0  0  0
  -23.4179  -28.8209   23.3042 O   0  0  0  0  0  0
  -28.3673  -26.6704   20.0326 O   0  0  0  0  0  0
  -26.5571  -34.8944   22.4688 O   0  0  0  0  0  0
  -23.5290  -32.1451   23.7550 O   0  0  0  0  0  0
  -31.4669  -18.7799   23.3808 C   0  0  0  0  0  0
  -31.4220  -17.5599   24.0799 C   0  0  0  0  0  0
  -30.6728  -17.6588   21.3635 C   0  0  0  0  0  0
  -31.0906  -18.8408   22.0221 C   0  0  0  0  0  0
  -30.6235  -16.4318   22.0694 C   0  0  0  0  0  0
  -30.9938  -16.3873   23.4320 C   0  0  0  0  0  0
  -31.1687  -20.1805   21.2973 C   0  0  0  0  0  0
  -30.0663  -21.1761   21.7221 C   0  0  0  0  0  0
  -29.1836  -26.5897   21.1958 C   0  0  0  0  0  0
  -30.0909  -25.3469   21.0972 C   0  0  0  0  0  0
  -30.0873  -15.2666   21.4709 N   0  0  0  0  0  0
  -30.3714  -22.5381   21.2526 N   0  0  0  0  0  0
  -29.1618  -23.8113   23.1227 O   0  0  0  0  0  0
  -28.0589  -23.5620   20.8536 O   0  0  0  0  0  0
  -29.2695  -23.7972   21.6550 S   0  0  0  0  0  0
  -30.9203  -14.9074   24.3249 Cl  0  0  0  0  0  0
  -31.4691  -12.4183   19.0884 H   0  0  0  0  0  0
  -30.3388  -11.2778   19.7620 H   0  0  0  0  0  0
  -29.7233  -11.8098   17.3960 H   0  0  0  0  0  0
  -29.6536  -13.5130   17.7680 H   0  0  0  0  0  0
  -27.8239  -11.3142   18.7928 H   0  0  0  0  0  0
  -27.3568  -12.6556   17.7840 H   0  0  0  0  0  0
  -27.7266  -14.2497   19.6080 H   0  0  0  0  0  0
  -28.6784  -11.8723   21.2736 H   0  0  0  0  0  0
  -28.4485  -13.4665   21.8989 H   0  0  0  0  0  0
  -25.2748   -9.5692   22.4745 H   0  0  0  0  0  0
  -23.9996   -7.4637   22.7481 H   0  0  0  0  0  0
  -21.0819   -8.8744   19.8957 H   0  0  0  0  0  0
  -22.3663  -10.9651   19.6152 H   0  0  0  0  0  0
  -21.2008   -7.6150   23.9714 H   0  0  0  0  0  0
  -21.1477   -6.0526   25.9077 H   0  0  0  0  0  0
  -22.0601   -2.7608   23.2852 H   0  0  0  0  0  0
  -22.4129  -11.9901   22.4769 H   0  0  0  0  0  0
  -21.1139  -13.1278   22.2584 H   0  0  0  0  0  0
  -24.6766  -15.8445   20.5244 H   0  0  0  0  0  0
  -26.3001  -15.6211   20.1088 H   0  0  0  0  0  0
  -26.7088  -32.5581   23.1177 H   0  0  0  0  0  0
  -25.0110  -33.9827   25.0538 H   0  0  0  0  0  0
  -22.6880  -31.3095   21.4106 H   0  0  0  0  0  0
  -23.3766  -35.9632   23.3326 H   0  0  0  0  0  0
  -24.3591  -36.8884   22.2050 H   0  0  0  0  0  0
  -23.7223  -37.6519   23.6626 H   0  0  0  0  0  0
  -26.0401  -31.6023   20.6011 H   0  0  0  0  0  0
  -26.8121  -30.8921   21.9911 H   0  0  0  0  0  0
  -28.0914  -29.1256   21.2028 H   0  0  0  0  0  0
  -26.1059  -25.9959   18.9993 H   0  0  0  0  0  0
  -23.9931  -27.2962   19.0330 H   0  0  0  0  0  0
  -23.7202  -30.5990   19.4086 H   0  0  0  0  0  0
  -22.7368  -29.2410   19.8722 H   0  0  0  0  0  0
  -25.1279  -36.1996   25.0844 H   0  0  0  0  0  0
  -20.9932  -28.3206   24.1448 H   0  0  0  0  0  0
  -20.5690  -26.2248   23.3585 H   0  0  0  0  0  0
  -21.6640  -26.7463   22.1181 H   0  0  0  0  0  0
  -19.6925  -25.6308   21.1220 H   0  0  0  0  0  0
  -19.6703  -27.3224   20.6764 H   0  0  0  0  0  0
  -17.4196  -26.6688   21.4018 H   0  0  0  0  0  0
  -18.0324  -26.0048   22.8997 H   0  0  0  0  0  0
  -19.7929  -30.7253   24.2274 H   0  0  0  0  0  0
  -17.5020  -31.6256   24.5172 H   0  0  0  0  0  0
  -15.5346  -30.2998   23.7653 H   0  0  0  0  0  0
  -15.8669  -28.0841   22.7045 H   0  0  0  0  0  0
  -24.5913  -30.7083   25.7844 H   0  0  0  0  0  0
  -24.8960  -32.2875   26.4988 H   0  0  0  0  0  0
  -25.8125  -30.8868   27.0226 H   0  0  0  0  0  0
  -26.2790  -29.6866   24.1130 H   0  0  0  0  0  0
  -27.4026  -29.7276   25.4523 H   0  0  0  0  0  0
  -27.8641  -30.4397   23.9232 H   0  0  0  0  0  0
  -27.2654  -33.3633   26.2106 H   0  0  0  0  0  0
  -28.3811  -32.6953   25.0285 H   0  0  0  0  0  0
  -28.0756  -31.8464   26.5354 H   0  0  0  0  0  0
  -28.2610  -38.0101   24.7500 H   0  0  0  0  0  0
  -28.1072  -36.2623   24.6316 H   0  0  0  0  0  0
  -27.2309  -37.1469   25.8883 H   0  0  0  0  0  0
  -20.9289  -29.8733   21.6948 H   0  0  0  0  0  0
  -26.0206  -38.2888   24.1394 H   0  0  0  0  0  0
  -31.7907  -19.6732   23.8975 H   0  0  0  0  0  0
  -31.7068  -17.5247   25.1217 H   0  0  0  0  0  0
  -30.3724  -17.6973   20.3254 H   0  0  0  0  0  0
  -31.1389  -20.0231   20.2180 H   0  0  0  0  0  0
  -32.1500  -20.6054   21.5109 H   0  0  0  0  0  0
  -29.9795  -21.2003   22.8096 H   0  0  0  0  0  0
  -29.0943  -20.8618   21.3377 H   0  0  0  0  0  0
  -29.8025  -27.4844   21.2530 H   0  0  0  0  0  0
  -28.5833  -26.5526   22.1069 H   0  0  0  0  0  0
  -30.9638  -25.4813   21.7322 H   0  0  0  0  0  0
  -30.4498  -25.2063   20.0801 H   0  0  0  0  0  0
  -29.2570  -14.8931   21.9040 H   0  0  0  0  0  0
  -31.3159  -22.8115   21.5321 H   0  0  0  0  0  0
  1 25  1  0  0  0
  1 30  2  0  0  0
  1 81  1  0  0  0
  2  3  1  0  0  0
  2 25  1  0  0  0
  2 87  1  0  0  0
  2 88  1  0  0  0
  3  4  1  0  0  0
  3 89  1  0  0  0
  3 90  1  0  0  0
  4  5  1  0  0  0
  4 91  1  0  0  0
  4 92  1  0  0  0
  5  6  1  0  0  0
  5 26  1  0  0  0
  5 93  1  0  0  0
  6 25  1  0  0  0
  6 94  1  0  0  0
  6 95  1  0  0  0
  7  8  2  0  0  0
  7 26  1  0  0  0
  7 29  1  0  0  0
  8  9  1  0  0  0
  8 22  1  0  0  0
  9 10  1  0  0  0
  9 27  2  0  0  0
 10 11  2  0  0  0
 10 15  1  0  0  0
 11 12  1  0  0  0
 11 96  1  0  0  0
 12 13  2  0  0  0
 12 97  1  0  0  0
 13 14  1  0  0  0
 13 31  1  0  0  0
 14 15  2  0  0  0
 14 98  1  0  0  0
 15 99  1  0  0  0
 16 17  2  0  0  0
 16 21  1  0  0  0
 16 31  1  0  0  0
 17 18  1  0  0  0
 17100  1  0  0  0
 18 19  2  0  0  0
 18101  1  0  0  0
 19 20  1  0  0  0
 19 24  1  0  0  0
 20 21  2  0  0  0
 20102  1  0  0  0
 21 23  1  0  0  0
 22 28  1  0  0  0
 22 32  2  0  0  0
 26 27  1  0  0  0
 28103  1  0  0  0
 28104  1  0  0  0
 29105  1  0  0  0
 29106  1  0  0  0
 33 34  1  0  0  0
 33 66  1  0  0  0
 33 70  2  0  0  0
 34 36  1  0  0  0
 34 59  1  0  0  0
 34107  1  0  0  0
 35 44  2  0  0  0
 35 45  1  0  0  0
 35 68  1  0  0  0
 36 56  1  0  0  0
 36108  1  0  0  0
 37 39  1  0  0  0
 37 47  1  0  0  0
 37 66  1  0  0  0
 37109  1  0  0  0
 38 43  2  0  0  0
 38 46  1  0  0  0
 38 47  1  0  0  0
 39 64  1  0  0  0
 39 67  2  0  0  0
 40 52  1  0  0  0
 40 53  2  0  0  0
 40 58  1  0  0  0
 41110  1  0  0  0
 41111  1  0  0  0
 41112  1  0  0  0
 41 48  1  0  0  0
 42 43  1  0  0  0
 42 66  1  0  0  0
 42113  1  0  0  0
 42114  1  0  0  0
 43 44  1  0  0  0
 44115  1  0  0  0
 45 46  2  0  0  0
 45116  1  0  0  0
 46117  1  0  0  0
 47118  1  0  0  0
 47119  1  0  0  0
 48 56  1  0  0  0
 48 65  1  0  0  0
 48120  1  0  0  0
 49 50  1  0  0  0
 49 53  1  0  0  0
 49 64  1  0  0  0
 49121  1  0  0  0
 50 51  1  0  0  0
 50122  1  0  0  0
 50123  1  0  0  0
 51 52  1  0  0  0
 51124  1  0  0  0
 51125  1  0  0  0
 52126  1  0  0  0
 52127  1  0  0  0
 53 54  1  0  0  0
 54 55  2  0  0  0
 54128  1  0  0  0
 55 57  1  0  0  0
 55129  1  0  0  0
 56 69  2  0  0  0
 57 58  2  0  0  0
 57130  1  0  0  0
 58131  1  0  0  0
 59 60  1  0  0  0
 59 61  1  0  0  0
 59 62  1  0  0  0
 60132  1  0  0  0
 60133  1  0  0  0
 60134  1  0  0  0
 61135  1  0  0  0
 61136  1  0  0  0
 61137  1  0  0  0
 62138  1  0  0  0
 62139  1  0  0  0
 62140  1  0  0  0
 63 65  1  0  0  0
 63141  1  0  0  0
 63142  1  0  0  0
 63143  1  0  0  0
 64144  1  0  0  0
 65145  1  0  0  0
 68 79  1  0  0  0
 71 72  2  0  0  0
 71 74  1  0  0  0
 71146  1  0  0  0
 72 76  1  0  0  0
 72147  1  0  0  0
 73 74  2  0  0  0
 73 75  1  0  0  0
 73148  1  0  0  0
 74 77  1  0  0  0
 75 76  2  0  0  0
 75 81  1  0  0  0
 76 86  1  0  0  0
 77 78  1  0  0  0
 77149  1  0  0  0
 77150  1  0  0  0
 78 82  1  0  0  0
 78151  1  0  0  0
 78152  1  0  0  0
 79 80  1  0  0  0
 79153  1  0  0  0
 79154  1  0  0  0
 80155  1  0  0  0
 80156  1  0  0  0
 80 85  1  0  0  0
 81157  1  0  0  0
 82 85  1  0  0  0
 82158  1  0  0  0
 83 85  2  0  0  0
 84 85  2  0  0  0
M  ISO  4   1 100  68 101  79 101  81 100
M  END
> <chiral flag>
0

> <version>
0

> <s_m_source_file>
/data/baiqing/PycharmProjects/Reinvent-master-3.2/result/LINK_invent/BTK/process_docking_weight1_custom_product_contain_oxygen_bond_distance_aromatic_linkinvent_7_9_3/rearranged_h_0048.sdf

> <i_m_source_file_index>
53

> <r_mmod_Potential_Energy-OPLS-2005>
-292.017242431641

> <r_mmod_Stretch_Energy-OPLS-2005>
32.1447601318359

> <r_mmod_Bend_Energy-OPLS-2005>
89.970329284668

> <r_mmod_Torsional_Energy-OPLS-2005>
248.6962890625

> <r_mmod_Improper_Torsional_Energy-OPLS-2005>
8.56710147857666

> <r_mmod_Van_der_Waal_Energy-OPLS-2005>
139.869110107422

> <r_mmod_Electrostatic_Energy-OPLS-2005>
-561.212158203125

> <r_mmod_Solvation_Energy-OPLS-2005>
-257.959838867188

> <b_mmod_Minimization_Converged-OPLS-2005>
0

> <r_mmod_RMS_Derivative-OPLS-2005>
1.70077633857727

$$$$
53
                    3D
 Structure written by MMmdl.
161170  0  0  1  0            999 V2000
  -30.5579  -14.8133   20.4503 C   0  0  0  0  0  0
  -30.4471  -12.5024   19.4630 C   0  0  0  0  0  0
  -29.5142  -12.5121   18.2306 C   0  0  0  0  0  0
  -28.0428  -12.3183   18.6508 C   0  0  0  0  0  0
  -27.6380  -13.2273   19.8410 C   0  0  2  0  0  0
  -28.6861  -13.1785   20.9724 C   0  0  0  0  0  0
  -25.2509  -13.8177   20.5681 C   0  0  0  0  0  0
  -24.1805  -13.0429   20.9216 C   0  0  0  0  0  0
  -24.6392  -11.6905   20.8749 C   0  0  0  0  0  0
  -23.9069  -10.4284   21.0409 C   0  0  0  0  0  0
  -24.3621   -9.4198   21.9185 C   0  0  0  0  0  0
  -23.6292   -8.2236   22.0754 C   0  0  0  0  0  0
  -22.4275   -8.0278   21.3545 C   0  0  0  0  0  0
  -21.9912   -9.0250   20.4647 C   0  0  0  0  0  0
  -22.7242  -10.2126   20.3055 C   0  0  0  0  0  0
  -21.6853   -6.0733   22.5281 C   0  0  0  0  0  0
  -21.4012   -6.5638   23.8213 C   0  0  0  0  0  0
  -21.3658   -5.6791   24.9174 C   0  0  0  0  0  0
  -21.6047   -4.3055   24.7226 C   0  0  0  0  0  0
  -21.8820   -3.8146   23.4348 C   0  0  0  0  0  0
  -21.9192   -4.6961   22.3403 C   0  0  0  0  0  0
  -22.7829  -13.5213   21.1880 C   0  0  0  0  0  0
  -22.1662   -4.2147   21.0981 F   0  0  0  0  0  0
  -21.5627   -3.4538   25.7737 F   0  0  0  0  0  0
  -29.9742  -13.5640   20.3810 N   0  0  0  0  0  0
  -26.2921  -12.9370   20.3235 N   0  0  0  0  0  0
  -25.9317  -11.6521   20.5733 N   0  0  0  0  0  0
  -22.0478  -12.8196   22.0431 N   0  0  0  0  0  0
  -25.4178  -15.1906   20.4084 N   0  0  0  0  0  0
  -31.7658  -14.9317   20.2270 O   0  0  0  0  0  0
  -21.6641   -6.8876   21.4243 O   0  0  0  0  0  0
  -22.3513  -14.5518   20.6726 O   0  0  0  0  0  0
  -24.6347  -31.8517   23.1935 C   0  0  0  0  0  0
  -25.9156  -32.4741   23.8302 C   0  0  1  0  0  0
  -27.2231  -27.2256   20.1485 C   0  0  0  0  0  0
  -25.5943  -33.8543   24.2229 N   0  0  0  0  0  0
  -23.4341  -30.4705   21.5381 C   0  0  2  0  0  0
  -24.8829  -28.9015   20.1199 C   0  0  0  0  0  0
  -22.7518  -29.4585   22.4908 C   0  0  0  0  0  0
  -18.0293  -28.1397   22.8491 C   0  0  0  0  0  0
  -24.1486  -36.7268   23.2643 C   0  0  0  0  0  0
  -25.9818  -30.7538   21.3767 C   0  0  0  0  0  0
  -26.0566  -29.3685   20.7277 C   0  0  0  0  0  0
  -27.2331  -28.5455   20.7244 C   0  0  0  0  0  0
  -26.0264  -26.8248   19.5229 C   0  0  0  0  0  0
  -24.8740  -27.6383   19.5060 C   0  0  0  0  0  0
  -23.6563  -29.7956   20.1581 C   0  0  0  0  0  0
  -25.4118  -36.3062   24.0328 C   0  0  1  0  0  0
  -20.5900  -28.3709   23.1267 C   0  0  2  0  0  0
  -20.6783  -26.9424   22.5413 C   0  0  0  0  0  0
  -19.5757  -26.6392   21.5218 C   0  0  0  0  0  0
  -18.1937  -26.7942   22.1626 C   0  0  0  0  0  0
  -19.1550  -28.8871   23.2874 C   0  0  0  0  0  0
  -18.9469  -30.1472   23.8890 C   0  0  0  0  0  0
  -17.6468  -30.6599   24.0564 C   0  0  0  0  0  0
  -25.9064  -34.9436   23.5085 C   0  0  0  0  0  0
  -16.5358  -29.9095   23.6338 C   0  0  0  0  0  0
  -16.7279  -28.6511   23.0362 C   0  0  0  0  0  0
  -26.4507  -31.6577   25.0704 C   0  0  0  0  0  0
  -25.3717  -31.3741   26.1416 C   0  0  0  0  0  0
  -27.0360  -30.2992   24.6209 C   0  0  0  0  0  0
  -27.6057  -32.4317   25.7485 C   0  0  0  0  0  0
  -27.5576  -37.1793   24.8470 C   0  0  0  0  0  0
  -21.4222  -29.3050   22.3650 N   0  0  0  0  0  0
  -26.4286  -37.3766   23.9415 N   0  0  0  0  0  0
  -24.7029  -31.0448   22.0925 N   0  0  0  0  0  0
  -23.4197  -28.8134   23.3028 O   0  0  0  0  0  0
  -28.3148  -26.3220   20.1042 O   0  0  0  0  0  0
  -26.5631  -34.8922   22.4650 O   0  0  0  0  0  0
  -23.5489  -32.1349   23.7215 O   0  0  0  0  0  0
  -30.4622  -20.7602   18.6628 C   0  0  0  0  0  0
  -31.3414  -20.1932   17.7300 C   0  0  0  0  0  0
  -31.0532  -18.0394   18.7945 C   0  0  0  0  0  0
  -29.8422  -20.0136   19.6960 C   0  0  0  0  0  0
  -30.1722  -18.5554   19.7767 C   0  0  0  0  0  0
  -31.6296  -18.8280   17.7894 C   0  0  0  0  0  0
  -28.4072  -23.5694   20.1154 C   0  0  0  0  0  0
  -29.5255  -23.8453   22.7625 C   0  0  0  0  0  0
  -29.3167  -25.1504   21.9852 C   0  0  0  0  0  0
  -29.9756  -22.7150   21.8202 C   0  0  0  0  0  0
  -28.2690  -25.0130   20.8685 C   0  0  1  0  0  0
  -28.8137  -20.9284   20.5078 C   0  0  0  0  0  0
  -29.7985  -17.4386   20.8544 C   0  0  0  0  0  0
  -29.0258  -22.4592   20.7268 N   0  0  0  0  0  0
  -29.7039  -15.9143   20.5610 N   0  0  0  0  0  0
  -27.8333  -23.4360   19.0309 O   0  0  0  0  0  0
  -32.7005  -18.1187   16.6370 Cl  0  0  0  0  0  0
  -31.4805  -12.6664   19.1530 H   0  0  0  0  0  0
  -30.4288  -11.5308   19.9591 H   0  0  0  0  0  0
  -29.8088  -11.7313   17.5280 H   0  0  0  0  0  0
  -29.6207  -13.4585   17.6978 H   0  0  0  0  0  0
  -27.9171  -11.2716   18.9300 H   0  0  0  0  0  0
  -27.3801  -12.4869   17.8012 H   0  0  0  0  0  0
  -27.6230  -14.2430   19.4462 H   0  0  0  0  0  0
  -28.7451  -12.1799   21.4084 H   0  0  0  0  0  0
  -28.4110  -13.8515   21.7865 H   0  0  0  0  0  0
  -25.2766   -9.5673   22.4756 H   0  0  0  0  0  0
  -24.0004   -7.4626   22.7470 H   0  0  0  0  0  0
  -21.0845   -8.8768   19.8950 H   0  0  0  0  0  0
  -22.3706  -10.9663   19.6163 H   0  0  0  0  0  0
  -21.2007   -7.6146   23.9715 H   0  0  0  0  0  0
  -21.1479   -6.0522   25.9078 H   0  0  0  0  0  0
  -22.0600   -2.7609   23.2848 H   0  0  0  0  0  0
  -22.4101  -11.9856   22.4810 H   0  0  0  0  0  0
  -21.1092  -13.1213   22.2639 H   0  0  0  0  0  0
  -24.6418  -15.8353   20.5128 H   0  0  0  0  0  0
  -26.2474  -15.6331   20.0358 H   0  0  0  0  0  0
  -26.7225  -32.5376   23.1042 H   0  0  0  0  0  0
  -25.0108  -33.9671   25.0392 H   0  0  0  0  0  0
  -22.7327  -31.2935   21.3867 H   0  0  0  0  0  0
  -23.3756  -35.9590   23.3303 H   0  0  0  0  0  0
  -24.3575  -36.8888   22.2057 H   0  0  0  0  0  0
  -23.7229  -37.6467   23.6662 H   0  0  0  0  0  0
  -26.1207  -31.5075   20.6006 H   0  0  0  0  0  0
  -26.8595  -30.8103   22.0091 H   0  0  0  0  0  0
  -28.1378  -28.9056   21.1941 H   0  0  0  0  0  0
  -25.9813  -25.8545   19.0481 H   0  0  0  0  0  0
  -23.9762  -27.2737   19.0256 H   0  0  0  0  0  0
  -23.7859  -30.5672   19.3983 H   0  0  0  0  0  0
  -22.7734  -29.2311   19.8532 H   0  0  0  0  0  0
  -25.1303  -36.1901   25.0819 H   0  0  0  0  0  0
  -20.9994  -28.3287   24.1386 H   0  0  0  0  0  0
  -20.5690  -26.2319   23.3622 H   0  0  0  0  0  0
  -21.6653  -26.7449   22.1201 H   0  0  0  0  0  0
  -19.6914  -25.6296   21.1257 H   0  0  0  0  0  0
  -19.6697  -27.3197   20.6742 H   0  0  0  0  0  0
  -17.4212  -26.6704   21.4020 H   0  0  0  0  0  0
  -18.0322  -26.0084   22.9019 H   0  0  0  0  0  0
  -19.7942  -30.7297   24.2253 H   0  0  0  0  0  0
  -17.5020  -31.6276   24.5168 H   0  0  0  0  0  0
  -15.5358  -30.2994   23.7668 H   0  0  0  0  0  0
  -15.8680  -28.0825   22.7085 H   0  0  0  0  0  0
  -24.5914  -30.7061   25.7749 H   0  0  0  0  0  0
  -24.8879  -32.2916   26.4777 H   0  0  0  0  0  0
  -25.8027  -30.8971   27.0227 H   0  0  0  0  0  0
  -26.2952  -29.6735   24.1220 H   0  0  0  0  0  0
  -27.4029  -29.7261   25.4734 H   0  0  0  0  0  0
  -27.8833  -30.4270   23.9469 H   0  0  0  0  0  0
  -27.2674  -33.3645   26.2006 H   0  0  0  0  0  0
  -28.3901  -32.6822   25.0333 H   0  0  0  0  0  0
  -28.0683  -31.8468   26.5447 H   0  0  0  0  0  0
  -28.2597  -38.0085   24.7515 H   0  0  0  0  0  0
  -28.1066  -36.2617   24.6297 H   0  0  0  0  0  0
  -27.2295  -37.1443   25.8874 H   0  0  0  0  0  0
  -20.9415  -29.8758   21.6838 H   0  0  0  0  0  0
  -26.0160  -38.2837   24.1414 H   0  0  0  0  0  0
  -30.2500  -21.8133   18.5503 H   0  0  0  0  0  0
  -31.7849  -20.8079   16.9600 H   0  0  0  0  0  0
  -31.3318  -16.9982   18.8101 H   0  0  0  0  0  0
  -28.6054  -23.5623   23.2765 H   0  0  0  0  0  0
  -30.2763  -23.9967   23.5391 H   0  0  0  0  0  0
  -30.2659  -25.4686   21.5521 H   0  0  0  0  0  0
  -29.0153  -25.9409   22.6728 H   0  0  0  0  0  0
  -30.1507  -21.8148   22.4104 H   0  0  0  0  0  0
  -30.9395  -22.9661   21.3746 H   0  0  0  0  0  0
  -27.2943  -24.9615   21.3558 H   0  0  0  0  0  0
  -28.6486  -20.4565   21.4769 H   0  0  0  0  0  0
  -27.8562  -20.8198   19.9969 H   0  0  0  0  0  0
  -28.8367  -17.7294   21.2777 H   0  0  0  0  0  0
  -30.5095  -17.5519   21.6735 H   0  0  0  0  0  0
  -28.7458  -15.6037   20.5924 H   0  0  0  0  0  0
  1 25  1  0  0  0
  1 30  2  0  0  0
  1 85  1  0  0  0
  2  3  1  0  0  0
  2 25  1  0  0  0
  2 88  1  0  0  0
  2 89  1  0  0  0
  3  4  1  0  0  0
  3 90  1  0  0  0
  3 91  1  0  0  0
  4  5  1  0  0  0
  4 92  1  0  0  0
  4 93  1  0  0  0
  5  6  1  0  0  0
  5 26  1  0  0  0
  5 94  1  0  0  0
  6 25  1  0  0  0
  6 95  1  0  0  0
  6 96  1  0  0  0
  7  8  2  0  0  0
  7 26  1  0  0  0
  7 29  1  0  0  0
  8  9  1  0  0  0
  8 22  1  0  0  0
  9 10  1  0  0  0
  9 27  2  0  0  0
 10 11  2  0  0  0
 10 15  1  0  0  0
 11 12  1  0  0  0
 11 97  1  0  0  0
 12 13  2  0  0  0
 12 98  1  0  0  0
 13 14  1  0  0  0
 13 31  1  0  0  0
 14 15  2  0  0  0
 14 99  1  0  0  0
 15100  1  0  0  0
 16 17  2  0  0  0
 16 21  1  0  0  0
 16 31  1  0  0  0
 17 18  1  0  0  0
 17101  1  0  0  0
 18 19  2  0  0  0
 18102  1  0  0  0
 19 20  1  0  0  0
 19 24  1  0  0  0
 20 21  2  0  0  0
 20103  1  0  0  0
 21 23  1  0  0  0
 22 28  1  0  0  0
 22 32  2  0  0  0
 26 27  1  0  0  0
 28104  1  0  0  0
 28105  1  0  0  0
 29106  1  0  0  0
 29107  1  0  0  0
 33 34  1  0  0  0
 33 66  1  0  0  0
 33 70  2  0  0  0
 34 36  1  0  0  0
 34 59  1  0  0  0
 34108  1  0  0  0
 35 44  2  0  0  0
 35 45  1  0  0  0
 35 68  1  0  0  0
 36 56  1  0  0  0
 36109  1  0  0  0
 37 39  1  0  0  0
 37 47  1  0  0  0
 37 66  1  0  0  0
 37110  1  0  0  0
 38 43  2  0  0  0
 38 46  1  0  0  0
 38 47  1  0  0  0
 39 64  1  0  0  0
 39 67  2  0  0  0
 40 52  1  0  0  0
 40 53  2  0  0  0
 40 58  1  0  0  0
 41111  1  0  0  0
 41112  1  0  0  0
 41113  1  0  0  0
 41 48  1  0  0  0
 42 43  1  0  0  0
 42 66  1  0  0  0
 42114  1  0  0  0
 42115  1  0  0  0
 43 44  1  0  0  0
 44116  1  0  0  0
 45 46  2  0  0  0
 45117  1  0  0  0
 46118  1  0  0  0
 47119  1  0  0  0
 47120  1  0  0  0
 48 56  1  0  0  0
 48 65  1  0  0  0
 48121  1  0  0  0
 49 50  1  0  0  0
 49 53  1  0  0  0
 49 64  1  0  0  0
 49122  1  0  0  0
 50 51  1  0  0  0
 50123  1  0  0  0
 50124  1  0  0  0
 51 52  1  0  0  0
 51125  1  0  0  0
 51126  1  0  0  0
 52127  1  0  0  0
 52128  1  0  0  0
 53 54  1  0  0  0
 54 55  2  0  0  0
 54129  1  0  0  0
 55 57  1  0  0  0
 55130  1  0  0  0
 56 69  2  0  0  0
 57 58  2  0  0  0
 57131  1  0  0  0
 58132  1  0  0  0
 59 60  1  0  0  0
 59 61  1  0  0  0
 59 62  1  0  0  0
 60133  1  0  0  0
 60134  1  0  0  0
 60135  1  0  0  0
 61136  1  0  0  0
 61137  1  0  0  0
 61138  1  0  0  0
 62139  1  0  0  0
 62140  1  0  0  0
 62141  1  0  0  0
 63 65  1  0  0  0
 63142  1  0  0  0
 63143  1  0  0  0
 63144  1  0  0  0
 64145  1  0  0  0
 65146  1  0  0  0
 68 81  1  0  0  0
 71 72  2  0  0  0
 71 74  1  0  0  0
 71147  1  0  0  0
 72 76  1  0  0  0
 72148  1  0  0  0
 73 75  1  0  0  0
 73 76  2  0  0  0
 73149  1  0  0  0
 74 75  2  0  0  0
 74 82  1  0  0  0
 75 83  1  0  0  0
 76 87  1  0  0  0
 77 81  1  0  0  0
 77 84  1  0  0  0
 77 86  2  0  0  0
 78 79  1  0  0  0
 78 80  1  0  0  0
 78150  1  0  0  0
 78151  1  0  0  0
 79 81  1  0  0  0
 79152  1  0  0  0
 79153  1  0  0  0
 80 84  1  0  0  0
 80154  1  0  0  0
 80155  1  0  0  0
 81156  1  0  0  0
 82 84  1  0  0  0
 82157  1  0  0  0
 82158  1  0  0  0
 83 85  1  0  0  0
 83159  1  0  0  0
 83160  1  0  0  0
 85161  1  0  0  0
M  ISO  4   1 100  68 101  81 101  85 100
M  END
> <chiral flag>
0

> <version>
0

> <s_m_source_file>
/data/baiqing/PycharmProjects/Reinvent-master-3.2/result/LINK_invent/BTK/process_docking_weight1_custom_product_contain_oxygen_bond_distance_aromatic_linkinvent_7_9_3/rearranged_h_0048.sdf

> <i_m_source_file_index>
54

> <r_mmod_Potential_Energy-OPLS-2005>
308.618194580078

> <r_mmod_Stretch_Energy-OPLS-2005>
171.455703735352

> <r_mmod_Bend_Energy-OPLS-2005>
237.134567260742

> <r_mmod_Torsional_Energy-OPLS-2005>
253.711715698242

> <r_mmod_Improper_Torsional_Energy-OPLS-2005>
6.96274662017822

> <r_mmod_Van_der_Waal_Energy-OPLS-2005>
132.444869995117

> <r_mmod_Electrostatic_Energy-OPLS-2005>
-369.884033203125

> <r_mmod_Solvation_Energy-OPLS-2005>
-236.627471923828

> <b_mmod_Minimization_Converged-OPLS-2005>
0

> <r_mmod_RMS_Derivative-OPLS-2005>
0.783744752407074

$$$$
54
                    3D
 Structure written by MMmdl.
157165  0  0  1  0            999 V2000
  -30.7233  -14.4817   20.4433 C   0  0  0  0  0  0
  -30.4098  -12.2797   19.4395 C   0  0  0  0  0  0
  -29.5000  -12.4625   18.2111 C   0  0  0  0  0  0
  -28.0173  -12.3501   18.6160 C   0  0  0  0  0  0
  -27.6570  -13.2117   19.8595 C   0  0  2  0  0  0
  -28.7050  -13.0655   20.9877 C   0  0  0  0  0  0
  -25.2625  -13.8157   20.5714 C   0  0  0  0  0  0
  -24.1882  -13.0456   20.9224 C   0  0  0  0  0  0
  -24.6425  -11.6916   20.8756 C   0  0  0  0  0  0
  -23.9070  -10.4314   21.0414 C   0  0  0  0  0  0
  -24.3625   -9.4231   21.9185 C   0  0  0  0  0  0
  -23.6316   -8.2257   22.0742 C   0  0  0  0  0  0
  -22.4293   -8.0289   21.3542 C   0  0  0  0  0  0
  -21.9932   -9.0258   20.4634 C   0  0  0  0  0  0
  -22.7247  -10.2152   20.3052 C   0  0  0  0  0  0
  -21.6850   -6.0765   22.5283 C   0  0  0  0  0  0
  -21.4016   -6.5659   23.8224 C   0  0  0  0  0  0
  -21.3675   -5.6801   24.9178 C   0  0  0  0  0  0
  -21.6049   -4.3060   24.7222 C   0  0  0  0  0  0
  -21.8817   -3.8168   23.4326 C   0  0  0  0  0  0
  -21.9200   -4.6996   22.3398 C   0  0  0  0  0  0
  -22.7905  -13.5264   21.1865 C   0  0  0  0  0  0
  -22.1668   -4.2191   21.0972 F   0  0  0  0  0  0
  -21.5637   -3.4530   25.7725 F   0  0  0  0  0  0
  -30.0290  -13.3167   20.4069 N   0  0  0  0  0  0
  -26.3034  -12.9337   20.3331 N   0  0  0  0  0  0
  -25.9351  -11.6491   20.5764 N   0  0  0  0  0  0
  -22.0510  -12.8270   22.0386 N   0  0  0  0  0  0
  -25.4369  -15.1878   20.4130 N   0  0  0  0  0  0
  -31.9258  -14.5391   20.1811 O   0  0  0  0  0  0
  -21.6642   -6.8899   21.4245 O   0  0  0  0  0  0
  -22.3609  -14.5577   20.6705 O   0  0  0  0  0  0
  -24.6110  -31.8710   23.2119 C   0  0  0  0  0  0
  -25.9020  -32.4850   23.8402 C   0  0  1  0  0  0
  -27.2144  -27.4316   20.0916 C   0  0  0  0  0  0
  -25.5897  -33.8658   24.2329 N   0  0  0  0  0  0
  -23.3983  -30.4974   21.5523 C   0  0  2  0  0  0
  -24.8419  -28.9689   20.1144 C   0  0  0  0  0  0
  -22.7398  -29.4678   22.4983 C   0  0  0  0  0  0
  -18.0271  -28.1383   22.8477 C   0  0  0  0  0  0
  -24.1498  -36.7305   23.2639 C   0  0  0  0  0  0
  -25.9290  -30.8350   21.3677 C   0  0  0  0  0  0
  -26.0044  -29.4730   20.7086 C   0  0  0  0  0  0
  -27.1952  -28.7116   20.6940 C   0  0  0  0  0  0
  -26.0329  -26.9514   19.4784 C   0  0  0  0  0  0
  -24.8490  -27.7065   19.5016 C   0  0  0  0  0  0
  -23.6079  -29.8367   20.1654 C   0  0  0  0  0  0
  -25.4130  -36.3132   24.0333 C   0  0  1  0  0  0
  -20.5852  -28.3665   23.1322 C   0  0  2  0  0  0
  -20.6767  -26.9399   22.5421 C   0  0  0  0  0  0
  -19.5752  -26.6380   21.5212 C   0  0  0  0  0  0
  -18.1922  -26.7924   22.1611 C   0  0  0  0  0  0
  -19.1516  -28.8841   23.2900 C   0  0  0  0  0  0
  -18.9455  -30.1445   23.8915 C   0  0  0  0  0  0
  -17.6465  -30.6594   24.0567 C   0  0  0  0  0  0
  -25.9052  -34.9501   23.5130 C   0  0  0  0  0  0
  -16.5350  -29.9107   23.6332 C   0  0  0  0  0  0
  -16.7265  -28.6520   23.0350 C   0  0  0  0  0  0
  -26.4450  -31.6633   25.0730 C   0  0  0  0  0  0
  -25.3727  -31.3714   26.1482 C   0  0  0  0  0  0
  -27.0239  -30.3089   24.6046 C   0  0  0  0  0  0
  -27.6029  -32.4342   25.7490 C   0  0  0  0  0  0
  -27.5596  -37.1817   24.8466 C   0  0  0  0  0  0
  -21.4133  -29.3048   22.3738 N   0  0  0  0  0  0
  -26.4318  -37.3812   23.9401 N   0  0  0  0  0  0
  -24.6646  -31.0795   22.1030 N   0  0  0  0  0  0
  -23.4170  -28.8207   23.3013 O   0  0  0  0  0  0
  -28.3748  -26.6825   20.1300 O   0  0  0  0  0  0
  -26.5590  -34.8931   22.4678 O   0  0  0  0  0  0
  -23.5299  -32.1472   23.7511 O   0  0  0  0  0  0
  -30.5048  -19.2560   19.2029 C   0  0  0  0  0  0
  -28.7082  -18.3933   20.5854 C   0  0  0  0  0  0
  -29.8771  -18.1596   19.8330 C   0  0  0  0  0  0
  -30.0066  -20.5717   19.3260 C   0  0  0  0  0  0
  -28.8446  -20.8155   20.1085 C   0  0  0  0  0  0
  -28.1945  -19.7037   20.7196 C   0  0  0  0  0  0
  -29.3485  -24.5069   20.7273 C   0  0  0  0  0  0
  -30.7506  -21.6898   18.6007 C   0  0  0  0  0  0
  -30.5231  -16.7836   19.6657 C   0  0  0  0  0  0
  -28.3041  -22.2475   20.2769 C   0  0  0  0  0  0
  -28.2365  -25.2571   19.9714 C   0  0  0  0  0  0
  -29.3058  -23.1675   20.8243 N   0  0  0  0  0  0
  -29.9897  -15.6096   20.3888 N   0  0  0  0  0  0
  -30.2730  -25.1340   21.2486 O   0  0  0  0  0  0
  -26.7603  -19.8981   21.6655 Cl  0  0  0  0  0  0
  -31.4576  -12.3408   19.1420 H   0  0  0  0  0  0
  -30.2822  -11.2887   19.8765 H   0  0  0  0  0  0
  -29.7376  -11.7128   17.4555 H   0  0  0  0  0  0
  -29.6895  -13.4323   17.7489 H   0  0  0  0  0  0
  -27.8131  -11.2970   18.8144 H   0  0  0  0  0  0
  -27.3813  -12.6239   17.7736 H   0  0  0  0  0  0
  -27.6776  -14.2492   19.5252 H   0  0  0  0  0  0
  -28.6811  -12.0639   21.4189 H   0  0  0  0  0  0
  -28.4960  -13.7563   21.8060 H   0  0  0  0  0  0
  -25.2769   -9.5727   22.4755 H   0  0  0  0  0  0
  -24.0044   -7.4650   22.7450 H   0  0  0  0  0  0
  -21.0873   -8.8768   19.8921 H   0  0  0  0  0  0
  -22.3700  -10.9695   19.6155 H   0  0  0  0  0  0
  -21.1986   -7.6159   23.9742 H   0  0  0  0  0  0
  -21.1508   -6.0519   25.9090 H   0  0  0  0  0  0
  -22.0583   -2.7626   23.2802 H   0  0  0  0  0  0
  -22.4092  -11.9921   22.4802 H   0  0  0  0  0  0
  -21.1109  -13.1293   22.2509 H   0  0  0  0  0  0
  -24.6683  -15.8403   20.5166 H   0  0  0  0  0  0
  -26.2844  -15.6253   20.0759 H   0  0  0  0  0  0
  -26.7073  -32.5539   23.1138 H   0  0  0  0  0  0
  -25.0089  -33.9850   25.0499 H   0  0  0  0  0  0
  -22.6875  -31.3150   21.4144 H   0  0  0  0  0  0
  -23.3788  -35.9613   23.3332 H   0  0  0  0  0  0
  -24.3580  -36.8887   22.2046 H   0  0  0  0  0  0
  -23.7233  -37.6513   23.6629 H   0  0  0  0  0  0
  -26.0431  -31.6069   20.6061 H   0  0  0  0  0  0
  -26.8160  -30.8824   21.9872 H   0  0  0  0  0  0
  -28.0928  -29.0934   21.1628 H   0  0  0  0  0  0
  -25.9951  -25.9913   18.9839 H   0  0  0  0  0  0
  -23.9506  -27.3124   19.0487 H   0  0  0  0  0  0
  -23.7241  -30.6146   19.4107 H   0  0  0  0  0  0
  -22.7312  -29.2636   19.8594 H   0  0  0  0  0  0
  -25.1318  -36.2003   25.0827 H   0  0  0  0  0  0
  -20.9923  -28.3217   24.1455 H   0  0  0  0  0  0
  -20.5668  -26.2270   23.3610 H   0  0  0  0  0  0
  -21.6648  -26.7470   22.1210 H   0  0  0  0  0  0
  -19.6931  -25.6290   21.1255 H   0  0  0  0  0  0
  -19.6706  -27.3189   20.6734 H   0  0  0  0  0  0
  -17.4198  -26.6669   21.4011 H   0  0  0  0  0  0
  -18.0329  -26.0076   22.9013 H   0  0  0  0  0  0
  -19.7940  -30.7243   24.2290 H   0  0  0  0  0  0
  -17.5040  -31.6276   24.5162 H   0  0  0  0  0  0
  -15.5354  -30.3027   23.7669 H   0  0  0  0  0  0
  -15.8652  -28.0862   22.7065 H   0  0  0  0  0  0
  -24.5912  -30.7034   25.7835 H   0  0  0  0  0  0
  -24.8886  -32.2848   26.4951 H   0  0  0  0  0  0
  -25.8107  -30.8892   27.0229 H   0  0  0  0  0  0
  -26.2736  -29.6902   24.1101 H   0  0  0  0  0  0
  -27.4045  -29.7268   25.4445 H   0  0  0  0  0  0
  -27.8565  -30.4437   23.9140 H   0  0  0  0  0  0
  -27.2656  -33.3645   26.2075 H   0  0  0  0  0  0
  -28.3834  -32.6904   25.0314 H   0  0  0  0  0  0
  -28.0685  -31.8453   26.5399 H   0  0  0  0  0  0
  -28.2625  -38.0110   24.7541 H   0  0  0  0  0  0
  -28.1085  -36.2646   24.6278 H   0  0  0  0  0  0
  -27.2291  -37.1442   25.8862 H   0  0  0  0  0  0
  -20.9284  -29.8819   21.7011 H   0  0  0  0  0  0
  -26.0214  -38.2886   24.1435 H   0  0  0  0  0  0
  -31.3946  -19.0887   18.6105 H   0  0  0  0  0  0
  -28.1940  -17.5776   21.0728 H   0  0  0  0  0  0
  -30.0771  -22.4610   18.2240 H   0  0  0  0  0  0
  -31.3132  -21.3084   17.7476 H   0  0  0  0  0  0
  -31.4603  -22.1713   19.2745 H   0  0  0  0  0  0
  -31.5719  -16.9324   19.9318 H   0  0  0  0  0  0
  -30.5178  -16.5468   18.5989 H   0  0  0  0  0  0
  -27.4318  -22.2853   20.9273 H   0  0  0  0  0  0
  -27.9508  -22.5925   19.3037 H   0  0  0  0  0  0
  -27.2893  -24.8966   20.3775 H   0  0  0  0  0  0
  -28.2767  -25.0041   18.9098 H   0  0  0  0  0  0
  -30.0811  -22.7265   21.2977 H   0  0  0  0  0  0
  -28.9948  -15.5327   20.5244 H   0  0  0  0  0  0
  1 25  1  0  0  0
  1 30  2  0  0  0
  1 83  1  0  0  0
  2  3  1  0  0  0
  2 25  1  0  0  0
  2 86  1  0  0  0
  2 87  1  0  0  0
  3  4  1  0  0  0
  3 88  1  0  0  0
  3 89  1  0  0  0
  4  5  1  0  0  0
  4 90  1  0  0  0
  4 91  1  0  0  0
  5  6  1  0  0  0
  5 26  1  0  0  0
  5 92  1  0  0  0
  6 25  1  0  0  0
  6 93  1  0  0  0
  6 94  1  0  0  0
  7  8  2  0  0  0
  7 26  1  0  0  0
  7 29  1  0  0  0
  8  9  1  0  0  0
  8 22  1  0  0  0
  9 10  1  0  0  0
  9 27  2  0  0  0
 10 11  2  0  0  0
 10 15  1  0  0  0
 11 12  1  0  0  0
 11 95  1  0  0  0
 12 13  2  0  0  0
 12 96  1  0  0  0
 13 14  1  0  0  0
 13 31  1  0  0  0
 14 15  2  0  0  0
 14 97  1  0  0  0
 15 98  1  0  0  0
 16 17  2  0  0  0
 16 21  1  0  0  0
 16 31  1  0  0  0
 17 18  1  0  0  0
 17 99  1  0  0  0
 18 19  2  0  0  0
 18100  1  0  0  0
 19 20  1  0  0  0
 19 24  1  0  0  0
 20 21  2  0  0  0
 20101  1  0  0  0
 21 23  1  0  0  0
 22 28  1  0  0  0
 22 32  2  0  0  0
 26 27  1  0  0  0
 28102  1  0  0  0
 28103  1  0  0  0
 29104  1  0  0  0
 29105  1  0  0  0
 33 34  1  0  0  0
 33 66  1  0  0  0
 33 70  2  0  0  0
 34 36  1  0  0  0
 34 59  1  0  0  0
 34106  1  0  0  0
 35 44  2  0  0  0
 35 45  1  0  0  0
 35 68  1  0  0  0
 36 56  1  0  0  0
 36107  1  0  0  0
 37 39  1  0  0  0
 37 47  1  0  0  0
 37 66  1  0  0  0
 37108  1  0  0  0
 38 43  2  0  0  0
 38 46  1  0  0  0
 38 47  1  0  0  0
 39 64  1  0  0  0
 39 67  2  0  0  0
 40 52  1  0  0  0
 40 53  2  0  0  0
 40 58  1  0  0  0
 41109  1  0  0  0
 41110  1  0  0  0
 41111  1  0  0  0
 41 48  1  0  0  0
 42 43  1  0  0  0
 42 66  1  0  0  0
 42112  1  0  0  0
 42113  1  0  0  0
 43 44  1  0  0  0
 44114  1  0  0  0
 45 46  2  0  0  0
 45115  1  0  0  0
 46116  1  0  0  0
 47117  1  0  0  0
 47118  1  0  0  0
 48 56  1  0  0  0
 48 65  1  0  0  0
 48119  1  0  0  0
 49 50  1  0  0  0
 49 53  1  0  0  0
 49 64  1  0  0  0
 49120  1  0  0  0
 50 51  1  0  0  0
 50121  1  0  0  0
 50122  1  0  0  0
 51 52  1  0  0  0
 51123  1  0  0  0
 51124  1  0  0  0
 52125  1  0  0  0
 52126  1  0  0  0
 53 54  1  0  0  0
 54 55  2  0  0  0
 54127  1  0  0  0
 55 57  1  0  0  0
 55128  1  0  0  0
 56 69  2  0  0  0
 57 58  2  0  0  0
 57129  1  0  0  0
 58130  1  0  0  0
 59 60  1  0  0  0
 59 61  1  0  0  0
 59 62  1  0  0  0
 60131  1  0  0  0
 60132  1  0  0  0
 60133  1  0  0  0
 61134  1  0  0  0
 61135  1  0  0  0
 61136  1  0  0  0
 62137  1  0  0  0
 62138  1  0  0  0
 62139  1  0  0  0
 63 65  1  0  0  0
 63140  1  0  0  0
 63141  1  0  0  0
 63142  1  0  0  0
 64143  1  0  0  0
 65144  1  0  0  0
 68 81  1  0  0  0
 71 73  2  0  0  0
 71 74  1  0  0  0
 71145  1  0  0  0
 72 73  1  0  0  0
 72 76  2  0  0  0
 72146  1  0  0  0
 73 79  1  0  0  0
 74 75  2  0  0  0
 74 78  1  0  0  0
 75 76  1  0  0  0
 75 80  1  0  0  0
 76 85  1  0  0  0
 77 81  1  0  0  0
 77 82  1  0  0  0
 77 84  2  0  0  0
 78147  1  0  0  0
 78148  1  0  0  0
 78149  1  0  0  0
 79 83  1  0  0  0
 79150  1  0  0  0
 79151  1  0  0  0
 80 82  1  0  0  0
 80152  1  0  0  0
 80153  1  0  0  0
 81154  1  0  0  0
 81155  1  0  0  0
 82156  1  0  0  0
 83157  1  0  0  0
M  ISO  4   1 100  68 101  81 101  83 100
M  END
> <chiral flag>
0

> <version>
0

> <s_m_source_file>
/data/baiqing/PycharmProjects/Reinvent-master-3.2/result/LINK_invent/BTK/process_docking_weight1_custom_product_contain_oxygen_bond_distance_aromatic_linkinvent_7_9_3/rearranged_h_0048.sdf

> <i_m_source_file_index>
55

> <r_mmod_Potential_Energy-OPLS-2005>
-104.672721862793

> <r_mmod_Stretch_Energy-OPLS-2005>
38.0378913879395

> <r_mmod_Bend_Energy-OPLS-2005>
104.707809448242

> <r_mmod_Torsional_Energy-OPLS-2005>
224.80339050293

> <r_mmod_Improper_Torsional_Energy-OPLS-2005>
11.8727550506592

> <r_mmod_Van_der_Waal_Energy-OPLS-2005>
163.471694946289

> <r_mmod_Electrostatic_Energy-OPLS-2005>
-432.808563232422

> <r_mmod_Solvation_Energy-OPLS-2005>
-240.074462890625

> <b_mmod_Minimization_Converged-OPLS-2005>
0

> <r_mmod_RMS_Derivative-OPLS-2005>
3.57646036148071

$$$$
55
                    3D
 Structure written by MMmdl.
156164  0  0  1  0            999 V2000
  -30.6783  -14.6280   20.5231 C   0  0  0  0  0  0
  -30.4194  -12.4022   19.4518 C   0  0  0  0  0  0
  -29.4990  -12.4884   18.2137 C   0  0  0  0  0  0
  -28.0162  -12.3451   18.6123 C   0  0  0  0  0  0
  -27.6391  -13.2196   19.8373 C   0  0  2  0  0  0
  -28.6749  -13.0884   20.9633 C   0  0  0  0  0  0
  -25.2531  -13.8189   20.5665 C   0  0  0  0  0  0
  -24.1808  -13.0442   20.9185 C   0  0  0  0  0  0
  -24.6367  -11.6912   20.8708 C   0  0  0  0  0  0
  -23.9037  -10.4297   21.0397 C   0  0  0  0  0  0
  -24.3607   -9.4223   21.9179 C   0  0  0  0  0  0
  -23.6291   -8.2259   22.0768 C   0  0  0  0  0  0
  -22.4273   -8.0284   21.3562 C   0  0  0  0  0  0
  -21.9895   -9.0239   20.4659 C   0  0  0  0  0  0
  -22.7207  -10.2121   20.3056 C   0  0  0  0  0  0
  -21.6860   -6.0727   22.5267 C   0  0  0  0  0  0
  -21.4018   -6.5638   23.8196 C   0  0  0  0  0  0
  -21.3658   -5.6798   24.9161 C   0  0  0  0  0  0
  -21.6046   -4.3056   24.7218 C   0  0  0  0  0  0
  -21.8819   -3.8144   23.4337 C   0  0  0  0  0  0
  -21.9196   -4.6957   22.3396 C   0  0  0  0  0  0
  -22.7847  -13.5249   21.1832 C   0  0  0  0  0  0
  -22.1669   -4.2146   21.0971 F   0  0  0  0  0  0
  -21.5622   -3.4538   25.7726 F   0  0  0  0  0  0
  -29.9852  -13.4468   20.4090 N   0  0  0  0  0  0
  -26.2909  -12.9362   20.3173 N   0  0  0  0  0  0
  -25.9276  -11.6510   20.5668 N   0  0  0  0  0  0
  -22.0481  -12.8253   22.0385 N   0  0  0  0  0  0
  -25.4221  -15.1921   20.4142 N   0  0  0  0  0  0
  -31.8708  -14.6778   20.2157 O   0  0  0  0  0  0
  -21.6656   -6.8863   21.4233 O   0  0  0  0  0  0
  -22.3537  -14.5537   20.6659 O   0  0  0  0  0  0
  -24.6231  -31.8594   23.2013 C   0  0  0  0  0  0
  -25.9087  -32.4784   23.8343 C   0  0  1  0  0  0
  -27.2249  -27.3402   20.1221 C   0  0  0  0  0  0
  -25.5902  -33.8586   24.2269 N   0  0  0  0  0  0
  -23.4165  -30.4816   21.5428 C   0  0  2  0  0  0
  -24.8629  -28.9298   20.1146 C   0  0  0  0  0  0
  -22.7467  -29.4634   22.4944 C   0  0  0  0  0  0
  -18.0332  -28.1348   22.8418 C   0  0  0  0  0  0
  -24.1479  -36.7308   23.2641 C   0  0  0  0  0  0
  -25.9523  -30.8004   21.3628 C   0  0  0  0  0  0
  -26.0286  -29.4235   20.7157 C   0  0  0  0  0  0
  -27.2157  -28.6398   20.7065 C   0  0  0  0  0  0
  -26.0424  -26.8845   19.5060 C   0  0  0  0  0  0
  -24.8690  -27.6651   19.5003 C   0  0  0  0  0  0
  -23.6294  -29.8075   20.1602 C   0  0  0  0  0  0
  -25.4109  -36.3090   24.0320 C   0  0  1  0  0  0
  -20.5890  -28.3724   23.1290 C   0  0  2  0  0  0
  -20.6828  -26.9465   22.5396 C   0  0  0  0  0  0
  -19.5882  -26.6470   21.5131 C   0  0  0  0  0  0
  -18.2047  -26.7934   22.1485 C   0  0  0  0  0  0
  -19.1545  -28.8853   23.2853 C   0  0  0  0  0  0
  -18.9411  -30.1461   23.8840 C   0  0  0  0  0  0
  -17.6390  -30.6525   24.0493 C   0  0  0  0  0  0
  -25.9044  -34.9455   23.5098 C   0  0  0  0  0  0
  -16.5326  -29.8970   23.6261 C   0  0  0  0  0  0
  -16.7309  -28.6421   23.0243 C   0  0  0  0  0  0
  -26.4480  -31.6590   25.0698 C   0  0  0  0  0  0
  -25.3721  -31.3700   26.1427 C   0  0  0  0  0  0
  -27.0321  -30.3030   24.6099 C   0  0  0  0  0  0
  -27.6035  -32.4319   25.7478 C   0  0  0  0  0  0
  -27.5574  -37.1811   24.8462 C   0  0  0  0  0  0
  -21.4172  -29.3097   22.3708 N   0  0  0  0  0  0
  -26.4295  -37.3782   23.9394 N   0  0  0  0  0  0
  -24.6827  -31.0645   22.0929 N   0  0  0  0  0  0
  -23.4195  -28.8175   23.3016 O   0  0  0  0  0  0
  -28.3657  -26.5452   20.0762 O   0  0  0  0  0  0
  -26.5630  -34.8926   22.4673 O   0  0  0  0  0  0
  -23.5405  -32.1366   23.7359 O   0  0  0  0  0  0
  -27.7911  -18.4318   22.2254 C   0  0  0  0  0  0
  -28.0845  -16.5261   23.6903 C   0  0  0  0  0  0
  -28.7444  -17.9239   21.3101 C   0  0  0  0  0  0
  -29.2629  -16.5749   21.5274 C   0  0  0  0  0  0
  -27.4358  -17.7259   23.3831 C   0  0  0  0  0  0
  -29.0097  -15.9740   22.7905 C   0  0  0  0  0  0
  -29.2499  -18.9409   20.2908 C   0  0  0  0  0  0
  -28.6785  -22.6093   19.9939 C   0  0  0  0  0  0
  -28.3201  -20.0753   19.7051 C   0  0  0  0  0  0
  -27.8072  -23.9262   20.0707 C   0  0  0  0  0  0
  -28.3766  -25.2406   20.7594 C   0  0  0  0  0  0
  -30.0174  -15.8325   20.5281 N   0  0  0  0  0  0
  -28.1618  -21.4093   20.3936 N   0  0  0  0  0  0
  -30.4012  -18.8639   19.8530 O   0  0  0  0  0  0
  -29.7821  -22.6604   19.4499 O   0  0  0  0  0  0
  -26.5183  -18.2451   24.2364 F   0  0  0  0  0  0
  -29.6796  -14.8639   23.1798 F   0  0  0  0  0  0
  -31.4594  -12.5162   19.1390 H   0  0  0  0  0  0
  -30.3601  -11.4133   19.9094 H   0  0  0  0  0  0
  -29.7645  -11.7114   17.4950 H   0  0  0  0  0  0
  -29.6530  -13.4391   17.7032 H   0  0  0  0  0  0
  -27.8348  -11.2934   18.8359 H   0  0  0  0  0  0
  -27.3729  -12.5896   17.7660 H   0  0  0  0  0  0
  -27.6542  -14.2558   19.4998 H   0  0  0  0  0  0
  -28.7011  -12.0699   21.3552 H   0  0  0  0  0  0
  -28.3622  -13.7130   21.7886 H   0  0  0  0  0  0
  -25.2751   -9.5719   22.4737 H   0  0  0  0  0  0
  -24.0008   -7.4675   22.7503 H   0  0  0  0  0  0
  -21.0829   -8.8743   19.8976 H   0  0  0  0  0  0
  -22.3656  -10.9660   19.6169 H   0  0  0  0  0  0
  -21.2019   -7.6149   23.9695 H   0  0  0  0  0  0
  -21.1483   -6.0530   25.9064 H   0  0  0  0  0  0
  -22.0601   -2.7608   23.2834 H   0  0  0  0  0  0
  -22.4113  -11.9939   22.4825 H   0  0  0  0  0  0
  -21.1088  -13.1275   22.2522 H   0  0  0  0  0  0
  -24.6457  -15.8349   20.5203 H   0  0  0  0  0  0
  -26.2654  -15.6402   20.0835 H   0  0  0  0  0  0
  -26.7152  -32.5455   23.1099 H   0  0  0  0  0  0
  -25.0030  -33.9725   25.0401 H   0  0  0  0  0  0
  -22.7104  -31.3007   21.3949 H   0  0  0  0  0  0
  -23.3730  -35.9654   23.3314 H   0  0  0  0  0  0
  -24.3574  -36.8928   22.2055 H   0  0  0  0  0  0
  -23.7250  -37.6516   23.6665 H   0  0  0  0  0  0
  -26.0690  -31.5587   20.5877 H   0  0  0  0  0  0
  -26.8394  -30.8594   21.9828 H   0  0  0  0  0  0
  -28.1185  -29.0212   21.1608 H   0  0  0  0  0  0
  -26.0268  -25.9229   19.0123 H   0  0  0  0  0  0
  -23.9790  -27.2849   19.0167 H   0  0  0  0  0  0
  -23.7421  -30.5757   19.3949 H   0  0  0  0  0  0
  -22.7508  -29.2307   19.8658 H   0  0  0  0  0  0
  -25.1293  -36.1951   25.0817 H   0  0  0  0  0  0
  -20.9945  -28.3262   24.1414 H   0  0  0  0  0  0
  -21.6726  -26.7536   22.1243 H   0  0  0  0  0  0
  -20.5713  -26.2343   23.3578 H   0  0  0  0  0  0
  -19.7148  -25.6443   21.1005 H   0  0  0  0  0  0
  -19.6853  -27.3388   20.6766 H   0  0  0  0  0  0
  -17.4388  -26.6718   21.3809 H   0  0  0  0  0  0
  -18.0405  -25.9995   22.8788 H   0  0  0  0  0  0
  -19.7847  -30.7349   24.2145 H   0  0  0  0  0  0
  -17.4884  -31.6227   24.5049 H   0  0  0  0  0  0
  -15.5324  -30.2827   23.7589 H   0  0  0  0  0  0
  -15.8762  -28.0717   22.6831 H   0  0  0  0  0  0
  -24.5902  -30.7043   25.7754 H   0  0  0  0  0  0
  -24.8904  -32.2855   26.4865 H   0  0  0  0  0  0
  -25.8068  -30.8877   27.0192 H   0  0  0  0  0  0
  -26.2881  -29.6786   24.1143 H   0  0  0  0  0  0
  -27.4072  -29.7274   25.4568 H   0  0  0  0  0  0
  -27.8712  -30.4336   23.9268 H   0  0  0  0  0  0
  -27.2636  -33.3613   26.2061 H   0  0  0  0  0  0
  -28.3858  -32.6894   25.0323 H   0  0  0  0  0  0
  -28.0684  -31.8437   26.5400 H   0  0  0  0  0  0
  -28.2598  -38.0099   24.7497 H   0  0  0  0  0  0
  -28.1062  -36.2632   24.6308 H   0  0  0  0  0  0
  -27.2288  -37.1485   25.8865 H   0  0  0  0  0  0
  -20.9350  -29.8840   21.6944 H   0  0  0  0  0  0
  -26.0172  -38.2856   24.1407 H   0  0  0  0  0  0
  -27.3454  -19.4055   22.0893 H   0  0  0  0  0  0
  -27.8768  -16.0250   24.6237 H   0  0  0  0  0  0
  -27.3243  -19.6455   19.5902 H   0  0  0  0  0  0
  -28.6535  -20.2565   18.6823 H   0  0  0  0  0  0
  -26.8412  -23.6863   20.5155 H   0  0  0  0  0  0
  -27.5818  -24.1718   19.0325 H   0  0  0  0  0  0
  -29.4208  -25.0568   21.0103 H   0  0  0  0  0  0
  -27.8837  -25.3704   21.7247 H   0  0  0  0  0  0
  -30.5232  -16.4687   19.9303 H   0  0  0  0  0  0
  -27.3133  -21.4822   20.9371 H   0  0  0  0  0  0
  1 25  1  0  0  0
  1 30  2  0  0  0
  1 82  1  0  0  0
  2  3  1  0  0  0
  2 25  1  0  0  0
  2 88  1  0  0  0
  2 89  1  0  0  0
  3  4  1  0  0  0
  3 90  1  0  0  0
  3 91  1  0  0  0
  4  5  1  0  0  0
  4 92  1  0  0  0
  4 93  1  0  0  0
  5  6  1  0  0  0
  5 26  1  0  0  0
  5 94  1  0  0  0
  6 25  1  0  0  0
  6 95  1  0  0  0
  6 96  1  0  0  0
  7  8  2  0  0  0
  7 26  1  0  0  0
  7 29  1  0  0  0
  8  9  1  0  0  0
  8 22  1  0  0  0
  9 10  1  0  0  0
  9 27  2  0  0  0
 10 11  2  0  0  0
 10 15  1  0  0  0
 11 12  1  0  0  0
 11 97  1  0  0  0
 12 13  2  0  0  0
 12 98  1  0  0  0
 13 14  1  0  0  0
 13 31  1  0  0  0
 14 15  2  0  0  0
 14 99  1  0  0  0
 15100  1  0  0  0
 16 17  2  0  0  0
 16 21  1  0  0  0
 16 31  1  0  0  0
 17 18  1  0  0  0
 17101  1  0  0  0
 18 19  2  0  0  0
 18102  1  0  0  0
 19 20  1  0  0  0
 19 24  1  0  0  0
 20 21  2  0  0  0
 20103  1  0  0  0
 21 23  1  0  0  0
 22 28  1  0  0  0
 22 32  2  0  0  0
 26 27  1  0  0  0
 28104  1  0  0  0
 28105  1  0  0  0
 29106  1  0  0  0
 29107  1  0  0  0
 33 34  1  0  0  0
 33 66  1  0  0  0
 33 70  2  0  0  0
 34 36  1  0  0  0
 34 59  1  0  0  0
 34108  1  0  0  0
 35 44  2  0  0  0
 35 45  1  0  0  0
 35 68  1  0  0  0
 36 56  1  0  0  0
 36109  1  0  0  0
 37 39  1  0  0  0
 37 47  1  0  0  0
 37 66  1  0  0  0
 37110  1  0  0  0
 38 43  2  0  0  0
 38 46  1  0  0  0
 38 47  1  0  0  0
 39 64  1  0  0  0
 39 67  2  0  0  0
 40 52  1  0  0  0
 40 53  2  0  0  0
 40 58  1  0  0  0
 41111  1  0  0  0
 41112  1  0  0  0
 41113  1  0  0  0
 41 48  1  0  0  0
 42 43  1  0  0  0
 42 66  1  0  0  0
 42114  1  0  0  0
 42115  1  0  0  0
 43 44  1  0  0  0
 44116  1  0  0  0
 45 46  2  0  0  0
 45117  1  0  0  0
 46118  1  0  0  0
 47119  1  0  0  0
 47120  1  0  0  0
 48 56  1  0  0  0
 48 65  1  0  0  0
 48121  1  0  0  0
 49 50  1  0  0  0
 49 53  1  0  0  0
 49 64  1  0  0  0
 49122  1  0  0  0
 50 51  1  0  0  0
 50123  1  0  0  0
 50124  1  0  0  0
 51 52  1  0  0  0
 51125  1  0  0  0
 51126  1  0  0  0
 52127  1  0  0  0
 52128  1  0  0  0
 53 54  1  0  0  0
 54 55  2  0  0  0
 54129  1  0  0  0
 55 57  1  0  0  0
 55130  1  0  0  0
 56 69  2  0  0  0
 57 58  2  0  0  0
 57131  1  0  0  0
 58132  1  0  0  0
 59 60  1  0  0  0
 59 61  1  0  0  0
 59 62  1  0  0  0
 60133  1  0  0  0
 60134  1  0  0  0
 60135  1  0  0  0
 61136  1  0  0  0
 61137  1  0  0  0
 61138  1  0  0  0
 62139  1  0  0  0
 62140  1  0  0  0
 62141  1  0  0  0
 63 65  1  0  0  0
 63142  1  0  0  0
 63143  1  0  0  0
 63144  1  0  0  0
 64145  1  0  0  0
 65146  1  0  0  0
 68 81  1  0  0  0
 71 73  2  0  0  0
 71 75  1  0  0  0
 71147  1  0  0  0
 72 75  2  0  0  0
 72 76  1  0  0  0
 72148  1  0  0  0
 73 74  1  0  0  0
 73 77  1  0  0  0
 74 76  2  0  0  0
 74 82  1  0  0  0
 75 86  1  0  0  0
 76 87  1  0  0  0
 77 79  1  0  0  0
 77 84  2  0  0  0
 78 80  1  0  0  0
 78 83  1  0  0  0
 78 85  2  0  0  0
 79 83  1  0  0  0
 79149  1  0  0  0
 79150  1  0  0  0
 80 81  1  0  0  0
 80151  1  0  0  0
 80152  1  0  0  0
 81153  1  0  0  0
 81154  1  0  0  0
 82155  1  0  0  0
 83156  1  0  0  0
M  ISO  4   1 100  68 101  81 101  82 100
M  END
> <chiral flag>
0

> <version>
0

> <s_m_source_file>
/data/baiqing/PycharmProjects/Reinvent-master-3.2/result/LINK_invent/BTK/process_docking_weight1_custom_product_contain_oxygen_bond_distance_aromatic_linkinvent_7_9_3/rearranged_h_0048.sdf

> <i_m_source_file_index>
56

> <r_mmod_Potential_Energy-OPLS-2005>
43.3066101074219

> <r_mmod_Stretch_Energy-OPLS-2005>
80.4393615722656

> <r_mmod_Bend_Energy-OPLS-2005>
186.511383056641

> <r_mmod_Torsional_Energy-OPLS-2005>
337.500335693359

> <r_mmod_Improper_Torsional_Energy-OPLS-2005>
20.203182220459

> <r_mmod_Van_der_Waal_Energy-OPLS-2005>
136.150466918945

> <r_mmod_Electrostatic_Energy-OPLS-2005>
-503.510559082031

> <r_mmod_Solvation_Energy-OPLS-2005>
-256.723327636719

> <b_mmod_Minimization_Converged-OPLS-2005>
0

> <r_mmod_RMS_Derivative-OPLS-2005>
2.97466421127319

$$$$
56
                    3D
 Structure written by MMmdl.
166175  0  0  1  0            999 V2000
  -30.6090  -14.7729   20.4553 C   0  0  0  0  0  0
  -30.4394  -12.4449   19.4808 C   0  0  0  0  0  0
  -29.5234  -12.5202   18.2362 C   0  0  0  0  0  0
  -28.0419  -12.3516   18.6334 C   0  0  0  0  0  0
  -27.6403  -13.2400   19.8426 C   0  0  2  0  0  0
  -28.6739  -13.1724   20.9841 C   0  0  0  0  0  0
  -25.2516  -13.8201   20.5684 C   0  0  0  0  0  0
  -24.1810  -13.0427   20.9203 C   0  0  0  0  0  0
  -24.6404  -11.6912   20.8713 C   0  0  0  0  0  0
  -23.9079  -10.4283   21.0389 C   0  0  0  0  0  0
  -24.3617   -9.4202   21.9188 C   0  0  0  0  0  0
  -23.6273   -8.2242   22.0759 C   0  0  0  0  0  0
  -22.4255   -8.0296   21.3543 C   0  0  0  0  0  0
  -21.9904   -9.0285   20.4642 C   0  0  0  0  0  0
  -22.7246  -10.2155   20.3045 C   0  0  0  0  0  0
  -21.6856   -6.0733   22.5283 C   0  0  0  0  0  0
  -21.4015   -6.5627   23.8225 C   0  0  0  0  0  0
  -21.3678   -5.6768   24.9180 C   0  0  0  0  0  0
  -21.6069   -4.3039   24.7216 C   0  0  0  0  0  0
  -21.8815   -3.8140   23.4327 C   0  0  0  0  0  0
  -21.9166   -4.6955   22.3382 C   0  0  0  0  0  0
  -22.7842  -13.5243   21.1840 C   0  0  0  0  0  0
  -22.1642   -4.2148   21.0954 F   0  0  0  0  0  0
  -21.5635   -3.4524   25.7727 F   0  0  0  0  0  0
  -29.9876  -13.4908   20.4206 N   0  0  0  0  0  0
  -26.2934  -12.9413   20.3227 N   0  0  0  0  0  0
  -25.9336  -11.6543   20.5689 N   0  0  0  0  0  0
  -22.0430  -12.8298   22.0403 N   0  0  0  0  0  0
  -25.4165  -15.1910   20.4075 N   0  0  0  0  0  0
  -31.7980  -14.9328   20.1678 O   0  0  0  0  0  0
  -21.6610   -6.8896   21.4259 O   0  0  0  0  0  0
  -22.3565  -14.5555   20.6685 O   0  0  0  0  0  0
  -24.6352  -31.8557   23.1937 C   0  0  0  0  0  0
  -25.9211  -32.4740   23.8276 C   0  0  1  0  0  0
  -27.2202  -27.2598   20.1224 C   0  0  0  0  0  0
  -25.6040  -33.8540   24.2246 N   0  0  0  0  0  0
  -23.4283  -30.4776   21.5397 C   0  0  2  0  0  0
  -24.8714  -28.9114   20.1123 C   0  0  0  0  0  0
  -22.7517  -29.4659   22.4935 C   0  0  0  0  0  0
  -18.0340  -28.1374   22.8479 C   0  0  0  0  0  0
  -24.1497  -36.7247   23.2628 C   0  0  0  0  0  0
  -25.9716  -30.7665   21.3690 C   0  0  0  0  0  0
  -26.0422  -29.3864   20.7142 C   0  0  0  0  0  0
  -27.2203  -28.5732   20.7024 C   0  0  0  0  0  0
  -26.0266  -26.8468   19.4945 C   0  0  0  0  0  0
  -24.8682  -27.6506   19.4927 C   0  0  0  0  0  0
  -23.6421  -29.8020   20.1604 C   0  0  0  0  0  0
  -25.4130  -36.3044   24.0325 C   0  0  1  0  0  0
  -20.5945  -28.3742   23.1317 C   0  0  2  0  0  0
  -20.6850  -26.9432   22.5474 C   0  0  0  0  0  0
  -19.5846  -26.6394   21.5278 C   0  0  0  0  0  0
  -18.1976  -26.7928   22.1620 C   0  0  0  0  0  0
  -19.1577  -28.8860   23.2900 C   0  0  0  0  0  0
  -18.9485  -30.1454   23.8919 C   0  0  0  0  0  0
  -17.6481  -30.6577   24.0585 C   0  0  0  0  0  0
  -25.9095  -34.9422   23.5071 C   0  0  0  0  0  0
  -16.5384  -29.9087   23.6299 C   0  0  0  0  0  0
  -16.7321  -28.6501   23.0291 C   0  0  0  0  0  0
  -26.4540  -31.6563   25.0679 C   0  0  0  0  0  0
  -25.3724  -31.3759   26.1391 C   0  0  0  0  0  0
  -27.0369  -30.2962   24.6145 C   0  0  0  0  0  0
  -27.6085  -32.4291   25.7473 C   0  0  0  0  0  0
  -27.5583  -37.1799   24.8472 C   0  0  0  0  0  0
  -21.4213  -29.3111   22.3705 N   0  0  0  0  0  0
  -26.4287  -37.3763   23.9426 N   0  0  0  0  0  0
  -24.6974  -31.0511   22.0906 N   0  0  0  0  0  0
  -23.4231  -28.8226   23.3049 O   0  0  0  0  0  0
  -28.3323  -26.3896   20.1414 O   0  0  0  0  0  0
  -26.5611  -34.8902   22.4602 O   0  0  0  0  0  0
  -23.5524  -32.1411   23.7251 O   0  0  0  0  0  0
  -30.7546  -18.8611   22.6287 C   0  0  0  0  0  0
  -30.5912  -17.5401   22.1650 C   0  0  0  0  0  0
  -30.3052  -19.9826   21.8986 C   0  0  0  0  0  0
  -29.6630  -19.8197   20.6401 C   0  0  0  0  0  0
  -29.4999  -18.4297   20.1805 C   0  0  0  0  0  0
  -29.9599  -17.2590   20.9386 C   0  0  0  0  0  0
  -27.2377  -22.1122   21.1718 C   0  0  0  0  0  0
  -27.0069  -21.0242   21.9305 C   0  0  0  0  0  0
  -26.3565  -23.3592   21.2387 C   0  0  0  0  0  0
  -27.1464  -24.6253   21.5997 C   0  0  0  0  0  0
  -28.5199  -23.6871   19.5749 C   0  0  0  0  0  0
  -28.2653  -24.9357   20.5779 C   0  0  1  0  0  0
  -30.5445  -21.3654   22.4998 C   0  0  0  0  0  0
  -28.8383  -18.1776   18.8374 C   0  0  0  0  0  0
  -29.3558  -21.1613   19.7970 C   0  0  0  0  0  0
  -28.2575  -22.2323   20.0577 N   0  3  1  0  0  0
  -29.6713  -15.8849   20.6523 O   0  0  0  0  0  0
  -31.4857  -12.5747   19.2009 H   0  0  0  0  0  0
  -30.3676  -11.4643   19.9521 H   0  0  0  0  0  0
  -29.8048  -11.7642   17.5021 H   0  0  0  0  0  0
  -29.6645  -13.4845   17.7454 H   0  0  0  0  0  0
  -27.8814  -11.3012   18.8761 H   0  0  0  0  0  0
  -27.3971  -12.5728   17.7815 H   0  0  0  0  0  0
  -27.6350  -14.2660   19.4734 H   0  0  0  0  0  0
  -28.6854  -12.1815   21.4401 H   0  0  0  0  0  0
  -28.4155  -13.8719   21.7810 H   0  0  0  0  0  0
  -25.2756   -9.5702   22.4787 H   0  0  0  0  0  0
  -23.9965   -7.4654   22.7510 H   0  0  0  0  0  0
  -21.0830   -8.8869   19.8944 H   0  0  0  0  0  0
  -22.3737  -10.9731   19.6167 H   0  0  0  0  0  0
  -21.2025   -7.6141   23.9764 H   0  0  0  0  0  0
  -21.1506   -6.0463   25.9098 H   0  0  0  0  0  0
  -22.0553   -2.7605   23.2813 H   0  0  0  0  0  0
  -22.3950  -11.9934   22.4818 H   0  0  0  0  0  0
  -21.1084  -13.1478   22.2556 H   0  0  0  0  0  0
  -24.6435  -15.8380   20.5129 H   0  0  0  0  0  0
  -26.2636  -15.6331   20.0741 H   0  0  0  0  0  0
  -26.7316  -32.5373   23.1053 H   0  0  0  0  0  0
  -25.0317  -33.9660   25.0486 H   0  0  0  0  0  0
  -22.7283  -31.3021   21.3931 H   0  0  0  0  0  0
  -23.3762  -35.9571   23.3263 H   0  0  0  0  0  0
  -24.3598  -36.8874   22.2048 H   0  0  0  0  0  0
  -23.7236  -37.6438   23.6651 H   0  0  0  0  0  0
  -26.1045  -31.5224   20.5941 H   0  0  0  0  0  0
  -26.8521  -30.8204   21.9966 H   0  0  0  0  0  0
  -28.1217  -28.9312   21.1771 H   0  0  0  0  0  0
  -25.9803  -25.8759   19.0247 H   0  0  0  0  0  0
  -23.9677  -27.2796   19.0249 H   0  0  0  0  0  0
  -23.7727  -30.5739   19.4029 H   0  0  0  0  0  0
  -22.7546  -29.2439   19.8582 H   0  0  0  0  0  0
  -25.1301  -36.1869   25.0818 H   0  0  0  0  0  0
  -21.0031  -28.3309   24.1443 H   0  0  0  0  0  0
  -20.5779  -26.2366   23.3728 H   0  0  0  0  0  0
  -21.6721  -26.7409   22.1276 H   0  0  0  0  0  0
  -19.7011  -25.6288   21.1337 H   0  0  0  0  0  0
  -19.6829  -27.3223   20.6813 H   0  0  0  0  0  0
  -17.4312  -26.6768   21.3931 H   0  0  0  0  0  0
  -18.0217  -26.0044   22.8948 H   0  0  0  0  0  0
  -19.7963  -30.7279   24.2269 H   0  0  0  0  0  0
  -17.5019  -31.6220   24.5267 H   0  0  0  0  0  0
  -15.5383  -30.3005   23.7573 H   0  0  0  0  0  0
  -15.8705  -28.0865   22.6956 H   0  0  0  0  0  0
  -24.5919  -30.7072   25.7746 H   0  0  0  0  0  0
  -24.8885  -32.2944   26.4714 H   0  0  0  0  0  0
  -25.8019  -30.9030   27.0232 H   0  0  0  0  0  0
  -26.2953  -29.6732   24.1115 H   0  0  0  0  0  0
  -27.4013  -29.7207   25.4676 H   0  0  0  0  0  0
  -27.8853  -30.4238   23.9398 H   0  0  0  0  0  0
  -27.2703  -33.3630   26.1977 H   0  0  0  0  0  0
  -28.3934  -32.6795   25.0318 H   0  0  0  0  0  0
  -28.0690  -31.8442   26.5446 H   0  0  0  0  0  0
  -28.2590  -38.0104   24.7509 H   0  0  0  0  0  0
  -28.1081  -36.2633   24.6290 H   0  0  0  0  0  0
  -27.2300  -37.1431   25.8873 H   0  0  0  0  0  0
  -20.9358  -29.8862   21.6965 H   0  0  0  0  0  0
  -26.0137  -38.2821   24.1434 H   0  0  0  0  0  0
  -31.2419  -19.0078   23.5831 H   0  0  0  0  0  0
  -30.9240  -16.7271   22.7956 H   0  0  0  0  0  0
  -26.2053  -21.0467   22.6555 H   0  0  0  0  0  0
  -27.5509  -20.0993   21.8642 H   0  0  0  0  0  0
  -25.5644  -23.2044   21.9710 H   0  0  0  0  0  0
  -25.8450  -23.4953   20.2833 H   0  0  0  0  0  0
  -27.5846  -24.4998   22.5900 H   0  0  0  0  0  0
  -26.4526  -25.4534   21.7240 H   0  0  0  0  0  0
  -29.5159  -23.7583   19.1365 H   0  0  0  0  0  0
  -27.8420  -23.8271   18.7341 H   0  0  0  0  0  0
  -29.1686  -24.8985   21.1865 H   0  0  0  0  0  0
  -31.0362  -21.3004   23.4713 H   0  0  0  0  0  0
  -29.6082  -21.8983   22.6623 H   0  0  0  0  0  0
  -31.1778  -21.9785   21.8576 H   0  0  0  0  0  0
  -29.5287  -18.4177   18.0273 H   0  0  0  0  0  0
  -27.9367  -18.7793   18.7211 H   0  0  0  0  0  0
  -28.5552  -17.1317   18.7178 H   0  0  0  0  0  0
  -29.2474  -20.8885   18.7487 H   0  0  0  0  0  0
  -30.2977  -21.7077   19.8053 H   0  0  0  0  0  0
  -27.7036  -21.9428   19.2628 H   0  0  0  0  0  0
  1 25  1  0  0  0
  1 30  2  0  0  0
  1 87  1  0  0  0
  2  3  1  0  0  0
  2 25  1  0  0  0
  2 88  1  0  0  0
  2 89  1  0  0  0
  3  4  1  0  0  0
  3 90  1  0  0  0
  3 91  1  0  0  0
  4  5  1  0  0  0
  4 92  1  0  0  0
  4 93  1  0  0  0
  5  6  1  0  0  0
  5 26  1  0  0  0
  5 94  1  0  0  0
  6 25  1  0  0  0
  6 95  1  0  0  0
  6 96  1  0  0  0
  7  8  2  0  0  0
  7 26  1  0  0  0
  7 29  1  0  0  0
  8  9  1  0  0  0
  8 22  1  0  0  0
  9 10  1  0  0  0
  9 27  2  0  0  0
 10 11  2  0  0  0
 10 15  1  0  0  0
 11 12  1  0  0  0
 11 97  1  0  0  0
 12 13  2  0  0  0
 12 98  1  0  0  0
 13 14  1  0  0  0
 13 31  1  0  0  0
 14 15  2  0  0  0
 14 99  1  0  0  0
 15100  1  0  0  0
 16 17  2  0  0  0
 16 21  1  0  0  0
 16 31  1  0  0  0
 17 18  1  0  0  0
 17101  1  0  0  0
 18 19  2  0  0  0
 18102  1  0  0  0
 19 20  1  0  0  0
 19 24  1  0  0  0
 20 21  2  0  0  0
 20103  1  0  0  0
 21 23  1  0  0  0
 22 28  1  0  0  0
 22 32  2  0  0  0
 26 27  1  0  0  0
 28104  1  0  0  0
 28105  1  0  0  0
 29106  1  0  0  0
 29107  1  0  0  0
 33 34  1  0  0  0
 33 66  1  0  0  0
 33 70  2  0  0  0
 34 36  1  0  0  0
 34 59  1  0  0  0
 34108  1  0  0  0
 35 44  2  0  0  0
 35 45  1  0  0  0
 35 68  1  0  0  0
 36 56  1  0  0  0
 36109  1  0  0  0
 37 39  1  0  0  0
 37 47  1  0  0  0
 37 66  1  0  0  0
 37110  1  0  0  0
 38 43  2  0  0  0
 38 46  1  0  0  0
 38 47  1  0  0  0
 39 64  1  0  0  0
 39 67  2  0  0  0
 40 52  1  0  0  0
 40 53  2  0  0  0
 40 58  1  0  0  0
 41111  1  0  0  0
 41112  1  0  0  0
 41113  1  0  0  0
 41 48  1  0  0  0
 42 43  1  0  0  0
 42 66  1  0  0  0
 42114  1  0  0  0
 42115  1  0  0  0
 43 44  1  0  0  0
 44116  1  0  0  0
 45 46  2  0  0  0
 45117  1  0  0  0
 46118  1  0  0  0
 47119  1  0  0  0
 47120  1  0  0  0
 48 56  1  0  0  0
 48 65  1  0  0  0
 48121  1  0  0  0
 49 50  1  0  0  0
 49 53  1  0  0  0
 49 64  1  0  0  0
 49122  1  0  0  0
 50 51  1  0  0  0
 50123  1  0  0  0
 50124  1  0  0  0
 51 52  1  0  0  0
 51125  1  0  0  0
 51126  1  0  0  0
 52127  1  0  0  0
 52128  1  0  0  0
 53 54  1  0  0  0
 54 55  2  0  0  0
 54129  1  0  0  0
 55 57  1  0  0  0
 55130  1  0  0  0
 56 69  2  0  0  0
 57 58  2  0  0  0
 57131  1  0  0  0
 58132  1  0  0  0
 59 60  1  0  0  0
 59 61  1  0  0  0
 59 62  1  0  0  0
 60133  1  0  0  0
 60134  1  0  0  0
 60135  1  0  0  0
 61136  1  0  0  0
 61137  1  0  0  0
 61138  1  0  0  0
 62139  1  0  0  0
 62140  1  0  0  0
 62141  1  0  0  0
 63 65  1  0  0  0
 63142  1  0  0  0
 63143  1  0  0  0
 63144  1  0  0  0
 64145  1  0  0  0
 65146  1  0  0  0
 68 82  1  0  0  0
 71 72  2  0  0  0
 71 73  1  0  0  0
 71147  1  0  0  0
 72 76  1  0  0  0
 72148  1  0  0  0
 73 74  2  0  0  0
 73 83  1  0  0  0
 74 75  1  0  0  0
 74 85  1  0  0  0
 75 76  2  0  0  0
 75 84  1  0  0  0
 76 87  1  0  0  0
 77 78  2  0  0  0
 77 79  1  0  0  0
 77 86  1  0  0  0
 78149  1  0  0  0
 78150  1  0  0  0
 79 80  1  0  0  0
 79151  1  0  0  0
 79152  1  0  0  0
 80 82  1  0  0  0
 80153  1  0  0  0
 80154  1  0  0  0
 81 82  1  0  0  0
 81 86  1  0  0  0
 81155  1  0  0  0
 81156  1  0  0  0
 82157  1  0  0  0
 83158  1  0  0  0
 83159  1  0  0  0
 83160  1  0  0  0
 84161  1  0  0  0
 84162  1  0  0  0
 84163  1  0  0  0
 85164  1  0  0  0
 85165  1  0  0  0
 85 86  1  0  0  0
 86166  1  0  0  0
M  CHG  1  86   1
M  ISO  4   1 100  68 101  82 101  87 100
M  END
> <chiral flag>
0

> <version>
0

> <s_m_source_file>
/data/baiqing/PycharmProjects/Reinvent-master-3.2/result/LINK_invent/BTK/process_docking_weight1_custom_product_contain_oxygen_bond_distance_aromatic_linkinvent_7_9_3/rearranged_h_0048.sdf

> <i_m_source_file_index>
57

> <r_mmod_Potential_Energy-OPLS-2005>
257.201171875

> <r_mmod_Stretch_Energy-OPLS-2005>
155.612716674805

> <r_mmod_Bend_Energy-OPLS-2005>
247.522994995117

> <r_mmod_Torsional_Energy-OPLS-2005>
241.728302001953

> <r_mmod_Improper_Torsional_Energy-OPLS-2005>
6.03309059143066

> <r_mmod_Van_der_Waal_Energy-OPLS-2005>
139.224822998047

> <r_mmod_Electrostatic_Energy-OPLS-2005>
-207.540588378906

> <r_mmod_Solvation_Energy-OPLS-2005>
-413.553497314453

> <b_mmod_Minimization_Converged-OPLS-2005>
0

> <r_mmod_RMS_Derivative-OPLS-2005>
4.89673662185669

$$$$
57
                    3D
 Structure written by MMmdl.
182191  0  0  1  0            999 V2000
  -30.7201  -14.4178   20.6281 C   0  0  0  0  0  0
  -30.4266  -12.2900   19.4101 C   0  0  0  0  0  0
  -29.4988  -12.5069   18.1943 C   0  0  0  0  0  0
  -28.0153  -12.3683   18.6005 C   0  0  0  0  0  0
  -27.6657  -13.1948   19.8670 C   0  0  2  0  0  0
  -28.7020  -12.9266   20.9770 C   0  0  0  0  0  0
  -25.2630  -13.8151   20.5650 C   0  0  0  0  0  0
  -24.1861  -13.0450   20.9158 C   0  0  0  0  0  0
  -24.6377  -11.6909   20.8695 C   0  0  0  0  0  0
  -23.9029  -10.4310   21.0385 C   0  0  0  0  0  0
  -24.3592   -9.4224   21.9171 C   0  0  0  0  0  0
  -23.6279   -8.2256   22.0743 C   0  0  0  0  0  0
  -22.4248   -8.0291   21.3546 C   0  0  0  0  0  0
  -21.9872   -9.0251   20.4649 C   0  0  0  0  0  0
  -22.7198  -10.2147   20.3054 C   0  0  0  0  0  0
  -21.6862   -6.0729   22.5276 C   0  0  0  0  0  0
  -21.4025   -6.5622   23.8206 C   0  0  0  0  0  0
  -21.3667   -5.6771   24.9167 C   0  0  0  0  0  0
  -21.6038   -4.3035   24.7213 C   0  0  0  0  0  0
  -21.8823   -3.8135   23.4329 C   0  0  0  0  0  0
  -21.9189   -4.6950   22.3392 C   0  0  0  0  0  0
  -22.7896  -13.5281   21.1810 C   0  0  0  0  0  0
  -22.1665   -4.2145   21.0973 F   0  0  0  0  0  0
  -21.5626   -3.4523   25.7734 F   0  0  0  0  0  0
  -30.0345  -13.2555   20.4469 N   0  0  0  0  0  0
  -26.3032  -12.9290   20.3264 N   0  0  0  0  0  0
  -25.9291  -11.6464   20.5663 N   0  0  0  0  0  0
  -22.0522  -12.8321   22.0388 N   0  0  0  0  0  0
  -25.4393  -15.1862   20.4073 N   0  0  0  0  0  0
  -31.8219  -14.6141   20.1078 O   0  0  0  0  0  0
  -21.6625   -6.8886   21.4250 O   0  0  0  0  0  0
  -22.3607  -14.5577   20.6627 O   0  0  0  0  0  0
  -24.6094  -31.8707   23.2121 C   0  0  0  0  0  0
  -25.8996  -32.4847   23.8407 C   0  0  1  0  0  0
  -27.2433  -27.4713   20.0697 C   0  0  0  0  0  0
  -25.5873  -33.8644   24.2344 N   0  0  0  0  0  0
  -23.3974  -30.4914   21.5525 C   0  0  2  0  0  0
  -24.8442  -28.9583   20.1174 C   0  0  0  0  0  0
  -22.7396  -29.4654   22.5018 C   0  0  0  0  0  0
  -18.0259  -28.1371   22.8496 C   0  0  0  0  0  0
  -24.1485  -36.7325   23.2634 C   0  0  0  0  0  0
  -25.9219  -30.8414   21.3622 C   0  0  0  0  0  0
  -25.9980  -29.4745   20.7177 C   0  0  0  0  0  0
  -27.1963  -28.7289   20.7070 C   0  0  0  0  0  0
  -26.0678  -26.9581   19.4766 C   0  0  0  0  0  0
  -24.8697  -27.6959   19.5004 C   0  0  0  0  0  0
  -23.6033  -29.8192   20.1678 C   0  0  0  0  0  0
  -25.4101  -36.3125   24.0340 C   0  0  1  0  0  0
  -20.5849  -28.3643   23.1347 C   0  0  2  0  0  0
  -20.6750  -26.9386   22.5424 C   0  0  0  0  0  0
  -19.5732  -26.6382   21.5209 C   0  0  0  0  0  0
  -18.1911  -26.7925   22.1623 C   0  0  0  0  0  0
  -19.1512  -28.8826   23.2924 C   0  0  0  0  0  0
  -18.9435  -30.1429   23.8925 C   0  0  0  0  0  0
  -17.6441  -30.6582   24.0556 C   0  0  0  0  0  0
  -25.9028  -34.9490   23.5151 C   0  0  0  0  0  0
  -16.5336  -29.9085   23.6314 C   0  0  0  0  0  0
  -16.7255  -28.6499   23.0344 C   0  0  0  0  0  0
  -26.4442  -31.6607   25.0714 C   0  0  0  0  0  0
  -25.3729  -31.3689   26.1475 C   0  0  0  0  0  0
  -27.0251  -30.3062   24.6034 C   0  0  0  0  0  0
  -27.6036  -32.4306   25.7460 C   0  0  0  0  0  0
  -27.5588  -37.1804   24.8455 C   0  0  0  0  0  0
  -21.4132  -29.3023   22.3771 N   0  0  0  0  0  0
  -26.4291  -37.3802   23.9423 N   0  0  0  0  0  0
  -24.6610  -31.0818   22.1019 N   0  0  0  0  0  0
  -23.4190  -28.8189   23.3038 O   0  0  0  0  0  0
  -28.4365  -26.7852   20.0584 O   0  0  0  0  0  0
  -26.5594  -34.8932   22.4707 O   0  0  0  0  0  0
  -23.5297  -32.1437   23.7541 O   0  0  0  0  0  0
  -29.7910  -21.4375   18.2676 C   0  0  0  0  0  0
  -30.8636  -20.5445   18.4410 C   0  0  0  0  0  0
  -28.8418  -20.7022   20.3776 C   0  0  0  0  0  0
  -28.7632  -21.5294   19.2347 C   0  0  0  0  0  0
  -29.8924  -19.7654   20.5368 C   0  0  0  0  0  0
  -30.9199  -19.7022   19.5647 C   0  0  0  0  0  0
  -30.0194  -15.4766   21.3651 C   0  0  0  0  0  0
  -29.4615  -16.5394   20.7175 C   0  0  0  0  0  0
  -29.4825  -16.7079   19.2568 C   0  0  0  0  0  0
  -28.7076  -17.5305   18.5260 C   0  0  0  0  0  0
  -28.8907  -17.6646   17.0928 C   0  0  0  0  0  0
  -28.1982  -18.5287   16.3322 C   0  0  0  0  0  0
  -29.9926  -15.3967   22.8817 C   0  0  0  0  0  0
  -28.6201  -15.8717   23.3663 C   0  0  0  0  0  0
  -28.2956  -17.2971   22.8814 C   0  0  0  0  0  0
  -28.3859  -18.6829   14.8372 C   0  0  0  0  0  0
  -27.6219  -23.8417   17.0193 C   0  0  0  0  0  0
  -29.8715  -18.8268   21.7405 C   0  0  0  0  0  0
  -27.5183  -22.4152   19.0495 C   0  0  0  0  0  0
  -28.8382  -24.5528   19.1055 C   0  0  0  0  0  0
  -28.7930  -26.0811   18.8687 C   0  0  0  0  0  0
  -28.9265  -17.6772   21.5741 N   0  3  1  0  0  0
  -27.7059  -23.7906   18.5041 N   0  3  1  0  0  0
  -32.2296  -18.5809   19.6927 Cl  0  0  0  0  0  0
  -31.4725  -12.3850   19.1154 H   0  0  0  0  0  0
  -30.3281  -11.2731   19.7919 H   0  0  0  0  0  0
  -29.7352  -11.7865   17.4098 H   0  0  0  0  0  0
  -29.6740  -13.4950   17.7659 H   0  0  0  0  0  0
  -27.8197  -11.3122   18.7866 H   0  0  0  0  0  0
  -27.3680  -12.6560   17.7722 H   0  0  0  0  0  0
  -27.7269  -14.2482   19.5919 H   0  0  0  0  0  0
  -28.6803  -11.8720   21.2606 H   0  0  0  0  0  0
  -28.4483  -13.4554   21.8865 H   0  0  0  0  0  0
  -25.2769   -9.5694   22.4699 H   0  0  0  0  0  0
  -24.0002   -7.4642   22.7445 H   0  0  0  0  0  0
  -21.0797   -8.8751   19.8955 H   0  0  0  0  0  0
  -22.3649  -10.9658   19.6125 H   0  0  0  0  0  0
  -21.2038   -7.6132   23.9716 H   0  0  0  0  0  0
  -21.1479   -6.0493   25.9067 H   0  0  0  0  0  0
  -22.0592   -2.7598   23.2808 H   0  0  0  0  0  0
  -22.4139  -12.0013   22.4842 H   0  0  0  0  0  0
  -21.1126  -13.1347   22.2546 H   0  0  0  0  0  0
  -24.6392  -15.8095   20.4442 H   0  0  0  0  0  0
  -26.2251  -15.5815   19.9112 H   0  0  0  0  0  0
  -26.7069  -32.5568   23.1175 H   0  0  0  0  0  0
  -25.0021  -33.9805   25.0491 H   0  0  0  0  0  0
  -22.6828  -31.3047   21.4141 H   0  0  0  0  0  0
  -23.3751  -35.9653   23.3297 H   0  0  0  0  0  0
  -24.3581  -36.8939   22.2049 H   0  0  0  0  0  0
  -23.7230  -37.6528   23.6646 H   0  0  0  0  0  0
  -26.0224  -31.6011   20.5850 H   0  0  0  0  0  0
  -26.8159  -30.9055   21.9709 H   0  0  0  0  0  0
  -28.0927  -29.1269   21.1618 H   0  0  0  0  0  0
  -26.0577  -25.9940   18.9951 H   0  0  0  0  0  0
  -23.9788  -27.2912   19.0395 H   0  0  0  0  0  0
  -23.7064  -30.5892   19.4036 H   0  0  0  0  0  0
  -22.7313  -29.2303   19.8788 H   0  0  0  0  0  0
  -25.1268  -36.1993   25.0830 H   0  0  0  0  0  0
  -20.9928  -28.3193   24.1472 H   0  0  0  0  0  0
  -20.5643  -26.2248   23.3601 H   0  0  0  0  0  0
  -21.6627  -26.7434   22.1225 H   0  0  0  0  0  0
  -19.6891  -25.6299   21.1225 H   0  0  0  0  0  0
  -19.6676  -27.3211   20.6753 H   0  0  0  0  0  0
  -17.4183  -26.6669   21.4022 H   0  0  0  0  0  0
  -18.0313  -26.0057   22.9015 H   0  0  0  0  0  0
  -19.7910  -30.7227   24.2327 H   0  0  0  0  0  0
  -17.4998  -31.6258   24.5157 H   0  0  0  0  0  0
  -15.5341  -30.2995   23.7612 H   0  0  0  0  0  0
  -15.8654  -28.0818   22.7059 H   0  0  0  0  0  0
  -24.5905  -30.7028   25.7824 H   0  0  0  0  0  0
  -24.8903  -32.2834   26.4936 H   0  0  0  0  0  0
  -25.8090  -30.8858   27.0227 H   0  0  0  0  0  0
  -26.2766  -29.6852   24.1102 H   0  0  0  0  0  0
  -27.4070  -29.7252   25.4438 H   0  0  0  0  0  0
  -27.8581  -30.4407   23.9130 H   0  0  0  0  0  0
  -27.2676  -33.3598   26.2068 H   0  0  0  0  0  0
  -28.3815  -32.6877   25.0261 H   0  0  0  0  0  0
  -28.0740  -31.8415   26.5341 H   0  0  0  0  0  0
  -28.2586  -38.0122   24.7548 H   0  0  0  0  0  0
  -28.1106  -36.2662   24.6220 H   0  0  0  0  0  0
  -27.2324  -37.1385   25.8859 H   0  0  0  0  0  0
  -20.9281  -29.8770   21.7017 H   0  0  0  0  0  0
  -26.0190  -38.2881   24.1440 H   0  0  0  0  0  0
  -29.7884  -22.0354   17.3724 H   0  0  0  0  0  0
  -31.6371  -20.4884   17.6884 H   0  0  0  0  0  0
  -28.0581  -20.7593   21.1208 H   0  0  0  0  0  0
  -30.2227  -16.1519   18.6970 H   0  0  0  0  0  0
  -27.9372  -18.1246   18.9975 H   0  0  0  0  0  0
  -29.6306  -17.0411   16.6067 H   0  0  0  0  0  0
  -27.4544  -19.1690   16.7851 H   0  0  0  0  0  0
  -30.7954  -16.0127   23.2914 H   0  0  0  0  0  0
  -30.1742  -14.3769   23.2241 H   0  0  0  0  0  0
  -28.5660  -15.8177   24.4541 H   0  0  0  0  0  0
  -27.8432  -15.1990   23.0027 H   0  0  0  0  0  0
  -28.5759  -17.9877   23.6785 H   0  0  0  0  0  0
  -27.2120  -17.4007   22.7828 H   0  0  0  0  0  0
  -29.1754  -18.0280   14.4675 H   0  0  0  0  0  0
  -28.6527  -19.7101   14.5875 H   0  0  0  0  0  0
  -27.4609  -18.4348   14.3146 H   0  0  0  0  0  0
  -26.7130  -23.3521   16.6705 H   0  0  0  0  0  0
  -28.4598  -23.3557   16.5299 H   0  0  0  0  0  0
  -27.5832  -24.8588   16.6328 H   0  0  0  0  0  0
  -29.5796  -19.4623   22.5776 H   0  0  0  0  0  0
  -30.8674  -18.4692   22.0024 H   0  0  0  0  0  0
  -27.0400  -22.5405   20.0214 H   0  0  0  0  0  0
  -26.7878  -21.8658   18.4530 H   0  0  0  0  0  0
  -28.8739  -24.3707   20.1806 H   0  0  0  0  0  0
  -29.7768  -24.1682   18.7073 H   0  0  0  0  0  0
  -28.1947  -26.3839   18.0112 H   0  0  0  0  0  0
  -29.8010  -26.4114   18.6187 H   0  0  0  0  0  0
  -28.1532  -18.0858   21.0756 H   0  0  0  0  0  0
  -26.8678  -24.2574   18.8172 H   0  0  0  0  0  0
  1 25  1  0  0  0
  1 30  2  0  0  0
  1 77  1  0  0  0
  2  3  1  0  0  0
  2 25  1  0  0  0
  2 95  1  0  0  0
  2 96  1  0  0  0
  3  4  1  0  0  0
  3 97  1  0  0  0
  3 98  1  0  0  0
  4  5  1  0  0  0
  4 99  1  0  0  0
  4100  1  0  0  0
  5  6  1  0  0  0
  5 26  1  0  0  0
  5101  1  0  0  0
  6 25  1  0  0  0
  6102  1  0  0  0
  6103  1  0  0  0
  7  8  2  0  0  0
  7 26  1  0  0  0
  7 29  1  0  0  0
  8  9  1  0  0  0
  8 22  1  0  0  0
  9 10  1  0  0  0
  9 27  2  0  0  0
 10 11  2  0  0  0
 10 15  1  0  0  0
 11 12  1  0  0  0
 11104  1  0  0  0
 12 13  2  0  0  0
 12105  1  0  0  0
 13 14  1  0  0  0
 13 31  1  0  0  0
 14 15  2  0  0  0
 14106  1  0  0  0
 15107  1  0  0  0
 16 17  2  0  0  0
 16 21  1  0  0  0
 16 31  1  0  0  0
 17 18  1  0  0  0
 17108  1  0  0  0
 18 19  2  0  0  0
 18109  1  0  0  0
 19 20  1  0  0  0
 19 24  1  0  0  0
 20 21  2  0  0  0
 20110  1  0  0  0
 21 23  1  0  0  0
 22 28  1  0  0  0
 22 32  2  0  0  0
 26 27  1  0  0  0
 28111  1  0  0  0
 28112  1  0  0  0
 29113  1  0  0  0
 29114  1  0  0  0
 33 34  1  0  0  0
 33 66  1  0  0  0
 33 70  2  0  0  0
 34 36  1  0  0  0
 34 59  1  0  0  0
 34115  1  0  0  0
 35 44  2  0  0  0
 35 45  1  0  0  0
 35 68  1  0  0  0
 36 56  1  0  0  0
 36116  1  0  0  0
 37 39  1  0  0  0
 37 47  1  0  0  0
 37 66  1  0  0  0
 37117  1  0  0  0
 38 43  2  0  0  0
 38 46  1  0  0  0
 38 47  1  0  0  0
 39 64  1  0  0  0
 39 67  2  0  0  0
 40 52  1  0  0  0
 40 53  2  0  0  0
 40 58  1  0  0  0
 41118  1  0  0  0
 41119  1  0  0  0
 41120  1  0  0  0
 41 48  1  0  0  0
 42 43  1  0  0  0
 42 66  1  0  0  0
 42121  1  0  0  0
 42122  1  0  0  0
 43 44  1  0  0  0
 44123  1  0  0  0
 45 46  2  0  0  0
 45124  1  0  0  0
 46125  1  0  0  0
 47126  1  0  0  0
 47127  1  0  0  0
 48 56  1  0  0  0
 48 65  1  0  0  0
 48128  1  0  0  0
 49 50  1  0  0  0
 49 53  1  0  0  0
 49 64  1  0  0  0
 49129  1  0  0  0
 50 51  1  0  0  0
 50130  1  0  0  0
 50131  1  0  0  0
 51 52  1  0  0  0
 51132  1  0  0  0
 51133  1  0  0  0
 52134  1  0  0  0
 52135  1  0  0  0
 53 54  1  0  0  0
 54 55  2  0  0  0
 54136  1  0  0  0
 55 57  1  0  0  0
 55137  1  0  0  0
 56 69  2  0  0  0
 57 58  2  0  0  0
 57138  1  0  0  0
 58139  1  0  0  0
 59 60  1  0  0  0
 59 61  1  0  0  0
 59 62  1  0  0  0
 60140  1  0  0  0
 60141  1  0  0  0
 60142  1  0  0  0
 61143  1  0  0  0
 61144  1  0  0  0
 61145  1  0  0  0
 62146  1  0  0  0
 62147  1  0  0  0
 62148  1  0  0  0
 63 65  1  0  0  0
 63149  1  0  0  0
 63150  1  0  0  0
 63151  1  0  0  0
 64152  1  0  0  0
 65153  1  0  0  0
 68 91  1  0  0  0
 71 72  2  0  0  0
 71 74  1  0  0  0
 71154  1  0  0  0
 72 76  1  0  0  0
 72155  1  0  0  0
 73 74  2  0  0  0
 73 75  1  0  0  0
 73156  1  0  0  0
 74 89  1  0  0  0
 75 76  2  0  0  0
 75 88  1  0  0  0
 76 94  1  0  0  0
 77 78  2  0  0  0
 77 83  1  0  0  0
 78 79  1  0  0  0
 78 92  1  0  0  0
 79 80  2  0  0  0
 79157  1  0  0  0
 80 81  1  0  0  0
 80158  1  0  0  0
 81 82  2  0  0  0
 81159  1  0  0  0
 82 86  1  0  0  0
 82160  1  0  0  0
 83 84  1  0  0  0
 83161  1  0  0  0
 83162  1  0  0  0
 84 85  1  0  0  0
 84163  1  0  0  0
 84164  1  0  0  0
 85 92  1  0  0  0
 85165  1  0  0  0
 85166  1  0  0  0
 86167  1  0  0  0
 86168  1  0  0  0
 86169  1  0  0  0
 87170  1  0  0  0
 87171  1  0  0  0
 87172  1  0  0  0
 87 93  1  0  0  0
 88173  1  0  0  0
 88174  1  0  0  0
 88 92  1  0  0  0
 89 93  1  0  0  0
 89175  1  0  0  0
 89176  1  0  0  0
 90 91  1  0  0  0
 90 93  1  0  0  0
 90177  1  0  0  0
 90178  1  0  0  0
 91179  1  0  0  0
 91180  1  0  0  0
 92181  1  0  0  0
 93182  1  0  0  0
M  CHG  2  92   1  93   1
M  ISO  4   1 100  68 101  77 100  91 101
M  END
> <chiral flag>
0

> <version>
0

> <s_m_source_file>
/data/baiqing/PycharmProjects/Reinvent-master-3.2/result/LINK_invent/BTK/process_docking_weight1_custom_product_contain_oxygen_bond_distance_aromatic_linkinvent_7_9_3/rearranged_h_0048.sdf

> <i_m_source_file_index>
58

> <r_mmod_Potential_Energy-OPLS-2005>
-147.530395507812

> <r_mmod_Stretch_Energy-OPLS-2005>
43.9557685852051

> <r_mmod_Bend_Energy-OPLS-2005>
122.526947021484

> <r_mmod_Torsional_Energy-OPLS-2005>
249.950088500977

> <r_mmod_Improper_Torsional_Energy-OPLS-2005>
4.79686450958252

> <r_mmod_Van_der_Waal_Energy-OPLS-2005>
150.935089111328

> <r_mmod_Electrostatic_Energy-OPLS-2005>
111.884124755859

> <r_mmod_Solvation_Energy-OPLS-2005>
-840.745483398438

> <b_mmod_Minimization_Converged-OPLS-2005>
0

> <r_mmod_RMS_Derivative-OPLS-2005>
3.59730267524719

$$$$
58
                    3D
 Structure written by MMmdl.
161170  0  0  1  0            999 V2000
  -30.5614  -14.7655   20.4778 C   0  0  0  0  0  0
  -30.4498  -12.4713   19.4609 C   0  0  0  0  0  0
  -29.5165  -12.5087   18.2286 C   0  0  0  0  0  0
  -28.0425  -12.3188   18.6439 C   0  0  0  0  0  0
  -27.6401  -13.2206   19.8405 C   0  0  2  0  0  0
  -28.6854  -13.1437   20.9709 C   0  0  0  0  0  0
  -25.2522  -13.8169   20.5669 C   0  0  0  0  0  0
  -24.1795  -13.0441   20.9195 C   0  0  0  0  0  0
  -24.6375  -11.6911   20.8733 C   0  0  0  0  0  0
  -23.9055  -10.4299   21.0419 C   0  0  0  0  0  0
  -24.3609   -9.4210   21.9199 C   0  0  0  0  0  0
  -23.6274   -8.2257   22.0763 C   0  0  0  0  0  0
  -22.4259   -8.0301   21.3553 C   0  0  0  0  0  0
  -21.9898   -9.0278   20.4659 C   0  0  0  0  0  0
  -22.7236  -10.2146   20.3065 C   0  0  0  0  0  0
  -21.6857   -6.0735   22.5276 C   0  0  0  0  0  0
  -21.4026   -6.5638   23.8215 C   0  0  0  0  0  0
  -21.3651   -5.6780   24.9168 C   0  0  0  0  0  0
  -21.6033   -4.3046   24.7221 C   0  0  0  0  0  0
  -21.8822   -3.8141   23.4345 C   0  0  0  0  0  0
  -21.9193   -4.6958   22.3395 C   0  0  0  0  0  0
  -22.7825  -13.5244   21.1874 C   0  0  0  0  0  0
  -22.1660   -4.2142   21.0969 F   0  0  0  0  0  0
  -21.5617   -3.4527   25.7734 F   0  0  0  0  0  0
  -29.9820  -13.5215   20.3910 N   0  0  0  0  0  0
  -26.2913  -12.9350   20.3193 N   0  0  0  0  0  0
  -25.9285  -11.6502   20.5686 N   0  0  0  0  0  0
  -22.0452  -12.8244   22.0427 N   0  0  0  0  0  0
  -25.4206  -15.1902   20.4115 N   0  0  0  0  0  0
  -31.7681  -14.9087   20.2540 O   0  0  0  0  0  0
  -21.6639   -6.8887   21.4242 O   0  0  0  0  0  0
  -22.3510  -14.5548   20.6711 O   0  0  0  0  0  0
  -24.6315  -31.8536   23.1944 C   0  0  0  0  0  0
  -25.9131  -32.4748   23.8304 C   0  0  1  0  0  0
  -27.2204  -27.2607   20.1365 C   0  0  0  0  0  0
  -25.5910  -33.8547   24.2229 N   0  0  0  0  0  0
  -23.4288  -30.4746   21.5375 C   0  0  2  0  0  0
  -24.8767  -28.9119   20.1160 C   0  0  0  0  0  0
  -22.7490  -29.4600   22.4890 C   0  0  0  0  0  0
  -18.0287  -28.1383   22.8483 C   0  0  0  0  0  0
  -24.1483  -36.7290   23.2642 C   0  0  0  0  0  0
  -25.9741  -30.7682   21.3716 C   0  0  0  0  0  0
  -26.0495  -29.3869   20.7198 C   0  0  0  0  0  0
  -27.2298  -28.5760   20.7114 C   0  0  0  0  0  0
  -26.0269  -26.8431   19.5179 C   0  0  0  0  0  0
  -24.8699  -27.6471   19.5045 C   0  0  0  0  0  0
  -23.6482  -29.8003   20.1567 C   0  0  0  0  0  0
  -25.4109  -36.3062   24.0322 C   0  0  1  0  0  0
  -20.5891  -28.3697   23.1247 C   0  0  2  0  0  0
  -20.6770  -26.9410   22.5398 C   0  0  0  0  0  0
  -19.5745  -26.6379   21.5197 C   0  0  0  0  0  0
  -18.1929  -26.7924   22.1617 C   0  0  0  0  0  0
  -19.1546  -28.8855   23.2866 C   0  0  0  0  0  0
  -18.9473  -30.1448   23.8901 C   0  0  0  0  0  0
  -17.6477  -30.6585   24.0562 C   0  0  0  0  0  0
  -25.9058  -34.9440   23.5089 C   0  0  0  0  0  0
  -16.5365  -29.9094   23.6322 C   0  0  0  0  0  0
  -16.7276  -28.6504   23.0358 C   0  0  0  0  0  0
  -26.4491  -31.6582   25.0710 C   0  0  0  0  0  0
  -25.3709  -31.3760   26.1430 C   0  0  0  0  0  0
  -27.0337  -30.2988   24.6218 C   0  0  0  0  0  0
  -27.6026  -32.4333   25.7496 C   0  0  0  0  0  0
  -27.5569  -37.1794   24.8457 C   0  0  0  0  0  0
  -21.4199  -29.3052   22.3641 N   0  0  0  0  0  0
  -26.4275  -37.3764   23.9412 N   0  0  0  0  0  0
  -24.6975  -31.0510   22.0908 N   0  0  0  0  0  0
  -23.4193  -28.8152   23.2994 O   0  0  0  0  0  0
  -28.3173  -26.3769   20.1006 O   0  0  0  0  0  0
  -26.5646  -34.8916   22.4669 O   0  0  0  0  0  0
  -23.5465  -32.1340   23.7238 O   0  0  0  0  0  0
  -29.5437  -18.4596   20.3284 C   0  0  0  0  0  0
  -28.7851  -18.4739   22.9846 C   0  0  0  0  0  0
  -29.0953  -19.7364   20.8952 C   0  0  0  0  0  0
  -29.2794  -17.2699   22.4385 C   0  0  0  0  0  0
  -29.6173  -17.1955   21.0628 C   0  0  0  0  0  0
  -28.6256  -19.6526   22.2311 C   0  0  0  0  0  0
  -28.4173  -23.6776   20.0384 C   0  0  0  0  0  0
  -29.5191  -23.8637   22.7012 C   0  0  0  0  0  0
  -29.2625  -25.1949   21.9864 C   0  0  0  0  0  0
  -29.9817  -22.7878   21.6982 C   0  0  0  0  0  0
  -28.2428  -25.0706   20.8422 C   0  0  1  0  0  0
  -29.3137  -16.0568   23.3567 C   0  0  0  0  0  0
  -28.9924  -21.1078   20.0488 C   0  0  0  0  0  0
  -29.0027  -22.5461   20.6254 N   0  0  0  0  0  0
  -29.6784  -15.8407   20.4516 N   0  0  0  0  0  0
  -27.9304  -23.6093   18.9057 O   0  0  0  0  0  0
  -27.7363  -20.9247   22.9914 Cl  0  0  0  0  0  0
  -31.4871  -12.6285   19.1584 H   0  0  0  0  0  0
  -30.4195  -11.4934   19.9440 H   0  0  0  0  0  0
  -29.8067  -11.7420   17.5087 H   0  0  0  0  0  0
  -29.6275  -13.4635   17.7119 H   0  0  0  0  0  0
  -27.9065  -11.2700   18.9117 H   0  0  0  0  0  0
  -27.3841  -12.5038   17.7948 H   0  0  0  0  0  0
  -27.6324  -14.2395   19.4516 H   0  0  0  0  0  0
  -28.7320  -12.1392   21.3929 H   0  0  0  0  0  0
  -28.4126  -13.8040   21.7923 H   0  0  0  0  0  0
  -25.2764   -9.5665   22.4755 H   0  0  0  0  0  0
  -23.9980   -7.4640   22.7467 H   0  0  0  0  0  0
  -21.0831   -8.8800   19.8960 H   0  0  0  0  0  0
  -22.3718  -10.9677   19.6154 H   0  0  0  0  0  0
  -21.2041   -7.6150   23.9711 H   0  0  0  0  0  0
  -21.1458   -6.0512   25.9062 H   0  0  0  0  0  0
  -22.0608   -2.7598   23.2845 H   0  0  0  0  0  0
  -22.4054  -11.9904   22.4809 H   0  0  0  0  0  0
  -21.1069  -13.1276   22.2649 H   0  0  0  0  0  0
  -24.6537  -15.8413   20.5418 H   0  0  0  0  0  0
  -26.2582  -15.6344   20.0616 H   0  0  0  0  0  0
  -26.7214  -32.5401   23.1059 H   0  0  0  0  0  0
  -24.9990  -33.9669   25.0328 H   0  0  0  0  0  0
  -22.7267  -31.2966   21.3849 H   0  0  0  0  0  0
  -23.3736  -35.9629   23.3302 H   0  0  0  0  0  0
  -24.3571  -36.8924   22.2057 H   0  0  0  0  0  0
  -23.7249  -37.6493   23.6683 H   0  0  0  0  0  0
  -26.1105  -31.5250   20.5975 H   0  0  0  0  0  0
  -26.8515  -30.8207   22.0046 H   0  0  0  0  0  0
  -28.1359  -28.9402   21.1761 H   0  0  0  0  0  0
  -25.9870  -25.8694   19.0491 H   0  0  0  0  0  0
  -23.9718  -27.2774   19.0283 H   0  0  0  0  0  0
  -23.7715  -30.5690   19.3925 H   0  0  0  0  0  0
  -22.7669  -29.2304   19.8565 H   0  0  0  0  0  0
  -25.1289  -36.1901   25.0813 H   0  0  0  0  0  0
  -20.9992  -28.3292   24.1359 H   0  0  0  0  0  0
  -20.5628  -26.2324   23.3618 H   0  0  0  0  0  0
  -21.6647  -26.7405   22.1224 H   0  0  0  0  0  0
  -19.6913  -25.6288   21.1234 H   0  0  0  0  0  0
  -19.6678  -27.3177   20.6720 H   0  0  0  0  0  0
  -17.4190  -26.6652   21.4036 H   0  0  0  0  0  0
  -18.0348  -26.0067   22.9016 H   0  0  0  0  0  0
  -19.7955  -30.7246   24.2292 H   0  0  0  0  0  0
  -17.5041  -31.6265   24.5165 H   0  0  0  0  0  0
  -15.5371  -30.3008   23.7642 H   0  0  0  0  0  0
  -15.8670  -28.0818   22.7094 H   0  0  0  0  0  0
  -24.5854  -30.7146   25.7764 H   0  0  0  0  0  0
  -24.8941  -32.2948   26.4848 H   0  0  0  0  0  0
  -25.8005  -30.8930   27.0211 H   0  0  0  0  0  0
  -26.2932  -29.6738   24.1218 H   0  0  0  0  0  0
  -27.3972  -29.7257   25.4756 H   0  0  0  0  0  0
  -27.8824  -30.4243   23.9491 H   0  0  0  0  0  0
  -27.2604  -33.3611   26.2077 H   0  0  0  0  0  0
  -28.3835  -32.6926   25.0344 H   0  0  0  0  0  0
  -28.0694  -31.8469   26.5412 H   0  0  0  0  0  0
  -28.2581  -38.0094   24.7502 H   0  0  0  0  0  0
  -28.1067  -36.2629   24.6279 H   0  0  0  0  0  0
  -27.2297  -37.1435   25.8860 H   0  0  0  0  0  0
  -20.9388  -29.8788   21.6853 H   0  0  0  0  0  0
  -26.0153  -38.2835   24.1417 H   0  0  0  0  0  0
  -29.7774  -18.4435   19.2742 H   0  0  0  0  0  0
  -28.4416  -18.4795   24.0095 H   0  0  0  0  0  0
  -28.6112  -23.5484   23.2152 H   0  0  0  0  0  0
  -30.2768  -24.0011   23.4737 H   0  0  0  0  0  0
  -30.2040  -25.5770   21.5916 H   0  0  0  0  0  0
  -28.9065  -25.9356   22.7038 H   0  0  0  0  0  0
  -30.2308  -21.8700   22.2284 H   0  0  0  0  0  0
  -30.9131  -23.1111   21.2305 H   0  0  0  0  0  0
  -27.2548  -24.9964   21.2999 H   0  0  0  0  0  0
  -30.1342  -15.3817   23.1205 H   0  0  0  0  0  0
  -28.3716  -15.5098   23.3029 H   0  0  0  0  0  0
  -29.4565  -16.3640   24.3937 H   0  0  0  0  0  0
  -28.0819  -21.0132   19.4568 H   0  0  0  0  0  0
  -29.8032  -21.0760   19.3201 H   0  0  0  0  0  0
  -28.7530  -15.4811   20.2787 H   0  0  0  0  0  0
  1 25  1  0  0  0
  1 30  2  0  0  0
  1 85  1  0  0  0
  2  3  1  0  0  0
  2 25  1  0  0  0
  2 88  1  0  0  0
  2 89  1  0  0  0
  3  4  1  0  0  0
  3 90  1  0  0  0
  3 91  1  0  0  0
  4  5  1  0  0  0
  4 92  1  0  0  0
  4 93  1  0  0  0
  5  6  1  0  0  0
  5 26  1  0  0  0
  5 94  1  0  0  0
  6 25  1  0  0  0
  6 95  1  0  0  0
  6 96  1  0  0  0
  7  8  2  0  0  0
  7 26  1  0  0  0
  7 29  1  0  0  0
  8  9  1  0  0  0
  8 22  1  0  0  0
  9 10  1  0  0  0
  9 27  2  0  0  0
 10 11  2  0  0  0
 10 15  1  0  0  0
 11 12  1  0  0  0
 11 97  1  0  0  0
 12 13  2  0  0  0
 12 98  1  0  0  0
 13 14  1  0  0  0
 13 31  1  0  0  0
 14 15  2  0  0  0
 14 99  1  0  0  0
 15100  1  0  0  0
 16 17  2  0  0  0
 16 21  1  0  0  0
 16 31  1  0  0  0
 17 18  1  0  0  0
 17101  1  0  0  0
 18 19  2  0  0  0
 18102  1  0  0  0
 19 20  1  0  0  0
 19 24  1  0  0  0
 20 21  2  0  0  0
 20103  1  0  0  0
 21 23  1  0  0  0
 22 28  1  0  0  0
 22 32  2  0  0  0
 26 27  1  0  0  0
 28104  1  0  0  0
 28105  1  0  0  0
 29106  1  0  0  0
 29107  1  0  0  0
 33 34  1  0  0  0
 33 66  1  0  0  0
 33 70  2  0  0  0
 34 36  1  0  0  0
 34 59  1  0  0  0
 34108  1  0  0  0
 35 44  2  0  0  0
 35 45  1  0  0  0
 35 68  1  0  0  0
 36 56  1  0  0  0
 36109  1  0  0  0
 37 39  1  0  0  0
 37 47  1  0  0  0
 37 66  1  0  0  0
 37110  1  0  0  0
 38 43  2  0  0  0
 38 46  1  0  0  0
 38 47  1  0  0  0
 39 64  1  0  0  0
 39 67  2  0  0  0
 40 52  1  0  0  0
 40 53  2  0  0  0
 40 58  1  0  0  0
 41111  1  0  0  0
 41112  1  0  0  0
 41113  1  0  0  0
 41 48  1  0  0  0
 42 43  1  0  0  0
 42 66  1  0  0  0
 42114  1  0  0  0
 42115  1  0  0  0
 43 44  1  0  0  0
 44116  1  0  0  0
 45 46  2  0  0  0
 45117  1  0  0  0
 46118  1  0  0  0
 47119  1  0  0  0
 47120  1  0  0  0
 48 56  1  0  0  0
 48 65  1  0  0  0
 48121  1  0  0  0
 49 50  1  0  0  0
 49 53  1  0  0  0
 49 64  1  0  0  0
 49122  1  0  0  0
 50 51  1  0  0  0
 50123  1  0  0  0
 50124  1  0  0  0
 51 52  1  0  0  0
 51125  1  0  0  0
 51126  1  0  0  0
 52127  1  0  0  0
 52128  1  0  0  0
 53 54  1  0  0  0
 54 55  2  0  0  0
 54129  1  0  0  0
 55 57  1  0  0  0
 55130  1  0  0  0
 56 69  2  0  0  0
 57 58  2  0  0  0
 57131  1  0  0  0
 58132  1  0  0  0
 59 60  1  0  0  0
 59 61  1  0  0  0
 59 62  1  0  0  0
 60133  1  0  0  0
 60134  1  0  0  0
 60135  1  0  0  0
 61136  1  0  0  0
 61137  1  0  0  0
 61138  1  0  0  0
 62139  1  0  0  0
 62140  1  0  0  0
 62141  1  0  0  0
 63 65  1  0  0  0
 63142  1  0  0  0
 63143  1  0  0  0
 63144  1  0  0  0
 64145  1  0  0  0
 65146  1  0  0  0
 68 81  1  0  0  0
 71 73  2  0  0  0
 71 75  1  0  0  0
 71147  1  0  0  0
 72 74  1  0  0  0
 72 76  2  0  0  0
 72148  1  0  0  0
 73 76  1  0  0  0
 73 83  1  0  0  0
 74 75  2  0  0  0
 74 82  1  0  0  0
 75 85  1  0  0  0
 76 87  1  0  0  0
 77 81  1  0  0  0
 77 84  1  0  0  0
 77 86  2  0  0  0
 78 79  1  0  0  0
 78 80  1  0  0  0
 78149  1  0  0  0
 78150  1  0  0  0
 79 81  1  0  0  0
 79151  1  0  0  0
 79152  1  0  0  0
 80 84  1  0  0  0
 80153  1  0  0  0
 80154  1  0  0  0
 81155  1  0  0  0
 82156  1  0  0  0
 82157  1  0  0  0
 82158  1  0  0  0
 83 84  1  0  0  0
 83159  1  0  0  0
 83160  1  0  0  0
 85161  1  0  0  0
M  ISO  4   1 100  68 101  81 101  85 100
M  END
> <chiral flag>
0

> <version>
0

> <s_m_source_file>
/data/baiqing/PycharmProjects/Reinvent-master-3.2/result/LINK_invent/BTK/process_docking_weight1_custom_product_contain_oxygen_bond_distance_aromatic_linkinvent_7_9_3/rearranged_h_0048.sdf

> <i_m_source_file_index>
59

> <r_mmod_Potential_Energy-OPLS-2005>
301.317596435547

> <r_mmod_Stretch_Energy-OPLS-2005>
140.248962402344

> <r_mmod_Bend_Energy-OPLS-2005>
183.822204589844

> <r_mmod_Torsional_Energy-OPLS-2005>
312.576019287109

> <r_mmod_Improper_Torsional_Energy-OPLS-2005>
16.3537158966064

> <r_mmod_Van_der_Waal_Energy-OPLS-2005>
137.435928344727

> <r_mmod_Electrostatic_Energy-OPLS-2005>
-357.359954833984

> <r_mmod_Solvation_Energy-OPLS-2005>
-224.118362426758

> <b_mmod_Minimization_Converged-OPLS-2005>
0

> <r_mmod_RMS_Derivative-OPLS-2005>
2.54220104217529

$$$$
59
                    3D
 Structure written by MMmdl.
161170  0  0  1  0            999 V2000
  -30.6084  -14.6552   20.4945 C   0  0  0  0  0  0
  -30.4406  -12.3992   19.4591 C   0  0  0  0  0  0
  -29.5126  -12.5113   18.2283 C   0  0  0  0  0  0
  -28.0343  -12.3466   18.6369 C   0  0  0  0  0  0
  -27.6535  -13.2161   19.8647 C   0  0  2  0  0  0
  -28.6972  -13.0721   20.9961 C   0  0  0  0  0  0
  -25.2560  -13.8170   20.5671 C   0  0  0  0  0  0
  -24.1834  -13.0438   20.9203 C   0  0  0  0  0  0
  -24.6389  -11.6908   20.8739 C   0  0  0  0  0  0
  -23.9053  -10.4290   21.0408 C   0  0  0  0  0  0
  -24.3612   -9.4205   21.9181 C   0  0  0  0  0  0
  -23.6291   -8.2236   22.0753 C   0  0  0  0  0  0
  -22.4272   -8.0275   21.3550 C   0  0  0  0  0  0
  -21.9904   -9.0242   20.4649 C   0  0  0  0  0  0
  -22.7229  -10.2122   20.3052 C   0  0  0  0  0  0
  -21.6846   -6.0738   22.5281 C   0  0  0  0  0  0
  -21.4011   -6.5640   23.8216 C   0  0  0  0  0  0
  -21.3659   -5.6789   24.9174 C   0  0  0  0  0  0
  -21.6047   -4.3053   24.7224 C   0  0  0  0  0  0
  -21.8815   -3.8151   23.4340 C   0  0  0  0  0  0
  -21.9189   -4.6969   22.3402 C   0  0  0  0  0  0
  -22.7856  -13.5238   21.1869 C   0  0  0  0  0  0
  -22.1658   -4.2155   21.0982 F   0  0  0  0  0  0
  -21.5627   -3.4541   25.7735 F   0  0  0  0  0  0
  -30.0135  -13.4205   20.4362 N   0  0  0  0  0  0
  -26.2988  -12.9344   20.3306 N   0  0  0  0  0  0
  -25.9319  -11.6501   20.5749 N   0  0  0  0  0  0
  -22.0496  -12.8229   22.0419 N   0  0  0  0  0  0
  -25.4260  -15.1890   20.4048 N   0  0  0  0  0  0
  -31.7689  -14.8244   20.1071 O   0  0  0  0  0  0
  -21.6641   -6.8874   21.4240 O   0  0  0  0  0  0
  -22.3548  -14.5544   20.6715 O   0  0  0  0  0  0
  -24.6250  -31.8594   23.2015 C   0  0  0  0  0  0
  -25.9095  -32.4779   23.8348 C   0  0  1  0  0  0
  -27.2314  -27.3281   20.1260 C   0  0  0  0  0  0
  -25.5906  -33.8581   24.2278 N   0  0  0  0  0  0
  -23.4194  -30.4810   21.5437 C   0  0  2  0  0  0
  -24.8688  -28.9314   20.1148 C   0  0  0  0  0  0
  -22.7468  -29.4624   22.4942 C   0  0  0  0  0  0
  -18.0284  -28.1383   22.8488 C   0  0  0  0  0  0
  -24.1491  -36.7305   23.2651 C   0  0  0  0  0  0
  -25.9585  -30.7936   21.3707 C   0  0  0  0  0  0
  -26.0360  -29.4196   20.7169 C   0  0  0  0  0  0
  -27.2230  -28.6302   20.7105 C   0  0  0  0  0  0
  -26.0458  -26.8859   19.5025 C   0  0  0  0  0  0
  -24.8746  -27.6691   19.4983 C   0  0  0  0  0  0
  -23.6349  -29.8100   20.1609 C   0  0  0  0  0  0
  -25.4122  -36.3094   24.0333 C   0  0  1  0  0  0
  -20.5885  -28.3690   23.1289 C   0  0  2  0  0  0
  -20.6775  -26.9415   22.5413 C   0  0  0  0  0  0
  -19.5749  -26.6385   21.5217 C   0  0  0  0  0  0
  -18.1929  -26.7924   22.1628 C   0  0  0  0  0  0
  -19.1535  -28.8853   23.2884 C   0  0  0  0  0  0
  -18.9457  -30.1455   23.8902 C   0  0  0  0  0  0
  -17.6459  -30.6590   24.0565 C   0  0  0  0  0  0
  -25.9043  -34.9456   23.5108 C   0  0  0  0  0  0
  -16.5351  -29.9089   23.6330 C   0  0  0  0  0  0
  -16.7272  -28.6504   23.0353 C   0  0  0  0  0  0
  -26.4483  -31.6587   25.0717 C   0  0  0  0  0  0
  -25.3717  -31.3726   26.1444 C   0  0  0  0  0  0
  -27.0327  -30.3010   24.6167 C   0  0  0  0  0  0
  -27.6043  -32.4323   25.7488 C   0  0  0  0  0  0
  -27.5562  -37.1848   24.8494 C   0  0  0  0  0  0
  -21.4182  -29.3042   22.3682 N   0  0  0  0  0  0
  -26.4323  -37.3761   23.9363 N   0  0  0  0  0  0
  -24.6864  -31.0612   22.0961 N   0  0  0  0  0  0
  -23.4192  -28.8171   23.3028 O   0  0  0  0  0  0
  -28.3511  -26.4882   20.1285 O   0  0  0  0  0  0
  -26.5615  -34.8919   22.4677 O   0  0  0  0  0  0
  -23.5417  -32.1390   23.7349 O   0  0  0  0  0  0
  -28.5165  -19.2818   20.5376 C   0  0  0  0  0  0
  -28.6137  -17.8871   20.8150 C   0  0  0  0  0  0
  -30.9257  -17.9037   20.1799 C   0  0  0  0  0  0
  -29.6151  -20.0360   20.0513 C   0  0  0  0  0  0
  -30.8496  -19.3135   19.9115 C   0  0  0  0  0  0
  -29.8071  -17.1427   20.6121 C   0  0  0  0  0  0
  -28.6768  -23.9211   19.7966 C   0  0  0  0  0  0
  -28.7433  -23.6777   22.6874 C   0  0  0  0  0  0
  -28.8831  -25.0755   22.0674 C   0  0  0  0  0  0
  -29.3568  -22.5798   21.7931 C   0  0  0  0  0  0
  -28.1892  -25.1277   20.6999 C   0  0  1  0  0  0
  -29.4039  -21.5106   19.5062 C   0  0  0  0  0  0
  -32.1143  -20.0234   19.4277 C   0  0  0  0  0  0
  -29.0442  -22.7059   20.3602 N   0  0  0  0  0  0
  -29.7856  -15.6934   20.8560 N   0  0  0  0  0  0
  -28.6609  -24.0779   18.5711 O   0  0  0  0  0  0
  -33.2043  -19.2731   19.5962 F   0  0  0  0  0  0
  -32.0085  -20.3040   18.1282 F   0  0  0  0  0  0
  -32.3009  -21.1570   20.1051 F   0  0  0  0  0  0
  -31.4830  -12.5249   19.1621 H   0  0  0  0  0  0
  -30.3742  -11.4048   19.9021 H   0  0  0  0  0  0
  -29.7816  -11.7599   17.4848 H   0  0  0  0  0  0
  -29.6554  -13.4810   17.7486 H   0  0  0  0  0  0
  -27.8731  -11.2936   18.8678 H   0  0  0  0  0  0
  -27.3800  -12.5750   17.7946 H   0  0  0  0  0  0
  -27.6698  -14.2515   19.5247 H   0  0  0  0  0  0
  -28.7114  -12.0508   21.3791 H   0  0  0  0  0  0
  -28.4400  -13.7022   21.8488 H   0  0  0  0  0  0
  -25.2758   -9.5675   22.4754 H   0  0  0  0  0  0
  -23.9999   -7.4627   22.7464 H   0  0  0  0  0  0
  -21.0836   -8.8753   19.8957 H   0  0  0  0  0  0
  -22.3689  -10.9654   19.6154 H   0  0  0  0  0  0
  -21.2002   -7.6149   23.9727 H   0  0  0  0  0  0
  -21.1491   -6.0518   25.9080 H   0  0  0  0  0  0
  -22.0598   -2.7617   23.2838 H   0  0  0  0  0  0
  -22.4100  -11.9880   22.4799 H   0  0  0  0  0  0
  -21.1113  -13.1252   22.2625 H   0  0  0  0  0  0
  -24.6518  -15.8371   20.5007 H   0  0  0  0  0  0
  -26.2587  -15.6222   20.0282 H   0  0  0  0  0  0
  -26.7168  -32.5455   23.1104 H   0  0  0  0  0  0
  -25.0036  -33.9721   25.0412 H   0  0  0  0  0  0
  -22.7133  -31.3013   21.3976 H   0  0  0  0  0  0
  -23.3707  -35.9696   23.3437 H   0  0  0  0  0  0
  -24.3544  -36.8793   22.2038 H   0  0  0  0  0  0
  -23.7324  -37.6582   23.6586 H   0  0  0  0  0  0
  -26.0863  -31.5555   20.6005 H   0  0  0  0  0  0
  -26.8401  -30.8458   21.9981 H   0  0  0  0  0  0
  -28.1215  -29.0023   21.1828 H   0  0  0  0  0  0
  -26.0221  -25.9187   19.0206 H   0  0  0  0  0  0
  -23.9813  -27.2896   19.0219 H   0  0  0  0  0  0
  -23.7516  -30.5831   19.4006 H   0  0  0  0  0  0
  -22.7561  -29.2360   19.8616 H   0  0  0  0  0  0
  -25.1323  -36.1972   25.0834 H   0  0  0  0  0  0
  -20.9977  -28.3263   24.1409 H   0  0  0  0  0  0
  -20.5678  -26.2302   23.3612 H   0  0  0  0  0  0
  -21.6644  -26.7442   22.1205 H   0  0  0  0  0  0
  -19.6913  -25.6295   21.1247 H   0  0  0  0  0  0
  -19.6687  -27.3196   20.6745 H   0  0  0  0  0  0
  -17.4201  -26.6672   21.4030 H   0  0  0  0  0  0
  -18.0329  -26.0063   22.9019 H   0  0  0  0  0  0
  -19.7938  -30.7263   24.2275 H   0  0  0  0  0  0
  -17.5018  -31.6271   24.5161 H   0  0  0  0  0  0
  -15.5351  -30.2993   23.7650 H   0  0  0  0  0  0
  -15.8671  -28.0823   22.7069 H   0  0  0  0  0  0
  -24.5881  -30.7089   25.7770 H   0  0  0  0  0  0
  -24.8917  -32.2893   26.4879 H   0  0  0  0  0  0
  -25.8032  -30.8890   27.0213 H   0  0  0  0  0  0
  -26.2902  -29.6764   24.1185 H   0  0  0  0  0  0
  -27.4020  -29.7264   25.4671 H   0  0  0  0  0  0
  -27.8772  -30.4301   23.9393 H   0  0  0  0  0  0
  -27.2645  -33.3614   26.2078 H   0  0  0  0  0  0
  -28.3841  -32.6899   25.0310 H   0  0  0  0  0  0
  -28.0721  -31.8441   26.5391 H   0  0  0  0  0  0
  -28.2713  -38.0003   24.7335 H   0  0  0  0  0  0
  -28.0914  -36.2532   24.6594 H   0  0  0  0  0  0
  -27.2242  -37.1839   25.8891 H   0  0  0  0  0  0
  -20.9364  -29.8753   21.6881 H   0  0  0  0  0  0
  -26.0221  -38.2876   24.1211 H   0  0  0  0  0  0
  -27.5584  -19.7693   20.6550 H   0  0  0  0  0  0
  -27.7239  -17.3772   21.1577 H   0  0  0  0  0  0
  -31.8672  -17.3984   20.0280 H   0  0  0  0  0  0
  -27.6869  -23.4615   22.8546 H   0  0  0  0  0  0
  -29.2148  -23.6551   23.6709 H   0  0  0  0  0  0
  -29.9377  -25.3340   21.9598 H   0  0  0  0  0  0
  -28.4459  -25.8205   22.7328 H   0  0  0  0  0  0
  -29.0389  -21.6058   22.1660 H   0  0  0  0  0  0
  -30.4434  -22.6044   21.8904 H   0  0  0  0  0  0
  -27.1310  -24.9328   20.8807 H   0  0  0  0  0  0
  -28.6062  -21.4134   18.7681 H   0  0  0  0  0  0
  -30.2643  -21.8088   18.9111 H   0  0  0  0  0  0
  -28.9030  -15.3532   21.2061 H   0  0  0  0  0  0
  1 25  1  0  0  0
  1 30  2  0  0  0
  1 85  1  0  0  0
  2  3  1  0  0  0
  2 25  1  0  0  0
  2 90  1  0  0  0
  2 91  1  0  0  0
  3  4  1  0  0  0
  3 92  1  0  0  0
  3 93  1  0  0  0
  4  5  1  0  0  0
  4 94  1  0  0  0
  4 95  1  0  0  0
  5  6  1  0  0  0
  5 26  1  0  0  0
  5 96  1  0  0  0
  6 25  1  0  0  0
  6 97  1  0  0  0
  6 98  1  0  0  0
  7  8  2  0  0  0
  7 26  1  0  0  0
  7 29  1  0  0  0
  8  9  1  0  0  0
  8 22  1  0  0  0
  9 10  1  0  0  0
  9 27  2  0  0  0
 10 11  2  0  0  0
 10 15  1  0  0  0
 11 12  1  0  0  0
 11 99  1  0  0  0
 12 13  2  0  0  0
 12100  1  0  0  0
 13 14  1  0  0  0
 13 31  1  0  0  0
 14 15  2  0  0  0
 14101  1  0  0  0
 15102  1  0  0  0
 16 17  2  0  0  0
 16 21  1  0  0  0
 16 31  1  0  0  0
 17 18  1  0  0  0
 17103  1  0  0  0
 18 19  2  0  0  0
 18104  1  0  0  0
 19 20  1  0  0  0
 19 24  1  0  0  0
 20 21  2  0  0  0
 20105  1  0  0  0
 21 23  1  0  0  0
 22 28  1  0  0  0
 22 32  2  0  0  0
 26 27  1  0  0  0
 28106  1  0  0  0
 28107  1  0  0  0
 29108  1  0  0  0
 29109  1  0  0  0
 33 34  1  0  0  0
 33 66  1  0  0  0
 33 70  2  0  0  0
 34 36  1  0  0  0
 34 59  1  0  0  0
 34110  1  0  0  0
 35 44  2  0  0  0
 35 45  1  0  0  0
 35 68  1  0  0  0
 36 56  1  0  0  0
 36111  1  0  0  0
 37 39  1  0  0  0
 37 47  1  0  0  0
 37 66  1  0  0  0
 37112  1  0  0  0
 38 43  2  0  0  0
 38 46  1  0  0  0
 38 47  1  0  0  0
 39 64  1  0  0  0
 39 67  2  0  0  0
 40 52  1  0  0  0
 40 53  2  0  0  0
 40 58  1  0  0  0
 41113  1  0  0  0
 41114  1  0  0  0
 41115  1  0  0  0
 41 48  1  0  0  0
 42 43  1  0  0  0
 42 66  1  0  0  0
 42116  1  0  0  0
 42117  1  0  0  0
 43 44  1  0  0  0
 44118  1  0  0  0
 45 46  2  0  0  0
 45119  1  0  0  0
 46120  1  0  0  0
 47121  1  0  0  0
 47122  1  0  0  0
 48 56  1  0  0  0
 48 65  1  0  0  0
 48123  1  0  0  0
 49 50  1  0  0  0
 49 53  1  0  0  0
 49 64  1  0  0  0
 49124  1  0  0  0
 50 51  1  0  0  0
 50125  1  0  0  0
 50126  1  0  0  0
 51 52  1  0  0  0
 51127  1  0  0  0
 51128  1  0  0  0
 52129  1  0  0  0
 52130  1  0  0  0
 53 54  1  0  0  0
 54 55  2  0  0  0
 54131  1  0  0  0
 55 57  1  0  0  0
 55132  1  0  0  0
 56 69  2  0  0  0
 57 58  2  0  0  0
 57133  1  0  0  0
 58134  1  0  0  0
 59 60  1  0  0  0
 59 61  1  0  0  0
 59 62  1  0  0  0
 60135  1  0  0  0
 60136  1  0  0  0
 60137  1  0  0  0
 61138  1  0  0  0
 61139  1  0  0  0
 61140  1  0  0  0
 62141  1  0  0  0
 62142  1  0  0  0
 62143  1  0  0  0
 63 65  1  0  0  0
 63144  1  0  0  0
 63145  1  0  0  0
 63146  1  0  0  0
 64147  1  0  0  0
 65148  1  0  0  0
 68 81  1  0  0  0
 71 72  2  0  0  0
 71 74  1  0  0  0
 71149  1  0  0  0
 72 76  1  0  0  0
 72150  1  0  0  0
 73 75  1  0  0  0
 73 76  2  0  0  0
 73151  1  0  0  0
 74 75  2  0  0  0
 74 82  1  0  0  0
 75 83  1  0  0  0
 76 85  1  0  0  0
 77 81  1  0  0  0
 77 84  1  0  0  0
 77 86  2  0  0  0
 78 79  1  0  0  0
 78 80  1  0  0  0
 78152  1  0  0  0
 78153  1  0  0  0
 79 81  1  0  0  0
 79154  1  0  0  0
 79155  1  0  0  0
 80 84  1  0  0  0
 80156  1  0  0  0
 80157  1  0  0  0
 81158  1  0  0  0
 82 84  1  0  0  0
 82159  1  0  0  0
 82160  1  0  0  0
 83 87  1  0  0  0
 83 88  1  0  0  0
 83 89  1  0  0  0
 85161  1  0  0  0
M  ISO  4   1 100  68 101  81 101  85 100
M  END
> <chiral flag>
0

> <version>
0

> <s_m_source_file>
/data/baiqing/PycharmProjects/Reinvent-master-3.2/result/LINK_invent/BTK/process_docking_weight1_custom_product_contain_oxygen_bond_distance_aromatic_linkinvent_7_9_3/rearranged_h_0048.sdf

> <i_m_source_file_index>
60

> <r_mmod_Potential_Energy-OPLS-2005>
160.047149658203

> <r_mmod_Stretch_Energy-OPLS-2005>
88.7124938964844

> <r_mmod_Bend_Energy-OPLS-2005>
145.693939208984

> <r_mmod_Torsional_Energy-OPLS-2005>
260.05615234375

> <r_mmod_Improper_Torsional_Energy-OPLS-2005>
5.88443470001221

> <r_mmod_Van_der_Waal_Energy-OPLS-2005>
149.376068115234

> <r_mmod_Electrostatic_Energy-OPLS-2005>
-312.055847167969

> <r_mmod_Solvation_Energy-OPLS-2005>
-225.818450927734

> <b_mmod_Minimization_Converged-OPLS-2005>
0

> <r_mmod_RMS_Derivative-OPLS-2005>
1.15514469146729

$$$$
60
                    3D
 Structure written by MMmdl.
158167  0  0  1  0            999 V2000
  -30.6374  -14.6472   20.6196 C   0  0  0  0  0  0
  -30.4382  -12.4202   19.4893 C   0  0  0  0  0  0
  -29.5187  -12.5465   18.2534 C   0  0  0  0  0  0
  -28.0420  -12.3733   18.6538 C   0  0  0  0  0  0
  -27.6609  -13.2312   19.8889 C   0  0  2  0  0  0
  -28.6922  -13.0729   21.0306 C   0  0  0  0  0  0
  -25.2520  -13.8189   20.5659 C   0  0  0  0  0  0
  -24.1792  -13.0419   20.9156 C   0  0  0  0  0  0
  -24.6412  -11.6908   20.8744 C   0  0  0  0  0  0
  -23.9085  -10.4279   21.0437 C   0  0  0  0  0  0
  -24.3622   -9.4189   21.9203 C   0  0  0  0  0  0
  -23.6286   -8.2226   22.0762 C   0  0  0  0  0  0
  -22.4278   -8.0271   21.3547 C   0  0  0  0  0  0
  -21.9914   -9.0256   20.4644 C   0  0  0  0  0  0
  -22.7251  -10.2130   20.3071 C   0  0  0  0  0  0
  -21.6836   -6.0726   22.5276 C   0  0  0  0  0  0
  -21.4033   -6.5636   23.8213 C   0  0  0  0  0  0
  -21.3669   -5.6786   24.9186 C   0  0  0  0  0  0
  -21.6025   -4.3045   24.7232 C   0  0  0  0  0  0
  -21.8821   -3.8146   23.4358 C   0  0  0  0  0  0
  -21.9193   -4.6960   22.3405 C   0  0  0  0  0  0
  -22.7822  -13.5208   21.1835 C   0  0  0  0  0  0
  -22.1643   -4.2149   21.0971 F   0  0  0  0  0  0
  -21.5638   -3.4523   25.7743 F   0  0  0  0  0  0
  -30.0231  -13.4199   20.5036 N   0  0  0  0  0  0
  -26.3015  -12.9422   20.3421 N   0  0  0  0  0  0
  -25.9370  -11.6556   20.5828 N   0  0  0  0  0  0
  -22.0457  -12.8204   22.0400 N   0  0  0  0  0  0
  -25.4172  -15.1915   20.4032 N   0  0  0  0  0  0
  -31.7141  -14.8610   20.0479 O   0  0  0  0  0  0
  -21.6629   -6.8884   21.4237 O   0  0  0  0  0  0
  -22.3495  -14.5505   20.6703 O   0  0  0  0  0  0
  -24.6224  -31.8629   23.1989 C   0  0  0  0  0  0
  -25.9068  -32.4761   23.8359 C   0  0  1  0  0  0
  -27.1992  -27.2891   20.1689 C   0  0  0  0  0  0
  -25.5915  -33.8571   24.2304 N   0  0  0  0  0  0
  -23.4178  -30.4830   21.5391 C   0  0  2  0  0  0
  -24.8700  -28.9333   20.1118 C   0  0  0  0  0  0
  -22.7439  -29.4620   22.4855 C   0  0  0  0  0  0
  -18.0299  -28.1345   22.8445 C   0  0  0  0  0  0
  -24.1513  -36.7290   23.2639 C   0  0  0  0  0  0
  -25.9621  -30.7802   21.3796 C   0  0  0  0  0  0
  -26.0341  -29.4079   20.7258 C   0  0  0  0  0  0
  -27.2083  -28.5946   20.7445 C   0  0  0  0  0  0
  -26.0245  -26.8749   19.5111 C   0  0  0  0  0  0
  -24.8684  -27.6765   19.4891 C   0  0  0  0  0  0
  -23.6382  -29.8150   20.1569 C   0  0  0  0  0  0
  -25.4128  -36.3084   24.0333 C   0  0  1  0  0  0
  -20.5882  -28.3684   23.1214 C   0  0  2  0  0  0
  -20.6764  -26.9391   22.5388 C   0  0  0  0  0  0
  -19.5772  -26.6348   21.5160 C   0  0  0  0  0  0
  -18.1951  -26.7895   22.1556 C   0  0  0  0  0  0
  -19.1545  -28.8824   23.2833 C   0  0  0  0  0  0
  -18.9486  -30.1405   23.8890 C   0  0  0  0  0  0
  -17.6492  -30.6567   24.0548 C   0  0  0  0  0  0
  -25.9051  -34.9436   23.5127 C   0  0  0  0  0  0
  -16.5377  -29.9068   23.6315 C   0  0  0  0  0  0
  -16.7283  -28.6456   23.0364 C   0  0  0  0  0  0
  -26.4501  -31.6565   25.0717 C   0  0  0  0  0  0
  -25.3773  -31.3727   26.1452 C   0  0  0  0  0  0
  -27.0375  -30.3004   24.6179 C   0  0  0  0  0  0
  -27.6096  -32.4302   25.7468 C   0  0  0  0  0  0
  -27.5604  -37.1769   24.8443 C   0  0  0  0  0  0
  -21.4156  -29.3064   22.3607 N   0  0  0  0  0  0
  -26.4312  -37.3772   23.9410 N   0  0  0  0  0  0
  -24.6854  -31.0597   22.0974 N   0  0  0  0  0  0
  -23.4131  -28.8144   23.2952 O   0  0  0  0  0  0
  -28.2770  -26.3965   20.2210 O   0  0  0  0  0  0
  -26.5609  -34.8877   22.4688 O   0  0  0  0  0  0
  -23.5375  -32.1446   23.7302 O   0  0  0  0  0  0
  -29.3486  -18.9683   19.6658 C   0  0  0  0  0  0
  -29.7783  -17.6256   19.8958 C   0  0  0  0  0  0
  -29.2552  -17.8884   22.2268 C   0  0  0  0  0  0
  -28.8631  -19.8310   20.6920 C   0  0  0  0  0  0
  -29.7317  -17.0290   21.1803 C   0  0  0  0  0  0
  -28.8279  -19.2432   21.9960 C   0  0  0  0  0  0
  -27.9254  -23.7688   20.4082 C   0  0  0  0  0  0
  -29.6071  -23.8155   22.7440 C   0  0  0  0  0  0
  -29.3791  -25.1748   22.0525 C   0  0  0  0  0  0
  -29.7466  -22.6914   21.7064 C   0  0  0  0  0  0
  -28.1609  -25.1929   21.1041 C   0  0  1  0  0  0
  -28.2182  -21.2336   20.2885 C   0  0  0  0  0  0
  -28.5785  -22.6105   20.8267 N   0  0  0  0  0  0
  -30.0438  -15.6023   21.4141 N   0  0  0  0  0  0
  -27.0561  -23.7053   19.5354 O   0  0  0  0  0  0
  -28.3390  -19.9650   23.0375 F   0  0  0  0  0  0
  -31.4828  -12.5330   19.1953 H   0  0  0  0  0  0
  -30.3622  -11.4158   19.9068 H   0  0  0  0  0  0
  -29.7925  -11.8080   17.4964 H   0  0  0  0  0  0
  -29.6600  -13.5269   17.7917 H   0  0  0  0  0  0
  -27.8844  -11.3179   18.8757 H   0  0  0  0  0  0
  -27.3897  -12.6113   17.8138 H   0  0  0  0  0  0
  -27.6864  -14.2745   19.5684 H   0  0  0  0  0  0
  -28.6967  -12.0481   21.4085 H   0  0  0  0  0  0
  -28.4135  -13.6976   21.8821 H   0  0  0  0  0  0
  -25.2796   -9.5640   22.4745 H   0  0  0  0  0  0
  -23.9988   -7.4628   22.7495 H   0  0  0  0  0  0
  -21.0842   -8.8797   19.8949 H   0  0  0  0  0  0
  -22.3751  -10.9673   19.6153 H   0  0  0  0  0  0
  -21.2029   -7.6135   23.9731 H   0  0  0  0  0  0
  -21.1482   -6.0513   25.9085 H   0  0  0  0  0  0
  -22.0594   -2.7610   23.2867 H   0  0  0  0  0  0
  -22.4079  -11.9879   22.4804 H   0  0  0  0  0  0
  -21.1084  -13.1266   22.2631 H   0  0  0  0  0  0
  -24.6410  -15.8402   20.4783 H   0  0  0  0  0  0
  -26.2766  -15.6353   20.1016 H   0  0  0  0  0  0
  -26.7103  -32.5447   23.1071 H   0  0  0  0  0  0
  -25.0173  -33.9821   25.0499 H   0  0  0  0  0  0
  -22.7158  -31.3047   21.3848 H   0  0  0  0  0  0
  -23.3796  -35.9591   23.3258 H   0  0  0  0  0  0
  -24.3598  -36.8972   22.2063 H   0  0  0  0  0  0
  -23.7219  -37.6452   23.6691 H   0  0  0  0  0  0
  -26.1027  -31.5337   20.6062 H   0  0  0  0  0  0
  -26.8385  -30.8289   22.0138 H   0  0  0  0  0  0
  -28.0977  -28.9432   21.2455 H   0  0  0  0  0  0
  -25.9851  -25.9095   19.0281 H   0  0  0  0  0  0
  -23.9733  -27.3131   19.0064 H   0  0  0  0  0  0
  -23.7623  -30.5878   19.4011 H   0  0  0  0  0  0
  -22.7642  -29.2405   19.8496 H   0  0  0  0  0  0
  -25.1279  -36.1982   25.0820 H   0  0  0  0  0  0
  -21.0005  -28.3299   24.1313 H   0  0  0  0  0  0
  -20.5644  -26.2317   23.3593 H   0  0  0  0  0  0
  -21.6648  -26.7399   22.1212 H   0  0  0  0  0  0
  -19.6990  -25.6257   21.1212 H   0  0  0  0  0  0
  -19.6754  -27.3131   20.6664 H   0  0  0  0  0  0
  -17.4230  -26.6634   21.3957 H   0  0  0  0  0  0
  -18.0365  -26.0011   22.8938 H   0  0  0  0  0  0
  -19.7994  -30.7176   24.2291 H   0  0  0  0  0  0
  -17.5080  -31.6256   24.5138 H   0  0  0  0  0  0
  -15.5394  -30.2979   23.7642 H   0  0  0  0  0  0
  -15.8657  -28.0753   22.7150 H   0  0  0  0  0  0
  -24.5860  -30.7198   25.7760 H   0  0  0  0  0  0
  -24.9074  -32.2936   26.4940 H   0  0  0  0  0  0
  -25.8088  -30.8828   27.0202 H   0  0  0  0  0  0
  -26.2976  -29.6660   24.1311 H   0  0  0  0  0  0
  -27.4215  -29.7330   25.4675 H   0  0  0  0  0  0
  -27.8760  -30.4280   23.9324 H   0  0  0  0  0  0
  -27.2726  -33.3623   26.1994 H   0  0  0  0  0  0
  -28.3882  -32.6832   25.0271 H   0  0  0  0  0  0
  -28.0728  -31.8459   26.5407 H   0  0  0  0  0  0
  -28.2543  -38.0154   24.7543 H   0  0  0  0  0  0
  -28.1208  -36.2669   24.6211 H   0  0  0  0  0  0
  -27.2323  -37.1292   25.8850 H   0  0  0  0  0  0
  -20.9310  -29.8837   21.6871 H   0  0  0  0  0  0
  -26.0221  -38.2851   24.1484 H   0  0  0  0  0  0
  -29.3516  -19.3210   18.6422 H   0  0  0  0  0  0
  -30.1140  -17.0322   19.0543 H   0  0  0  0  0  0
  -29.1764  -17.5059   23.2381 H   0  0  0  0  0  0
  -28.7827  -23.5867   23.4236 H   0  0  0  0  0  0
  -30.5143  -23.8526   23.3514 H   0  0  0  0  0  0
  -30.2676  -25.4329   21.4784 H   0  0  0  0  0  0
  -29.2619  -25.9534   22.8083 H   0  0  0  0  0  0
  -29.9094  -21.7482   22.2225 H   0  0  0  0  0  0
  -30.6344  -22.8537   21.0895 H   0  0  0  0  0  0
  -27.2844  -25.3360   21.7414 H   0  0  0  0  0  0
  -27.1463  -21.1114   20.4551 H   0  0  0  0  0  0
  -28.3323  -21.3171   19.2052 H   0  0  0  0  0  0
  -29.5901  -15.2027   22.2237 H   0  0  0  0  0  0
  1 25  1  0  0  0
  1 30  2  0  0  0
  1 84  1  0  0  0
  2  3  1  0  0  0
  2 25  1  0  0  0
  2 87  1  0  0  0
  2 88  1  0  0  0
  3  4  1  0  0  0
  3 89  1  0  0  0
  3 90  1  0  0  0
  4  5  1  0  0  0
  4 91  1  0  0  0
  4 92  1  0  0  0
  5  6  1  0  0  0
  5 26  1  0  0  0
  5 93  1  0  0  0
  6 25  1  0  0  0
  6 94  1  0  0  0
  6 95  1  0  0  0
  7  8  2  0  0  0
  7 26  1  0  0  0
  7 29  1  0  0  0
  8  9  1  0  0  0
  8 22  1  0  0  0
  9 10  1  0  0  0
  9 27  2  0  0  0
 10 11  2  0  0  0
 10 15  1  0  0  0
 11 12  1  0  0  0
 11 96  1  0  0  0
 12 13  2  0  0  0
 12 97  1  0  0  0
 13 14  1  0  0  0
 13 31  1  0  0  0
 14 15  2  0  0  0
 14 98  1  0  0  0
 15 99  1  0  0  0
 16 17  2  0  0  0
 16 21  1  0  0  0
 16 31  1  0  0  0
 17 18  1  0  0  0
 17100  1  0  0  0
 18 19  2  0  0  0
 18101  1  0  0  0
 19 20  1  0  0  0
 19 24  1  0  0  0
 20 21  2  0  0  0
 20102  1  0  0  0
 21 23  1  0  0  0
 22 28  1  0  0  0
 22 32  2  0  0  0
 26 27  1  0  0  0
 28103  1  0  0  0
 28104  1  0  0  0
 29105  1  0  0  0
 29106  1  0  0  0
 33 34  1  0  0  0
 33 66  1  0  0  0
 33 70  2  0  0  0
 34 36  1  0  0  0
 34 59  1  0  0  0
 34107  1  0  0  0
 35 44  2  0  0  0
 35 45  1  0  0  0
 35 68  1  0  0  0
 36 56  1  0  0  0
 36108  1  0  0  0
 37 39  1  0  0  0
 37 47  1  0  0  0
 37 66  1  0  0  0
 37109  1  0  0  0
 38 43  2  0  0  0
 38 46  1  0  0  0
 38 47  1  0  0  0
 39 64  1  0  0  0
 39 67  2  0  0  0
 40 52  1  0  0  0
 40 53  2  0  0  0
 40 58  1  0  0  0
 41110  1  0  0  0
 41111  1  0  0  0
 41112  1  0  0  0
 41 48  1  0  0  0
 42 43  1  0  0  0
 42 66  1  0  0  0
 42113  1  0  0  0
 42114  1  0  0  0
 43 44  1  0  0  0
 44115  1  0  0  0
 45 46  2  0  0  0
 45116  1  0  0  0
 46117  1  0  0  0
 47118  1  0  0  0
 47119  1  0  0  0
 48 56  1  0  0  0
 48 65  1  0  0  0
 48120  1  0  0  0
 49 50  1  0  0  0
 49 53  1  0  0  0
 49 64  1  0  0  0
 49121  1  0  0  0
 50 51  1  0  0  0
 50122  1  0  0  0
 50123  1  0  0  0
 51 52  1  0  0  0
 51124  1  0  0  0
 51125  1  0  0  0
 52126  1  0  0  0
 52127  1  0  0  0
 53 54  1  0  0  0
 54 55  2  0  0  0
 54128  1  0  0  0
 55 57  1  0  0  0
 55129  1  0  0  0
 56 69  2  0  0  0
 57 58  2  0  0  0
 57130  1  0  0  0
 58131  1  0  0  0
 59 60  1  0  0  0
 59 61  1  0  0  0
 59 62  1  0  0  0
 60132  1  0  0  0
 60133  1  0  0  0
 60134  1  0  0  0
 61135  1  0  0  0
 61136  1  0  0  0
 61137  1  0  0  0
 62138  1  0  0  0
 62139  1  0  0  0
 62140  1  0  0  0
 63 65  1  0  0  0
 63141  1  0  0  0
 63142  1  0  0  0
 63143  1  0  0  0
 64144  1  0  0  0
 65145  1  0  0  0
 68 81  1  0  0  0
 71 72  2  0  0  0
 71 74  1  0  0  0
 71146  1  0  0  0
 72 75  1  0  0  0
 72147  1  0  0  0
 73 75  2  0  0  0
 73 76  1  0  0  0
 73148  1  0  0  0
 74 76  2  0  0  0
 74 82  1  0  0  0
 75 84  1  0  0  0
 76 86  1  0  0  0
 77 81  1  0  0  0
 77 83  1  0  0  0
 77 85  2  0  0  0
 78 79  1  0  0  0
 78 80  1  0  0  0
 78149  1  0  0  0
 78150  1  0  0  0
 79 81  1  0  0  0
 79151  1  0  0  0
 79152  1  0  0  0
 80 83  1  0  0  0
 80153  1  0  0  0
 80154  1  0  0  0
 81155  1  0  0  0
 82 83  1  0  0  0
 82156  1  0  0  0
 82157  1  0  0  0
 84158  1  0  0  0
M  ISO  4   1 100  68 101  81 101  84 100
M  END
> <chiral flag>
0

> <version>
0

> <s_m_source_file>
/data/baiqing/PycharmProjects/Reinvent-master-3.2/result/LINK_invent/BTK/process_docking_weight1_custom_product_contain_oxygen_bond_distance_aromatic_linkinvent_7_9_3/rearranged_h_0048.sdf

> <i_m_source_file_index>
61

> <r_mmod_Potential_Energy-OPLS-2005>
202.933334350586

> <r_mmod_Stretch_Energy-OPLS-2005>
106.001037597656

> <r_mmod_Bend_Energy-OPLS-2005>
159.222366333008

> <r_mmod_Torsional_Energy-OPLS-2005>
281.824401855469

> <r_mmod_Improper_Torsional_Energy-OPLS-2005>
4.84484529495239

> <r_mmod_Van_der_Waal_Energy-OPLS-2005>
141.881103515625

> <r_mmod_Electrostatic_Energy-OPLS-2005>
-328.339813232422

> <r_mmod_Solvation_Energy-OPLS-2005>
-223.76985168457

> <b_mmod_Minimization_Converged-OPLS-2005>
0

> <r_mmod_RMS_Derivative-OPLS-2005>
6.76123380661011

$$$$
61
                    3D
 Structure written by MMmdl.
161170  0  0  1  0            999 V2000
  -30.4989  -14.9534   20.4333 C   0  0  0  0  0  0
  -30.4523  -12.5901   19.4959 C   0  0  0  0  0  0
  -29.5269  -12.5422   18.2553 C   0  0  0  0  0  0
  -28.0573  -12.3244   18.6673 C   0  0  0  0  0  0
  -27.6343  -13.2412   19.8438 C   0  0  2  0  0  0
  -28.6786  -13.2370   20.9815 C   0  0  0  0  0  0
  -25.2420  -13.8123   20.5580 C   0  0  0  0  0  0
  -24.1778  -13.0381   20.9203 C   0  0  0  0  0  0
  -24.6405  -11.6874   20.8758 C   0  0  0  0  0  0
  -23.9085  -10.4259   21.0409 C   0  0  0  0  0  0
  -24.3634   -9.4179   21.9185 C   0  0  0  0  0  0
  -23.6302   -8.2213   22.0755 C   0  0  0  0  0  0
  -22.4280   -8.0265   21.3544 C   0  0  0  0  0  0
  -21.9925   -9.0232   20.4639 C   0  0  0  0  0  0
  -22.7259  -10.2110   20.3053 C   0  0  0  0  0  0
  -21.6846   -6.0727   22.5284 C   0  0  0  0  0  0
  -21.4010   -6.5637   23.8220 C   0  0  0  0  0  0
  -21.3660   -5.6787   24.9176 C   0  0  0  0  0  0
  -21.6041   -4.3049   24.7224 C   0  0  0  0  0  0
  -21.8823   -3.8150   23.4343 C   0  0  0  0  0  0
  -21.9189   -4.6960   22.3399 C   0  0  0  0  0  0
  -22.7800  -13.5172   21.1855 C   0  0  0  0  0  0
  -22.1663   -4.2145   21.0970 F   0  0  0  0  0  0
  -21.5626   -3.4535   25.7740 F   0  0  0  0  0  0
  -29.9576  -13.6682   20.3977 N   0  0  0  0  0  0
  -26.2895  -12.9386   20.3229 N   0  0  0  0  0  0
  -25.9349  -11.6530   20.5777 N   0  0  0  0  0  0
  -22.0457  -12.8162   22.0418 N   0  0  0  0  0  0
  -25.3909  -15.1808   20.3729 N   0  0  0  0  0  0
  -31.6902  -15.0820   20.1222 O   0  0  0  0  0  0
  -21.6639   -6.8870   21.4246 O   0  0  0  0  0  0
  -22.3482  -14.5465   20.6690 O   0  0  0  0  0  0
  -24.6438  -31.8449   23.1871 C   0  0  0  0  0  0
  -25.9209  -32.4684   23.8275 C   0  0  1  0  0  0
  -27.2286  -27.1450   20.1619 C   0  0  0  0  0  0
  -25.5983  -33.8493   24.2211 N   0  0  0  0  0  0
  -23.4481  -30.4605   21.5321 C   0  0  2  0  0  0
  -24.9017  -28.8815   20.1186 C   0  0  0  0  0  0
  -22.7568  -29.4544   22.4857 C   0  0  0  0  0  0
  -18.0301  -28.1372   22.8450 C   0  0  0  0  0  0
  -24.1498  -36.7233   23.2642 C   0  0  0  0  0  0
  -26.0031  -30.7211   21.3856 C   0  0  0  0  0  0
  -26.0784  -29.3311   20.7321 C   0  0  0  0  0  0
  -27.2468  -28.4799   20.7330 C   0  0  0  0  0  0
  -26.0263  -26.7896   19.5181 C   0  0  0  0  0  0
  -24.8865  -27.6230   19.4971 C   0  0  0  0  0  0
  -23.6771  -29.7830   20.1550 C   0  0  0  0  0  0
  -25.4121  -36.3015   24.0321 C   0  0  1  0  0  0
  -20.5915  -28.3706   23.1209 C   0  0  2  0  0  0
  -20.6782  -26.9408   22.5377 C   0  0  0  0  0  0
  -19.5763  -26.6364   21.5177 C   0  0  0  0  0  0
  -18.1943  -26.7912   22.1586 C   0  0  0  0  0  0
  -19.1557  -28.8850   23.2820 C   0  0  0  0  0  0
  -18.9486  -30.1440   23.8857 C   0  0  0  0  0  0
  -17.6491  -30.6574   24.0541 C   0  0  0  0  0  0
  -25.9079  -34.9391   23.5066 C   0  0  0  0  0  0
  -16.5374  -29.9067   23.6334 C   0  0  0  0  0  0
  -16.7290  -28.6477   23.0362 C   0  0  0  0  0  0
  -26.4559  -31.6559   25.0715 C   0  0  0  0  0  0
  -25.3758  -31.3723   26.1428 C   0  0  0  0  0  0
  -27.0442  -30.2965   24.6274 C   0  0  0  0  0  0
  -27.6101  -32.4331   25.7478 C   0  0  0  0  0  0
  -27.5578  -37.1763   24.8463 C   0  0  0  0  0  0
  -21.4262  -29.3050   22.3606 N   0  0  0  0  0  0
  -26.4277  -37.3738   23.9423 N   0  0  0  0  0  0
  -24.7173  -31.0299   22.0904 N   0  0  0  0  0  0
  -23.4196  -28.8095   23.3018 O   0  0  0  0  0  0
  -28.2875  -26.1714   20.1469 O   0  0  0  0  0  0
  -26.5634  -34.8895   22.4625 O   0  0  0  0  0  0
  -23.5553  -32.1322   23.7094 O   0  0  0  0  0  0
  -30.2894  -19.9922   20.0975 C   0  0  0  0  0  0
  -30.4844  -18.5420   20.0904 C   0  0  0  0  0  0
  -28.1599  -19.7312   21.0909 C   0  0  0  0  0  0
  -28.3677  -18.2783   21.1084 C   0  0  0  0  0  0
  -29.1228  -20.6827   20.5931 C   0  0  0  0  0  0
  -29.5428  -17.5895   20.6151 C   0  0  0  0  0  0
  -28.5342  -23.3173   20.1245 C   0  0  0  0  0  0
  -29.8961  -23.9805   22.4846 C   0  0  0  0  0  0
  -28.7118  -24.9201   22.2341 C   0  0  0  0  0  0
  -29.4892  -22.5133   22.2417 C   0  0  0  0  0  0
  -28.1154  -24.7810   20.8182 C   0  0  1  0  0  0
  -26.8380  -20.2800   21.6350 C   0  0  0  0  0  0
  -27.2601  -17.4358   21.7369 C   0  0  0  0  0  0
  -29.0349  -22.2032   20.8732 N   0  0  0  0  0  0
  -29.6231  -16.0474   20.6669 N   0  0  0  0  0  0
  -28.3572  -23.2054   18.9067 O   0  0  0  0  0  0
  -31.4830  -12.7677   19.1859 H   0  0  0  0  0  0
  -30.4570  -11.6297   20.0136 H   0  0  0  0  0  0
  -29.8427  -11.7513   17.5724 H   0  0  0  0  0  0
  -29.6123  -13.4790   17.7023 H   0  0  0  0  0  0
  -27.9463  -11.2780   18.9558 H   0  0  0  0  0  0
  -27.3965  -12.4751   17.8119 H   0  0  0  0  0  0
  -27.6044  -14.2498   19.4311 H   0  0  0  0  0  0
  -28.7660  -12.2452   21.4275 H   0  0  0  0  0  0
  -28.3779  -13.9059   21.7885 H   0  0  0  0  0  0
  -25.2769   -9.5643   22.4773 H   0  0  0  0  0  0
  -23.9993   -7.4607   22.7488 H   0  0  0  0  0  0
  -21.0851   -8.8755   19.8952 H   0  0  0  0  0  0
  -22.3716  -10.9648   19.6175 H   0  0  0  0  0  0
  -21.2012   -7.6151   23.9717 H   0  0  0  0  0  0
  -21.1478   -6.0520   25.9074 H   0  0  0  0  0  0
  -22.0600   -2.7609   23.2850 H   0  0  0  0  0  0
  -22.4102  -11.9845   22.4814 H   0  0  0  0  0  0
  -21.1069  -13.1179   22.2623 H   0  0  0  0  0  0
  -24.5946  -15.8039   20.4469 H   0  0  0  0  0  0
  -26.1876  -15.6112   19.9237 H   0  0  0  0  0  0
  -26.7277  -32.5309   23.1016 H   0  0  0  0  0  0
  -25.0225  -33.9636   25.0420 H   0  0  0  0  0  0
  -22.7492  -31.2837   21.3714 H   0  0  0  0  0  0
  -23.3797  -35.9528   23.3239 H   0  0  0  0  0  0
  -24.3604  -36.8937   22.2074 H   0  0  0  0  0  0
  -23.7222  -37.6387   23.6735 H   0  0  0  0  0  0
  -26.1570  -31.4756   20.6127 H   0  0  0  0  0  0
  -26.8719  -30.7737   22.0291 H   0  0  0  0  0  0
  -28.1491  -28.8254   21.2176 H   0  0  0  0  0  0
  -25.9587  -25.8245   19.0353 H   0  0  0  0  0  0
  -23.9879  -27.2730   19.0062 H   0  0  0  0  0  0
  -23.8130  -30.5536   19.3962 H   0  0  0  0  0  0
  -22.7946  -29.2208   19.8461 H   0  0  0  0  0  0
  -25.1308  -36.1839   25.0811 H   0  0  0  0  0  0
  -20.9973  -28.3290   24.1344 H   0  0  0  0  0  0
  -20.5646  -26.2320   23.3593 H   0  0  0  0  0  0
  -21.6654  -26.7398   22.1206 H   0  0  0  0  0  0
  -19.6940  -25.6267   21.1235 H   0  0  0  0  0  0
  -19.6726  -27.3138   20.6677 H   0  0  0  0  0  0
  -17.4213  -26.6641   21.3994 H   0  0  0  0  0  0
  -18.0348  -26.0056   22.8981 H   0  0  0  0  0  0
  -19.7974  -30.7231   24.2239 H   0  0  0  0  0  0
  -17.5064  -31.6266   24.5126 H   0  0  0  0  0  0
  -15.5379  -30.2960   23.7692 H   0  0  0  0  0  0
  -15.8686  -28.0786   22.7127 H   0  0  0  0  0  0
  -24.5926  -30.7089   25.7750 H   0  0  0  0  0  0
  -24.8970  -32.2895   26.4853 H   0  0  0  0  0  0
  -25.8054  -30.8894   27.0216 H   0  0  0  0  0  0
  -26.3063  -29.6642   24.1316 H   0  0  0  0  0  0
  -27.4142  -29.7296   25.4837 H   0  0  0  0  0  0
  -27.8934  -30.4236   23.9545 H   0  0  0  0  0  0
  -27.2741  -33.3719   26.1880 H   0  0  0  0  0  0
  -28.3968  -32.6726   25.0312 H   0  0  0  0  0  0
  -28.0684  -31.8553   26.5515 H   0  0  0  0  0  0
  -28.2534  -38.0113   24.7556 H   0  0  0  0  0  0
  -28.1124  -36.2640   24.6227 H   0  0  0  0  0  0
  -27.2295  -37.1321   25.8861 H   0  0  0  0  0  0
  -20.9468  -29.8803   21.6827 H   0  0  0  0  0  0
  -26.0135  -38.2794   24.1469 H   0  0  0  0  0  0
  -31.1056  -20.5981   19.7307 H   0  0  0  0  0  0
  -31.4099  -18.1657   19.6793 H   0  0  0  0  0  0
  -30.2511  -24.1009   23.5095 H   0  0  0  0  0  0
  -30.7326  -24.2508   21.8370 H   0  0  0  0  0  0
  -29.0322  -25.9475   22.4089 H   0  0  0  0  0  0
  -27.9368  -24.7270   22.9773 H   0  0  0  0  0  0
  -28.7042  -22.2368   22.9459 H   0  0  0  0  0  0
  -30.3421  -21.8758   22.4787 H   0  0  0  0  0  0
  -27.0394  -24.6714   20.9566 H   0  0  0  0  0  0
  -26.5435  -19.8072   22.5705 H   0  0  0  0  0  0
  -26.0465  -20.1084   20.9056 H   0  0  0  0  0  0
  -26.8541  -21.3476   21.8376 H   0  0  0  0  0  0
  -27.1501  -17.6840   22.7925 H   0  0  0  0  0  0
  -27.4195  -16.3612   21.7017 H   0  0  0  0  0  0
  -26.3126  -17.6361   21.2382 H   0  0  0  0  0  0
  -28.7319  -15.6623   20.9346 H   0  0  0  0  0  0
  1 25  1  0  0  0
  1 30  2  0  0  0
  1 85  1  0  0  0
  2  3  1  0  0  0
  2 25  1  0  0  0
  2 87  1  0  0  0
  2 88  1  0  0  0
  3  4  1  0  0  0
  3 89  1  0  0  0
  3 90  1  0  0  0
  4  5  1  0  0  0
  4 91  1  0  0  0
  4 92  1  0  0  0
  5  6  1  0  0  0
  5 26  1  0  0  0
  5 93  1  0  0  0
  6 25  1  0  0  0
  6 94  1  0  0  0
  6 95  1  0  0  0
  7  8  2  0  0  0
  7 26  1  0  0  0
  7 29  1  0  0  0
  8  9  1  0  0  0
  8 22  1  0  0  0
  9 10  1  0  0  0
  9 27  2  0  0  0
 10 11  2  0  0  0
 10 15  1  0  0  0
 11 12  1  0  0  0
 11 96  1  0  0  0
 12 13  2  0  0  0
 12 97  1  0  0  0
 13 14  1  0  0  0
 13 31  1  0  0  0
 14 15  2  0  0  0
 14 98  1  0  0  0
 15 99  1  0  0  0
 16 17  2  0  0  0
 16 21  1  0  0  0
 16 31  1  0  0  0
 17 18  1  0  0  0
 17100  1  0  0  0
 18 19  2  0  0  0
 18101  1  0  0  0
 19 20  1  0  0  0
 19 24  1  0  0  0
 20 21  2  0  0  0
 20102  1  0  0  0
 21 23  1  0  0  0
 22 28  1  0  0  0
 22 32  2  0  0  0
 26 27  1  0  0  0
 28103  1  0  0  0
 28104  1  0  0  0
 29105  1  0  0  0
 29106  1  0  0  0
 33 34  1  0  0  0
 33 66  1  0  0  0
 33 70  2  0  0  0
 34 36  1  0  0  0
 34 59  1  0  0  0
 34107  1  0  0  0
 35 44  2  0  0  0
 35 45  1  0  0  0
 35 68  1  0  0  0
 36 56  1  0  0  0
 36108  1  0  0  0
 37 39  1  0  0  0
 37 47  1  0  0  0
 37 66  1  0  0  0
 37109  1  0  0  0
 38 43  2  0  0  0
 38 46  1  0  0  0
 38 47  1  0  0  0
 39 64  1  0  0  0
 39 67  2  0  0  0
 40 52  1  0  0  0
 40 53  2  0  0  0
 40 58  1  0  0  0
 41110  1  0  0  0
 41111  1  0  0  0
 41112  1  0  0  0
 41 48  1  0  0  0
 42 43  1  0  0  0
 42 66  1  0  0  0
 42113  1  0  0  0
 42114  1  0  0  0
 43 44  1  0  0  0
 44115  1  0  0  0
 45 46  2  0  0  0
 45116  1  0  0  0
 46117  1  0  0  0
 47118  1  0  0  0
 47119  1  0  0  0
 48 56  1  0  0  0
 48 65  1  0  0  0
 48120  1  0  0  0
 49 50  1  0  0  0
 49 53  1  0  0  0
 49 64  1  0  0  0
 49121  1  0  0  0
 50 51  1  0  0  0
 50122  1  0  0  0
 50123  1  0  0  0
 51 52  1  0  0  0
 51124  1  0  0  0
 51125  1  0  0  0
 52126  1  0  0  0
 52127  1  0  0  0
 53 54  1  0  0  0
 54 55  2  0  0  0
 54128  1  0  0  0
 55 57  1  0  0  0
 55129  1  0  0  0
 56 69  2  0  0  0
 57 58  2  0  0  0
 57130  1  0  0  0
 58131  1  0  0  0
 59 60  1  0  0  0
 59 61  1  0  0  0
 59 62  1  0  0  0
 60132  1  0  0  0
 60133  1  0  0  0
 60134  1  0  0  0
 61135  1  0  0  0
 61136  1  0  0  0
 61137  1  0  0  0
 62138  1  0  0  0
 62139  1  0  0  0
 62140  1  0  0  0
 63 65  1  0  0  0
 63141  1  0  0  0
 63142  1  0  0  0
 63143  1  0  0  0
 64144  1  0  0  0
 65145  1  0  0  0
 68 81  1  0  0  0
 71 72  2  0  0  0
 71 75  1  0  0  0
 71146  1  0  0  0
 72 76  1  0  0  0
 72147  1  0  0  0
 73 74  1  0  0  0
 73 75  2  0  0  0
 73 82  1  0  0  0
 74 76  2  0  0  0
 74 83  1  0  0  0
 75 84  1  0  0  0
 76 85  1  0  0  0
 77 81  1  0  0  0
 77 84  1  0  0  0
 77 86  2  0  0  0
 78 79  1  0  0  0
 78 80  1  0  0  0
 78148  1  0  0  0
 78149  1  0  0  0
 79 81  1  0  0  0
 79150  1  0  0  0
 79151  1  0  0  0
 80 84  1  0  0  0
 80152  1  0  0  0
 80153  1  0  0  0
 81154  1  0  0  0
 82155  1  0  0  0
 82156  1  0  0  0
 82157  1  0  0  0
 83158  1  0  0  0
 83159  1  0  0  0
 83160  1  0  0  0
 85161  1  0  0  0
M  ISO  4   1 100  68 101  81 101  85 100
M  END
> <chiral flag>
0

> <version>
0

> <s_m_source_file>
/data/baiqing/PycharmProjects/Reinvent-master-3.2/result/LINK_invent/BTK/process_docking_weight1_custom_product_contain_oxygen_bond_distance_aromatic_linkinvent_7_9_3/rearranged_h_0048.sdf

> <i_m_source_file_index>
62

> <r_mmod_Potential_Energy-OPLS-2005>
627.040161132812

> <r_mmod_Stretch_Energy-OPLS-2005>
248.265396118164

> <r_mmod_Bend_Energy-OPLS-2005>
270.047271728516

> <r_mmod_Torsional_Energy-OPLS-2005>
324.918151855469

> <r_mmod_Improper_Torsional_Energy-OPLS-2005>
6.6896858215332

> <r_mmod_Van_der_Waal_Energy-OPLS-2005>
144.996505737305

> <r_mmod_Electrostatic_Energy-OPLS-2005>
-334.237396240234

> <r_mmod_Solvation_Energy-OPLS-2005>
-222.935852050781

> <b_mmod_Minimization_Converged-OPLS-2005>
0

> <r_mmod_RMS_Derivative-OPLS-2005>
2.41726684570312

$$$$
62
                    3D
 Structure written by MMmdl.
158167  0  0  1  0            999 V2000
  -30.6188  -14.6410   20.5807 C   0  0  0  0  0  0
  -30.4299  -12.4111   19.4758 C   0  0  0  0  0  0
  -29.5082  -12.5519   18.2451 C   0  0  0  0  0  0
  -28.0338  -12.3695   18.6479 C   0  0  0  0  0  0
  -27.6533  -13.2279   19.8827 C   0  0  2  0  0  0
  -28.6843  -13.0764   21.0228 C   0  0  0  0  0  0
  -25.2519  -13.8219   20.5719 C   0  0  0  0  0  0
  -24.1793  -13.0409   20.9193 C   0  0  0  0  0  0
  -24.6415  -11.6918   20.8722 C   0  0  0  0  0  0
  -23.9103  -10.4255   21.0408 C   0  0  0  0  0  0
  -24.3658   -9.4173   21.9190 C   0  0  0  0  0  0
  -23.6318   -8.2208   22.0757 C   0  0  0  0  0  0
  -22.4296   -8.0291   21.3560 C   0  0  0  0  0  0
  -21.9947   -9.0231   20.4641 C   0  0  0  0  0  0
  -22.7274  -10.2110   20.3050 C   0  0  0  0  0  0
  -21.6863   -6.0742   22.5274 C   0  0  0  0  0  0
  -21.4015   -6.5659   23.8212 C   0  0  0  0  0  0
  -21.3656   -5.6823   24.9157 C   0  0  0  0  0  0
  -21.6043   -4.3071   24.7248 C   0  0  0  0  0  0
  -21.8818   -3.8165   23.4340 C   0  0  0  0  0  0
  -21.9174   -4.6956   22.3388 C   0  0  0  0  0  0
  -22.7818  -13.5177   21.1859 C   0  0  0  0  0  0
  -22.1641   -4.2162   21.0972 F   0  0  0  0  0  0
  -21.5616   -3.4561   25.7730 F   0  0  0  0  0  0
  -30.0099  -13.4158   20.4830 N   0  0  0  0  0  0
  -26.2997  -12.9405   20.3415 N   0  0  0  0  0  0
  -25.9368  -11.6541   20.5800 N   0  0  0  0  0  0
  -22.0538  -12.8103   22.0438 N   0  0  0  0  0  0
  -25.4099  -15.1931   20.4149 N   0  0  0  0  0  0
  -31.7339  -14.8257   20.0824 O   0  0  0  0  0  0
  -21.6625   -6.8887   21.4258 O   0  0  0  0  0  0
  -22.3458  -14.5448   20.6715 O   0  0  0  0  0  0
  -24.6199  -31.8606   23.1989 C   0  0  0  0  0  0
  -25.9053  -32.4778   23.8342 C   0  0  1  0  0  0
  -27.2091  -27.3065   20.1855 C   0  0  0  0  0  0
  -25.5886  -33.8558   24.2280 N   0  0  0  0  0  0
  -23.4162  -30.4778   21.5355 C   0  0  2  0  0  0
  -24.8733  -28.9295   20.1105 C   0  0  0  0  0  0
  -22.7436  -29.4575   22.4873 C   0  0  0  0  0  0
  -18.0270  -28.1338   22.8436 C   0  0  0  0  0  0
  -24.1490  -36.7334   23.2630 C   0  0  0  0  0  0
  -25.9523  -30.7926   21.3712 C   0  0  0  0  0  0
  -26.0337  -29.4154   20.7254 C   0  0  0  0  0  0
  -27.2125  -28.6164   20.7482 C   0  0  0  0  0  0
  -26.0411  -26.8781   19.5217 C   0  0  0  0  0  0
  -24.8785  -27.6686   19.4925 C   0  0  0  0  0  0
  -23.6348  -29.8016   20.1544 C   0  0  0  0  0  0
  -25.4105  -36.3097   24.0335 C   0  0  1  0  0  0
  -20.5857  -28.3645   23.1238 C   0  0  2  0  0  0
  -20.6765  -26.9378   22.5358 C   0  0  0  0  0  0
  -19.5765  -26.6351   21.5129 C   0  0  0  0  0  0
  -18.1939  -26.7883   22.1570 C   0  0  0  0  0  0
  -19.1518  -28.8806   23.2833 C   0  0  0  0  0  0
  -18.9477  -30.1399   23.8875 C   0  0  0  0  0  0
  -17.6497  -30.6569   24.0535 C   0  0  0  0  0  0
  -25.9025  -34.9440   23.5103 C   0  0  0  0  0  0
  -16.5369  -29.9069   23.6329 C   0  0  0  0  0  0
  -16.7269  -28.6463   23.0368 C   0  0  0  0  0  0
  -26.4464  -31.6574   25.0708 C   0  0  0  0  0  0
  -25.3699  -31.3758   26.1462 C   0  0  0  0  0  0
  -27.0317  -30.2994   24.6151 C   0  0  0  0  0  0
  -27.5986  -32.4351   25.7507 C   0  0  0  0  0  0
  -27.5590  -37.1782   24.8435 C   0  0  0  0  0  0
  -21.4144  -29.3017   22.3643 N   0  0  0  0  0  0
  -26.4296  -37.3779   23.9396 N   0  0  0  0  0  0
  -24.6810  -31.0598   22.0942 N   0  0  0  0  0  0
  -23.4143  -28.8159   23.3001 O   0  0  0  0  0  0
  -28.2791  -26.4143   20.2808 O   0  0  0  0  0  0
  -26.5611  -34.8908   22.4675 O   0  0  0  0  0  0
  -23.5346  -32.1420   23.7286 O   0  0  0  0  0  0
  -28.7704  -19.2905   21.5952 C   0  0  0  0  0  0
  -29.0414  -17.9036   21.8575 C   0  0  0  0  0  0
  -29.7937  -19.0403   19.4297 C   0  0  0  0  0  0
  -29.1628  -19.9057   20.3680 C   0  0  0  0  0  0
  -29.7123  -17.0533   20.9191 C   0  0  0  0  0  0
  -30.0589  -17.6626   19.6785 C   0  0  0  0  0  0
  -28.2413  -23.8141   20.1534 C   0  0  0  0  0  0
  -28.8906  -23.7123   22.9893 C   0  0  0  0  0  0
  -28.7863  -25.1131   22.3526 C   0  0  0  0  0  0
  -29.4691  -22.6795   21.9998 C   0  0  0  0  0  0
  -28.0187  -25.1326   21.0084 C   0  0  1  0  0  0
  -28.8370  -21.3804   19.8792 C   0  0  0  0  0  0
  -28.7424  -22.6433   20.7142 N   0  0  0  0  0  0
  -29.9278  -15.6341   21.2371 N   0  0  0  0  0  0
  -27.8800  -23.8504   18.9705 O   0  0  0  0  0  0
  -30.6101  -16.9409   18.6721 F   0  0  0  0  0  0
  -31.4767  -12.5268   19.1882 H   0  0  0  0  0  0
  -30.3423  -11.4099   19.8981 H   0  0  0  0  0  0
  -29.7775  -11.8293   17.4737 H   0  0  0  0  0  0
  -29.6467  -13.5410   17.8045 H   0  0  0  0  0  0
  -27.8733  -11.3154   18.8695 H   0  0  0  0  0  0
  -27.3830  -12.6123   17.8068 H   0  0  0  0  0  0
  -27.6779  -14.2694   19.5609 H   0  0  0  0  0  0
  -28.6871  -12.0587   21.4151 H   0  0  0  0  0  0
  -28.4128  -13.7152   21.8683 H   0  0  0  0  0  0
  -25.2828   -9.5636   22.4763 H   0  0  0  0  0  0
  -24.0006   -7.4620   22.7499 H   0  0  0  0  0  0
  -21.0868   -8.8784   19.8955 H   0  0  0  0  0  0
  -22.3767  -10.9661   19.6154 H   0  0  0  0  0  0
  -21.2061   -7.6180   23.9722 H   0  0  0  0  0  0
  -21.1466   -6.0552   25.9084 H   0  0  0  0  0  0
  -22.0608   -2.7639   23.2848 H   0  0  0  0  0  0
  -22.4231  -11.9763   22.4763 H   0  0  0  0  0  0
  -21.1160  -13.1049   22.2720 H   0  0  0  0  0  0
  -24.6367  -15.8425   20.5079 H   0  0  0  0  0  0
  -26.2679  -15.6465   20.1275 H   0  0  0  0  0  0
  -26.7111  -32.5468   23.1059 H   0  0  0  0  0  0
  -25.0000  -33.9711   25.0432 H   0  0  0  0  0  0
  -22.7036  -31.2957   21.3772 H   0  0  0  0  0  0
  -23.3771  -35.9648   23.3275 H   0  0  0  0  0  0
  -24.3590  -36.8979   22.2049 H   0  0  0  0  0  0
  -23.7199  -37.6497   23.6706 H   0  0  0  0  0  0
  -26.0709  -31.5492   20.5956 H   0  0  0  0  0  0
  -26.8317  -30.8550   21.9976 H   0  0  0  0  0  0
  -28.1033  -28.9745   21.2417 H   0  0  0  0  0  0
  -26.0200  -25.9037   19.0562 H   0  0  0  0  0  0
  -23.9859  -27.2863   19.0143 H   0  0  0  0  0  0
  -23.7428  -30.5700   19.3865 H   0  0  0  0  0  0
  -22.7628  -29.2083   19.8703 H   0  0  0  0  0  0
  -25.1240  -36.1986   25.0839 H   0  0  0  0  0  0
  -20.9905  -28.3277   24.1378 H   0  0  0  0  0  0
  -20.5591  -26.2286   23.3574 H   0  0  0  0  0  0
  -21.6655  -26.7374   22.1222 H   0  0  0  0  0  0
  -19.6971  -25.6251   21.1210 H   0  0  0  0  0  0
  -19.6778  -27.3125   20.6635 H   0  0  0  0  0  0
  -17.4209  -26.6577   21.3997 H   0  0  0  0  0  0
  -18.0422  -25.9993   22.8944 H   0  0  0  0  0  0
  -19.7961  -30.7149   24.2298 H   0  0  0  0  0  0
  -17.5078  -31.6263   24.5138 H   0  0  0  0  0  0
  -15.5374  -30.2982   23.7651 H   0  0  0  0  0  0
  -15.8652  -28.0759   22.7132 H   0  0  0  0  0  0
  -24.5820  -30.7178   25.7813 H   0  0  0  0  0  0
  -24.8966  -32.2948   26.4897 H   0  0  0  0  0  0
  -25.7993  -30.8915   27.0227 H   0  0  0  0  0  0
  -26.2913  -29.6734   24.1150 H   0  0  0  0  0  0
  -27.4005  -29.7242   25.4637 H   0  0  0  0  0  0
  -27.8780  -30.4275   23.9411 H   0  0  0  0  0  0
  -27.2557  -33.3650   26.2056 H   0  0  0  0  0  0
  -28.3821  -32.6899   25.0370 H   0  0  0  0  0  0
  -28.0653  -31.8508   26.5428 H   0  0  0  0  0  0
  -28.2515  -38.0179   24.7550 H   0  0  0  0  0  0
  -28.1196  -36.2661   24.6196 H   0  0  0  0  0  0
  -27.2327  -37.1346   25.8853 H   0  0  0  0  0  0
  -20.9349  -29.8794   21.6905 H   0  0  0  0  0  0
  -26.0217  -38.2857   24.1464 H   0  0  0  0  0  0
  -28.2320  -19.8582   22.3457 H   0  0  0  0  0  0
  -28.6900  -17.4895   22.8023 H   0  0  0  0  0  0
  -30.0584  -19.4285   18.4527 H   0  0  0  0  0  0
  -27.9069  -23.3837   23.3335 H   0  0  0  0  0  0
  -29.5180  -23.7538   23.8841 H   0  0  0  0  0  0
  -29.7888  -25.5143   22.1984 H   0  0  0  0  0  0
  -28.2896  -25.7763   23.0694 H   0  0  0  0  0  0
  -29.4657  -21.7068   22.4863 H   0  0  0  0  0  0
  -30.5232  -22.8964   21.7989 H   0  0  0  0  0  0
  -26.9572  -25.0731   21.2774 H   0  0  0  0  0  0
  -27.9080  -21.3015   19.3074 H   0  0  0  0  0  0
  -29.6036  -21.6133   19.1307 H   0  0  0  0  0  0
  -29.3554  -15.2876   21.9924 H   0  0  0  0  0  0
  1 25  1  0  0  0
  1 30  2  0  0  0
  1 84  1  0  0  0
  2  3  1  0  0  0
  2 25  1  0  0  0
  2 87  1  0  0  0
  2 88  1  0  0  0
  3  4  1  0  0  0
  3 89  1  0  0  0
  3 90  1  0  0  0
  4  5  1  0  0  0
  4 91  1  0  0  0
  4 92  1  0  0  0
  5  6  1  0  0  0
  5 26  1  0  0  0
  5 93  1  0  0  0
  6 25  1  0  0  0
  6 94  1  0  0  0
  6 95  1  0  0  0
  7  8  2  0  0  0
  7 26  1  0  0  0
  7 29  1  0  0  0
  8  9  1  0  0  0
  8 22  1  0  0  0
  9 10  1  0  0  0
  9 27  2  0  0  0
 10 11  2  0  0  0
 10 15  1  0  0  0
 11 12  1  0  0  0
 11 96  1  0  0  0
 12 13  2  0  0  0
 12 97  1  0  0  0
 13 14  1  0  0  0
 13 31  1  0  0  0
 14 15  2  0  0  0
 14 98  1  0  0  0
 15 99  1  0  0  0
 16 17  2  0  0  0
 16 21  1  0  0  0
 16 31  1  0  0  0
 17 18  1  0  0  0
 17100  1  0  0  0
 18 19  2  0  0  0
 18101  1  0  0  0
 19 20  1  0  0  0
 19 24  1  0  0  0
 20 21  2  0  0  0
 20102  1  0  0  0
 21 23  1  0  0  0
 22 28  1  0  0  0
 22 32  2  0  0  0
 26 27  1  0  0  0
 28103  1  0  0  0
 28104  1  0  0  0
 29105  1  0  0  0
 29106  1  0  0  0
 33 34  1  0  0  0
 33 66  1  0  0  0
 33 70  2  0  0  0
 34 36  1  0  0  0
 34 59  1  0  0  0
 34107  1  0  0  0
 35 44  2  0  0  0
 35 45  1  0  0  0
 35 68  1  0  0  0
 36 56  1  0  0  0
 36108  1  0  0  0
 37 39  1  0  0  0
 37 47  1  0  0  0
 37 66  1  0  0  0
 37109  1  0  0  0
 38 43  2  0  0  0
 38 46  1  0  0  0
 38 47  1  0  0  0
 39 64  1  0  0  0
 39 67  2  0  0  0
 40 52  1  0  0  0
 40 53  2  0  0  0
 40 58  1  0  0  0
 41110  1  0  0  0
 41111  1  0  0  0
 41112  1  0  0  0
 41 48  1  0  0  0
 42 43  1  0  0  0
 42 66  1  0  0  0
 42113  1  0  0  0
 42114  1  0  0  0
 43 44  1  0  0  0
 44115  1  0  0  0
 45 46  2  0  0  0
 45116  1  0  0  0
 46117  1  0  0  0
 47118  1  0  0  0
 47119  1  0  0  0
 48 56  1  0  0  0
 48 65  1  0  0  0
 48120  1  0  0  0
 49 50  1  0  0  0
 49 53  1  0  0  0
 49 64  1  0  0  0
 49121  1  0  0  0
 50 51  1  0  0  0
 50122  1  0  0  0
 50123  1  0  0  0
 51 52  1  0  0  0
 51124  1  0  0  0
 51125  1  0  0  0
 52126  1  0  0  0
 52127  1  0  0  0
 53 54  1  0  0  0
 54 55  2  0  0  0
 54128  1  0  0  0
 55 57  1  0  0  0
 55129  1  0  0  0
 56 69  2  0  0  0
 57 58  2  0  0  0
 57130  1  0  0  0
 58131  1  0  0  0
 59 60  1  0  0  0
 59 61  1  0  0  0
 59 62  1  0  0  0
 60132  1  0  0  0
 60133  1  0  0  0
 60134  1  0  0  0
 61135  1  0  0  0
 61136  1  0  0  0
 61137  1  0  0  0
 62138  1  0  0  0
 62139  1  0  0  0
 62140  1  0  0  0
 63 65  1  0  0  0
 63141  1  0  0  0
 63142  1  0  0  0
 63143  1  0  0  0
 64144  1  0  0  0
 65145  1  0  0  0
 68 81  1  0  0  0
 71 72  2  0  0  0
 71 74  1  0  0  0
 71146  1  0  0  0
 72 75  1  0  0  0
 72147  1  0  0  0
 73 74  2  0  0  0
 73 76  1  0  0  0
 73148  1  0  0  0
 74 82  1  0  0  0
 75 76  2  0  0  0
 75 84  1  0  0  0
 76 86  1  0  0  0
 77 81  1  0  0  0
 77 83  1  0  0  0
 77 85  2  0  0  0
 78 79  1  0  0  0
 78 80  1  0  0  0
 78149  1  0  0  0
 78150  1  0  0  0
 79 81  1  0  0  0
 79151  1  0  0  0
 79152  1  0  0  0
 80 83  1  0  0  0
 80153  1  0  0  0
 80154  1  0  0  0
 81155  1  0  0  0
 82 83  1  0  0  0
 82156  1  0  0  0
 82157  1  0  0  0
 84158  1  0  0  0
M  ISO  4   1 100  68 101  81 101  84 100
M  END
> <chiral flag>
0

> <version>
0

> <s_m_source_file>
/data/baiqing/PycharmProjects/Reinvent-master-3.2/result/LINK_invent/BTK/process_docking_weight1_custom_product_contain_oxygen_bond_distance_aromatic_linkinvent_7_9_3/rearranged_h_0048.sdf

> <i_m_source_file_index>
63

> <r_mmod_Potential_Energy-OPLS-2005>
136.564071655273

> <r_mmod_Stretch_Energy-OPLS-2005>
96.2804489135742

> <r_mmod_Bend_Energy-OPLS-2005>
153.508163452148

> <r_mmod_Torsional_Energy-OPLS-2005>
271.160583496094

> <r_mmod_Improper_Torsional_Energy-OPLS-2005>
4.07909440994263

> <r_mmod_Van_der_Waal_Energy-OPLS-2005>
147.186889648438

> <r_mmod_Electrostatic_Energy-OPLS-2005>
-358.266540527344

> <r_mmod_Solvation_Energy-OPLS-2005>
-236.299697875977

> <b_mmod_Minimization_Converged-OPLS-2005>
0

> <r_mmod_RMS_Derivative-OPLS-2005>
8.3674373626709

$$$$
63
                    3D
 Structure written by MMmdl.
161170  0  0  1  0            999 V2000
  -30.5980  -14.6509   20.5141 C   0  0  0  0  0  0
  -30.4466  -12.4042   19.4478 C   0  0  0  0  0  0
  -29.5125  -12.5249   18.2211 C   0  0  0  0  0  0
  -28.0329  -12.3608   18.6268 C   0  0  0  0  0  0
  -27.6567  -13.2164   19.8655 C   0  0  2  0  0  0
  -28.7000  -13.0424   20.9917 C   0  0  0  0  0  0
  -25.2563  -13.8167   20.5678 C   0  0  0  0  0  0
  -24.1818  -13.0428   20.9150 C   0  0  0  0  0  0
  -24.6386  -11.6902   20.8691 C   0  0  0  0  0  0
  -23.9050  -10.4287   21.0371 C   0  0  0  0  0  0
  -24.3604   -9.4206   21.9150 C   0  0  0  0  0  0
  -23.6286   -8.2238   22.0730 C   0  0  0  0  0  0
  -22.4266   -8.0268   21.3534 C   0  0  0  0  0  0
  -21.9892   -9.0233   20.4634 C   0  0  0  0  0  0
  -22.7215  -10.2115   20.3035 C   0  0  0  0  0  0
  -21.6853   -6.0720   22.5275 C   0  0  0  0  0  0
  -21.4021   -6.5626   23.8205 C   0  0  0  0  0  0
  -21.3660   -5.6780   24.9168 C   0  0  0  0  0  0
  -21.6045   -4.3042   24.7225 C   0  0  0  0  0  0
  -21.8822   -3.8132   23.4346 C   0  0  0  0  0  0
  -21.9192   -4.6950   22.3402 C   0  0  0  0  0  0
  -22.7839  -13.5217   21.1825 C   0  0  0  0  0  0
  -22.1661   -4.2133   21.0980 F   0  0  0  0  0  0
  -21.5628   -3.4528   25.7738 F   0  0  0  0  0  0
  -30.0165  -13.4090   20.4423 N   0  0  0  0  0  0
  -26.3000  -12.9348   20.3305 N   0  0  0  0  0  0
  -25.9319  -11.6499   20.5700 N   0  0  0  0  0  0
  -22.0493  -12.8224   22.0402 N   0  0  0  0  0  0
  -25.4285  -15.1888   20.4147 N   0  0  0  0  0  0
  -31.7311  -14.8553   20.0658 O   0  0  0  0  0  0
  -21.6637   -6.8862   21.4235 O   0  0  0  0  0  0
  -22.3510  -14.5511   20.6657 O   0  0  0  0  0  0
  -24.6264  -31.8570   23.1987 C   0  0  0  0  0  0
  -25.9114  -32.4753   23.8314 C   0  0  1  0  0  0
  -27.2366  -27.3075   20.1108 C   0  0  0  0  0  0
  -25.5928  -33.8557   24.2241 N   0  0  0  0  0  0
  -23.4206  -30.4774   21.5398 C   0  0  2  0  0  0
  -24.8694  -28.9258   20.1066 C   0  0  0  0  0  0
  -22.7476  -29.4603   22.4914 C   0  0  0  0  0  0
  -18.0288  -28.1385   22.8482 C   0  0  0  0  0  0
  -24.1487  -36.7274   23.2645 C   0  0  0  0  0  0
  -25.9610  -30.7808   21.3735 C   0  0  0  0  0  0
  -26.0341  -29.4067   20.7150 C   0  0  0  0  0  0
  -27.2137  -28.6059   20.7121 C   0  0  0  0  0  0
  -26.0446  -26.8719   19.4900 C   0  0  0  0  0  0
  -24.8764  -27.6630   19.4879 C   0  0  0  0  0  0
  -23.6365  -29.8071   20.1556 C   0  0  0  0  0  0
  -25.4116  -36.3063   24.0324 C   0  0  1  0  0  0
  -20.5886  -28.3683   23.1279 C   0  0  2  0  0  0
  -20.6768  -26.9402   22.5418 C   0  0  0  0  0  0
  -19.5752  -26.6378   21.5211 C   0  0  0  0  0  0
  -18.1930  -26.7930   22.1615 C   0  0  0  0  0  0
  -19.1541  -28.8853   23.2877 C   0  0  0  0  0  0
  -18.9468  -30.1456   23.8888 C   0  0  0  0  0  0
  -17.6471  -30.6592   24.0556 C   0  0  0  0  0  0
  -25.9056  -34.9437   23.5086 C   0  0  0  0  0  0
  -16.5360  -29.9089   23.6329 C   0  0  0  0  0  0
  -16.7277  -28.6508   23.0348 C   0  0  0  0  0  0
  -26.4503  -31.6580   25.0698 C   0  0  0  0  0  0
  -25.3751  -31.3723   26.1438 C   0  0  0  0  0  0
  -27.0357  -30.3004   24.6169 C   0  0  0  0  0  0
  -27.6042  -32.4341   25.7479 C   0  0  0  0  0  0
  -27.5571  -37.1796   24.8462 C   0  0  0  0  0  0
  -21.4188  -29.3027   22.3664 N   0  0  0  0  0  0
  -26.4281  -37.3767   23.9409 N   0  0  0  0  0  0
  -24.6876  -31.0566   22.0934 N   0  0  0  0  0  0
  -23.4196  -28.8160   23.3013 O   0  0  0  0  0  0
  -28.3841  -26.4973   20.1926 O   0  0  0  0  0  0
  -26.5630  -34.8916   22.4652 O   0  0  0  0  0  0
  -23.5429  -32.1375   23.7313 O   0  0  0  0  0  0
  -29.3607  -19.3276   21.8994 C   0  0  0  0  0  0
  -29.6953  -17.9462   21.9949 C   0  0  0  0  0  0
  -29.5471  -17.7490   19.6080 C   0  0  0  0  0  0
  -29.0421  -19.9627   20.6688 C   0  0  0  0  0  0
  -29.1814  -19.1360   19.5078 C   0  0  0  0  0  0
  -29.7699  -17.1035   20.8569 C   0  0  0  0  0  0
  -28.1332  -23.8776   20.2741 C   0  0  0  0  0  0
  -30.8858  -24.0340   19.6517 C   0  0  0  0  0  0
  -30.0341  -25.1365   18.9990 C   0  0  0  0  0  0
  -30.1839  -22.6688   19.5505 C   0  0  0  0  0  0
  -28.5624  -25.1980   19.4879 C   0  0  2  0  0  0
  -28.8664  -19.6889   18.1286 C   0  0  0  0  0  0
  -28.3224  -21.3808   20.7113 C   0  0  0  0  0  0
  -28.8528  -22.6915   20.1652 N   0  0  0  0  0  0
  -29.8176  -15.6486   21.0385 N   0  0  0  0  0  0
  -27.0946  -23.9237   20.9407 O   0  0  0  0  0  0
  -31.4863  -12.5431   19.1456 H   0  0  0  0  0  0
  -30.3948  -11.4017   19.8763 H   0  0  0  0  0  0
  -29.7798  -11.7822   17.4682 H   0  0  0  0  0  0
  -29.6523  -13.4977   17.7472 H   0  0  0  0  0  0
  -27.8619  -11.3055   18.8412 H   0  0  0  0  0  0
  -27.3819  -12.6072   17.7862 H   0  0  0  0  0  0
  -27.6827  -14.2577   19.5418 H   0  0  0  0  0  0
  -28.7139  -12.0068   21.3348 H   0  0  0  0  0  0
  -28.4375  -13.6344   21.8685 H   0  0  0  0  0  0
  -25.2763   -9.5686   22.4696 H   0  0  0  0  0  0
  -24.0004   -7.4638   22.7455 H   0  0  0  0  0  0
  -21.0815   -8.8745   19.8955 H   0  0  0  0  0  0
  -22.3665  -10.9634   19.6129 H   0  0  0  0  0  0
  -21.2025   -7.6137   23.9709 H   0  0  0  0  0  0
  -21.1477   -6.0506   25.9066 H   0  0  0  0  0  0
  -22.0607   -2.7597   23.2846 H   0  0  0  0  0  0
  -22.4137  -11.9925   22.4845 H   0  0  0  0  0  0
  -21.1090  -13.1210   22.2574 H   0  0  0  0  0  0
  -24.6665  -15.8474   20.5367 H   0  0  0  0  0  0
  -26.2903  -15.6314   20.1211 H   0  0  0  0  0  0
  -26.7177  -32.5412   23.1051 H   0  0  0  0  0  0
  -25.0065  -33.9689   25.0380 H   0  0  0  0  0  0
  -22.7150  -31.2976   21.3935 H   0  0  0  0  0  0
  -23.3747  -35.9608   23.3315 H   0  0  0  0  0  0
  -24.3571  -36.8891   22.2056 H   0  0  0  0  0  0
  -23.7249  -37.6478   23.6669 H   0  0  0  0  0  0
  -26.0997  -31.5457   20.6084 H   0  0  0  0  0  0
  -26.8391  -30.8248   22.0061 H   0  0  0  0  0  0
  -28.1061  -28.9687   21.2018 H   0  0  0  0  0  0
  -25.9796  -25.8975   19.0305 H   0  0  0  0  0  0
  -23.9797  -27.2828   19.0180 H   0  0  0  0  0  0
  -23.7557  -30.5813   19.3968 H   0  0  0  0  0  0
  -22.7566  -29.2362   19.8539 H   0  0  0  0  0  0
  -25.1305  -36.1894   25.0817 H   0  0  0  0  0  0
  -20.9972  -28.3269   24.1402 H   0  0  0  0  0  0
  -20.5646  -26.2303   23.3626 H   0  0  0  0  0  0
  -21.6645  -26.7420   22.1232 H   0  0  0  0  0  0
  -19.6908  -25.6287   21.1250 H   0  0  0  0  0  0
  -19.6692  -27.3183   20.6736 H   0  0  0  0  0  0
  -17.4199  -26.6674   21.4016 H   0  0  0  0  0  0
  -18.0322  -26.0078   22.9018 H   0  0  0  0  0  0
  -19.7953  -30.7266   24.2250 H   0  0  0  0  0  0
  -17.5036  -31.6269   24.5163 H   0  0  0  0  0  0
  -15.5362  -30.2988   23.7665 H   0  0  0  0  0  0
  -15.8675  -28.0828   22.7057 H   0  0  0  0  0  0
  -24.5912  -30.7084   25.7779 H   0  0  0  0  0  0
  -24.8968  -32.2897   26.4883 H   0  0  0  0  0  0
  -25.8101  -30.8892   27.0198 H   0  0  0  0  0  0
  -26.2933  -29.6747   24.1206 H   0  0  0  0  0  0
  -27.4062  -29.7270   25.4674 H   0  0  0  0  0  0
  -27.8799  -30.4280   23.9390 H   0  0  0  0  0  0
  -27.2617  -33.3631   26.2048 H   0  0  0  0  0  0
  -28.3861  -32.6926   25.0327 H   0  0  0  0  0  0
  -28.0707  -31.8488   26.5411 H   0  0  0  0  0  0
  -28.2593  -38.0089   24.7502 H   0  0  0  0  0  0
  -28.1063  -36.2620   24.6293 H   0  0  0  0  0  0
  -27.2293  -37.1457   25.8867 H   0  0  0  0  0  0
  -20.9369  -29.8741   21.6865 H   0  0  0  0  0  0
  -26.0152  -38.2835   24.1416 H   0  0  0  0  0  0
  -29.2609  -19.8891   22.8186 H   0  0  0  0  0  0
  -29.8360  -17.5200   22.9790 H   0  0  0  0  0  0
  -29.5657  -17.1519   18.7065 H   0  0  0  0  0  0
  -31.0706  -24.2785   20.6996 H   0  0  0  0  0  0
  -31.8654  -23.9850   19.1738 H   0  0  0  0  0  0
  -30.0365  -24.9769   17.9195 H   0  0  0  0  0  0
  -30.5214  -26.1000   19.1496 H   0  0  0  0  0  0
  -30.8072  -21.9144   20.0310 H   0  0  0  0  0  0
  -30.0871  -22.3760   18.5044 H   0  0  0  0  0  0
  -27.9603  -25.2202   18.5804 H   0  0  0  0  0  0
  -28.5713  -18.8932   17.4435 H   0  0  0  0  0  0
  -29.7469  -20.1745   17.7082 H   0  0  0  0  0  0
  -28.0522  -20.4118   18.1551 H   0  0  0  0  0  0
  -28.0869  -21.5739   21.7588 H   0  0  0  0  0  0
  -27.3459  -21.2270   20.2507 H   0  0  0  0  0  0
  -29.0291  -15.2803   21.5494 H   0  0  0  0  0  0
  1 25  1  0  0  0
  1 30  2  0  0  0
  1 85  1  0  0  0
  2  3  1  0  0  0
  2 25  1  0  0  0
  2 87  1  0  0  0
  2 88  1  0  0  0
  3  4  1  0  0  0
  3 89  1  0  0  0
  3 90  1  0  0  0
  4  5  1  0  0  0
  4 91  1  0  0  0
  4 92  1  0  0  0
  5  6  1  0  0  0
  5 26  1  0  0  0
  5 93  1  0  0  0
  6 25  1  0  0  0
  6 94  1  0  0  0
  6 95  1  0  0  0
  7  8  2  0  0  0
  7 26  1  0  0  0
  7 29  1  0  0  0
  8  9  1  0  0  0
  8 22  1  0  0  0
  9 10  1  0  0  0
  9 27  2  0  0  0
 10 11  2  0  0  0
 10 15  1  0  0  0
 11 12  1  0  0  0
 11 96  1  0  0  0
 12 13  2  0  0  0
 12 97  1  0  0  0
 13 14  1  0  0  0
 13 31  1  0  0  0
 14 15  2  0  0  0
 14 98  1  0  0  0
 15 99  1  0  0  0
 16 17  2  0  0  0
 16 21  1  0  0  0
 16 31  1  0  0  0
 17 18  1  0  0  0
 17100  1  0  0  0
 18 19  2  0  0  0
 18101  1  0  0  0
 19 20  1  0  0  0
 19 24  1  0  0  0
 20 21  2  0  0  0
 20102  1  0  0  0
 21 23  1  0  0  0
 22 28  1  0  0  0
 22 32  2  0  0  0
 26 27  1  0  0  0
 28103  1  0  0  0
 28104  1  0  0  0
 29105  1  0  0  0
 29106  1  0  0  0
 33 34  1  0  0  0
 33 66  1  0  0  0
 33 70  2  0  0  0
 34 36  1  0  0  0
 34 59  1  0  0  0
 34107  1  0  0  0
 35 44  2  0  0  0
 35 45  1  0  0  0
 35 68  1  0  0  0
 36 56  1  0  0  0
 36108  1  0  0  0
 37 39  1  0  0  0
 37 47  1  0  0  0
 37 66  1  0  0  0
 37109  1  0  0  0
 38 43  2  0  0  0
 38 46  1  0  0  0
 38 47  1  0  0  0
 39 64  1  0  0  0
 39 67  2  0  0  0
 40 52  1  0  0  0
 40 53  2  0  0  0
 40 58  1  0  0  0
 41110  1  0  0  0
 41111  1  0  0  0
 41112  1  0  0  0
 41 48  1  0  0  0
 42 43  1  0  0  0
 42 66  1  0  0  0
 42113  1  0  0  0
 42114  1  0  0  0
 43 44  1  0  0  0
 44115  1  0  0  0
 45 46  2  0  0  0
 45116  1  0  0  0
 46117  1  0  0  0
 47118  1  0  0  0
 47119  1  0  0  0
 48 56  1  0  0  0
 48 65  1  0  0  0
 48120  1  0  0  0
 49 50  1  0  0  0
 49 53  1  0  0  0
 49 64  1  0  0  0
 49121  1  0  0  0
 50 51  1  0  0  0
 50122  1  0  0  0
 50123  1  0  0  0
 51 52  1  0  0  0
 51124  1  0  0  0
 51125  1  0  0  0
 52126  1  0  0  0
 52127  1  0  0  0
 53 54  1  0  0  0
 54 55  2  0  0  0
 54128  1  0  0  0
 55 57  1  0  0  0
 55129  1  0  0  0
 56 69  2  0  0  0
 57 58  2  0  0  0
 57130  1  0  0  0
 58131  1  0  0  0
 59 60  1  0  0  0
 59 61  1  0  0  0
 59 62  1  0  0  0
 60132  1  0  0  0
 60133  1  0  0  0
 60134  1  0  0  0
 61135  1  0  0  0
 61136  1  0  0  0
 61137  1  0  0  0
 62138  1  0  0  0
 62139  1  0  0  0
 62140  1  0  0  0
 63 65  1  0  0  0
 63141  1  0  0  0
 63142  1  0  0  0
 63143  1  0  0  0
 64144  1  0  0  0
 65145  1  0  0  0
 68 81  1  0  0  0
 71 72  2  0  0  0
 71 74  1  0  0  0
 71146  1  0  0  0
 72 76  1  0  0  0
 72147  1  0  0  0
 73 75  1  0  0  0
 73 76  2  0  0  0
 73148  1  0  0  0
 74 75  2  0  0  0
 74 83  1  0  0  0
 75 82  1  0  0  0
 76 85  1  0  0  0
 77 81  1  0  0  0
 77 84  1  0  0  0
 77 86  2  0  0  0
 78 79  1  0  0  0
 78 80  1  0  0  0
 78149  1  0  0  0
 78150  1  0  0  0
 79 81  1  0  0  0
 79151  1  0  0  0
 79152  1  0  0  0
 80 84  1  0  0  0
 80153  1  0  0  0
 80154  1  0  0  0
 81155  1  0  0  0
 82156  1  0  0  0
 82157  1  0  0  0
 82158  1  0  0  0
 83 84  1  0  0  0
 83159  1  0  0  0
 83160  1  0  0  0
 85161  1  0  0  0
M  ISO  4   1 100  68 101  81 101  85 100
M  END
> <chiral flag>
0

> <version>
0

> <s_m_source_file>
/data/baiqing/PycharmProjects/Reinvent-master-3.2/result/LINK_invent/BTK/process_docking_weight1_custom_product_contain_oxygen_bond_distance_aromatic_linkinvent_7_9_3/rearranged_h_0048.sdf

> <i_m_source_file_index>
64

> <r_mmod_Potential_Energy-OPLS-2005>
173.306228637695

> <r_mmod_Stretch_Energy-OPLS-2005>
94.7043380737305

> <r_mmod_Bend_Energy-OPLS-2005>
168.754257202148

> <r_mmod_Torsional_Energy-OPLS-2005>
274.311218261719

> <r_mmod_Improper_Torsional_Energy-OPLS-2005>
6.43611001968384

> <r_mmod_Van_der_Waal_Energy-OPLS-2005>
146.141632080078

> <r_mmod_Electrostatic_Energy-OPLS-2005>
-336.319671630859

> <r_mmod_Solvation_Energy-OPLS-2005>
-232.14079284668

> <b_mmod_Minimization_Converged-OPLS-2005>
0

> <r_mmod_RMS_Derivative-OPLS-2005>
1.53249526023865

$$$$
64
                    3D
 Structure written by MMmdl.
161170  0  0  1  0            999 V2000
  -30.7046  -14.4952   20.5157 C   0  0  0  0  0  0
  -30.4165  -12.3024   19.4420 C   0  0  0  0  0  0
  -29.4969  -12.4931   18.2182 C   0  0  0  0  0  0
  -28.0175  -12.3578   18.6283 C   0  0  0  0  0  0
  -27.6587  -13.2131   19.8738 C   0  0  2  0  0  0
  -28.7025  -13.0337   21.0020 C   0  0  0  0  0  0
  -25.2569  -13.8177   20.5686 C   0  0  0  0  0  0
  -24.1832  -13.0444   20.9184 C   0  0  0  0  0  0
  -24.6397  -11.6914   20.8745 C   0  0  0  0  0  0
  -23.9065  -10.4292   21.0411 C   0  0  0  0  0  0
  -24.3617   -9.4205   21.9189 C   0  0  0  0  0  0
  -23.6292   -8.2242   22.0758 C   0  0  0  0  0  0
  -22.4277   -8.0282   21.3544 C   0  0  0  0  0  0
  -21.9907   -9.0252   20.4646 C   0  0  0  0  0  0
  -22.7237  -10.2130   20.3059 C   0  0  0  0  0  0
  -21.6851   -6.0734   22.5276 C   0  0  0  0  0  0
  -21.4013   -6.5640   23.8208 C   0  0  0  0  0  0
  -21.3660   -5.6796   24.9172 C   0  0  0  0  0  0
  -21.6046   -4.3059   24.7226 C   0  0  0  0  0  0
  -21.8820   -3.8145   23.4349 C   0  0  0  0  0  0
  -21.9189   -4.6959   22.3401 C   0  0  0  0  0  0
  -22.7848  -13.5227   21.1844 C   0  0  0  0  0  0
  -22.1658   -4.2145   21.0979 F   0  0  0  0  0  0
  -21.5631   -3.4547   25.7741 F   0  0  0  0  0  0
  -30.0331  -13.3137   20.4411 N   0  0  0  0  0  0
  -26.3012  -12.9361   20.3380 N   0  0  0  0  0  0
  -25.9331  -11.6512   20.5793 N   0  0  0  0  0  0
  -22.0491  -12.8218   22.0400 N   0  0  0  0  0  0
  -25.4272  -15.1898   20.4078 N   0  0  0  0  0  0
  -31.8614  -14.6244   20.1091 O   0  0  0  0  0  0
  -21.6642   -6.8878   21.4238 O   0  0  0  0  0  0
  -22.3525  -14.5529   20.6691 O   0  0  0  0  0  0
  -24.6180  -31.8675   23.2121 C   0  0  0  0  0  0
  -25.9066  -32.4821   23.8411 C   0  0  1  0  0  0
  -27.2218  -27.4106   20.0967 C   0  0  0  0  0  0
  -25.5915  -33.8624   24.2337 N   0  0  0  0  0  0
  -23.4056  -30.4945   21.5541 C   0  0  2  0  0  0
  -24.8494  -28.9678   20.1102 C   0  0  0  0  0  0
  -22.7420  -29.4664   22.4995 C   0  0  0  0  0  0
  -18.0268  -28.1378   22.8497 C   0  0  0  0  0  0
  -24.1486  -36.7312   23.2640 C   0  0  0  0  0  0
  -25.9395  -30.8259   21.3702 C   0  0  0  0  0  0
  -26.0140  -29.4625   20.7109 C   0  0  0  0  0  0
  -27.2045  -28.6930   20.6995 C   0  0  0  0  0  0
  -26.0408  -26.9547   19.4632 C   0  0  0  0  0  0
  -24.8601  -27.7149   19.4808 C   0  0  0  0  0  0
  -23.6127  -29.8353   20.1661 C   0  0  0  0  0  0
  -25.4108  -36.3113   24.0338 C   0  0  1  0  0  0
  -20.5864  -28.3672   23.1312 C   0  0  2  0  0  0
  -20.6767  -26.9408   22.5415 C   0  0  0  0  0  0
  -19.5744  -26.6386   21.5216 C   0  0  0  0  0  0
  -18.1918  -26.7925   22.1623 C   0  0  0  0  0  0
  -19.1520  -28.8841   23.2900 C   0  0  0  0  0  0
  -18.9448  -30.1445   23.8912 C   0  0  0  0  0  0
  -17.6451  -30.6586   24.0568 C   0  0  0  0  0  0
  -25.9038  -34.9476   23.5133 C   0  0  0  0  0  0
  -16.5341  -29.9091   23.6333 C   0  0  0  0  0  0
  -16.7255  -28.6505   23.0357 C   0  0  0  0  0  0
  -26.4480  -31.6604   25.0746 C   0  0  0  0  0  0
  -25.3737  -31.3711   26.1489 C   0  0  0  0  0  0
  -27.0317  -30.3046   24.6140 C   0  0  0  0  0  0
  -27.6063  -32.4322   25.7497 C   0  0  0  0  0  0
  -27.5578  -37.1810   24.8464 C   0  0  0  0  0  0
  -21.4146  -29.3041   22.3722 N   0  0  0  0  0  0
  -26.4293  -37.3796   23.9406 N   0  0  0  0  0  0
  -24.6731  -31.0764   22.1035 N   0  0  0  0  0  0
  -23.4182  -28.8197   23.3034 O   0  0  0  0  0  0
  -28.3561  -26.6125   20.1567 O   0  0  0  0  0  0
  -26.5594  -34.8922   22.4689 O   0  0  0  0  0  0
  -23.5366  -32.1438   23.7499 O   0  0  0  0  0  0
  -30.1806  -19.4394   20.5116 C   0  0  0  0  0  0
  -30.5617  -19.3978   23.2713 C   0  0  0  0  0  0
  -30.3002  -20.6718   21.2038 C   0  0  0  0  0  0
  -30.2641  -18.1803   21.1678 C   0  0  0  0  0  0
  -30.4978  -20.6351   22.6024 C   0  0  0  0  0  0
  -30.4571  -18.1751   22.5759 C   0  0  0  0  0  0
  -29.3762  -24.3113   20.3122 C   0  0  0  0  0  0
  -27.4075  -23.5460   22.3040 C   0  0  0  0  0  0
  -27.5026  -25.0236   21.8626 C   0  0  0  0  0  0
  -27.9514  -22.5562   21.2504 C   0  0  0  0  0  0
  -28.1161  -25.2063   20.4531 C   0  0  1  0  0  0
  -30.3010  -22.0037   20.4231 C   0  0  0  0  0  0
  -30.2296  -16.9303   20.2607 C   0  0  0  0  0  0
  -29.2416  -23.0079   20.6960 N   0  0  0  0  0  0
  -29.9535  -15.5793   20.7981 N   0  0  0  0  0  0
  -30.4162  -24.7731   19.8296 O   0  0  0  0  0  0
  -30.7010  -22.0886   23.5160 Cl  0  0  0  0  0  0
  -30.6172  -16.7248   23.5047 Cl  0  0  0  0  0  0
  -31.4642  -12.3791   19.1454 H   0  0  0  0  0  0
  -30.2987  -11.3003   19.8586 H   0  0  0  0  0  0
  -29.7386  -11.7613   17.4463 H   0  0  0  0  0  0
  -29.6685  -13.4753   17.7750 H   0  0  0  0  0  0
  -27.8291  -11.3045   18.8373 H   0  0  0  0  0  0
  -27.3680  -12.6212   17.7925 H   0  0  0  0  0  0
  -27.6908  -14.2547   19.5545 H   0  0  0  0  0  0
  -28.6751  -12.0145   21.3896 H   0  0  0  0  0  0
  -28.4773  -13.6812   21.8504 H   0  0  0  0  0  0
  -25.2763   -9.5687   22.4761 H   0  0  0  0  0  0
  -24.0001   -7.4637   22.7481 H   0  0  0  0  0  0
  -21.0838   -8.8769   19.8949 H   0  0  0  0  0  0
  -22.3696  -10.9670   19.6170 H   0  0  0  0  0  0
  -21.2002   -7.6148   23.9708 H   0  0  0  0  0  0
  -21.1483   -6.0531   25.9076 H   0  0  0  0  0  0
  -22.0594   -2.7609   23.2853 H   0  0  0  0  0  0
  -22.4110  -11.9879   22.4788 H   0  0  0  0  0  0
  -21.1106  -13.1239   22.2604 H   0  0  0  0  0  0
  -24.6604  -15.8449   20.5148 H   0  0  0  0  0  0
  -26.2774  -15.6291   20.0788 H   0  0  0  0  0  0
  -26.7137  -32.5520   23.1174 H   0  0  0  0  0  0
  -25.0094  -33.9794   25.0502 H   0  0  0  0  0  0
  -22.6958  -31.3134   21.4199 H   0  0  0  0  0  0
  -23.3744  -35.9650   23.3319 H   0  0  0  0  0  0
  -24.3579  -36.8910   22.2051 H   0  0  0  0  0  0
  -23.7242  -37.6524   23.6641 H   0  0  0  0  0  0
  -26.0588  -31.5944   20.6050 H   0  0  0  0  0  0
  -26.8257  -30.8734   21.9916 H   0  0  0  0  0  0
  -28.0975  -29.0648   21.1820 H   0  0  0  0  0  0
  -25.9988  -26.0098   18.9441 H   0  0  0  0  0  0
  -23.9692  -27.3346   18.9995 H   0  0  0  0  0  0
  -23.7191  -30.6153   19.4113 H   0  0  0  0  0  0
  -22.7356  -29.2573   19.8690 H   0  0  0  0  0  0
  -25.1286  -36.1984   25.0831 H   0  0  0  0  0  0
  -20.9952  -28.3238   24.1435 H   0  0  0  0  0  0
  -20.5687  -26.2278   23.3603 H   0  0  0  0  0  0
  -21.6634  -26.7461   22.1196 H   0  0  0  0  0  0
  -19.6911  -25.6301   21.1238 H   0  0  0  0  0  0
  -19.6685  -27.3205   20.6755 H   0  0  0  0  0  0
  -17.4193  -26.6682   21.4017 H   0  0  0  0  0  0
  -18.0310  -26.0058   22.9008 H   0  0  0  0  0  0
  -19.7924  -30.7256   24.2290 H   0  0  0  0  0  0
  -17.5007  -31.6271   24.5160 H   0  0  0  0  0  0
  -15.5344  -30.3000   23.7653 H   0  0  0  0  0  0
  -15.8650  -28.0830   22.7076 H   0  0  0  0  0  0
  -24.5916  -30.7056   25.7818 H   0  0  0  0  0  0
  -24.8920  -32.2864   26.4936 H   0  0  0  0  0  0
  -25.8083  -30.8878   27.0246 H   0  0  0  0  0  0
  -26.2875  -29.6805   24.1181 H   0  0  0  0  0  0
  -27.4070  -29.7290   25.4610 H   0  0  0  0  0  0
  -27.8714  -30.4368   23.9314 H   0  0  0  0  0  0
  -27.2699  -33.3623   26.2087 H   0  0  0  0  0  0
  -28.3853  -32.6876   25.0303 H   0  0  0  0  0  0
  -28.0746  -31.8434   26.5394 H   0  0  0  0  0  0
  -28.2606  -38.0097   24.7505 H   0  0  0  0  0  0
  -28.1061  -36.2629   24.6297 H   0  0  0  0  0  0
  -27.2293  -37.1472   25.8867 H   0  0  0  0  0  0
  -20.9308  -29.8772   21.6953 H   0  0  0  0  0  0
  -26.0184  -38.2877   24.1401 H   0  0  0  0  0  0
  -30.0595  -19.4571   19.4372 H   0  0  0  0  0  0
  -30.7258  -19.3852   24.3383 H   0  0  0  0  0  0
  -26.3736  -23.2919   22.5431 H   0  0  0  0  0  0
  -27.9644  -23.4201   23.2337 H   0  0  0  0  0  0
  -28.1003  -25.5784   22.5865 H   0  0  0  0  0  0
  -26.5071  -25.4666   21.8986 H   0  0  0  0  0  0
  -27.2408  -22.4651   20.4269 H   0  0  0  0  0  0
  -27.9978  -21.5647   21.6970 H   0  0  0  0  0  0
  -27.4424  -24.7799   19.7132 H   0  0  0  0  0  0
  -30.2777  -21.7873   19.3543 H   0  0  0  0  0  0
  -31.2757  -22.4604   20.6030 H   0  0  0  0  0  0
  -31.1718  -16.9407   19.7104 H   0  0  0  0  0  0
  -29.4668  -17.1054   19.5005 H   0  0  0  0  0  0
  -29.0171  -15.4044   21.1284 H   0  0  0  0  0  0
  1 25  1  0  0  0
  1 30  2  0  0  0
  1 85  1  0  0  0
  2  3  1  0  0  0
  2 25  1  0  0  0
  2 89  1  0  0  0
  2 90  1  0  0  0
  3  4  1  0  0  0
  3 91  1  0  0  0
  3 92  1  0  0  0
  4  5  1  0  0  0
  4 93  1  0  0  0
  4 94  1  0  0  0
  5  6  1  0  0  0
  5 26  1  0  0  0
  5 95  1  0  0  0
  6 25  1  0  0  0
  6 96  1  0  0  0
  6 97  1  0  0  0
  7  8  2  0  0  0
  7 26  1  0  0  0
  7 29  1  0  0  0
  8  9  1  0  0  0
  8 22  1  0  0  0
  9 10  1  0  0  0
  9 27  2  0  0  0
 10 11  2  0  0  0
 10 15  1  0  0  0
 11 12  1  0  0  0
 11 98  1  0  0  0
 12 13  2  0  0  0
 12 99  1  0  0  0
 13 14  1  0  0  0
 13 31  1  0  0  0
 14 15  2  0  0  0
 14100  1  0  0  0
 15101  1  0  0  0
 16 17  2  0  0  0
 16 21  1  0  0  0
 16 31  1  0  0  0
 17 18  1  0  0  0
 17102  1  0  0  0
 18 19  2  0  0  0
 18103  1  0  0  0
 19 20  1  0  0  0
 19 24  1  0  0  0
 20 21  2  0  0  0
 20104  1  0  0  0
 21 23  1  0  0  0
 22 28  1  0  0  0
 22 32  2  0  0  0
 26 27  1  0  0  0
 28105  1  0  0  0
 28106  1  0  0  0
 29107  1  0  0  0
 29108  1  0  0  0
 33 34  1  0  0  0
 33 66  1  0  0  0
 33 70  2  0  0  0
 34 36  1  0  0  0
 34 59  1  0  0  0
 34109  1  0  0  0
 35 44  2  0  0  0
 35 45  1  0  0  0
 35 68  1  0  0  0
 36 56  1  0  0  0
 36110  1  0  0  0
 37 39  1  0  0  0
 37 47  1  0  0  0
 37 66  1  0  0  0
 37111  1  0  0  0
 38 43  2  0  0  0
 38 46  1  0  0  0
 38 47  1  0  0  0
 39 64  1  0  0  0
 39 67  2  0  0  0
 40 52  1  0  0  0
 40 53  2  0  0  0
 40 58  1  0  0  0
 41112  1  0  0  0
 41113  1  0  0  0
 41114  1  0  0  0
 41 48  1  0  0  0
 42 43  1  0  0  0
 42 66  1  0  0  0
 42115  1  0  0  0
 42116  1  0  0  0
 43 44  1  0  0  0
 44117  1  0  0  0
 45 46  2  0  0  0
 45118  1  0  0  0
 46119  1  0  0  0
 47120  1  0  0  0
 47121  1  0  0  0
 48 56  1  0  0  0
 48 65  1  0  0  0
 48122  1  0  0  0
 49 50  1  0  0  0
 49 53  1  0  0  0
 49 64  1  0  0  0
 49123  1  0  0  0
 50 51  1  0  0  0
 50124  1  0  0  0
 50125  1  0  0  0
 51 52  1  0  0  0
 51126  1  0  0  0
 51127  1  0  0  0
 52128  1  0  0  0
 52129  1  0  0  0
 53 54  1  0  0  0
 54 55  2  0  0  0
 54130  1  0  0  0
 55 57  1  0  0  0
 55131  1  0  0  0
 56 69  2  0  0  0
 57 58  2  0  0  0
 57132  1  0  0  0
 58133  1  0  0  0
 59 60  1  0  0  0
 59 61  1  0  0  0
 59 62  1  0  0  0
 60134  1  0  0  0
 60135  1  0  0  0
 60136  1  0  0  0
 61137  1  0  0  0
 61138  1  0  0  0
 61139  1  0  0  0
 62140  1  0  0  0
 62141  1  0  0  0
 62142  1  0  0  0
 63 65  1  0  0  0
 63143  1  0  0  0
 63144  1  0  0  0
 63145  1  0  0  0
 64146  1  0  0  0
 65147  1  0  0  0
 68 81  1  0  0  0
 71 73  2  0  0  0
 71 74  1  0  0  0
 71148  1  0  0  0
 72 75  2  0  0  0
 72 76  1  0  0  0
 72149  1  0  0  0
 73 75  1  0  0  0
 73 82  1  0  0  0
 74 76  2  0  0  0
 74 83  1  0  0  0
 75 87  1  0  0  0
 76 88  1  0  0  0
 77 81  1  0  0  0
 77 84  1  0  0  0
 77 86  2  0  0  0
 78 79  1  0  0  0
 78 80  1  0  0  0
 78150  1  0  0  0
 78151  1  0  0  0
 79 81  1  0  0  0
 79152  1  0  0  0
 79153  1  0  0  0
 80 84  1  0  0  0
 80154  1  0  0  0
 80155  1  0  0  0
 81156  1  0  0  0
 82 84  1  0  0  0
 82157  1  0  0  0
 82158  1  0  0  0
 83 85  1  0  0  0
 83159  1  0  0  0
 83160  1  0  0  0
 85161  1  0  0  0
M  ISO  4   1 100  68 101  81 101  85 100
M  END
> <chiral flag>
0

> <version>
0

> <s_m_source_file>
/data/baiqing/PycharmProjects/Reinvent-master-3.2/result/LINK_invent/BTK/process_docking_weight1_custom_product_contain_oxygen_bond_distance_aromatic_linkinvent_7_9_3/rearranged_h_0048.sdf

> <i_m_source_file_index>
65

> <r_mmod_Potential_Energy-OPLS-2005>
25.3045749664307

> <r_mmod_Stretch_Energy-OPLS-2005>
48.9323883056641

> <r_mmod_Bend_Energy-OPLS-2005>
114.889442443848

> <r_mmod_Torsional_Energy-OPLS-2005>
247.878616333008

> <r_mmod_Improper_Torsional_Energy-OPLS-2005>
8.26963138580322

> <r_mmod_Van_der_Waal_Energy-OPLS-2005>
172.236312866211

> <r_mmod_Electrostatic_Energy-OPLS-2005>
-355.051605224609

> <r_mmod_Solvation_Energy-OPLS-2005>
-232.614929199219

> <b_mmod_Minimization_Converged-OPLS-2005>
0

> <r_mmod_RMS_Derivative-OPLS-2005>
0.923406600952148

$$$$
65
                    3D
 Structure written by MMmdl.
165174  0  0  1  0            999 V2000
  -30.5768  -14.6516   20.5144 C   0  0  0  0  0  0
  -30.4347  -12.4289   19.4072 C   0  0  0  0  0  0
  -29.4905  -12.6072   18.1958 C   0  0  0  0  0  0
  -28.0164  -12.4125   18.6064 C   0  0  0  0  0  0
  -27.6508  -13.2209   19.8772 C   0  0  2  0  0  0
  -28.7038  -13.0160   20.9892 C   0  0  0  0  0  0
  -25.2524  -13.8129   20.5705 C   0  0  0  0  0  0
  -24.1757  -13.0419   20.9161 C   0  0  0  0  0  0
  -24.6287  -11.6857   20.8677 C   0  0  0  0  0  0
  -23.8941  -10.4269   21.0355 C   0  0  0  0  0  0
  -24.3549   -9.4176   21.9115 C   0  0  0  0  0  0
  -23.6278   -8.2182   22.0661 C   0  0  0  0  0  0
  -22.4255   -8.0210   21.3502 C   0  0  0  0  0  0
  -21.9818   -9.0198   20.4652 C   0  0  0  0  0  0
  -22.7091  -10.2095   20.3074 C   0  0  0  0  0  0
  -21.6840   -6.0668   22.5240 C   0  0  0  0  0  0
  -21.3987   -6.5595   23.8159 C   0  0  0  0  0  0
  -21.3679   -5.6752   24.9130 C   0  0  0  0  0  0
  -21.6078   -4.3012   24.7228 C   0  0  0  0  0  0
  -21.8835   -3.8085   23.4335 C   0  0  0  0  0  0
  -21.9184   -4.6891   22.3382 C   0  0  0  0  0  0
  -22.7800  -13.5225   21.1859 C   0  0  0  0  0  0
  -22.1670   -4.2047   21.0979 F   0  0  0  0  0  0
  -21.5678   -3.4537   25.7760 F   0  0  0  0  0  0
  -30.0075  -13.4026   20.4347 N   0  0  0  0  0  0
  -26.2942  -12.9308   20.3371 N   0  0  0  0  0  0
  -25.9237  -11.6446   20.5723 N   0  0  0  0  0  0
  -22.0426  -12.8276   22.0430 N   0  0  0  0  0  0
  -25.4288  -15.1863   20.4116 N   0  0  0  0  0  0
  -31.7269  -14.8510   20.1083 O   0  0  0  0  0  0
  -21.6609   -6.8824   21.4218 O   0  0  0  0  0  0
  -22.3479  -14.5553   20.6684 O   0  0  0  0  0  0
  -24.6317  -31.8533   23.2041 C   0  0  0  0  0  0
  -25.9115  -32.4775   23.8380 C   0  0  1  0  0  0
  -27.2451  -27.2975   20.0983 C   0  0  0  0  0  0
  -25.5908  -33.8589   24.2246 N   0  0  0  0  0  0
  -23.4301  -30.4768   21.5448 C   0  0  2  0  0  0
  -24.8737  -28.9196   20.1060 C   0  0  0  0  0  0
  -22.7536  -29.4586   22.4929 C   0  0  0  0  0  0
  -18.0282  -28.1439   22.8430 C   0  0  0  0  0  0
  -24.1475  -36.7355   23.2642 C   0  0  0  0  0  0
  -25.9776  -30.7527   21.4002 C   0  0  0  0  0  0
  -26.0393  -29.3891   20.7211 C   0  0  0  0  0  0
  -27.2214  -28.5923   20.7029 C   0  0  0  0  0  0
  -26.0594  -26.8787   19.4524 C   0  0  0  0  0  0
  -24.8868  -27.6707   19.4567 C   0  0  0  0  0  0
  -23.6479  -29.8146   20.1575 C   0  0  0  0  0  0
  -25.4097  -36.3130   24.0327 C   0  0  1  0  0  0
  -20.5902  -28.3725   23.1274 C   0  0  2  0  0  0
  -20.6761  -26.9419   22.5482 C   0  0  0  0  0  0
  -19.5778  -26.6359   21.5258 C   0  0  0  0  0  0
  -18.1922  -26.7982   22.1570 C   0  0  0  0  0  0
  -19.1538  -28.8897   23.2845 C   0  0  0  0  0  0
  -18.9468  -30.1512   23.8850 C   0  0  0  0  0  0
  -17.6465  -30.6603   24.0568 C   0  0  0  0  0  0
  -25.9043  -34.9485   23.5103 C   0  0  0  0  0  0
  -16.5347  -29.9092   23.6374 C   0  0  0  0  0  0
  -16.7274  -28.6538   23.0330 C   0  0  0  0  0  0
  -26.4412  -31.6716   25.0879 C   0  0  0  0  0  0
  -25.3627  -31.4043   26.1662 C   0  0  0  0  0  0
  -27.0198  -30.3046   24.6597 C   0  0  0  0  0  0
  -27.5986  -32.4533   25.7557 C   0  0  0  0  0  0
  -27.5641  -37.1790   24.8388 C   0  0  0  0  0  0
  -21.4254  -29.3006   22.3612 N   0  0  0  0  0  0
  -26.4277  -37.3828   23.9443 N   0  0  0  0  0  0
  -24.6979  -31.0483   22.1025 N   0  0  0  0  0  0
  -23.4208  -28.8189   23.3088 O   0  0  0  0  0  0
  -28.4022  -26.4948   20.1673 O   0  0  0  0  0  0
  -26.5631  -34.8935   22.4689 O   0  0  0  0  0  0
  -23.5463  -32.1380   23.7299 O   0  0  0  0  0  0
  -29.0059  -16.9191   18.9618 C   0  0  0  0  0  0
  -28.7446  -18.1003   18.2459 C   0  0  0  0  0  0
  -29.6906  -18.2790   20.8603 C   0  0  0  0  0  0
  -29.4530  -19.5181   20.1421 C   0  0  0  0  0  0
  -29.5274  -16.9660   20.2690 C   0  0  0  0  0  0
  -29.0210  -19.3754   18.7950 C   0  0  0  0  0  0
  -30.0495  -23.4619   21.1656 C   0  0  0  0  0  0
  -31.2716  -23.6300   24.6671 C   0  0  0  0  0  0
  -30.7050  -23.8135   22.2924 C   0  0  0  0  0  0
  -30.6895  -23.1216   23.5670 C   0  0  0  0  0  0
  -29.9055  -24.4361   19.9699 C   0  0  0  0  0  0
  -27.4858  -24.0751   20.5558 C   0  0  0  0  0  0
  -27.8924  -22.5588   20.3472 C   0  0  0  0  0  0
  -28.4580  -25.0527   19.8036 C   0  0  1  0  0  0
  -29.9726  -20.9251   20.6811 C   0  0  0  0  0  0
  -29.7621  -15.6790   20.9352 N   0  0  0  0  0  0
  -29.1790  -22.2040   21.0318 N   0  3  1  0  0  0
  -28.9428  -20.7138   17.7054 Cl  0  0  0  0  0  0
  -31.4701  -12.5877   19.1010 H   0  0  0  0  0  0
  -30.3821  -11.4085   19.7863 H   0  0  0  0  0  0
  -29.7577  -11.9368   17.3799 H   0  0  0  0  0  0
  -29.6082  -13.6167   17.7941 H   0  0  0  0  0  0
  -27.8441  -11.3518   18.7838 H   0  0  0  0  0  0
  -27.3538  -12.7034   17.7865 H   0  0  0  0  0  0
  -27.6754  -14.2685   19.5836 H   0  0  0  0  0  0
  -28.7254  -11.9677   21.2856 H   0  0  0  0  0  0
  -28.4575  -13.5705   21.8950 H   0  0  0  0  0  0
  -25.2710   -9.5682   22.4630 H   0  0  0  0  0  0
  -24.0039   -7.4568   22.7348 H   0  0  0  0  0  0
  -21.0678   -8.8718   19.9056 H   0  0  0  0  0  0
  -22.3456  -10.9649   19.6233 H   0  0  0  0  0  0
  -21.1927   -7.6085   23.9642 H   0  0  0  0  0  0
  -21.1524   -6.0470   25.9047 H   0  0  0  0  0  0
  -22.0606   -2.7540   23.2826 H   0  0  0  0  0  0
  -22.4052  -11.9970   22.4890 H   0  0  0  0  0  0
  -21.1074  -13.1316   22.2710 H   0  0  0  0  0  0
  -24.6676  -15.8514   20.5095 H   0  0  0  0  0  0
  -26.2838  -15.6101   20.0735 H   0  0  0  0  0  0
  -26.7200  -32.5346   23.1125 H   0  0  0  0  0  0
  -24.9997  -33.9692   25.0355 H   0  0  0  0  0  0
  -22.7264  -31.3011   21.4077 H   0  0  0  0  0  0
  -23.3778  -35.9651   23.3182 H   0  0  0  0  0  0
  -24.3592  -36.9109   22.2094 H   0  0  0  0  0  0
  -23.7128  -37.6474   23.6732 H   0  0  0  0  0  0
  -26.1646  -31.5220   20.6500 H   0  0  0  0  0  0
  -26.8347  -30.7540   22.0638 H   0  0  0  0  0  0
  -28.1231  -28.9510   21.1767 H   0  0  0  0  0  0
  -26.0278  -25.9344   18.9303 H   0  0  0  0  0  0
  -23.9988  -27.3214   18.9455 H   0  0  0  0  0  0
  -23.7802  -30.5994   19.4104 H   0  0  0  0  0  0
  -22.7592  -29.2635   19.8492 H   0  0  0  0  0  0
  -25.1260  -36.1991   25.0809 H   0  0  0  0  0  0
  -20.9963  -28.3360   24.1423 H   0  0  0  0  0  0
  -20.5616  -26.2385   23.3738 H   0  0  0  0  0  0
  -21.6654  -26.7398   22.1357 H   0  0  0  0  0  0
  -19.6943  -25.6245   21.1376 H   0  0  0  0  0  0
  -19.6815  -27.3104   20.6751 H   0  0  0  0  0  0
  -17.4281  -26.6830   21.3880 H   0  0  0  0  0  0
  -18.0184  -26.0117   22.8920 H   0  0  0  0  0  0
  -19.7945  -30.7333   24.2203 H   0  0  0  0  0  0
  -17.5014  -31.6260   24.5204 H   0  0  0  0  0  0
  -15.5339  -30.2958   23.7745 H   0  0  0  0  0  0
  -15.8688  -28.0864   22.7006 H   0  0  0  0  0  0
  -24.5687  -30.7462   25.8096 H   0  0  0  0  0  0
  -24.8945  -32.3302   26.5046 H   0  0  0  0  0  0
  -25.7928  -30.9279   27.0489 H   0  0  0  0  0  0
  -26.2830  -29.6899   24.1415 H   0  0  0  0  0  0
  -27.3407  -29.7281   25.5283 H   0  0  0  0  0  0
  -27.8940  -30.4140   24.0184 H   0  0  0  0  0  0
  -27.2514  -33.3720   26.2298 H   0  0  0  0  0  0
  -28.3614  -32.7352   25.0292 H   0  0  0  0  0  0
  -28.0917  -31.8681   26.5322 H   0  0  0  0  0  0
  -28.2596  -38.0155   24.7543 H   0  0  0  0  0  0
  -28.1169  -36.2698   24.5965 H   0  0  0  0  0  0
  -27.2446  -37.1210   25.8805 H   0  0  0  0  0  0
  -20.9517  -29.8609   21.6671 H   0  0  0  0  0  0
  -26.0189  -38.2907   24.1494 H   0  0  0  0  0  0
  -28.8178  -15.9665   18.4833 H   0  0  0  0  0  0
  -28.3882  -18.0212   17.2291 H   0  0  0  0  0  0
  -30.0751  -18.3274   21.8666 H   0  0  0  0  0  0
  -31.2163  -23.1076   25.6116 H   0  0  0  0  0  0
  -31.8048  -24.5722   24.6636 H   0  0  0  0  0  0
  -31.2347  -24.7566   22.2643 H   0  0  0  0  0  0
  -30.1865  -22.1728   23.6720 H   0  0  0  0  0  0
  -30.2020  -23.8886   19.0712 H   0  0  0  0  0  0
  -30.6506  -25.2272   20.0714 H   0  0  0  0  0  0
  -27.4737  -24.3273   21.6192 H   0  0  0  0  0  0
  -26.4574  -24.2088   20.2250 H   0  0  0  0  0  0
  -27.9809  -22.4149   19.2807 H   0  0  0  0  0  0
  -27.0967  -21.8946   20.6829 H   0  0  0  0  0  0
  -28.2387  -24.9947   18.7353 H   0  0  0  0  0  0
  -30.7548  -21.2355   19.9880 H   0  0  0  0  0  0
  -30.5098  -20.6951   21.6033 H   0  0  0  0  0  0
  -28.9397  -15.3144   21.3918 H   0  0  0  0  0  0
  -28.8523  -22.0066   21.9658 H   0  0  0  0  0  0
  1 25  1  0  0  0
  1 30  2  0  0  0
  1 86  1  0  0  0
  2  3  1  0  0  0
  2 25  1  0  0  0
  2 89  1  0  0  0
  2 90  1  0  0  0
  3  4  1  0  0  0
  3 91  1  0  0  0
  3 92  1  0  0  0
  4  5  1  0  0  0
  4 93  1  0  0  0
  4 94  1  0  0  0
  5  6  1  0  0  0
  5 26  1  0  0  0
  5 95  1  0  0  0
  6 25  1  0  0  0
  6 96  1  0  0  0
  6 97  1  0  0  0
  7  8  2  0  0  0
  7 26  1  0  0  0
  7 29  1  0  0  0
  8  9  1  0  0  0
  8 22  1  0  0  0
  9 10  1  0  0  0
  9 27  2  0  0  0
 10 11  2  0  0  0
 10 15  1  0  0  0
 11 12  1  0  0  0
 11 98  1  0  0  0
 12 13  2  0  0  0
 12 99  1  0  0  0
 13 14  1  0  0  0
 13 31  1  0  0  0
 14 15  2  0  0  0
 14100  1  0  0  0
 15101  1  0  0  0
 16 17  2  0  0  0
 16 21  1  0  0  0
 16 31  1  0  0  0
 17 18  1  0  0  0
 17102  1  0  0  0
 18 19  2  0  0  0
 18103  1  0  0  0
 19 20  1  0  0  0
 19 24  1  0  0  0
 20 21  2  0  0  0
 20104  1  0  0  0
 21 23  1  0  0  0
 22 28  1  0  0  0
 22 32  2  0  0  0
 26 27  1  0  0  0
 28105  1  0  0  0
 28106  1  0  0  0
 29107  1  0  0  0
 29108  1  0  0  0
 33 34  1  0  0  0
 33 66  1  0  0  0
 33 70  2  0  0  0
 34 36  1  0  0  0
 34 59  1  0  0  0
 34109  1  0  0  0
 35 44  2  0  0  0
 35 45  1  0  0  0
 35 68  1  0  0  0
 36 56  1  0  0  0
 36110  1  0  0  0
 37 39  1  0  0  0
 37 47  1  0  0  0
 37 66  1  0  0  0
 37111  1  0  0  0
 38 43  2  0  0  0
 38 46  1  0  0  0
 38 47  1  0  0  0
 39 64  1  0  0  0
 39 67  2  0  0  0
 40 52  1  0  0  0
 40 53  2  0  0  0
 40 58  1  0  0  0
 41112  1  0  0  0
 41113  1  0  0  0
 41114  1  0  0  0
 41 48  1  0  0  0
 42 43  1  0  0  0
 42 66  1  0  0  0
 42115  1  0  0  0
 42116  1  0  0  0
 43 44  1  0  0  0
 44117  1  0  0  0
 45 46  2  0  0  0
 45118  1  0  0  0
 46119  1  0  0  0
 47120  1  0  0  0
 47121  1  0  0  0
 48 56  1  0  0  0
 48 65  1  0  0  0
 48122  1  0  0  0
 49 50  1  0  0  0
 49 53  1  0  0  0
 49 64  1  0  0  0
 49123  1  0  0  0
 50 51  1  0  0  0
 50124  1  0  0  0
 50125  1  0  0  0
 51 52  1  0  0  0
 51126  1  0  0  0
 51127  1  0  0  0
 52128  1  0  0  0
 52129  1  0  0  0
 53 54  1  0  0  0
 54 55  2  0  0  0
 54130  1  0  0  0
 55 57  1  0  0  0
 55131  1  0  0  0
 56 69  2  0  0  0
 57 58  2  0  0  0
 57132  1  0  0  0
 58133  1  0  0  0
 59 60  1  0  0  0
 59 61  1  0  0  0
 59 62  1  0  0  0
 60134  1  0  0  0
 60135  1  0  0  0
 60136  1  0  0  0
 61137  1  0  0  0
 61138  1  0  0  0
 61139  1  0  0  0
 62140  1  0  0  0
 62141  1  0  0  0
 62142  1  0  0  0
 63 65  1  0  0  0
 63143  1  0  0  0
 63144  1  0  0  0
 63145  1  0  0  0
 64146  1  0  0  0
 65147  1  0  0  0
 68 84  1  0  0  0
 71 72  2  0  0  0
 71 75  1  0  0  0
 71148  1  0  0  0
 72 76  1  0  0  0
 72149  1  0  0  0
 73 74  1  0  0  0
 73 75  2  0  0  0
 73150  1  0  0  0
 74 76  2  0  0  0
 74 85  1  0  0  0
 75 86  1  0  0  0
 76 88  1  0  0  0
 77 79  2  0  0  0
 77 81  1  0  0  0
 77 87  1  0  0  0
 78 80  2  0  0  0
 78151  1  0  0  0
 78152  1  0  0  0
 79 80  1  0  0  0
 79153  1  0  0  0
 80154  1  0  0  0
 81 84  1  0  0  0
 81155  1  0  0  0
 81156  1  0  0  0
 82 83  1  0  0  0
 82 84  1  0  0  0
 82157  1  0  0  0
 82158  1  0  0  0
 83 87  1  0  0  0
 83159  1  0  0  0
 83160  1  0  0  0
 84161  1  0  0  0
 85162  1  0  0  0
 85163  1  0  0  0
 85 87  1  0  0  0
 86164  1  0  0  0
 87165  1  0  0  0
M  CHG  1  87   1
M  ISO  4   1 100  68 101  84 101  86 100
M  END
> <chiral flag>
0

> <version>
0

> <s_m_source_file>
/data/baiqing/PycharmProjects/Reinvent-master-3.2/result/LINK_invent/BTK/process_docking_weight1_custom_product_contain_oxygen_bond_distance_aromatic_linkinvent_7_9_3/rearranged_h_0048.sdf

> <i_m_source_file_index>
66

> <r_mmod_Potential_Energy-OPLS-2005>
33.0669937133789

> <r_mmod_Stretch_Energy-OPLS-2005>
104.161102294922

> <r_mmod_Bend_Energy-OPLS-2005>
200.407409667969

> <r_mmod_Torsional_Energy-OPLS-2005>
274.150726318359

> <r_mmod_Improper_Torsional_Energy-OPLS-2005>
9.49450302124023

> <r_mmod_Van_der_Waal_Energy-OPLS-2005>
144.161193847656

> <r_mmod_Electrostatic_Energy-OPLS-2005>
-311.101715087891

> <r_mmod_Solvation_Energy-OPLS-2005>
-444.969604492188

> <b_mmod_Minimization_Converged-OPLS-2005>
0

> <r_mmod_RMS_Derivative-OPLS-2005>
7.31187772750854

$$$$
66
                    3D
 Structure written by MMmdl.
160168  0  0  1  0            999 V2000
  -30.6438  -14.5910   20.4789 C   0  0  0  0  0  0
  -30.4286  -12.3567   19.4530 C   0  0  0  0  0  0
  -29.5047  -12.4949   18.2230 C   0  0  0  0  0  0
  -28.0270  -12.3447   18.6330 C   0  0  0  0  0  0
  -27.6540  -13.2131   19.8654 C   0  0  2  0  0  0
  -28.6955  -13.0629   20.9964 C   0  0  0  0  0  0
  -25.2580  -13.8165   20.5685 C   0  0  0  0  0  0
  -24.1836  -13.0436   20.9195 C   0  0  0  0  0  0
  -24.6392  -11.6911   20.8739 C   0  0  0  0  0  0
  -23.9065  -10.4289   21.0401 C   0  0  0  0  0  0
  -24.3619   -9.4212   21.9178 C   0  0  0  0  0  0
  -23.6292   -8.2251   22.0747 C   0  0  0  0  0  0
  -22.4267   -8.0300   21.3550 C   0  0  0  0  0  0
  -21.9897   -9.0264   20.4656 C   0  0  0  0  0  0
  -22.7227  -10.2141   20.3066 C   0  0  0  0  0  0
  -21.6862   -6.0736   22.5278 C   0  0  0  0  0  0
  -21.4008   -6.5631   23.8211 C   0  0  0  0  0  0
  -21.3677   -5.6783   24.9173 C   0  0  0  0  0  0
  -21.6061   -4.3047   24.7226 C   0  0  0  0  0  0
  -21.8827   -3.8147   23.4340 C   0  0  0  0  0  0
  -21.9191   -4.6961   22.3397 C   0  0  0  0  0  0
  -22.7863  -13.5240   21.1863 C   0  0  0  0  0  0
  -22.1663   -4.2148   21.0976 F   0  0  0  0  0  0
  -21.5634   -3.4535   25.7735 F   0  0  0  0  0  0
  -30.0136  -13.3797   20.4327 N   0  0  0  0  0  0
  -26.2996  -12.9337   20.3309 N   0  0  0  0  0  0
  -25.9323  -11.6503   20.5755 N   0  0  0  0  0  0
  -22.0506  -12.8235   22.0426 N   0  0  0  0  0  0
  -25.4294  -15.1892   20.4090 N   0  0  0  0  0  0
  -31.8156  -14.7204   20.1127 O   0  0  0  0  0  0
  -21.6655   -6.8880   21.4246 O   0  0  0  0  0  0
  -22.3557  -14.5556   20.6735 O   0  0  0  0  0  0
  -24.6183  -31.8615   23.2007 C   0  0  0  0  0  0
  -25.9055  -32.4785   23.8312 C   0  0  1  0  0  0
  -27.2344  -27.3864   20.1055 C   0  0  0  0  0  0
  -25.5889  -33.8590   24.2242 N   0  0  0  0  0  0
  -23.4068  -30.4831   21.5438 C   0  0  2  0  0  0
  -24.8556  -28.9419   20.1090 C   0  0  0  0  0  0
  -22.7423  -29.4632   22.4961 C   0  0  0  0  0  0
  -18.0284  -28.1391   22.8472 C   0  0  0  0  0  0
  -24.1495  -36.7317   23.2646 C   0  0  0  0  0  0
  -25.9382  -30.8179   21.3533 C   0  0  0  0  0  0
  -26.0195  -29.4465   20.7045 C   0  0  0  0  0  0
  -27.2129  -28.6794   20.6919 C   0  0  0  0  0  0
  -26.0543  -26.9076   19.5002 C   0  0  0  0  0  0
  -24.8720  -27.6751   19.4980 C   0  0  0  0  0  0
  -23.6140  -29.8082   20.1613 C   0  0  0  0  0  0
  -25.4112  -36.3081   24.0330 C   0  0  1  0  0  0
  -20.5884  -28.3672   23.1326 C   0  0  2  0  0  0
  -20.6792  -26.9400   22.5451 C   0  0  0  0  0  0
  -19.5779  -26.6386   21.5234 C   0  0  0  0  0  0
  -18.1939  -26.7943   22.1600 C   0  0  0  0  0  0
  -19.1538  -28.8845   23.2897 C   0  0  0  0  0  0
  -18.9461  -30.1450   23.8903 C   0  0  0  0  0  0
  -17.6471  -30.6589   24.0562 C   0  0  0  0  0  0
  -25.9045  -34.9459   23.5092 C   0  0  0  0  0  0
  -16.5360  -29.9093   23.6331 C   0  0  0  0  0  0
  -16.7283  -28.6518   23.0321 C   0  0  0  0  0  0
  -26.4486  -31.6562   25.0636 C   0  0  0  0  0  0
  -25.3754  -31.3691   26.1385 C   0  0  0  0  0  0
  -27.0317  -30.3008   24.5997 C   0  0  0  0  0  0
  -27.6077  -32.4274   25.7390 C   0  0  0  0  0  0
  -27.5592  -37.1784   24.8461 C   0  0  0  0  0  0
  -21.4167  -29.3016   22.3709 N   0  0  0  0  0  0
  -26.4297  -37.3762   23.9416 N   0  0  0  0  0  0
  -24.6724  -31.0689   22.0908 N   0  0  0  0  0  0
  -23.4177  -28.8167   23.3019 O   0  0  0  0  0  0
  -28.3801  -26.6013   20.0960 O   0  0  0  0  0  0
  -26.5614  -34.8931   22.4663 O   0  0  0  0  0  0
  -23.5372  -32.1382   23.7395 O   0  0  0  0  0  0
  -30.0141  -19.4371   18.6488 C   0  0  0  0  0  0
  -30.2033  -17.0048   18.6879 C   0  0  0  0  0  0
  -29.6688  -18.2217   20.7371 C   0  0  0  0  0  0
  -30.2416  -18.2221   17.9784 C   0  0  0  0  0  0
  -29.7361  -19.4741   20.0299 C   0  0  0  0  0  0
  -29.9358  -16.9731   20.0794 C   0  0  0  0  0  0
  -27.8043  -22.7702   20.2629 C   0  0  0  0  0  0
  -30.5504  -18.2379   16.4928 C   0  0  0  0  0  0
  -30.0183  -20.9640   22.1263 C   0  0  0  0  0  0
  -28.7082  -24.0167   20.0080 C   0  0  0  0  0  0
  -28.2943  -25.3227   20.7914 C   0  0  0  0  0  0
  -29.5859  -20.8964   20.6540 C   0  0  2  0  0  0
  -29.8735  -15.6864   20.7565 N   0  0  0  0  0  0
  -28.2501  -21.5000   20.4752 N   0  0  0  0  0  0
  -26.5851  -22.9468   20.2311 O   0  0  0  0  0  0
  -31.4697  -12.4691   19.1481 H   0  0  0  0  0  0
  -30.3530  -11.3600   19.8891 H   0  0  0  0  0  0
  -29.7611  -11.7427   17.4769 H   0  0  0  0  0  0
  -29.6642  -13.4658   17.7497 H   0  0  0  0  0  0
  -27.8559  -11.2897   18.8546 H   0  0  0  0  0  0
  -27.3768  -12.5881   17.7928 H   0  0  0  0  0  0
  -27.6770  -14.2510   19.5326 H   0  0  0  0  0  0
  -28.6927  -12.0422   21.3814 H   0  0  0  0  0  0
  -28.4486  -13.7046   21.8425 H   0  0  0  0  0  0
  -25.2765   -9.5683   22.4747 H   0  0  0  0  0  0
  -24.0030   -7.4622   22.7436 H   0  0  0  0  0  0
  -21.0839   -8.8777   19.8939 H   0  0  0  0  0  0
  -22.3684  -10.9690   19.6185 H   0  0  0  0  0  0
  -21.1997   -7.6131   23.9713 H   0  0  0  0  0  0
  -21.1496   -6.0505   25.9072 H   0  0  0  0  0  0
  -22.0591   -2.7610   23.2833 H   0  0  0  0  0  0
  -22.4127  -11.9899   22.4832 H   0  0  0  0  0  0
  -21.1129  -13.1274   22.2658 H   0  0  0  0  0  0
  -24.6649  -15.8431   20.5342 H   0  0  0  0  0  0
  -26.2770  -15.6312   20.0743 H   0  0  0  0  0  0
  -26.7109  -32.5480   23.1069 H   0  0  0  0  0  0
  -25.0074  -33.9701   25.0409 H   0  0  0  0  0  0
  -22.6969  -31.3016   21.3993 H   0  0  0  0  0  0
  -23.3750  -35.9658   23.3306 H   0  0  0  0  0  0
  -24.3607  -36.8934   22.2067 H   0  0  0  0  0  0
  -23.7269  -37.6524   23.6675 H   0  0  0  0  0  0
  -26.0418  -31.5753   20.5741 H   0  0  0  0  0  0
  -26.8312  -30.8820   21.9630 H   0  0  0  0  0  0
  -28.1109  -29.0665   21.1529 H   0  0  0  0  0  0
  -26.0530  -25.9342   19.0317 H   0  0  0  0  0  0
  -23.9785  -27.2841   19.0287 H   0  0  0  0  0  0
  -23.7085  -30.5768   19.3947 H   0  0  0  0  0  0
  -22.7382  -29.2207   19.8735 H   0  0  0  0  0  0
  -25.1290  -36.1945   25.0819 H   0  0  0  0  0  0
  -20.9970  -28.3279   24.1446 H   0  0  0  0  0  0
  -20.5742  -26.2260   23.3631 H   0  0  0  0  0  0
  -21.6656  -26.7480   22.1203 H   0  0  0  0  0  0
  -19.6967  -25.6299   21.1245 H   0  0  0  0  0  0
  -19.6768  -27.3206   20.6776 H   0  0  0  0  0  0
  -17.4236  -26.6716   21.3973 H   0  0  0  0  0  0
  -18.0308  -26.0075   22.8976 H   0  0  0  0  0  0
  -19.7940  -30.7264   24.2264 H   0  0  0  0  0  0
  -17.5023  -31.6265   24.5171 H   0  0  0  0  0  0
  -15.5349  -30.2990   23.7673 H   0  0  0  0  0  0
  -15.8670  -28.0862   22.7010 H   0  0  0  0  0  0
  -24.5962  -30.6975   25.7756 H   0  0  0  0  0  0
  -24.8896  -32.2845   26.4777 H   0  0  0  0  0  0
  -25.8113  -30.8934   27.0184 H   0  0  0  0  0  0
  -26.2829  -29.6712   24.1164 H   0  0  0  0  0  0
  -27.4245  -29.7284   25.4418 H   0  0  0  0  0  0
  -27.8590  -30.4325   23.9015 H   0  0  0  0  0  0
  -27.2728  -33.3605   26.1952 H   0  0  0  0  0  0
  -28.3901  -32.6779   25.0199 H   0  0  0  0  0  0
  -28.0720  -31.8385   26.5306 H   0  0  0  0  0  0
  -28.2594  -38.0083   24.7501 H   0  0  0  0  0  0
  -28.1086  -36.2626   24.6284 H   0  0  0  0  0  0
  -27.2322  -37.1446   25.8856 H   0  0  0  0  0  0
  -20.9332  -29.8697   21.6883 H   0  0  0  0  0  0
  -26.0199  -38.2845   24.1407 H   0  0  0  0  0  0
  -30.0712  -20.3685   18.1045 H   0  0  0  0  0  0
  -30.3755  -16.0858   18.1433 H   0  0  0  0  0  0
  -29.4380  -18.2204   21.7932 H   0  0  0  0  0  0
  -31.6302  -18.2083   16.3296 H   0  0  0  0  0  0
  -30.1611  -19.1412   16.0200 H   0  0  0  0  0  0
  -30.1027  -17.3788   15.9912 H   0  0  0  0  0  0
  -29.9961  -21.9922   22.4873 H   0  0  0  0  0  0
  -31.0436  -20.6111   22.2477 H   0  0  0  0  0  0
  -29.3749  -20.3656   22.7711 H   0  0  0  0  0  0
  -28.6258  -24.2288   18.9409 H   0  0  0  0  0  0
  -29.7583  -23.7859   20.1837 H   0  0  0  0  0  0
  -27.3163  -25.2013   21.2570 H   0  0  0  0  0  0
  -28.9779  -25.4156   21.6350 H   0  0  0  0  0  0
  -30.2857  -21.5319   20.1048 H   0  0  0  0  0  0
  -29.0124  -15.4983   21.2515 H   0  0  0  0  0  0
  -27.5027  -20.8241   20.5539 H   0  0  0  0  0  0
  1 25  1  0  0  0
  1 30  2  0  0  0
  1 83  1  0  0  0
  2  3  1  0  0  0
  2 25  1  0  0  0
  2 86  1  0  0  0
  2 87  1  0  0  0
  3  4  1  0  0  0
  3 88  1  0  0  0
  3 89  1  0  0  0
  4  5  1  0  0  0
  4 90  1  0  0  0
  4 91  1  0  0  0
  5  6  1  0  0  0
  5 26  1  0  0  0
  5 92  1  0  0  0
  6 25  1  0  0  0
  6 93  1  0  0  0
  6 94  1  0  0  0
  7  8  2  0  0  0
  7 26  1  0  0  0
  7 29  1  0  0  0
  8  9  1  0  0  0
  8 22  1  0  0  0
  9 10  1  0  0  0
  9 27  2  0  0  0
 10 11  2  0  0  0
 10 15  1  0  0  0
 11 12  1  0  0  0
 11 95  1  0  0  0
 12 13  2  0  0  0
 12 96  1  0  0  0
 13 14  1  0  0  0
 13 31  1  0  0  0
 14 15  2  0  0  0
 14 97  1  0  0  0
 15 98  1  0  0  0
 16 17  2  0  0  0
 16 21  1  0  0  0
 16 31  1  0  0  0
 17 18  1  0  0  0
 17 99  1  0  0  0
 18 19  2  0  0  0
 18100  1  0  0  0
 19 20  1  0  0  0
 19 24  1  0  0  0
 20 21  2  0  0  0
 20101  1  0  0  0
 21 23  1  0  0  0
 22 28  1  0  0  0
 22 32  2  0  0  0
 26 27  1  0  0  0
 28102  1  0  0  0
 28103  1  0  0  0
 29104  1  0  0  0
 29105  1  0  0  0
 33 34  1  0  0  0
 33 66  1  0  0  0
 33 70  2  0  0  0
 34 36  1  0  0  0
 34 59  1  0  0  0
 34106  1  0  0  0
 35 44  2  0  0  0
 35 45  1  0  0  0
 35 68  1  0  0  0
 36 56  1  0  0  0
 36107  1  0  0  0
 37 39  1  0  0  0
 37 47  1  0  0  0
 37 66  1  0  0  0
 37108  1  0  0  0
 38 43  2  0  0  0
 38 46  1  0  0  0
 38 47  1  0  0  0
 39 64  1  0  0  0
 39 67  2  0  0  0
 40 52  1  0  0  0
 40 53  2  0  0  0
 40 58  1  0  0  0
 41109  1  0  0  0
 41110  1  0  0  0
 41111  1  0  0  0
 41 48  1  0  0  0
 42 43  1  0  0  0
 42 66  1  0  0  0
 42112  1  0  0  0
 42113  1  0  0  0
 43 44  1  0  0  0
 44114  1  0  0  0
 45 46  2  0  0  0
 45115  1  0  0  0
 46116  1  0  0  0
 47117  1  0  0  0
 47118  1  0  0  0
 48 56  1  0  0  0
 48 65  1  0  0  0
 48119  1  0  0  0
 49 50  1  0  0  0
 49 53  1  0  0  0
 49 64  1  0  0  0
 49120  1  0  0  0
 50 51  1  0  0  0
 50121  1  0  0  0
 50122  1  0  0  0
 51 52  1  0  0  0
 51123  1  0  0  0
 51124  1  0  0  0
 52125  1  0  0  0
 52126  1  0  0  0
 53 54  1  0  0  0
 54 55  2  0  0  0
 54127  1  0  0  0
 55 57  1  0  0  0
 55128  1  0  0  0
 56 69  2  0  0  0
 57 58  2  0  0  0
 57129  1  0  0  0
 58130  1  0  0  0
 59 60  1  0  0  0
 59 61  1  0  0  0
 59 62  1  0  0  0
 60131  1  0  0  0
 60132  1  0  0  0
 60133  1  0  0  0
 61134  1  0  0  0
 61135  1  0  0  0
 61136  1  0  0  0
 62137  1  0  0  0
 62138  1  0  0  0
 62139  1  0  0  0
 63 65  1  0  0  0
 63140  1  0  0  0
 63141  1  0  0  0
 63142  1  0  0  0
 64143  1  0  0  0
 65144  1  0  0  0
 68 81  1  0  0  0
 71 74  2  0  0  0
 71 75  1  0  0  0
 71145  1  0  0  0
 72 74  1  0  0  0
 72 76  2  0  0  0
 72146  1  0  0  0
 73 75  2  0  0  0
 73 76  1  0  0  0
 73147  1  0  0  0
 74 78  1  0  0  0
 75 82  1  0  0  0
 76 83  1  0  0  0
 77 80  1  0  0  0
 77 84  1  0  0  0
 77 85  2  0  0  0
 78148  1  0  0  0
 78149  1  0  0  0
 78150  1  0  0  0
 79151  1  0  0  0
 79152  1  0  0  0
 79153  1  0  0  0
 79 82  1  0  0  0
 80 81  1  0  0  0
 80154  1  0  0  0
 80155  1  0  0  0
 81156  1  0  0  0
 81157  1  0  0  0
 82 84  1  0  0  0
 82158  1  0  0  0
 83159  1  0  0  0
 84160  1  0  0  0
M  ISO  4   1 100  68 101  81 101  83 100
M  END
> <chiral flag>
0

> <version>
0

> <s_m_source_file>
/data/baiqing/PycharmProjects/Reinvent-master-3.2/result/LINK_invent/BTK/process_docking_weight1_custom_product_contain_oxygen_bond_distance_aromatic_linkinvent_7_9_3/rearranged_h_0048.sdf

> <i_m_source_file_index>
67

> <r_mmod_Potential_Energy-OPLS-2005>
-41.1750373840332

> <r_mmod_Stretch_Energy-OPLS-2005>
58.8727416992188

> <r_mmod_Bend_Energy-OPLS-2005>
131.059036254883

> <r_mmod_Torsional_Energy-OPLS-2005>
275.763732910156

> <r_mmod_Improper_Torsional_Energy-OPLS-2005>
5.80169534683228

> <r_mmod_Van_der_Waal_Energy-OPLS-2005>
137.699127197266

> <r_mmod_Electrostatic_Energy-OPLS-2005>
-451.740600585938

> <r_mmod_Solvation_Energy-OPLS-2005>
-228.217849731445

> <b_mmod_Minimization_Converged-OPLS-2005>
0

> <r_mmod_RMS_Derivative-OPLS-2005>
3.75004434585571

$$$$
67
                    3D
 Structure written by MMmdl.
154162  0  0  1  0            999 V2000
  -30.6276  -14.6275   20.5024 C   0  0  0  0  0  0
  -30.4385  -12.3852   19.4497 C   0  0  0  0  0  0
  -29.5075  -12.5059   18.2227 C   0  0  0  0  0  0
  -28.0301  -12.3447   18.6342 C   0  0  0  0  0  0
  -27.6541  -13.2142   19.8633 C   0  0  2  0  0  0
  -28.6990  -13.0647   20.9926 C   0  0  0  0  0  0
  -25.2565  -13.8165   20.5675 C   0  0  0  0  0  0
  -24.1833  -13.0435   20.9196 C   0  0  0  0  0  0
  -24.6396  -11.6904   20.8744 C   0  0  0  0  0  0
  -23.9064  -10.4291   21.0406 C   0  0  0  0  0  0
  -24.3615   -9.4205   21.9183 C   0  0  0  0  0  0
  -23.6289   -8.2243   22.0754 C   0  0  0  0  0  0
  -22.4272   -8.0281   21.3546 C   0  0  0  0  0  0
  -21.9906   -9.0256   20.4650 C   0  0  0  0  0  0
  -22.7235  -10.2135   20.3057 C   0  0  0  0  0  0
  -21.6853   -6.0733   22.5278 C   0  0  0  0  0  0
  -21.4014   -6.5636   23.8211 C   0  0  0  0  0  0
  -21.3658   -5.6791   24.9174 C   0  0  0  0  0  0
  -21.6042   -4.3054   24.7224 C   0  0  0  0  0  0
  -21.8821   -3.8147   23.4346 C   0  0  0  0  0  0
  -21.9193   -4.6962   22.3402 C   0  0  0  0  0  0
  -22.7855  -13.5232   21.1854 C   0  0  0  0  0  0
  -22.1663   -4.2148   21.0978 F   0  0  0  0  0  0
  -21.5627   -3.4538   25.7737 F   0  0  0  0  0  0
  -30.0159  -13.4038   20.4302 N   0  0  0  0  0  0
  -26.2992  -12.9340   20.3314 N   0  0  0  0  0  0
  -25.9323  -11.6499   20.5756 N   0  0  0  0  0  0
  -22.0493  -12.8230   22.0411 N   0  0  0  0  0  0
  -25.4272  -15.1883   20.4055 N   0  0  0  0  0  0
  -31.7921  -14.7841   20.1241 O   0  0  0  0  0  0
  -21.6638   -6.8877   21.4241 O   0  0  0  0  0  0
  -22.3543  -14.5537   20.6695 O   0  0  0  0  0  0
  -24.6245  -31.8608   23.2039 C   0  0  0  0  0  0
  -25.9103  -32.4783   23.8360 C   0  0  1  0  0  0
  -27.2261  -27.3351   20.1227 C   0  0  0  0  0  0
  -25.5929  -33.8582   24.2291 N   0  0  0  0  0  0
  -23.4178  -30.4845   21.5456 C   0  0  2  0  0  0
  -24.8663  -28.9407   20.1123 C   0  0  0  0  0  0
  -22.7467  -29.4626   22.4939 C   0  0  0  0  0  0
  -18.0287  -28.1383   22.8482 C   0  0  0  0  0  0
  -24.1490  -36.7292   23.2634 C   0  0  0  0  0  0
  -25.9574  -30.7972   21.3731 C   0  0  0  0  0  0
  -26.0335  -29.4251   20.7173 C   0  0  0  0  0  0
  -27.2189  -28.6340   20.7125 C   0  0  0  0  0  0
  -26.0423  -26.9030   19.4857 C   0  0  0  0  0  0
  -24.8716  -27.6840   19.4872 C   0  0  0  0  0  0
  -23.6333  -29.8190   20.1604 C   0  0  0  0  0  0
  -25.4112  -36.3082   24.0330 C   0  0  1  0  0  0
  -20.5885  -28.3683   23.1287 C   0  0  2  0  0  0
  -20.6778  -26.9406   22.5411 C   0  0  0  0  0  0
  -19.5755  -26.6384   21.5209 C   0  0  0  0  0  0
  -18.1935  -26.7927   22.1618 C   0  0  0  0  0  0
  -19.1538  -28.8850   23.2882 C   0  0  0  0  0  0
  -18.9460  -30.1453   23.8899 C   0  0  0  0  0  0
  -17.6459  -30.6583   24.0563 C   0  0  0  0  0  0
  -25.9048  -34.9452   23.5108 C   0  0  0  0  0  0
  -16.5351  -29.9081   23.6326 C   0  0  0  0  0  0
  -16.7274  -28.6501   23.0343 C   0  0  0  0  0  0
  -26.4497  -31.6581   25.0718 C   0  0  0  0  0  0
  -25.3741  -31.3717   26.1453 C   0  0  0  0  0  0
  -27.0326  -30.3003   24.6155 C   0  0  0  0  0  0
  -27.6065  -32.4305   25.7486 C   0  0  0  0  0  0
  -27.5584  -37.1795   24.8459 C   0  0  0  0  0  0
  -21.4183  -29.3039   22.3683 N   0  0  0  0  0  0
  -26.4290  -37.3777   23.9414 N   0  0  0  0  0  0
  -24.6850  -31.0637   22.0979 N   0  0  0  0  0  0
  -23.4198  -28.8161   23.3009 O   0  0  0  0  0  0
  -28.3405  -26.4896   20.1438 O   0  0  0  0  0  0
  -26.5608  -34.8918   22.4669 O   0  0  0  0  0  0
  -23.5413  -32.1399   23.7378 O   0  0  0  0  0  0
  -31.1524  -17.8218   20.5029 C   0  0  0  0  0  0
  -28.7740  -17.9415   20.7087 C   0  0  0  0  0  0
  -30.0275  -20.0703   20.3114 C   0  0  0  0  0  0
  -31.2128  -19.2420   20.3475 C   0  0  0  0  0  0
  -29.9344  -17.1250   20.6720 C   0  0  0  0  0  0
  -28.8115  -19.3571   20.5319 C   0  0  0  0  0  0
  -29.0289  -22.6584   20.4277 C   0  0  0  0  0  0
  -29.1367  -24.0187   20.2255 C   0  0  0  0  0  0
  -30.0520  -21.6013   20.0227 C   0  0  0  0  0  0
  -32.6228  -19.8186   20.2573 C   0  0  0  0  0  0
  -28.1156  -25.1172   20.6432 C   0  0  0  0  0  0
  -31.0033  -22.0654   19.3252 N   0  0  0  0  0  0
  -29.8125  -15.6752   20.8426 N   0  0  0  0  0  0
  -27.6287  -20.0187   20.5373 F   0  0  0  0  0  0
  -31.4797  -12.5095   19.1465 H   0  0  0  0  0  0
  -30.3722  -11.3886   19.8887 H   0  0  0  0  0  0
  -29.7709  -11.7574   17.4743 H   0  0  0  0  0  0
  -29.6513  -13.4771   17.7464 H   0  0  0  0  0  0
  -27.8653  -11.2913   18.8638 H   0  0  0  0  0  0
  -27.3763  -12.5776   17.7928 H   0  0  0  0  0  0
  -27.6735  -14.2497   19.5233 H   0  0  0  0  0  0
  -28.7081  -12.0424   21.3733 H   0  0  0  0  0  0
  -28.4465  -13.6960   21.8461 H   0  0  0  0  0  0
  -25.2760   -9.5681   22.4755 H   0  0  0  0  0  0
  -24.0002   -7.4631   22.7469 H   0  0  0  0  0  0
  -21.0838   -8.8773   19.8954 H   0  0  0  0  0  0
  -22.3692  -10.9673   19.6166 H   0  0  0  0  0  0
  -21.2007   -7.6144   23.9714 H   0  0  0  0  0  0
  -21.1478   -6.0521   25.9076 H   0  0  0  0  0  0
  -22.0601   -2.7610   23.2846 H   0  0  0  0  0  0
  -22.4101  -11.9891   22.4806 H   0  0  0  0  0  0
  -21.1112  -13.1264   22.2609 H   0  0  0  0  0  0
  -24.6521  -15.8365   20.4947 H   0  0  0  0  0  0
  -26.2584  -15.6187   20.0226 H   0  0  0  0  0  0
  -26.7168  -32.5464   23.1108 H   0  0  0  0  0  0
  -25.0103  -33.9730   25.0454 H   0  0  0  0  0  0
  -22.7105  -31.3040   21.4024 H   0  0  0  0  0  0
  -23.3756  -35.9620   23.3286 H   0  0  0  0  0  0
  -24.3590  -36.8921   22.2052 H   0  0  0  0  0  0
  -23.7239  -37.6491   23.6660 H   0  0  0  0  0  0
  -26.0861  -31.5612   20.6050 H   0  0  0  0  0  0
  -26.8386  -30.8470   22.0008 H   0  0  0  0  0  0
  -28.1155  -29.0012   21.1920 H   0  0  0  0  0  0
  -26.0121  -25.9474   18.9821 H   0  0  0  0  0  0
  -23.9794  -27.3102   19.0035 H   0  0  0  0  0  0
  -23.7527  -30.5955   19.4039 H   0  0  0  0  0  0
  -22.7542  -29.2474   19.8577 H   0  0  0  0  0  0
  -25.1289  -36.1933   25.0822 H   0  0  0  0  0  0
  -20.9979  -28.3258   24.1407 H   0  0  0  0  0  0
  -20.5673  -26.2289   23.3608 H   0  0  0  0  0  0
  -21.6648  -26.7438   22.1209 H   0  0  0  0  0  0
  -19.6916  -25.6296   21.1237 H   0  0  0  0  0  0
  -19.6696  -27.3195   20.6740 H   0  0  0  0  0  0
  -17.4204  -26.6673   21.4021 H   0  0  0  0  0  0
  -18.0333  -26.0072   22.9017 H   0  0  0  0  0  0
  -19.7936  -30.7267   24.2270 H   0  0  0  0  0  0
  -17.5013  -31.6262   24.5167 H   0  0  0  0  0  0
  -15.5351  -30.2980   23.7651 H   0  0  0  0  0  0
  -15.8677  -28.0822   22.7049 H   0  0  0  0  0  0
  -24.5924  -30.7050   25.7796 H   0  0  0  0  0  0
  -24.8924  -32.2882   26.4870 H   0  0  0  0  0  0
  -25.8082  -30.8913   27.0230 H   0  0  0  0  0  0
  -26.2886  -29.6760   24.1193 H   0  0  0  0  0  0
  -27.4042  -29.7250   25.4645 H   0  0  0  0  0  0
  -27.8752  -30.4285   23.9355 H   0  0  0  0  0  0
  -27.2685  -33.3604   26.2071 H   0  0  0  0  0  0
  -28.3875  -32.6863   25.0313 H   0  0  0  0  0  0
  -28.0732  -31.8422   26.5397 H   0  0  0  0  0  0
  -28.2585  -38.0107   24.7529 H   0  0  0  0  0  0
  -28.1096  -36.2641   24.6252 H   0  0  0  0  0  0
  -27.2310  -37.1409   25.8863 H   0  0  0  0  0  0
  -20.9353  -29.8764   21.6901 H   0  0  0  0  0  0
  -26.0170  -38.2848   24.1429 H   0  0  0  0  0  0
  -32.0766  -17.2615   20.5075 H   0  0  0  0  0  0
  -27.8086  -17.4805   20.8552 H   0  0  0  0  0  0
  -28.1535  -22.2727   20.9280 H   0  0  0  0  0  0
  -30.0211  -24.4040   19.7386 H   0  0  0  0  0  0
  -33.3692  -19.1107   20.6193 H   0  0  0  0  0  0
  -32.7267  -20.7131   20.8722 H   0  0  0  0  0  0
  -32.8819  -20.0596   19.2263 H   0  0  0  0  0  0
  -28.1430  -25.1752   21.7319 H   0  0  0  0  0  0
  -27.1252  -24.7344   20.4013 H   0  0  0  0  0  0
  -31.6487  -21.3309   19.0594 H   0  0  0  0  0  0
  -28.8955  -15.3619   21.1217 H   0  0  0  0  0  0
  1 25  1  0  0  0
  1 30  2  0  0  0
  1 83  1  0  0  0
  2  3  1  0  0  0
  2 25  1  0  0  0
  2 85  1  0  0  0
  2 86  1  0  0  0
  3  4  1  0  0  0
  3 87  1  0  0  0
  3 88  1  0  0  0
  4  5  1  0  0  0
  4 89  1  0  0  0
  4 90  1  0  0  0
  5  6  1  0  0  0
  5 26  1  0  0  0
  5 91  1  0  0  0
  6 25  1  0  0  0
  6 92  1  0  0  0
  6 93  1  0  0  0
  7  8  2  0  0  0
  7 26  1  0  0  0
  7 29  1  0  0  0
  8  9  1  0  0  0
  8 22  1  0  0  0
  9 10  1  0  0  0
  9 27  2  0  0  0
 10 11  2  0  0  0
 10 15  1  0  0  0
 11 12  1  0  0  0
 11 94  1  0  0  0
 12 13  2  0  0  0
 12 95  1  0  0  0
 13 14  1  0  0  0
 13 31  1  0  0  0
 14 15  2  0  0  0
 14 96  1  0  0  0
 15 97  1  0  0  0
 16 17  2  0  0  0
 16 21  1  0  0  0
 16 31  1  0  0  0
 17 18  1  0  0  0
 17 98  1  0  0  0
 18 19  2  0  0  0
 18 99  1  0  0  0
 19 20  1  0  0  0
 19 24  1  0  0  0
 20 21  2  0  0  0
 20100  1  0  0  0
 21 23  1  0  0  0
 22 28  1  0  0  0
 22 32  2  0  0  0
 26 27  1  0  0  0
 28101  1  0  0  0
 28102  1  0  0  0
 29103  1  0  0  0
 29104  1  0  0  0
 33 34  1  0  0  0
 33 66  1  0  0  0
 33 70  2  0  0  0
 34 36  1  0  0  0
 34 59  1  0  0  0
 34105  1  0  0  0
 35 44  2  0  0  0
 35 45  1  0  0  0
 35 68  1  0  0  0
 36 56  1  0  0  0
 36106  1  0  0  0
 37 39  1  0  0  0
 37 47  1  0  0  0
 37 66  1  0  0  0
 37107  1  0  0  0
 38 43  2  0  0  0
 38 46  1  0  0  0
 38 47  1  0  0  0
 39 64  1  0  0  0
 39 67  2  0  0  0
 40 52  1  0  0  0
 40 53  2  0  0  0
 40 58  1  0  0  0
 41108  1  0  0  0
 41109  1  0  0  0
 41110  1  0  0  0
 41 48  1  0  0  0
 42 43  1  0  0  0
 42 66  1  0  0  0
 42111  1  0  0  0
 42112  1  0  0  0
 43 44  1  0  0  0
 44113  1  0  0  0
 45 46  2  0  0  0
 45114  1  0  0  0
 46115  1  0  0  0
 47116  1  0  0  0
 47117  1  0  0  0
 48 56  1  0  0  0
 48 65  1  0  0  0
 48118  1  0  0  0
 49 50  1  0  0  0
 49 53  1  0  0  0
 49 64  1  0  0  0
 49119  1  0  0  0
 50 51  1  0  0  0
 50120  1  0  0  0
 50121  1  0  0  0
 51 52  1  0  0  0
 51122  1  0  0  0
 51123  1  0  0  0
 52124  1  0  0  0
 52125  1  0  0  0
 53 54  1  0  0  0
 54 55  2  0  0  0
 54126  1  0  0  0
 55 57  1  0  0  0
 55127  1  0  0  0
 56 69  2  0  0  0
 57 58  2  0  0  0
 57128  1  0  0  0
 58129  1  0  0  0
 59 60  1  0  0  0
 59 61  1  0  0  0
 59 62  1  0  0  0
 60130  1  0  0  0
 60131  1  0  0  0
 60132  1  0  0  0
 61133  1  0  0  0
 61134  1  0  0  0
 61135  1  0  0  0
 62136  1  0  0  0
 62137  1  0  0  0
 62138  1  0  0  0
 63 65  1  0  0  0
 63139  1  0  0  0
 63140  1  0  0  0
 63141  1  0  0  0
 64142  1  0  0  0
 65143  1  0  0  0
 68 81  1  0  0  0
 71 74  2  0  0  0
 71 75  1  0  0  0
 71144  1  0  0  0
 72 75  2  0  0  0
 72 76  1  0  0  0
 72145  1  0  0  0
 73 74  1  0  0  0
 73 76  2  0  0  0
 73 79  1  0  0  0
 74 80  1  0  0  0
 75 83  1  0  0  0
 76 84  1  0  0  0
 77 78  2  0  0  0
 77 79  1  0  0  0
 77146  1  0  0  0
 78 81  1  0  0  0
 78147  1  0  0  0
 79 82  2  0  0  0
 80148  1  0  0  0
 80149  1  0  0  0
 80150  1  0  0  0
 81151  1  0  0  0
 81152  1  0  0  0
 82153  1  0  0  0
 83154  1  0  0  0
M  ISO  4   1 100  68 101  81 101  83 100
M  END
> <chiral flag>
0

> <version>
0

> <s_m_source_file>
/data/baiqing/PycharmProjects/Reinvent-master-3.2/result/LINK_invent/BTK/process_docking_weight1_custom_product_contain_oxygen_bond_distance_aromatic_linkinvent_7_9_3/rearranged_h_0048.sdf

> <i_m_source_file_index>
68

> <r_mmod_Potential_Energy-OPLS-2005>
130.449615478516

> <r_mmod_Stretch_Energy-OPLS-2005>
82.8470153808594

> <r_mmod_Bend_Energy-OPLS-2005>
132.464706420898

> <r_mmod_Torsional_Energy-OPLS-2005>
249.795913696289

> <r_mmod_Improper_Torsional_Energy-OPLS-2005>
4.94785165786743

> <r_mmod_Van_der_Waal_Energy-OPLS-2005>
161.613327026367

> <r_mmod_Electrostatic_Energy-OPLS-2005>
-334.374969482422

> <r_mmod_Solvation_Energy-OPLS-2005>
-210.121536254883

> <b_mmod_Minimization_Converged-OPLS-2005>
0

> <r_mmod_RMS_Derivative-OPLS-2005>
0.493684321641922

$$$$
68
                    3D
 Structure written by MMmdl.
157165  0  0  1  0            999 V2000
  -30.6071  -14.7360   20.4657 C   0  0  0  0  0  0
  -30.4370  -12.4521   19.4609 C   0  0  0  0  0  0
  -29.5102  -12.5068   18.2263 C   0  0  0  0  0  0
  -28.0363  -12.3282   18.6441 C   0  0  0  0  0  0
  -27.6425  -13.2271   19.8479 C   0  0  2  0  0  0
  -28.6890  -13.1528   20.9801 C   0  0  0  0  0  0
  -25.2527  -13.8188   20.5694 C   0  0  0  0  0  0
  -24.1818  -13.0440   20.9216 C   0  0  0  0  0  0
  -24.6403  -11.6914   20.8753 C   0  0  0  0  0  0
  -23.9075  -10.4294   21.0416 C   0  0  0  0  0  0
  -24.3626   -9.4208   21.9192 C   0  0  0  0  0  0
  -23.6297   -8.2244   22.0759 C   0  0  0  0  0  0
  -22.4277   -8.0289   21.3546 C   0  0  0  0  0  0
  -21.9918   -9.0266   20.4648 C   0  0  0  0  0  0
  -22.7252  -10.2139   20.3060 C   0  0  0  0  0  0
  -21.6850   -6.0744   22.5283 C   0  0  0  0  0  0
  -21.4013   -6.5642   23.8220 C   0  0  0  0  0  0
  -21.3655   -5.6791   24.9178 C   0  0  0  0  0  0
  -21.6042   -4.3055   24.7228 C   0  0  0  0  0  0
  -21.8820   -3.8152   23.4347 C   0  0  0  0  0  0
  -21.9195   -4.6971   22.3404 C   0  0  0  0  0  0
  -22.7839  -13.5229   21.1877 C   0  0  0  0  0  0
  -22.1664   -4.2158   21.0981 F   0  0  0  0  0  0
  -21.5628   -3.4537   25.7740 F   0  0  0  0  0  0
  -29.9872  -13.5091   20.3934 N   0  0  0  0  0  0
  -26.2945  -12.9385   20.3265 N   0  0  0  0  0  0
  -25.9329  -11.6530   20.5735 N   0  0  0  0  0  0
  -22.0469  -12.8217   22.0416 N   0  0  0  0  0  0
  -25.4212  -15.1917   20.4129 N   0  0  0  0  0  0
  -31.8058  -14.8346   20.1849 O   0  0  0  0  0  0
  -21.6635   -6.8890   21.4245 O   0  0  0  0  0  0
  -22.3527  -14.5538   20.6726 O   0  0  0  0  0  0
  -24.6300  -31.8550   23.1973 C   0  0  0  0  0  0
  -25.9127  -32.4761   23.8322 C   0  0  1  0  0  0
  -27.2205  -27.2639   20.1360 C   0  0  0  0  0  0
  -25.5920  -33.8562   24.2250 N   0  0  0  0  0  0
  -23.4279  -30.4743   21.5410 C   0  0  2  0  0  0
  -24.8759  -28.9178   20.1119 C   0  0  0  0  0  0
  -22.7507  -29.4575   22.4909 C   0  0  0  0  0  0
  -18.0286  -28.1385   22.8467 C   0  0  0  0  0  0
  -24.1490  -36.7297   23.2641 C   0  0  0  0  0  0
  -25.9725  -30.7707   21.3742 C   0  0  0  0  0  0
  -26.0467  -29.3902   20.7216 C   0  0  0  0  0  0
  -27.2248  -28.5769   20.7181 C   0  0  0  0  0  0
  -26.0314  -26.8546   19.5001 C   0  0  0  0  0  0
  -24.8730  -27.6584   19.4891 C   0  0  0  0  0  0
  -23.6467  -29.8063   20.1571 C   0  0  0  0  0  0
  -25.4117  -36.3071   24.0328 C   0  0  1  0  0  0
  -20.5896  -28.3695   23.1266 C   0  0  2  0  0  0
  -20.6780  -26.9413   22.5409 C   0  0  0  0  0  0
  -19.5760  -26.6376   21.5207 C   0  0  0  0  0  0
  -18.1932  -26.7922   22.1609 C   0  0  0  0  0  0
  -19.1541  -28.8852   23.2860 C   0  0  0  0  0  0
  -18.9470  -30.1456   23.8874 C   0  0  0  0  0  0
  -17.6471  -30.6585   24.0561 C   0  0  0  0  0  0
  -25.9057  -34.9442   23.5089 C   0  0  0  0  0  0
  -16.5358  -29.9092   23.6330 C   0  0  0  0  0  0
  -16.7273  -28.6514   23.0339 C   0  0  0  0  0  0
  -26.4485  -31.6583   25.0707 C   0  0  0  0  0  0
  -25.3703  -31.3738   26.1423 C   0  0  0  0  0  0
  -27.0328  -30.3005   24.6169 C   0  0  0  0  0  0
  -27.6033  -32.4319   25.7483 C   0  0  0  0  0  0
  -27.5579  -37.1805   24.8459 C   0  0  0  0  0  0
  -21.4215  -29.3031   22.3664 N   0  0  0  0  0  0
  -26.4291  -37.3768   23.9401 N   0  0  0  0  0  0
  -24.6966  -31.0516   22.0941 N   0  0  0  0  0  0
  -23.4217  -28.8106   23.2995 O   0  0  0  0  0  0
  -28.3131  -26.3731   20.1437 O   0  0  0  0  0  0
  -26.5645  -34.8921   22.4668 O   0  0  0  0  0  0
  -23.5450  -32.1367   23.7266 O   0  0  0  0  0  0
  -31.5146  -18.9651   21.9165 C   0  0  0  0  0  0
  -31.2006  -17.6277   21.6170 C   0  0  0  0  0  0
  -30.7771  -20.0529   21.3967 C   0  0  0  0  0  0
  -29.6565  -19.8341   20.5474 C   0  0  0  0  0  0
  -29.3564  -18.4275   20.2424 C   0  0  0  0  0  0
  -30.1206  -17.2998   20.7756 C   0  0  0  0  0  0
  -28.6140  -23.7120   19.9299 C   0  0  0  0  0  0
  -31.2610  -21.4484   21.7557 C   0  0  0  0  0  0
  -28.2115  -18.1158   19.2887 C   0  0  0  0  0  0
  -28.8678  -21.0789   19.8965 C   0  0  0  0  0  0
  -28.1176  -25.0045   20.7413 C   0  0  0  0  0  0
  -29.7990  -15.8606   20.5813 N   0  0  0  0  0  0
  -28.7192  -22.4642   20.5341 N   0  0  0  0  0  0
  -28.8595  -23.8398   18.7283 O   0  0  0  0  0  0
  -31.4769  -12.5826   19.1569 H   0  0  0  0  0  0
  -30.3855  -11.4733   19.9388 H   0  0  0  0  0  0
  -29.7911  -11.7355   17.5077 H   0  0  0  0  0  0
  -29.6326  -13.4627   17.7138 H   0  0  0  0  0  0
  -27.8964  -11.2788   18.9062 H   0  0  0  0  0  0
  -27.3759  -12.5194   17.7973 H   0  0  0  0  0  0
  -27.6374  -14.2492   19.4696 H   0  0  0  0  0  0
  -28.7249  -12.1504   21.4098 H   0  0  0  0  0  0
  -28.4270  -13.8265   21.7972 H   0  0  0  0  0  0
  -25.2774   -9.5675   22.4765 H   0  0  0  0  0  0
  -24.0007   -7.4628   22.7478 H   0  0  0  0  0  0
  -21.0853   -8.8797   19.8947 H   0  0  0  0  0  0
  -22.3733  -10.9685   19.6166 H   0  0  0  0  0  0
  -21.2001   -7.6150   23.9729 H   0  0  0  0  0  0
  -21.1471   -6.0517   25.9082 H   0  0  0  0  0  0
  -22.0601   -2.7615   23.2845 H   0  0  0  0  0  0
  -22.4080  -11.9869   22.4787 H   0  0  0  0  0  0
  -21.1086  -13.1245   22.2625 H   0  0  0  0  0  0
  -24.6520  -15.8411   20.5379 H   0  0  0  0  0  0
  -26.2593  -15.6351   20.0627 H   0  0  0  0  0  0
  -26.7217  -32.5415   23.1093 H   0  0  0  0  0  0
  -25.0042  -33.9710   25.0373 H   0  0  0  0  0  0
  -22.7233  -31.2953   21.3935 H   0  0  0  0  0  0
  -23.3748  -35.9631   23.3291 H   0  0  0  0  0  0
  -24.3590  -36.8938   22.2058 H   0  0  0  0  0  0
  -23.7245  -37.6494   23.6680 H   0  0  0  0  0  0
  -26.1049  -31.5285   20.6005 H   0  0  0  0  0  0
  -26.8536  -30.8256   22.0025 H   0  0  0  0  0  0
  -28.1245  -28.9318   21.2012 H   0  0  0  0  0  0
  -25.9922  -25.8872   19.0184 H   0  0  0  0  0  0
  -23.9790  -27.2920   19.0027 H   0  0  0  0  0  0
  -23.7755  -30.5816   19.4016 H   0  0  0  0  0  0
  -22.7634  -29.2422   19.8499 H   0  0  0  0  0  0
  -25.1288  -36.1927   25.0827 H   0  0  0  0  0  0
  -20.9967  -28.3271   24.1399 H   0  0  0  0  0  0
  -20.5678  -26.2302   23.3616 H   0  0  0  0  0  0
  -21.6650  -26.7451   22.1200 H   0  0  0  0  0  0
  -19.6943  -25.6282   21.1251 H   0  0  0  0  0  0
  -19.6704  -27.3177   20.6726 H   0  0  0  0  0  0
  -17.4204  -26.6650   21.4014 H   0  0  0  0  0  0
  -18.0336  -26.0078   22.9017 H   0  0  0  0  0  0
  -19.7959  -30.7262   24.2234 H   0  0  0  0  0  0
  -17.5042  -31.6264   24.5163 H   0  0  0  0  0  0
  -15.5362  -30.2988   23.7681 H   0  0  0  0  0  0
  -15.8672  -28.0849   22.7049 H   0  0  0  0  0  0
  -24.5894  -30.7063   25.7762 H   0  0  0  0  0  0
  -24.8872  -32.2905   26.4804 H   0  0  0  0  0  0
  -25.8023  -30.8956   27.0224 H   0  0  0  0  0  0
  -26.2898  -29.6757   24.1193 H   0  0  0  0  0  0
  -27.4020  -29.7258   25.4671 H   0  0  0  0  0  0
  -27.8772  -30.4287   23.9396 H   0  0  0  0  0  0
  -27.2635  -33.3638   26.2014 H   0  0  0  0  0  0
  -28.3865  -32.6849   25.0324 H   0  0  0  0  0  0
  -28.0659  -31.8464   26.5438 H   0  0  0  0  0  0
  -28.2574  -38.0124   24.7509 H   0  0  0  0  0  0
  -28.1100  -36.2648   24.6267 H   0  0  0  0  0  0
  -27.2303  -37.1419   25.8867 H   0  0  0  0  0  0
  -20.9401  -29.8763   21.6881 H   0  0  0  0  0  0
  -26.0172  -38.2839   24.1422 H   0  0  0  0  0  0
  -32.3594  -19.1535   22.5648 H   0  0  0  0  0  0
  -31.8028  -16.8488   22.0636 H   0  0  0  0  0  0
  -32.2331  -21.4233   22.2494 H   0  0  0  0  0  0
  -30.5629  -21.9359   22.4366 H   0  0  0  0  0  0
  -31.3756  -22.0631   20.8623 H   0  0  0  0  0  0
  -27.2522  -18.1852   19.8016 H   0  0  0  0  0  0
  -28.2938  -17.1160   18.8637 H   0  0  0  0  0  0
  -28.2046  -18.8055   18.4446 H   0  0  0  0  0  0
  -27.8420  -20.7508   19.7276 H   0  0  0  0  0  0
  -29.2898  -21.2158   18.8996 H   0  0  0  0  0  0
  -27.0682  -24.8458   20.9918 H   0  0  0  0  0  0
  -28.6446  -25.0010   21.6951 H   0  0  0  0  0  0
  -28.8150  -15.6475   20.5691 H   0  0  0  0  0  0
  -28.5237  -22.4479   21.5257 H   0  0  0  0  0  0
  1 25  1  0  0  0
  1 30  2  0  0  0
  1 82  1  0  0  0
  2  3  1  0  0  0
  2 25  1  0  0  0
  2 85  1  0  0  0
  2 86  1  0  0  0
  3  4  1  0  0  0
  3 87  1  0  0  0
  3 88  1  0  0  0
  4  5  1  0  0  0
  4 89  1  0  0  0
  4 90  1  0  0  0
  5  6  1  0  0  0
  5 26  1  0  0  0
  5 91  1  0  0  0
  6 25  1  0  0  0
  6 92  1  0  0  0
  6 93  1  0  0  0
  7  8  2  0  0  0
  7 26  1  0  0  0
  7 29  1  0  0  0
  8  9  1  0  0  0
  8 22  1  0  0  0
  9 10  1  0  0  0
  9 27  2  0  0  0
 10 11  2  0  0  0
 10 15  1  0  0  0
 11 12  1  0  0  0
 11 94  1  0  0  0
 12 13  2  0  0  0
 12 95  1  0  0  0
 13 14  1  0  0  0
 13 31  1  0  0  0
 14 15  2  0  0  0
 14 96  1  0  0  0
 15 97  1  0  0  0
 16 17  2  0  0  0
 16 21  1  0  0  0
 16 31  1  0  0  0
 17 18  1  0  0  0
 17 98  1  0  0  0
 18 19  2  0  0  0
 18 99  1  0  0  0
 19 20  1  0  0  0
 19 24  1  0  0  0
 20 21  2  0  0  0
 20100  1  0  0  0
 21 23  1  0  0  0
 22 28  1  0  0  0
 22 32  2  0  0  0
 26 27  1  0  0  0
 28101  1  0  0  0
 28102  1  0  0  0
 29103  1  0  0  0
 29104  1  0  0  0
 33 34  1  0  0  0
 33 66  1  0  0  0
 33 70  2  0  0  0
 34 36  1  0  0  0
 34 59  1  0  0  0
 34105  1  0  0  0
 35 44  2  0  0  0
 35 45  1  0  0  0
 35 68  1  0  0  0
 36 56  1  0  0  0
 36106  1  0  0  0
 37 39  1  0  0  0
 37 47  1  0  0  0
 37 66  1  0  0  0
 37107  1  0  0  0
 38 43  2  0  0  0
 38 46  1  0  0  0
 38 47  1  0  0  0
 39 64  1  0  0  0
 39 67  2  0  0  0
 40 52  1  0  0  0
 40 53  2  0  0  0
 40 58  1  0  0  0
 41108  1  0  0  0
 41109  1  0  0  0
 41110  1  0  0  0
 41 48  1  0  0  0
 42 43  1  0  0  0
 42 66  1  0  0  0
 42111  1  0  0  0
 42112  1  0  0  0
 43 44  1  0  0  0
 44113  1  0  0  0
 45 46  2  0  0  0
 45114  1  0  0  0
 46115  1  0  0  0
 47116  1  0  0  0
 47117  1  0  0  0
 48 56  1  0  0  0
 48 65  1  0  0  0
 48118  1  0  0  0
 49 50  1  0  0  0
 49 53  1  0  0  0
 49 64  1  0  0  0
 49119  1  0  0  0
 50 51  1  0  0  0
 50120  1  0  0  0
 50121  1  0  0  0
 51 52  1  0  0  0
 51122  1  0  0  0
 51123  1  0  0  0
 52124  1  0  0  0
 52125  1  0  0  0
 53 54  1  0  0  0
 54 55  2  0  0  0
 54126  1  0  0  0
 55 57  1  0  0  0
 55127  1  0  0  0
 56 69  2  0  0  0
 57 58  2  0  0  0
 57128  1  0  0  0
 58129  1  0  0  0
 59 60  1  0  0  0
 59 61  1  0  0  0
 59 62  1  0  0  0
 60130  1  0  0  0
 60131  1  0  0  0
 60132  1  0  0  0
 61133  1  0  0  0
 61134  1  0  0  0
 61135  1  0  0  0
 62136  1  0  0  0
 62137  1  0  0  0
 62138  1  0  0  0
 63 65  1  0  0  0
 63139  1  0  0  0
 63140  1  0  0  0
 63141  1  0  0  0
 64142  1  0  0  0
 65143  1  0  0  0
 68 81  1  0  0  0
 71 72  2  0  0  0
 71 73  1  0  0  0
 71144  1  0  0  0
 72 76  1  0  0  0
 72145  1  0  0  0
 73 74  2  0  0  0
 73 78  1  0  0  0
 74 75  1  0  0  0
 74 80  1  0  0  0
 75 76  2  0  0  0
 75 79  1  0  0  0
 76 82  1  0  0  0
 77 81  1  0  0  0
 77 83  1  0  0  0
 77 84  2  0  0  0
 78146  1  0  0  0
 78147  1  0  0  0
 78148  1  0  0  0
 79149  1  0  0  0
 79150  1  0  0  0
 79151  1  0  0  0
 80 83  1  0  0  0
 80152  1  0  0  0
 80153  1  0  0  0
 81154  1  0  0  0
 81155  1  0  0  0
 82156  1  0  0  0
 83157  1  0  0  0
M  ISO  4   1 100  68 101  81 101  82 100
M  END
> <chiral flag>
0

> <version>
0

> <s_m_source_file>
/data/baiqing/PycharmProjects/Reinvent-master-3.2/result/LINK_invent/BTK/process_docking_weight1_custom_product_contain_oxygen_bond_distance_aromatic_linkinvent_7_9_3/rearranged_h_0048.sdf

> <i_m_source_file_index>
69

> <r_mmod_Potential_Energy-OPLS-2005>
86.2280120849609

> <r_mmod_Stretch_Energy-OPLS-2005>
128.655349731445

> <r_mmod_Bend_Energy-OPLS-2005>
158.452438354492

> <r_mmod_Torsional_Energy-OPLS-2005>
240.890441894531

> <r_mmod_Improper_Torsional_Energy-OPLS-2005>
7.40102243423462

> <r_mmod_Van_der_Waal_Energy-OPLS-2005>
137.215179443359

> <r_mmod_Electrostatic_Energy-OPLS-2005>
-424.028900146484

> <r_mmod_Solvation_Energy-OPLS-2005>
-244.430038452148

> <b_mmod_Minimization_Converged-OPLS-2005>
0

> <r_mmod_RMS_Derivative-OPLS-2005>
1.72792816162109

$$$$
69
                    3D
 Structure written by MMmdl.
158166  0  0  1  0            999 V2000
  -30.7038  -14.4372   20.6005 C   0  0  0  0  0  0
  -30.4205  -12.2855   19.4280 C   0  0  0  0  0  0
  -29.4959  -12.5104   18.2151 C   0  0  0  0  0  0
  -28.0175  -12.3661   18.6225 C   0  0  0  0  0  0
  -27.6645  -13.2007   19.8820 C   0  0  2  0  0  0
  -28.7009  -12.9626   21.0040 C   0  0  0  0  0  0
  -25.2586  -13.8149   20.5646 C   0  0  0  0  0  0
  -24.1830  -13.0441   20.9147 C   0  0  0  0  0  0
  -24.6380  -11.6910   20.8742 C   0  0  0  0  0  0
  -23.9051  -10.4296   21.0409 C   0  0  0  0  0  0
  -24.3604   -9.4211   21.9190 C   0  0  0  0  0  0
  -23.6276   -8.2248   22.0761 C   0  0  0  0  0  0
  -22.4261   -8.0286   21.3544 C   0  0  0  0  0  0
  -21.9891   -9.0267   20.4652 C   0  0  0  0  0  0
  -22.7226  -10.2141   20.3060 C   0  0  0  0  0  0
  -21.6859   -6.0738   22.5279 C   0  0  0  0  0  0
  -21.4036   -6.5638   23.8220 C   0  0  0  0  0  0
  -21.3655   -5.6777   24.9176 C   0  0  0  0  0  0
  -21.6033   -4.3042   24.7218 C   0  0  0  0  0  0
  -21.8822   -3.8145   23.4340 C   0  0  0  0  0  0
  -21.9197   -4.6965   22.3400 C   0  0  0  0  0  0
  -22.7857  -13.5259   21.1784 C   0  0  0  0  0  0
  -22.1651   -4.2154   21.0978 F   0  0  0  0  0  0
  -21.5619   -3.4523   25.7724 F   0  0  0  0  0  0
  -30.0394  -13.2587   20.4633 N   0  0  0  0  0  0
  -26.3032  -12.9309   20.3386 N   0  0  0  0  0  0
  -25.9317  -11.6478   20.5806 N   0  0  0  0  0  0
  -22.0462  -12.8320   22.0362 N   0  0  0  0  0  0
  -25.4306  -15.1865   20.4038 N   0  0  0  0  0  0
  -31.8040  -14.6560   20.0855 O   0  0  0  0  0  0
  -21.6634   -6.8879   21.4241 O   0  0  0  0  0  0
  -22.3566  -14.5558   20.6601 O   0  0  0  0  0  0
  -24.6146  -31.8664   23.2114 C   0  0  0  0  0  0
  -25.9035  -32.4833   23.8416 C   0  0  1  0  0  0
  -27.2400  -27.4430   20.1048 C   0  0  0  0  0  0
  -25.5889  -33.8627   24.2332 N   0  0  0  0  0  0
  -23.4060  -30.4898   21.5479 C   0  0  2  0  0  0
  -24.8563  -28.9535   20.1160 C   0  0  0  0  0  0
  -22.7422  -29.4646   22.4958 C   0  0  0  0  0  0
  -18.0270  -28.1396   22.8508 C   0  0  0  0  0  0
  -24.1480  -36.7332   23.2646 C   0  0  0  0  0  0
  -25.9318  -30.8333   21.3645 C   0  0  0  0  0  0
  -26.0117  -29.4654   20.7206 C   0  0  0  0  0  0
  -27.2092  -28.7151   20.7181 C   0  0  0  0  0  0
  -26.0749  -26.9410   19.4917 C   0  0  0  0  0  0
  -24.8810  -27.6881   19.5008 C   0  0  0  0  0  0
  -23.6191  -29.8221   20.1615 C   0  0  0  0  0  0
  -25.4092  -36.3122   24.0349 C   0  0  1  0  0  0
  -20.5864  -28.3671   23.1312 C   0  0  2  0  0  0
  -20.6754  -26.9405   22.5412 C   0  0  0  0  0  0
  -19.5723  -26.6380   21.5226 C   0  0  0  0  0  0
  -18.1902  -26.7945   22.1635 C   0  0  0  0  0  0
  -19.1526  -28.8846   23.2912 C   0  0  0  0  0  0
  -18.9459  -30.1456   23.8927 C   0  0  0  0  0  0
  -17.6461  -30.6598   24.0590 C   0  0  0  0  0  0
  -25.9018  -34.9487   23.5131 C   0  0  0  0  0  0
  -16.5348  -29.9118   23.6333 C   0  0  0  0  0  0
  -16.7263  -28.6532   23.0349 C   0  0  0  0  0  0
  -26.4461  -31.6632   25.0755 C   0  0  0  0  0  0
  -25.3735  -31.3738   26.1522 C   0  0  0  0  0  0
  -27.0300  -30.3091   24.6116 C   0  0  0  0  0  0
  -27.6041  -32.4358   25.7509 C   0  0  0  0  0  0
  -27.5571  -37.1808   24.8464 C   0  0  0  0  0  0
  -21.4140  -29.3053   22.3735 N   0  0  0  0  0  0
  -26.4280  -37.3797   23.9419 N   0  0  0  0  0  0
  -24.6691  -31.0773   22.1014 N   0  0  0  0  0  0
  -23.4196  -28.8161   23.2985 O   0  0  0  0  0  0
  -28.3859  -26.6852   20.0748 O   0  0  0  0  0  0
  -26.5582  -34.8942   22.4701 O   0  0  0  0  0  0
  -23.5331  -32.1402   23.7510 O   0  0  0  0  0  0
  -30.5592  -16.7648   23.6962 C   0  0  0  0  0  0
  -30.7829  -17.3658   24.9470 C   0  0  0  0  0  0
  -30.8680  -19.5467   23.8745 C   0  0  0  0  0  0
  -30.4927  -17.5431   22.5139 C   0  0  0  0  0  0
  -30.6315  -18.9619   22.6078 C   0  0  0  0  0  0
  -30.9496  -18.7577   25.0361 C   0  0  0  0  0  0
  -29.1386  -23.3408   21.2330 C   0  0  0  0  0  0
  -29.4113  -24.6182   20.8831 C   0  0  0  0  0  0
  -30.0399  -22.2570   20.8592 C   0  0  0  0  0  0
  -30.2917  -16.8493   21.1604 C   0  0  0  0  0  0
  -30.5896  -19.8819   21.3781 C   0  0  0  0  0  0
  -28.5444  -25.8284   21.2090 C   0  0  0  0  0  0
  -29.8626  -21.1411   21.5847 N   0  0  0  0  0  0
  -30.0098  -15.4094   21.2126 N   0  0  0  0  0  0
  -30.8815  -22.3224   19.9584 O   0  0  0  0  0  0
  -31.2659  -19.4927   26.5658 Cl  0  0  0  0  0  0
  -31.4652  -12.3823   19.1305 H   0  0  0  0  0  0
  -30.3162  -11.2661   19.8061 H   0  0  0  0  0  0
  -29.7342  -11.8060   17.4179 H   0  0  0  0  0  0
  -29.6696  -13.5079   17.8083 H   0  0  0  0  0  0
  -27.8274  -11.3097   18.8146 H   0  0  0  0  0  0
  -27.3687  -12.6414   17.7911 H   0  0  0  0  0  0
  -27.7162  -14.2506   19.5944 H   0  0  0  0  0  0
  -28.6655  -11.9251   21.3371 H   0  0  0  0  0  0
  -28.4605  -13.5536   21.8885 H   0  0  0  0  0  0
  -25.2747   -9.5687   22.4770 H   0  0  0  0  0  0
  -23.9973   -7.4646   22.7498 H   0  0  0  0  0  0
  -21.0810   -8.8821   19.8966 H   0  0  0  0  0  0
  -22.3701  -10.9693   19.6176 H   0  0  0  0  0  0
  -21.2055   -7.6147   23.9731 H   0  0  0  0  0  0
  -21.1454   -6.0503   25.9073 H   0  0  0  0  0  0
  -22.0604   -2.7610   23.2843 H   0  0  0  0  0  0
  -22.4035  -12.0002   22.4818 H   0  0  0  0  0  0
  -21.1096  -13.1431   22.2518 H   0  0  0  0  0  0
  -24.6624  -15.8406   20.5041 H   0  0  0  0  0  0
  -26.2912  -15.6291   20.1063 H   0  0  0  0  0  0
  -26.7106  -32.5541   23.1183 H   0  0  0  0  0  0
  -25.0083  -33.9804   25.0506 H   0  0  0  0  0  0
  -22.6967  -31.3056   21.4045 H   0  0  0  0  0  0
  -23.3743  -35.9666   23.3322 H   0  0  0  0  0  0
  -24.3577  -36.8928   22.2058 H   0  0  0  0  0  0
  -23.7221  -37.6539   23.6645 H   0  0  0  0  0  0
  -26.0338  -31.5898   20.5859 H   0  0  0  0  0  0
  -26.8251  -30.8966   21.9741 H   0  0  0  0  0  0
  -28.1023  -29.1055   21.1846 H   0  0  0  0  0  0
  -26.0933  -25.9712   19.0136 H   0  0  0  0  0  0
  -23.9928  -27.2897   19.0301 H   0  0  0  0  0  0
  -23.7374  -30.5989   19.4039 H   0  0  0  0  0  0
  -22.7437  -29.2453   19.8573 H   0  0  0  0  0  0
  -25.1250  -36.1995   25.0834 H   0  0  0  0  0  0
  -20.9948  -28.3232   24.1437 H   0  0  0  0  0  0
  -20.5637  -26.2284   23.3605 H   0  0  0  0  0  0
  -21.6621  -26.7430   22.1207 H   0  0  0  0  0  0
  -19.6877  -25.6287   21.1259 H   0  0  0  0  0  0
  -19.6673  -27.3202   20.6777 H   0  0  0  0  0  0
  -17.4169  -26.6713   21.4045 H   0  0  0  0  0  0
  -18.0295  -26.0080   22.9024 H   0  0  0  0  0  0
  -19.7934  -30.7269   24.2289 H   0  0  0  0  0  0
  -17.5030  -31.6286   24.5193 H   0  0  0  0  0  0
  -15.5358  -30.3051   23.7634 H   0  0  0  0  0  0
  -15.8655  -28.0889   22.7025 H   0  0  0  0  0  0
  -24.5899  -30.7085   25.7887 H   0  0  0  0  0  0
  -24.8949  -32.2895   26.5001 H   0  0  0  0  0  0
  -25.8104  -30.8904   27.0268 H   0  0  0  0  0  0
  -26.2838  -29.6854   24.1185 H   0  0  0  0  0  0
  -27.4107  -29.7326   25.4552 H   0  0  0  0  0  0
  -27.8660  -30.4455   23.9252 H   0  0  0  0  0  0
  -27.2666  -33.3642   26.2123 H   0  0  0  0  0  0
  -28.3832  -32.6939   25.0330 H   0  0  0  0  0  0
  -28.0740  -31.8471   26.5392 H   0  0  0  0  0  0
  -28.2577  -38.0117   24.7520 H   0  0  0  0  0  0
  -28.1055  -36.2640   24.6250 H   0  0  0  0  0  0
  -27.2298  -37.1442   25.8870 H   0  0  0  0  0  0
  -20.9278  -29.8868   21.7057 H   0  0  0  0  0  0
  -26.0177  -38.2866   24.1456 H   0  0  0  0  0  0
  -30.4513  -15.6904   23.6658 H   0  0  0  0  0  0
  -30.8354  -16.7538   25.8367 H   0  0  0  0  0  0
  -31.0103  -20.6152   23.9613 H   0  0  0  0  0  0
  -28.2364  -23.1242   21.7885 H   0  0  0  0  0  0
  -30.3188  -24.8409   20.3392 H   0  0  0  0  0  0
  -31.1600  -17.0610   20.5326 H   0  0  0  0  0  0
  -29.4323  -17.3017   20.6648 H   0  0  0  0  0  0
  -30.1416  -19.3913   20.5156 H   0  0  0  0  0  0
  -31.6245  -20.0924   21.1004 H   0  0  0  0  0  0
  -29.0300  -26.3958   22.0030 H   0  0  0  0  0  0
  -27.5807  -25.4950   21.5995 H   0  0  0  0  0  0
  -29.1572  -21.1499   22.3082 H   0  0  0  0  0  0
  -29.1209  -15.1439   21.6083 H   0  0  0  0  0  0
  1 25  1  0  0  0
  1 30  2  0  0  0
  1 84  1  0  0  0
  2  3  1  0  0  0
  2 25  1  0  0  0
  2 87  1  0  0  0
  2 88  1  0  0  0
  3  4  1  0  0  0
  3 89  1  0  0  0
  3 90  1  0  0  0
  4  5  1  0  0  0
  4 91  1  0  0  0
  4 92  1  0  0  0
  5  6  1  0  0  0
  5 26  1  0  0  0
  5 93  1  0  0  0
  6 25  1  0  0  0
  6 94  1  0  0  0
  6 95  1  0  0  0
  7  8  2  0  0  0
  7 26  1  0  0  0
  7 29  1  0  0  0
  8  9  1  0  0  0
  8 22  1  0  0  0
  9 10  1  0  0  0
  9 27  2  0  0  0
 10 11  2  0  0  0
 10 15  1  0  0  0
 11 12  1  0  0  0
 11 96  1  0  0  0
 12 13  2  0  0  0
 12 97  1  0  0  0
 13 14  1  0  0  0
 13 31  1  0  0  0
 14 15  2  0  0  0
 14 98  1  0  0  0
 15 99  1  0  0  0
 16 17  2  0  0  0
 16 21  1  0  0  0
 16 31  1  0  0  0
 17 18  1  0  0  0
 17100  1  0  0  0
 18 19  2  0  0  0
 18101  1  0  0  0
 19 20  1  0  0  0
 19 24  1  0  0  0
 20 21  2  0  0  0
 20102  1  0  0  0
 21 23  1  0  0  0
 22 28  1  0  0  0
 22 32  2  0  0  0
 26 27  1  0  0  0
 28103  1  0  0  0
 28104  1  0  0  0
 29105  1  0  0  0
 29106  1  0  0  0
 33 34  1  0  0  0
 33 66  1  0  0  0
 33 70  2  0  0  0
 34 36  1  0  0  0
 34 59  1  0  0  0
 34107  1  0  0  0
 35 44  2  0  0  0
 35 45  1  0  0  0
 35 68  1  0  0  0
 36 56  1  0  0  0
 36108  1  0  0  0
 37 39  1  0  0  0
 37 47  1  0  0  0
 37 66  1  0  0  0
 37109  1  0  0  0
 38 43  2  0  0  0
 38 46  1  0  0  0
 38 47  1  0  0  0
 39 64  1  0  0  0
 39 67  2  0  0  0
 40 52  1  0  0  0
 40 53  2  0  0  0
 40 58  1  0  0  0
 41110  1  0  0  0
 41111  1  0  0  0
 41112  1  0  0  0
 41 48  1  0  0  0
 42 43  1  0  0  0
 42 66  1  0  0  0
 42113  1  0  0  0
 42114  1  0  0  0
 43 44  1  0  0  0
 44115  1  0  0  0
 45 46  2  0  0  0
 45116  1  0  0  0
 46117  1  0  0  0
 47118  1  0  0  0
 47119  1  0  0  0
 48 56  1  0  0  0
 48 65  1  0  0  0
 48120  1  0  0  0
 49 50  1  0  0  0
 49 53  1  0  0  0
 49 64  1  0  0  0
 49121  1  0  0  0
 50 51  1  0  0  0
 50122  1  0  0  0
 50123  1  0  0  0
 51 52  1  0  0  0
 51124  1  0  0  0
 51125  1  0  0  0
 52126  1  0  0  0
 52127  1  0  0  0
 53 54  1  0  0  0
 54 55  2  0  0  0
 54128  1  0  0  0
 55 57  1  0  0  0
 55129  1  0  0  0
 56 69  2  0  0  0
 57 58  2  0  0  0
 57130  1  0  0  0
 58131  1  0  0  0
 59 60  1  0  0  0
 59 61  1  0  0  0
 59 62  1  0  0  0
 60132  1  0  0  0
 60133  1  0  0  0
 60134  1  0  0  0
 61135  1  0  0  0
 61136  1  0  0  0
 61137  1  0  0  0
 62138  1  0  0  0
 62139  1  0  0  0
 62140  1  0  0  0
 63 65  1  0  0  0
 63141  1  0  0  0
 63142  1  0  0  0
 63143  1  0  0  0
 64144  1  0  0  0
 65145  1  0  0  0
 68 82  1  0  0  0
 71 72  2  0  0  0
 71 74  1  0  0  0
 71146  1  0  0  0
 72 76  1  0  0  0
 72147  1  0  0  0
 73 75  1  0  0  0
 73 76  2  0  0  0
 73148  1  0  0  0
 74 75  2  0  0  0
 74 80  1  0  0  0
 75 81  1  0  0  0
 76 86  1  0  0  0
 77 78  2  0  0  0
 77 79  1  0  0  0
 77149  1  0  0  0
 78 82  1  0  0  0
 78150  1  0  0  0
 79 83  1  0  0  0
 79 85  2  0  0  0
 80 84  1  0  0  0
 80151  1  0  0  0
 80152  1  0  0  0
 81 83  1  0  0  0
 81153  1  0  0  0
 81154  1  0  0  0
 82155  1  0  0  0
 82156  1  0  0  0
 83157  1  0  0  0
 84158  1  0  0  0
M  ISO  4   1 100  68 101  82 101  84 100
M  END
> <chiral flag>
0

> <version>
0

> <s_m_source_file>
/data/baiqing/PycharmProjects/Reinvent-master-3.2/result/LINK_invent/BTK/process_docking_weight1_custom_product_contain_oxygen_bond_distance_aromatic_linkinvent_7_9_3/rearranged_h_0048.sdf

> <i_m_source_file_index>
70

> <r_mmod_Potential_Energy-OPLS-2005>
-245.56005859375

> <r_mmod_Stretch_Energy-OPLS-2005>
36.3948364257812

> <r_mmod_Bend_Energy-OPLS-2005>
87.2234268188477

> <r_mmod_Torsional_Energy-OPLS-2005>
216.982818603516

> <r_mmod_Improper_Torsional_Energy-OPLS-2005>
3.81675052642822

> <r_mmod_Van_der_Waal_Energy-OPLS-2005>
156.902542114258

> <r_mmod_Electrostatic_Energy-OPLS-2005>
-517.052368164062

> <r_mmod_Solvation_Energy-OPLS-2005>
-239.504455566406

> <b_mmod_Minimization_Converged-OPLS-2005>
0

> <r_mmod_RMS_Derivative-OPLS-2005>
2.68321704864502

$$$$
70
                    3D
 Structure written by MMmdl.
161170  0  0  1  0            999 V2000
  -29.9133  -16.7541   20.2788 C   0  0  0  0  0  0
  -30.2773  -13.9410   19.5140 C   0  0  0  0  0  0
  -29.5653  -13.0207   18.4297 C   0  0  0  0  0  0
  -28.2585  -12.4158   18.9369 C   0  0  0  0  0  0
  -27.5729  -13.4608   19.8251 C   0  0  2  0  0  0
  -28.4954  -14.2435   20.8487 C   0  0  0  0  0  0
  -25.2135  -13.8549   20.5992 C   0  0  0  0  0  0
  -24.1671  -13.0488   20.9357 C   0  0  0  0  0  0
  -24.6585  -11.7069   20.8741 C   0  0  0  0  0  0
  -23.9302  -10.4337   21.0324 C   0  0  0  0  0  0
  -24.3767   -9.4239   21.9140 C   0  0  0  0  0  0
  -23.6381   -8.2298   22.0744 C   0  0  0  0  0  0
  -22.4354   -8.0338   21.3544 C   0  0  0  0  0  0
  -22.0040   -9.0320   20.4629 C   0  0  0  0  0  0
  -22.7432  -10.2170   20.3009 C   0  0  0  0  0  0
  -21.6884   -6.0773   22.5277 C   0  0  0  0  0  0
  -21.4037   -6.5662   23.8215 C   0  0  0  0  0  0
  -21.3666   -5.6805   24.9170 C   0  0  0  0  0  0
  -21.6043   -4.3067   24.7214 C   0  0  0  0  0  0
  -21.8816   -3.8169   23.4332 C   0  0  0  0  0  0
  -21.9200   -4.6994   22.3393 C   0  0  0  0  0  0
  -22.7633  -13.5080   21.1940 C   0  0  0  0  0  0
  -22.1663   -4.2178   21.0970 F   0  0  0  0  0  0
  -21.5623   -3.4545   25.7722 F   0  0  0  0  0  0
  -29.4632  -15.2088   20.1258 N   0  0  0  0  0  0
  -26.2832  -13.0219   20.3568 N   0  0  0  0  0  0
  -25.9611  -11.7102   20.5688 N   0  0  0  0  0  0
  -22.0340  -12.8016   22.0487 N   0  0  0  0  0  0
  -25.3438  -15.2314   20.4390 N   0  0  0  0  0  0
  -31.1408  -16.3970   20.2185 O   0  0  0  0  0  0
  -21.6686   -6.8943   21.4251 O   0  0  0  0  0  0
  -22.3253  -14.5356   20.6770 O   0  0  0  0  0  0
  -24.7566  -31.7050   23.0872 C   0  0  0  0  0  0
  -25.9761  -32.4018   23.7710 C   0  0  1  0  0  0
  -27.2687  -25.9335   20.2720 C   0  0  0  0  0  0
  -25.6012  -33.7889   24.1509 N   0  0  0  0  0  0
  -23.6164  -30.2682   21.4606 C   0  0  2  0  0  0
  -25.0790  -28.4404   20.1426 C   0  0  0  0  0  0
  -22.8086  -29.3802   22.4523 C   0  0  0  0  0  0
  -18.0382  -28.1459   22.8415 C   0  0  0  0  0  0
  -24.1495  -36.6962   23.2675 C   0  0  0  0  0  0
  -26.2181  -30.1809   21.4674 C   0  0  0  0  0  0
  -26.2764  -28.6581   20.8311 C   0  0  0  0  0  0
  -27.3130  -27.4620   20.8420 C   0  0  0  0  0  0
  -26.0342  -26.1200   19.5180 C   0  0  0  0  0  0
  -25.0421  -27.2007   19.4606 C   0  0  0  0  0  0
  -23.9096  -29.4867   20.1324 C   0  0  0  0  0  0
  -25.4172  -36.2636   24.0230 C   0  0  1  0  0  0
  -20.6050  -28.3841   23.1012 C   0  0  2  0  0  0
  -20.6803  -26.9430   22.5423 C   0  0  0  0  0  0
  -19.5797  -26.6340   21.5225 C   0  0  0  0  0  0
  -18.1979  -26.7971   22.1603 C   0  0  0  0  0  0
  -19.1667  -28.8993   23.2669 C   0  0  0  0  0  0
  -18.9562  -30.1558   23.8744 C   0  0  0  0  0  0
  -17.6544  -30.6620   24.0533 C   0  0  0  0  0  0
  -25.9194  -34.9047   23.4771 C   0  0  0  0  0  0
  -16.5428  -29.9088   23.6370 C   0  0  0  0  0  0
  -16.7358  -28.6516   23.0379 C   0  0  0  0  0  0
  -26.4708  -31.6392   25.0643 C   0  0  0  0  0  0
  -25.3584  -31.3913   26.1121 C   0  0  0  0  0  0
  -27.0767  -30.2665   24.7077 C   0  0  0  0  0  0
  -27.6007  -32.4442   25.7497 C   0  0  0  0  0  0
  -27.5539  -37.1629   24.8466 C   0  0  0  0  0  0
  -21.4669  -29.2927   22.3250 N   0  0  0  0  0  0
  -26.4234  -37.3480   23.9412 N   0  0  0  0  0  0
  -24.8977  -30.7706   22.0569 N   0  0  0  0  0  0
  -23.4166  -28.7550   23.3229 O   0  0  0  0  0  0
  -28.1676  -24.3911   20.3359 O   0  0  0  0  0  0
  -26.5952  -34.8780   22.4471 O   0  0  0  0  0  0
  -23.6428  -32.0479   23.5334 O   0  0  0  0  0  0
  -30.9980  -23.2879   21.4835 C   0  0  0  0  0  0
  -31.9109  -23.8354   20.5323 C   0  0  0  0  0  0
  -32.5054  -21.5180   21.7056 C   0  0  0  0  0  0
  -31.1513  -21.9091   21.7942 C   0  0  0  0  0  0
  -32.8852  -21.6161   20.3615 C   0  0  0  0  0  0
  -32.7988  -22.9425   19.8620 C   0  0  0  0  0  0
  -29.9118  -21.2401   19.3133 C   0  0  0  0  0  0
  -28.9011  -19.0401   22.5019 C   0  0  0  0  0  0
  -27.6852  -20.4841   21.2988 C   0  0  0  0  0  0
  -31.0980  -19.0027   21.6276 C   0  0  0  0  0  0
  -28.3734  -22.2230   20.2032 C   0  0  2  0  0  0
  -32.4225  -20.4510   19.4844 C   0  0  0  0  0  0
  -29.9002  -20.8628   21.7281 C   0  0  0  0  0  0
  -31.0484  -20.1173   19.8928 N   0  0  0  0  0  0
  -29.3329  -18.5247   20.3427 N   0  0  0  0  0  0
  -30.0942  -21.6293   18.1561 O   0  0  0  0  0  0
  -33.5151  -23.3898   18.3571 Cl  0  0  0  0  0  0
  -31.1596  -14.3317   19.0061 H   0  0  0  0  0  0
  -30.7067  -13.3272   20.3085 H   0  0  0  0  0  0
  -30.2403  -12.2326   18.0935 H   0  0  0  0  0  0
  -29.3522  -13.6311   17.5511 H   0  0  0  0  0  0
  -28.4828  -11.5279   19.5295 H   0  0  0  0  0  0
  -27.6190  -12.0996   18.1117 H   0  0  0  0  0  0
  -27.2980  -14.2244   19.0950 H   0  0  0  0  0  0
  -28.9828  -13.5693   21.5556 H   0  0  0  0  0  0
  -27.8689  -14.8754   21.4784 H   0  0  0  0  0  0
  -25.2896   -9.5699   22.4744 H   0  0  0  0  0  0
  -24.0058   -7.4702   22.7493 H   0  0  0  0  0  0
  -21.0964   -8.8873   19.8940 H   0  0  0  0  0  0
  -22.3892  -10.9707   19.6116 H   0  0  0  0  0  0
  -21.2040   -7.6171   23.9729 H   0  0  0  0  0  0
  -21.1485   -6.0529   25.9075 H   0  0  0  0  0  0
  -22.0584   -2.7630   23.2822 H   0  0  0  0  0  0
  -22.4038  -11.9731   22.4905 H   0  0  0  0  0  0
  -21.0919  -13.0940   22.2659 H   0  0  0  0  0  0
  -24.5593  -15.8650   20.5460 H   0  0  0  0  0  0
  -26.1879  -15.6911   20.1238 H   0  0  0  0  0  0
  -26.7948  -32.4361   23.0507 H   0  0  0  0  0  0
  -24.9934  -33.8793   24.9515 H   0  0  0  0  0  0
  -22.9875  -31.1227   21.2020 H   0  0  0  0  0  0
  -23.3793  -35.9250   23.3215 H   0  0  0  0  0  0
  -24.3538  -36.8795   22.2115 H   0  0  0  0  0  0
  -23.7227  -37.6065   23.6897 H   0  0  0  0  0  0
  -26.4982  -30.8529   20.6552 H   0  0  0  0  0  0
  -27.0442  -30.2687   22.1585 H   0  0  0  0  0  0
  -28.1988  -27.6724   21.4247 H   0  0  0  0  0  0
  -25.7496  -25.2479   18.9466 H   0  0  0  0  0  0
  -24.1639  -27.0036   18.8614 H   0  0  0  0  0  0
  -24.1429  -30.2104   19.3508 H   0  0  0  0  0  0
  -23.0005  -28.9876   19.7936 H   0  0  0  0  0  0
  -25.1419  -36.1285   25.0714 H   0  0  0  0  0  0
  -21.0098  -28.3520   24.1154 H   0  0  0  0  0  0
  -20.5590  -26.2486   23.3751 H   0  0  0  0  0  0
  -21.6659  -26.7248   22.1294 H   0  0  0  0  0  0
  -19.6937  -25.6213   21.1348 H   0  0  0  0  0  0
  -19.6770  -27.3072   20.6698 H   0  0  0  0  0  0
  -17.4256  -26.6725   21.3996 H   0  0  0  0  0  0
  -18.0331  -26.0147   22.9025 H   0  0  0  0  0  0
  -19.8040  -30.7405   24.2053 H   0  0  0  0  0  0
  -17.5094  -31.6286   24.5166 H   0  0  0  0  0  0
  -15.5424  -30.2946   23.7781 H   0  0  0  0  0  0
  -15.8758  -28.0786   22.7181 H   0  0  0  0  0  0
  -24.5842  -30.7195   25.7396 H   0  0  0  0  0  0
  -24.8706  -32.3195   26.4105 H   0  0  0  0  0  0
  -25.7594  -30.9360   27.0187 H   0  0  0  0  0  0
  -26.3601  -29.6022   24.2244 H   0  0  0  0  0  0
  -27.4077  -29.7441   25.6064 H   0  0  0  0  0  0
  -27.9617  -30.3647   24.0792 H   0  0  0  0  0  0
  -27.2448  -33.3907   26.1581 H   0  0  0  0  0  0
  -28.4055  -32.6744   25.0504 H   0  0  0  0  0  0
  -28.0412  -31.8922   26.5810 H   0  0  0  0  0  0
  -28.2473  -37.9996   24.7519 H   0  0  0  0  0  0
  -28.1113  -36.2507   24.6284 H   0  0  0  0  0  0
  -27.2253  -37.1234   25.8867 H   0  0  0  0  0  0
  -21.0163  -29.8453   21.6090 H   0  0  0  0  0  0
  -25.9992  -38.2491   24.1445 H   0  0  0  0  0  0
  -30.0970  -23.8341   21.7190 H   0  0  0  0  0  0
  -31.7677  -24.8397   20.1603 H   0  0  0  0  0  0
  -33.1166  -22.2146   22.2671 H   0  0  0  0  0  0
  -28.4283  -18.0542   22.5417 H   0  0  0  0  0  0
  -28.9070  -19.3210   23.5591 H   0  0  0  0  0  0
  -26.8796  -20.8266   21.9490 H   0  0  0  0  0  0
  -27.1459  -19.8920   20.5592 H   0  0  0  0  0  0
  -31.6230  -18.0650   21.5916 H   0  0  0  0  0  0
  -31.7799  -19.3722   22.3919 H   0  0  0  0  0  0
  -27.6512  -22.1699   19.3887 H   0  0  0  0  0  0
  -33.0696  -19.5903   19.6512 H   0  0  0  0  0  0
  -32.4797  -20.6952   18.4231 H   0  0  0  0  0  0
  -29.2371  -21.5622   22.2620 H   0  0  0  0  0  0
  -30.2537  -20.7390   22.7723 H   0  0  0  0  0  0
  -28.3577  -18.5310   20.0799 H   0  0  0  0  0  0
  1 25  1  0  0  0
  1 30  2  0  0  0
  1 85  1  0  0  0
  2  3  1  0  0  0
  2 25  1  0  0  0
  2 88  1  0  0  0
  2 89  1  0  0  0
  3  4  1  0  0  0
  3 90  1  0  0  0
  3 91  1  0  0  0
  4  5  1  0  0  0
  4 92  1  0  0  0
  4 93  1  0  0  0
  5  6  1  0  0  0
  5 26  1  0  0  0
  5 94  1  0  0  0
  6 25  1  0  0  0
  6 95  1  0  0  0
  6 96  1  0  0  0
  7  8  2  0  0  0
  7 26  1  0  0  0
  7 29  1  0  0  0
  8  9  1  0  0  0
  8 22  1  0  0  0
  9 10  1  0  0  0
  9 27  2  0  0  0
 10 11  2  0  0  0
 10 15  1  0  0  0
 11 12  1  0  0  0
 11 97  1  0  0  0
 12 13  2  0  0  0
 12 98  1  0  0  0
 13 14  1  0  0  0
 13 31  1  0  0  0
 14 15  2  0  0  0
 14 99  1  0  0  0
 15100  1  0  0  0
 16 17  2  0  0  0
 16 21  1  0  0  0
 16 31  1  0  0  0
 17 18  1  0  0  0
 17101  1  0  0  0
 18 19  2  0  0  0
 18102  1  0  0  0
 19 20  1  0  0  0
 19 24  1  0  0  0
 20 21  2  0  0  0
 20103  1  0  0  0
 21 23  1  0  0  0
 22 28  1  0  0  0
 22 32  2  0  0  0
 26 27  1  0  0  0
 28104  1  0  0  0
 28105  1  0  0  0
 29106  1  0  0  0
 29107  1  0  0  0
 33 34  1  0  0  0
 33 66  1  0  0  0
 33 70  2  0  0  0
 34 36  1  0  0  0
 34 59  1  0  0  0
 34108  1  0  0  0
 35 44  2  0  0  0
 35 45  1  0  0  0
 35 68  1  0  0  0
 36 56  1  0  0  0
 36109  1  0  0  0
 37 39  1  0  0  0
 37 47  1  0  0  0
 37 66  1  0  0  0
 37110  1  0  0  0
 38 43  2  0  0  0
 38 46  1  0  0  0
 38 47  1  0  0  0
 39 64  1  0  0  0
 39 67  2  0  0  0
 40 52  1  0  0  0
 40 53  2  0  0  0
 40 58  1  0  0  0
 41111  1  0  0  0
 41112  1  0  0  0
 41113  1  0  0  0
 41 48  1  0  0  0
 42 43  1  0  0  0
 42 66  1  0  0  0
 42114  1  0  0  0
 42115  1  0  0  0
 43 44  1  0  0  0
 44116  1  0  0  0
 45 46  2  0  0  0
 45117  1  0  0  0
 46118  1  0  0  0
 47119  1  0  0  0
 47120  1  0  0  0
 48 56  1  0  0  0
 48 65  1  0  0  0
 48121  1  0  0  0
 49 50  1  0  0  0
 49 53  1  0  0  0
 49 64  1  0  0  0
 49122  1  0  0  0
 50 51  1  0  0  0
 50123  1  0  0  0
 50124  1  0  0  0
 51 52  1  0  0  0
 51125  1  0  0  0
 51126  1  0  0  0
 52127  1  0  0  0
 52128  1  0  0  0
 53 54  1  0  0  0
 54 55  2  0  0  0
 54129  1  0  0  0
 55 57  1  0  0  0
 55130  1  0  0  0
 56 69  2  0  0  0
 57 58  2  0  0  0
 57131  1  0  0  0
 58132  1  0  0  0
 59 60  1  0  0  0
 59 61  1  0  0  0
 59 62  1  0  0  0
 60133  1  0  0  0
 60134  1  0  0  0
 60135  1  0  0  0
 61136  1  0  0  0
 61137  1  0  0  0
 61138  1  0  0  0
 62139  1  0  0  0
 62140  1  0  0  0
 62141  1  0  0  0
 63 65  1  0  0  0
 63142  1  0  0  0
 63143  1  0  0  0
 63144  1  0  0  0
 64145  1  0  0  0
 65146  1  0  0  0
 68 81  1  0  0  0
 71 72  2  0  0  0
 71 74  1  0  0  0
 71147  1  0  0  0
 72 76  1  0  0  0
 72148  1  0  0  0
 73 74  2  0  0  0
 73 75  1  0  0  0
 73149  1  0  0  0
 74 83  1  0  0  0
 75 76  2  0  0  0
 75 82  1  0  0  0
 76 87  1  0  0  0
 77 81  1  0  0  0
 77 84  1  0  0  0
 77 86  2  0  0  0
 78 79  1  0  0  0
 78 80  1  0  0  0
 78150  1  0  0  0
 78151  1  0  0  0
 79 81  1  0  0  0
 79152  1  0  0  0
 79153  1  0  0  0
 80 84  1  0  0  0
 80154  1  0  0  0
 80155  1  0  0  0
 81156  1  0  0  0
 82 84  1  0  0  0
 82157  1  0  0  0
 82158  1  0  0  0
 83 85  1  0  0  0
 83159  1  0  0  0
 83160  1  0  0  0
 85161  1  0  0  0
M  ISO  4   1 100  68 101  81 101  85 100
M  END
> <chiral flag>
0

> <version>
0

> <s_m_source_file>
/data/baiqing/PycharmProjects/Reinvent-master-3.2/result/LINK_invent/BTK/process_docking_weight1_custom_product_contain_oxygen_bond_distance_aromatic_linkinvent_7_9_3/rearranged_h_0048.sdf

> <i_m_source_file_index>
71

> <r_mmod_Potential_Energy-OPLS-2005>
14195.4755859375

> <r_mmod_Stretch_Energy-OPLS-2005>
7678.6591796875

> <r_mmod_Bend_Energy-OPLS-2005>
1256.63500976562

> <r_mmod_Torsional_Energy-OPLS-2005>
557.688537597656

> <r_mmod_Improper_Torsional_Energy-OPLS-2005>
40.7043533325195

> <r_mmod_Van_der_Waal_Energy-OPLS-2005>
1944.22485351562

> <r_mmod_Electrostatic_Energy-OPLS-2005>
-349.113189697266

> <r_mmod_Solvation_Energy-OPLS-2005>
-239.088668823242

> <b_mmod_Minimization_Converged-OPLS-2005>
0

> <r_mmod_RMS_Derivative-OPLS-2005>
0.716240704059601

$$$$
71
                    3D
 Structure written by MMmdl.
165174  0  0  1  0            999 V2000
  -30.5718  -14.9128   20.4157 C   0  0  0  0  0  0
  -30.4281  -12.5654   19.5006 C   0  0  0  0  0  0
  -29.5210  -12.5167   18.2519 C   0  0  0  0  0  0
  -28.0488  -12.3172   18.6606 C   0  0  0  0  0  0
  -27.6253  -13.2437   19.8305 C   0  0  2  0  0  0
  -28.6626  -13.2729   20.9677 C   0  0  0  0  0  0
  -25.2477  -13.8159   20.5673 C   0  0  0  0  0  0
  -24.1780  -13.0411   20.9194 C   0  0  0  0  0  0
  -24.6391  -11.6901   20.8769 C   0  0  0  0  0  0
  -23.9083  -10.4283   21.0424 C   0  0  0  0  0  0
  -24.3631   -9.4193   21.9194 C   0  0  0  0  0  0
  -23.6292   -8.2243   22.0769 C   0  0  0  0  0  0
  -22.4274   -8.0291   21.3560 C   0  0  0  0  0  0
  -21.9913   -9.0274   20.4673 C   0  0  0  0  0  0
  -22.7249  -10.2149   20.3082 C   0  0  0  0  0  0
  -21.6855   -6.0723   22.5286 C   0  0  0  0  0  0
  -21.4002   -6.5637   23.8207 C   0  0  0  0  0  0
  -21.3666   -5.6806   24.9181 C   0  0  0  0  0  0
  -21.6055   -4.3064   24.7230 C   0  0  0  0  0  0
  -21.8824   -3.8148   23.4358 C   0  0  0  0  0  0
  -21.9185   -4.6953   22.3403 C   0  0  0  0  0  0
  -22.7820  -13.5233   21.1873 C   0  0  0  0  0  0
  -22.1656   -4.2128   21.0989 F   0  0  0  0  0  0
  -21.5638   -3.4558   25.7749 F   0  0  0  0  0  0
  -29.9383  -13.6749   20.3657 N   0  0  0  0  0  0
  -26.2867  -12.9375   20.3204 N   0  0  0  0  0  0
  -25.9311  -11.6517   20.5725 N   0  0  0  0  0  0
  -22.0485  -12.8258   22.0493 N   0  0  0  0  0  0
  -25.4248  -15.1836   20.4108 N   0  0  0  0  0  0
  -31.7823  -14.9285   20.1771 O   0  0  0  0  0  0
  -21.6652   -6.8874   21.4249 O   0  0  0  0  0  0
  -22.3519  -14.5527   20.6724 O   0  0  0  0  0  0
  -24.6434  -31.8459   23.1899 C   0  0  0  0  0  0
  -25.9205  -32.4702   23.8295 C   0  0  1  0  0  0
  -27.2186  -27.1535   20.1290 C   0  0  0  0  0  0
  -25.5944  -33.8506   24.2199 N   0  0  0  0  0  0
  -23.4445  -30.4668   21.5364 C   0  0  2  0  0  0
  -24.8906  -28.8974   20.1078 C   0  0  0  0  0  0
  -22.7558  -29.4560   22.4873 C   0  0  0  0  0  0
  -18.0303  -28.1411   22.8458 C   0  0  0  0  0  0
  -24.1493  -36.7237   23.2640 C   0  0  0  0  0  0
  -26.0011  -30.7215   21.3889 C   0  0  0  0  0  0
  -26.0686  -29.3377   20.7222 C   0  0  0  0  0  0
  -27.2287  -28.4790   20.7205 C   0  0  0  0  0  0
  -26.0064  -26.8047   19.4911 C   0  0  0  0  0  0
  -24.8706  -27.6427   19.4832 C   0  0  0  0  0  0
  -23.6677  -29.7985   20.1544 C   0  0  0  0  0  0
  -25.4132  -36.3032   24.0319 C   0  0  1  0  0  0
  -20.5912  -28.3722   23.1241 C   0  0  2  0  0  0
  -20.6796  -26.9432   22.5412 C   0  0  0  0  0  0
  -19.5768  -26.6389   21.5217 C   0  0  0  0  0  0
  -18.1947  -26.7944   22.1626 C   0  0  0  0  0  0
  -19.1562  -28.8885   23.2835 C   0  0  0  0  0  0
  -18.9478  -30.1468   23.8870 C   0  0  0  0  0  0
  -17.6478  -30.6599   24.0555 C   0  0  0  0  0  0
  -25.9081  -34.9405   23.5078 C   0  0  0  0  0  0
  -16.5365  -29.9089   23.6339 C   0  0  0  0  0  0
  -16.7286  -28.6515   23.0349 C   0  0  0  0  0  0
  -26.4514  -31.6577   25.0742 C   0  0  0  0  0  0
  -25.3678  -31.3773   26.1423 C   0  0  0  0  0  0
  -27.0383  -30.2968   24.6347 C   0  0  0  0  0  0
  -27.6059  -32.4343   25.7505 C   0  0  0  0  0  0
  -27.5585  -37.1791   24.8474 C   0  0  0  0  0  0
  -21.4258  -29.3033   22.3609 N   0  0  0  0  0  0
  -26.4296  -37.3753   23.9411 N   0  0  0  0  0  0
  -24.7159  -31.0336   22.0920 N   0  0  0  0  0  0
  -23.4205  -28.8131   23.3038 O   0  0  0  0  0  0
  -28.2951  -26.2023   20.2277 O   0  0  0  0  0  0
  -26.5681  -34.8904   22.4664 O   0  0  0  0  0  0
  -23.5555  -32.1312   23.7132 O   0  0  0  0  0  0
  -28.5543  -19.1404   22.6046 C   0  0  0  0  0  0
  -28.4582  -18.4082   23.7937 C   0  0  0  0  0  0
  -29.3360  -16.4844   22.6397 C   0  0  0  0  0  0
  -29.0472  -18.6270   21.3694 C   0  0  0  0  0  0
  -29.4334  -17.1480   21.3815 C   0  0  0  0  0  0
  -28.8675  -17.0801   23.8158 C   0  0  0  0  0  0
  -27.6649  -20.6382   20.0046 C   0  0  0  0  0  0
  -24.6916  -18.5024   20.6857 C   0  0  0  0  0  0
  -26.4231  -20.1052   20.1213 C   0  0  0  0  0  0
  -25.9972  -18.7861   20.5466 C   0  0  0  0  0  0
  -27.6882  -22.1206   19.4455 C   0  0  0  0  0  0
  -29.8539  -22.4798   20.3226 C   0  0  0  0  0  0
  -29.0375  -19.8923   20.3124 C   0  0  1  0  0  0
  -28.4531  -23.2374   20.2591 C   0  0  1  0  0  0
  -28.3473  -24.7883   19.5943 C   0  0  0  0  0  0
  -29.8629  -16.1491   20.3319 N   0  0  0  0  0  0
  -29.8883  -21.0375   20.8643 N   0  3  0  0  0  0
  -28.7784  -16.1691   25.2787 Cl  0  0  0  0  0  0
  -31.4666  -12.6992   19.1988 H   0  0  0  0  0  0
  -30.4037  -11.6162   20.0381 H   0  0  0  0  0  0
  -29.8394  -11.7137   17.5859 H   0  0  0  0  0  0
  -29.6267  -13.4436   17.6864 H   0  0  0  0  0  0
  -27.9319  -11.2742   18.9555 H   0  0  0  0  0  0
  -27.3930  -12.4677   17.8029 H   0  0  0  0  0  0
  -27.5896  -14.2480   19.4065 H   0  0  0  0  0  0
  -28.7435  -12.3014   21.4568 H   0  0  0  0  0  0
  -28.3464  -13.9824   21.7295 H   0  0  0  0  0  0
  -25.2797   -9.5654   22.4725 H   0  0  0  0  0  0
  -23.9995   -7.4643   22.7504 H   0  0  0  0  0  0
  -21.0819   -8.8827   19.8988 H   0  0  0  0  0  0
  -22.3752  -10.9688   19.6174 H   0  0  0  0  0  0
  -21.2000   -7.6152   23.9679 H   0  0  0  0  0  0
  -21.1482   -6.0554   25.9071 H   0  0  0  0  0  0
  -22.0599   -2.7602   23.2892 H   0  0  0  0  0  0
  -22.4074  -11.9958   22.4938 H   0  0  0  0  0  0
  -21.1121  -13.1297   22.2748 H   0  0  0  0  0  0
  -24.6669  -15.8456   20.5181 H   0  0  0  0  0  0
  -26.2904  -15.6113   20.1102 H   0  0  0  0  0  0
  -26.7270  -32.5294   23.1026 H   0  0  0  0  0  0
  -25.0033  -33.9628   25.0304 H   0  0  0  0  0  0
  -22.7459  -31.2924   21.3857 H   0  0  0  0  0  0
  -23.3771  -35.9554   23.3305 H   0  0  0  0  0  0
  -24.3567  -36.8860   22.2053 H   0  0  0  0  0  0
  -23.7239  -37.6431   23.6672 H   0  0  0  0  0  0
  -26.1702  -31.4825   20.6256 H   0  0  0  0  0  0
  -26.8663  -30.7587   22.0390 H   0  0  0  0  0  0
  -28.1265  -28.8114   21.2224 H   0  0  0  0  0  0
  -25.8721  -25.8420   19.0263 H   0  0  0  0  0  0
  -23.9654  -27.2909   19.0084 H   0  0  0  0  0  0
  -23.8045  -30.5748   19.4010 H   0  0  0  0  0  0
  -22.7811  -29.2431   19.8444 H   0  0  0  0  0  0
  -25.1334  -36.1862   25.0816 H   0  0  0  0  0  0
  -20.9984  -28.3326   24.1368 H   0  0  0  0  0  0
  -20.5705  -26.2338   23.3629 H   0  0  0  0  0  0
  -21.6669  -26.7454   22.1210 H   0  0  0  0  0  0
  -19.6924  -25.6292   21.1260 H   0  0  0  0  0  0
  -19.6718  -27.3190   20.6737 H   0  0  0  0  0  0
  -17.4227  -26.6653   21.4028 H   0  0  0  0  0  0
  -18.0344  -26.0115   22.9051 H   0  0  0  0  0  0
  -19.7949  -30.7279   24.2250 H   0  0  0  0  0  0
  -17.5033  -31.6277   24.5158 H   0  0  0  0  0  0
  -15.5360  -30.2988   23.7680 H   0  0  0  0  0  0
  -15.8682  -28.0822   22.7085 H   0  0  0  0  0  0
  -24.5859  -30.7127   25.7728 H   0  0  0  0  0  0
  -24.8847  -32.2951   26.4790 H   0  0  0  0  0  0
  -25.7922  -30.8973   27.0250 H   0  0  0  0  0  0
  -26.3010  -29.6690   24.1323 H   0  0  0  0  0  0
  -27.3943  -29.7287   25.4955 H   0  0  0  0  0  0
  -27.8952  -30.4202   23.9716 H   0  0  0  0  0  0
  -27.2668  -33.3663   26.2048 H   0  0  0  0  0  0
  -28.3868  -32.6879   25.0319 H   0  0  0  0  0  0
  -28.0734  -31.8490   26.5436 H   0  0  0  0  0  0
  -28.2632  -38.0065   24.7526 H   0  0  0  0  0  0
  -28.1063  -36.2607   24.6314 H   0  0  0  0  0  0
  -27.2304  -37.1455   25.8878 H   0  0  0  0  0  0
  -20.9479  -29.8690   21.6740 H   0  0  0  0  0  0
  -26.0162  -38.2834   24.1376 H   0  0  0  0  0  0
  -28.2053  -20.1613   22.6682 H   0  0  0  0  0  0
  -28.0752  -18.8696   24.6921 H   0  0  0  0  0  0
  -29.6195  -15.4510   22.7572 H   0  0  0  0  0  0
  -24.3547  -17.5329   21.0185 H   0  0  0  0  0  0
  -23.9272  -19.2390   20.4738 H   0  0  0  0  0  0
  -25.6017  -20.7492   19.8384 H   0  0  0  0  0  0
  -26.7053  -18.0010   20.7566 H   0  0  0  0  0  0
  -26.6697  -22.4808   19.2946 H   0  0  0  0  0  0
  -28.1056  -22.0642   18.4374 H   0  0  0  0  0  0
  -30.5384  -23.0745   20.9282 H   0  0  0  0  0  0
  -30.2984  -22.4667   19.3273 H   0  0  0  0  0  0
  -29.4608  -19.5642   19.3616 H   0  0  0  0  0  0
  -28.0225  -23.2804   21.2611 H   0  0  0  0  0  0
  -27.5731  -24.7305   18.8364 H   0  0  0  0  0  0
  -29.2425  -24.8576   18.9762 H   0  0  0  0  0  0
  -30.1286  -16.6189   19.4779 H   0  0  0  0  0  0
  -29.6580  -21.1018   21.8410 H   0  0  0  0  0  0
  -30.8463  -20.7299   20.8272 H   0  0  0  0  0  0
  1 25  1  0  0  0
  1 30  2  0  0  0
  1 86  1  0  0  0
  2  3  1  0  0  0
  2 25  1  0  0  0
  2 89  1  0  0  0
  2 90  1  0  0  0
  3  4  1  0  0  0
  3 91  1  0  0  0
  3 92  1  0  0  0
  4  5  1  0  0  0
  4 93  1  0  0  0
  4 94  1  0  0  0
  5  6  1  0  0  0
  5 26  1  0  0  0
  5 95  1  0  0  0
  6 25  1  0  0  0
  6 96  1  0  0  0
  6 97  1  0  0  0
  7  8  2  0  0  0
  7 26  1  0  0  0
  7 29  1  0  0  0
  8  9  1  0  0  0
  8 22  1  0  0  0
  9 10  1  0  0  0
  9 27  2  0  0  0
 10 11  2  0  0  0
 10 15  1  0  0  0
 11 12  1  0  0  0
 11 98  1  0  0  0
 12 13  2  0  0  0
 12 99  1  0  0  0
 13 14  1  0  0  0
 13 31  1  0  0  0
 14 15  2  0  0  0
 14100  1  0  0  0
 15101  1  0  0  0
 16 17  2  0  0  0
 16 21  1  0  0  0
 16 31  1  0  0  0
 17 18  1  0  0  0
 17102  1  0  0  0
 18 19  2  0  0  0
 18103  1  0  0  0
 19 20  1  0  0  0
 19 24  1  0  0  0
 20 21  2  0  0  0
 20104  1  0  0  0
 21 23  1  0  0  0
 22 28  1  0  0  0
 22 32  2  0  0  0
 26 27  1  0  0  0
 28105  1  0  0  0
 28106  1  0  0  0
 29107  1  0  0  0
 29108  1  0  0  0
 33 34  1  0  0  0
 33 66  1  0  0  0
 33 70  2  0  0  0
 34 36  1  0  0  0
 34 59  1  0  0  0
 34109  1  0  0  0
 35 44  2  0  0  0
 35 45  1  0  0  0
 35 68  1  0  0  0
 36 56  1  0  0  0
 36110  1  0  0  0
 37 39  1  0  0  0
 37 47  1  0  0  0
 37 66  1  0  0  0
 37111  1  0  0  0
 38 43  2  0  0  0
 38 46  1  0  0  0
 38 47  1  0  0  0
 39 64  1  0  0  0
 39 67  2  0  0  0
 40 52  1  0  0  0
 40 53  2  0  0  0
 40 58  1  0  0  0
 41112  1  0  0  0
 41113  1  0  0  0
 41114  1  0  0  0
 41 48  1  0  0  0
 42 43  1  0  0  0
 42 66  1  0  0  0
 42115  1  0  0  0
 42116  1  0  0  0
 43 44  1  0  0  0
 44117  1  0  0  0
 45 46  2  0  0  0
 45118  1  0  0  0
 46119  1  0  0  0
 47120  1  0  0  0
 47121  1  0  0  0
 48 56  1  0  0  0
 48 65  1  0  0  0
 48122  1  0  0  0
 49 50  1  0  0  0
 49 53  1  0  0  0
 49 64  1  0  0  0
 49123  1  0  0  0
 50 51  1  0  0  0
 50124  1  0  0  0
 50125  1  0  0  0
 51 52  1  0  0  0
 51126  1  0  0  0
 51127  1  0  0  0
 52128  1  0  0  0
 52129  1  0  0  0
 53 54  1  0  0  0
 54 55  2  0  0  0
 54130  1  0  0  0
 55 57  1  0  0  0
 55131  1  0  0  0
 56 69  2  0  0  0
 57 58  2  0  0  0
 57132  1  0  0  0
 58133  1  0  0  0
 59 60  1  0  0  0
 59 61  1  0  0  0
 59 62  1  0  0  0
 60134  1  0  0  0
 60135  1  0  0  0
 60136  1  0  0  0
 61137  1  0  0  0
 61138  1  0  0  0
 61139  1  0  0  0
 62140  1  0  0  0
 62141  1  0  0  0
 62142  1  0  0  0
 63 65  1  0  0  0
 63143  1  0  0  0
 63144  1  0  0  0
 63145  1  0  0  0
 64146  1  0  0  0
 65147  1  0  0  0
 68 85  1  0  0  0
 71 72  2  0  0  0
 71 74  1  0  0  0
 71148  1  0  0  0
 72 76  1  0  0  0
 72149  1  0  0  0
 73 75  1  0  0  0
 73 76  2  0  0  0
 73150  1  0  0  0
 74 75  2  0  0  0
 74 83  1  0  0  0
 75 86  1  0  0  0
 76 88  1  0  0  0
 77 79  2  0  0  0
 77 81  1  0  0  0
 77 83  1  0  0  0
 78 80  2  0  0  0
 78151  1  0  0  0
 78152  1  0  0  0
 79 80  1  0  0  0
 79153  1  0  0  0
 80154  1  0  0  0
 81 84  1  0  0  0
 81155  1  0  0  0
 81156  1  0  0  0
 82 84  1  0  0  0
 82 87  1  0  0  0
 82157  1  0  0  0
 82158  1  0  0  0
 83 87  1  0  0  0
 83159  1  0  0  0
 84 85  1  0  0  0
 84160  1  0  0  0
 85161  1  0  0  0
 85162  1  0  0  0
 86163  1  0  0  0
 87164  1  0  0  0
 87165  1  0  0  0
M  CHG  1  87   1
M  ISO  4   1 100  68 101  85 101  86 100
M  END
> <chiral flag>
0

> <version>
0

> <s_m_source_file>
/data/baiqing/PycharmProjects/Reinvent-master-3.2/result/LINK_invent/BTK/process_docking_weight1_custom_product_contain_oxygen_bond_distance_aromatic_linkinvent_7_9_3/rearranged_h_0048.sdf

> <i_m_source_file_index>
72

> <r_mmod_Potential_Energy-OPLS-2005>
501.601837158203

> <r_mmod_Stretch_Energy-OPLS-2005>
246.874877929688

> <r_mmod_Bend_Energy-OPLS-2005>
364.332611083984

> <r_mmod_Torsional_Energy-OPLS-2005>
289.838317871094

> <r_mmod_Improper_Torsional_Energy-OPLS-2005>
13.895359992981

> <r_mmod_Van_der_Waal_Energy-OPLS-2005>
149.317276000977

> <r_mmod_Electrostatic_Energy-OPLS-2005>
-255.679824829102

> <r_mmod_Solvation_Energy-OPLS-2005>
-478.421417236328

> <b_mmod_Minimization_Converged-OPLS-2005>
0

> <r_mmod_RMS_Derivative-OPLS-2005>
3.06335115432739

$$$$
72
                    3D
 Structure written by MMmdl.
163172  0  0  1  0            999 V2000
  -30.4972  -15.0063   20.3693 C   0  0  0  0  0  0
  -30.4291  -12.6020   19.5190 C   0  0  0  0  0  0
  -29.5151  -12.5027   18.2702 C   0  0  0  0  0  0
  -28.0460  -12.2965   18.6839 C   0  0  0  0  0  0
  -27.6187  -13.2508   19.8311 C   0  0  2  0  0  0
  -28.6540  -13.2981   20.9724 C   0  0  0  0  0  0
  -25.2413  -13.8273   20.5824 C   0  0  0  0  0  0
  -24.1693  -13.0472   20.9180 C   0  0  0  0  0  0
  -24.6303  -11.6950   20.8676 C   0  0  0  0  0  0
  -23.8993  -10.4306   21.0368 C   0  0  0  0  0  0
  -24.3565   -9.4230   21.9147 C   0  0  0  0  0  0
  -23.6288   -8.2229   22.0685 C   0  0  0  0  0  0
  -22.4251   -8.0259   21.3511 C   0  0  0  0  0  0
  -21.9888   -9.0208   20.4590 C   0  0  0  0  0  0
  -22.7178  -10.2111   20.3012 C   0  0  0  0  0  0
  -21.6865   -6.0698   22.5287 C   0  0  0  0  0  0
  -21.4021   -6.5607   23.8226 C   0  0  0  0  0  0
  -21.3682   -5.6757   24.9194 C   0  0  0  0  0  0
  -21.6065   -4.3013   24.7260 C   0  0  0  0  0  0
  -21.8829   -3.8102   23.4377 C   0  0  0  0  0  0
  -21.9196   -4.6914   22.3425 C   0  0  0  0  0  0
  -22.7707  -13.5193   21.1894 C   0  0  0  0  0  0
  -22.1627   -4.2091   21.1002 F   0  0  0  0  0  0
  -21.5637   -3.4501   25.7769 F   0  0  0  0  0  0
  -29.9311  -13.7215   20.3830 N   0  0  0  0  0  0
  -26.2792  -12.9493   20.3244 N   0  0  0  0  0  0
  -25.9231  -11.6608   20.5669 N   0  0  0  0  0  0
  -22.0390  -12.8148   22.0480 N   0  0  0  0  0  0
  -25.4187  -15.2025   20.4548 N   0  0  0  0  0  0
  -31.6922  -15.0664   20.0533 O   0  0  0  0  0  0
  -21.6621   -6.8839   21.4240 O   0  0  0  0  0  0
  -22.3360  -14.5497   20.6764 O   0  0  0  0  0  0
  -24.6528  -31.8345   23.1778 C   0  0  0  0  0  0
  -25.9259  -32.4639   23.8192 C   0  0  1  0  0  0
  -27.2200  -27.0601   20.1597 C   0  0  0  0  0  0
  -25.5989  -33.8433   24.2132 N   0  0  0  0  0  0
  -23.4621  -30.4506   21.5246 C   0  0  2  0  0  0
  -24.9105  -28.8574   20.1175 C   0  0  0  0  0  0
  -22.7627  -29.4485   22.4810 C   0  0  0  0  0  0
  -18.0339  -28.1376   22.8484 C   0  0  0  0  0  0
  -24.1504  -36.7238   23.2641 C   0  0  0  0  0  0
  -26.0246  -30.6787   21.3925 C   0  0  0  0  0  0
  -26.0931  -29.2824   20.7387 C   0  0  0  0  0  0
  -27.2507  -28.4029   20.7375 C   0  0  0  0  0  0
  -26.0123  -26.7560   19.4968 C   0  0  0  0  0  0
  -24.8865  -27.6092   19.4802 C   0  0  0  0  0  0
  -23.6918  -29.7705   20.1485 C   0  0  0  0  0  0
  -25.4140  -36.3009   24.0317 C   0  0  1  0  0  0
  -20.5956  -28.3708   23.1202 C   0  0  2  0  0  0
  -20.6826  -26.9393   22.5391 C   0  0  0  0  0  0
  -19.5794  -26.6348   21.5210 C   0  0  0  0  0  0
  -18.1980  -26.7924   22.1610 C   0  0  0  0  0  0
  -19.1601  -28.8866   23.2833 C   0  0  0  0  0  0
  -18.9499  -30.1470   23.8842 C   0  0  0  0  0  0
  -17.6489  -30.6572   24.0556 C   0  0  0  0  0  0
  -25.9067  -34.9383   23.5039 C   0  0  0  0  0  0
  -16.5381  -29.9057   23.6342 C   0  0  0  0  0  0
  -16.7317  -28.6480   23.0359 C   0  0  0  0  0  0
  -26.4546  -31.6538   25.0682 C   0  0  0  0  0  0
  -25.3680  -31.3776   26.1352 C   0  0  0  0  0  0
  -27.0406  -30.2903   24.6358 C   0  0  0  0  0  0
  -27.6069  -32.4322   25.7455 C   0  0  0  0  0  0
  -27.5592  -37.1782   24.8457 C   0  0  0  0  0  0
  -21.4318  -29.3035   22.3573 N   0  0  0  0  0  0
  -26.4307  -37.3730   23.9398 N   0  0  0  0  0  0
  -24.7325  -31.0140   22.0839 N   0  0  0  0  0  0
  -23.4240  -28.8041   23.2982 O   0  0  0  0  0  0
  -28.2669  -26.0415   20.1848 O   0  0  0  0  0  0
  -26.5648  -34.8904   22.4611 O   0  0  0  0  0  0
  -23.5615  -32.1236   23.6956 O   0  0  0  0  0  0
  -29.3963  -18.9268   17.8753 C   0  0  0  0  0  0
  -29.2858  -18.9618   20.5881 C   0  0  0  0  0  0
  -29.0313  -20.1451   18.4994 C   0  0  0  0  0  0
  -29.6672  -17.7103   18.5429 C   0  0  0  0  0  0
  -29.0536  -20.3076   19.9168 C   0  0  0  0  0  0
  -29.6187  -17.6258   19.9603 C   0  0  0  0  0  0
  -28.5130  -21.8282   21.8895 C   0  0  0  0  0  0
  -29.2724  -21.2619   22.8440 C   0  0  0  0  0  0
  -27.3969  -22.8136   22.2471 C   0  0  0  0  0  0
  -27.6913  -24.2830   21.8505 C   0  0  0  0  0  0
  -29.0029  -23.1405   19.9672 C   0  0  0  0  0  0
  -28.0063  -24.4784   20.3557 C   0  0  2  0  0  0
  -29.8393  -16.4859   17.6525 C   0  0  0  0  0  0
  -28.4495  -21.1924   17.5507 C   0  0  0  0  0  0
  -28.7491  -21.6739   20.5266 N   0  0  0  0  0  0
  -29.7208  -16.1997   20.6004 N   0  0  0  0  0  0
  -27.6746  -20.6033   16.6354 F   0  0  0  0  0  0
  -29.4174  -21.8594   16.9201 F   0  0  0  0  0  0
  -31.4659  -12.7515   19.2157 H   0  0  0  0  0  0
  -30.4225  -11.6564   20.0672 H   0  0  0  0  0  0
  -29.8347  -11.6778   17.6303 H   0  0  0  0  0  0
  -29.6032  -13.4053   17.6665 H   0  0  0  0  0  0
  -27.9422  -11.2599   19.0074 H   0  0  0  0  0  0
  -27.3786  -12.4041   17.8248 H   0  0  0  0  0  0
  -27.5797  -14.2460   19.3893 H   0  0  0  0  0  0
  -28.7296  -12.3194   21.4493 H   0  0  0  0  0  0
  -28.3366  -13.9989   21.7450 H   0  0  0  0  0  0
  -25.2669   -9.5720   22.4775 H   0  0  0  0  0  0
  -24.0032   -7.4589   22.7373 H   0  0  0  0  0  0
  -21.0818   -8.8689   19.8885 H   0  0  0  0  0  0
  -22.3594  -10.9643   19.6141 H   0  0  0  0  0  0
  -21.1991   -7.6094   23.9732 H   0  0  0  0  0  0
  -21.1501   -6.0464   25.9105 H   0  0  0  0  0  0
  -22.0601   -2.7552   23.2903 H   0  0  0  0  0  0
  -22.4153  -11.9934   22.4988 H   0  0  0  0  0  0
  -21.0976  -13.1080   22.2693 H   0  0  0  0  0  0
  -24.6540  -15.8613   20.5704 H   0  0  0  0  0  0
  -26.3092  -15.6572   20.2929 H   0  0  0  0  0  0
  -26.7344  -32.5218   23.0921 H   0  0  0  0  0  0
  -25.0216  -33.9479   25.0347 H   0  0  0  0  0  0
  -22.7695  -31.2782   21.3622 H   0  0  0  0  0  0
  -23.3781  -35.9549   23.3264 H   0  0  0  0  0  0
  -24.3600  -36.8884   22.2058 H   0  0  0  0  0  0
  -23.7230  -37.6419   23.6681 H   0  0  0  0  0  0
  -26.1984  -31.4200   20.6119 H   0  0  0  0  0  0
  -26.8869  -30.7261   22.0452 H   0  0  0  0  0  0
  -28.1542  -28.7256   21.2348 H   0  0  0  0  0  0
  -25.9091  -25.8126   18.9819 H   0  0  0  0  0  0
  -23.9903  -27.2773   18.9740 H   0  0  0  0  0  0
  -23.8390  -30.5348   19.3837 H   0  0  0  0  0  0
  -22.8056  -29.2104   19.8420 H   0  0  0  0  0  0
  -25.1324  -36.1837   25.0811 H   0  0  0  0  0  0
  -21.0077  -28.3323   24.1308 H   0  0  0  0  0  0
  -20.5700  -26.2318   23.3625 H   0  0  0  0  0  0
  -21.6692  -26.7362   22.1205 H   0  0  0  0  0  0
  -19.6921  -25.6244   21.1268 H   0  0  0  0  0  0
  -19.6747  -27.3141   20.6732 H   0  0  0  0  0  0
  -17.4258  -26.6703   21.3993 H   0  0  0  0  0  0
  -18.0347  -26.0031   22.8969 H   0  0  0  0  0  0
  -19.7957  -30.7328   24.2164 H   0  0  0  0  0  0
  -17.5016  -31.6237   24.5182 H   0  0  0  0  0  0
  -15.5374  -30.2935   23.7654 H   0  0  0  0  0  0
  -15.8730  -28.0765   22.7079 H   0  0  0  0  0  0
  -24.5941  -30.7024   25.7700 H   0  0  0  0  0  0
  -24.8775  -32.2954   26.4592 H   0  0  0  0  0  0
  -25.7930  -30.9113   27.0253 H   0  0  0  0  0  0
  -26.3030  -29.6610   24.1378 H   0  0  0  0  0  0
  -27.3962  -29.7242   25.4983 H   0  0  0  0  0  0
  -27.8975  -30.4075   23.9722 H   0  0  0  0  0  0
  -27.2684  -33.3687   26.1911 H   0  0  0  0  0  0
  -28.3941  -32.6781   25.0306 H   0  0  0  0  0  0
  -28.0698  -31.8527   26.5459 H   0  0  0  0  0  0
  -28.2601  -38.0089   24.7536 H   0  0  0  0  0  0
  -28.1104  -36.2627   24.6266 H   0  0  0  0  0  0
  -27.2311  -37.1407   25.8858 H   0  0  0  0  0  0
  -20.9525  -29.8776   21.6783 H   0  0  0  0  0  0
  -26.0172  -38.2795   24.1406 H   0  0  0  0  0  0
  -29.3712  -18.9020   16.7932 H   0  0  0  0  0  0
  -29.1590  -18.9396   21.6587 H   0  0  0  0  0  0
  -29.0864  -21.4432   23.8919 H   0  0  0  0  0  0
  -30.1168  -20.6313   22.6036 H   0  0  0  0  0  0
  -27.2251  -22.7677   23.3240 H   0  0  0  0  0  0
  -26.4660  -22.4830   21.7829 H   0  0  0  0  0  0
  -28.5342  -24.6386   22.4459 H   0  0  0  0  0  0
  -26.8415  -24.9122   22.1220 H   0  0  0  0  0  0
  -29.9716  -23.3919   20.3973 H   0  0  0  0  0  0
  -29.2175  -23.1368   18.9050 H   0  0  0  0  0  0
  -27.0936  -24.2672   19.8056 H   0  0  0  0  0  0
  -29.6239  -16.7063   16.6072 H   0  0  0  0  0  0
  -29.1438  -15.6991   17.9402 H   0  0  0  0  0  0
  -30.8585  -16.1055   17.6903 H   0  0  0  0  0  0
  -27.7708  -21.8869   18.0422 H   0  0  0  0  0  0
  -28.9276  -15.9879   21.1848 H   0  0  0  0  0  0
  1 25  1  0  0  0
  1 30  2  0  0  0
  1 86  1  0  0  0
  2  3  1  0  0  0
  2 25  1  0  0  0
  2 89  1  0  0  0
  2 90  1  0  0  0
  3  4  1  0  0  0
  3 91  1  0  0  0
  3 92  1  0  0  0
  4  5  1  0  0  0
  4 93  1  0  0  0
  4 94  1  0  0  0
  5  6  1  0  0  0
  5 26  1  0  0  0
  5 95  1  0  0  0
  6 25  1  0  0  0
  6 96  1  0  0  0
  6 97  1  0  0  0
  7  8  2  0  0  0
  7 26  1  0  0  0
  7 29  1  0  0  0
  8  9  1  0  0  0
  8 22  1  0  0  0
  9 10  1  0  0  0
  9 27  2  0  0  0
 10 11  2  0  0  0
 10 15  1  0  0  0
 11 12  1  0  0  0
 11 98  1  0  0  0
 12 13  2  0  0  0
 12 99  1  0  0  0
 13 14  1  0  0  0
 13 31  1  0  0  0
 14 15  2  0  0  0
 14100  1  0  0  0
 15101  1  0  0  0
 16 17  2  0  0  0
 16 21  1  0  0  0
 16 31  1  0  0  0
 17 18  1  0  0  0
 17102  1  0  0  0
 18 19  2  0  0  0
 18103  1  0  0  0
 19 20  1  0  0  0
 19 24  1  0  0  0
 20 21  2  0  0  0
 20104  1  0  0  0
 21 23  1  0  0  0
 22 28  1  0  0  0
 22 32  2  0  0  0
 26 27  1  0  0  0
 28105  1  0  0  0
 28106  1  0  0  0
 29107  1  0  0  0
 29108  1  0  0  0
 33 34  1  0  0  0
 33 66  1  0  0  0
 33 70  2  0  0  0
 34 36  1  0  0  0
 34 59  1  0  0  0
 34109  1  0  0  0
 35 44  2  0  0  0
 35 45  1  0  0  0
 35 68  1  0  0  0
 36 56  1  0  0  0
 36110  1  0  0  0
 37 39  1  0  0  0
 37 47  1  0  0  0
 37 66  1  0  0  0
 37111  1  0  0  0
 38 43  2  0  0  0
 38 46  1  0  0  0
 38 47  1  0  0  0
 39 64  1  0  0  0
 39 67  2  0  0  0
 40 52  1  0  0  0
 40 53  2  0  0  0
 40 58  1  0  0  0
 41112  1  0  0  0
 41113  1  0  0  0
 41114  1  0  0  0
 41 48  1  0  0  0
 42 43  1  0  0  0
 42 66  1  0  0  0
 42115  1  0  0  0
 42116  1  0  0  0
 43 44  1  0  0  0
 44117  1  0  0  0
 45 46  2  0  0  0
 45118  1  0  0  0
 46119  1  0  0  0
 47120  1  0  0  0
 47121  1  0  0  0
 48 56  1  0  0  0
 48 65  1  0  0  0
 48122  1  0  0  0
 49 50  1  0  0  0
 49 53  1  0  0  0
 49 64  1  0  0  0
 49123  1  0  0  0
 50 51  1  0  0  0
 50124  1  0  0  0
 50125  1  0  0  0
 51 52  1  0  0  0
 51126  1  0  0  0
 51127  1  0  0  0
 52128  1  0  0  0
 52129  1  0  0  0
 53 54  1  0  0  0
 54 55  2  0  0  0
 54130  1  0  0  0
 55 57  1  0  0  0
 55131  1  0  0  0
 56 69  2  0  0  0
 57 58  2  0  0  0
 57132  1  0  0  0
 58133  1  0  0  0
 59 60  1  0  0  0
 59 61  1  0  0  0
 59 62  1  0  0  0
 60134  1  0  0  0
 60135  1  0  0  0
 60136  1  0  0  0
 61137  1  0  0  0
 61138  1  0  0  0
 61139  1  0  0  0
 62140  1  0  0  0
 62141  1  0  0  0
 62142  1  0  0  0
 63 65  1  0  0  0
 63143  1  0  0  0
 63144  1  0  0  0
 63145  1  0  0  0
 64146  1  0  0  0
 65147  1  0  0  0
 68 82  1  0  0  0
 71 73  2  0  0  0
 71 74  1  0  0  0
 71148  1  0  0  0
 72 75  2  0  0  0
 72 76  1  0  0  0
 72149  1  0  0  0
 73 75  1  0  0  0
 73 84  1  0  0  0
 74 76  2  0  0  0
 74 83  1  0  0  0
 75 85  1  0  0  0
 76 86  1  0  0  0
 77 78  2  0  0  0
 77 79  1  0  0  0
 77 85  1  0  0  0
 78150  1  0  0  0
 78151  1  0  0  0
 79 80  1  0  0  0
 79152  1  0  0  0
 79153  1  0  0  0
 80 82  1  0  0  0
 80154  1  0  0  0
 80155  1  0  0  0
 81 82  1  0  0  0
 81 85  1  0  0  0
 81156  1  0  0  0
 81157  1  0  0  0
 82158  1  0  0  0
 83159  1  0  0  0
 83160  1  0  0  0
 83161  1  0  0  0
 84 87  1  0  0  0
 84 88  1  0  0  0
 84162  1  0  0  0
 86163  1  0  0  0
M  ISO  4   1 100  68 101  82 101  86 100
M  END
> <chiral flag>
0

> <version>
0

> <s_m_source_file>
/data/baiqing/PycharmProjects/Reinvent-master-3.2/result/LINK_invent/BTK/process_docking_weight1_custom_product_contain_oxygen_bond_distance_aromatic_linkinvent_7_9_3/rearranged_h_0048.sdf

> <i_m_source_file_index>
73

> <r_mmod_Potential_Energy-OPLS-2005>
752.829895019531

> <r_mmod_Stretch_Energy-OPLS-2005>
351.875823974609

> <r_mmod_Bend_Energy-OPLS-2005>
314.434814453125

> <r_mmod_Torsional_Energy-OPLS-2005>
286.500305175781

> <r_mmod_Improper_Torsional_Energy-OPLS-2005>
5.92681741714478

> <r_mmod_Van_der_Waal_Energy-OPLS-2005>
147.152389526367

> <r_mmod_Electrostatic_Energy-OPLS-2005>
-396.492523193359

> <r_mmod_Solvation_Energy-OPLS-2005>
-205.679946899414

> <b_mmod_Minimization_Converged-OPLS-2005>
0

> <r_mmod_RMS_Derivative-OPLS-2005>
5.26107454299927

$$$$
73
                    3D
 Structure written by MMmdl.
161170  0  0  1  0            999 V2000
  -30.6805  -14.5096   20.5116 C   0  0  0  0  0  0
  -30.4225  -12.3199   19.4250 C   0  0  0  0  0  0
  -29.4971  -12.5105   18.2045 C   0  0  0  0  0  0
  -28.0162  -12.3716   18.6118 C   0  0  0  0  0  0
  -27.6576  -13.2140   19.8657 C   0  0  2  0  0  0
  -28.7005  -13.0195   20.9897 C   0  0  0  0  0  0
  -25.2582  -13.8174   20.5667 C   0  0  0  0  0  0
  -24.1841  -13.0444   20.9165 C   0  0  0  0  0  0
  -24.6396  -11.6909   20.8706 C   0  0  0  0  0  0
  -23.9056  -10.4297   21.0386 C   0  0  0  0  0  0
  -24.3612   -9.4221   21.9169 C   0  0  0  0  0  0
  -23.6293   -8.2254   22.0745 C   0  0  0  0  0  0
  -22.4276   -8.0284   21.3540 C   0  0  0  0  0  0
  -21.9907   -9.0252   20.4641 C   0  0  0  0  0  0
  -22.7230  -10.2132   20.3039 C   0  0  0  0  0  0
  -21.6865   -6.0734   22.5276 C   0  0  0  0  0  0
  -21.4021   -6.5635   23.8210 C   0  0  0  0  0  0
  -21.3652   -5.6794   24.9174 C   0  0  0  0  0  0
  -21.6044   -4.3056   24.7229 C   0  0  0  0  0  0
  -21.8821   -3.8147   23.4353 C   0  0  0  0  0  0
  -21.9197   -4.6957   22.3402 C   0  0  0  0  0  0
  -22.7872  -13.5234   21.1829 C   0  0  0  0  0  0
  -22.1671   -4.2139   21.0984 F   0  0  0  0  0  0
  -21.5617   -3.4542   25.7744 F   0  0  0  0  0  0
  -30.0297  -13.3165   20.4332 N   0  0  0  0  0  0
  -26.3012  -12.9352   20.3313 N   0  0  0  0  0  0
  -25.9323  -11.6503   20.5717 N   0  0  0  0  0  0
  -22.0510  -12.8223   22.0382 N   0  0  0  0  0  0
  -25.4304  -15.1894   20.4077 N   0  0  0  0  0  0
  -31.8564  -14.6450   20.1638 O   0  0  0  0  0  0
  -21.6648   -6.8878   21.4240 O   0  0  0  0  0  0
  -22.3546  -14.5541   20.6675 O   0  0  0  0  0  0
  -24.6173  -31.8674   23.2089 C   0  0  0  0  0  0
  -25.9055  -32.4822   23.8389 C   0  0  1  0  0  0
  -27.2305  -27.4050   20.1063 C   0  0  0  0  0  0
  -25.5903  -33.8618   24.2340 N   0  0  0  0  0  0
  -23.4072  -30.4907   21.5513 C   0  0  2  0  0  0
  -24.8541  -28.9630   20.1121 C   0  0  0  0  0  0
  -22.7430  -29.4640   22.4981 C   0  0  0  0  0  0
  -18.0269  -28.1373   22.8501 C   0  0  0  0  0  0
  -24.1484  -36.7295   23.2643 C   0  0  0  0  0  0
  -25.9401  -30.8257   21.3666 C   0  0  0  0  0  0
  -26.0177  -29.4600   20.7126 C   0  0  0  0  0  0
  -27.2088  -28.6902   20.7055 C   0  0  0  0  0  0
  -26.0440  -26.9439   19.4834 C   0  0  0  0  0  0
  -24.8649  -27.7063   19.4910 C   0  0  0  0  0  0
  -23.6168  -29.8297   20.1645 C   0  0  0  0  0  0
  -25.4107  -36.3111   24.0349 C   0  0  1  0  0  0
  -20.5868  -28.3653   23.1318 C   0  0  2  0  0  0
  -20.6753  -26.9384   22.5424 C   0  0  0  0  0  0
  -19.5733  -26.6388   21.5215 C   0  0  0  0  0  0
  -18.1910  -26.7920   22.1627 C   0  0  0  0  0  0
  -19.1522  -28.8831   23.2907 C   0  0  0  0  0  0
  -18.9450  -30.1436   23.8913 C   0  0  0  0  0  0
  -17.6452  -30.6583   24.0561 C   0  0  0  0  0  0
  -25.9031  -34.9477   23.5141 C   0  0  0  0  0  0
  -16.5341  -29.9084   23.6324 C   0  0  0  0  0  0
  -16.7258  -28.6497   23.0355 C   0  0  0  0  0  0
  -26.4477  -31.6591   25.0708 C   0  0  0  0  0  0
  -25.3742  -31.3678   26.1450 C   0  0  0  0  0  0
  -27.0319  -30.3042   24.6070 C   0  0  0  0  0  0
  -27.6052  -32.4306   25.7471 C   0  0  0  0  0  0
  -27.5580  -37.1807   24.8472 C   0  0  0  0  0  0
  -21.4153  -29.3021   22.3724 N   0  0  0  0  0  0
  -26.4296  -37.3796   23.9412 N   0  0  0  0  0  0
  -24.6734  -31.0752   22.1007 N   0  0  0  0  0  0
  -23.4191  -28.8173   23.3029 O   0  0  0  0  0  0
  -28.3743  -26.6172   20.1586 O   0  0  0  0  0  0
  -26.5590  -34.8929   22.4700 O   0  0  0  0  0  0
  -23.5355  -32.1431   23.7462 O   0  0  0  0  0  0
  -30.1482  -19.6186   19.4471 C   0  0  0  0  0  0
  -30.6531  -18.5718   18.6559 C   0  0  0  0  0  0
  -29.5056  -17.9920   21.1454 C   0  0  0  0  0  0
  -29.5482  -19.3413   20.6924 C   0  0  0  0  0  0
  -30.0367  -16.9250   20.3700 C   0  0  0  0  0  0
  -30.5813  -17.2361   19.0940 C   0  0  0  0  0  0
  -28.8891  -22.7416   20.4772 C   0  0  0  0  0  0
  -30.9876  -23.5928   22.2902 C   0  0  0  0  0  0
  -29.9361  -24.6250   21.8771 C   0  0  0  0  0  0
  -30.3457  -22.2054   22.4410 C   0  0  0  0  0  0
  -29.3206  -24.2454   20.5183 C   0  0  2  0  0  0
  -28.8788  -20.4584   21.5116 C   0  0  0  0  0  0
  -28.1458  -25.1866   20.1142 C   0  0  0  0  0  0
  -29.4016  -21.8446   21.3699 N   0  0  0  0  0  0
  -29.9126  -15.5708   20.8463 N   0  0  0  0  0  0
  -28.0743  -22.3897   19.6177 O   0  0  0  0  0  0
  -30.9899  -16.2682   18.2403 F   0  0  0  0  0  0
  -31.4668  -12.4204   19.1228 H   0  0  0  0  0  0
  -30.3244  -11.3129   19.8330 H   0  0  0  0  0  0
  -29.7415  -11.7870   17.4264 H   0  0  0  0  0  0
  -29.6652  -13.4957   17.7656 H   0  0  0  0  0  0
  -27.8236  -11.3156   18.8054 H   0  0  0  0  0  0
  -27.3701  -12.6513   17.7779 H   0  0  0  0  0  0
  -27.6919  -14.2590   19.5553 H   0  0  0  0  0  0
  -28.6772  -11.9941   21.3611 H   0  0  0  0  0  0
  -28.4685  -13.6510   21.8479 H   0  0  0  0  0  0
  -25.2762   -9.5711   22.4729 H   0  0  0  0  0  0
  -24.0014   -7.4653   22.7463 H   0  0  0  0  0  0
  -21.0840   -8.8767   19.8949 H   0  0  0  0  0  0
  -22.3688  -10.9658   19.6135 H   0  0  0  0  0  0
  -21.2026   -7.6143   23.9707 H   0  0  0  0  0  0
  -21.1460   -6.0526   25.9072 H   0  0  0  0  0  0
  -22.0604   -2.7609   23.2860 H   0  0  0  0  0  0
  -22.4126  -11.9893   22.4787 H   0  0  0  0  0  0
  -21.1111  -13.1232   22.2538 H   0  0  0  0  0  0
  -24.6628  -15.8458   20.5020 H   0  0  0  0  0  0
  -26.2843  -15.6255   20.0845 H   0  0  0  0  0  0
  -26.7119  -32.5537   23.1148 H   0  0  0  0  0  0
  -25.0083  -33.9780   25.0502 H   0  0  0  0  0  0
  -22.6965  -31.3082   21.4142 H   0  0  0  0  0  0
  -23.3758  -35.9616   23.3325 H   0  0  0  0  0  0
  -24.3580  -36.8881   22.2053 H   0  0  0  0  0  0
  -23.7225  -37.6506   23.6629 H   0  0  0  0  0  0
  -26.0562  -31.5902   20.5968 H   0  0  0  0  0  0
  -26.8268  -30.8792   21.9867 H   0  0  0  0  0  0
  -28.1019  -29.0635   21.1874 H   0  0  0  0  0  0
  -25.9958  -25.9860   18.9878 H   0  0  0  0  0  0
  -23.9743  -27.3194   19.0163 H   0  0  0  0  0  0
  -23.7267  -30.6053   19.4059 H   0  0  0  0  0  0
  -22.7411  -29.2499   19.8674 H   0  0  0  0  0  0
  -25.1287  -36.1984   25.0846 H   0  0  0  0  0  0
  -20.9971  -28.3206   24.1434 H   0  0  0  0  0  0
  -20.5660  -26.2248   23.3607 H   0  0  0  0  0  0
  -21.6621  -26.7416   22.1216 H   0  0  0  0  0  0
  -19.6883  -25.6310   21.1217 H   0  0  0  0  0  0
  -19.6674  -27.3211   20.6752 H   0  0  0  0  0  0
  -17.4192  -26.6689   21.4016 H   0  0  0  0  0  0
  -18.0287  -26.0051   22.9010 H   0  0  0  0  0  0
  -19.7931  -30.7243   24.2294 H   0  0  0  0  0  0
  -17.5011  -31.6262   24.5159 H   0  0  0  0  0  0
  -15.5337  -30.2989   23.7640 H   0  0  0  0  0  0
  -15.8657  -28.0810   22.7077 H   0  0  0  0  0  0
  -24.5914  -30.7028   25.7774 H   0  0  0  0  0  0
  -24.8922  -32.2827   26.4909 H   0  0  0  0  0  0
  -25.8100  -30.8837   27.0199 H   0  0  0  0  0  0
  -26.2856  -29.6791   24.1149 H   0  0  0  0  0  0
  -27.4140  -29.7279   25.4505 H   0  0  0  0  0  0
  -27.8663  -30.4377   23.9182 H   0  0  0  0  0  0
  -27.2678  -33.3612   26.2039 H   0  0  0  0  0  0
  -28.3852  -32.6854   25.0287 H   0  0  0  0  0  0
  -28.0715  -31.8431   26.5388 H   0  0  0  0  0  0
  -28.2612  -38.0089   24.7516 H   0  0  0  0  0  0
  -28.1064  -36.2625   24.6309 H   0  0  0  0  0  0
  -27.2300  -37.1478   25.8876 H   0  0  0  0  0  0
  -20.9309  -29.8763   21.6969 H   0  0  0  0  0  0
  -26.0192  -38.2882   24.1400 H   0  0  0  0  0  0
  -30.1888  -20.6268   19.0610 H   0  0  0  0  0  0
  -31.0703  -18.7891   17.6839 H   0  0  0  0  0  0
  -29.0409  -17.7713   22.0967 H   0  0  0  0  0  0
  -31.4593  -23.8816   23.2306 H   0  0  0  0  0  0
  -31.7840  -23.5548   21.5449 H   0  0  0  0  0  0
  -30.3939  -25.6128   21.8171 H   0  0  0  0  0  0
  -29.1574  -24.6897   22.6384 H   0  0  0  0  0  0
  -29.8010  -22.1784   23.3866 H   0  0  0  0  0  0
  -31.1253  -21.4449   22.5100 H   0  0  0  0  0  0
  -30.1005  -24.3538   19.7640 H   0  0  0  0  0  0
  -28.9213  -20.1681   22.5625 H   0  0  0  0  0  0
  -27.8126  -20.4452   21.2766 H   0  0  0  0  0  0
  -27.2949  -24.9423   20.7543 H   0  0  0  0  0  0
  -27.8660  -24.9316   19.0912 H   0  0  0  0  0  0
  -29.0458  -15.3461   21.3087 H   0  0  0  0  0  0
  1 25  1  0  0  0
  1 30  2  0  0  0
  1 85  1  0  0  0
  2  3  1  0  0  0
  2 25  1  0  0  0
  2 88  1  0  0  0
  2 89  1  0  0  0
  3  4  1  0  0  0
  3 90  1  0  0  0
  3 91  1  0  0  0
  4  5  1  0  0  0
  4 92  1  0  0  0
  4 93  1  0  0  0
  5  6  1  0  0  0
  5 26  1  0  0  0
  5 94  1  0  0  0
  6 25  1  0  0  0
  6 95  1  0  0  0
  6 96  1  0  0  0
  7  8  2  0  0  0
  7 26  1  0  0  0
  7 29  1  0  0  0
  8  9  1  0  0  0
  8 22  1  0  0  0
  9 10  1  0  0  0
  9 27  2  0  0  0
 10 11  2  0  0  0
 10 15  1  0  0  0
 11 12  1  0  0  0
 11 97  1  0  0  0
 12 13  2  0  0  0
 12 98  1  0  0  0
 13 14  1  0  0  0
 13 31  1  0  0  0
 14 15  2  0  0  0
 14 99  1  0  0  0
 15100  1  0  0  0
 16 17  2  0  0  0
 16 21  1  0  0  0
 16 31  1  0  0  0
 17 18  1  0  0  0
 17101  1  0  0  0
 18 19  2  0  0  0
 18102  1  0  0  0
 19 20  1  0  0  0
 19 24  1  0  0  0
 20 21  2  0  0  0
 20103  1  0  0  0
 21 23  1  0  0  0
 22 28  1  0  0  0
 22 32  2  0  0  0
 26 27  1  0  0  0
 28104  1  0  0  0
 28105  1  0  0  0
 29106  1  0  0  0
 29107  1  0  0  0
 33 34  1  0  0  0
 33 66  1  0  0  0
 33 70  2  0  0  0
 34 36  1  0  0  0
 34 59  1  0  0  0
 34108  1  0  0  0
 35 44  2  0  0  0
 35 45  1  0  0  0
 35 68  1  0  0  0
 36 56  1  0  0  0
 36109  1  0  0  0
 37 39  1  0  0  0
 37 47  1  0  0  0
 37 66  1  0  0  0
 37110  1  0  0  0
 38 43  2  0  0  0
 38 46  1  0  0  0
 38 47  1  0  0  0
 39 64  1  0  0  0
 39 67  2  0  0  0
 40 52  1  0  0  0
 40 53  2  0  0  0
 40 58  1  0  0  0
 41111  1  0  0  0
 41112  1  0  0  0
 41113  1  0  0  0
 41 48  1  0  0  0
 42 43  1  0  0  0
 42 66  1  0  0  0
 42114  1  0  0  0
 42115  1  0  0  0
 43 44  1  0  0  0
 44116  1  0  0  0
 45 46  2  0  0  0
 45117  1  0  0  0
 46118  1  0  0  0
 47119  1  0  0  0
 47120  1  0  0  0
 48 56  1  0  0  0
 48 65  1  0  0  0
 48121  1  0  0  0
 49 50  1  0  0  0
 49 53  1  0  0  0
 49 64  1  0  0  0
 49122  1  0  0  0
 50 51  1  0  0  0
 50123  1  0  0  0
 50124  1  0  0  0
 51 52  1  0  0  0
 51125  1  0  0  0
 51126  1  0  0  0
 52127  1  0  0  0
 52128  1  0  0  0
 53 54  1  0  0  0
 54 55  2  0  0  0
 54129  1  0  0  0
 55 57  1  0  0  0
 55130  1  0  0  0
 56 69  2  0  0  0
 57 58  2  0  0  0
 57131  1  0  0  0
 58132  1  0  0  0
 59 60  1  0  0  0
 59 61  1  0  0  0
 59 62  1  0  0  0
 60133  1  0  0  0
 60134  1  0  0  0
 60135  1  0  0  0
 61136  1  0  0  0
 61137  1  0  0  0
 61138  1  0  0  0
 62139  1  0  0  0
 62140  1  0  0  0
 62141  1  0  0  0
 63 65  1  0  0  0
 63142  1  0  0  0
 63143  1  0  0  0
 63144  1  0  0  0
 64145  1  0  0  0
 65146  1  0  0  0
 68 83  1  0  0  0
 71 72  2  0  0  0
 71 74  1  0  0  0
 71147  1  0  0  0
 72 76  1  0  0  0
 72148  1  0  0  0
 73 74  2  0  0  0
 73 75  1  0  0  0
 73149  1  0  0  0
 74 82  1  0  0  0
 75 76  2  0  0  0
 75 85  1  0  0  0
 76 87  1  0  0  0
 77 81  1  0  0  0
 77 84  1  0  0  0
 77 86  2  0  0  0
 78 79  1  0  0  0
 78 80  1  0  0  0
 78150  1  0  0  0
 78151  1  0  0  0
 79 81  1  0  0  0
 79152  1  0  0  0
 79153  1  0  0  0
 80 84  1  0  0  0
 80154  1  0  0  0
 80155  1  0  0  0
 81 83  1  0  0  0
 81156  1  0  0  0
 82 84  1  0  0  0
 82157  1  0  0  0
 82158  1  0  0  0
 83159  1  0  0  0
 83160  1  0  0  0
 85161  1  0  0  0
M  ISO  4   1 100  68 101  83 101  85 100
M  END
> <chiral flag>
0

> <version>
0

> <s_m_source_file>
/data/baiqing/PycharmProjects/Reinvent-master-3.2/result/LINK_invent/BTK/process_docking_weight1_custom_product_contain_oxygen_bond_distance_aromatic_linkinvent_7_9_3/rearranged_h_0048.sdf

> <i_m_source_file_index>
74

> <r_mmod_Potential_Energy-OPLS-2005>
-8.74180030822754

> <r_mmod_Stretch_Energy-OPLS-2005>
49.0039901733398

> <r_mmod_Bend_Energy-OPLS-2005>
104.714012145996

> <r_mmod_Torsional_Energy-OPLS-2005>
251.243865966797

> <r_mmod_Improper_Torsional_Energy-OPLS-2005>
4.97599267959595

> <r_mmod_Van_der_Waal_Energy-OPLS-2005>
172.473831176758

> <r_mmod_Electrostatic_Energy-OPLS-2005>
-386.8544921875

> <r_mmod_Solvation_Energy-OPLS-2005>
-225.812164306641

> <b_mmod_Minimization_Converged-OPLS-2005>
0

> <r_mmod_RMS_Derivative-OPLS-2005>
1.69332110881805

$$$$
74
                    3D
 Structure written by MMmdl.
164173  0  0  1  0            999 V2000
  -30.6491  -14.5867   20.5394 C   0  0  0  0  0  0
  -30.4478  -12.3771   19.4155 C   0  0  0  0  0  0
  -29.5009  -12.4904   18.2002 C   0  0  0  0  0  0
  -28.0275  -12.3258   18.6250 C   0  0  0  0  0  0
  -27.6590  -13.2010   19.8535 C   0  0  2  0  0  0
  -28.7107  -13.0298   20.9742 C   0  0  0  0  0  0
  -25.2634  -13.8142   20.5678 C   0  0  0  0  0  0
  -24.1883  -13.0440   20.9204 C   0  0  0  0  0  0
  -24.6428  -11.6908   20.8743 C   0  0  0  0  0  0
  -23.9101  -10.4295   21.0419 C   0  0  0  0  0  0
  -24.3649   -9.4200   21.9189 C   0  0  0  0  0  0
  -23.6314   -8.2242   22.0756 C   0  0  0  0  0  0
  -22.4281   -8.0316   21.3572 C   0  0  0  0  0  0
  -21.9938   -9.0302   20.4661 C   0  0  0  0  0  0
  -22.7289  -10.2156   20.3060 C   0  0  0  0  0  0
  -21.6834   -6.0759   22.5305 C   0  0  0  0  0  0
  -21.4016   -6.5644   23.8244 C   0  0  0  0  0  0
  -21.3652   -5.6775   24.9187 C   0  0  0  0  0  0
  -21.6040   -4.3046   24.7231 C   0  0  0  0  0  0
  -21.8820   -3.8159   23.4347 C   0  0  0  0  0  0
  -21.9201   -4.6993   22.3405 C   0  0  0  0  0  0
  -22.7918  -13.5278   21.1839 C   0  0  0  0  0  0
  -22.1670   -4.2177   21.0986 F   0  0  0  0  0  0
  -21.5613   -3.4533   25.7739 F   0  0  0  0  0  0
  -30.0235  -13.3782   20.4081 N   0  0  0  0  0  0
  -26.3036  -12.9290   20.3301 N   0  0  0  0  0  0
  -25.9337  -11.6457   20.5758 N   0  0  0  0  0  0
  -22.0539  -12.8279   22.0377 N   0  0  0  0  0  0
  -25.4340  -15.1864   20.4069 N   0  0  0  0  0  0
  -31.8145  -14.7695   20.1804 O   0  0  0  0  0  0
  -21.6635   -6.8930   21.4277 O   0  0  0  0  0  0
  -22.3628  -14.5607   20.6703 O   0  0  0  0  0  0
  -24.6217  -31.8622   23.2016 C   0  0  0  0  0  0
  -25.9089  -32.4789   23.8337 C   0  0  1  0  0  0
  -27.2258  -27.3736   20.1026 C   0  0  0  0  0  0
  -25.5937  -33.8584   24.2282 N   0  0  0  0  0  0
  -23.4112  -30.4814   21.5462 C   0  0  2  0  0  0
  -24.8564  -28.9332   20.1118 C   0  0  0  0  0  0
  -22.7427  -29.4635   22.4996 C   0  0  0  0  0  0
  -18.0253  -28.1414   22.8506 C   0  0  0  0  0  0
  -24.1481  -36.7219   23.2629 C   0  0  0  0  0  0
  -25.9452  -30.8027   21.3651 C   0  0  0  0  0  0
  -26.0198  -29.4349   20.7073 C   0  0  0  0  0  0
  -27.2151  -28.6675   20.6872 C   0  0  0  0  0  0
  -26.0406  -26.8899   19.5119 C   0  0  0  0  0  0
  -24.8645  -27.6643   19.5107 C   0  0  0  0  0  0
  -23.6187  -29.8051   20.1645 C   0  0  0  0  0  0
  -25.4117  -36.3080   24.0330 C   0  0  1  0  0  0
  -20.5869  -28.3653   23.1352 C   0  0  2  0  0  0
  -20.6735  -26.9395   22.5433 C   0  0  0  0  0  0
  -19.5705  -26.6415   21.5225 C   0  0  0  0  0  0
  -18.1896  -26.7974   22.1646 C   0  0  0  0  0  0
  -19.1529  -28.8858   23.2928 C   0  0  0  0  0  0
  -18.9456  -30.1466   23.8930 C   0  0  0  0  0  0
  -17.6462  -30.6629   24.0596 C   0  0  0  0  0  0
  -25.9058  -34.9452   23.5112 C   0  0  0  0  0  0
  -16.5335  -29.9140   23.6358 C   0  0  0  0  0  0
  -16.7254  -28.6557   23.0374 C   0  0  0  0  0  0
  -26.4496  -31.6560   25.0668 C   0  0  0  0  0  0
  -25.3787  -31.3634   26.1426 C   0  0  0  0  0  0
  -27.0258  -30.2990   24.6036 C   0  0  0  0  0  0
  -27.6083  -32.4220   25.7453 C   0  0  0  0  0  0
  -27.5564  -37.1773   24.8490 C   0  0  0  0  0  0
  -21.4155  -29.3022   22.3742 N   0  0  0  0  0  0
  -26.4287  -37.3781   23.9423 N   0  0  0  0  0  0
  -24.6770  -31.0660   22.0938 N   0  0  0  0  0  0
  -23.4186  -28.8210   23.3081 O   0  0  0  0  0  0
  -28.3655  -26.5822   20.0902 O   0  0  0  0  0  0
  -26.5635  -34.8921   22.4686 O   0  0  0  0  0  0
  -23.5412  -32.1392   23.7396 O   0  0  0  0  0  0
  -29.9254  -19.5239   22.5630 C   0  0  0  0  0  0
  -29.6979  -18.3829   23.3490 C   0  0  0  0  0  0
  -30.2871  -18.0903   20.6220 C   0  0  0  0  0  0
  -30.2444  -19.3994   21.2006 C   0  0  0  0  0  0
  -29.7695  -17.0895   22.7904 C   0  0  0  0  0  0
  -30.0393  -16.9177   21.4085 C   0  0  0  0  0  0
  -29.2681  -22.8225   20.8442 C   0  0  0  0  0  0
  -29.1320  -22.7172   17.9248 C   0  0  0  0  0  0
  -29.1536  -24.0726   18.6787 C   0  0  0  0  0  0
  -28.8729  -21.5013   18.8456 C   0  0  0  0  0  0
  -28.4972  -23.9581   20.0754 C   0  0  2  0  0  0
  -29.5446  -15.8986   23.7068 C   0  0  0  0  0  0
  -30.6065  -20.6874   20.4318 C   0  0  0  0  0  0
  -28.2835  -25.3266   20.8318 C   0  0  0  0  0  0
  -29.5249  -21.6716   20.1482 N   0  0  0  0  0  0
  -29.8095  -15.6146   20.8332 N   0  0  0  0  0  0
  -29.6757  -23.0023   21.9968 O   0  0  0  0  0  0
  -31.4840  -12.5194   19.1056 H   0  0  0  0  0  0
  -30.3980  -11.3785   19.8494 H   0  0  0  0  0  0
  -29.7566  -11.7336   17.4591 H   0  0  0  0  0  0
  -29.6327  -13.4569   17.7117 H   0  0  0  0  0  0
  -27.8739  -11.2724   18.8657 H   0  0  0  0  0  0
  -27.3639  -12.5402   17.7860 H   0  0  0  0  0  0
  -27.6823  -14.2376   19.5127 H   0  0  0  0  0  0
  -28.7261  -11.9980   21.3262 H   0  0  0  0  0  0
  -28.4597  -13.6311   21.8466 H   0  0  0  0  0  0
  -25.2800   -9.5649   22.4764 H   0  0  0  0  0  0
  -24.0034   -7.4600   22.7434 H   0  0  0  0  0  0
  -21.0881   -8.8864   19.8928 H   0  0  0  0  0  0
  -22.3815  -10.9729   19.6163 H   0  0  0  0  0  0
  -21.2007   -7.6139   23.9789 H   0  0  0  0  0  0
  -21.1464   -6.0471   25.9100 H   0  0  0  0  0  0
  -22.0598   -2.7636   23.2830 H   0  0  0  0  0  0
  -22.4135  -11.9947   22.4769 H   0  0  0  0  0  0
  -21.1164  -13.1344   22.2554 H   0  0  0  0  0  0
  -24.6594  -15.8339   20.5115 H   0  0  0  0  0  0
  -26.2793  -15.6385   20.0821 H   0  0  0  0  0  0
  -26.7123  -32.5451   23.1047 H   0  0  0  0  0  0
  -25.0092  -33.9748   25.0438 H   0  0  0  0  0  0
  -22.7018  -31.3000   21.4059 H   0  0  0  0  0  0
  -23.3779  -35.9516   23.3346 H   0  0  0  0  0  0
  -24.3541  -36.8765   22.2018 H   0  0  0  0  0  0
  -23.7197  -37.6422   23.6600 H   0  0  0  0  0  0
  -26.0838  -31.5673   20.6016 H   0  0  0  0  0  0
  -26.8253  -30.8446   21.9947 H   0  0  0  0  0  0
  -28.1183  -29.0502   21.1395 H   0  0  0  0  0  0
  -26.0207  -25.9104   19.0536 H   0  0  0  0  0  0
  -23.9661  -27.2742   19.0515 H   0  0  0  0  0  0
  -23.7139  -30.5722   19.3952 H   0  0  0  0  0  0
  -22.7429  -29.2192   19.8818 H   0  0  0  0  0  0
  -25.1306  -36.1909   25.0825 H   0  0  0  0  0  0
  -20.9952  -28.3174   24.1470 H   0  0  0  0  0  0
  -20.5631  -26.2227   23.3588 H   0  0  0  0  0  0
  -21.6606  -26.7441   22.1215 H   0  0  0  0  0  0
  -19.6841  -25.6331   21.1229 H   0  0  0  0  0  0
  -19.6670  -27.3256   20.6780 H   0  0  0  0  0  0
  -17.4149  -26.6730   21.4053 H   0  0  0  0  0  0
  -18.0290  -26.0142   22.9064 H   0  0  0  0  0  0
  -19.7928  -30.7307   24.2299 H   0  0  0  0  0  0
  -17.5011  -31.6327   24.5192 H   0  0  0  0  0  0
  -15.5340  -30.3072   23.7683 H   0  0  0  0  0  0
  -15.8627  -28.0909   22.7070 H   0  0  0  0  0  0
  -24.6020  -30.6912   25.7745 H   0  0  0  0  0  0
  -24.8920  -32.2754   26.4876 H   0  0  0  0  0  0
  -25.8213  -30.8815   27.0159 H   0  0  0  0  0  0
  -26.2732  -29.6807   24.1119 H   0  0  0  0  0  0
  -27.4006  -29.7172   25.4462 H   0  0  0  0  0  0
  -27.8621  -30.4245   23.9157 H   0  0  0  0  0  0
  -27.2748  -33.3484   26.2151 H   0  0  0  0  0  0
  -28.3909  -32.6833   25.0307 H   0  0  0  0  0  0
  -28.0777  -31.8256   26.5299 H   0  0  0  0  0  0
  -28.2661  -38.0004   24.7543 H   0  0  0  0  0  0
  -28.1014  -36.2557   24.6362 H   0  0  0  0  0  0
  -27.2280  -37.1452   25.8898 H   0  0  0  0  0  0
  -20.9285  -29.8684   21.6919 H   0  0  0  0  0  0
  -26.0167  -38.2841   24.1486 H   0  0  0  0  0  0
  -29.8788  -20.5032   23.0224 H   0  0  0  0  0  0
  -29.4680  -18.5116   24.3988 H   0  0  0  0  0  0
  -30.4879  -17.9862   19.5650 H   0  0  0  0  0  0
  -30.0825  -22.5820   17.4060 H   0  0  0  0  0  0
  -28.3692  -22.7376   17.1448 H   0  0  0  0  0  0
  -28.6632  -24.8348   18.0736 H   0  0  0  0  0  0
  -30.1904  -24.4039   18.7830 H   0  0  0  0  0  0
  -29.1810  -20.5798   18.3528 H   0  0  0  0  0  0
  -27.8011  -21.3808   19.0279 H   0  0  0  0  0  0
  -27.4910  -23.5686   19.9168 H   0  0  0  0  0  0
  -30.2848  -15.1201   23.5184 H   0  0  0  0  0  0
  -28.5474  -15.4854   23.5607 H   0  0  0  0  0  0
  -29.6324  -16.1896   24.7543 H   0  0  0  0  0  0
  -31.0975  -20.4069   19.4956 H   0  0  0  0  0  0
  -31.4009  -21.1921   20.9867 H   0  0  0  0  0  0
  -27.3061  -25.2580   21.3126 H   0  0  0  0  0  0
  -28.9767  -25.4249   21.6646 H   0  0  0  0  0  0
  -28.8548  -15.3056   20.9201 H   0  0  0  0  0  0
  1 25  1  0  0  0
  1 30  2  0  0  0
  1 86  1  0  0  0
  2  3  1  0  0  0
  2 25  1  0  0  0
  2 88  1  0  0  0
  2 89  1  0  0  0
  3  4  1  0  0  0
  3 90  1  0  0  0
  3 91  1  0  0  0
  4  5  1  0  0  0
  4 92  1  0  0  0
  4 93  1  0  0  0
  5  6  1  0  0  0
  5 26  1  0  0  0
  5 94  1  0  0  0
  6 25  1  0  0  0
  6 95  1  0  0  0
  6 96  1  0  0  0
  7  8  2  0  0  0
  7 26  1  0  0  0
  7 29  1  0  0  0
  8  9  1  0  0  0
  8 22  1  0  0  0
  9 10  1  0  0  0
  9 27  2  0  0  0
 10 11  2  0  0  0
 10 15  1  0  0  0
 11 12  1  0  0  0
 11 97  1  0  0  0
 12 13  2  0  0  0
 12 98  1  0  0  0
 13 14  1  0  0  0
 13 31  1  0  0  0
 14 15  2  0  0  0
 14 99  1  0  0  0
 15100  1  0  0  0
 16 17  2  0  0  0
 16 21  1  0  0  0
 16 31  1  0  0  0
 17 18  1  0  0  0
 17101  1  0  0  0
 18 19  2  0  0  0
 18102  1  0  0  0
 19 20  1  0  0  0
 19 24  1  0  0  0
 20 21  2  0  0  0
 20103  1  0  0  0
 21 23  1  0  0  0
 22 28  1  0  0  0
 22 32  2  0  0  0
 26 27  1  0  0  0
 28104  1  0  0  0
 28105  1  0  0  0
 29106  1  0  0  0
 29107  1  0  0  0
 33 34  1  0  0  0
 33 66  1  0  0  0
 33 70  2  0  0  0
 34 36  1  0  0  0
 34 59  1  0  0  0
 34108  1  0  0  0
 35 44  2  0  0  0
 35 45  1  0  0  0
 35 68  1  0  0  0
 36 56  1  0  0  0
 36109  1  0  0  0
 37 39  1  0  0  0
 37 47  1  0  0  0
 37 66  1  0  0  0
 37110  1  0  0  0
 38 43  2  0  0  0
 38 46  1  0  0  0
 38 47  1  0  0  0
 39 64  1  0  0  0
 39 67  2  0  0  0
 40 52  1  0  0  0
 40 53  2  0  0  0
 40 58  1  0  0  0
 41111  1  0  0  0
 41112  1  0  0  0
 41113  1  0  0  0
 41 48  1  0  0  0
 42 43  1  0  0  0
 42 66  1  0  0  0
 42114  1  0  0  0
 42115  1  0  0  0
 43 44  1  0  0  0
 44116  1  0  0  0
 45 46  2  0  0  0
 45117  1  0  0  0
 46118  1  0  0  0
 47119  1  0  0  0
 47120  1  0  0  0
 48 56  1  0  0  0
 48 65  1  0  0  0
 48121  1  0  0  0
 49 50  1  0  0  0
 49 53  1  0  0  0
 49 64  1  0  0  0
 49122  1  0  0  0
 50 51  1  0  0  0
 50123  1  0  0  0
 50124  1  0  0  0
 51 52  1  0  0  0
 51125  1  0  0  0
 51126  1  0  0  0
 52127  1  0  0  0
 52128  1  0  0  0
 53 54  1  0  0  0
 54 55  2  0  0  0
 54129  1  0  0  0
 55 57  1  0  0  0
 55130  1  0  0  0
 56 69  2  0  0  0
 57 58  2  0  0  0
 57131  1  0  0  0
 58132  1  0  0  0
 59 60  1  0  0  0
 59 61  1  0  0  0
 59 62  1  0  0  0
 60133  1  0  0  0
 60134  1  0  0  0
 60135  1  0  0  0
 61136  1  0  0  0
 61137  1  0  0  0
 61138  1  0  0  0
 62139  1  0  0  0
 62140  1  0  0  0
 62141  1  0  0  0
 63 65  1  0  0  0
 63142  1  0  0  0
 63143  1  0  0  0
 63144  1  0  0  0
 64145  1  0  0  0
 65146  1  0  0  0
 68 84  1  0  0  0
 71 72  2  0  0  0
 71 74  1  0  0  0
 71147  1  0  0  0
 72 75  1  0  0  0
 72148  1  0  0  0
 73 74  2  0  0  0
 73 76  1  0  0  0
 73149  1  0  0  0
 74 83  1  0  0  0
 75 76  2  0  0  0
 75 82  1  0  0  0
 76 86  1  0  0  0
 77 81  1  0  0  0
 77 85  1  0  0  0
 77 87  2  0  0  0
 78 79  1  0  0  0
 78 80  1  0  0  0
 78150  1  0  0  0
 78151  1  0  0  0
 79 81  1  0  0  0
 79152  1  0  0  0
 79153  1  0  0  0
 80 85  1  0  0  0
 80154  1  0  0  0
 80155  1  0  0  0
 81 84  1  0  0  0
 81156  1  0  0  0
 82157  1  0  0  0
 82158  1  0  0  0
 82159  1  0  0  0
 83 85  1  0  0  0
 83160  1  0  0  0
 83161  1  0  0  0
 84162  1  0  0  0
 84163  1  0  0  0
 86164  1  0  0  0
M  ISO  4   1 100  68 101  84 101  86 100
M  END
> <chiral flag>
0

> <version>
0

> <s_m_source_file>
/data/baiqing/PycharmProjects/Reinvent-master-3.2/result/LINK_invent/BTK/process_docking_weight1_custom_product_contain_oxygen_bond_distance_aromatic_linkinvent_7_9_3/rearranged_h_0048.sdf

> <i_m_source_file_index>
75

> <r_mmod_Potential_Energy-OPLS-2005>
89.4905471801758

> <r_mmod_Stretch_Energy-OPLS-2005>
59.0158576965332

> <r_mmod_Bend_Energy-OPLS-2005>
123.89102935791

> <r_mmod_Torsional_Energy-OPLS-2005>
316.016296386719

> <r_mmod_Improper_Torsional_Energy-OPLS-2005>
9.50290393829346

> <r_mmod_Van_der_Waal_Energy-OPLS-2005>
153.433349609375

> <r_mmod_Electrostatic_Energy-OPLS-2005>
-382.149322509766

> <r_mmod_Solvation_Energy-OPLS-2005>
-221.619201660156

> <b_mmod_Minimization_Converged-OPLS-2005>
0

> <r_mmod_RMS_Derivative-OPLS-2005>
5.5800609588623

$$$$
75
                    3D
 Structure written by MMmdl.
160168  0  0  1  0            999 V2000
  -30.6454  -14.7355   20.4609 C   0  0  0  0  0  0
  -30.4224  -12.4561   19.4663 C   0  0  0  0  0  0
  -29.5329  -12.5803   18.2160 C   0  0  0  0  0  0
  -28.0423  -12.4310   18.5889 C   0  0  0  0  0  0
  -27.6489  -13.2609   19.8463 C   0  0  2  0  0  0
  -28.6875  -13.1746   20.9825 C   0  0  0  0  0  0
  -25.2509  -13.8234   20.5615 C   0  0  0  0  0  0
  -24.1842  -13.0429   20.9146 C   0  0  0  0  0  0
  -24.6533  -11.6964   20.8705 C   0  0  0  0  0  0
  -23.9201  -10.4331   21.0391 C   0  0  0  0  0  0
  -24.3706   -9.4236   21.9167 C   0  0  0  0  0  0
  -23.6377   -8.2269   22.0724 C   0  0  0  0  0  0
  -22.4357   -8.0322   21.3497 C   0  0  0  0  0  0
  -22.0034   -9.0309   20.4611 C   0  0  0  0  0  0
  -22.7372  -10.2181   20.3024 C   0  0  0  0  0  0
  -21.6898   -6.0808   22.5283 C   0  0  0  0  0  0
  -21.4088   -6.5687   23.8221 C   0  0  0  0  0  0
  -21.3664   -5.6798   24.9149 C   0  0  0  0  0  0
  -21.6009   -4.3050   24.7174 C   0  0  0  0  0  0
  -21.8819   -3.8189   23.4286 C   0  0  0  0  0  0
  -21.9207   -4.7040   22.3363 C   0  0  0  0  0  0
  -22.7839  -13.5181   21.1777 C   0  0  0  0  0  0
  -22.1649   -4.2243   21.0942 F   0  0  0  0  0  0
  -21.5592   -3.4513   25.7660 F   0  0  0  0  0  0
  -29.9898  -13.5236   20.4029 N   0  0  0  0  0  0
  -26.2986  -12.9512   20.3161 N   0  0  0  0  0  0
  -25.9459  -11.6620   20.5634 N   0  0  0  0  0  0
  -22.0472  -12.8247   22.0378 N   0  0  0  0  0  0
  -25.4082  -15.1971   20.4139 N   0  0  0  0  0  0
  -31.7924  -14.8071   20.0100 O   0  0  0  0  0  0
  -21.6670   -6.8961   21.4242 O   0  0  0  0  0  0
  -22.3505  -14.5443   20.6534 O   0  0  0  0  0  0
  -24.6406  -31.8468   23.1969 C   0  0  0  0  0  0
  -25.9185  -32.4731   23.8336 C   0  0  1  0  0  0
  -27.1852  -27.1593   20.1437 C   0  0  0  0  0  0
  -25.5950  -33.8543   24.2257 N   0  0  0  0  0  0
  -23.4422  -30.4691   21.5437 C   0  0  2  0  0  0
  -24.8804  -28.8988   20.1138 C   0  0  0  0  0  0
  -22.7559  -29.4567   22.4902 C   0  0  0  0  0  0
  -18.0289  -28.1413   22.8455 C   0  0  0  0  0  0
  -24.1485  -36.7269   23.2640 C   0  0  0  0  0  0
  -25.9961  -30.7161   21.3985 C   0  0  0  0  0  0
  -26.0574  -29.3327   20.7369 C   0  0  0  0  0  0
  -27.2168  -28.4774   20.7378 C   0  0  0  0  0  0
  -25.9943  -26.8239   19.4682 C   0  0  0  0  0  0
  -24.8594  -27.6579   19.4608 C   0  0  0  0  0  0
  -23.6627  -29.8058   20.1596 C   0  0  0  0  0  0
  -25.4115  -36.3061   24.0324 C   0  0  1  0  0  0
  -20.5910  -28.3726   23.1246 C   0  0  2  0  0  0
  -20.6794  -26.9432   22.5396 C   0  0  0  0  0  0
  -19.5764  -26.6371   21.5209 C   0  0  0  0  0  0
  -18.1950  -26.7943   22.1615 C   0  0  0  0  0  0
  -19.1557  -28.8871   23.2837 C   0  0  0  0  0  0
  -18.9458  -30.1488   23.8871 C   0  0  0  0  0  0
  -17.6466  -30.6599   24.0560 C   0  0  0  0  0  0
  -25.9066  -34.9429   23.5093 C   0  0  0  0  0  0
  -16.5345  -29.9101   23.6355 C   0  0  0  0  0  0
  -16.7287  -28.6506   23.0363 C   0  0  0  0  0  0
  -26.4484  -31.6618   25.0815 C   0  0  0  0  0  0
  -25.3622  -31.3814   26.1487 C   0  0  0  0  0  0
  -27.0376  -30.3030   24.6414 C   0  0  0  0  0  0
  -27.6044  -32.4358   25.7611 C   0  0  0  0  0  0
  -27.5583  -37.1793   24.8445 C   0  0  0  0  0  0
  -21.4255  -29.3053   22.3649 N   0  0  0  0  0  0
  -26.4283  -37.3768   23.9411 N   0  0  0  0  0  0
  -24.7145  -31.0303   22.1021 N   0  0  0  0  0  0
  -23.4191  -28.8098   23.3041 O   0  0  0  0  0  0
  -28.2360  -26.1914   20.1690 O   0  0  0  0  0  0
  -26.5643  -34.8906   22.4682 O   0  0  0  0  0  0
  -23.5544  -32.1372   23.7168 O   0  0  0  0  0  0
  -32.6585  -17.8556   22.7938 C   0  0  0  0  0  0
  -32.4477  -19.1793   22.4381 C   0  0  0  0  0  0
  -31.8016  -16.8442   22.3416 C   0  0  0  0  0  0
  -30.3701  -18.5654   21.2302 C   0  0  0  0  0  0
  -30.6929  -17.1190   21.4508 C   0  0  0  0  0  0
  -31.3150  -19.5241   21.7021 C   0  0  0  0  0  0
  -28.5233  -21.8927   20.5623 C   0  0  0  0  0  0
  -32.1683  -15.4799   22.9273 C   0  0  0  0  0  0
  -29.5865  -20.6156   18.6704 C   0  0  0  0  0  0
  -29.0450  -19.2617   20.6548 C   0  0  0  0  0  0
  -28.7634  -23.3847   19.9450 C   0  0  0  0  0  0
  -27.9334  -24.7151   20.4920 C   0  0  0  0  0  0
  -30.0179  -15.8977   20.9230 N   0  0  0  0  0  0
  -29.0482  -20.6890   20.0326 N   0  0  0  0  0  0
  -27.8617  -21.8442   21.6001 O   0  0  0  0  0  0
  -31.1542  -20.8518   21.4941 F   0  0  0  0  0  0
  -31.4744  -12.5481   19.1906 H   0  0  0  0  0  0
  -30.3229  -11.4665   19.9157 H   0  0  0  0  0  0
  -29.8273  -11.8659   17.4450 H   0  0  0  0  0  0
  -29.6935  -13.5653   17.7766 H   0  0  0  0  0  0
  -27.8319  -11.3730   18.7402 H   0  0  0  0  0  0
  -27.4370  -12.7592   17.7414 H   0  0  0  0  0  0
  -27.6499  -14.3025   19.5223 H   0  0  0  0  0  0
  -28.7055  -12.1720   21.4137 H   0  0  0  0  0  0
  -28.4303  -13.8660   21.7893 H   0  0  0  0  0  0
  -25.2890   -9.5704   22.4689 H   0  0  0  0  0  0
  -24.0089   -7.4702   22.7463 H   0  0  0  0  0  0
  -21.0954   -8.8854   19.8952 H   0  0  0  0  0  0
  -22.3888  -10.9670   19.6077 H   0  0  0  0  0  0
  -21.2149   -7.6210   23.9763 H   0  0  0  0  0  0
  -21.1443   -6.0506   25.9048 H   0  0  0  0  0  0
  -22.0602   -2.7673   23.2725 H   0  0  0  0  0  0
  -22.4100  -12.0053   22.5009 H   0  0  0  0  0  0
  -21.0999  -13.1129   22.2333 H   0  0  0  0  0  0
  -24.6230  -15.8317   20.5145 H   0  0  0  0  0  0
  -26.2487  -15.6497   20.0780 H   0  0  0  0  0  0
  -26.7248  -32.5291   23.1064 H   0  0  0  0  0  0
  -25.0083  -33.9656   25.0392 H   0  0  0  0  0  0
  -22.7434  -31.2944   21.3968 H   0  0  0  0  0  0
  -23.3781  -35.9563   23.3259 H   0  0  0  0  0  0
  -24.3558  -36.8944   22.2056 H   0  0  0  0  0  0
  -23.7167  -37.6430   23.6694 H   0  0  0  0  0  0
  -26.1512  -31.4651   20.6202 H   0  0  0  0  0  0
  -26.8706  -30.7633   22.0389 H   0  0  0  0  0  0
  -28.1161  -28.7904   21.2483 H   0  0  0  0  0  0
  -25.9206  -25.8826   18.9396 H   0  0  0  0  0  0
  -23.9655  -27.3291   18.9493 H   0  0  0  0  0  0
  -23.8067  -30.5848   19.4103 H   0  0  0  0  0  0
  -22.7753  -29.2523   19.8483 H   0  0  0  0  0  0
  -25.1289  -36.1931   25.0809 H   0  0  0  0  0  0
  -20.9978  -28.3302   24.1376 H   0  0  0  0  0  0
  -20.5717  -26.2327   23.3606 H   0  0  0  0  0  0
  -21.6663  -26.7465   22.1177 H   0  0  0  0  0  0
  -19.6946  -25.6263   21.1287 H   0  0  0  0  0  0
  -19.6758  -27.3142   20.6709 H   0  0  0  0  0  0
  -17.4236  -26.6679   21.4019 H   0  0  0  0  0  0
  -18.0366  -26.0104   22.9027 H   0  0  0  0  0  0
  -19.7939  -30.7309   24.2232 H   0  0  0  0  0  0
  -17.5016  -31.6280   24.5170 H   0  0  0  0  0  0
  -15.5363  -30.2984   23.7699 H   0  0  0  0  0  0
  -15.8675  -28.0821   22.7114 H   0  0  0  0  0  0
  -24.5800  -30.7199   25.7754 H   0  0  0  0  0  0
  -24.8813  -32.3005   26.4852 H   0  0  0  0  0  0
  -25.7834  -30.8988   27.0312 H   0  0  0  0  0  0
  -26.3042  -29.6773   24.1351 H   0  0  0  0  0  0
  -27.3903  -29.7324   25.5001 H   0  0  0  0  0  0
  -27.8960  -30.4304   23.9834 H   0  0  0  0  0  0
  -27.2690  -33.3669   26.2184 H   0  0  0  0  0  0
  -28.3892  -32.6883   25.0476 H   0  0  0  0  0  0
  -28.0692  -31.8486   26.5537 H   0  0  0  0  0  0
  -28.2553  -38.0139   24.7570 H   0  0  0  0  0  0
  -28.1132  -36.2674   24.6198 H   0  0  0  0  0  0
  -27.2301  -37.1335   25.8841 H   0  0  0  0  0  0
  -20.9478  -29.8776   21.6831 H   0  0  0  0  0  0
  -26.0178  -38.2837   24.1460 H   0  0  0  0  0  0
  -33.4993  -17.6133   23.4300 H   0  0  0  0  0  0
  -33.1292  -19.9475   22.7775 H   0  0  0  0  0  0
  -33.0195  -15.0599   22.3915 H   0  0  0  0  0  0
  -31.3659  -14.7463   22.9357 H   0  0  0  0  0  0
  -32.4647  -15.5987   23.9697 H   0  0  0  0  0  0
  -28.8206  -20.2634   17.9723 H   0  0  0  0  0  0
  -30.4046  -19.8958   18.6234 H   0  0  0  0  0  0
  -29.9920  -21.5562   18.2989 H   0  0  0  0  0  0
  -28.3593  -19.2898   21.5040 H   0  0  0  0  0  0
  -28.5809  -18.5654   19.9570 H   0  0  0  0  0  0
  -28.6379  -23.3237   18.8657 H   0  0  0  0  0  0
  -29.8255  -23.5745   20.0960 H   0  0  0  0  0  0
  -27.9848  -24.6697   21.5810 H   0  0  0  0  0  0
  -26.8841  -24.5112   20.2896 H   0  0  0  0  0  0
  -29.0151  -15.8508   21.0206 H   0  0  0  0  0  0
  1 25  1  0  0  0
  1 30  2  0  0  0
  1 83  1  0  0  0
  2  3  1  0  0  0
  2 25  1  0  0  0
  2 87  1  0  0  0
  2 88  1  0  0  0
  3  4  1  0  0  0
  3 89  1  0  0  0
  3 90  1  0  0  0
  4  5  1  0  0  0
  4 91  1  0  0  0
  4 92  1  0  0  0
  5  6  1  0  0  0
  5 26  1  0  0  0
  5 93  1  0  0  0
  6 25  1  0  0  0
  6 94  1  0  0  0
  6 95  1  0  0  0
  7  8  2  0  0  0
  7 26  1  0  0  0
  7 29  1  0  0  0
  8  9  1  0  0  0
  8 22  1  0  0  0
  9 10  1  0  0  0
  9 27  2  0  0  0
 10 11  2  0  0  0
 10 15  1  0  0  0
 11 12  1  0  0  0
 11 96  1  0  0  0
 12 13  2  0  0  0
 12 97  1  0  0  0
 13 14  1  0  0  0
 13 31  1  0  0  0
 14 15  2  0  0  0
 14 98  1  0  0  0
 15 99  1  0  0  0
 16 17  2  0  0  0
 16 21  1  0  0  0
 16 31  1  0  0  0
 17 18  1  0  0  0
 17100  1  0  0  0
 18 19  2  0  0  0
 18101  1  0  0  0
 19 20  1  0  0  0
 19 24  1  0  0  0
 20 21  2  0  0  0
 20102  1  0  0  0
 21 23  1  0  0  0
 22 28  1  0  0  0
 22 32  2  0  0  0
 26 27  1  0  0  0
 28103  1  0  0  0
 28104  1  0  0  0
 29105  1  0  0  0
 29106  1  0  0  0
 33 34  1  0  0  0
 33 66  1  0  0  0
 33 70  2  0  0  0
 34 36  1  0  0  0
 34 59  1  0  0  0
 34107  1  0  0  0
 35 44  2  0  0  0
 35 45  1  0  0  0
 35 68  1  0  0  0
 36 56  1  0  0  0
 36108  1  0  0  0
 37 39  1  0  0  0
 37 47  1  0  0  0
 37 66  1  0  0  0
 37109  1  0  0  0
 38 43  2  0  0  0
 38 46  1  0  0  0
 38 47  1  0  0  0
 39 64  1  0  0  0
 39 67  2  0  0  0
 40 52  1  0  0  0
 40 53  2  0  0  0
 40 58  1  0  0  0
 41110  1  0  0  0
 41111  1  0  0  0
 41112  1  0  0  0
 41 48  1  0  0  0
 42 43  1  0  0  0
 42 66  1  0  0  0
 42113  1  0  0  0
 42114  1  0  0  0
 43 44  1  0  0  0
 44115  1  0  0  0
 45 46  2  0  0  0
 45116  1  0  0  0
 46117  1  0  0  0
 47118  1  0  0  0
 47119  1  0  0  0
 48 56  1  0  0  0
 48 65  1  0  0  0
 48120  1  0  0  0
 49 50  1  0  0  0
 49 53  1  0  0  0
 49 64  1  0  0  0
 49121  1  0  0  0
 50 51  1  0  0  0
 50122  1  0  0  0
 50123  1  0  0  0
 51 52  1  0  0  0
 51124  1  0  0  0
 51125  1  0  0  0
 52126  1  0  0  0
 52127  1  0  0  0
 53 54  1  0  0  0
 54 55  2  0  0  0
 54128  1  0  0  0
 55 57  1  0  0  0
 55129  1  0  0  0
 56 69  2  0  0  0
 57 58  2  0  0  0
 57130  1  0  0  0
 58131  1  0  0  0
 59 60  1  0  0  0
 59 61  1  0  0  0
 59 62  1  0  0  0
 60132  1  0  0  0
 60133  1  0  0  0
 60134  1  0  0  0
 61135  1  0  0  0
 61136  1  0  0  0
 61137  1  0  0  0
 62138  1  0  0  0
 62139  1  0  0  0
 62140  1  0  0  0
 63 65  1  0  0  0
 63141  1  0  0  0
 63142  1  0  0  0
 63143  1  0  0  0
 64144  1  0  0  0
 65145  1  0  0  0
 68 82  1  0  0  0
 71 72  2  0  0  0
 71 73  1  0  0  0
 71146  1  0  0  0
 72 76  1  0  0  0
 72147  1  0  0  0
 73 75  2  0  0  0
 73 78  1  0  0  0
 74 75  1  0  0  0
 74 76  2  0  0  0
 74 80  1  0  0  0
 75 83  1  0  0  0
 76 86  1  0  0  0
 77 81  1  0  0  0
 77 84  1  0  0  0
 77 85  2  0  0  0
 78148  1  0  0  0
 78149  1  0  0  0
 78150  1  0  0  0
 79 84  1  0  0  0
 79151  1  0  0  0
 79152  1  0  0  0
 79153  1  0  0  0
 80 84  1  0  0  0
 80154  1  0  0  0
 80155  1  0  0  0
 81 82  1  0  0  0
 81156  1  0  0  0
 81157  1  0  0  0
 82158  1  0  0  0
 82159  1  0  0  0
 83160  1  0  0  0
M  ISO  4   1 100  68 101  82 101  83 100
M  END
> <chiral flag>
0

> <version>
0

> <s_m_source_file>
/data/baiqing/PycharmProjects/Reinvent-master-3.2/result/LINK_invent/BTK/process_docking_weight1_custom_product_contain_oxygen_bond_distance_aromatic_linkinvent_7_9_3/rearranged_h_0048.sdf

> <i_m_source_file_index>
76

> <r_mmod_Potential_Energy-OPLS-2005>
357.969390869141

> <r_mmod_Stretch_Energy-OPLS-2005>
197.430282592773

> <r_mmod_Bend_Energy-OPLS-2005>
229.61262512207

> <r_mmod_Torsional_Energy-OPLS-2005>
262.159454345703

> <r_mmod_Improper_Torsional_Energy-OPLS-2005>
3.34579753875732

> <r_mmod_Van_der_Waal_Energy-OPLS-2005>
165.440155029297

> <r_mmod_Electrostatic_Energy-OPLS-2005>
-394.775634765625

> <r_mmod_Solvation_Energy-OPLS-2005>
-224.169281005859

> <b_mmod_Minimization_Converged-OPLS-2005>
0

> <r_mmod_RMS_Derivative-OPLS-2005>
7.18784856796265

$$$$
76
                    3D
 Structure written by MMmdl.
156164  0  0  1  0            999 V2000
  -30.6957  -14.5385   20.5518 C   0  0  0  0  0  0
  -30.4294  -12.3499   19.4239 C   0  0  0  0  0  0
  -29.4955  -12.5126   18.2076 C   0  0  0  0  0  0
  -28.0195  -12.3582   18.6262 C   0  0  0  0  0  0
  -27.6580  -13.2147   19.8681 C   0  0  2  0  0  0
  -28.7081  -13.0385   20.9879 C   0  0  0  0  0  0
  -25.2583  -13.8179   20.5679 C   0  0  0  0  0  0
  -24.1848  -13.0451   20.9196 C   0  0  0  0  0  0
  -24.6412  -11.6913   20.8757 C   0  0  0  0  0  0
  -23.9073  -10.4291   21.0416 C   0  0  0  0  0  0
  -24.3617   -9.4204   21.9187 C   0  0  0  0  0  0
  -23.6288   -8.2241   22.0750 C   0  0  0  0  0  0
  -22.4274   -8.0278   21.3538 C   0  0  0  0  0  0
  -21.9916   -9.0256   20.4647 C   0  0  0  0  0  0
  -22.7250  -10.2135   20.3062 C   0  0  0  0  0  0
  -21.6850   -6.0741   22.5275 C   0  0  0  0  0  0
  -21.4021   -6.5646   23.8210 C   0  0  0  0  0  0
  -21.3656   -5.6798   24.9175 C   0  0  0  0  0  0
  -21.6052   -4.3056   24.7227 C   0  0  0  0  0  0
  -21.8821   -3.8148   23.4343 C   0  0  0  0  0  0
  -21.9195   -4.6968   22.3402 C   0  0  0  0  0  0
  -22.7867  -13.5240   21.1846 C   0  0  0  0  0  0
  -22.1662   -4.2158   21.0975 F   0  0  0  0  0  0
  -21.5626   -3.4543   25.7732 F   0  0  0  0  0  0
  -30.0262  -13.3570   20.4173 N   0  0  0  0  0  0
  -26.3025  -12.9364   20.3365 N   0  0  0  0  0  0
  -25.9348  -11.6524   20.5784 N   0  0  0  0  0  0
  -22.0519  -12.8218   22.0396 N   0  0  0  0  0  0
  -25.4325  -15.1891   20.4051 N   0  0  0  0  0  0
  -31.8522  -14.6908   20.1595 O   0  0  0  0  0  0
  -21.6636   -6.8885   21.4235 O   0  0  0  0  0  0
  -22.3554  -14.5541   20.6688 O   0  0  0  0  0  0
  -24.6180  -31.8616   23.2047 C   0  0  0  0  0  0
  -25.9052  -32.4809   23.8351 C   0  0  1  0  0  0
  -27.2445  -27.3846   20.0904 C   0  0  0  0  0  0
  -25.5888  -33.8603   24.2297 N   0  0  0  0  0  0
  -23.4081  -30.4805   21.5467 C   0  0  2  0  0  0
  -24.8575  -28.9377   20.1145 C   0  0  0  0  0  0
  -22.7430  -29.4587   22.4945 C   0  0  0  0  0  0
  -18.0271  -28.1365   22.8449 C   0  0  0  0  0  0
  -24.1496  -36.7320   23.2635 C   0  0  0  0  0  0
  -25.9388  -30.8152   21.3566 C   0  0  0  0  0  0
  -26.0188  -29.4412   20.7098 C   0  0  0  0  0  0
  -27.2074  -28.6680   20.7025 C   0  0  0  0  0  0
  -26.0536  -26.9024   19.4987 C   0  0  0  0  0  0
  -24.8703  -27.6687   19.5094 C   0  0  0  0  0  0
  -23.6214  -29.8116   20.1607 C   0  0  0  0  0  0
  -25.4103  -36.3099   24.0324 C   0  0  1  0  0  0
  -20.5848  -28.3653   23.1295 C   0  0  2  0  0  0
  -20.6763  -26.9388   22.5408 C   0  0  0  0  0  0
  -19.5767  -26.6368   21.5177 C   0  0  0  0  0  0
  -18.1926  -26.7905   22.1578 C   0  0  0  0  0  0
  -19.1516  -28.8818   23.2878 C   0  0  0  0  0  0
  -18.9464  -30.1431   23.8873 C   0  0  0  0  0  0
  -17.6465  -30.6584   24.0537 C   0  0  0  0  0  0
  -25.9026  -34.9457   23.5112 C   0  0  0  0  0  0
  -16.5349  -29.9073   23.6307 C   0  0  0  0  0  0
  -16.7255  -28.6490   23.0305 C   0  0  0  0  0  0
  -26.4478  -31.6579   25.0670 C   0  0  0  0  0  0
  -25.3746  -31.3634   26.1425 C   0  0  0  0  0  0
  -27.0293  -30.3013   24.5988 C   0  0  0  0  0  0
  -27.6058  -32.4265   25.7428 C   0  0  0  0  0  0
  -27.5576  -37.1822   24.8460 C   0  0  0  0  0  0
  -21.4149  -29.3017   22.3728 N   0  0  0  0  0  0
  -26.4289  -37.3770   23.9390 N   0  0  0  0  0  0
  -24.6737  -31.0669   22.0943 N   0  0  0  0  0  0
  -23.4185  -28.8118   23.3011 O   0  0  0  0  0  0
  -28.4357  -26.6635   20.1237 O   0  0  0  0  0  0
  -26.5609  -34.8908   22.4686 O   0  0  0  0  0  0
  -23.5366  -32.1396   23.7413 O   0  0  0  0  0  0
  -31.1856  -18.0556   19.3587 C   0  0  0  0  0  0
  -31.3679  -19.2155   18.5815 C   0  0  0  0  0  0
  -29.9030  -19.3714   20.9396 C   0  0  0  0  0  0
  -30.4730  -18.1182   20.5690 C   0  0  0  0  0  0
  -30.8365  -20.4665   18.9732 C   0  0  0  0  0  0
  -30.0422  -20.5642   20.1585 C   0  0  0  0  0  0
  -28.7509  -24.1379   20.2298 C   0  0  0  0  0  0
  -31.1901  -21.6589   18.0961 C   0  0  0  0  0  0
  -30.4514  -16.8936   21.5181 C   0  0  0  0  0  0
  -28.6346  -25.4273   19.3800 C   0  0  0  0  0  0
  -29.3596  -21.8712   20.6986 C   0  0  0  0  0  0
  -29.2883  -23.0448   19.8093 N   0  0  0  0  0  0
  -29.9706  -15.5789   21.0227 N   0  0  0  0  0  0
  -30.0058  -22.2179   21.8122 F   0  0  0  0  0  0
  -28.1111  -21.5386   21.0353 F   0  0  0  0  0  0
  -31.4709  -12.4579   19.1194 H   0  0  0  0  0  0
  -30.3446  -11.3496   19.8477 H   0  0  0  0  0  0
  -29.7460  -11.7821   17.4370 H   0  0  0  0  0  0
  -29.6448  -13.4945   17.7570 H   0  0  0  0  0  0
  -27.8472  -11.3032   18.8406 H   0  0  0  0  0  0
  -27.3624  -12.6123   17.7930 H   0  0  0  0  0  0
  -27.6881  -14.2552   19.5438 H   0  0  0  0  0  0
  -28.7071  -12.0147   21.3644 H   0  0  0  0  0  0
  -28.4698  -13.6677   21.8475 H   0  0  0  0  0  0
  -25.2774   -9.5695   22.4738 H   0  0  0  0  0  0
  -24.0015   -7.4658   22.7472 H   0  0  0  0  0  0
  -21.0858   -8.8802   19.8946 H   0  0  0  0  0  0
  -22.3741  -10.9676   19.6162 H   0  0  0  0  0  0
  -21.2017   -7.6154   23.9721 H   0  0  0  0  0  0
  -21.1472   -6.0520   25.9075 H   0  0  0  0  0  0
  -22.0599   -2.7615   23.2838 H   0  0  0  0  0  0
  -22.4125  -11.9852   22.4739 H   0  0  0  0  0  0
  -21.1140  -13.1238   22.2615 H   0  0  0  0  0  0
  -24.6684  -15.8487   20.5011 H   0  0  0  0  0  0
  -26.2832  -15.6202   20.0651 H   0  0  0  0  0  0
  -26.7112  -32.5496   23.1107 H   0  0  0  0  0  0
  -25.0017  -33.9742   25.0424 H   0  0  0  0  0  0
  -22.7015  -31.2984   21.4028 H   0  0  0  0  0  0
  -23.3719  -35.9692   23.3302 H   0  0  0  0  0  0
  -24.3600  -36.8937   22.2058 H   0  0  0  0  0  0
  -23.7284  -37.6525   23.6658 H   0  0  0  0  0  0
  -26.0366  -31.5753   20.5813 H   0  0  0  0  0  0
  -26.8311  -30.8839   21.9647 H   0  0  0  0  0  0
  -28.1024  -29.0486   21.1748 H   0  0  0  0  0  0
  -25.9970  -25.9254   19.0440 H   0  0  0  0  0  0
  -23.9724  -27.2696   19.0558 H   0  0  0  0  0  0
  -23.7391  -30.5876   19.4021 H   0  0  0  0  0  0
  -22.7452  -29.2354   19.8595 H   0  0  0  0  0  0
  -25.1290  -36.1950   25.0815 H   0  0  0  0  0  0
  -20.9925  -28.3219   24.1422 H   0  0  0  0  0  0
  -20.5639  -26.2255   23.3591 H   0  0  0  0  0  0
  -21.6644  -26.7434   22.1215 H   0  0  0  0  0  0
  -19.6929  -25.6268   21.1203 H   0  0  0  0  0  0
  -19.6711  -27.3194   20.6710 H   0  0  0  0  0  0
  -17.4200  -26.6614   21.3998 H   0  0  0  0  0  0
  -18.0354  -26.0068   22.9004 H   0  0  0  0  0  0
  -19.7955  -30.7225   24.2242 H   0  0  0  0  0  0
  -17.5039  -31.6274   24.5170 H   0  0  0  0  0  0
  -15.5345  -30.2979   23.7682 H   0  0  0  0  0  0
  -15.8642  -28.0854   22.6969 H   0  0  0  0  0  0
  -24.5971  -30.6916   25.7766 H   0  0  0  0  0  0
  -24.8880  -32.2771   26.4842 H   0  0  0  0  0  0
  -25.8144  -30.8851   27.0193 H   0  0  0  0  0  0
  -26.2803  -29.6746   24.1132 H   0  0  0  0  0  0
  -27.4182  -29.7262   25.4399 H   0  0  0  0  0  0
  -27.8581  -30.4322   23.9025 H   0  0  0  0  0  0
  -27.2699  -33.3582   26.1977 H   0  0  0  0  0  0
  -28.3890  -32.6768   25.0271 H   0  0  0  0  0  0
  -28.0667  -31.8372   26.5375 H   0  0  0  0  0  0
  -28.2601  -38.0128   24.7503 H   0  0  0  0  0  0
  -28.1098  -36.2650   24.6302 H   0  0  0  0  0  0
  -27.2310  -37.1466   25.8880 H   0  0  0  0  0  0
  -20.9306  -29.8793   21.6993 H   0  0  0  0  0  0
  -26.0179  -38.2832   24.1420 H   0  0  0  0  0  0
  -31.6510  -17.1307   19.0464 H   0  0  0  0  0  0
  -31.9613  -19.1412   17.6794 H   0  0  0  0  0  0
  -29.3634  -19.4396   21.8747 H   0  0  0  0  0  0
  -28.3338  -24.2247   21.2363 H   0  0  0  0  0  0
  -31.9191  -21.3963   17.3292 H   0  0  0  0  0  0
  -31.6368  -22.4577   18.6899 H   0  0  0  0  0  0
  -30.3055  -22.0411   17.5854 H   0  0  0  0  0  0
  -29.8383  -17.1455   22.3840 H   0  0  0  0  0  0
  -31.4601  -16.7667   21.9183 H   0  0  0  0  0  0
  -27.9232  -25.2694   18.5714 H   0  0  0  0  0  0
  -29.5862  -25.5532   18.8655 H   0  0  0  0  0  0
  -29.0087  -15.3631   21.2317 H   0  0  0  0  0  0
  1 25  1  0  0  0
  1 30  2  0  0  0
  1 83  1  0  0  0
  2  3  1  0  0  0
  2 25  1  0  0  0
  2 86  1  0  0  0
  2 87  1  0  0  0
  3  4  1  0  0  0
  3 88  1  0  0  0
  3 89  1  0  0  0
  4  5  1  0  0  0
  4 90  1  0  0  0
  4 91  1  0  0  0
  5  6  1  0  0  0
  5 26  1  0  0  0
  5 92  1  0  0  0
  6 25  1  0  0  0
  6 93  1  0  0  0
  6 94  1  0  0  0
  7  8  2  0  0  0
  7 26  1  0  0  0
  7 29  1  0  0  0
  8  9  1  0  0  0
  8 22  1  0  0  0
  9 10  1  0  0  0
  9 27  2  0  0  0
 10 11  2  0  0  0
 10 15  1  0  0  0
 11 12  1  0  0  0
 11 95  1  0  0  0
 12 13  2  0  0  0
 12 96  1  0  0  0
 13 14  1  0  0  0
 13 31  1  0  0  0
 14 15  2  0  0  0
 14 97  1  0  0  0
 15 98  1  0  0  0
 16 17  2  0  0  0
 16 21  1  0  0  0
 16 31  1  0  0  0
 17 18  1  0  0  0
 17 99  1  0  0  0
 18 19  2  0  0  0
 18100  1  0  0  0
 19 20  1  0  0  0
 19 24  1  0  0  0
 20 21  2  0  0  0
 20101  1  0  0  0
 21 23  1  0  0  0
 22 28  1  0  0  0
 22 32  2  0  0  0
 26 27  1  0  0  0
 28102  1  0  0  0
 28103  1  0  0  0
 29104  1  0  0  0
 29105  1  0  0  0
 33 34  1  0  0  0
 33 66  1  0  0  0
 33 70  2  0  0  0
 34 36  1  0  0  0
 34 59  1  0  0  0
 34106  1  0  0  0
 35 44  2  0  0  0
 35 45  1  0  0  0
 35 68  1  0  0  0
 36 56  1  0  0  0
 36107  1  0  0  0
 37 39  1  0  0  0
 37 47  1  0  0  0
 37 66  1  0  0  0
 37108  1  0  0  0
 38 43  2  0  0  0
 38 46  1  0  0  0
 38 47  1  0  0  0
 39 64  1  0  0  0
 39 67  2  0  0  0
 40 52  1  0  0  0
 40 53  2  0  0  0
 40 58  1  0  0  0
 41109  1  0  0  0
 41110  1  0  0  0
 41111  1  0  0  0
 41 48  1  0  0  0
 42 43  1  0  0  0
 42 66  1  0  0  0
 42112  1  0  0  0
 42113  1  0  0  0
 43 44  1  0  0  0
 44114  1  0  0  0
 45 46  2  0  0  0
 45115  1  0  0  0
 46116  1  0  0  0
 47117  1  0  0  0
 47118  1  0  0  0
 48 56  1  0  0  0
 48 65  1  0  0  0
 48119  1  0  0  0
 49 50  1  0  0  0
 49 53  1  0  0  0
 49 64  1  0  0  0
 49120  1  0  0  0
 50 51  1  0  0  0
 50121  1  0  0  0
 50122  1  0  0  0
 51 52  1  0  0  0
 51123  1  0  0  0
 51124  1  0  0  0
 52125  1  0  0  0
 52126  1  0  0  0
 53 54  1  0  0  0
 54 55  2  0  0  0
 54127  1  0  0  0
 55 57  1  0  0  0
 55128  1  0  0  0
 56 69  2  0  0  0
 57 58  2  0  0  0
 57129  1  0  0  0
 58130  1  0  0  0
 59 60  1  0  0  0
 59 61  1  0  0  0
 59 62  1  0  0  0
 60131  1  0  0  0
 60132  1  0  0  0
 60133  1  0  0  0
 61134  1  0  0  0
 61135  1  0  0  0
 61136  1  0  0  0
 62137  1  0  0  0
 62138  1  0  0  0
 62139  1  0  0  0
 63 65  1  0  0  0
 63140  1  0  0  0
 63141  1  0  0  0
 63142  1  0  0  0
 64143  1  0  0  0
 65144  1  0  0  0
 68 80  1  0  0  0
 71 72  2  0  0  0
 71 74  1  0  0  0
 71145  1  0  0  0
 72 75  1  0  0  0
 72146  1  0  0  0
 73 74  2  0  0  0
 73 76  1  0  0  0
 73147  1  0  0  0
 74 79  1  0  0  0
 75 76  2  0  0  0
 75 78  1  0  0  0
 76 81  1  0  0  0
 77 80  1  0  0  0
 77 82  2  0  0  0
 77148  1  0  0  0
 78149  1  0  0  0
 78150  1  0  0  0
 78151  1  0  0  0
 79 83  1  0  0  0
 79152  1  0  0  0
 79153  1  0  0  0
 80154  1  0  0  0
 80155  1  0  0  0
 81 82  1  0  0  0
 81 84  1  0  0  0
 81 85  1  0  0  0
 83156  1  0  0  0
M  ISO  4   1 100  68 101  80 101  83 100
M  END
> <chiral flag>
0

> <version>
0

> <s_m_source_file>
/data/baiqing/PycharmProjects/Reinvent-master-3.2/result/LINK_invent/BTK/process_docking_weight1_custom_product_contain_oxygen_bond_distance_aromatic_linkinvent_7_9_3/rearranged_h_0048.sdf

> <i_m_source_file_index>
77

> <r_mmod_Potential_Energy-OPLS-2005>
-63.8430290222168

> <r_mmod_Stretch_Energy-OPLS-2005>
56.6141052246094

> <r_mmod_Bend_Energy-OPLS-2005>
131.618774414062

> <r_mmod_Torsional_Energy-OPLS-2005>
189.688995361328

> <r_mmod_Improper_Torsional_Energy-OPLS-2005>
3.8314688205719

> <r_mmod_Van_der_Waal_Energy-OPLS-2005>
156.68717956543

> <r_mmod_Electrostatic_Energy-OPLS-2005>
-419.302185058594

> <r_mmod_Solvation_Energy-OPLS-2005>
-205.776611328125

> <b_mmod_Minimization_Converged-OPLS-2005>
0

> <r_mmod_RMS_Derivative-OPLS-2005>
3.88248538970947

$$$$
77
                    3D
 Structure written by MMmdl.
153161  0  0  1  0            999 V2000
  -30.5926  -14.7802   20.4531 C   0  0  0  0  0  0
  -30.4367  -12.4794   19.4670 C   0  0  0  0  0  0
  -29.5107  -12.5123   18.2314 C   0  0  0  0  0  0
  -28.0376  -12.3273   18.6477 C   0  0  0  0  0  0
  -27.6379  -13.2318   19.8437 C   0  0  2  0  0  0
  -28.6850  -13.1815   20.9766 C   0  0  0  0  0  0
  -25.2496  -13.8181   20.5700 C   0  0  0  0  0  0
  -24.1794  -13.0427   20.9217 C   0  0  0  0  0  0
  -24.6391  -11.6908   20.8747 C   0  0  0  0  0  0
  -23.9066  -10.4287   21.0400 C   0  0  0  0  0  0
  -24.3615   -9.4204   21.9181 C   0  0  0  0  0  0
  -23.6291   -8.2241   22.0752 C   0  0  0  0  0  0
  -22.4272   -8.0279   21.3541 C   0  0  0  0  0  0
  -21.9905   -9.0252   20.4644 C   0  0  0  0  0  0
  -22.7234  -10.2132   20.3052 C   0  0  0  0  0  0
  -21.6856   -6.0734   22.5279 C   0  0  0  0  0  0
  -21.4015   -6.5637   23.8213 C   0  0  0  0  0  0
  -21.3658   -5.6788   24.9173 C   0  0  0  0  0  0
  -21.6043   -4.3052   24.7223 C   0  0  0  0  0  0
  -21.8820   -3.8145   23.4345 C   0  0  0  0  0  0
  -21.9194   -4.6961   22.3402 C   0  0  0  0  0  0
  -22.7818  -13.5215   21.1870 C   0  0  0  0  0  0
  -22.1664   -4.2148   21.0980 F   0  0  0  0  0  0
  -21.5627   -3.4537   25.7737 F   0  0  0  0  0  0
  -29.9783  -13.5469   20.3856 N   0  0  0  0  0  0
  -26.2921  -12.9392   20.3253 N   0  0  0  0  0  0
  -25.9318  -11.6536   20.5733 N   0  0  0  0  0  0
  -22.0460  -12.8209   22.0426 N   0  0  0  0  0  0
  -25.4146  -15.1909   20.4125 N   0  0  0  0  0  0
  -31.7962  -14.8692   20.1915 O   0  0  0  0  0  0
  -21.6637   -6.8877   21.4241 O   0  0  0  0  0  0
  -22.3505  -14.5521   20.6714 O   0  0  0  0  0  0
  -24.6328  -31.8529   23.1949 C   0  0  0  0  0  0
  -25.9146  -32.4741   23.8308 C   0  0  1  0  0  0
  -27.2227  -27.2440   20.1433 C   0  0  0  0  0  0
  -25.5937  -33.8542   24.2240 N   0  0  0  0  0  0
  -23.4310  -30.4726   21.5386 C   0  0  2  0  0  0
  -24.8799  -28.9087   20.1164 C   0  0  0  0  0  0
  -22.7513  -29.4586   22.4905 C   0  0  0  0  0  0
  -18.0297  -28.1388   22.8483 C   0  0  0  0  0  0
  -24.1489  -36.7269   23.2639 C   0  0  0  0  0  0
  -25.9769  -30.7623   21.3745 C   0  0  0  0  0  0
  -26.0522  -29.3803   20.7216 C   0  0  0  0  0  0
  -27.2303  -28.5630   20.7159 C   0  0  0  0  0  0
  -26.0280  -26.8350   19.5181 C   0  0  0  0  0  0
  -24.8731  -27.6450   19.5022 C   0  0  0  0  0  0
  -23.6519  -29.8002   20.1574 C   0  0  0  0  0  0
  -25.4114  -36.3058   24.0326 C   0  0  1  0  0  0
  -20.5902  -28.3698   23.1269 C   0  0  2  0  0  0
  -20.6783  -26.9413   22.5410 C   0  0  0  0  0  0
  -19.5755  -26.6385   21.5215 C   0  0  0  0  0  0
  -18.1938  -26.7929   22.1629 C   0  0  0  0  0  0
  -19.1551  -28.8861   23.2871 C   0  0  0  0  0  0
  -18.9469  -30.1465   23.8885 C   0  0  0  0  0  0
  -17.6466  -30.6585   24.0562 C   0  0  0  0  0  0
  -25.9059  -34.9431   23.5087 C   0  0  0  0  0  0
  -16.5358  -29.9081   23.6336 C   0  0  0  0  0  0
  -16.7284  -28.6503   23.0349 C   0  0  0  0  0  0
  -26.4508  -31.6566   25.0700 C   0  0  0  0  0  0
  -25.3729  -31.3729   26.1422 C   0  0  0  0  0  0
  -27.0352  -30.2981   24.6191 C   0  0  0  0  0  0
  -27.6065  -32.4301   25.7477 C   0  0  0  0  0  0
  -27.5578  -37.1786   24.8463 C   0  0  0  0  0  0
  -21.4218  -29.3037   22.3651 N   0  0  0  0  0  0
  -26.4284  -37.3763   23.9418 N   0  0  0  0  0  0
  -24.6996  -31.0478   22.0929 N   0  0  0  0  0  0
  -23.4203  -28.8138   23.3021 O   0  0  0  0  0  0
  -28.3206  -26.3523   20.1342 O   0  0  0  0  0  0
  -26.5632  -34.8910   22.4657 O   0  0  0  0  0  0
  -23.5475  -32.1353   23.7239 O   0  0  0  0  0  0
  -31.5389  -19.0934   21.6934 C   0  0  0  0  0  0
  -30.7446  -20.1481   21.1975 C   0  0  0  0  0  0
  -31.2253  -17.7420   21.4422 C   0  0  0  0  0  0
  -29.5868  -19.9088   20.4257 C   0  0  0  0  0  0
  -29.2625  -18.4843   20.1983 C   0  0  0  0  0  0
  -30.0866  -17.3732   20.6946 C   0  0  0  0  0  0
  -28.8864  -21.1580   19.7622 C   0  0  0  0  0  0
  -28.4643  -23.6651   19.8266 C   0  0  0  0  0  0
  -28.0244  -18.1246   19.3879 C   0  0  0  0  0  0
  -28.1807  -24.9674   20.7330 C   0  0  0  0  0  0
  -29.7825  -15.9145   20.5436 N   0  0  0  0  0  0
  -28.8314  -22.4203   20.3643 N   0  0  0  0  0  0
  -28.3847  -20.9717   18.6496 O   0  0  0  0  0  0
  -28.3199  -23.8260   18.6090 O   0  0  0  0  0  0
  -31.4752  -12.6165   19.1610 H   0  0  0  0  0  0
  -30.3943  -11.5065   19.9595 H   0  0  0  0  0  0
  -29.7991  -11.7370   17.5206 H   0  0  0  0  0  0
  -29.6279  -13.4642   17.7104 H   0  0  0  0  0  0
  -27.9019  -11.2798   18.9184 H   0  0  0  0  0  0
  -27.3783  -12.5091   17.7982 H   0  0  0  0  0  0
  -27.6244  -14.2492   19.4526 H   0  0  0  0  0  0
  -28.7322  -12.1863   21.4220 H   0  0  0  0  0  0
  -28.4168  -13.8667   21.7823 H   0  0  0  0  0  0
  -25.2760   -9.5685   22.4757 H   0  0  0  0  0  0
  -24.0002   -7.4633   22.7469 H   0  0  0  0  0  0
  -21.0838   -8.8770   19.8950 H   0  0  0  0  0  0
  -22.3690  -10.9671   19.6163 H   0  0  0  0  0  0
  -21.2009   -7.6144   23.9715 H   0  0  0  0  0  0
  -21.1477   -6.0518   25.9077 H   0  0  0  0  0  0
  -22.0599   -2.7607   23.2844 H   0  0  0  0  0  0
  -22.4073  -11.9878   22.4829 H   0  0  0  0  0  0
  -21.1076  -13.1235   22.2619 H   0  0  0  0  0  0
  -24.6397  -15.8358   20.5242 H   0  0  0  0  0  0
  -26.2485  -15.6351   20.0560 H   0  0  0  0  0  0
  -26.7212  -32.5393   23.1048 H   0  0  0  0  0  0
  -25.0093  -33.9669   25.0392 H   0  0  0  0  0  0
  -22.7281  -31.2948   21.3889 H   0  0  0  0  0  0
  -23.3754  -35.9597   23.3292 H   0  0  0  0  0  0
  -24.3585  -36.8899   22.2056 H   0  0  0  0  0  0
  -23.7231  -37.6464   23.6665 H   0  0  0  0  0  0
  -26.1136  -31.5209   20.6022 H   0  0  0  0  0  0
  -26.8548  -30.8167   22.0068 H   0  0  0  0  0  0
  -28.1334  -28.9245   21.1876 H   0  0  0  0  0  0
  -25.9837  -25.8644   19.0441 H   0  0  0  0  0  0
  -23.9758  -27.2790   19.0223 H   0  0  0  0  0  0
  -23.7807  -30.5733   19.3987 H   0  0  0  0  0  0
  -22.7696  -29.2351   19.8519 H   0  0  0  0  0  0
  -25.1295  -36.1900   25.0818 H   0  0  0  0  0  0
  -21.0000  -28.3278   24.1389 H   0  0  0  0  0  0
  -20.5688  -26.2303   23.3614 H   0  0  0  0  0  0
  -21.6651  -26.7435   22.1201 H   0  0  0  0  0  0
  -19.6912  -25.6297   21.1245 H   0  0  0  0  0  0
  -19.6691  -27.3196   20.6745 H   0  0  0  0  0  0
  -17.4207  -26.6678   21.4034 H   0  0  0  0  0  0
  -18.0337  -26.0077   22.9034 H   0  0  0  0  0  0
  -19.7944  -30.7291   24.2241 H   0  0  0  0  0  0
  -17.5018  -31.6264   24.5168 H   0  0  0  0  0  0
  -15.5354  -30.2975   23.7663 H   0  0  0  0  0  0
  -15.8689  -28.0819   22.7056 H   0  0  0  0  0  0
  -24.5891  -30.7095   25.7745 H   0  0  0  0  0  0
  -24.8940  -32.2909   26.4840 H   0  0  0  0  0  0
  -25.8043  -30.8900   27.0200 H   0  0  0  0  0  0
  -26.2935  -29.6723   24.1215 H   0  0  0  0  0  0
  -27.4033  -29.7249   25.4709 H   0  0  0  0  0  0
  -27.8813  -30.4246   23.9433 H   0  0  0  0  0  0
  -27.2679  -33.3609   26.2039 H   0  0  0  0  0  0
  -28.3888  -32.6843   25.0313 H   0  0  0  0  0  0
  -28.0716  -31.8431   26.5406 H   0  0  0  0  0  0
  -28.2579  -38.0100   24.7535 H   0  0  0  0  0  0
  -28.1093  -36.2632   24.6257 H   0  0  0  0  0  0
  -27.2306  -37.1399   25.8868 H   0  0  0  0  0  0
  -20.9407  -29.8742   21.6838 H   0  0  0  0  0  0
  -26.0158  -38.2832   24.1436 H   0  0  0  0  0  0
  -32.4232  -19.3276   22.2704 H   0  0  0  0  0  0
  -31.0665  -21.1635   21.3862 H   0  0  0  0  0  0
  -31.8743  -16.9823   21.8555 H   0  0  0  0  0  0
  -27.1734  -18.7376   19.6847 H   0  0  0  0  0  0
  -27.7259  -17.0862   19.5178 H   0  0  0  0  0  0
  -28.2112  -18.2824   18.3255 H   0  0  0  0  0  0
  -28.8607  -24.9211   21.5832 H   0  0  0  0  0  0
  -27.1821  -24.8534   21.1565 H   0  0  0  0  0  0
  -28.8004  -15.6940   20.5175 H   0  0  0  0  0  0
  -29.0864  -22.4310   21.3390 H   0  0  0  0  0  0
  1 25  1  0  0  0
  1 30  2  0  0  0
  1 81  1  0  0  0
  2  3  1  0  0  0
  2 25  1  0  0  0
  2 85  1  0  0  0
  2 86  1  0  0  0
  3  4  1  0  0  0
  3 87  1  0  0  0
  3 88  1  0  0  0
  4  5  1  0  0  0
  4 89  1  0  0  0
  4 90  1  0  0  0
  5  6  1  0  0  0
  5 26  1  0  0  0
  5 91  1  0  0  0
  6 25  1  0  0  0
  6 92  1  0  0  0
  6 93  1  0  0  0
  7  8  2  0  0  0
  7 26  1  0  0  0
  7 29  1  0  0  0
  8  9  1  0  0  0
  8 22  1  0  0  0
  9 10  1  0  0  0
  9 27  2  0  0  0
 10 11  2  0  0  0
 10 15  1  0  0  0
 11 12  1  0  0  0
 11 94  1  0  0  0
 12 13  2  0  0  0
 12 95  1  0  0  0
 13 14  1  0  0  0
 13 31  1  0  0  0
 14 15  2  0  0  0
 14 96  1  0  0  0
 15 97  1  0  0  0
 16 17  2  0  0  0
 16 21  1  0  0  0
 16 31  1  0  0  0
 17 18  1  0  0  0
 17 98  1  0  0  0
 18 19  2  0  0  0
 18 99  1  0  0  0
 19 20  1  0  0  0
 19 24  1  0  0  0
 20 21  2  0  0  0
 20100  1  0  0  0
 21 23  1  0  0  0
 22 28  1  0  0  0
 22 32  2  0  0  0
 26 27  1  0  0  0
 28101  1  0  0  0
 28102  1  0  0  0
 29103  1  0  0  0
 29104  1  0  0  0
 33 34  1  0  0  0
 33 66  1  0  0  0
 33 70  2  0  0  0
 34 36  1  0  0  0
 34 59  1  0  0  0
 34105  1  0  0  0
 35 44  2  0  0  0
 35 45  1  0  0  0
 35 68  1  0  0  0
 36 56  1  0  0  0
 36106  1  0  0  0
 37 39  1  0  0  0
 37 47  1  0  0  0
 37 66  1  0  0  0
 37107  1  0  0  0
 38 43  2  0  0  0
 38 46  1  0  0  0
 38 47  1  0  0  0
 39 64  1  0  0  0
 39 67  2  0  0  0
 40 52  1  0  0  0
 40 53  2  0  0  0
 40 58  1  0  0  0
 41108  1  0  0  0
 41109  1  0  0  0
 41110  1  0  0  0
 41 48  1  0  0  0
 42 43  1  0  0  0
 42 66  1  0  0  0
 42111  1  0  0  0
 42112  1  0  0  0
 43 44  1  0  0  0
 44113  1  0  0  0
 45 46  2  0  0  0
 45114  1  0  0  0
 46115  1  0  0  0
 47116  1  0  0  0
 47117  1  0  0  0
 48 56  1  0  0  0
 48 65  1  0  0  0
 48118  1  0  0  0
 49 50  1  0  0  0
 49 53  1  0  0  0
 49 64  1  0  0  0
 49119  1  0  0  0
 50 51  1  0  0  0
 50120  1  0  0  0
 50121  1  0  0  0
 51 52  1  0  0  0
 51122  1  0  0  0
 51123  1  0  0  0
 52124  1  0  0  0
 52125  1  0  0  0
 53 54  1  0  0  0
 54 55  2  0  0  0
 54126  1  0  0  0
 55 57  1  0  0  0
 55127  1  0  0  0
 56 69  2  0  0  0
 57 58  2  0  0  0
 57128  1  0  0  0
 58129  1  0  0  0
 59 60  1  0  0  0
 59 61  1  0  0  0
 59 62  1  0  0  0
 60130  1  0  0  0
 60131  1  0  0  0
 60132  1  0  0  0
 61133  1  0  0  0
 61134  1  0  0  0
 61135  1  0  0  0
 62136  1  0  0  0
 62137  1  0  0  0
 62138  1  0  0  0
 63 65  1  0  0  0
 63139  1  0  0  0
 63140  1  0  0  0
 63141  1  0  0  0
 64142  1  0  0  0
 65143  1  0  0  0
 68 80  1  0  0  0
 71 72  2  0  0  0
 71 73  1  0  0  0
 71144  1  0  0  0
 72 74  1  0  0  0
 72145  1  0  0  0
 73 76  2  0  0  0
 73146  1  0  0  0
 74 75  2  0  0  0
 74 77  1  0  0  0
 75 76  1  0  0  0
 75 79  1  0  0  0
 76 81  1  0  0  0
 77 82  1  0  0  0
 77 83  2  0  0  0
 78 80  1  0  0  0
 78 82  1  0  0  0
 78 84  2  0  0  0
 79147  1  0  0  0
 79148  1  0  0  0
 79149  1  0  0  0
 80150  1  0  0  0
 80151  1  0  0  0
 81152  1  0  0  0
 82153  1  0  0  0
M  ISO  4   1 100  68 101  80 101  81 100
M  END
> <chiral flag>
0

> <version>
0

> <s_m_source_file>
/data/baiqing/PycharmProjects/Reinvent-master-3.2/result/LINK_invent/BTK/process_docking_weight1_custom_product_contain_oxygen_bond_distance_aromatic_linkinvent_7_9_3/rearranged_h_0048.sdf

> <i_m_source_file_index>
78

> <r_mmod_Potential_Energy-OPLS-2005>
64.5078048706055

> <r_mmod_Stretch_Energy-OPLS-2005>
144.99641418457

> <r_mmod_Bend_Energy-OPLS-2005>
167.945571899414

> <r_mmod_Torsional_Energy-OPLS-2005>
256.594909667969

> <r_mmod_Improper_Torsional_Energy-OPLS-2005>
7.22938823699951

> <r_mmod_Van_der_Waal_Energy-OPLS-2005>
137.327865600586

> <r_mmod_Electrostatic_Energy-OPLS-2005>
-466.445465087891

> <r_mmod_Solvation_Energy-OPLS-2005>
-280.805206298828

> <b_mmod_Minimization_Converged-OPLS-2005>
0

> <r_mmod_RMS_Derivative-OPLS-2005>
0.740475952625275

$$$$
78
                    3D
 Structure written by MMmdl.
167176  0  0  1  0            999 V2000
  -30.6331  -14.6249   20.5265 C   0  0  0  0  0  0
  -30.4269  -12.3892   19.4454 C   0  0  0  0  0  0
  -29.5027  -12.5157   18.2154 C   0  0  0  0  0  0
  -28.0211  -12.3648   18.6203 C   0  0  0  0  0  0
  -27.6458  -13.2223   19.8584 C   0  0  2  0  0  0
  -28.6903  -13.0776   20.9853 C   0  0  0  0  0  0
  -25.2503  -13.8188   20.5663 C   0  0  0  0  0  0
  -24.1796  -13.0425   20.9213 C   0  0  0  0  0  0
  -24.6399  -11.6918   20.8758 C   0  0  0  0  0  0
  -23.9081  -10.4290   21.0412 C   0  0  0  0  0  0
  -24.3633   -9.4205   21.9187 C   0  0  0  0  0  0
  -23.6295   -8.2250   22.0765 C   0  0  0  0  0  0
  -22.4274   -8.0286   21.3560 C   0  0  0  0  0  0
  -21.9923   -9.0265   20.4664 C   0  0  0  0  0  0
  -22.7260  -10.2132   20.3058 C   0  0  0  0  0  0
  -21.6859   -6.0742   22.5281 C   0  0  0  0  0  0
  -21.4028   -6.5646   23.8219 C   0  0  0  0  0  0
  -21.3658   -5.6796   24.9179 C   0  0  0  0  0  0
  -21.6037   -4.3053   24.7226 C   0  0  0  0  0  0
  -21.8817   -3.8158   23.4353 C   0  0  0  0  0  0
  -21.9196   -4.6972   22.3409 C   0  0  0  0  0  0
  -22.7806  -13.5209   21.1847 C   0  0  0  0  0  0
  -22.1659   -4.2161   21.0980 F   0  0  0  0  0  0
  -21.5628   -3.4537   25.7737 F   0  0  0  0  0  0
  -29.9991  -13.4173   20.4133 N   0  0  0  0  0  0
  -26.2936  -12.9383   20.3296 N   0  0  0  0  0  0
  -25.9325  -11.6531   20.5758 N   0  0  0  0  0  0
  -22.0461  -12.8193   22.0414 N   0  0  0  0  0  0
  -25.4138  -15.1917   20.4034 N   0  0  0  0  0  0
  -31.8110  -14.7612   20.1801 O   0  0  0  0  0  0
  -21.6645   -6.8887   21.4244 O   0  0  0  0  0  0
  -22.3483  -14.5502   20.6678 O   0  0  0  0  0  0
  -24.6264  -31.8612   23.2044 C   0  0  0  0  0  0
  -25.9130  -32.4771   23.8371 C   0  0  1  0  0  0
  -27.2157  -27.3151   20.1461 C   0  0  0  0  0  0
  -25.5959  -33.8574   24.2303 N   0  0  0  0  0  0
  -23.4191  -30.4872   21.5437 C   0  0  2  0  0  0
  -24.8666  -28.9446   20.1103 C   0  0  0  0  0  0
  -22.7468  -29.4642   22.4909 C   0  0  0  0  0  0
  -18.0285  -28.1387   22.8491 C   0  0  0  0  0  0
  -24.1498  -36.7292   23.2635 C   0  0  0  0  0  0
  -25.9604  -30.7936   21.3764 C   0  0  0  0  0  0
  -26.0327  -29.4218   20.7194 C   0  0  0  0  0  0
  -27.2113  -28.6201   20.7248 C   0  0  0  0  0  0
  -26.0273  -26.8915   19.5068 C   0  0  0  0  0  0
  -24.8675  -27.6870   19.4896 C   0  0  0  0  0  0
  -23.6364  -29.8271   20.1564 C   0  0  0  0  0  0
  -25.4119  -36.3080   24.0329 C   0  0  1  0  0  0
  -20.5889  -28.3706   23.1273 C   0  0  2  0  0  0
  -20.6779  -26.9422   22.5407 C   0  0  0  0  0  0
  -19.5748  -26.6390   21.5212 C   0  0  0  0  0  0
  -18.1929  -26.7935   22.1622 C   0  0  0  0  0  0
  -19.1542  -28.8860   23.2888 C   0  0  0  0  0  0
  -18.9462  -30.1456   23.8918 C   0  0  0  0  0  0
  -17.6461  -30.6583   24.0571 C   0  0  0  0  0  0
  -25.9057  -34.9448   23.5108 C   0  0  0  0  0  0
  -16.5353  -29.9080   23.6329 C   0  0  0  0  0  0
  -16.7274  -28.6497   23.0363 C   0  0  0  0  0  0
  -26.4527  -31.6577   25.0737 C   0  0  0  0  0  0
  -25.3767  -31.3698   26.1460 C   0  0  0  0  0  0
  -27.0382  -30.3002   24.6204 C   0  0  0  0  0  0
  -27.6094  -32.4306   25.7513 C   0  0  0  0  0  0
  -27.5590  -37.1801   24.8450 C   0  0  0  0  0  0
  -21.4185  -29.3067   22.3666 N   0  0  0  0  0  0
  -26.4291  -37.3779   23.9408 N   0  0  0  0  0  0
  -24.6863  -31.0651   22.0976 N   0  0  0  0  0  0
  -23.4199  -28.8157   23.2971 O   0  0  0  0  0  0
  -28.3359  -26.4754   20.2332 O   0  0  0  0  0  0
  -26.5610  -34.8911   22.4664 O   0  0  0  0  0  0
  -23.5437  -32.1401   23.7392 O   0  0  0  0  0  0
  -29.2942  -18.1920   20.9654 C   0  0  0  0  0  0
  -31.3821  -17.3428   21.8558 C   0  0  0  0  0  0
  -29.5596  -19.5185   21.4621 C   0  0  0  0  0  0
  -31.6852  -18.6223   22.3739 C   0  0  0  0  0  0
  -30.7581  -19.6997   22.2219 C   0  0  0  0  0  0
  -30.1804  -17.0797   21.1709 C   0  0  0  0  0  0
  -29.3488  -22.7045   19.8723 C   0  0  0  0  0  0
  -29.6001  -21.9344   18.7989 C   0  0  0  0  0  0
  -29.5318  -24.2415   19.9353 C   0  0  0  0  0  0
  -27.3656  -24.2745   21.2126 C   0  0  0  0  0  0
  -28.0678  -23.1013   21.9967 C   0  0  0  0  0  0
  -28.1910  -25.0032   20.1029 C   0  0  1  0  0  0
  -31.0400  -21.0247   22.9286 C   0  0  0  0  0  0
  -28.4782  -20.6623   21.2979 C   0  0  0  0  0  0
  -33.0010  -18.7849   23.1460 C   0  0  0  0  0  0
  -29.8342  -15.7107   20.7961 N   0  0  0  0  0  0
  -28.9017  -22.1290   21.1972 N   0  3  1  0  0  0
  -33.8104  -17.7382   22.9803 F   0  0  0  0  0  0
  -33.6676  -19.8676   22.7419 F   0  0  0  0  0  0
  -32.7468  -18.8916   24.4498 F   0  0  0  0  0  0
  -31.4700  -12.5082   19.1477 H   0  0  0  0  0  0
  -30.3532  -11.3946   19.8882 H   0  0  0  0  0  0
  -29.7644  -11.7705   17.4641 H   0  0  0  0  0  0
  -29.6584  -13.4865   17.7428 H   0  0  0  0  0  0
  -27.8419  -11.3097   18.8290 H   0  0  0  0  0  0
  -27.3753  -12.6208   17.7783 H   0  0  0  0  0  0
  -27.6605  -14.2593   19.5237 H   0  0  0  0  0  0
  -28.6993  -12.0569   21.3687 H   0  0  0  0  0  0
  -28.4409  -13.7157   21.8346 H   0  0  0  0  0  0
  -25.2787   -9.5664   22.4749 H   0  0  0  0  0  0
  -24.0011   -7.4628   22.7478 H   0  0  0  0  0  0
  -21.0867   -8.8784   19.8954 H   0  0  0  0  0  0
  -22.3744  -10.9668   19.6144 H   0  0  0  0  0  0
  -21.2031   -7.6152   23.9734 H   0  0  0  0  0  0
  -21.1470   -6.0523   25.9081 H   0  0  0  0  0  0
  -22.0598   -2.7619   23.2858 H   0  0  0  0  0  0
  -22.4076  -11.9853   22.4780 H   0  0  0  0  0  0
  -21.1075  -13.1217   22.2618 H   0  0  0  0  0  0
  -24.6301  -15.8306   20.4898 H   0  0  0  0  0  0
  -26.2370  -15.6344   20.0167 H   0  0  0  0  0  0
  -26.7204  -32.5446   23.1127 H   0  0  0  0  0  0
  -25.0129  -33.9722   25.0466 H   0  0  0  0  0  0
  -22.7140  -31.3092   21.4016 H   0  0  0  0  0  0
  -23.3764  -35.9616   23.3263 H   0  0  0  0  0  0
  -24.3603  -36.8947   22.2056 H   0  0  0  0  0  0
  -23.7244  -37.6481   23.6677 H   0  0  0  0  0  0
  -26.1012  -31.5609   20.6138 H   0  0  0  0  0  0
  -26.8369  -30.8370   22.0102 H   0  0  0  0  0  0
  -28.1029  -28.9813   21.2179 H   0  0  0  0  0  0
  -25.9542  -25.9312   19.0236 H   0  0  0  0  0  0
  -23.9752  -27.3171   19.0047 H   0  0  0  0  0  0
  -23.7668  -30.6076   19.4057 H   0  0  0  0  0  0
  -22.7551  -29.2638   19.8427 H   0  0  0  0  0  0
  -25.1300  -36.1928   25.0821 H   0  0  0  0  0  0
  -21.0003  -28.3285   24.1382 H   0  0  0  0  0  0
  -20.5682  -26.2309   23.3611 H   0  0  0  0  0  0
  -21.6643  -26.7446   22.1191 H   0  0  0  0  0  0
  -19.6902  -25.6298   21.1249 H   0  0  0  0  0  0
  -19.6678  -27.3197   20.6741 H   0  0  0  0  0  0
  -17.4195  -26.6705   21.4024 H   0  0  0  0  0  0
  -18.0312  -26.0071   22.9007 H   0  0  0  0  0  0
  -19.7930  -30.7279   24.2301 H   0  0  0  0  0  0
  -17.5002  -31.6261   24.5172 H   0  0  0  0  0  0
  -15.5357  -30.2991   23.7639 H   0  0  0  0  0  0
  -15.8670  -28.0813   22.7092 H   0  0  0  0  0  0
  -24.5910  -30.7102   25.7758 H   0  0  0  0  0  0
  -24.9006  -32.2858   26.4961 H   0  0  0  0  0  0
  -25.8087  -30.8787   27.0188 H   0  0  0  0  0  0
  -26.2950  -29.6716   24.1276 H   0  0  0  0  0  0
  -27.4127  -29.7300   25.4719 H   0  0  0  0  0  0
  -27.8806  -30.4281   23.9401 H   0  0  0  0  0  0
  -27.2709  -33.3586   26.2130 H   0  0  0  0  0  0
  -28.3890  -32.6893   25.0335 H   0  0  0  0  0  0
  -28.0781  -31.8404   26.5398 H   0  0  0  0  0  0
  -28.2561  -38.0145   24.7552 H   0  0  0  0  0  0
  -28.1143  -36.2681   24.6204 H   0  0  0  0  0  0
  -27.2315  -37.1347   25.8852 H   0  0  0  0  0  0
  -20.9347  -29.8830   21.6919 H   0  0  0  0  0  0
  -26.0168  -38.2847   24.1433 H   0  0  0  0  0  0
  -28.3626  -18.0159   20.4459 H   0  0  0  0  0  0
  -32.0687  -16.5314   22.0426 H   0  0  0  0  0  0
  -29.9312  -22.3782   17.8728 H   0  0  0  0  0  0
  -29.4871  -20.8600   18.8124 H   0  0  0  0  0  0
  -30.0313  -24.5823   19.0289 H   0  0  0  0  0  0
  -30.2086  -24.4826   20.7550 H   0  0  0  0  0  0
  -27.0162  -25.0051   21.9421 H   0  0  0  0  0  0
  -26.4571  -23.8773   20.7574 H   0  0  0  0  0  0
  -27.3244  -22.5879   22.6081 H   0  0  0  0  0  0
  -28.7457  -23.5553   22.7199 H   0  0  0  0  0  0
  -27.6932  -24.8126   19.1532 H   0  0  0  0  0  0
  -31.5048  -21.7376   22.2455 H   0  0  0  0  0  0
  -31.7030  -20.9162   23.7843 H   0  0  0  0  0  0
  -30.1347  -21.4530   23.3535 H   0  0  0  0  0  0
  -27.8574  -20.5469   22.1868 H   0  0  0  0  0  0
  -27.8047  -20.4284   20.4721 H   0  0  0  0  0  0
  -28.8474  -15.5077   20.7812 H   0  0  0  0  0  0
  -29.7380  -22.0847   21.7616 H   0  0  0  0  0  0
  1 25  1  0  0  0
  1 30  2  0  0  0
  1 86  1  0  0  0
  2  3  1  0  0  0
  2 25  1  0  0  0
  2 91  1  0  0  0
  2 92  1  0  0  0
  3  4  1  0  0  0
  3 93  1  0  0  0
  3 94  1  0  0  0
  4  5  1  0  0  0
  4 95  1  0  0  0
  4 96  1  0  0  0
  5  6  1  0  0  0
  5 26  1  0  0  0
  5 97  1  0  0  0
  6 25  1  0  0  0
  6 98  1  0  0  0
  6 99  1  0  0  0
  7  8  2  0  0  0
  7 26  1  0  0  0
  7 29  1  0  0  0
  8  9  1  0  0  0
  8 22  1  0  0  0
  9 10  1  0  0  0
  9 27  2  0  0  0
 10 11  2  0  0  0
 10 15  1  0  0  0
 11 12  1  0  0  0
 11100  1  0  0  0
 12 13  2  0  0  0
 12101  1  0  0  0
 13 14  1  0  0  0
 13 31  1  0  0  0
 14 15  2  0  0  0
 14102  1  0  0  0
 15103  1  0  0  0
 16 17  2  0  0  0
 16 21  1  0  0  0
 16 31  1  0  0  0
 17 18  1  0  0  0
 17104  1  0  0  0
 18 19  2  0  0  0
 18105  1  0  0  0
 19 20  1  0  0  0
 19 24  1  0  0  0
 20 21  2  0  0  0
 20106  1  0  0  0
 21 23  1  0  0  0
 22 28  1  0  0  0
 22 32  2  0  0  0
 26 27  1  0  0  0
 28107  1  0  0  0
 28108  1  0  0  0
 29109  1  0  0  0
 29110  1  0  0  0
 33 34  1  0  0  0
 33 66  1  0  0  0
 33 70  2  0  0  0
 34 36  1  0  0  0
 34 59  1  0  0  0
 34111  1  0  0  0
 35 44  2  0  0  0
 35 45  1  0  0  0
 35 68  1  0  0  0
 36 56  1  0  0  0
 36112  1  0  0  0
 37 39  1  0  0  0
 37 47  1  0  0  0
 37 66  1  0  0  0
 37113  1  0  0  0
 38 43  2  0  0  0
 38 46  1  0  0  0
 38 47  1  0  0  0
 39 64  1  0  0  0
 39 67  2  0  0  0
 40 52  1  0  0  0
 40 53  2  0  0  0
 40 58  1  0  0  0
 41114  1  0  0  0
 41115  1  0  0  0
 41116  1  0  0  0
 41 48  1  0  0  0
 42 43  1  0  0  0
 42 66  1  0  0  0
 42117  1  0  0  0
 42118  1  0  0  0
 43 44  1  0  0  0
 44119  1  0  0  0
 45 46  2  0  0  0
 45120  1  0  0  0
 46121  1  0  0  0
 47122  1  0  0  0
 47123  1  0  0  0
 48 56  1  0  0  0
 48 65  1  0  0  0
 48124  1  0  0  0
 49 50  1  0  0  0
 49 53  1  0  0  0
 49 64  1  0  0  0
 49125  1  0  0  0
 50 51  1  0  0  0
 50126  1  0  0  0
 50127  1  0  0  0
 51 52  1  0  0  0
 51128  1  0  0  0
 51129  1  0  0  0
 52130  1  0  0  0
 52131  1  0  0  0
 53 54  1  0  0  0
 54 55  2  0  0  0
 54132  1  0  0  0
 55 57  1  0  0  0
 55133  1  0  0  0
 56 69  2  0  0  0
 57 58  2  0  0  0
 57134  1  0  0  0
 58135  1  0  0  0
 59 60  1  0  0  0
 59 61  1  0  0  0
 59 62  1  0  0  0
 60136  1  0  0  0
 60137  1  0  0  0
 60138  1  0  0  0
 61139  1  0  0  0
 61140  1  0  0  0
 61141  1  0  0  0
 62142  1  0  0  0
 62143  1  0  0  0
 62144  1  0  0  0
 63 65  1  0  0  0
 63145  1  0  0  0
 63146  1  0  0  0
 63147  1  0  0  0
 64148  1  0  0  0
 65149  1  0  0  0
 68 82  1  0  0  0
 71 73  2  0  0  0
 71 76  1  0  0  0
 71150  1  0  0  0
 72 74  1  0  0  0
 72 76  2  0  0  0
 72151  1  0  0  0
 73 75  1  0  0  0
 73 84  1  0  0  0
 74 75  2  0  0  0
 74 85  1  0  0  0
 75 83  1  0  0  0
 76 86  1  0  0  0
 77 78  2  0  0  0
 77 79  1  0  0  0
 77 87  1  0  0  0
 78152  1  0  0  0
 78153  1  0  0  0
 79 82  1  0  0  0
 79154  1  0  0  0
 79155  1  0  0  0
 80 81  1  0  0  0
 80 82  1  0  0  0
 80156  1  0  0  0
 80157  1  0  0  0
 81 87  1  0  0  0
 81158  1  0  0  0
 81159  1  0  0  0
 82160  1  0  0  0
 83161  1  0  0  0
 83162  1  0  0  0
 83163  1  0  0  0
 84164  1  0  0  0
 84165  1  0  0  0
 84 87  1  0  0  0
 85 88  1  0  0  0
 85 89  1  0  0  0
 85 90  1  0  0  0
 86166  1  0  0  0
 87167  1  0  0  0
M  CHG  1  87   1
M  ISO  4   1 100  68 101  82 101  86 100
M  END
> <chiral flag>
0

> <version>
0

> <s_m_source_file>
/data/baiqing/PycharmProjects/Reinvent-master-3.2/result/LINK_invent/BTK/process_docking_weight1_custom_product_contain_oxygen_bond_distance_aromatic_linkinvent_7_9_3/rearranged_h_0048.sdf

> <i_m_source_file_index>
79

> <r_mmod_Potential_Energy-OPLS-2005>
50.8874778747559

> <r_mmod_Stretch_Energy-OPLS-2005>
86.0280914306641

> <r_mmod_Bend_Energy-OPLS-2005>
156.237762451172

> <r_mmod_Torsional_Energy-OPLS-2005>
259.084503173828

> <r_mmod_Improper_Torsional_Energy-OPLS-2005>
6.87136697769165

> <r_mmod_Van_der_Waal_Energy-OPLS-2005>
166.620208740234

> <r_mmod_Electrostatic_Energy-OPLS-2005>
-213.826629638672

> <r_mmod_Solvation_Energy-OPLS-2005>
-459.618743896484

> <b_mmod_Minimization_Converged-OPLS-2005>
0

> <r_mmod_RMS_Derivative-OPLS-2005>
2.91677021980286

$$$$
79
                    3D
 Structure written by MMmdl.
173182  0  0  1  0            999 V2000
  -28.5736  -19.2030   20.2940 C   0  0  0  0  0  0
  -29.6436  -15.7433   19.5765 C   0  0  0  0  0  0
  -29.4176  -14.2744   18.6648 C   0  0  0  0  0  0
  -28.4697  -13.1923   19.1988 C   0  0  0  0  0  0
  -27.4955  -14.0990   19.9407 C   0  0  2  0  0  0
  -28.0528  -15.5535   20.7819 C   0  0  0  0  0  0
  -25.1185  -13.9859   20.6333 C   0  0  0  0  0  0
  -24.1505  -13.0907   20.9461 C   0  0  0  0  0  0
  -24.7301  -11.7877   20.8570 C   0  0  0  0  0  0
  -24.0095  -10.4764   21.0009 C   0  0  0  0  0  0
  -24.4241   -9.4658   21.9021 C   0  0  0  0  0  0
  -23.6701   -8.2757   22.0745 C   0  0  0  0  0  0
  -22.4684   -8.0680   21.3555 C   0  0  0  0  0  0
  -22.0501   -9.0695   20.4609 C   0  0  0  0  0  0
  -22.8062  -10.2488   20.2857 C   0  0  0  0  0  0
  -21.7102   -6.0979   22.5267 C   0  0  0  0  0  0
  -21.4157   -6.5778   23.8213 C   0  0  0  0  0  0
  -21.3672   -5.6863   24.9125 C   0  0  0  0  0  0
  -21.6049   -4.3131   24.7165 C   0  0  0  0  0  0
  -21.8796   -3.8279   23.4269 C   0  0  0  0  0  0
  -21.9262   -4.7152   22.3355 C   0  0  0  0  0  0
  -22.7280  -13.4891   21.1866 C   0  0  0  0  0  0
  -22.1726   -4.2311   21.0941 F   0  0  0  0  0  0
  -21.5590   -3.4585   25.7660 F   0  0  0  0  0  0
  -28.5679  -17.1473   20.1403 N   0  0  0  0  0  0
  -26.2902  -13.3209   20.4395 N   0  0  0  0  0  0
  -26.0560  -11.9368   20.5589 N   0  0  0  0  0  0
  -22.0143  -12.7695   22.0392 N   0  0  0  0  0  0
  -25.0766  -15.3567   20.4377 N   0  0  0  0  0  0
  -29.8332  -18.6451   20.2488 O   0  0  0  0  0  0
  -21.6973   -6.9263   21.4287 O   0  0  0  0  0  0
  -22.2679  -14.5111   20.6750 O   0  0  0  0  0  0
  -24.8985  -31.2134   23.0154 C   0  0  0  0  0  0
  -25.9937  -32.2017   23.6907 C   0  0  1  0  0  0
  -28.6324  -25.5424   19.4489 C   0  0  0  0  0  0
  -25.5163  -33.6241   23.9868 N   0  0  0  0  0  0
  -23.6125  -29.2393   21.6207 C   0  0  2  0  0  0
  -25.0666  -26.4252   19.8649 C   0  0  0  0  0  0
  -22.7000  -29.0524   22.7329 C   0  0  0  0  0  0
  -17.9502  -28.1245   22.8603 C   0  0  0  0  0  0
  -24.1376  -36.6274   23.2747 C   0  0  0  0  0  0
  -26.7576  -29.1468   21.9488 C   0  0  0  0  0  0
  -27.0832  -27.3302   20.9117 C   0  0  0  0  0  0
  -28.4568  -26.8544   20.4544 C   0  0  0  0  0  0
  -27.2434  -24.6614   18.3147 C   0  0  0  0  0  0
  -25.4086  -25.1523   18.7138 C   0  0  0  0  0  0
  -23.4196  -27.5940   20.3832 C   0  0  0  0  0  0
  -25.4082  -36.1659   24.0137 C   0  0  1  0  0  0
  -20.4765  -28.3076   23.2237 C   0  0  2  0  0  0
  -20.5537  -26.8562   22.6907 C   0  0  0  0  0  0
  -19.5190  -26.5961   21.5878 C   0  0  0  0  0  0
  -18.1183  -26.7634   22.2030 C   0  0  0  0  0  0
  -19.0685  -28.8773   23.2886 C   0  0  0  0  0  0
  -18.8888  -30.1470   23.8624 C   0  0  0  0  0  0
  -17.5944  -30.6647   24.0215 C   0  0  0  0  0  0
  -25.9149  -34.7985   23.4356 C   0  0  0  0  0  0
  -16.4798  -29.8968   23.6425 C   0  0  0  0  0  0
  -16.6566  -28.6304   23.0643 C   0  0  0  0  0  0
  -26.5068  -31.6667   25.0905 C   0  0  0  0  0  0
  -25.3711  -31.4394   26.1231 C   0  0  0  0  0  0
  -27.2208  -30.3410   24.9137 C   0  0  0  0  0  0
  -27.5683  -32.6010   25.7246 C   0  0  0  0  0  0
  -27.5344  -37.1197   24.8489 C   0  0  0  0  0  0
  -21.3927  -29.1710   22.5049 N   0  0  0  0  0  0
  -26.4004  -37.2732   23.9441 N   0  0  0  0  0  0
  -25.1257  -29.9512   22.2586 N   0  0  0  0  0  0
  -23.2144  -28.6444   23.7580 O   0  0  0  0  0  0
  -29.4191  -25.0505   20.4665 O   0  0  0  0  0  0
  -26.6666  -34.8208   22.4625 O   0  0  0  0  0  0
  -23.7615  -31.6829   23.2839 O   0  0  0  0  0  0
  -25.8777  -25.3692   21.7451 C   0  0  0  0  0  0
  -26.9290  -26.7900   18.7381 C   0  0  0  0  0  0
  -25.1868  -27.1339   21.9756 C   0  0  0  0  0  0
  -26.3300  -28.2455   18.8394 C   0  0  0  0  0  0
  -25.4379  -28.6341   20.1386 C   0  0  0  0  0  0
  -26.8355  -24.5070   20.4918 C   0  0  0  0  0  0
  -27.2855  -24.3867   24.1259 C   0  0  0  0  0  0
  -26.2909  -23.4607   24.3426 C   0  0  0  0  0  0
  -28.7603  -23.8976   24.1472 C   0  0  0  0  0  0
  -29.3473  -23.8029   22.7307 C   0  0  0  0  0  0
  -28.5727  -26.2883   23.0673 C   0  0  0  0  0  0
  -29.3151  -25.1739   22.0480 C   0  0  2  0  0  0
  -24.8293  -29.9657   19.4871 C   0  0  0  0  0  0
  -24.7846  -23.6556   24.4695 C   0  0  0  0  0  0
  -26.5985  -21.9566   24.3470 C   0  0  0  0  0  0
  -25.9441  -26.8854   23.4549 C   0  0  0  0  0  0
  -27.0263  -29.2381   17.8725 C   0  0  0  0  0  0
  -27.7016  -21.5827   20.3887 N   0  0  0  0  0  0
  -27.2499  -25.9516   23.7731 N   0  3  1  0  0  0
  -28.2690  -28.8452   17.5877 F   0  0  0  0  0  0
  -26.3712  -29.3172   16.7166 F   0  0  0  0  0  0
  -27.1964  -30.4609   18.3821 F   0  0  0  0  0  0
  -30.2952  -16.2971   18.8994 H   0  0  0  0  0  0
  -30.3860  -15.5389   20.3573 H   0  0  0  0  0  0
  -30.3906  -13.8219   18.4707 H   0  0  0  0  0  0
  -29.0457  -14.5860   17.6825 H   0  0  0  0  0  0
  -28.9832  -12.5316   19.8961 H   0  0  0  0  0  0
  -28.0123  -12.5937   18.4109 H   0  0  0  0  0  0
  -27.0511  -14.5838   19.0631 H   0  0  0  0  0  0
  -28.6856  -15.2229   21.6088 H   0  0  0  0  0  0
  -27.2255  -15.9078   21.3916 H   0  0  0  0  0  0
  -25.3300   -9.6190   22.4731 H   0  0  0  0  0  0
  -24.0360   -7.5265   22.7600 H   0  0  0  0  0  0
  -21.1412   -8.9322   19.8913 H   0  0  0  0  0  0
  -22.4485  -10.9983   19.5945 H   0  0  0  0  0  0
  -21.2210   -7.6288   23.9765 H   0  0  0  0  0  0
  -21.1456   -6.0578   25.9033 H   0  0  0  0  0  0
  -22.0518   -2.7735   23.2725 H   0  0  0  0  0  0
  -22.4102  -11.9622   22.4932 H   0  0  0  0  0  0
  -21.0644  -13.0414   22.2526 H   0  0  0  0  0  0
  -24.2166  -15.8943   20.4900 H   0  0  0  0  0  0
  -25.8872  -15.9080   20.1937 H   0  0  0  0  0  0
  -26.8496  -32.2497   23.0103 H   0  0  0  0  0  0
  -24.8222  -33.6838   24.7178 H   0  0  0  0  0  0
  -23.0920  -30.0926   21.1876 H   0  0  0  0  0  0
  -23.3651  -35.8545   23.3032 H   0  0  0  0  0  0
  -24.3366  -36.8452   22.2233 H   0  0  0  0  0  0
  -23.7097  -37.5240   23.7245 H   0  0  0  0  0  0
  -27.3071  -29.9047   21.3956 H   0  0  0  0  0  0
  -27.3702  -29.0545   22.8194 H   0  0  0  0  0  0
  -29.3474  -27.3730   20.7947 H   0  0  0  0  0  0
  -27.4695  -23.8050   17.7002 H   0  0  0  0  0  0
  -24.6032  -24.7063   18.1497 H   0  0  0  0  0  0
  -22.8984  -27.8800   19.4731 H   0  0  0  0  0  0
  -22.6998  -26.9253   20.8232 H   0  0  0  0  0  0
  -25.1347  -36.0052   25.0579 H   0  0  0  0  0  0
  -20.7730  -28.2747   24.2715 H   0  0  0  0  0  0
  -20.2703  -26.1985   23.5170 H   0  0  0  0  0  0
  -21.5681  -26.5007   22.4834 H   0  0  0  0  0  0
  -19.6519  -25.5917   21.1852 H   0  0  0  0  0  0
  -19.6293  -27.2976   20.7551 H   0  0  0  0  0  0
  -17.3224  -26.5972   21.4737 H   0  0  0  0  0  0
  -17.9707  -26.0100   22.9809 H   0  0  0  0  0  0
  -19.7477  -30.7109   24.1957 H   0  0  0  0  0  0
  -17.4505  -31.6467   24.4413 H   0  0  0  0  0  0
  -15.4833  -30.2702   23.8000 H   0  0  0  0  0  0
  -15.7881  -28.0419   22.7946 H   0  0  0  0  0  0
  -24.6236  -30.7254   25.7745 H   0  0  0  0  0  0
  -24.8500  -32.3686   26.3538 H   0  0  0  0  0  0
  -25.7641  -31.0571   27.0673 H   0  0  0  0  0  0
  -26.5065  -29.6199   24.5738 H   0  0  0  0  0  0
  -27.5923  -29.9287   25.8578 H   0  0  0  0  0  0
  -28.0782  -30.4498   24.2489 H   0  0  0  0  0  0
  -27.1427  -33.5644   26.0078 H   0  0  0  0  0  0
  -28.3877  -32.8130   25.0363 H   0  0  0  0  0  0
  -28.0070  -32.1812   26.6300 H   0  0  0  0  0  0
  -28.2193  -37.9632   24.7459 H   0  0  0  0  0  0
  -28.1035  -36.2117   24.6380 H   0  0  0  0  0  0
  -27.2121  -37.0908   25.8927 H   0  0  0  0  0  0
  -21.0810  -29.6213   21.6549 H   0  0  0  0  0  0
  -25.9592  -38.1644   24.1487 H   0  0  0  0  0  0
  -25.4674  -24.6759   22.4339 H   0  0  0  0  0  0
  -27.4591  -26.8101   17.7860 H   0  0  0  0  0  0
  -28.8961  -22.9414   24.6497 H   0  0  0  0  0  0
  -29.3734  -24.5541   24.7633 H   0  0  0  0  0  0
  -28.7732  -23.0772   22.1681 H   0  0  0  0  0  0
  -30.3739  -23.4205   22.7574 H   0  0  0  0  0  0
  -28.5888  -27.3389   22.8059 H   0  0  0  0  0  0
  -29.2744  -26.4205   23.8858 H   0  0  0  0  0  0
  -30.3502  -25.4978   22.1907 H   0  0  0  0  0  0
  -23.7575  -30.0119   19.3619 H   0  0  0  0  0  0
  -24.9497  -30.0716   18.4152 H   0  0  0  0  0  0
  -25.2403  -30.8832   19.9043 H   0  0  0  0  0  0
  -24.4635  -24.6729   24.6467 H   0  0  0  0  0  0
  -24.4095  -23.0713   25.3145 H   0  0  0  0  0  0
  -24.3031  -23.2873   23.5550 H   0  0  0  0  0  0
  -26.8442  -21.5889   25.3461 H   0  0  0  0  0  0
  -27.4303  -21.6959   23.6863 H   0  0  0  0  0  0
  -25.7625  -21.3683   23.9457 H   0  0  0  0  0  0
  -25.1329  -26.4934   24.0443 H   0  0  0  0  0  0
  -26.1035  -27.7898   24.0082 H   0  0  0  0  0  0
  -28.6806  -21.8238   20.2780 H   0  0  0  0  0  0
  -27.4252  -26.3514   24.6838 H   0  0  0  0  0  0
  1 25  1  0  0  0
  1 30  2  0  0  0
  1 88  1  0  0  0
  2  3  1  0  0  0
  2 25  1  0  0  0
  2 93  1  0  0  0
  2 94  1  0  0  0
  3  4  1  0  0  0
  3 95  1  0  0  0
  3 96  1  0  0  0
  4  5  1  0  0  0
  4 97  1  0  0  0
  4 98  1  0  0  0
  5  6  1  0  0  0
  5 26  1  0  0  0
  5 99  1  0  0  0
  6 25  1  0  0  0
  6100  1  0  0  0
  6101  1  0  0  0
  7  8  2  0  0  0
  7 26  1  0  0  0
  7 29  1  0  0  0
  8  9  1  0  0  0
  8 22  1  0  0  0
  9 10  1  0  0  0
  9 27  2  0  0  0
 10 11  2  0  0  0
 10 15  1  0  0  0
 11 12  1  0  0  0
 11102  1  0  0  0
 12 13  2  0  0  0
 12103  1  0  0  0
 13 14  1  0  0  0
 13 31  1  0  0  0
 14 15  2  0  0  0
 14104  1  0  0  0
 15105  1  0  0  0
 16 17  2  0  0  0
 16 21  1  0  0  0
 16 31  1  0  0  0
 17 18  1  0  0  0
 17106  1  0  0  0
 18 19  2  0  0  0
 18107  1  0  0  0
 19 20  1  0  0  0
 19 24  1  0  0  0
 20 21  2  0  0  0
 20108  1  0  0  0
 21 23  1  0  0  0
 22 28  1  0  0  0
 22 32  2  0  0  0
 26 27  1  0  0  0
 28109  1  0  0  0
 28110  1  0  0  0
 29111  1  0  0  0
 29112  1  0  0  0
 33 34  1  0  0  0
 33 66  1  0  0  0
 33 70  2  0  0  0
 34 36  1  0  0  0
 34 59  1  0  0  0
 34113  1  0  0  0
 35 44  2  0  0  0
 35 45  1  0  0  0
 35 68  1  0  0  0
 36 56  1  0  0  0
 36114  1  0  0  0
 37 39  1  0  0  0
 37 47  1  0  0  0
 37 66  1  0  0  0
 37115  1  0  0  0
 38 43  2  0  0  0
 38 46  1  0  0  0
 38 47  1  0  0  0
 39 64  1  0  0  0
 39 67  2  0  0  0
 40 52  1  0  0  0
 40 53  2  0  0  0
 40 58  1  0  0  0
 41116  1  0  0  0
 41117  1  0  0  0
 41118  1  0  0  0
 41 48  1  0  0  0
 42 43  1  0  0  0
 42 66  1  0  0  0
 42119  1  0  0  0
 42120  1  0  0  0
 43 44  1  0  0  0
 44121  1  0  0  0
 45 46  2  0  0  0
 45122  1  0  0  0
 46123  1  0  0  0
 47124  1  0  0  0
 47125  1  0  0  0
 48 56  1  0  0  0
 48 65  1  0  0  0
 48126  1  0  0  0
 49 50  1  0  0  0
 49 53  1  0  0  0
 49 64  1  0  0  0
 49127  1  0  0  0
 50 51  1  0  0  0
 50128  1  0  0  0
 50129  1  0  0  0
 51 52  1  0  0  0
 51130  1  0  0  0
 51131  1  0  0  0
 52132  1  0  0  0
 52133  1  0  0  0
 53 54  1  0  0  0
 54 55  2  0  0  0
 54134  1  0  0  0
 55 57  1  0  0  0
 55135  1  0  0  0
 56 69  2  0  0  0
 57 58  2  0  0  0
 57136  1  0  0  0
 58137  1  0  0  0
 59 60  1  0  0  0
 59 61  1  0  0  0
 59 62  1  0  0  0
 60138  1  0  0  0
 60139  1  0  0  0
 60140  1  0  0  0
 61141  1  0  0  0
 61142  1  0  0  0
 61143  1  0  0  0
 62144  1  0  0  0
 62145  1  0  0  0
 62146  1  0  0  0
 63 65  1  0  0  0
 63147  1  0  0  0
 63148  1  0  0  0
 63149  1  0  0  0
 64150  1  0  0  0
 65151  1  0  0  0
 68 82  1  0  0  0
 71 73  2  0  0  0
 71 76  1  0  0  0
 71152  1  0  0  0
 72 74  1  0  0  0
 72 76  2  0  0  0
 72153  1  0  0  0
 73 75  1  0  0  0
 73 86  1  0  0  0
 74 75  2  0  0  0
 74 87  1  0  0  0
 75 83  1  0  0  0
 76 88  1  0  0  0
 77 78  2  0  0  0
 77 79  1  0  0  0
 77 89  1  0  0  0
 78 84  1  0  0  0
 78 85  1  0  0  0
 79 80  1  0  0  0
 79154  1  0  0  0
 79155  1  0  0  0
 80 82  1  0  0  0
 80156  1  0  0  0
 80157  1  0  0  0
 81 82  1  0  0  0
 81 89  1  0  0  0
 81158  1  0  0  0
 81159  1  0  0  0
 82160  1  0  0  0
 83161  1  0  0  0
 83162  1  0  0  0
 83163  1  0  0  0
 84164  1  0  0  0
 84165  1  0  0  0
 84166  1  0  0  0
 85167  1  0  0  0
 85168  1  0  0  0
 85169  1  0  0  0
 86170  1  0  0  0
 86171  1  0  0  0
 86 89  1  0  0  0
 87 90  1  0  0  0
 87 91  1  0  0  0
 87 92  1  0  0  0
 88172  1  0  0  0
 89173  1  0  0  0
M  CHG  1  89   1
M  ISO  4   1 100  68 101  82 101  88 100
M  END
> <chiral flag>
0

> <version>
0

> <s_m_source_file>
/data/baiqing/PycharmProjects/Reinvent-master-3.2/result/LINK_invent/BTK/process_docking_weight1_custom_product_contain_oxygen_bond_distance_aromatic_linkinvent_7_9_3/rearranged_h_0048.sdf

> <i_m_source_file_index>
80

> <r_mmod_Potential_Energy-OPLS-2005>
44360.35546875

> <r_mmod_Stretch_Energy-OPLS-2005>
21669.212890625

> <r_mmod_Bend_Energy-OPLS-2005>
2469.38012695312

> <r_mmod_Torsional_Energy-OPLS-2005>
587.592712402344

> <r_mmod_Improper_Torsional_Energy-OPLS-2005>
64.2174987792969

> <r_mmod_Van_der_Waal_Energy-OPLS-2005>
5279.91845703125

> <r_mmod_Electrostatic_Energy-OPLS-2005>
-252.311279296875

> <r_mmod_Solvation_Energy-OPLS-2005>
-437.981353759766

> <b_mmod_Minimization_Converged-OPLS-2005>
0

> <r_mmod_RMS_Derivative-OPLS-2005>
23.24436378479

$$$$
80
                    3D
 Structure written by MMmdl.
154162  0  0  1  0            999 V2000
  -30.6159  -14.6550   20.4908 C   0  0  0  0  0  0
  -30.4397  -12.3972   19.4606 C   0  0  0  0  0  0
  -29.5118  -12.5034   18.2303 C   0  0  0  0  0  0
  -28.0350  -12.3393   18.6409 C   0  0  0  0  0  0
  -27.6535  -13.2150   19.8642 C   0  0  2  0  0  0
  -28.6959  -13.0814   20.9968 C   0  0  0  0  0  0
  -25.2559  -13.8169   20.5663 C   0  0  0  0  0  0
  -24.1824  -13.0447   20.9181 C   0  0  0  0  0  0
  -24.6393  -11.6916   20.8736 C   0  0  0  0  0  0
  -23.9060  -10.4301   21.0408 C   0  0  0  0  0  0
  -24.3616   -9.4219   21.9192 C   0  0  0  0  0  0
  -23.6297   -8.2249   22.0757 C   0  0  0  0  0  0
  -22.4280   -8.0282   21.3542 C   0  0  0  0  0  0
  -21.9912   -9.0254   20.4646 C   0  0  0  0  0  0
  -22.7231  -10.2140   20.3061 C   0  0  0  0  0  0
  -21.6855   -6.0741   22.5281 C   0  0  0  0  0  0
  -21.4011   -6.5646   23.8213 C   0  0  0  0  0  0
  -21.3662   -5.6797   24.9175 C   0  0  0  0  0  0
  -21.6045   -4.3059   24.7224 C   0  0  0  0  0  0
  -21.8820   -3.8154   23.4343 C   0  0  0  0  0  0
  -21.9193   -4.6971   22.3399 C   0  0  0  0  0  0
  -22.7851  -13.5243   21.1853 C   0  0  0  0  0  0
  -22.1663   -4.2160   21.0975 F   0  0  0  0  0  0
  -21.5635   -3.4538   25.7734 F   0  0  0  0  0  0
  -30.0115  -13.4237   20.4333 N   0  0  0  0  0  0
  -26.2983  -12.9344   20.3305 N   0  0  0  0  0  0
  -25.9319  -11.6505   20.5762 N   0  0  0  0  0  0
  -22.0493  -12.8227   22.0408 N   0  0  0  0  0  0
  -25.4292  -15.1883   20.4056 N   0  0  0  0  0  0
  -31.7764  -14.8105   20.0988 O   0  0  0  0  0  0
  -21.6641   -6.8879   21.4243 O   0  0  0  0  0  0
  -22.3541  -14.5557   20.6715 O   0  0  0  0  0  0
  -24.6276  -31.8598   23.2016 C   0  0  0  0  0  0
  -25.9113  -32.4779   23.8353 C   0  0  1  0  0  0
  -27.2304  -27.3233   20.1070 C   0  0  0  0  0  0
  -25.5920  -33.8580   24.2271 N   0  0  0  0  0  0
  -23.4217  -30.4865   21.5424 C   0  0  2  0  0  0
  -24.8679  -28.9413   20.1086 C   0  0  0  0  0  0
  -22.7492  -29.4633   22.4910 C   0  0  0  0  0  0
  -18.0295  -28.1392   22.8503 C   0  0  0  0  0  0
  -24.1487  -36.7291   23.2639 C   0  0  0  0  0  0
  -25.9628  -30.7932   21.3707 C   0  0  0  0  0  0
  -26.0378  -29.4222   20.7095 C   0  0  0  0  0  0
  -27.2230  -28.6249   20.6964 C   0  0  0  0  0  0
  -26.0317  -26.8957   19.4866 C   0  0  0  0  0  0
  -24.8661  -27.6825   19.4903 C   0  0  0  0  0  0
  -23.6361  -29.8224   20.1571 C   0  0  0  0  0  0
  -25.4110  -36.3080   24.0328 C   0  0  1  0  0  0
  -20.5908  -28.3695   23.1273 C   0  0  2  0  0  0
  -20.6778  -26.9412   22.5407 C   0  0  0  0  0  0
  -19.5741  -26.6378   21.5219 C   0  0  0  0  0  0
  -18.1922  -26.7943   22.1629 C   0  0  0  0  0  0
  -19.1549  -28.8850   23.2894 C   0  0  0  0  0  0
  -18.9477  -30.1461   23.8899 C   0  0  0  0  0  0
  -17.6475  -30.6593   24.0574 C   0  0  0  0  0  0
  -25.9041  -34.9445   23.5092 C   0  0  0  0  0  0
  -16.5368  -29.9106   23.6330 C   0  0  0  0  0  0
  -16.7279  -28.6525   23.0346 C   0  0  0  0  0  0
  -26.4486  -31.6604   25.0732 C   0  0  0  0  0  0
  -25.3715  -31.3789   26.1463 C   0  0  0  0  0  0
  -27.0304  -30.3016   24.6192 C   0  0  0  0  0  0
  -27.6026  -32.4346   25.7509 C   0  0  0  0  0  0
  -27.5582  -37.1800   24.8465 C   0  0  0  0  0  0
  -21.4193  -29.3069   22.3672 N   0  0  0  0  0  0
  -26.4286  -37.3777   23.9413 N   0  0  0  0  0  0
  -24.6895  -31.0627   22.0956 N   0  0  0  0  0  0
  -23.4224  -28.8162   23.2976 O   0  0  0  0  0  0
  -28.3521  -26.4743   20.1547 O   0  0  0  0  0  0
  -26.5606  -34.8920   22.4660 O   0  0  0  0  0  0
  -23.5438  -32.1360   23.7349 O   0  0  0  0  0  0
  -30.9259  -19.2625   19.8325 C   0  0  0  0  0  0
  -30.8974  -17.8388   19.9279 C   0  0  0  0  0  0
  -28.9536  -18.0078   21.3269 C   0  0  0  0  0  0
  -29.9913  -20.1100   20.4957 C   0  0  0  0  0  0
  -28.9794  -19.4387   21.2428 C   0  0  0  0  0  0
  -29.9161  -17.1640   20.7004 C   0  0  0  0  0  0
  -29.3271  -24.0568   20.3071 C   0  0  0  0  0  0
  -30.2404  -21.6716   20.5076 C   0  0  0  0  0  0
  -27.9315  -20.2342   22.0067 C   0  0  0  0  0  0
  -28.1228  -25.0179   19.9708 C   0  0  0  0  0  0
  -29.8120  -15.7064   20.8588 N   0  0  0  0  0  0
  -29.1639  -22.6914   20.2769 N   0  0  0  0  0  0
  -30.4250  -24.5509   20.5808 O   0  0  0  0  0  0
  -27.1581  -20.9308   21.1707 F   0  0  0  0  0  0
  -31.4806  -12.5240   19.1593 H   0  0  0  0  0  0
  -30.3796  -11.4035   19.9053 H   0  0  0  0  0  0
  -29.7802  -11.7497   17.4883 H   0  0  0  0  0  0
  -29.6530  -13.4718   17.7471 H   0  0  0  0  0  0
  -27.8764  -11.2864   18.8755 H   0  0  0  0  0  0
  -27.3806  -12.5614   17.7974 H   0  0  0  0  0  0
  -27.6700  -14.2484   19.5187 H   0  0  0  0  0  0
  -28.7059  -12.0652   21.3921 H   0  0  0  0  0  0
  -28.4349  -13.7223   21.8401 H   0  0  0  0  0  0
  -25.2768   -9.5697   22.4761 H   0  0  0  0  0  0
  -24.0017   -7.4635   22.7470 H   0  0  0  0  0  0
  -21.0853   -8.8768   19.8939 H   0  0  0  0  0  0
  -22.3697  -10.9679   19.6167 H   0  0  0  0  0  0
  -21.1997   -7.6154   23.9719 H   0  0  0  0  0  0
  -21.1485   -6.0526   25.9079 H   0  0  0  0  0  0
  -22.0595   -2.7617   23.2835 H   0  0  0  0  0  0
  -22.4110  -11.9873   22.4771 H   0  0  0  0  0  0
  -21.1116  -13.1260   22.2631 H   0  0  0  0  0  0
  -24.6600  -15.8424   20.4984 H   0  0  0  0  0  0
  -26.2757  -15.6221   20.0615 H   0  0  0  0  0  0
  -26.7185  -32.5439   23.1113 H   0  0  0  0  0  0
  -25.0085  -33.9722   25.0431 H   0  0  0  0  0  0
  -22.7164  -31.3088   21.4004 H   0  0  0  0  0  0
  -23.3744  -35.9629   23.3283 H   0  0  0  0  0  0
  -24.3591  -36.8909   22.2059 H   0  0  0  0  0  0
  -23.7249  -37.6495   23.6664 H   0  0  0  0  0  0
  -26.0976  -31.5611   20.6082 H   0  0  0  0  0  0
  -26.8429  -30.8384   22.0006 H   0  0  0  0  0  0
  -28.1245  -28.9930   21.1665 H   0  0  0  0  0  0
  -25.9596  -25.9360   18.9976 H   0  0  0  0  0  0
  -23.9688  -27.3060   19.0186 H   0  0  0  0  0  0
  -23.7618  -30.6005   19.4031 H   0  0  0  0  0  0
  -22.7557  -29.2557   19.8499 H   0  0  0  0  0  0
  -25.1303  -36.1901   25.0820 H   0  0  0  0  0  0
  -21.0011  -28.3241   24.1386 H   0  0  0  0  0  0
  -20.5659  -26.2305   23.3614 H   0  0  0  0  0  0
  -21.6645  -26.7423   22.1210 H   0  0  0  0  0  0
  -19.6888  -25.6286   21.1250 H   0  0  0  0  0  0
  -19.6666  -27.3188   20.6755 H   0  0  0  0  0  0
  -17.4207  -26.6695   21.4021 H   0  0  0  0  0  0
  -18.0302  -26.0099   22.9027 H   0  0  0  0  0  0
  -19.7950  -30.7286   24.2248 H   0  0  0  0  0  0
  -17.5036  -31.6274   24.5185 H   0  0  0  0  0  0
  -15.5370  -30.3016   23.7654 H   0  0  0  0  0  0
  -15.8679  -28.0855   22.7041 H   0  0  0  0  0  0
  -24.5894  -30.7117   25.7824 H   0  0  0  0  0  0
  -24.8921  -32.2988   26.4822 H   0  0  0  0  0  0
  -25.8046  -30.9040   27.0273 H   0  0  0  0  0  0
  -26.2879  -29.6796   24.1182 H   0  0  0  0  0  0
  -27.3957  -29.7250   25.4699 H   0  0  0  0  0  0
  -27.8772  -30.4294   23.9442 H   0  0  0  0  0  0
  -27.2620  -33.3658   26.2052 H   0  0  0  0  0  0
  -28.3871  -32.6870   25.0360 H   0  0  0  0  0  0
  -28.0654  -31.8495   26.5468 H   0  0  0  0  0  0
  -28.2582  -38.0111   24.7523 H   0  0  0  0  0  0
  -28.1083  -36.2646   24.6257 H   0  0  0  0  0  0
  -27.2312  -37.1414   25.8868 H   0  0  0  0  0  0
  -20.9328  -29.8871   21.6972 H   0  0  0  0  0  0
  -26.0145  -38.2834   24.1432 H   0  0  0  0  0  0
  -31.7232  -19.7103   19.2546 H   0  0  0  0  0  0
  -31.6531  -17.2748   19.3990 H   0  0  0  0  0  0
  -28.1756  -17.5469   21.9191 H   0  0  0  0  0  0
  -31.0314  -21.8834   19.7833 H   0  0  0  0  0  0
  -30.6846  -21.8955   21.4789 H   0  0  0  0  0  0
  -28.4000  -20.9304   22.7039 H   0  0  0  0  0  0
  -27.2714  -19.5854   22.5829 H   0  0  0  0  0  0
  -27.2743  -24.7038   20.5827 H   0  0  0  0  0  0
  -27.8622  -24.8329   18.9283 H   0  0  0  0  0  0
  -28.9329  -15.3933   21.2420 H   0  0  0  0  0  0
  -28.2375  -22.3262   20.0905 H   0  0  0  0  0  0
  1 25  1  0  0  0
  1 30  2  0  0  0
  1 81  1  0  0  0
  2  3  1  0  0  0
  2 25  1  0  0  0
  2 85  1  0  0  0
  2 86  1  0  0  0
  3  4  1  0  0  0
  3 87  1  0  0  0
  3 88  1  0  0  0
  4  5  1  0  0  0
  4 89  1  0  0  0
  4 90  1  0  0  0
  5  6  1  0  0  0
  5 26  1  0  0  0
  5 91  1  0  0  0
  6 25  1  0  0  0
  6 92  1  0  0  0
  6 93  1  0  0  0
  7  8  2  0  0  0
  7 26  1  0  0  0
  7 29  1  0  0  0
  8  9  1  0  0  0
  8 22  1  0  0  0
  9 10  1  0  0  0
  9 27  2  0  0  0
 10 11  2  0  0  0
 10 15  1  0  0  0
 11 12  1  0  0  0
 11 94  1  0  0  0
 12 13  2  0  0  0
 12 95  1  0  0  0
 13 14  1  0  0  0
 13 31  1  0  0  0
 14 15  2  0  0  0
 14 96  1  0  0  0
 15 97  1  0  0  0
 16 17  2  0  0  0
 16 21  1  0  0  0
 16 31  1  0  0  0
 17 18  1  0  0  0
 17 98  1  0  0  0
 18 19  2  0  0  0
 18 99  1  0  0  0
 19 20  1  0  0  0
 19 24  1  0  0  0
 20 21  2  0  0  0
 20100  1  0  0  0
 21 23  1  0  0  0
 22 28  1  0  0  0
 22 32  2  0  0  0
 26 27  1  0  0  0
 28101  1  0  0  0
 28102  1  0  0  0
 29103  1  0  0  0
 29104  1  0  0  0
 33 34  1  0  0  0
 33 66  1  0  0  0
 33 70  2  0  0  0
 34 36  1  0  0  0
 34 59  1  0  0  0
 34105  1  0  0  0
 35 44  2  0  0  0
 35 45  1  0  0  0
 35 68  1  0  0  0
 36 56  1  0  0  0
 36106  1  0  0  0
 37 39  1  0  0  0
 37 47  1  0  0  0
 37 66  1  0  0  0
 37107  1  0  0  0
 38 43  2  0  0  0
 38 46  1  0  0  0
 38 47  1  0  0  0
 39 64  1  0  0  0
 39 67  2  0  0  0
 40 52  1  0  0  0
 40 53  2  0  0  0
 40 58  1  0  0  0
 41108  1  0  0  0
 41109  1  0  0  0
 41110  1  0  0  0
 41 48  1  0  0  0
 42 43  1  0  0  0
 42 66  1  0  0  0
 42111  1  0  0  0
 42112  1  0  0  0
 43 44  1  0  0  0
 44113  1  0  0  0
 45 46  2  0  0  0
 45114  1  0  0  0
 46115  1  0  0  0
 47116  1  0  0  0
 47117  1  0  0  0
 48 56  1  0  0  0
 48 65  1  0  0  0
 48118  1  0  0  0
 49 50  1  0  0  0
 49 53  1  0  0  0
 49 64  1  0  0  0
 49119  1  0  0  0
 50 51  1  0  0  0
 50120  1  0  0  0
 50121  1  0  0  0
 51 52  1  0  0  0
 51122  1  0  0  0
 51123  1  0  0  0
 52124  1  0  0  0
 52125  1  0  0  0
 53 54  1  0  0  0
 54 55  2  0  0  0
 54126  1  0  0  0
 55 57  1  0  0  0
 55127  1  0  0  0
 56 69  2  0  0  0
 57 58  2  0  0  0
 57128  1  0  0  0
 58129  1  0  0  0
 59 60  1  0  0  0
 59 61  1  0  0  0
 59 62  1  0  0  0
 60130  1  0  0  0
 60131  1  0  0  0
 60132  1  0  0  0
 61133  1  0  0  0
 61134  1  0  0  0
 61135  1  0  0  0
 62136  1  0  0  0
 62137  1  0  0  0
 62138  1  0  0  0
 63 65  1  0  0  0
 63139  1  0  0  0
 63140  1  0  0  0
 63141  1  0  0  0
 64142  1  0  0  0
 65143  1  0  0  0
 68 80  1  0  0  0
 71 72  2  0  0  0
 71 74  1  0  0  0
 71144  1  0  0  0
 72 76  1  0  0  0
 72145  1  0  0  0
 73 75  1  0  0  0
 73 76  2  0  0  0
 73146  1  0  0  0
 74 75  2  0  0  0
 74 78  1  0  0  0
 75 79  1  0  0  0
 76 81  1  0  0  0
 77 80  1  0  0  0
 77 82  1  0  0  0
 77 83  2  0  0  0
 78 82  1  0  0  0
 78147  1  0  0  0
 78148  1  0  0  0
 79 84  1  0  0  0
 79149  1  0  0  0
 79150  1  0  0  0
 80151  1  0  0  0
 80152  1  0  0  0
 81153  1  0  0  0
 82154  1  0  0  0
M  ISO  4   1 100  68 101  80 101  81 100
M  END
> <chiral flag>
0

> <version>
0

> <s_m_source_file>
/data/baiqing/PycharmProjects/Reinvent-master-3.2/result/LINK_invent/BTK/process_docking_weight1_custom_product_contain_oxygen_bond_distance_aromatic_linkinvent_7_9_3/rearranged_h_0048.sdf

> <i_m_source_file_index>
81

> <r_mmod_Potential_Energy-OPLS-2005>
-6.46254205703735

> <r_mmod_Stretch_Energy-OPLS-2005>
82.2616195678711

> <r_mmod_Bend_Energy-OPLS-2005>
139.740951538086

> <r_mmod_Torsional_Energy-OPLS-2005>
211.527374267578

> <r_mmod_Improper_Torsional_Energy-OPLS-2005>
4.42857980728149

> <r_mmod_Van_der_Waal_Energy-OPLS-2005>
146.560134887695

> <r_mmod_Electrostatic_Energy-OPLS-2005>
-402.057250976562

> <r_mmod_Solvation_Energy-OPLS-2005>
-239.323425292969

> <b_mmod_Minimization_Converged-OPLS-2005>
0

> <r_mmod_RMS_Derivative-OPLS-2005>
2.3438925743103

$$$$
81
                    3D
 Structure written by MMmdl.
164173  0  0  1  0            999 V2000
  -30.6168  -14.6447   20.4894 C   0  0  0  0  0  0
  -30.4363  -12.3915   19.4565 C   0  0  0  0  0  0
  -29.5081  -12.5074   18.2263 C   0  0  0  0  0  0
  -28.0305  -12.3457   18.6365 C   0  0  0  0  0  0
  -27.6526  -13.2168   19.8642 C   0  0  2  0  0  0
  -28.6961  -13.0738   20.9949 C   0  0  0  0  0  0
  -25.2553  -13.8175   20.5685 C   0  0  0  0  0  0
  -24.1824  -13.0440   20.9196 C   0  0  0  0  0  0
  -24.6393  -11.6911   20.8740 C   0  0  0  0  0  0
  -23.9063  -10.4294   21.0405 C   0  0  0  0  0  0
  -24.3615   -9.4210   21.9183 C   0  0  0  0  0  0
  -23.6291   -8.2246   22.0754 C   0  0  0  0  0  0
  -22.4273   -8.0286   21.3546 C   0  0  0  0  0  0
  -21.9908   -9.0257   20.4648 C   0  0  0  0  0  0
  -22.7235  -10.2136   20.3056 C   0  0  0  0  0  0
  -21.6854   -6.0737   22.5280 C   0  0  0  0  0  0
  -21.4013   -6.5639   23.8213 C   0  0  0  0  0  0
  -21.3662   -5.6792   24.9176 C   0  0  0  0  0  0
  -21.6045   -4.3054   24.7226 C   0  0  0  0  0  0
  -21.8819   -3.8147   23.4347 C   0  0  0  0  0  0
  -21.9193   -4.6965   22.3403 C   0  0  0  0  0  0
  -22.7847  -13.5232   21.1859 C   0  0  0  0  0  0
  -22.1660   -4.2151   21.0980 F   0  0  0  0  0  0
  -21.5633   -3.4536   25.7738 F   0  0  0  0  0  0
  -30.0117  -13.4153   20.4324 N   0  0  0  0  0  0
  -26.2982  -12.9357   20.3320 N   0  0  0  0  0  0
  -25.9322  -11.6512   20.5756 N   0  0  0  0  0  0
  -22.0490  -12.8222   22.0416 N   0  0  0  0  0  0
  -25.4257  -15.1898   20.4086 N   0  0  0  0  0  0
  -31.7818  -14.7952   20.1100 O   0  0  0  0  0  0
  -21.6641   -6.8880   21.4241 O   0  0  0  0  0  0
  -22.3529  -14.5537   20.6708 O   0  0  0  0  0  0
  -24.6249  -31.8602   23.2028 C   0  0  0  0  0  0
  -25.9099  -32.4781   23.8355 C   0  0  1  0  0  0
  -27.2222  -27.3266   20.1247 C   0  0  0  0  0  0
  -25.5917  -33.8582   24.2282 N   0  0  0  0  0  0
  -23.4186  -30.4834   21.5452 C   0  0  2  0  0  0
  -24.8658  -28.9371   20.1134 C   0  0  0  0  0  0
  -22.7468  -29.4626   22.4942 C   0  0  0  0  0  0
  -18.0284  -28.1384   22.8488 C   0  0  0  0  0  0
  -24.1489  -36.7297   23.2640 C   0  0  0  0  0  0
  -25.9583  -30.7937   21.3729 C   0  0  0  0  0  0
  -26.0337  -29.4205   20.7179 C   0  0  0  0  0  0
  -27.2181  -28.6272   20.7124 C   0  0  0  0  0  0
  -26.0379  -26.8952   19.4900 C   0  0  0  0  0  0
  -24.8689  -27.6792   19.4900 C   0  0  0  0  0  0
  -23.6334  -29.8166   20.1609 C   0  0  0  0  0  0
  -25.4114  -36.3087   24.0330 C   0  0  1  0  0  0
  -20.5884  -28.3687   23.1287 C   0  0  2  0  0  0
  -20.6775  -26.9411   22.5412 C   0  0  0  0  0  0
  -19.5751  -26.6385   21.5213 C   0  0  0  0  0  0
  -18.1930  -26.7928   22.1624 C   0  0  0  0  0  0
  -19.1537  -28.8852   23.2883 C   0  0  0  0  0  0
  -18.9460  -30.1454   23.8900 C   0  0  0  0  0  0
  -17.6461  -30.6587   24.0565 C   0  0  0  0  0  0
  -25.9049  -34.9455   23.5108 C   0  0  0  0  0  0
  -16.5352  -29.9087   23.6329 C   0  0  0  0  0  0
  -16.7272  -28.6504   23.0351 C   0  0  0  0  0  0
  -26.4489  -31.6587   25.0722 C   0  0  0  0  0  0
  -25.3725  -31.3723   26.1452 C   0  0  0  0  0  0
  -27.0328  -30.3011   24.6168 C   0  0  0  0  0  0
  -27.6050  -32.4321   25.7492 C   0  0  0  0  0  0
  -27.5580  -37.1805   24.8465 C   0  0  0  0  0  0
  -21.4183  -29.3042   22.3683 N   0  0  0  0  0  0
  -26.4294  -37.3780   23.9407 N   0  0  0  0  0  0
  -24.6859  -31.0621   22.0976 N   0  0  0  0  0  0
  -23.4194  -28.8167   23.3021 O   0  0  0  0  0  0
  -28.3352  -26.4786   20.1369 O   0  0  0  0  0  0
  -26.5618  -34.8920   22.4676 O   0  0  0  0  0  0
  -23.5415  -32.1397   23.7362 O   0  0  0  0  0  0
  -28.7754  -19.3845   20.7513 C   0  0  0  0  0  0
  -28.7997  -17.9790   21.0028 C   0  0  0  0  0  0
  -30.9372  -17.8092   19.9384 C   0  0  0  0  0  0
  -29.8327  -20.0558   20.0810 C   0  0  0  0  0  0
  -30.9255  -19.2158   19.6628 C   0  0  0  0  0  0
  -29.8761  -17.1434   20.5989 C   0  0  0  0  0  0
  -28.8693  -23.9505   19.8391 C   0  0  0  0  0  0
  -29.1263  -23.7544   22.6623 C   0  0  0  0  0  0
  -28.4934  -25.0703   22.1569 C   0  0  0  0  0  0
  -28.7183  -22.5212   21.8303 C   0  0  0  0  0  0
  -28.1407  -25.0969   20.6498 C   0  0  1  0  0  0
  -33.1746  -20.4044   19.8269 C   0  0  0  0  0  0
  -29.7788  -21.5943   19.6862 C   0  0  0  0  0  0
  -32.1325  -19.7747   18.8924 C   0  0  0  0  0  0
  -29.0422  -22.6999   20.4090 N   0  0  0  0  0  0
  -29.8076  -15.6967   20.8425 N   0  0  0  0  0  0
  -29.2523  -24.1986   18.6909 O   0  0  0  0  0  0
  -31.7598  -20.6584   17.9671 F   0  0  0  0  0  0
  -32.7533  -18.7974   18.2294 F   0  0  0  0  0  0
  -31.4782  -12.5137   19.1557 H   0  0  0  0  0  0
  -30.3685  -11.3966   19.8993 H   0  0  0  0  0  0
  -29.7733  -11.7556   17.4819 H   0  0  0  0  0  0
  -29.6518  -13.4766   17.7456 H   0  0  0  0  0  0
  -27.8667  -11.2925   18.8675 H   0  0  0  0  0  0
  -27.3768  -12.5759   17.7943 H   0  0  0  0  0  0
  -27.6702  -14.2521   19.5232 H   0  0  0  0  0  0
  -28.7067  -12.0534   21.3801 H   0  0  0  0  0  0
  -28.4411  -13.7087   21.8448 H   0  0  0  0  0  0
  -25.2763   -9.5687   22.4751 H   0  0  0  0  0  0
  -24.0006   -7.4635   22.7466 H   0  0  0  0  0  0
  -21.0842   -8.8768   19.8950 H   0  0  0  0  0  0
  -22.3694  -10.9670   19.6160 H   0  0  0  0  0  0
  -21.2004   -7.6146   23.9718 H   0  0  0  0  0  0
  -21.1483   -6.0522   25.9079 H   0  0  0  0  0  0
  -22.0597   -2.7608   23.2846 H   0  0  0  0  0  0
  -22.4104  -11.9880   22.4799 H   0  0  0  0  0  0
  -21.1110  -13.1247   22.2624 H   0  0  0  0  0  0
  -24.6542  -15.8405   20.5089 H   0  0  0  0  0  0
  -26.2676  -15.6273   20.0566 H   0  0  0  0  0  0
  -26.7169  -32.5457   23.1107 H   0  0  0  0  0  0
  -25.0058  -33.9729   25.0422 H   0  0  0  0  0  0
  -22.7120  -31.3036   21.4016 H   0  0  0  0  0  0
  -23.3750  -35.9632   23.3307 H   0  0  0  0  0  0
  -24.3578  -36.8912   22.2053 H   0  0  0  0  0  0
  -23.7245  -37.6502   23.6657 H   0  0  0  0  0  0
  -26.0873  -31.5566   20.6037 H   0  0  0  0  0  0
  -26.8395  -30.8440   22.0007 H   0  0  0  0  0  0
  -28.1167  -28.9937   21.1888 H   0  0  0  0  0  0
  -26.0080  -25.9364   18.9920 H   0  0  0  0  0  0
  -23.9759  -27.3059   19.0076 H   0  0  0  0  0  0
  -23.7519  -30.5922   19.4035 H   0  0  0  0  0  0
  -22.7537  -29.2450   19.8593 H   0  0  0  0  0  0
  -25.1296  -36.1942   25.0824 H   0  0  0  0  0  0
  -20.9976  -28.3260   24.1407 H   0  0  0  0  0  0
  -20.5676  -26.2297   23.3610 H   0  0  0  0  0  0
  -21.6644  -26.7442   22.1205 H   0  0  0  0  0  0
  -19.6913  -25.6295   21.1243 H   0  0  0  0  0  0
  -19.6689  -27.3196   20.6743 H   0  0  0  0  0  0
  -17.4200  -26.6674   21.4027 H   0  0  0  0  0  0
  -18.0332  -26.0068   22.9020 H   0  0  0  0  0  0
  -19.7937  -30.7270   24.2270 H   0  0  0  0  0  0
  -17.5016  -31.6268   24.5165 H   0  0  0  0  0  0
  -15.5353  -30.2991   23.7651 H   0  0  0  0  0  0
  -15.8671  -28.0825   22.7064 H   0  0  0  0  0  0
  -24.5897  -30.7076   25.7781 H   0  0  0  0  0  0
  -24.8919  -32.2889   26.4884 H   0  0  0  0  0  0
  -25.8051  -30.8895   27.0223 H   0  0  0  0  0  0
  -26.2899  -29.6767   24.1192 H   0  0  0  0  0  0
  -27.4027  -29.7262   25.4668 H   0  0  0  0  0  0
  -27.8768  -30.4300   23.9388 H   0  0  0  0  0  0
  -27.2660  -33.3616   26.2077 H   0  0  0  0  0  0
  -28.3856  -32.6888   25.0318 H   0  0  0  0  0  0
  -28.0723  -31.8441   26.5402 H   0  0  0  0  0  0
  -28.2603  -38.0097   24.7506 H   0  0  0  0  0  0
  -28.1070  -36.2628   24.6299 H   0  0  0  0  0  0
  -27.2297  -37.1464   25.8868 H   0  0  0  0  0  0
  -20.9358  -29.8763   21.6894 H   0  0  0  0  0  0
  -26.0177  -38.2858   24.1401 H   0  0  0  0  0  0
  -27.9044  -19.9451   21.0599 H   0  0  0  0  0  0
  -27.9492  -17.5394   21.5055 H   0  0  0  0  0  0
  -31.7818  -17.2236   19.6089 H   0  0  0  0  0  0
  -28.8800  -23.6018   23.7143 H   0  0  0  0  0  0
  -30.2130  -23.8492   22.6254 H   0  0  0  0  0  0
  -29.1658  -25.8947   22.3962 H   0  0  0  0  0  0
  -27.5808  -25.2665   22.7216 H   0  0  0  0  0  0
  -27.6489  -22.3303   21.9321 H   0  0  0  0  0  0
  -29.2338  -21.6507   22.2353 H   0  0  0  0  0  0
  -27.0912  -24.8123   20.5816 H   0  0  0  0  0  0
  -32.7630  -21.2246   20.4129 H   0  0  0  0  0  0
  -34.0201  -20.7945   19.2604 H   0  0  0  0  0  0
  -33.5606  -19.6657   20.5290 H   0  0  0  0  0  0
  -29.4299  -21.6033   18.6521 H   0  0  0  0  0  0
  -30.7988  -21.9679   19.6539 H   0  0  0  0  0  0
  -28.9245  -15.3836   21.2149 H   0  0  0  0  0  0
  1 25  1  0  0  0
  1 30  2  0  0  0
  1 86  1  0  0  0
  2  3  1  0  0  0
  2 25  1  0  0  0
  2 90  1  0  0  0
  2 91  1  0  0  0
  3  4  1  0  0  0
  3 92  1  0  0  0
  3 93  1  0  0  0
  4  5  1  0  0  0
  4 94  1  0  0  0
  4 95  1  0  0  0
  5  6  1  0  0  0
  5 26  1  0  0  0
  5 96  1  0  0  0
  6 25  1  0  0  0
  6 97  1  0  0  0
  6 98  1  0  0  0
  7  8  2  0  0  0
  7 26  1  0  0  0
  7 29  1  0  0  0
  8  9  1  0  0  0
  8 22  1  0  0  0
  9 10  1  0  0  0
  9 27  2  0  0  0
 10 11  2  0  0  0
 10 15  1  0  0  0
 11 12  1  0  0  0
 11 99  1  0  0  0
 12 13  2  0  0  0
 12100  1  0  0  0
 13 14  1  0  0  0
 13 31  1  0  0  0
 14 15  2  0  0  0
 14101  1  0  0  0
 15102  1  0  0  0
 16 17  2  0  0  0
 16 21  1  0  0  0
 16 31  1  0  0  0
 17 18  1  0  0  0
 17103  1  0  0  0
 18 19  2  0  0  0
 18104  1  0  0  0
 19 20  1  0  0  0
 19 24  1  0  0  0
 20 21  2  0  0  0
 20105  1  0  0  0
 21 23  1  0  0  0
 22 28  1  0  0  0
 22 32  2  0  0  0
 26 27  1  0  0  0
 28106  1  0  0  0
 28107  1  0  0  0
 29108  1  0  0  0
 29109  1  0  0  0
 33 34  1  0  0  0
 33 66  1  0  0  0
 33 70  2  0  0  0
 34 36  1  0  0  0
 34 59  1  0  0  0
 34110  1  0  0  0
 35 44  2  0  0  0
 35 45  1  0  0  0
 35 68  1  0  0  0
 36 56  1  0  0  0
 36111  1  0  0  0
 37 39  1  0  0  0
 37 47  1  0  0  0
 37 66  1  0  0  0
 37112  1  0  0  0
 38 43  2  0  0  0
 38 46  1  0  0  0
 38 47  1  0  0  0
 39 64  1  0  0  0
 39 67  2  0  0  0
 40 52  1  0  0  0
 40 53  2  0  0  0
 40 58  1  0  0  0
 41113  1  0  0  0
 41114  1  0  0  0
 41115  1  0  0  0
 41 48  1  0  0  0
 42 43  1  0  0  0
 42 66  1  0  0  0
 42116  1  0  0  0
 42117  1  0  0  0
 43 44  1  0  0  0
 44118  1  0  0  0
 45 46  2  0  0  0
 45119  1  0  0  0
 46120  1  0  0  0
 47121  1  0  0  0
 47122  1  0  0  0
 48 56  1  0  0  0
 48 65  1  0  0  0
 48123  1  0  0  0
 49 50  1  0  0  0
 49 53  1  0  0  0
 49 64  1  0  0  0
 49124  1  0  0  0
 50 51  1  0  0  0
 50125  1  0  0  0
 50126  1  0  0  0
 51 52  1  0  0  0
 51127  1  0  0  0
 51128  1  0  0  0
 52129  1  0  0  0
 52130  1  0  0  0
 53 54  1  0  0  0
 54 55  2  0  0  0
 54131  1  0  0  0
 55 57  1  0  0  0
 55132  1  0  0  0
 56 69  2  0  0  0
 57 58  2  0  0  0
 57133  1  0  0  0
 58134  1  0  0  0
 59 60  1  0  0  0
 59 61  1  0  0  0
 59 62  1  0  0  0
 60135  1  0  0  0
 60136  1  0  0  0
 60137  1  0  0  0
 61138  1  0  0  0
 61139  1  0  0  0
 61140  1  0  0  0
 62141  1  0  0  0
 62142  1  0  0  0
 62143  1  0  0  0
 63 65  1  0  0  0
 63144  1  0  0  0
 63145  1  0  0  0
 63146  1  0  0  0
 64147  1  0  0  0
 65148  1  0  0  0
 68 81  1  0  0  0
 71 72  2  0  0  0
 71 74  1  0  0  0
 71149  1  0  0  0
 72 76  1  0  0  0
 72150  1  0  0  0
 73 75  1  0  0  0
 73 76  2  0  0  0
 73151  1  0  0  0
 74 75  2  0  0  0
 74 83  1  0  0  0
 75 84  1  0  0  0
 76 86  1  0  0  0
 77 81  1  0  0  0
 77 85  1  0  0  0
 77 87  2  0  0  0
 78 79  1  0  0  0
 78 80  1  0  0  0
 78152  1  0  0  0
 78153  1  0  0  0
 79 81  1  0  0  0
 79154  1  0  0  0
 79155  1  0  0  0
 80 85  1  0  0  0
 80156  1  0  0  0
 80157  1  0  0  0
 81158  1  0  0  0
 82159  1  0  0  0
 82160  1  0  0  0
 82161  1  0  0  0
 82 84  1  0  0  0
 83 85  1  0  0  0
 83162  1  0  0  0
 83163  1  0  0  0
 84 88  1  0  0  0
 84 89  1  0  0  0
 86164  1  0  0  0
M  ISO  4   1 100  68 101  81 101  86 100
M  END
> <chiral flag>
0

> <version>
0

> <s_m_source_file>
/data/baiqing/PycharmProjects/Reinvent-master-3.2/result/LINK_invent/BTK/process_docking_weight1_custom_product_contain_oxygen_bond_distance_aromatic_linkinvent_7_9_3/rearranged_h_0048.sdf

> <i_m_source_file_index>
82

> <r_mmod_Potential_Energy-OPLS-2005>
123.741416931152

> <r_mmod_Stretch_Energy-OPLS-2005>
89.0120010375977

> <r_mmod_Bend_Energy-OPLS-2005>
152.114791870117

> <r_mmod_Torsional_Energy-OPLS-2005>
258.640899658203

> <r_mmod_Improper_Torsional_Energy-OPLS-2005>
4.63303565979004

> <r_mmod_Van_der_Waal_Energy-OPLS-2005>
161.394226074219

> <r_mmod_Electrostatic_Energy-OPLS-2005>
-359.7421875

> <r_mmod_Solvation_Energy-OPLS-2005>
-229.603927612305

> <b_mmod_Minimization_Converged-OPLS-2005>
0

> <r_mmod_RMS_Derivative-OPLS-2005>
0.513035476207733

$$$$
82
                    3D
 Structure written by MMmdl.
152160  0  0  1  0            999 V2000
  -30.6773  -14.5629   20.4510 C   0  0  0  0  0  0
  -30.4158  -12.3321   19.4568 C   0  0  0  0  0  0
  -29.4982  -12.4715   18.2233 C   0  0  0  0  0  0
  -28.0196  -12.3368   18.6339 C   0  0  0  0  0  0
  -27.6492  -13.2183   19.8574 C   0  0  2  0  0  0
  -28.6923  -13.0923   20.9911 C   0  0  0  0  0  0
  -25.2541  -13.8186   20.5683 C   0  0  0  0  0  0
  -24.1814  -13.0446   20.9194 C   0  0  0  0  0  0
  -24.6385  -11.6918   20.8746 C   0  0  0  0  0  0
  -23.9059  -10.4297   21.0408 C   0  0  0  0  0  0
  -24.3613   -9.4211   21.9184 C   0  0  0  0  0  0
  -23.6290   -8.2245   22.0754 C   0  0  0  0  0  0
  -22.4272   -8.0282   21.3543 C   0  0  0  0  0  0
  -21.9906   -9.0255   20.4647 C   0  0  0  0  0  0
  -22.7232  -10.2136   20.3057 C   0  0  0  0  0  0
  -21.6854   -6.0735   22.5277 C   0  0  0  0  0  0
  -21.4016   -6.5638   23.8210 C   0  0  0  0  0  0
  -21.3659   -5.6791   24.9172 C   0  0  0  0  0  0
  -21.6044   -4.3054   24.7224 C   0  0  0  0  0  0
  -21.8819   -3.8145   23.4345 C   0  0  0  0  0  0
  -21.9193   -4.6962   22.3401 C   0  0  0  0  0  0
  -22.7836  -13.5235   21.1855 C   0  0  0  0  0  0
  -22.1662   -4.2148   21.0978 F   0  0  0  0  0  0
  -21.5627   -3.4537   25.7736 F   0  0  0  0  0  0
  -30.0144  -13.3727   20.4196 N   0  0  0  0  0  0
  -26.2967  -12.9373   20.3306 N   0  0  0  0  0  0
  -25.9312  -11.6526   20.5767 N   0  0  0  0  0  0
  -22.0481  -12.8228   22.0413 N   0  0  0  0  0  0
  -25.4248  -15.1907   20.4093 N   0  0  0  0  0  0
  -31.8775  -14.6447   20.1785 O   0  0  0  0  0  0
  -21.6640   -6.8877   21.4239 O   0  0  0  0  0  0
  -22.3521  -14.5540   20.6702 O   0  0  0  0  0  0
  -24.6191  -31.8642   23.2065 C   0  0  0  0  0  0
  -25.9066  -32.4800   23.8373 C   0  0  1  0  0  0
  -27.2304  -27.3834   20.0961 C   0  0  0  0  0  0
  -25.5906  -33.8601   24.2303 N   0  0  0  0  0  0
  -23.4088  -30.4880   21.5481 C   0  0  2  0  0  0
  -24.8531  -28.9474   20.1124 C   0  0  0  0  0  0
  -22.7432  -29.4642   22.4967 C   0  0  0  0  0  0
  -18.0277  -28.1376   22.8491 C   0  0  0  0  0  0
  -24.1488  -36.7308   23.2638 C   0  0  0  0  0  0
  -25.9426  -30.8128   21.3674 C   0  0  0  0  0  0
  -26.0161  -29.4435   20.7131 C   0  0  0  0  0  0
  -27.2032  -28.6672   20.7048 C   0  0  0  0  0  0
  -26.0385  -26.9087   19.5013 C   0  0  0  0  0  0
  -24.8614  -27.6809   19.5050 C   0  0  0  0  0  0
  -23.6187  -29.8213   20.1625 C   0  0  0  0  0  0
  -25.4110  -36.3100   24.0334 C   0  0  1  0  0  0
  -20.5870  -28.3669   23.1305 C   0  0  2  0  0  0
  -20.6766  -26.9401   22.5413 C   0  0  0  0  0  0
  -19.5744  -26.6382   21.5211 C   0  0  0  0  0  0
  -18.1924  -26.7922   22.1625 C   0  0  0  0  0  0
  -19.1527  -28.8840   23.2895 C   0  0  0  0  0  0
  -18.9454  -30.1445   23.8907 C   0  0  0  0  0  0
  -17.6455  -30.6582   24.0564 C   0  0  0  0  0  0
  -25.9041  -34.9465   23.5118 C   0  0  0  0  0  0
  -16.5347  -29.9083   23.6326 C   0  0  0  0  0  0
  -16.7266  -28.6500   23.0348 C   0  0  0  0  0  0
  -26.4478  -31.6594   25.0719 C   0  0  0  0  0  0
  -25.3733  -31.3708   26.1460 C   0  0  0  0  0  0
  -27.0317  -30.3032   24.6124 C   0  0  0  0  0  0
  -27.6045  -32.4322   25.7486 C   0  0  0  0  0  0
  -27.5582  -37.1807   24.8463 C   0  0  0  0  0  0
  -21.4155  -29.3033   22.3708 N   0  0  0  0  0  0
  -26.4293  -37.3788   23.9408 N   0  0  0  0  0  0
  -24.6754  -31.0706   22.0984 N   0  0  0  0  0  0
  -23.4186  -28.8184   23.3025 O   0  0  0  0  0  0
  -28.3958  -26.6251   20.1351 O   0  0  0  0  0  0
  -26.5608  -34.8924   22.4684 O   0  0  0  0  0  0
  -23.5373  -32.1415   23.7434 O   0  0  0  0  0  0
  -29.7669  -18.1794   19.8694 C   0  0  0  0  0  0
  -30.4129  -18.8286   17.6077 C   0  0  0  0  0  0
  -30.4859  -16.4959   18.2395 C   0  0  0  0  0  0
  -29.9817  -19.2165   18.8967 C   0  0  0  0  0  0
  -30.0639  -16.8027   19.5574 C   0  0  0  0  0  0
  -30.6563  -17.4927   17.2749 C   0  0  0  0  0  0
  -29.7992  -20.7076   18.9853 C   0  0  0  0  0  0
  -29.0621  -21.5829   19.7176 C   0  0  0  0  0  0
  -29.1475  -23.0221   19.3800 C   0  0  0  0  0  0
  -28.4075  -24.0774   19.8142 C   0  0  0  0  0  0
  -28.5826  -25.5036   19.2349 C   0  0  0  0  0  0
  -29.9166  -15.6951   20.4888 N   0  0  0  0  0  0
  -31.1723  -17.0760   15.6814 Cl  0  0  0  0  0  0
  -31.4628  -12.4153   19.1594 H   0  0  0  0  0  0
  -30.3108  -11.3436   19.9065 H   0  0  0  0  0  0
  -29.7484  -11.7122   17.4811 H   0  0  0  0  0  0
  -29.6589  -13.4344   17.7388 H   0  0  0  0  0  0
  -27.8419  -11.2866   18.8681 H   0  0  0  0  0  0
  -27.3704  -12.5719   17.7896 H   0  0  0  0  0  0
  -27.6644  -14.2494   19.5044 H   0  0  0  0  0  0
  -28.6775  -12.0899   21.4212 H   0  0  0  0  0  0
  -28.4628  -13.7787   21.8077 H   0  0  0  0  0  0
  -25.2757   -9.5688   22.4758 H   0  0  0  0  0  0
  -24.0000   -7.4636   22.7472 H   0  0  0  0  0  0
  -21.0838   -8.8772   19.8952 H   0  0  0  0  0  0
  -22.3688  -10.9674   19.6167 H   0  0  0  0  0  0
  -21.2011   -7.6147   23.9713 H   0  0  0  0  0  0
  -21.1481   -6.0522   25.9075 H   0  0  0  0  0  0
  -22.0599   -2.7608   23.2846 H   0  0  0  0  0  0
  -22.4098  -11.9890   22.4803 H   0  0  0  0  0  0
  -21.1098  -13.1253   22.2619 H   0  0  0  0  0  0
  -24.6566  -15.8443   20.5165 H   0  0  0  0  0  0
  -26.2723  -15.6300   20.0731 H   0  0  0  0  0  0
  -26.7132  -32.5492   23.1126 H   0  0  0  0  0  0
  -25.0057  -33.9755   25.0449 H   0  0  0  0  0  0
  -22.6996  -31.3065   21.4080 H   0  0  0  0  0  0
  -23.3745  -35.9647   23.3310 H   0  0  0  0  0  0
  -24.3581  -36.8914   22.2050 H   0  0  0  0  0  0
  -23.7247  -37.6518   23.6648 H   0  0  0  0  0  0
  -26.0638  -31.5773   20.5986 H   0  0  0  0  0  0
  -26.8275  -30.8638   21.9903 H   0  0  0  0  0  0
  -28.0999  -29.0467   21.1746 H   0  0  0  0  0  0
  -25.9857  -25.9280   19.0524 H   0  0  0  0  0  0
  -23.9634  -27.2881   19.0480 H   0  0  0  0  0  0
  -23.7322  -30.5968   19.4041 H   0  0  0  0  0  0
  -22.7403  -29.2462   19.8641 H   0  0  0  0  0  0
  -25.1287  -36.1962   25.0827 H   0  0  0  0  0  0
  -20.9963  -28.3237   24.1425 H   0  0  0  0  0  0
  -20.5668  -26.2277   23.3604 H   0  0  0  0  0  0
  -21.6637  -26.7439   22.1207 H   0  0  0  0  0  0
  -19.6906  -25.6296   21.1232 H   0  0  0  0  0  0
  -19.6680  -27.3200   20.6747 H   0  0  0  0  0  0
  -17.4192  -26.6667   21.4029 H   0  0  0  0  0  0
  -18.0328  -26.0060   22.9019 H   0  0  0  0  0  0
  -19.7930  -30.7257   24.2280 H   0  0  0  0  0  0
  -17.5011  -31.6263   24.5163 H   0  0  0  0  0  0
  -15.5348  -30.2988   23.7643 H   0  0  0  0  0  0
  -15.8666  -28.0822   22.7057 H   0  0  0  0  0  0
  -24.5912  -30.7048   25.7796 H   0  0  0  0  0  0
  -24.8918  -32.2864   26.4902 H   0  0  0  0  0  0
  -25.8081  -30.8882   27.0222 H   0  0  0  0  0  0
  -26.2874  -29.6789   24.1166 H   0  0  0  0  0  0
  -27.4064  -29.7274   25.4596 H   0  0  0  0  0  0
  -27.8718  -30.4344   23.9299 H   0  0  0  0  0  0
  -27.2653  -33.3607   26.2091 H   0  0  0  0  0  0
  -28.3840  -32.6907   25.0307 H   0  0  0  0  0  0
  -28.0731  -31.8433   26.5380 H   0  0  0  0  0  0
  -28.2598  -38.0106   24.7518 H   0  0  0  0  0  0
  -28.1080  -36.2639   24.6280 H   0  0  0  0  0  0
  -27.2302  -37.1446   25.8867 H   0  0  0  0  0  0
  -20.9319  -29.8761   21.6933 H   0  0  0  0  0  0
  -26.0181  -38.2866   24.1408 H   0  0  0  0  0  0
  -29.4224  -18.4455   20.8589 H   0  0  0  0  0  0
  -30.5621  -19.5685   16.8338 H   0  0  0  0  0  0
  -30.6932  -15.4813   17.9356 H   0  0  0  0  0  0
  -30.4212  -21.2076   18.2547 H   0  0  0  0  0  0
  -28.4086  -21.2321   20.5046 H   0  0  0  0  0  0
  -29.8985  -23.2843   18.6464 H   0  0  0  0  0  0
  -27.6281  -23.9387   20.5500 H   0  0  0  0  0  0
  -27.9807  -25.5996   18.3316 H   0  0  0  0  0  0
  -29.6083  -25.5830   18.8731 H   0  0  0  0  0  0
  -29.0171  -15.6122   20.9382 H   0  0  0  0  0  0
  1 25  1  0  0  0
  1 30  2  0  0  0
  1 82  1  0  0  0
  2  3  1  0  0  0
  2 25  1  0  0  0
  2 84  1  0  0  0
  2 85  1  0  0  0
  3  4  1  0  0  0
  3 86  1  0  0  0
  3 87  1  0  0  0
  4  5  1  0  0  0
  4 88  1  0  0  0
  4 89  1  0  0  0
  5  6  1  0  0  0
  5 26  1  0  0  0
  5 90  1  0  0  0
  6 25  1  0  0  0
  6 91  1  0  0  0
  6 92  1  0  0  0
  7  8  2  0  0  0
  7 26  1  0  0  0
  7 29  1  0  0  0
  8  9  1  0  0  0
  8 22  1  0  0  0
  9 10  1  0  0  0
  9 27  2  0  0  0
 10 11  2  0  0  0
 10 15  1  0  0  0
 11 12  1  0  0  0
 11 93  1  0  0  0
 12 13  2  0  0  0
 12 94  1  0  0  0
 13 14  1  0  0  0
 13 31  1  0  0  0
 14 15  2  0  0  0
 14 95  1  0  0  0
 15 96  1  0  0  0
 16 17  2  0  0  0
 16 21  1  0  0  0
 16 31  1  0  0  0
 17 18  1  0  0  0
 17 97  1  0  0  0
 18 19  2  0  0  0
 18 98  1  0  0  0
 19 20  1  0  0  0
 19 24  1  0  0  0
 20 21  2  0  0  0
 20 99  1  0  0  0
 21 23  1  0  0  0
 22 28  1  0  0  0
 22 32  2  0  0  0
 26 27  1  0  0  0
 28100  1  0  0  0
 28101  1  0  0  0
 29102  1  0  0  0
 29103  1  0  0  0
 33 34  1  0  0  0
 33 66  1  0  0  0
 33 70  2  0  0  0
 34 36  1  0  0  0
 34 59  1  0  0  0
 34104  1  0  0  0
 35 44  2  0  0  0
 35 45  1  0  0  0
 35 68  1  0  0  0
 36 56  1  0  0  0
 36105  1  0  0  0
 37 39  1  0  0  0
 37 47  1  0  0  0
 37 66  1  0  0  0
 37106  1  0  0  0
 38 43  2  0  0  0
 38 46  1  0  0  0
 38 47  1  0  0  0
 39 64  1  0  0  0
 39 67  2  0  0  0
 40 52  1  0  0  0
 40 53  2  0  0  0
 40 58  1  0  0  0
 41107  1  0  0  0
 41108  1  0  0  0
 41109  1  0  0  0
 41 48  1  0  0  0
 42 43  1  0  0  0
 42 66  1  0  0  0
 42110  1  0  0  0
 42111  1  0  0  0
 43 44  1  0  0  0
 44112  1  0  0  0
 45 46  2  0  0  0
 45113  1  0  0  0
 46114  1  0  0  0
 47115  1  0  0  0
 47116  1  0  0  0
 48 56  1  0  0  0
 48 65  1  0  0  0
 48117  1  0  0  0
 49 50  1  0  0  0
 49 53  1  0  0  0
 49 64  1  0  0  0
 49118  1  0  0  0
 50 51  1  0  0  0
 50119  1  0  0  0
 50120  1  0  0  0
 51 52  1  0  0  0
 51121  1  0  0  0
 51122  1  0  0  0
 52123  1  0  0  0
 52124  1  0  0  0
 53 54  1  0  0  0
 54 55  2  0  0  0
 54125  1  0  0  0
 55 57  1  0  0  0
 55126  1  0  0  0
 56 69  2  0  0  0
 57 58  2  0  0  0
 57127  1  0  0  0
 58128  1  0  0  0
 59 60  1  0  0  0
 59 61  1  0  0  0
 59 62  1  0  0  0
 60129  1  0  0  0
 60130  1  0  0  0
 60131  1  0  0  0
 61132  1  0  0  0
 61133  1  0  0  0
 61134  1  0  0  0
 62135  1  0  0  0
 62136  1  0  0  0
 62137  1  0  0  0
 63 65  1  0  0  0
 63138  1  0  0  0
 63139  1  0  0  0
 63140  1  0  0  0
 64141  1  0  0  0
 65142  1  0  0  0
 68 81  1  0  0  0
 71 74  2  0  0  0
 71 75  1  0  0  0
 71143  1  0  0  0
 72 74  1  0  0  0
 72 76  2  0  0  0
 72144  1  0  0  0
 73 75  2  0  0  0
 73 76  1  0  0  0
 73145  1  0  0  0
 74 77  1  0  0  0
 75 82  1  0  0  0
 76 83  1  0  0  0
 77 78  2  0  0  0
 77146  1  0  0  0
 78 79  1  0  0  0
 78147  1  0  0  0
 79 80  2  0  0  0
 79148  1  0  0  0
 80 81  1  0  0  0
 80149  1  0  0  0
 81150  1  0  0  0
 81151  1  0  0  0
 82152  1  0  0  0
M  ISO  4   1 100  68 101  81 101  82 100
M  END
> <chiral flag>
0

> <version>
0

> <s_m_source_file>
/data/baiqing/PycharmProjects/Reinvent-master-3.2/result/LINK_invent/BTK/process_docking_weight1_custom_product_contain_oxygen_bond_distance_aromatic_linkinvent_7_9_3/rearranged_h_0048.sdf

> <i_m_source_file_index>
83

> <r_mmod_Potential_Energy-OPLS-2005>
100.959625244141

> <r_mmod_Stretch_Energy-OPLS-2005>
55.6351623535156

> <r_mmod_Bend_Energy-OPLS-2005>
148.066284179688

> <r_mmod_Torsional_Energy-OPLS-2005>
244.469909667969

> <r_mmod_Improper_Torsional_Energy-OPLS-2005>
9.58992671966553

> <r_mmod_Van_der_Waal_Energy-OPLS-2005>
153.278305053711

> <r_mmod_Electrostatic_Energy-OPLS-2005>
-333.465454101562

> <r_mmod_Solvation_Energy-OPLS-2005>
-208.365432739258

> <b_mmod_Minimization_Converged-OPLS-2005>
0

> <r_mmod_RMS_Derivative-OPLS-2005>
0.216479733586311

$$$$
83
                    3D
 Structure written by MMmdl.
157165  0  0  1  0            999 V2000
  -30.6300  -14.7288   20.4414 C   0  0  0  0  0  0
  -30.4266  -12.4393   19.4819 C   0  0  0  0  0  0
  -29.5103  -12.5042   18.2403 C   0  0  0  0  0  0
  -28.0360  -12.3326   18.6517 C   0  0  0  0  0  0
  -27.6426  -13.2346   19.8522 C   0  0  2  0  0  0
  -28.6857  -13.1737   20.9903 C   0  0  0  0  0  0
  -25.2508  -13.8208   20.5698 C   0  0  0  0  0  0
  -24.1798  -13.0450   20.9206 C   0  0  0  0  0  0
  -24.6392  -11.6928   20.8749 C   0  0  0  0  0  0
  -23.9070  -10.4301   21.0407 C   0  0  0  0  0  0
  -24.3619   -9.4214   21.9183 C   0  0  0  0  0  0
  -23.6294   -8.2249   22.0755 C   0  0  0  0  0  0
  -22.4273   -8.0286   21.3548 C   0  0  0  0  0  0
  -21.9909   -9.0259   20.4649 C   0  0  0  0  0  0
  -22.7241  -10.2139   20.3056 C   0  0  0  0  0  0
  -21.6855   -6.0735   22.5279 C   0  0  0  0  0  0
  -21.4018   -6.5639   23.8213 C   0  0  0  0  0  0
  -21.3659   -5.6792   24.9175 C   0  0  0  0  0  0
  -21.6043   -4.3054   24.7225 C   0  0  0  0  0  0
  -21.8819   -3.8146   23.4345 C   0  0  0  0  0  0
  -21.9193   -4.6964   22.3402 C   0  0  0  0  0  0
  -22.7817  -13.5228   21.1862 C   0  0  0  0  0  0
  -22.1661   -4.2149   21.0981 F   0  0  0  0  0  0
  -21.5626   -3.4538   25.7737 F   0  0  0  0  0  0
  -29.9924  -13.5086   20.4119 N   0  0  0  0  0  0
  -26.2939  -12.9422   20.3289 N   0  0  0  0  0  0
  -25.9324  -11.6561   20.5756 N   0  0  0  0  0  0
  -22.0460  -12.8223   22.0421 N   0  0  0  0  0  0
  -25.4200  -15.1933   20.4122 N   0  0  0  0  0  0
  -31.8214  -14.7930   20.1256 O   0  0  0  0  0  0
  -21.6642   -6.8879   21.4240 O   0  0  0  0  0  0
  -22.3501  -14.5531   20.6705 O   0  0  0  0  0  0
  -24.6319  -31.8561   23.2002 C   0  0  0  0  0  0
  -25.9147  -32.4756   23.8343 C   0  0  1  0  0  0
  -27.2122  -27.2589   20.1246 C   0  0  0  0  0  0
  -25.5944  -33.8559   24.2263 N   0  0  0  0  0  0
  -23.4281  -30.4812   21.5436 C   0  0  2  0  0  0
  -24.8745  -28.9349   20.1066 C   0  0  0  0  0  0
  -22.7508  -29.4607   22.4908 C   0  0  0  0  0  0
  -18.0295  -28.1387   22.8483 C   0  0  0  0  0  0
  -24.1492  -36.7283   23.2639 C   0  0  0  0  0  0
  -25.9761  -30.7669   21.3836 C   0  0  0  0  0  0
  -26.0468  -29.3912   20.7225 C   0  0  0  0  0  0
  -27.2176  -28.5646   20.7246 C   0  0  0  0  0  0
  -26.0201  -26.8870   19.4581 C   0  0  0  0  0  0
  -24.8671  -27.6911   19.4630 C   0  0  0  0  0  0
  -23.6460  -29.8215   20.1576 C   0  0  0  0  0  0
  -25.4118  -36.3068   24.0327 C   0  0  1  0  0  0
  -20.5901  -28.3699   23.1264 C   0  0  2  0  0  0
  -20.6783  -26.9416   22.5404 C   0  0  0  0  0  0
  -19.5757  -26.6384   21.5210 C   0  0  0  0  0  0
  -18.1937  -26.7930   22.1623 C   0  0  0  0  0  0
  -19.1549  -28.8861   23.2869 C   0  0  0  0  0  0
  -18.9468  -30.1460   23.8889 C   0  0  0  0  0  0
  -17.6466  -30.6586   24.0561 C   0  0  0  0  0  0
  -25.9059  -34.9438   23.5094 C   0  0  0  0  0  0
  -16.5358  -29.9081   23.6331 C   0  0  0  0  0  0
  -16.7281  -28.6499   23.0352 C   0  0  0  0  0  0
  -26.4512  -31.6582   25.0734 C   0  0  0  0  0  0
  -25.3730  -31.3734   26.1449 C   0  0  0  0  0  0
  -27.0363  -30.2996   24.6234 C   0  0  0  0  0  0
  -27.6062  -32.4329   25.7506 C   0  0  0  0  0  0
  -27.5579  -37.1797   24.8466 C   0  0  0  0  0  0
  -21.4216  -29.3047   22.3652 N   0  0  0  0  0  0
  -26.4292  -37.3767   23.9408 N   0  0  0  0  0  0
  -24.6977  -31.0527   22.0982 N   0  0  0  0  0  0
  -23.4209  -28.8142   23.3001 O   0  0  0  0  0  0
  -28.2870  -26.3377   20.2095 O   0  0  0  0  0  0
  -26.5627  -34.8913   22.4661 O   0  0  0  0  0  0
  -23.5469  -32.1387   23.7294 O   0  0  0  0  0  0
  -30.8575  -17.4091   18.9342 C   0  0  0  0  0  0
  -31.1394  -18.6748   18.3912 C   0  0  0  0  0  0
  -29.6160  -18.5048   20.7044 C   0  0  0  0  0  0
  -29.8832  -19.8405   20.1652 C   0  0  0  0  0  0
  -30.1243  -17.2632   20.1312 C   0  0  0  0  0  0
  -30.7083  -19.8741   18.9992 C   0  0  0  0  0  0
  -28.9510  -23.7369   20.5148 C   0  0  0  0  0  0
  -27.5383  -21.9717   19.5022 C   0  0  0  0  0  0
  -29.4355  -21.1845   20.9153 C   0  0  0  0  0  0
  -28.0016  -24.8840   19.9181 C   0  0  0  0  0  0
  -29.8878  -15.8872   20.6510 N   0  0  0  0  0  0
  -28.7322  -22.3761   20.2497 N   0  0  0  0  0  0
  -29.8727  -24.0937   21.2547 O   0  0  0  0  0  0
  -31.5881  -22.4389   19.2458 O   0  0  0  0  0  0
  -32.4416  -21.0533   17.2873 O   0  0  0  0  0  0
  -31.3641  -21.3865   18.2392 S   0  0  0  0  0  0
  -29.7591  -22.0421   17.0279 Cl  0  0  0  0  0  0
  -31.4707  -12.5440   19.1825 H   0  0  0  0  0  0
  -30.3540  -11.4638   19.9654 H   0  0  0  0  0  0
  -29.7900  -11.7327   17.5215 H   0  0  0  0  0  0
  -29.6428  -13.4603   17.7313 H   0  0  0  0  0  0
  -27.8908  -11.2844   18.9157 H   0  0  0  0  0  0
  -27.3801  -12.5249   17.8018 H   0  0  0  0  0  0
  -27.6372  -14.2555   19.4696 H   0  0  0  0  0  0
  -28.7124  -12.1814   21.4422 H   0  0  0  0  0  0
  -28.4241  -13.8673   21.7906 H   0  0  0  0  0  0
  -25.2763   -9.5690   22.4761 H   0  0  0  0  0  0
  -24.0004   -7.4638   22.7472 H   0  0  0  0  0  0
  -21.0840   -8.8777   19.8954 H   0  0  0  0  0  0
  -22.3697  -10.9676   19.6166 H   0  0  0  0  0  0
  -21.2015   -7.6149   23.9716 H   0  0  0  0  0  0
  -21.1480   -6.0522   25.9077 H   0  0  0  0  0  0
  -22.0598   -2.7608   23.2846 H   0  0  0  0  0  0
  -22.4077  -11.9894   22.4824 H   0  0  0  0  0  0
  -21.1076  -13.1250   22.2616 H   0  0  0  0  0  0
  -24.6511  -15.8462   20.5196 H   0  0  0  0  0  0
  -26.2677  -15.6338   20.0781 H   0  0  0  0  0  0
  -26.7213  -32.5403   23.1083 H   0  0  0  0  0  0
  -25.0092  -33.9698   25.0409 H   0  0  0  0  0  0
  -22.7244  -31.3038   21.4007 H   0  0  0  0  0  0
  -23.3753  -35.9616   23.3301 H   0  0  0  0  0  0
  -24.3582  -36.8905   22.2054 H   0  0  0  0  0  0
  -23.7250  -37.6485   23.6665 H   0  0  0  0  0  0
  -26.1205  -31.5293   20.6168 H   0  0  0  0  0  0
  -26.8517  -30.8112   22.0195 H   0  0  0  0  0  0
  -28.1100  -28.9040   21.2316 H   0  0  0  0  0  0
  -25.9357  -25.9473   18.9341 H   0  0  0  0  0  0
  -23.9735  -27.3414   18.9645 H   0  0  0  0  0  0
  -23.7707  -30.6009   19.4050 H   0  0  0  0  0  0
  -22.7638  -29.2569   19.8503 H   0  0  0  0  0  0
  -25.1300  -36.1914   25.0819 H   0  0  0  0  0  0
  -20.9993  -28.3276   24.1385 H   0  0  0  0  0  0
  -20.5684  -26.2308   23.3608 H   0  0  0  0  0  0
  -21.6650  -26.7439   22.1197 H   0  0  0  0  0  0
  -19.6917  -25.6293   21.1243 H   0  0  0  0  0  0
  -19.6693  -27.3190   20.6736 H   0  0  0  0  0  0
  -17.4205  -26.6674   21.4027 H   0  0  0  0  0  0
  -18.0339  -26.0074   22.9022 H   0  0  0  0  0  0
  -19.7943  -30.7279   24.2255 H   0  0  0  0  0  0
  -17.5018  -31.6265   24.5163 H   0  0  0  0  0  0
  -15.5356  -30.2978   23.7660 H   0  0  0  0  0  0
  -15.8682  -28.0814   22.7072 H   0  0  0  0  0  0
  -24.5911  -30.7078   25.7775 H   0  0  0  0  0  0
  -24.8916  -32.2903   26.4859 H   0  0  0  0  0  0
  -25.8045  -30.8921   27.0235 H   0  0  0  0  0  0
  -26.2953  -29.6735   24.1251 H   0  0  0  0  0  0
  -27.4029  -29.7270   25.4764 H   0  0  0  0  0  0
  -27.8840  -30.4264   23.9495 H   0  0  0  0  0  0
  -27.2667  -33.3635   26.2067 H   0  0  0  0  0  0
  -28.3878  -32.6881   25.0338 H   0  0  0  0  0  0
  -28.0724  -31.8467   26.5436 H   0  0  0  0  0  0
  -28.2595  -38.0094   24.7507 H   0  0  0  0  0  0
  -28.1076  -36.2624   24.6298 H   0  0  0  0  0  0
  -27.2297  -37.1453   25.8868 H   0  0  0  0  0  0
  -20.9400  -29.8774   21.6863 H   0  0  0  0  0  0
  -26.0169  -38.2840   24.1402 H   0  0  0  0  0  0
  -31.2365  -16.5465   18.4057 H   0  0  0  0  0  0
  -31.7396  -18.7187   17.4949 H   0  0  0  0  0  0
  -29.0324  -18.4371   21.6119 H   0  0  0  0  0  0
  -26.6422  -22.1455   20.0992 H   0  0  0  0  0  0
  -27.5544  -20.9121   19.2469 H   0  0  0  0  0  0
  -27.4308  -22.5205   18.5669 H   0  0  0  0  0  0
  -30.3304  -21.5564   21.4157 H   0  0  0  0  0  0
  -28.7839  -20.8804   21.7354 H   0  0  0  0  0  0
  -27.0139  -24.6334   20.3058 H   0  0  0  0  0  0
  -27.9679  -24.7624   18.8350 H   0  0  0  0  0  0
  -28.9918  -15.7387   21.0905 H   0  0  0  0  0  0
  1 25  1  0  0  0
  1 30  2  0  0  0
  1 81  1  0  0  0
  2  3  1  0  0  0
  2 25  1  0  0  0
  2 88  1  0  0  0
  2 89  1  0  0  0
  3  4  1  0  0  0
  3 90  1  0  0  0
  3 91  1  0  0  0
  4  5  1  0  0  0
  4 92  1  0  0  0
  4 93  1  0  0  0
  5  6  1  0  0  0
  5 26  1  0  0  0
  5 94  1  0  0  0
  6 25  1  0  0  0
  6 95  1  0  0  0
  6 96  1  0  0  0
  7  8  2  0  0  0
  7 26  1  0  0  0
  7 29  1  0  0  0
  8  9  1  0  0  0
  8 22  1  0  0  0
  9 10  1  0  0  0
  9 27  2  0  0  0
 10 11  2  0  0  0
 10 15  1  0  0  0
 11 12  1  0  0  0
 11 97  1  0  0  0
 12 13  2  0  0  0
 12 98  1  0  0  0
 13 14  1  0  0  0
 13 31  1  0  0  0
 14 15  2  0  0  0
 14 99  1  0  0  0
 15100  1  0  0  0
 16 17  2  0  0  0
 16 21  1  0  0  0
 16 31  1  0  0  0
 17 18  1  0  0  0
 17101  1  0  0  0
 18 19  2  0  0  0
 18102  1  0  0  0
 19 20  1  0  0  0
 19 24  1  0  0  0
 20 21  2  0  0  0
 20103  1  0  0  0
 21 23  1  0  0  0
 22 28  1  0  0  0
 22 32  2  0  0  0
 26 27  1  0  0  0
 28104  1  0  0  0
 28105  1  0  0  0
 29106  1  0  0  0
 29107  1  0  0  0
 33 34  1  0  0  0
 33 66  1  0  0  0
 33 70  2  0  0  0
 34 36  1  0  0  0
 34 59  1  0  0  0
 34108  1  0  0  0
 35 44  2  0  0  0
 35 45  1  0  0  0
 35 68  1  0  0  0
 36 56  1  0  0  0
 36109  1  0  0  0
 37 39  1  0  0  0
 37 47  1  0  0  0
 37 66  1  0  0  0
 37110  1  0  0  0
 38 43  2  0  0  0
 38 46  1  0  0  0
 38 47  1  0  0  0
 39 64  1  0  0  0
 39 67  2  0  0  0
 40 52  1  0  0  0
 40 53  2  0  0  0
 40 58  1  0  0  0
 41111  1  0  0  0
 41112  1  0  0  0
 41113  1  0  0  0
 41 48  1  0  0  0
 42 43  1  0  0  0
 42 66  1  0  0  0
 42114  1  0  0  0
 42115  1  0  0  0
 43 44  1  0  0  0
 44116  1  0  0  0
 45 46  2  0  0  0
 45117  1  0  0  0
 46118  1  0  0  0
 47119  1  0  0  0
 47120  1  0  0  0
 48 56  1  0  0  0
 48 65  1  0  0  0
 48121  1  0  0  0
 49 50  1  0  0  0
 49 53  1  0  0  0
 49 64  1  0  0  0
 49122  1  0  0  0
 50 51  1  0  0  0
 50123  1  0  0  0
 50124  1  0  0  0
 51 52  1  0  0  0
 51125  1  0  0  0
 51126  1  0  0  0
 52127  1  0  0  0
 52128  1  0  0  0
 53 54  1  0  0  0
 54 55  2  0  0  0
 54129  1  0  0  0
 55 57  1  0  0  0
 55130  1  0  0  0
 56 69  2  0  0  0
 57 58  2  0  0  0
 57131  1  0  0  0
 58132  1  0  0  0
 59 60  1  0  0  0
 59 61  1  0  0  0
 59 62  1  0  0  0
 60133  1  0  0  0
 60134  1  0  0  0
 60135  1  0  0  0
 61136  1  0  0  0
 61137  1  0  0  0
 61138  1  0  0  0
 62139  1  0  0  0
 62140  1  0  0  0
 62141  1  0  0  0
 63 65  1  0  0  0
 63142  1  0  0  0
 63143  1  0  0  0
 63144  1  0  0  0
 64145  1  0  0  0
 65146  1  0  0  0
 68 80  1  0  0  0
 71 72  2  0  0  0
 71 75  1  0  0  0
 71147  1  0  0  0
 72 76  1  0  0  0
 72148  1  0  0  0
 73 74  1  0  0  0
 73 75  2  0  0  0
 73149  1  0  0  0
 74 76  2  0  0  0
 74 79  1  0  0  0
 75 81  1  0  0  0
 76 86  1  0  0  0
 77 80  1  0  0  0
 77 82  1  0  0  0
 77 83  2  0  0  0
 78 82  1  0  0  0
 78150  1  0  0  0
 78151  1  0  0  0
 78152  1  0  0  0
 79 82  1  0  0  0
 79153  1  0  0  0
 79154  1  0  0  0
 80155  1  0  0  0
 80156  1  0  0  0
 81157  1  0  0  0
 84 86  2  0  0  0
 85 86  2  0  0  0
 86 87  1  0  0  0
M  ISO  4   1 100  68 101  80 101  81 100
M  END
> <chiral flag>
0

> <version>
0

> <s_m_source_file>
/data/baiqing/PycharmProjects/Reinvent-master-3.2/result/LINK_invent/BTK/process_docking_weight1_custom_product_contain_oxygen_bond_distance_aromatic_linkinvent_7_9_3/rearranged_h_0048.sdf

> <i_m_source_file_index>
84

> <r_mmod_Potential_Energy-OPLS-2005>
222.748641967773

> <r_mmod_Stretch_Energy-OPLS-2005>
134.249893188477

> <r_mmod_Bend_Energy-OPLS-2005>
168.370590209961

> <r_mmod_Torsional_Energy-OPLS-2005>
244.305206298828

> <r_mmod_Improper_Torsional_Energy-OPLS-2005>
5.64887428283691

> <r_mmod_Van_der_Waal_Energy-OPLS-2005>
143.608673095703

> <r_mmod_Electrostatic_Energy-OPLS-2005>
-281.247711181641

> <r_mmod_Solvation_Energy-OPLS-2005>
-278.501892089844

> <b_mmod_Minimization_Converged-OPLS-2005>
0

> <r_mmod_RMS_Derivative-OPLS-2005>
0.44962066411972

$$$$
84
                    3D
 Structure written by MMmdl.
154162  0  0  1  0            999 V2000
  -30.6632  -14.5512   20.5418 C   0  0  0  0  0  0
  -30.4357  -12.3450   19.4350 C   0  0  0  0  0  0
  -29.5027  -12.4882   18.2134 C   0  0  0  0  0  0
  -28.0241  -12.3366   18.6282 C   0  0  0  0  0  0
  -27.6546  -13.2048   19.8600 C   0  0  2  0  0  0
  -28.6996  -13.0342   20.9866 C   0  0  0  0  0  0
  -25.2572  -13.8154   20.5672 C   0  0  0  0  0  0
  -24.1824  -13.0438   20.9189 C   0  0  0  0  0  0
  -24.6369  -11.6898   20.8723 C   0  0  0  0  0  0
  -23.9028  -10.4289   21.0388 C   0  0  0  0  0  0
  -24.3581   -9.4216   21.9176 C   0  0  0  0  0  0
  -23.6275   -8.2242   22.0743 C   0  0  0  0  0  0
  -22.4260   -8.0264   21.3533 C   0  0  0  0  0  0
  -21.9880   -9.0236   20.4642 C   0  0  0  0  0  0
  -22.7190  -10.2132   20.3051 C   0  0  0  0  0  0
  -21.6856   -6.0715   22.5275 C   0  0  0  0  0  0
  -21.4012   -6.5622   23.8205 C   0  0  0  0  0  0
  -21.3663   -5.6775   24.9170 C   0  0  0  0  0  0
  -21.6041   -4.3043   24.7223 C   0  0  0  0  0  0
  -21.8824   -3.8130   23.4340 C   0  0  0  0  0  0
  -21.9190   -4.6942   22.3395 C   0  0  0  0  0  0
  -22.7852  -13.5243   21.1838 C   0  0  0  0  0  0
  -22.1663   -4.2122   21.0977 F   0  0  0  0  0  0
  -21.5637   -3.4532   25.7741 F   0  0  0  0  0  0
  -30.0209  -13.3536   20.4234 N   0  0  0  0  0  0
  -26.2984  -12.9310   20.3290 N   0  0  0  0  0  0
  -25.9293  -11.6475   20.5735 N   0  0  0  0  0  0
  -22.0469  -12.8269   22.0399 N   0  0  0  0  0  0
  -25.4294  -15.1874   20.4094 N   0  0  0  0  0  0
  -31.8300  -14.7141   20.1746 O   0  0  0  0  0  0
  -21.6627   -6.8857   21.4238 O   0  0  0  0  0  0
  -22.3545  -14.5543   20.6660 O   0  0  0  0  0  0
  -24.6183  -31.8652   23.2067 C   0  0  0  0  0  0
  -25.9059  -32.4809   23.8383 C   0  0  1  0  0  0
  -27.2301  -27.3942   20.1104 C   0  0  0  0  0  0
  -25.5900  -33.8605   24.2309 N   0  0  0  0  0  0
  -23.4081  -30.4877   21.5479 C   0  0  2  0  0  0
  -24.8555  -28.9451   20.1182 C   0  0  0  0  0  0
  -22.7428  -29.4649   22.4977 C   0  0  0  0  0  0
  -18.0276  -28.1370   22.8495 C   0  0  0  0  0  0
  -24.1485  -36.7309   23.2636 C   0  0  0  0  0  0
  -25.9410  -30.8174   21.3672 C   0  0  0  0  0  0
  -26.0179  -29.4477   20.7181 C   0  0  0  0  0  0
  -27.2108  -28.6803   20.7095 C   0  0  0  0  0  0
  -26.0541  -26.9191   19.4964 C   0  0  0  0  0  0
  -24.8707  -27.6825   19.5013 C   0  0  0  0  0  0
  -23.6192  -29.8168   20.1651 C   0  0  0  0  0  0
  -25.4101  -36.3101   24.0343 C   0  0  1  0  0  0
  -20.5871  -28.3669   23.1301 C   0  0  2  0  0  0
  -20.6767  -26.9400   22.5409 C   0  0  0  0  0  0
  -19.5749  -26.6380   21.5203 C   0  0  0  0  0  0
  -18.1926  -26.7922   22.1613 C   0  0  0  0  0  0
  -19.1525  -28.8834   23.2897 C   0  0  0  0  0  0
  -18.9453  -30.1439   23.8910 C   0  0  0  0  0  0
  -17.6454  -30.6581   24.0556 C   0  0  0  0  0  0
  -25.9037  -34.9467   23.5124 C   0  0  0  0  0  0
  -16.5346  -29.9081   23.6319 C   0  0  0  0  0  0
  -16.7262  -28.6489   23.0357 C   0  0  0  0  0  0
  -26.4476  -31.6602   25.0726 C   0  0  0  0  0  0
  -25.3734  -31.3724   26.1470 C   0  0  0  0  0  0
  -27.0318  -30.3041   24.6127 C   0  0  0  0  0  0
  -27.6060  -32.4327   25.7464 C   0  0  0  0  0  0
  -27.5598  -37.1773   24.8442 C   0  0  0  0  0  0
  -21.4149  -29.3035   22.3706 N   0  0  0  0  0  0
  -26.4276  -37.3800   23.9441 N   0  0  0  0  0  0
  -24.6739  -31.0728   22.0982 N   0  0  0  0  0  0
  -23.4179  -28.8200   23.3036 O   0  0  0  0  0  0
  -28.3753  -26.6181   20.0640 O   0  0  0  0  0  0
  -26.5605  -34.8928   22.4687 O   0  0  0  0  0  0
  -23.5362  -32.1411   23.7446 O   0  0  0  0  0  0
  -31.4328  -18.6884   22.3437 C   0  0  0  0  0  0
  -30.7631  -19.7176   21.6494 C   0  0  0  0  0  0
  -31.1702  -17.3317   22.0561 C   0  0  0  0  0  0
  -29.5338  -18.0294   20.3932 C   0  0  0  0  0  0
  -29.8180  -19.4056   20.6500 C   0  0  0  0  0  0
  -30.2122  -16.9799   21.0798 C   0  0  0  0  0  0
  -28.9054  -23.0309   20.1310 C   0  0  0  0  0  0
  -29.2001  -20.5322   19.7908 C   0  0  0  0  0  0
  -27.9045  -24.1140   20.6241 C   0  0  0  0  0  0
  -28.4618  -25.5293   21.0183 C   0  0  0  0  0  0
  -29.8633  -15.6012   20.8598 N   0  0  0  0  0  0
  -28.6824  -21.7390   20.4812 N   0  0  0  0  0  0
  -29.8291  -23.3516   19.3810 O   0  0  0  0  0  0
  -31.4772  -12.4645   19.1313 H   0  0  0  0  0  0
  -30.3616  -11.3445   19.8643 H   0  0  0  0  0  0
  -29.7591  -11.7416   17.4605 H   0  0  0  0  0  0
  -29.6566  -13.4618   17.7438 H   0  0  0  0  0  0
  -27.8567  -11.2845   18.8599 H   0  0  0  0  0  0
  -27.3684  -12.5694   17.7881 H   0  0  0  0  0  0
  -27.6818  -14.2409   19.5249 H   0  0  0  0  0  0
  -28.6936  -12.0090   21.3612 H   0  0  0  0  0  0
  -28.4538  -13.6636   21.8433 H   0  0  0  0  0  0
  -25.2724   -9.5718   22.4748 H   0  0  0  0  0  0
  -23.9987   -7.4642   22.7475 H   0  0  0  0  0  0
  -21.0801   -8.8752   19.8963 H   0  0  0  0  0  0
  -22.3629  -10.9664   19.6161 H   0  0  0  0  0  0
  -21.2007   -7.6131   23.9705 H   0  0  0  0  0  0
  -21.1484   -6.0504   25.9073 H   0  0  0  0  0  0
  -22.0600   -2.7588   23.2846 H   0  0  0  0  0  0
  -22.4050  -11.9947   22.4846 H   0  0  0  0  0  0
  -21.1094  -13.1342   22.2567 H   0  0  0  0  0  0
  -24.6608  -15.8406   20.5200 H   0  0  0  0  0  0
  -26.2728  -15.6285   20.0666 H   0  0  0  0  0  0
  -26.7126  -32.5510   23.1139 H   0  0  0  0  0  0
  -25.0049  -33.9758   25.0455 H   0  0  0  0  0  0
  -22.6988  -31.3057   21.4059 H   0  0  0  0  0  0
  -23.3765  -35.9616   23.3238 H   0  0  0  0  0  0
  -24.3601  -36.8984   22.2063 H   0  0  0  0  0  0
  -23.7196  -37.6480   23.6687 H   0  0  0  0  0  0
  -26.0605  -31.5805   20.5971 H   0  0  0  0  0  0
  -26.8258  -30.8700   21.9897 H   0  0  0  0  0  0
  -28.1103  -29.0689   21.1661 H   0  0  0  0  0  0
  -26.0527  -25.9597   19.0013 H   0  0  0  0  0  0
  -23.9806  -27.2955   19.0234 H   0  0  0  0  0  0
  -23.7274  -30.5877   19.4019 H   0  0  0  0  0  0
  -22.7434  -29.2364   19.8718 H   0  0  0  0  0  0
  -25.1262  -36.1949   25.0832 H   0  0  0  0  0  0
  -20.9965  -28.3237   24.1421 H   0  0  0  0  0  0
  -20.5655  -26.2278   23.3602 H   0  0  0  0  0  0
  -21.6641  -26.7433   22.1209 H   0  0  0  0  0  0
  -19.6911  -25.6291   21.1235 H   0  0  0  0  0  0
  -19.6695  -27.3186   20.6735 H   0  0  0  0  0  0
  -17.4199  -26.6672   21.4010 H   0  0  0  0  0  0
  -18.0330  -26.0054   22.8998 H   0  0  0  0  0  0
  -19.7928  -30.7245   24.2294 H   0  0  0  0  0  0
  -17.5009  -31.6268   24.5150 H   0  0  0  0  0  0
  -15.5346  -30.2985   23.7636 H   0  0  0  0  0  0
  -15.8664  -28.0803   22.7082 H   0  0  0  0  0  0
  -24.5882  -30.7104   25.7797 H   0  0  0  0  0  0
  -24.8955  -32.2890   26.4939 H   0  0  0  0  0  0
  -25.8073  -30.8859   27.0215 H   0  0  0  0  0  0
  -26.2870  -29.6777   24.1200 H   0  0  0  0  0  0
  -27.4102  -29.7304   25.4599 H   0  0  0  0  0  0
  -27.8700  -30.4358   23.9279 H   0  0  0  0  0  0
  -27.2695  -33.3622   26.2061 H   0  0  0  0  0  0
  -28.3839  -32.6891   25.0264 H   0  0  0  0  0  0
  -28.0761  -31.8441   26.5348 H   0  0  0  0  0  0
  -28.2534  -38.0155   24.7628 H   0  0  0  0  0  0
  -28.1180  -36.2698   24.6077 H   0  0  0  0  0  0
  -27.2352  -37.1189   25.8847 H   0  0  0  0  0  0
  -20.9319  -29.8746   21.6915 H   0  0  0  0  0  0
  -26.0161  -38.2860   24.1515 H   0  0  0  0  0  0
  -32.1620  -18.9431   23.1011 H   0  0  0  0  0  0
  -31.0023  -20.7519   21.8651 H   0  0  0  0  0  0
  -31.6955  -16.5650   22.6092 H   0  0  0  0  0  0
  -28.8014  -17.7763   19.6402 H   0  0  0  0  0  0
  -28.3794  -20.1190   19.2031 H   0  0  0  0  0  0
  -29.9575  -20.8220   19.0607 H   0  0  0  0  0  0
  -27.4040  -23.7024   21.5009 H   0  0  0  0  0  0
  -27.1228  -24.2122   19.8735 H   0  0  0  0  0  0
  -29.5137  -25.4288   21.2889 H   0  0  0  0  0  0
  -27.9734  -25.8446   21.9419 H   0  0  0  0  0  0
  -28.8819  -15.3798   20.9223 H   0  0  0  0  0  0
  -27.9251  -21.5722   21.1302 H   0  0  0  0  0  0
  1 25  1  0  0  0
  1 30  2  0  0  0
  1 81  1  0  0  0
  2  3  1  0  0  0
  2 25  1  0  0  0
  2 84  1  0  0  0
  2 85  1  0  0  0
  3  4  1  0  0  0
  3 86  1  0  0  0
  3 87  1  0  0  0
  4  5  1  0  0  0
  4 88  1  0  0  0
  4 89  1  0  0  0
  5  6  1  0  0  0
  5 26  1  0  0  0
  5 90  1  0  0  0
  6 25  1  0  0  0
  6 91  1  0  0  0
  6 92  1  0  0  0
  7  8  2  0  0  0
  7 26  1  0  0  0
  7 29  1  0  0  0
  8  9  1  0  0  0
  8 22  1  0  0  0
  9 10  1  0  0  0
  9 27  2  0  0  0
 10 11  2  0  0  0
 10 15  1  0  0  0
 11 12  1  0  0  0
 11 93  1  0  0  0
 12 13  2  0  0  0
 12 94  1  0  0  0
 13 14  1  0  0  0
 13 31  1  0  0  0
 14 15  2  0  0  0
 14 95  1  0  0  0
 15 96  1  0  0  0
 16 17  2  0  0  0
 16 21  1  0  0  0
 16 31  1  0  0  0
 17 18  1  0  0  0
 17 97  1  0  0  0
 18 19  2  0  0  0
 18 98  1  0  0  0
 19 20  1  0  0  0
 19 24  1  0  0  0
 20 21  2  0  0  0
 20 99  1  0  0  0
 21 23  1  0  0  0
 22 28  1  0  0  0
 22 32  2  0  0  0
 26 27  1  0  0  0
 28100  1  0  0  0
 28101  1  0  0  0
 29102  1  0  0  0
 29103  1  0  0  0
 33 34  1  0  0  0
 33 66  1  0  0  0
 33 70  2  0  0  0
 34 36  1  0  0  0
 34 59  1  0  0  0
 34104  1  0  0  0
 35 44  2  0  0  0
 35 45  1  0  0  0
 35 68  1  0  0  0
 36 56  1  0  0  0
 36105  1  0  0  0
 37 39  1  0  0  0
 37 47  1  0  0  0
 37 66  1  0  0  0
 37106  1  0  0  0
 38 43  2  0  0  0
 38 46  1  0  0  0
 38 47  1  0  0  0
 39 64  1  0  0  0
 39 67  2  0  0  0
 40 52  1  0  0  0
 40 53  2  0  0  0
 40 58  1  0  0  0
 41107  1  0  0  0
 41108  1  0  0  0
 41109  1  0  0  0
 41 48  1  0  0  0
 42 43  1  0  0  0
 42 66  1  0  0  0
 42110  1  0  0  0
 42111  1  0  0  0
 43 44  1  0  0  0
 44112  1  0  0  0
 45 46  2  0  0  0
 45113  1  0  0  0
 46114  1  0  0  0
 47115  1  0  0  0
 47116  1  0  0  0
 48 56  1  0  0  0
 48 65  1  0  0  0
 48117  1  0  0  0
 49 50  1  0  0  0
 49 53  1  0  0  0
 49 64  1  0  0  0
 49118  1  0  0  0
 50 51  1  0  0  0
 50119  1  0  0  0
 50120  1  0  0  0
 51 52  1  0  0  0
 51121  1  0  0  0
 51122  1  0  0  0
 52123  1  0  0  0
 52124  1  0  0  0
 53 54  1  0  0  0
 54 55  2  0  0  0
 54125  1  0  0  0
 55 57  1  0  0  0
 55126  1  0  0  0
 56 69  2  0  0  0
 57 58  2  0  0  0
 57127  1  0  0  0
 58128  1  0  0  0
 59 60  1  0  0  0
 59 61  1  0  0  0
 59 62  1  0  0  0
 60129  1  0  0  0
 60130  1  0  0  0
 60131  1  0  0  0
 61132  1  0  0  0
 61133  1  0  0  0
 61134  1  0  0  0
 62135  1  0  0  0
 62136  1  0  0  0
 62137  1  0  0  0
 63 65  1  0  0  0
 63138  1  0  0  0
 63139  1  0  0  0
 63140  1  0  0  0
 64141  1  0  0  0
 65142  1  0  0  0
 68 80  1  0  0  0
 71 72  2  0  0  0
 71 73  1  0  0  0
 71143  1  0  0  0
 72 75  1  0  0  0
 72144  1  0  0  0
 73 76  2  0  0  0
 73145  1  0  0  0
 74 75  2  0  0  0
 74 76  1  0  0  0
 74146  1  0  0  0
 75 78  1  0  0  0
 76 81  1  0  0  0
 77 79  1  0  0  0
 77 82  1  0  0  0
 77 83  2  0  0  0
 78 82  1  0  0  0
 78147  1  0  0  0
 78148  1  0  0  0
 79 80  1  0  0  0
 79149  1  0  0  0
 79150  1  0  0  0
 80151  1  0  0  0
 80152  1  0  0  0
 81153  1  0  0  0
 82154  1  0  0  0
M  ISO  4   1 100  68 101  80 101  81 100
M  END
> <chiral flag>
0

> <version>
0

> <s_m_source_file>
/data/baiqing/PycharmProjects/Reinvent-master-3.2/result/LINK_invent/BTK/process_docking_weight1_custom_product_contain_oxygen_bond_distance_aromatic_linkinvent_7_9_3/rearranged_h_0048.sdf

> <i_m_source_file_index>
85

> <r_mmod_Potential_Energy-OPLS-2005>
-92.7453842163086

> <r_mmod_Stretch_Energy-OPLS-2005>
48.0562591552734

> <r_mmod_Bend_Energy-OPLS-2005>
107.80362701416

> <r_mmod_Torsional_Energy-OPLS-2005>
253.35368347168

> <r_mmod_Improper_Torsional_Energy-OPLS-2005>
6.87163639068604

> <r_mmod_Van_der_Waal_Energy-OPLS-2005>
140.314483642578

> <r_mmod_Electrostatic_Energy-OPLS-2005>
-425.889587402344

> <r_mmod_Solvation_Energy-OPLS-2005>
-247.014984130859

> <b_mmod_Minimization_Converged-OPLS-2005>
0

> <r_mmod_RMS_Derivative-OPLS-2005>
1.8361736536026

$$$$
85
                    3D
 Structure written by MMmdl.
160168  0  0  1  0            999 V2000
  -30.6464  -14.5088   20.5908 C   0  0  0  0  0  0
  -30.4426  -12.3322   19.4321 C   0  0  0  0  0  0
  -29.5040  -12.5015   18.2167 C   0  0  0  0  0  0
  -28.0228  -12.3579   18.6195 C   0  0  0  0  0  0
  -27.6616  -13.2000   19.8732 C   0  0  2  0  0  0
  -28.6989  -12.9613   20.9938 C   0  0  0  0  0  0
  -25.2585  -13.8134   20.5687 C   0  0  0  0  0  0
  -24.1801  -13.0405   20.9148 C   0  0  0  0  0  0
  -24.6343  -11.6890   20.8711 C   0  0  0  0  0  0
  -23.8997  -10.4272   21.0389 C   0  0  0  0  0  0
  -24.3545   -9.4195   21.9166 C   0  0  0  0  0  0
  -23.6233   -8.2233   22.0734 C   0  0  0  0  0  0
  -22.4230   -8.0251   21.3531 C   0  0  0  0  0  0
  -21.9847   -9.0218   20.4636 C   0  0  0  0  0  0
  -22.7171  -10.2103   20.3033 C   0  0  0  0  0  0
  -21.6847   -6.0672   22.5273 C   0  0  0  0  0  0
  -21.4024   -6.5580   23.8215 C   0  0  0  0  0  0
  -21.3674   -5.6731   24.9173 C   0  0  0  0  0  0
  -21.6060   -4.2998   24.7218 C   0  0  0  0  0  0
  -21.8838   -3.8075   23.4352 C   0  0  0  0  0  0
  -21.9176   -4.6887   22.3399 C   0  0  0  0  0  0
  -22.7826  -13.5224   21.1781 C   0  0  0  0  0  0
  -22.1645   -4.2059   21.0987 F   0  0  0  0  0  0
  -21.5648   -3.4506   25.7756 F   0  0  0  0  0  0
  -30.0323  -13.2980   20.4639 N   0  0  0  0  0  0
  -26.3002  -12.9299   20.3332 N   0  0  0  0  0  0
  -25.9277  -11.6468   20.5724 N   0  0  0  0  0  0
  -22.0442  -12.8310   22.0407 N   0  0  0  0  0  0
  -25.4293  -15.1845   20.4160 N   0  0  0  0  0  0
  -31.7558  -14.7437   20.0983 O   0  0  0  0  0  0
  -21.6635   -6.8817   21.4239 O   0  0  0  0  0  0
  -22.3509  -14.5486   20.6571 O   0  0  0  0  0  0
  -24.6183  -31.8711   23.2114 C   0  0  0  0  0  0
  -25.9075  -32.4855   23.8433 C   0  0  1  0  0  0
  -27.2386  -27.4335   20.1100 C   0  0  0  0  0  0
  -25.5955  -33.8658   24.2403 N   0  0  0  0  0  0
  -23.4056  -30.4976   21.5504 C   0  0  2  0  0  0
  -24.8523  -28.9623   20.1222 C   0  0  0  0  0  0
  -22.7432  -29.4728   22.4992 C   0  0  0  0  0  0
  -18.0317  -28.1380   22.8470 C   0  0  0  0  0  0
  -24.1503  -36.7305   23.2646 C   0  0  0  0  0  0
  -25.9398  -30.8419   21.3617 C   0  0  0  0  0  0
  -26.0120  -29.4737   20.7137 C   0  0  0  0  0  0
  -27.2059  -28.7170   20.7041 C   0  0  0  0  0  0
  -26.0428  -26.9151   19.5674 C   0  0  0  0  0  0
  -24.8623  -27.6810   19.5435 C   0  0  0  0  0  0
  -23.6149  -29.8288   20.1674 C   0  0  0  0  0  0
  -25.4121  -36.3163   24.0379 C   0  0  1  0  0  0
  -20.5894  -28.3713   23.1329 C   0  0  2  0  0  0
  -20.6856  -26.9473   22.5402 C   0  0  0  0  0  0
  -19.5827  -26.6407   21.5225 C   0  0  0  0  0  0
  -18.2013  -26.7916   22.1638 C   0  0  0  0  0  0
  -19.1552  -28.8855   23.2915 C   0  0  0  0  0  0
  -18.9435  -30.1450   23.8936 C   0  0  0  0  0  0
  -17.6422  -30.6582   24.0549 C   0  0  0  0  0  0
  -25.9042  -34.9508   23.5187 C   0  0  0  0  0  0
  -16.5336  -29.9059   23.6282 C   0  0  0  0  0  0
  -16.7296  -28.6476   23.0306 C   0  0  0  0  0  0
  -26.4471  -31.6602   25.0740 C   0  0  0  0  0  0
  -25.3738  -31.3650   26.1474 C   0  0  0  0  0  0
  -27.0316  -30.3050   24.6109 C   0  0  0  0  0  0
  -27.6095  -32.4291   25.7466 C   0  0  0  0  0  0
  -27.5617  -37.1809   24.8466 C   0  0  0  0  0  0
  -21.4165  -29.3105   22.3767 N   0  0  0  0  0  0
  -26.4318  -37.3817   23.9429 N   0  0  0  0  0  0
  -24.6740  -31.0847   22.0979 N   0  0  0  0  0  0
  -23.4229  -28.8269   23.3012 O   0  0  0  0  0  0
  -28.4445  -26.7526   20.1020 O   0  0  0  0  0  0
  -26.5549  -34.8947   22.4716 O   0  0  0  0  0  0
  -23.5356  -32.1450   23.7515 O   0  0  0  0  0  0
  -30.2247  -18.9100   19.7399 C   0  0  0  0  0  0
  -30.4948  -17.5516   20.0021 C   0  0  0  0  0  0
  -28.8035  -17.5802   21.7351 C   0  0  0  0  0  0
  -29.2413  -19.6344   20.4490 C   0  0  0  0  0  0
  -28.5224  -18.9532   21.4792 C   0  0  0  0  0  0
  -29.7697  -16.8532   20.9928 C   0  0  0  0  0  0
  -28.9834  -21.0530   19.9720 C   0  0  0  0  0  0
  -27.4153  -19.6094   22.2990 C   0  0  0  0  0  0
  -28.3315  -26.0063   17.7245 C   0  0  0  0  0  0
  -28.2998  -24.2604   19.7020 C   0  0  0  0  0  0
  -29.4447  -23.4591   20.4026 C   0  0  0  0  0  0
  -28.7195  -25.6742   19.1875 C   0  0  2  0  0  0
  -29.9153  -15.4435   21.2456 N   0  0  0  0  0  0
  -29.1156  -22.0795   20.8310 N   0  0  0  0  0  0
  -28.8052  -21.2459   18.7670 O   0  0  0  0  0  0
  -31.4802  -12.4751   19.1226 H   0  0  0  0  0  0
  -30.3909  -11.3170   19.8309 H   0  0  0  0  0  0
  -29.7553  -11.7674   17.4507 H   0  0  0  0  0  0
  -29.6644  -13.4790   17.7610 H   0  0  0  0  0  0
  -27.8335  -11.3004   18.8185 H   0  0  0  0  0  0
  -27.3741  -12.6217   17.7840 H   0  0  0  0  0  0
  -27.7069  -14.2502   19.5816 H   0  0  0  0  0  0
  -28.6893  -11.9109   21.2859 H   0  0  0  0  0  0
  -28.4391  -13.5098   21.8999 H   0  0  0  0  0  0
  -25.2681   -9.5676   22.4739 H   0  0  0  0  0  0
  -23.9908   -7.4620   22.7478 H   0  0  0  0  0  0
  -21.0749   -8.8708   19.8982 H   0  0  0  0  0  0
  -22.3566  -10.9607   19.6126 H   0  0  0  0  0  0
  -21.2035   -7.6091   23.9685 H   0  0  0  0  0  0
  -21.1511   -6.0475   25.9072 H   0  0  0  0  0  0
  -22.0615   -2.7533   23.2881 H   0  0  0  0  0  0
  -22.3970  -12.0008   22.4904 H   0  0  0  0  0  0
  -21.1087  -13.1417   22.2601 H   0  0  0  0  0  0
  -24.6617  -15.8365   20.5428 H   0  0  0  0  0  0
  -26.2929  -15.6360   20.1399 H   0  0  0  0  0  0
  -26.7197  -32.5551   23.1245 H   0  0  0  0  0  0
  -25.0290  -33.9831   25.0671 H   0  0  0  0  0  0
  -22.6976  -31.3169   21.4108 H   0  0  0  0  0  0
  -23.3829  -35.9571   23.3236 H   0  0  0  0  0  0
  -24.3667  -36.8953   22.2084 H   0  0  0  0  0  0
  -23.7164  -37.6471   23.6649 H   0  0  0  0  0  0
  -26.0562  -31.6132   20.5983 H   0  0  0  0  0  0
  -26.8287  -30.8961   21.9788 H   0  0  0  0  0  0
  -28.1057  -29.1184   21.1527 H   0  0  0  0  0  0
  -25.9992  -25.9125   19.1730 H   0  0  0  0  0  0
  -23.9667  -27.2682   19.0992 H   0  0  0  0  0  0
  -23.7122  -30.6008   19.4039 H   0  0  0  0  0  0
  -22.7372  -29.2429   19.8813 H   0  0  0  0  0  0
  -25.1286  -36.2087   25.0873 H   0  0  0  0  0  0
  -20.9981  -28.3285   24.1451 H   0  0  0  0  0  0
  -20.5819  -26.2336   23.3586 H   0  0  0  0  0  0
  -21.6731  -26.7591   22.1165 H   0  0  0  0  0  0
  -19.7020  -25.6307   21.1290 H   0  0  0  0  0  0
  -19.6753  -27.3223   20.6759 H   0  0  0  0  0  0
  -17.4269  -26.6613   21.4080 H   0  0  0  0  0  0
  -18.0457  -26.0112   22.9086 H   0  0  0  0  0  0
  -19.7901  -30.7244   24.2393 H   0  0  0  0  0  0
  -17.4950  -31.6252   24.5150 H   0  0  0  0  0  0
  -15.5330  -30.2932   23.7553 H   0  0  0  0  0  0
  -15.8721  -28.0773   22.6990 H   0  0  0  0  0  0
  -24.6039  -30.6806   25.7812 H   0  0  0  0  0  0
  -24.8698  -32.2708   26.4838 H   0  0  0  0  0  0
  -25.8118  -30.8940   27.0277 H   0  0  0  0  0  0
  -26.2842  -29.6752   24.1236 H   0  0  0  0  0  0
  -27.4175  -29.7352   25.4581 H   0  0  0  0  0  0
  -27.8627  -30.4383   23.9194 H   0  0  0  0  0  0
  -27.2866  -33.3717   26.1920 H   0  0  0  0  0  0
  -28.3958  -32.6648   25.0259 H   0  0  0  0  0  0
  -28.0664  -31.8422   26.5447 H   0  0  0  0  0  0
  -28.2615  -38.0134   24.7592 H   0  0  0  0  0  0
  -28.1162  -36.2683   24.6208 H   0  0  0  0  0  0
  -27.2349  -37.1327   25.8870 H   0  0  0  0  0  0
  -20.9305  -29.8859   21.7031 H   0  0  0  0  0  0
  -26.0243  -38.2924   24.1375 H   0  0  0  0  0  0
  -30.7721  -19.4084   18.9519 H   0  0  0  0  0  0
  -31.2438  -17.0655   19.3973 H   0  0  0  0  0  0
  -28.2365  -17.0632   22.4970 H   0  0  0  0  0  0
  -26.6609  -18.8724   22.5814 H   0  0  0  0  0  0
  -26.8950  -20.3979   21.7543 H   0  0  0  0  0  0
  -27.8142  -20.0281   23.2229 H   0  0  0  0  0  0
  -28.8877  -25.3938   17.0171 H   0  0  0  0  0  0
  -28.5533  -27.0491   17.4943 H   0  0  0  0  0  0
  -27.2800  -25.8452   17.5012 H   0  0  0  0  0  0
  -27.4419  -24.3461   20.3716 H   0  0  0  0  0  0
  -27.9511  -23.6828   18.8431 H   0  0  0  0  0  0
  -29.8065  -24.0119   21.2699 H   0  0  0  0  0  0
  -30.3073  -23.3887   19.7314 H   0  0  0  0  0  0
  -29.8099  -25.6677   19.1536 H   0  0  0  0  0  0
  -29.1626  -15.0384   21.7802 H   0  0  0  0  0  0
  -29.2770  -21.8500   21.8036 H   0  0  0  0  0  0
  1 25  1  0  0  0
  1 30  2  0  0  0
  1 83  1  0  0  0
  2  3  1  0  0  0
  2 25  1  0  0  0
  2 86  1  0  0  0
  2 87  1  0  0  0
  3  4  1  0  0  0
  3 88  1  0  0  0
  3 89  1  0  0  0
  4  5  1  0  0  0
  4 90  1  0  0  0
  4 91  1  0  0  0
  5  6  1  0  0  0
  5 26  1  0  0  0
  5 92  1  0  0  0
  6 25  1  0  0  0
  6 93  1  0  0  0
  6 94  1  0  0  0
  7  8  2  0  0  0
  7 26  1  0  0  0
  7 29  1  0  0  0
  8  9  1  0  0  0
  8 22  1  0  0  0
  9 10  1  0  0  0
  9 27  2  0  0  0
 10 11  2  0  0  0
 10 15  1  0  0  0
 11 12  1  0  0  0
 11 95  1  0  0  0
 12 13  2  0  0  0
 12 96  1  0  0  0
 13 14  1  0  0  0
 13 31  1  0  0  0
 14 15  2  0  0  0
 14 97  1  0  0  0
 15 98  1  0  0  0
 16 17  2  0  0  0
 16 21  1  0  0  0
 16 31  1  0  0  0
 17 18  1  0  0  0
 17 99  1  0  0  0
 18 19  2  0  0  0
 18100  1  0  0  0
 19 20  1  0  0  0
 19 24  1  0  0  0
 20 21  2  0  0  0
 20101  1  0  0  0
 21 23  1  0  0  0
 22 28  1  0  0  0
 22 32  2  0  0  0
 26 27  1  0  0  0
 28102  1  0  0  0
 28103  1  0  0  0
 29104  1  0  0  0
 29105  1  0  0  0
 33 34  1  0  0  0
 33 66  1  0  0  0
 33 70  2  0  0  0
 34 36  1  0  0  0
 34 59  1  0  0  0
 34106  1  0  0  0
 35 44  2  0  0  0
 35 45  1  0  0  0
 35 68  1  0  0  0
 36 56  1  0  0  0
 36107  1  0  0  0
 37 39  1  0  0  0
 37 47  1  0  0  0
 37 66  1  0  0  0
 37108  1  0  0  0
 38 43  2  0  0  0
 38 46  1  0  0  0
 38 47  1  0  0  0
 39 64  1  0  0  0
 39 67  2  0  0  0
 40 52  1  0  0  0
 40 53  2  0  0  0
 40 58  1  0  0  0
 41109  1  0  0  0
 41110  1  0  0  0
 41111  1  0  0  0
 41 48  1  0  0  0
 42 43  1  0  0  0
 42 66  1  0  0  0
 42112  1  0  0  0
 42113  1  0  0  0
 43 44  1  0  0  0
 44114  1  0  0  0
 45 46  2  0  0  0
 45115  1  0  0  0
 46116  1  0  0  0
 47117  1  0  0  0
 47118  1  0  0  0
 48 56  1  0  0  0
 48 65  1  0  0  0
 48119  1  0  0  0
 49 50  1  0  0  0
 49 53  1  0  0  0
 49 64  1  0  0  0
 49120  1  0  0  0
 50 51  1  0  0  0
 50121  1  0  0  0
 50122  1  0  0  0
 51 52  1  0  0  0
 51123  1  0  0  0
 51124  1  0  0  0
 52125  1  0  0  0
 52126  1  0  0  0
 53 54  1  0  0  0
 54 55  2  0  0  0
 54127  1  0  0  0
 55 57  1  0  0  0
 55128  1  0  0  0
 56 69  2  0  0  0
 57 58  2  0  0  0
 57129  1  0  0  0
 58130  1  0  0  0
 59 60  1  0  0  0
 59 61  1  0  0  0
 59 62  1  0  0  0
 60131  1  0  0  0
 60132  1  0  0  0
 60133  1  0  0  0
 61134  1  0  0  0
 61135  1  0  0  0
 61136  1  0  0  0
 62137  1  0  0  0
 62138  1  0  0  0
 62139  1  0  0  0
 63 65  1  0  0  0
 63140  1  0  0  0
 63141  1  0  0  0
 63142  1  0  0  0
 64143  1  0  0  0
 65144  1  0  0  0
 68 82  1  0  0  0
 71 72  2  0  0  0
 71 74  1  0  0  0
 71145  1  0  0  0
 72 76  1  0  0  0
 72146  1  0  0  0
 73 75  1  0  0  0
 73 76  2  0  0  0
 73147  1  0  0  0
 74 75  2  0  0  0
 74 77  1  0  0  0
 75 78  1  0  0  0
 76 83  1  0  0  0
 77 84  1  0  0  0
 77 85  2  0  0  0
 78148  1  0  0  0
 78149  1  0  0  0
 78150  1  0  0  0
 79151  1  0  0  0
 79152  1  0  0  0
 79153  1  0  0  0
 79 82  1  0  0  0
 80 81  1  0  0  0
 80 82  1  0  0  0
 80154  1  0  0  0
 80155  1  0  0  0
 81 84  1  0  0  0
 81156  1  0  0  0
 81157  1  0  0  0
 82158  1  0  0  0
 83159  1  0  0  0
 84160  1  0  0  0
M  ISO  4   1 100  68 101  82 101  83 100
M  END
> <chiral flag>
0

> <version>
0

> <s_m_source_file>
/data/baiqing/PycharmProjects/Reinvent-master-3.2/result/LINK_invent/BTK/process_docking_weight1_custom_product_contain_oxygen_bond_distance_aromatic_linkinvent_7_9_3/rearranged_h_0048.sdf

> <i_m_source_file_index>
86

> <r_mmod_Potential_Energy-OPLS-2005>
-20.374828338623

> <r_mmod_Stretch_Energy-OPLS-2005>
45.9570922851562

> <r_mmod_Bend_Energy-OPLS-2005>
130.397842407227

> <r_mmod_Torsional_Energy-OPLS-2005>
240.054580688477

> <r_mmod_Improper_Torsional_Energy-OPLS-2005>
6.49371814727783

> <r_mmod_Van_der_Waal_Energy-OPLS-2005>
157.178817749023

> <r_mmod_Electrostatic_Energy-OPLS-2005>
-393.006805419922

> <r_mmod_Solvation_Energy-OPLS-2005>
-223.604202270508

> <b_mmod_Minimization_Converged-OPLS-2005>
0

> <r_mmod_RMS_Derivative-OPLS-2005>
5.38934087753296

$$$$
86
                    3D
 Structure written by MMmdl.
158167  0  0  1  0            999 V2000
  -30.5930  -14.7329   20.4715 C   0  0  0  0  0  0
  -30.4309  -12.4478   19.4572 C   0  0  0  0  0  0
  -29.5032  -12.5011   18.2238 C   0  0  0  0  0  0
  -28.0282  -12.3331   18.6430 C   0  0  0  0  0  0
  -27.6391  -13.2249   19.8504 C   0  0  2  0  0  0
  -28.6858  -13.1441   20.9814 C   0  0  0  0  0  0
  -25.2501  -13.8171   20.5702 C   0  0  0  0  0  0
  -24.1783  -13.0421   20.9217 C   0  0  0  0  0  0
  -24.6344  -11.6897   20.8722 C   0  0  0  0  0  0
  -23.9008  -10.4281   21.0377 C   0  0  0  0  0  0
  -24.3561   -9.4213   21.9168 C   0  0  0  0  0  0
  -23.6265   -8.2225   22.0729 C   0  0  0  0  0  0
  -22.4249   -8.0245   21.3503 C   0  0  0  0  0  0
  -21.9868   -9.0223   20.4617 C   0  0  0  0  0  0
  -22.7175  -10.2119   20.3043 C   0  0  0  0  0  0
  -21.6855   -6.0708   22.5272 C   0  0  0  0  0  0
  -21.4028   -6.5621   23.8206 C   0  0  0  0  0  0
  -21.3667   -5.6780   24.9164 C   0  0  0  0  0  0
  -21.6038   -4.3041   24.7224 C   0  0  0  0  0  0
  -21.8822   -3.8123   23.4349 C   0  0  0  0  0  0
  -21.9195   -4.6936   22.3402 C   0  0  0  0  0  0
  -22.7808  -13.5205   21.1909 C   0  0  0  0  0  0
  -22.1646   -4.2113   21.0986 F   0  0  0  0  0  0
  -21.5625   -3.4541   25.7745 F   0  0  0  0  0  0
  -29.9799  -13.5048   20.3900 N   0  0  0  0  0  0
  -26.2912  -12.9355   20.3286 N   0  0  0  0  0  0
  -25.9283  -11.6508   20.5740 N   0  0  0  0  0  0
  -22.0465  -12.8176   22.0457 N   0  0  0  0  0  0
  -25.4217  -15.1891   20.4139 N   0  0  0  0  0  0
  -31.7944  -14.8385   20.2028 O   0  0  0  0  0  0
  -21.6615   -6.8844   21.4226 O   0  0  0  0  0  0
  -22.3489  -14.5526   20.6804 O   0  0  0  0  0  0
  -24.6324  -31.8563   23.1980 C   0  0  0  0  0  0
  -25.9159  -32.4753   23.8331 C   0  0  1  0  0  0
  -27.2137  -27.2620   20.1320 C   0  0  0  0  0  0
  -25.5956  -33.8554   24.2258 N   0  0  0  0  0  0
  -23.4280  -30.4788   21.5423 C   0  0  2  0  0  0
  -24.8744  -28.9225   20.1140 C   0  0  0  0  0  0
  -22.7518  -29.4613   22.4924 C   0  0  0  0  0  0
  -18.0305  -28.1394   22.8488 C   0  0  0  0  0  0
  -24.1487  -36.7273   23.2639 C   0  0  0  0  0  0
  -25.9753  -30.7674   21.3789 C   0  0  0  0  0  0
  -26.0475  -29.3893   20.7225 C   0  0  0  0  0  0
  -27.2238  -28.5726   20.7180 C   0  0  0  0  0  0
  -26.0244  -26.8672   19.4845 C   0  0  0  0  0  0
  -24.8667  -27.6683   19.4848 C   0  0  0  0  0  0
  -23.6468  -29.8121   20.1591 C   0  0  0  0  0  0
  -25.4114  -36.3065   24.0331 C   0  0  1  0  0  0
  -20.5909  -28.3709   23.1274 C   0  0  2  0  0  0
  -20.6789  -26.9429   22.5412 C   0  0  0  0  0  0
  -19.5752  -26.6390   21.5225 C   0  0  0  0  0  0
  -18.1935  -26.7940   22.1634 C   0  0  0  0  0  0
  -19.1556  -28.8869   23.2875 C   0  0  0  0  0  0
  -18.9474  -30.1476   23.8886 C   0  0  0  0  0  0
  -17.6468  -30.6591   24.0566 C   0  0  0  0  0  0
  -25.9061  -34.9434   23.5091 C   0  0  0  0  0  0
  -16.5361  -29.9084   23.6335 C   0  0  0  0  0  0
  -16.7291  -28.6506   23.0349 C   0  0  0  0  0  0
  -26.4506  -31.6580   25.0726 C   0  0  0  0  0  0
  -25.3713  -31.3749   26.1439 C   0  0  0  0  0  0
  -27.0356  -30.2989   24.6232 C   0  0  0  0  0  0
  -27.6067  -32.4314   25.7492 C   0  0  0  0  0  0
  -27.5579  -37.1792   24.8465 C   0  0  0  0  0  0
  -21.4228  -29.3054   22.3665 N   0  0  0  0  0  0
  -26.4284  -37.3769   23.9413 N   0  0  0  0  0  0
  -24.6976  -31.0523   22.0954 N   0  0  0  0  0  0
  -23.4231  -28.8164   23.3023 O   0  0  0  0  0  0
  -28.2942  -26.3523   20.1530 O   0  0  0  0  0  0
  -26.5633  -34.8911   22.4662 O   0  0  0  0  0  0
  -23.5478  -32.1390   23.7283 O   0  0  0  0  0  0
  -31.1557  -17.5896   21.7071 C   0  0  0  0  0  0
  -31.4827  -18.9241   22.0134 C   0  0  0  0  0  0
  -29.6805  -19.8206   20.5900 C   0  0  0  0  0  0
  -30.1020  -17.2830   20.8244 C   0  0  0  0  0  0
  -30.7875  -20.0174   21.4565 C   0  0  0  0  0  0
  -29.3614  -18.4209   20.2911 C   0  0  0  0  0  0
  -28.7280  -23.7027   19.9551 C   0  0  0  0  0  0
  -28.4568  -23.5319   22.8142 C   0  0  0  0  0  0
  -28.3565  -24.9438   22.1840 C   0  0  0  0  0  0
  -28.0365  -22.3698   21.8796 C   0  0  0  0  0  0
  -28.0348  -24.9595   20.6760 C   0  0  1  0  0  0
  -28.9684  -21.0849   19.8938 C   0  0  0  0  0  0
  -28.6780  -22.4441   20.5595 N   0  0  0  0  0  0
  -29.7809  -15.8546   20.5745 N   0  0  0  0  0  0
  -29.2413  -23.8649   18.8441 O   0  0  0  0  0  0
  -31.3897  -21.5948   21.8268 Cl  0  0  0  0  0  0
  -28.0555  -18.0718   19.2152 Cl  0  0  0  0  0  0
  -31.4704  -12.5851   19.1536 H   0  0  0  0  0  0
  -30.3788  -11.4666   19.9311 H   0  0  0  0  0  0
  -29.7792  -11.7220   17.5109 H   0  0  0  0  0  0
  -29.6333  -13.4537   17.7072 H   0  0  0  0  0  0
  -27.8779  -11.2838   18.9015 H   0  0  0  0  0  0
  -27.3663  -12.5338   17.7994 H   0  0  0  0  0  0
  -27.6373  -14.2494   19.4783 H   0  0  0  0  0  0
  -28.7214  -12.1394   21.4065 H   0  0  0  0  0  0
  -28.4246  -13.8141   21.8030 H   0  0  0  0  0  0
  -25.2691   -9.5715   22.4757 H   0  0  0  0  0  0
  -23.9985   -7.4607   22.7425 H   0  0  0  0  0  0
  -21.0805   -8.8722   19.8916 H   0  0  0  0  0  0
  -22.3597  -10.9648   19.6156 H   0  0  0  0  0  0
  -21.2034   -7.6131   23.9707 H   0  0  0  0  0  0
  -21.1490   -6.0493   25.9069 H   0  0  0  0  0  0
  -22.0609   -2.7582   23.2843 H   0  0  0  0  0  0
  -22.4087  -11.9817   22.4813 H   0  0  0  0  0  0
  -21.1097  -13.1215   22.2689 H   0  0  0  0  0  0
  -24.6512  -15.8387   20.5269 H   0  0  0  0  0  0
  -26.2545  -15.6287   20.0456 H   0  0  0  0  0  0
  -26.7229  -32.5394   23.1076 H   0  0  0  0  0  0
  -25.0111  -33.9678   25.0411 H   0  0  0  0  0  0
  -22.7238  -31.3007   21.3964 H   0  0  0  0  0  0
  -23.3750  -35.9602   23.3290 H   0  0  0  0  0  0
  -24.3585  -36.8905   22.2054 H   0  0  0  0  0  0
  -23.7226  -37.6467   23.6669 H   0  0  0  0  0  0
  -26.1177  -31.5269   20.6089 H   0  0  0  0  0  0
  -26.8518  -30.8155   22.0141 H   0  0  0  0  0  0
  -28.1224  -28.9250   21.2039 H   0  0  0  0  0  0
  -25.9771  -25.9115   18.9822 H   0  0  0  0  0  0
  -23.9713  -27.3069   18.9984 H   0  0  0  0  0  0
  -23.7777  -30.5875   19.4029 H   0  0  0  0  0  0
  -22.7627  -29.2499   19.8520 H   0  0  0  0  0  0
  -25.1288  -36.1904   25.0822 H   0  0  0  0  0  0
  -21.0008  -28.3284   24.1393 H   0  0  0  0  0  0
  -20.5699  -26.2325   23.3618 H   0  0  0  0  0  0
  -21.6652  -26.7450   22.1197 H   0  0  0  0  0  0
  -19.6904  -25.6298   21.1254 H   0  0  0  0  0  0
  -19.6674  -27.3198   20.6747 H   0  0  0  0  0  0
  -17.4212  -26.6716   21.4027 H   0  0  0  0  0  0
  -18.0316  -26.0087   22.9027 H   0  0  0  0  0  0
  -19.7947  -30.7309   24.2240 H   0  0  0  0  0  0
  -17.5015  -31.6268   24.5176 H   0  0  0  0  0  0
  -15.5355  -30.2972   23.7660 H   0  0  0  0  0  0
  -15.8702  -28.0821   22.7046 H   0  0  0  0  0  0
  -24.5888  -30.7099   25.7759 H   0  0  0  0  0  0
  -24.8899  -32.2928   26.4825 H   0  0  0  0  0  0
  -25.8008  -30.8942   27.0240 H   0  0  0  0  0  0
  -26.2957  -29.6727   24.1233 H   0  0  0  0  0  0
  -27.4003  -29.7258   25.4768 H   0  0  0  0  0  0
  -27.8850  -30.4245   23.9513 H   0  0  0  0  0  0
  -27.2693  -33.3625   26.2058 H   0  0  0  0  0  0
  -28.3882  -32.6857   25.0318 H   0  0  0  0  0  0
  -28.0742  -31.8448   26.5411 H   0  0  0  0  0  0
  -28.2586  -38.0100   24.7525 H   0  0  0  0  0  0
  -28.1084  -36.2629   24.6264 H   0  0  0  0  0  0
  -27.2315  -37.1420   25.8875 H   0  0  0  0  0  0
  -20.9429  -29.8769   21.6849 H   0  0  0  0  0  0
  -26.0156  -38.2842   24.1409 H   0  0  0  0  0  0
  -31.7265  -16.7987   22.1703 H   0  0  0  0  0  0
  -32.3068  -19.1143   22.6852 H   0  0  0  0  0  0
  -27.8744  -23.4979   23.7357 H   0  0  0  0  0  0
  -29.4890  -23.3707   23.1246 H   0  0  0  0  0  0
  -29.2971  -25.4707   22.3492 H   0  0  0  0  0  0
  -27.5996  -25.5263   22.7119 H   0  0  0  0  0  0
  -26.9543  -22.3820   21.7386 H   0  0  0  0  0  0
  -28.2673  -21.4195   22.3628 H   0  0  0  0  0  0
  -26.9716  -24.7352   20.5922 H   0  0  0  0  0  0
  -28.0035  -20.7530   19.5123 H   0  0  0  0  0  0
  -29.5603  -21.2799   18.9980 H   0  0  0  0  0  0
  -28.7987  -15.6587   20.4704 H   0  0  0  0  0  0
  1 25  1  0  0  0
  1 30  2  0  0  0
  1 84  1  0  0  0
  2  3  1  0  0  0
  2 25  1  0  0  0
  2 88  1  0  0  0
  2 89  1  0  0  0
  3  4  1  0  0  0
  3 90  1  0  0  0
  3 91  1  0  0  0
  4  5  1  0  0  0
  4 92  1  0  0  0
  4 93  1  0  0  0
  5  6  1  0  0  0
  5 26  1  0  0  0
  5 94  1  0  0  0
  6 25  1  0  0  0
  6 95  1  0  0  0
  6 96  1  0  0  0
  7  8  2  0  0  0
  7 26  1  0  0  0
  7 29  1  0  0  0
  8  9  1  0  0  0
  8 22  1  0  0  0
  9 10  1  0  0  0
  9 27  2  0  0  0
 10 11  2  0  0  0
 10 15  1  0  0  0
 11 12  1  0  0  0
 11 97  1  0  0  0
 12 13  2  0  0  0
 12 98  1  0  0  0
 13 14  1  0  0  0
 13 31  1  0  0  0
 14 15  2  0  0  0
 14 99  1  0  0  0
 15100  1  0  0  0
 16 17  2  0  0  0
 16 21  1  0  0  0
 16 31  1  0  0  0
 17 18  1  0  0  0
 17101  1  0  0  0
 18 19  2  0  0  0
 18102  1  0  0  0
 19 20  1  0  0  0
 19 24  1  0  0  0
 20 21  2  0  0  0
 20103  1  0  0  0
 21 23  1  0  0  0
 22 28  1  0  0  0
 22 32  2  0  0  0
 26 27  1  0  0  0
 28104  1  0  0  0
 28105  1  0  0  0
 29106  1  0  0  0
 29107  1  0  0  0
 33 34  1  0  0  0
 33 66  1  0  0  0
 33 70  2  0  0  0
 34 36  1  0  0  0
 34 59  1  0  0  0
 34108  1  0  0  0
 35 44  2  0  0  0
 35 45  1  0  0  0
 35 68  1  0  0  0
 36 56  1  0  0  0
 36109  1  0  0  0
 37 39  1  0  0  0
 37 47  1  0  0  0
 37 66  1  0  0  0
 37110  1  0  0  0
 38 43  2  0  0  0
 38 46  1  0  0  0
 38 47  1  0  0  0
 39 64  1  0  0  0
 39 67  2  0  0  0
 40 52  1  0  0  0
 40 53  2  0  0  0
 40 58  1  0  0  0
 41111  1  0  0  0
 41112  1  0  0  0
 41113  1  0  0  0
 41 48  1  0  0  0
 42 43  1  0  0  0
 42 66  1  0  0  0
 42114  1  0  0  0
 42115  1  0  0  0
 43 44  1  0  0  0
 44116  1  0  0  0
 45 46  2  0  0  0
 45117  1  0  0  0
 46118  1  0  0  0
 47119  1  0  0  0
 47120  1  0  0  0
 48 56  1  0  0  0
 48 65  1  0  0  0
 48121  1  0  0  0
 49 50  1  0  0  0
 49 53  1  0  0  0
 49 64  1  0  0  0
 49122  1  0  0  0
 50 51  1  0  0  0
 50123  1  0  0  0
 50124  1  0  0  0
 51 52  1  0  0  0
 51125  1  0  0  0
 51126  1  0  0  0
 52127  1  0  0  0
 52128  1  0  0  0
 53 54  1  0  0  0
 54 55  2  0  0  0
 54129  1  0  0  0
 55 57  1  0  0  0
 55130  1  0  0  0
 56 69  2  0  0  0
 57 58  2  0  0  0
 57131  1  0  0  0
 58132  1  0  0  0
 59 60  1  0  0  0
 59 61  1  0  0  0
 59 62  1  0  0  0
 60133  1  0  0  0
 60134  1  0  0  0
 60135  1  0  0  0
 61136  1  0  0  0
 61137  1  0  0  0
 61138  1  0  0  0
 62139  1  0  0  0
 62140  1  0  0  0
 62141  1  0  0  0
 63 65  1  0  0  0
 63142  1  0  0  0
 63143  1  0  0  0
 63144  1  0  0  0
 64145  1  0  0  0
 65146  1  0  0  0
 68 81  1  0  0  0
 71 72  2  0  0  0
 71 74  1  0  0  0
 71147  1  0  0  0
 72 75  1  0  0  0
 72148  1  0  0  0
 73 75  2  0  0  0
 73 76  1  0  0  0
 73 82  1  0  0  0
 74 76  2  0  0  0
 74 84  1  0  0  0
 75 86  1  0  0  0
 76 87  1  0  0  0
 77 81  1  0  0  0
 77 83  1  0  0  0
 77 85  2  0  0  0
 78 79  1  0  0  0
 78 80  1  0  0  0
 78149  1  0  0  0
 78150  1  0  0  0
 79 81  1  0  0  0
 79151  1  0  0  0
 79152  1  0  0  0
 80 83  1  0  0  0
 80153  1  0  0  0
 80154  1  0  0  0
 81155  1  0  0  0
 82 83  1  0  0  0
 82156  1  0  0  0
 82157  1  0  0  0
 84158  1  0  0  0
M  ISO  4   1 100  68 101  81 101  84 100
M  END
> <chiral flag>
0

> <version>
0

> <s_m_source_file>
/data/baiqing/PycharmProjects/Reinvent-master-3.2/result/LINK_invent/BTK/process_docking_weight1_custom_product_contain_oxygen_bond_distance_aromatic_linkinvent_7_9_3/rearranged_h_0048.sdf

> <i_m_source_file_index>
87

> <r_mmod_Potential_Energy-OPLS-2005>
203.262802124023

> <r_mmod_Stretch_Energy-OPLS-2005>
131.705657958984

> <r_mmod_Bend_Energy-OPLS-2005>
159.864105224609

> <r_mmod_Torsional_Energy-OPLS-2005>
274.337341308594

> <r_mmod_Improper_Torsional_Energy-OPLS-2005>
8.11015319824219

> <r_mmod_Van_der_Waal_Energy-OPLS-2005>
141.567474365234

> <r_mmod_Electrostatic_Energy-OPLS-2005>
-369.39013671875

> <r_mmod_Solvation_Energy-OPLS-2005>
-227.51969909668

> <b_mmod_Minimization_Converged-OPLS-2005>
0

> <r_mmod_RMS_Derivative-OPLS-2005>
2.26222681999207

$$$$
87
                    3D
 Structure written by MMmdl.
165174  0  0  1  0            999 V2000
  -30.6183  -14.6294   20.4884 C   0  0  0  0  0  0
  -30.4397  -12.3843   19.4433 C   0  0  0  0  0  0
  -29.5038  -12.5045   18.2194 C   0  0  0  0  0  0
  -28.0286  -12.3327   18.6368 C   0  0  0  0  0  0
  -27.6526  -13.1979   19.8678 C   0  0  2  0  0  0
  -28.7021  -13.0577   20.9936 C   0  0  0  0  0  0
  -25.2553  -13.8096   20.5735 C   0  0  0  0  0  0
  -24.1811  -13.0382   20.9228 C   0  0  0  0  0  0
  -24.6376  -11.6861   20.8767 C   0  0  0  0  0  0
  -23.9047  -10.4260   21.0422 C   0  0  0  0  0  0
  -24.3606   -9.4179   21.9197 C   0  0  0  0  0  0
  -23.6283   -8.2217   22.0762 C   0  0  0  0  0  0
  -22.4268   -8.0268   21.3545 C   0  0  0  0  0  0
  -21.9900   -9.0238   20.4647 C   0  0  0  0  0  0
  -22.7227  -10.2114   20.3063 C   0  0  0  0  0  0
  -21.6841   -6.0733   22.5285 C   0  0  0  0  0  0
  -21.4002   -6.5638   23.8215 C   0  0  0  0  0  0
  -21.3658   -5.6794   24.9181 C   0  0  0  0  0  0
  -21.6047   -4.3056   24.7230 C   0  0  0  0  0  0
  -21.8818   -3.8144   23.4352 C   0  0  0  0  0  0
  -21.9185   -4.6960   22.3407 C   0  0  0  0  0  0
  -22.7841  -13.5201   21.1876 C   0  0  0  0  0  0
  -22.1658   -4.2150   21.0984 F   0  0  0  0  0  0
  -21.5635   -3.4538   25.7741 F   0  0  0  0  0  0
  -30.0163  -13.4011   20.4242 N   0  0  0  0  0  0
  -26.2976  -12.9257   20.3360 N   0  0  0  0  0  0
  -25.9297  -11.6429   20.5786 N   0  0  0  0  0  0
  -22.0475  -12.8197   22.0434 N   0  0  0  0  0  0
  -25.4180  -15.1805   20.4178 N   0  0  0  0  0  0
  -31.7883  -14.8005   20.1350 O   0  0  0  0  0  0
  -21.6624   -6.8876   21.4248 O   0  0  0  0  0  0
  -22.3534  -14.5504   20.6711 O   0  0  0  0  0  0
  -24.6225  -31.8612   23.2044 C   0  0  0  0  0  0
  -25.9086  -32.4785   23.8366 C   0  0  1  0  0  0
  -27.2401  -27.3503   20.1081 C   0  0  0  0  0  0
  -25.5913  -33.8586   24.2292 N   0  0  0  0  0  0
  -23.4154  -30.4835   21.5456 C   0  0  2  0  0  0
  -24.8647  -28.9407   20.1106 C   0  0  0  0  0  0
  -22.7452  -29.4630   22.4952 C   0  0  0  0  0  0
  -18.0276  -28.1383   22.8500 C   0  0  0  0  0  0
  -24.1489  -36.7298   23.2637 C   0  0  0  0  0  0
  -25.9537  -30.7987   21.3738 C   0  0  0  0  0  0
  -26.0283  -29.4277   20.7178 C   0  0  0  0  0  0
  -27.2123  -28.6395   20.7150 C   0  0  0  0  0  0
  -26.0533  -26.9094   19.4751 C   0  0  0  0  0  0
  -24.8771  -27.6845   19.4841 C   0  0  0  0  0  0
  -23.6286  -29.8140   20.1615 C   0  0  0  0  0  0
  -25.4110  -36.3091   24.0336 C   0  0  1  0  0  0
  -20.5877  -28.3685   23.1298 C   0  0  2  0  0  0
  -20.6762  -26.9408   22.5423 C   0  0  0  0  0  0
  -19.5742  -26.6385   21.5219 C   0  0  0  0  0  0
  -18.1921  -26.7929   22.1628 C   0  0  0  0  0  0
  -19.1530  -28.8849   23.2892 C   0  0  0  0  0  0
  -18.9454  -30.1449   23.8906 C   0  0  0  0  0  0
  -17.6455  -30.6587   24.0564 C   0  0  0  0  0  0
  -25.9048  -34.9458   23.5116 C   0  0  0  0  0  0
  -16.5348  -29.9092   23.6325 C   0  0  0  0  0  0
  -16.7265  -28.6504   23.0361 C   0  0  0  0  0  0
  -26.4483  -31.6585   25.0726 C   0  0  0  0  0  0
  -25.3727  -31.3711   26.1459 C   0  0  0  0  0  0
  -27.0324  -30.3014   24.6168 C   0  0  0  0  0  0
  -27.6052  -32.4313   25.7485 C   0  0  0  0  0  0
  -27.5595  -37.1786   24.8451 C   0  0  0  0  0  0
  -21.4168  -29.3041   22.3690 N   0  0  0  0  0  0
  -26.4287  -37.3793   23.9424 N   0  0  0  0  0  0
  -24.6822  -31.0641   22.0984 N   0  0  0  0  0  0
  -23.4186  -28.8172   23.3024 O   0  0  0  0  0  0
  -28.3915  -26.5554   20.1809 O   0  0  0  0  0  0
  -26.5623  -34.8923   22.4686 O   0  0  0  0  0  0
  -23.5393  -32.1402   23.7384 O   0  0  0  0  0  0
  -30.8148  -19.3712   20.8674 C   0  0  0  0  0  0
  -30.8415  -17.9575   21.0839 C   0  0  0  0  0  0
  -28.8452  -19.1253   19.5074 C   0  0  0  0  0  0
  -29.8091  -19.9929   20.0736 C   0  0  0  0  0  0
  -29.8762  -17.0936   20.4994 C   0  0  0  0  0  0
  -28.8808  -17.7197   19.7003 C   0  0  0  0  0  0
  -30.5374  -23.8382   20.3711 C   0  0  0  0  0  0
  -33.4486  -23.4171   22.6177 C   0  0  0  0  0  0
  -31.6978  -24.0472   21.0246 C   0  0  0  0  0  0
  -32.2721  -23.1633   22.0242 C   0  0  0  0  0  0
  -29.9444  -24.7819   19.3076 C   0  0  0  0  0  0
  -27.6257  -24.0529   20.0456 C   0  0  0  0  0  0
  -28.3093  -23.0314   21.0096 C   0  0  0  0  0  0
  -28.4779  -25.2509   19.5138 C   0  0  1  0  0  0
  -29.8448  -21.4986   19.6303 C   0  0  0  0  0  0
  -29.7833  -15.6671   20.7867 N   0  0  0  0  0  0
  -29.6914  -22.6194   20.6315 N   0  3  1  0  0  0
  -27.6928  -16.7784   18.8806 Cl  0  0  0  0  0  0
  -31.4793  -12.5132   19.1384 H   0  0  0  0  0  0
  -30.3762  -11.3870   19.8820 H   0  0  0  0  0  0
  -29.7681  -11.7612   17.4662 H   0  0  0  0  0  0
  -29.6388  -13.4802   17.7484 H   0  0  0  0  0  0
  -27.8682  -11.2786   18.8669 H   0  0  0  0  0  0
  -27.3697  -12.5650   17.7990 H   0  0  0  0  0  0
  -27.6674  -14.2261   19.5247 H   0  0  0  0  0  0
  -28.7164  -12.0358   21.3775 H   0  0  0  0  0  0
  -28.4488  -13.6889   21.8466 H   0  0  0  0  0  0
  -25.2760   -9.5654   22.4763 H   0  0  0  0  0  0
  -23.9994   -7.4606   22.7478 H   0  0  0  0  0  0
  -21.0834   -8.8759   19.8943 H   0  0  0  0  0  0
  -22.3705  -10.9656   19.6172 H   0  0  0  0  0  0
  -21.1990   -7.6146   23.9722 H   0  0  0  0  0  0
  -21.1485   -6.0524   25.9088 H   0  0  0  0  0  0
  -22.0597   -2.7608   23.2850 H   0  0  0  0  0  0
  -22.4081  -11.9846   22.4806 H   0  0  0  0  0  0
  -21.1098  -13.1233   22.2650 H   0  0  0  0  0  0
  -24.6326  -15.8159   20.4984 H   0  0  0  0  0  0
  -26.2317  -15.6171   19.9998 H   0  0  0  0  0  0
  -26.7152  -32.5469   23.1113 H   0  0  0  0  0  0
  -25.0046  -33.9732   25.0426 H   0  0  0  0  0  0
  -22.7086  -31.3032   21.4016 H   0  0  0  0  0  0
  -23.3773  -35.9606   23.3259 H   0  0  0  0  0  0
  -24.3590  -36.8961   22.2058 H   0  0  0  0  0  0
  -23.7211  -37.6478   23.6683 H   0  0  0  0  0  0
  -26.0818  -31.5610   20.6044 H   0  0  0  0  0  0
  -26.8358  -30.8481   22.0009 H   0  0  0  0  0  0
  -28.1046  -29.0100   21.2001 H   0  0  0  0  0  0
  -25.9999  -25.9530   18.9794 H   0  0  0  0  0  0
  -23.9850  -27.3055   19.0043 H   0  0  0  0  0  0
  -23.7392  -30.5877   19.4013 H   0  0  0  0  0  0
  -22.7516  -29.2357   19.8652 H   0  0  0  0  0  0
  -25.1279  -36.1947   25.0829 H   0  0  0  0  0  0
  -20.9969  -28.3261   24.1419 H   0  0  0  0  0  0
  -20.5658  -26.2294   23.3617 H   0  0  0  0  0  0
  -21.6631  -26.7433   22.1220 H   0  0  0  0  0  0
  -19.6901  -25.6300   21.1243 H   0  0  0  0  0  0
  -19.6684  -27.3198   20.6751 H   0  0  0  0  0  0
  -17.4194  -26.6697   21.4026 H   0  0  0  0  0  0
  -18.0305  -26.0060   22.9011 H   0  0  0  0  0  0
  -19.7926  -30.7261   24.2291 H   0  0  0  0  0  0
  -17.5010  -31.6271   24.5165 H   0  0  0  0  0  0
  -15.5348  -30.3000   23.7638 H   0  0  0  0  0  0
  -15.8665  -28.0818   22.7089 H   0  0  0  0  0  0
  -24.5908  -30.7051   25.7789 H   0  0  0  0  0  0
  -24.8906  -32.2871   26.4883 H   0  0  0  0  0  0
  -25.8063  -30.8894   27.0230 H   0  0  0  0  0  0
  -26.2891  -29.6769   24.1200 H   0  0  0  0  0  0
  -27.4035  -29.7264   25.4662 H   0  0  0  0  0  0
  -27.8753  -30.4307   23.9376 H   0  0  0  0  0  0
  -27.2679  -33.3616   26.2065 H   0  0  0  0  0  0
  -28.3856  -32.6865   25.0305 H   0  0  0  0  0  0
  -28.0729  -31.8437   26.5397 H   0  0  0  0  0  0
  -28.2557  -38.0138   24.7582 H   0  0  0  0  0  0
  -28.1151  -36.2675   24.6173 H   0  0  0  0  0  0
  -27.2325  -37.1297   25.8853 H   0  0  0  0  0  0
  -20.9341  -29.8769   21.6908 H   0  0  0  0  0  0
  -26.0175  -38.2862   24.1478 H   0  0  0  0  0  0
  -31.6027  -19.9705   21.3029 H   0  0  0  0  0  0
  -31.6142  -17.5390   21.7127 H   0  0  0  0  0  0
  -28.0820  -19.5287   18.8569 H   0  0  0  0  0  0
  -33.8547  -22.7428   23.3586 H   0  0  0  0  0  0
  -34.0294  -24.2979   22.3789 H   0  0  0  0  0  0
  -32.2449  -24.9484   20.7816 H   0  0  0  0  0  0
  -31.7554  -22.2621   22.3205 H   0  0  0  0  0  0
  -30.0058  -24.2475   18.3583 H   0  0  0  0  0  0
  -30.5881  -25.6529   19.1821 H   0  0  0  0  0  0
  -26.7104  -24.4131   20.5131 H   0  0  0  0  0  0
  -27.2945  -23.4856   19.1752 H   0  0  0  0  0  0
  -27.6805  -22.1508   21.1425 H   0  0  0  0  0  0
  -28.3789  -23.4958   21.9941 H   0  0  0  0  0  0
  -28.1230  -25.4617   18.5039 H   0  0  0  0  0  0
  -29.1234  -21.6583   18.8288 H   0  0  0  0  0  0
  -30.8164  -21.6256   19.1518 H   0  0  0  0  0  0
  -28.8421  -15.3495   20.9601 H   0  0  0  0  0  0
  -30.0551  -22.2055   21.4754 H   0  0  0  0  0  0
  1 25  1  0  0  0
  1 30  2  0  0  0
  1 86  1  0  0  0
  2  3  1  0  0  0
  2 25  1  0  0  0
  2 89  1  0  0  0
  2 90  1  0  0  0
  3  4  1  0  0  0
  3 91  1  0  0  0
  3 92  1  0  0  0
  4  5  1  0  0  0
  4 93  1  0  0  0
  4 94  1  0  0  0
  5  6  1  0  0  0
  5 26  1  0  0  0
  5 95  1  0  0  0
  6 25  1  0  0  0
  6 96  1  0  0  0
  6 97  1  0  0  0
  7  8  2  0  0  0
  7 26  1  0  0  0
  7 29  1  0  0  0
  8  9  1  0  0  0
  8 22  1  0  0  0
  9 10  1  0  0  0
  9 27  2  0  0  0
 10 11  2  0  0  0
 10 15  1  0  0  0
 11 12  1  0  0  0
 11 98  1  0  0  0
 12 13  2  0  0  0
 12 99  1  0  0  0
 13 14  1  0  0  0
 13 31  1  0  0  0
 14 15  2  0  0  0
 14100  1  0  0  0
 15101  1  0  0  0
 16 17  2  0  0  0
 16 21  1  0  0  0
 16 31  1  0  0  0
 17 18  1  0  0  0
 17102  1  0  0  0
 18 19  2  0  0  0
 18103  1  0  0  0
 19 20  1  0  0  0
 19 24  1  0  0  0
 20 21  2  0  0  0
 20104  1  0  0  0
 21 23  1  0  0  0
 22 28  1  0  0  0
 22 32  2  0  0  0
 26 27  1  0  0  0
 28105  1  0  0  0
 28106  1  0  0  0
 29107  1  0  0  0
 29108  1  0  0  0
 33 34  1  0  0  0
 33 66  1  0  0  0
 33 70  2  0  0  0
 34 36  1  0  0  0
 34 59  1  0  0  0
 34109  1  0  0  0
 35 44  2  0  0  0
 35 45  1  0  0  0
 35 68  1  0  0  0
 36 56  1  0  0  0
 36110  1  0  0  0
 37 39  1  0  0  0
 37 47  1  0  0  0
 37 66  1  0  0  0
 37111  1  0  0  0
 38 43  2  0  0  0
 38 46  1  0  0  0
 38 47  1  0  0  0
 39 64  1  0  0  0
 39 67  2  0  0  0
 40 52  1  0  0  0
 40 53  2  0  0  0
 40 58  1  0  0  0
 41112  1  0  0  0
 41113  1  0  0  0
 41114  1  0  0  0
 41 48  1  0  0  0
 42 43  1  0  0  0
 42 66  1  0  0  0
 42115  1  0  0  0
 42116  1  0  0  0
 43 44  1  0  0  0
 44117  1  0  0  0
 45 46  2  0  0  0
 45118  1  0  0  0
 46119  1  0  0  0
 47120  1  0  0  0
 47121  1  0  0  0
 48 56  1  0  0  0
 48 65  1  0  0  0
 48122  1  0  0  0
 49 50  1  0  0  0
 49 53  1  0  0  0
 49 64  1  0  0  0
 49123  1  0  0  0
 50 51  1  0  0  0
 50124  1  0  0  0
 50125  1  0  0  0
 51 52  1  0  0  0
 51126  1  0  0  0
 51127  1  0  0  0
 52128  1  0  0  0
 52129  1  0  0  0
 53 54  1  0  0  0
 54 55  2  0  0  0
 54130  1  0  0  0
 55 57  1  0  0  0
 55131  1  0  0  0
 56 69  2  0  0  0
 57 58  2  0  0  0
 57132  1  0  0  0
 58133  1  0  0  0
 59 60  1  0  0  0
 59 61  1  0  0  0
 59 62  1  0  0  0
 60134  1  0  0  0
 60135  1  0  0  0
 60136  1  0  0  0
 61137  1  0  0  0
 61138  1  0  0  0
 61139  1  0  0  0
 62140  1  0  0  0
 62141  1  0  0  0
 62142  1  0  0  0
 63 65  1  0  0  0
 63143  1  0  0  0
 63144  1  0  0  0
 63145  1  0  0  0
 64146  1  0  0  0
 65147  1  0  0  0
 68 84  1  0  0  0
 71 72  2  0  0  0
 71 74  1  0  0  0
 71148  1  0  0  0
 72 75  1  0  0  0
 72149  1  0  0  0
 73 74  2  0  0  0
 73 76  1  0  0  0
 73150  1  0  0  0
 74 85  1  0  0  0
 75 76  2  0  0  0
 75 86  1  0  0  0
 76 88  1  0  0  0
 77 79  2  0  0  0
 77 81  1  0  0  0
 77 87  1  0  0  0
 78 80  2  0  0  0
 78151  1  0  0  0
 78152  1  0  0  0
 79 80  1  0  0  0
 79153  1  0  0  0
 80154  1  0  0  0
 81 84  1  0  0  0
 81155  1  0  0  0
 81156  1  0  0  0
 82 83  1  0  0  0
 82 84  1  0  0  0
 82157  1  0  0  0
 82158  1  0  0  0
 83 87  1  0  0  0
 83159  1  0  0  0
 83160  1  0  0  0
 84161  1  0  0  0
 85162  1  0  0  0
 85163  1  0  0  0
 85 87  1  0  0  0
 86164  1  0  0  0
 87165  1  0  0  0
M  CHG  1  87   1
M  ISO  4   1 100  68 101  84 101  86 100
M  END
> <chiral flag>
0

> <version>
0

> <s_m_source_file>
/data/baiqing/PycharmProjects/Reinvent-master-3.2/result/LINK_invent/BTK/process_docking_weight1_custom_product_contain_oxygen_bond_distance_aromatic_linkinvent_7_9_3/rearranged_h_0048.sdf

> <i_m_source_file_index>
88

> <r_mmod_Potential_Energy-OPLS-2005>
-80.8000793457031

> <r_mmod_Stretch_Energy-OPLS-2005>
66.0009689331055

> <r_mmod_Bend_Energy-OPLS-2005>
161.040069580078

> <r_mmod_Torsional_Energy-OPLS-2005>
253.637954711914

> <r_mmod_Improper_Torsional_Energy-OPLS-2005>
7.36521577835083

> <r_mmod_Van_der_Waal_Energy-OPLS-2005>
138.812362670898

> <r_mmod_Electrostatic_Energy-OPLS-2005>
-303.345916748047

> <r_mmod_Solvation_Energy-OPLS-2005>
-445.714782714844

> <b_mmod_Minimization_Converged-OPLS-2005>
0

> <r_mmod_RMS_Derivative-OPLS-2005>
1.24268162250519

$$$$
88
                    3D
 Structure written by MMmdl.
158167  0  0  1  0            999 V2000
  -30.6171  -14.6690   20.5090 C   0  0  0  0  0  0
  -30.4418  -12.4120   19.4637 C   0  0  0  0  0  0
  -29.5135  -12.5160   18.2327 C   0  0  0  0  0  0
  -28.0376  -12.3455   18.6434 C   0  0  0  0  0  0
  -27.6539  -13.2198   19.8665 C   0  0  2  0  0  0
  -28.6974  -13.0853   20.9986 C   0  0  0  0  0  0
  -25.2572  -13.8176   20.5675 C   0  0  0  0  0  0
  -24.1841  -13.0445   20.9198 C   0  0  0  0  0  0
  -24.6408  -11.6912   20.8747 C   0  0  0  0  0  0
  -23.9078  -10.4294   21.0406 C   0  0  0  0  0  0
  -24.3625   -9.4211   21.9185 C   0  0  0  0  0  0
  -23.6297   -8.2249   22.0761 C   0  0  0  0  0  0
  -22.4279   -8.0288   21.3548 C   0  0  0  0  0  0
  -21.9917   -9.0261   20.4655 C   0  0  0  0  0  0
  -22.7247  -10.2139   20.3060 C   0  0  0  0  0  0
  -21.6852   -6.0740   22.5280 C   0  0  0  0  0  0
  -21.4013   -6.5644   23.8212 C   0  0  0  0  0  0
  -21.3660   -5.6797   24.9174 C   0  0  0  0  0  0
  -21.6043   -4.3058   24.7221 C   0  0  0  0  0  0
  -21.8819   -3.8151   23.4344 C   0  0  0  0  0  0
  -21.9193   -4.6971   22.3402 C   0  0  0  0  0  0
  -22.7865  -13.5242   21.1847 C   0  0  0  0  0  0
  -22.1659   -4.2157   21.0978 F   0  0  0  0  0  0
  -21.5631   -3.4547   25.7737 F   0  0  0  0  0  0
  -30.0114  -13.4378   20.4370 N   0  0  0  0  0  0
  -26.3001  -12.9359   20.3330 N   0  0  0  0  0  0
  -25.9341  -11.6510   20.5771 N   0  0  0  0  0  0
  -22.0493  -12.8242   22.0397 N   0  0  0  0  0  0
  -25.4274  -15.1895   20.4051 N   0  0  0  0  0  0
  -31.7805  -14.8172   20.1286 O   0  0  0  0  0  0
  -21.6639   -6.8884   21.4242 O   0  0  0  0  0  0
  -22.3554  -14.5546   20.6694 O   0  0  0  0  0  0
  -24.6288  -31.8597   23.2026 C   0  0  0  0  0  0
  -25.9135  -32.4771   23.8353 C   0  0  1  0  0  0
  -27.2208  -27.3005   20.1206 C   0  0  0  0  0  0
  -25.5961  -33.8573   24.2283 N   0  0  0  0  0  0
  -23.4236  -30.4840   21.5448 C   0  0  2  0  0  0
  -24.8699  -28.9421   20.1095 C   0  0  0  0  0  0
  -22.7491  -29.4619   22.4921 C   0  0  0  0  0  0
  -18.0296  -28.1370   22.8483 C   0  0  0  0  0  0
  -24.1492  -36.7265   23.2630 C   0  0  0  0  0  0
  -25.9678  -30.7834   21.3806 C   0  0  0  0  0  0
  -26.0408  -29.4121   20.7175 C   0  0  0  0  0  0
  -27.2197  -28.6042   20.7123 C   0  0  0  0  0  0
  -26.0267  -26.8949   19.4820 C   0  0  0  0  0  0
  -24.8663  -27.6884   19.4828 C   0  0  0  0  0  0
  -23.6402  -29.8236   20.1598 C   0  0  0  0  0  0
  -25.4120  -36.3068   24.0329 C   0  0  1  0  0  0
  -20.5895  -28.3698   23.1269 C   0  0  2  0  0  0
  -20.6790  -26.9418   22.5404 C   0  0  0  0  0  0
  -19.5768  -26.6374   21.5208 C   0  0  0  0  0  0
  -18.1940  -26.7911   22.1611 C   0  0  0  0  0  0
  -19.1545  -28.8846   23.2867 C   0  0  0  0  0  0
  -18.9476  -30.1439   23.8893 C   0  0  0  0  0  0
  -17.6480  -30.6576   24.0560 C   0  0  0  0  0  0
  -25.9078  -34.9443   23.5108 C   0  0  0  0  0  0
  -16.5368  -29.9080   23.6329 C   0  0  0  0  0  0
  -16.7287  -28.6493   23.0361 C   0  0  0  0  0  0
  -26.4516  -31.6588   25.0732 C   0  0  0  0  0  0
  -25.3754  -31.3765   26.1480 C   0  0  0  0  0  0
  -27.0341  -30.2993   24.6217 C   0  0  0  0  0  0
  -27.6105  -32.4316   25.7473 C   0  0  0  0  0  0
  -27.5596  -37.1755   24.8452 C   0  0  0  0  0  0
  -21.4206  -29.3047   22.3664 N   0  0  0  0  0  0
  -26.4280  -37.3785   23.9445 N   0  0  0  0  0  0
  -24.6911  -31.0605   22.0978 N   0  0  0  0  0  0
  -23.4205  -28.8166   23.3013 O   0  0  0  0  0  0
  -28.3238  -26.4252   20.1842 O   0  0  0  0  0  0
  -26.5636  -34.8909   22.4663 O   0  0  0  0  0  0
  -23.5455  -32.1404   23.7354 O   0  0  0  0  0  0
  -29.1071  -19.4367   21.5605 C   0  0  0  0  0  0
  -30.6684  -19.3109   19.7501 C   0  0  0  0  0  0
  -29.9051  -20.1365   20.6213 C   0  0  0  0  0  0
  -29.1017  -18.0063   21.6504 C   0  0  0  0  0  0
  -29.8999  -17.1800   20.7948 C   0  0  0  0  0  0
  -30.6659  -17.8825   19.8191 C   0  0  0  0  0  0
  -29.0195  -24.0031   20.9073 C   0  0  0  0  0  0
  -28.1763  -24.2852   18.7348 C   0  0  0  0  0  0
  -28.4986  -22.7917   19.0200 C   0  0  0  0  0  0
  -28.0633  -24.9533   20.1163 C   0  0  2  0  0  0
  -28.2309  -17.3673   22.7209 C   0  0  0  0  0  0
  -30.1511  -21.6982   20.6950 C   0  0  0  0  0  0
  -29.1472  -22.7663   20.3283 N   0  0  0  0  0  0
  -29.8204  -15.7120   20.9201 N   0  0  0  0  0  0
  -29.5906  -24.3613   21.9419 O   0  0  0  0  0  0
  -31.4080  -17.2031   18.9149 F   0  0  0  0  0  0
  -31.4840  -12.5397   19.1649 H   0  0  0  0  0  0
  -30.3797  -11.4188   19.9108 H   0  0  0  0  0  0
  -29.7852  -11.7635   17.4917 H   0  0  0  0  0  0
  -29.6491  -13.4849   17.7497 H   0  0  0  0  0  0
  -27.8844  -11.2925   18.8814 H   0  0  0  0  0  0
  -27.3815  -12.5656   17.8001 H   0  0  0  0  0  0
  -27.6698  -14.2536   19.5216 H   0  0  0  0  0  0
  -28.7144  -12.0658   21.3868 H   0  0  0  0  0  0
  -28.4353  -13.7197   21.8474 H   0  0  0  0  0  0
  -25.2760   -9.5691   22.4773 H   0  0  0  0  0  0
  -24.0002   -7.4642   22.7482 H   0  0  0  0  0  0
  -21.0850   -8.8788   19.8957 H   0  0  0  0  0  0
  -22.3706  -10.9687   19.6186 H   0  0  0  0  0  0
  -21.2001   -7.6149   23.9721 H   0  0  0  0  0  0
  -21.1484   -6.0523   25.9076 H   0  0  0  0  0  0
  -22.0595   -2.7615   23.2843 H   0  0  0  0  0  0
  -22.4090  -11.9896   22.4782 H   0  0  0  0  0  0
  -21.1124  -13.1305   22.2612 H   0  0  0  0  0  0
  -24.6516  -15.8374   20.4876 H   0  0  0  0  0  0
  -26.2607  -15.6194   20.0247 H   0  0  0  0  0  0
  -26.7201  -32.5425   23.1097 H   0  0  0  0  0  0
  -25.0150  -33.9731   25.0458 H   0  0  0  0  0  0
  -22.7162  -31.3031   21.4012 H   0  0  0  0  0  0
  -23.3795  -35.9550   23.3214 H   0  0  0  0  0  0
  -24.3604  -36.8980   22.2066 H   0  0  0  0  0  0
  -23.7187  -37.6406   23.6720 H   0  0  0  0  0  0
  -26.1090  -31.5471   20.6154 H   0  0  0  0  0  0
  -26.8428  -30.8252   22.0171 H   0  0  0  0  0  0
  -28.1127  -28.9578   21.2074 H   0  0  0  0  0  0
  -25.9541  -25.9401   18.9871 H   0  0  0  0  0  0
  -23.9707  -27.3212   19.0012 H   0  0  0  0  0  0
  -23.7608  -30.6011   19.4046 H   0  0  0  0  0  0
  -22.7596  -29.2549   19.8574 H   0  0  0  0  0  0
  -25.1281  -36.1892   25.0816 H   0  0  0  0  0  0
  -20.9985  -28.3281   24.1390 H   0  0  0  0  0  0
  -20.5703  -26.2311   23.3613 H   0  0  0  0  0  0
  -21.6661  -26.7445   22.1190 H   0  0  0  0  0  0
  -19.6943  -25.6284   21.1241 H   0  0  0  0  0  0
  -19.6702  -27.3183   20.6735 H   0  0  0  0  0  0
  -17.4216  -26.6665   21.4006 H   0  0  0  0  0  0
  -18.0324  -26.0034   22.8987 H   0  0  0  0  0  0
  -19.7954  -30.7242   24.2265 H   0  0  0  0  0  0
  -17.5039  -31.6260   24.5162 H   0  0  0  0  0  0
  -15.5372  -30.2989   23.7650 H   0  0  0  0  0  0
  -15.8679  -28.0813   22.7093 H   0  0  0  0  0  0
  -24.5861  -30.7207   25.7790 H   0  0  0  0  0  0
  -24.9043  -32.2965   26.4955 H   0  0  0  0  0  0
  -25.8054  -30.8860   27.0224 H   0  0  0  0  0  0
  -26.2902  -29.6730   24.1285 H   0  0  0  0  0  0
  -27.4057  -29.7280   25.4728 H   0  0  0  0  0  0
  -27.8775  -30.4237   23.9423 H   0  0  0  0  0  0
  -27.2772  -33.3685   26.1948 H   0  0  0  0  0  0
  -28.3954  -32.6756   25.0299 H   0  0  0  0  0  0
  -28.0716  -31.8489   26.5459 H   0  0  0  0  0  0
  -28.2532  -38.0129   24.7621 H   0  0  0  0  0  0
  -28.1165  -36.2666   24.6110 H   0  0  0  0  0  0
  -27.2337  -37.1221   25.8853 H   0  0  0  0  0  0
  -20.9384  -29.8766   21.6873 H   0  0  0  0  0  0
  -26.0140  -38.2831   24.1532 H   0  0  0  0  0  0
  -28.5246  -20.0135   22.2662 H   0  0  0  0  0  0
  -31.3148  -19.7763   19.0201 H   0  0  0  0  0  0
  -27.2808  -24.3947   18.1255 H   0  0  0  0  0  0
  -29.0001  -24.7383   18.1821 H   0  0  0  0  0  0
  -29.1293  -22.3580   18.2430 H   0  0  0  0  0  0
  -27.5824  -22.2017   19.0695 H   0  0  0  0  0  0
  -27.0823  -24.7404   20.5448 H   0  0  0  0  0  0
  -27.7553  -18.1207   23.3514 H   0  0  0  0  0  0
  -28.8246  -16.7260   23.3728 H   0  0  0  0  0  0
  -27.4423  -16.7653   22.2690 H   0  0  0  0  0  0
  -31.0370  -21.9132   20.0960 H   0  0  0  0  0  0
  -30.4675  -21.8891   21.7217 H   0  0  0  0  0  0
  -28.9617  -15.3879   21.3329 H   0  0  0  0  0  0
  1 25  1  0  0  0
  1 30  2  0  0  0
  1 84  1  0  0  0
  2  3  1  0  0  0
  2 25  1  0  0  0
  2 87  1  0  0  0
  2 88  1  0  0  0
  3  4  1  0  0  0
  3 89  1  0  0  0
  3 90  1  0  0  0
  4  5  1  0  0  0
  4 91  1  0  0  0
  4 92  1  0  0  0
  5  6  1  0  0  0
  5 26  1  0  0  0
  5 93  1  0  0  0
  6 25  1  0  0  0
  6 94  1  0  0  0
  6 95  1  0  0  0
  7  8  2  0  0  0
  7 26  1  0  0  0
  7 29  1  0  0  0
  8  9  1  0  0  0
  8 22  1  0  0  0
  9 10  1  0  0  0
  9 27  2  0  0  0
 10 11  2  0  0  0
 10 15  1  0  0  0
 11 12  1  0  0  0
 11 96  1  0  0  0
 12 13  2  0  0  0
 12 97  1  0  0  0
 13 14  1  0  0  0
 13 31  1  0  0  0
 14 15  2  0  0  0
 14 98  1  0  0  0
 15 99  1  0  0  0
 16 17  2  0  0  0
 16 21  1  0  0  0
 16 31  1  0  0  0
 17 18  1  0  0  0
 17100  1  0  0  0
 18 19  2  0  0  0
 18101  1  0  0  0
 19 20  1  0  0  0
 19 24  1  0  0  0
 20 21  2  0  0  0
 20102  1  0  0  0
 21 23  1  0  0  0
 22 28  1  0  0  0
 22 32  2  0  0  0
 26 27  1  0  0  0
 28103  1  0  0  0
 28104  1  0  0  0
 29105  1  0  0  0
 29106  1  0  0  0
 33 34  1  0  0  0
 33 66  1  0  0  0
 33 70  2  0  0  0
 34 36  1  0  0  0
 34 59  1  0  0  0
 34107  1  0  0  0
 35 44  2  0  0  0
 35 45  1  0  0  0
 35 68  1  0  0  0
 36 56  1  0  0  0
 36108  1  0  0  0
 37 39  1  0  0  0
 37 47  1  0  0  0
 37 66  1  0  0  0
 37109  1  0  0  0
 38 43  2  0  0  0
 38 46  1  0  0  0
 38 47  1  0  0  0
 39 64  1  0  0  0
 39 67  2  0  0  0
 40 52  1  0  0  0
 40 53  2  0  0  0
 40 58  1  0  0  0
 41110  1  0  0  0
 41111  1  0  0  0
 41112  1  0  0  0
 41 48  1  0  0  0
 42 43  1  0  0  0
 42 66  1  0  0  0
 42113  1  0  0  0
 42114  1  0  0  0
 43 44  1  0  0  0
 44115  1  0  0  0
 45 46  2  0  0  0
 45116  1  0  0  0
 46117  1  0  0  0
 47118  1  0  0  0
 47119  1  0  0  0
 48 56  1  0  0  0
 48 65  1  0  0  0
 48120  1  0  0  0
 49 50  1  0  0  0
 49 53  1  0  0  0
 49 64  1  0  0  0
 49121  1  0  0  0
 50 51  1  0  0  0
 50122  1  0  0  0
 50123  1  0  0  0
 51 52  1  0  0  0
 51124  1  0  0  0
 51125  1  0  0  0
 52126  1  0  0  0
 52127  1  0  0  0
 53 54  1  0  0  0
 54 55  2  0  0  0
 54128  1  0  0  0
 55 57  1  0  0  0
 55129  1  0  0  0
 56 69  2  0  0  0
 57 58  2  0  0  0
 57130  1  0  0  0
 58131  1  0  0  0
 59 60  1  0  0  0
 59 61  1  0  0  0
 59 62  1  0  0  0
 60132  1  0  0  0
 60133  1  0  0  0
 60134  1  0  0  0
 61135  1  0  0  0
 61136  1  0  0  0
 61137  1  0  0  0
 62138  1  0  0  0
 62139  1  0  0  0
 62140  1  0  0  0
 63 65  1  0  0  0
 63141  1  0  0  0
 63142  1  0  0  0
 63143  1  0  0  0
 64144  1  0  0  0
 65145  1  0  0  0
 68 80  1  0  0  0
 71 73  2  0  0  0
 71 74  1  0  0  0
 71146  1  0  0  0
 72 73  1  0  0  0
 72 76  2  0  0  0
 72147  1  0  0  0
 73 82  1  0  0  0
 74 75  2  0  0  0
 74 81  1  0  0  0
 75 76  1  0  0  0
 75 84  1  0  0  0
 76 86  1  0  0  0
 77 80  1  0  0  0
 77 83  1  0  0  0
 77 85  2  0  0  0
 78 79  1  0  0  0
 78 80  1  0  0  0
 78148  1  0  0  0
 78149  1  0  0  0
 79 83  1  0  0  0
 79150  1  0  0  0
 79151  1  0  0  0
 80152  1  0  0  0
 81153  1  0  0  0
 81154  1  0  0  0
 81155  1  0  0  0
 82 83  1  0  0  0
 82156  1  0  0  0
 82157  1  0  0  0
 84158  1  0  0  0
M  ISO  4   1 100  68 101  80 101  84 100
M  END
> <chiral flag>
0

> <version>
0

> <s_m_source_file>
/data/baiqing/PycharmProjects/Reinvent-master-3.2/result/LINK_invent/BTK/process_docking_weight1_custom_product_contain_oxygen_bond_distance_aromatic_linkinvent_7_9_3/rearranged_h_0048.sdf

> <i_m_source_file_index>
89

> <r_mmod_Potential_Energy-OPLS-2005>
108.700584411621

> <r_mmod_Stretch_Energy-OPLS-2005>
87.9159088134766

> <r_mmod_Bend_Energy-OPLS-2005>
185.172088623047

> <r_mmod_Torsional_Energy-OPLS-2005>
249.585189819336

> <r_mmod_Improper_Torsional_Energy-OPLS-2005>
5.56770038604736

> <r_mmod_Van_der_Waal_Energy-OPLS-2005>
138.809585571289

> <r_mmod_Electrostatic_Energy-OPLS-2005>
-375.915832519531

> <r_mmod_Solvation_Energy-OPLS-2005>
-241.041000366211

> <b_mmod_Minimization_Converged-OPLS-2005>
0

> <r_mmod_RMS_Derivative-OPLS-2005>
1.87617540359497

$$$$
89
                    3D
 Structure written by MMmdl.
159167  0  0  1  0            999 V2000
  -30.6990  -14.4258   20.6231 C   0  0  0  0  0  0
  -30.4377  -12.2892   19.4033 C   0  0  0  0  0  0
  -29.5002  -12.5029   18.1970 C   0  0  0  0  0  0
  -28.0203  -12.3622   18.6094 C   0  0  0  0  0  0
  -27.6710  -13.1902   19.8747 C   0  0  2  0  0  0
  -28.7092  -12.9214   20.9863 C   0  0  0  0  0  0
  -25.2647  -13.8136   20.5645 C   0  0  0  0  0  0
  -24.1866  -13.0455   20.9128 C   0  0  0  0  0  0
  -24.6379  -11.6900   20.8697 C   0  0  0  0  0  0
  -23.9034  -10.4303   21.0388 C   0  0  0  0  0  0
  -24.3600   -9.4229   21.9170 C   0  0  0  0  0  0
  -23.6279   -8.2266   22.0756 C   0  0  0  0  0  0
  -22.4265   -8.0284   21.3542 C   0  0  0  0  0  0
  -21.9889   -9.0249   20.4644 C   0  0  0  0  0  0
  -22.7206  -10.2135   20.3041 C   0  0  0  0  0  0
  -21.6857   -6.0732   22.5279 C   0  0  0  0  0  0
  -21.4017   -6.5633   23.8213 C   0  0  0  0  0  0
  -21.3658   -5.6779   24.9169 C   0  0  0  0  0  0
  -21.6049   -4.3044   24.7224 C   0  0  0  0  0  0
  -21.8817   -3.8140   23.4342 C   0  0  0  0  0  0
  -21.9193   -4.6956   22.3398 C   0  0  0  0  0  0
  -22.7890  -13.5271   21.1810 C   0  0  0  0  0  0
  -22.1657   -4.2142   21.0974 F   0  0  0  0  0  0
  -21.5635   -3.4526   25.7739 F   0  0  0  0  0  0
  -30.0521  -13.2409   20.4552 N   0  0  0  0  0  0
  -26.3067  -12.9271   20.3324 N   0  0  0  0  0  0
  -25.9303  -11.6453   20.5721 N   0  0  0  0  0  0
  -22.0511  -12.8270   22.0361 N   0  0  0  0  0  0
  -25.4448  -15.1860   20.4105 N   0  0  0  0  0  0
  -31.7569  -14.7120   20.0525 O   0  0  0  0  0  0
  -21.6640   -6.8873   21.4241 O   0  0  0  0  0  0
  -22.3588  -14.5588   20.6660 O   0  0  0  0  0  0
  -24.6139  -31.8680   23.2085 C   0  0  0  0  0  0
  -25.9023  -32.4824   23.8389 C   0  0  1  0  0  0
  -27.2409  -27.4370   20.1028 C   0  0  0  0  0  0
  -25.5886  -33.8616   24.2328 N   0  0  0  0  0  0
  -23.4033  -30.4890   21.5482 C   0  0  2  0  0  0
  -24.8539  -28.9494   20.1200 C   0  0  0  0  0  0
  -22.7393  -29.4650   22.4963 C   0  0  0  0  0  0
  -18.0269  -28.1380   22.8490 C   0  0  0  0  0  0
  -24.1487  -36.7324   23.2640 C   0  0  0  0  0  0
  -25.9307  -30.8343   21.3609 C   0  0  0  0  0  0
  -26.0122  -29.4647   20.7169 C   0  0  0  0  0  0
  -27.2103  -28.7133   20.7099 C   0  0  0  0  0  0
  -26.0717  -26.9329   19.4997 C   0  0  0  0  0  0
  -24.8771  -27.6804   19.5128 C   0  0  0  0  0  0
  -23.6154  -29.8172   20.1644 C   0  0  0  0  0  0
  -25.4106  -36.3113   24.0342 C   0  0  1  0  0  0
  -20.5857  -28.3664   23.1317 C   0  0  2  0  0  0
  -20.6759  -26.9401   22.5422 C   0  0  0  0  0  0
  -19.5745  -26.6387   21.5206 C   0  0  0  0  0  0
  -18.1918  -26.7926   22.1617 C   0  0  0  0  0  0
  -19.1521  -28.8837   23.2899 C   0  0  0  0  0  0
  -18.9454  -30.1438   23.8915 C   0  0  0  0  0  0
  -17.6463  -30.6587   24.0569 C   0  0  0  0  0  0
  -25.9033  -34.9478   23.5140 C   0  0  0  0  0  0
  -16.5349  -29.9102   23.6322 C   0  0  0  0  0  0
  -16.7253  -28.6519   23.0341 C   0  0  0  0  0  0
  -26.4468  -31.6605   25.0713 C   0  0  0  0  0  0
  -25.3746  -31.3713   26.1473 C   0  0  0  0  0  0
  -27.0306  -30.3057   24.6069 C   0  0  0  0  0  0
  -27.6041  -32.4323   25.7480 C   0  0  0  0  0  0
  -27.5580  -37.1815   24.8464 C   0  0  0  0  0  0
  -21.4117  -29.3038   22.3717 N   0  0  0  0  0  0
  -26.4292  -37.3797   23.9409 N   0  0  0  0  0  0
  -24.6672  -31.0777   22.0986 N   0  0  0  0  0  0
  -23.4169  -28.8185   23.2993 O   0  0  0  0  0  0
  -28.3915  -26.6835   20.0675 O   0  0  0  0  0  0
  -26.5581  -34.8927   22.4691 O   0  0  0  0  0  0
  -23.5330  -32.1403   23.7490 O   0  0  0  0  0  0
  -29.1820  -17.1833   22.5678 C   0  0  0  0  0  0
  -30.7488  -17.5801   20.7596 C   0  0  0  0  0  0
  -29.7859  -19.4931   21.9880 C   0  0  0  0  0  0
  -29.0442  -18.5710   22.7821 C   0  0  0  0  0  0
  -30.0411  -16.6686   21.5794 C   0  0  0  0  0  0
  -30.6167  -18.9782   20.9573 C   0  0  0  0  0  0
  -29.7466  -20.9427   22.2938 C   0  0  0  0  0  0
  -28.0700  -19.0178   23.8663 C   0  0  0  0  0  0
  -28.7617  -24.2677   20.6173 C   0  0  0  0  0  0
  -29.0349  -23.3066   21.7992 C   0  0  0  0  0  0
  -28.5105  -25.7147   21.1202 C   0  0  0  0  0  0
  -30.1462  -21.3358   23.5066 N   0  0  0  0  0  0
  -30.0802  -15.2474   21.4824 N   0  0  0  0  0  0
  -29.2738  -21.8816   21.4438 N   0  3  0  0  0  0
  -31.3243  -19.8194   20.1639 F   0  0  0  0  0  0
  -31.4811  -12.4022   19.1003 H   0  0  0  0  0  0
  -30.3504  -11.2676   19.7778 H   0  0  0  0  0  0
  -29.7381  -11.7852   17.4110 H   0  0  0  0  0  0
  -29.6658  -13.4933   17.7711 H   0  0  0  0  0  0
  -27.8305  -11.3048   18.7976 H   0  0  0  0  0  0
  -27.3693  -12.6444   17.7802 H   0  0  0  0  0  0
  -27.7327  -14.2432   19.5992 H   0  0  0  0  0  0
  -28.6800  -11.8706   21.2796 H   0  0  0  0  0  0
  -28.4463  -13.4671   21.8925 H   0  0  0  0  0  0
  -25.2748   -9.5716   22.4729 H   0  0  0  0  0  0
  -23.9990   -7.4674   22.7484 H   0  0  0  0  0  0
  -21.0821   -8.8760   19.8954 H   0  0  0  0  0  0
  -22.3661  -10.9665   19.6141 H   0  0  0  0  0  0
  -21.2007   -7.6138   23.9712 H   0  0  0  0  0  0
  -21.1485   -6.0510   25.9075 H   0  0  0  0  0  0
  -22.0602   -2.7601   23.2839 H   0  0  0  0  0  0
  -22.4088  -11.9912   22.4753 H   0  0  0  0  0  0
  -21.1150  -13.1342   22.2574 H   0  0  0  0  0  0
  -24.6909  -15.8523   20.5322 H   0  0  0  0  0  0
  -26.3110  -15.6211   20.1191 H   0  0  0  0  0  0
  -26.7089  -32.5548   23.1150 H   0  0  0  0  0  0
  -25.0063  -33.9789   25.0490 H   0  0  0  0  0  0
  -22.6932  -31.3056   21.4044 H   0  0  0  0  0  0
  -23.3745  -35.9666   23.3312 H   0  0  0  0  0  0
  -24.3578  -36.8919   22.2054 H   0  0  0  0  0  0
  -23.7251  -37.6538   23.6637 H   0  0  0  0  0  0
  -26.0341  -31.5937   20.5845 H   0  0  0  0  0  0
  -26.8220  -30.8967   21.9728 H   0  0  0  0  0  0
  -28.1064  -29.1071   21.1690 H   0  0  0  0  0  0
  -26.0900  -25.9631   19.0222 H   0  0  0  0  0  0
  -23.9861  -27.2745   19.0554 H   0  0  0  0  0  0
  -23.7273  -30.5899   19.4029 H   0  0  0  0  0  0
  -22.7402  -29.2367   19.8662 H   0  0  0  0  0  0
  -25.1285  -36.1982   25.0837 H   0  0  0  0  0  0
  -20.9954  -28.3232   24.1434 H   0  0  0  0  0  0
  -20.5655  -26.2266   23.3607 H   0  0  0  0  0  0
  -21.6630  -26.7440   22.1214 H   0  0  0  0  0  0
  -19.6907  -25.6295   21.1235 H   0  0  0  0  0  0
  -19.6695  -27.3198   20.6735 H   0  0  0  0  0  0
  -17.4186  -26.6659   21.4019 H   0  0  0  0  0  0
  -18.0322  -26.0070   22.9022 H   0  0  0  0  0  0
  -19.7933  -30.7244   24.2295 H   0  0  0  0  0  0
  -17.5025  -31.6273   24.5170 H   0  0  0  0  0  0
  -15.5351  -30.3023   23.7646 H   0  0  0  0  0  0
  -15.8641  -28.0859   22.7044 H   0  0  0  0  0  0
  -24.5904  -30.7073   25.7816 H   0  0  0  0  0  0
  -24.8966  -32.2878   26.4941 H   0  0  0  0  0  0
  -25.8119  -30.8868   27.0215 H   0  0  0  0  0  0
  -26.2845  -29.6809   24.1142 H   0  0  0  0  0  0
  -27.4114  -29.7296   25.4514 H   0  0  0  0  0  0
  -27.8657  -30.4396   23.9187 H   0  0  0  0  0  0
  -27.2652  -33.3600   26.2103 H   0  0  0  0  0  0
  -28.3836  -32.6918   25.0305 H   0  0  0  0  0  0
  -28.0725  -31.8422   26.5363 H   0  0  0  0  0  0
  -28.2607  -38.0107   24.7504 H   0  0  0  0  0  0
  -28.1072  -36.2635   24.6299 H   0  0  0  0  0  0
  -27.2296  -37.1477   25.8868 H   0  0  0  0  0  0
  -20.9259  -29.8796   21.6982 H   0  0  0  0  0  0
  -26.0187  -38.2882   24.1406 H   0  0  0  0  0  0
  -28.6099  -16.4983   23.1783 H   0  0  0  0  0  0
  -31.4035  -17.2270   19.9774 H   0  0  0  0  0  0
  -27.4117  -18.2022   24.1696 H   0  0  0  0  0  0
  -27.4264  -19.8289   23.5223 H   0  0  0  0  0  0
  -28.6106  -19.3497   24.7523 H   0  0  0  0  0  0
  -27.9010  -23.9209   20.0443 H   0  0  0  0  0  0
  -29.6132  -24.2648   19.9373 H   0  0  0  0  0  0
  -28.1913  -23.3418   22.4917 H   0  0  0  0  0  0
  -29.8992  -23.6787   22.3520 H   0  0  0  0  0  0
  -27.6364  -25.7199   21.7756 H   0  0  0  0  0  0
  -29.3521  -26.0241   21.7423 H   0  0  0  0  0  0
  -30.1464  -22.2958   23.8062 H   0  0  0  0  0  0
  -30.4985  -20.6415   24.1480 H   0  0  0  0  0  0
  -29.3620  -14.7734   22.0074 H   0  0  0  0  0  0
  -28.8739  -21.5413   20.5780 H   0  0  0  0  0  0
  1 25  1  0  0  0
  1 30  2  0  0  0
  1 83  1  0  0  0
  2  3  1  0  0  0
  2 25  1  0  0  0
  2 86  1  0  0  0
  2 87  1  0  0  0
  3  4  1  0  0  0
  3 88  1  0  0  0
  3 89  1  0  0  0
  4  5  1  0  0  0
  4 90  1  0  0  0
  4 91  1  0  0  0
  5  6  1  0  0  0
  5 26  1  0  0  0
  5 92  1  0  0  0
  6 25  1  0  0  0
  6 93  1  0  0  0
  6 94  1  0  0  0
  7  8  2  0  0  0
  7 26  1  0  0  0
  7 29  1  0  0  0
  8  9  1  0  0  0
  8 22  1  0  0  0
  9 10  1  0  0  0
  9 27  2  0  0  0
 10 11  2  0  0  0
 10 15  1  0  0  0
 11 12  1  0  0  0
 11 95  1  0  0  0
 12 13  2  0  0  0
 12 96  1  0  0  0
 13 14  1  0  0  0
 13 31  1  0  0  0
 14 15  2  0  0  0
 14 97  1  0  0  0
 15 98  1  0  0  0
 16 17  2  0  0  0
 16 21  1  0  0  0
 16 31  1  0  0  0
 17 18  1  0  0  0
 17 99  1  0  0  0
 18 19  2  0  0  0
 18100  1  0  0  0
 19 20  1  0  0  0
 19 24  1  0  0  0
 20 21  2  0  0  0
 20101  1  0  0  0
 21 23  1  0  0  0
 22 28  1  0  0  0
 22 32  2  0  0  0
 26 27  1  0  0  0
 28102  1  0  0  0
 28103  1  0  0  0
 29104  1  0  0  0
 29105  1  0  0  0
 33 34  1  0  0  0
 33 66  1  0  0  0
 33 70  2  0  0  0
 34 36  1  0  0  0
 34 59  1  0  0  0
 34106  1  0  0  0
 35 44  2  0  0  0
 35 45  1  0  0  0
 35 68  1  0  0  0
 36 56  1  0  0  0
 36107  1  0  0  0
 37 39  1  0  0  0
 37 47  1  0  0  0
 37 66  1  0  0  0
 37108  1  0  0  0
 38 43  2  0  0  0
 38 46  1  0  0  0
 38 47  1  0  0  0
 39 64  1  0  0  0
 39 67  2  0  0  0
 40 52  1  0  0  0
 40 53  2  0  0  0
 40 58  1  0  0  0
 41109  1  0  0  0
 41110  1  0  0  0
 41111  1  0  0  0
 41 48  1  0  0  0
 42 43  1  0  0  0
 42 66  1  0  0  0
 42112  1  0  0  0
 42113  1  0  0  0
 43 44  1  0  0  0
 44114  1  0  0  0
 45 46  2  0  0  0
 45115  1  0  0  0
 46116  1  0  0  0
 47117  1  0  0  0
 47118  1  0  0  0
 48 56  1  0  0  0
 48 65  1  0  0  0
 48119  1  0  0  0
 49 50  1  0  0  0
 49 53  1  0  0  0
 49 64  1  0  0  0
 49120  1  0  0  0
 50 51  1  0  0  0
 50121  1  0  0  0
 50122  1  0  0  0
 51 52  1  0  0  0
 51123  1  0  0  0
 51124  1  0  0  0
 52125  1  0  0  0
 52126  1  0  0  0
 53 54  1  0  0  0
 54 55  2  0  0  0
 54127  1  0  0  0
 55 57  1  0  0  0
 55128  1  0  0  0
 56 69  2  0  0  0
 57 58  2  0  0  0
 57129  1  0  0  0
 58130  1  0  0  0
 59 60  1  0  0  0
 59 61  1  0  0  0
 59 62  1  0  0  0
 60131  1  0  0  0
 60132  1  0  0  0
 60133  1  0  0  0
 61134  1  0  0  0
 61135  1  0  0  0
 61136  1  0  0  0
 62137  1  0  0  0
 62138  1  0  0  0
 62139  1  0  0  0
 63 65  1  0  0  0
 63140  1  0  0  0
 63141  1  0  0  0
 63142  1  0  0  0
 64143  1  0  0  0
 65144  1  0  0  0
 68 81  1  0  0  0
 71 74  2  0  0  0
 71 75  1  0  0  0
 71145  1  0  0  0
 72 75  2  0  0  0
 72 76  1  0  0  0
 72146  1  0  0  0
 73 74  1  0  0  0
 73 76  2  0  0  0
 73 77  1  0  0  0
 74 78  1  0  0  0
 75 83  1  0  0  0
 76 85  1  0  0  0
 77 82  1  0  0  0
 77 84  2  0  0  0
 78147  1  0  0  0
 78148  1  0  0  0
 78149  1  0  0  0
 79 80  1  0  0  0
 79 81  1  0  0  0
 79150  1  0  0  0
 79151  1  0  0  0
 80 84  1  0  0  0
 80152  1  0  0  0
 80153  1  0  0  0
 81154  1  0  0  0
 81155  1  0  0  0
 82156  1  0  0  0
 82157  1  0  0  0
 83158  1  0  0  0
 84159  1  0  0  0
M  CHG  1  84   1
M  ISO  4   1 100  68 101  81 101  83 100
M  END
> <chiral flag>
0

> <version>
0

> <s_m_source_file>
/data/baiqing/PycharmProjects/Reinvent-master-3.2/result/LINK_invent/BTK/process_docking_weight1_custom_product_contain_oxygen_bond_distance_aromatic_linkinvent_7_9_3/rearranged_h_0048.sdf

> <i_m_source_file_index>
90

> <r_mmod_Potential_Energy-OPLS-2005>
-131.905670166016

> <r_mmod_Stretch_Energy-OPLS-2005>
38.7859115600586

> <r_mmod_Bend_Energy-OPLS-2005>
107.084434509277

> <r_mmod_Torsional_Energy-OPLS-2005>
244.413375854492

> <r_mmod_Improper_Torsional_Energy-OPLS-2005>
3.43279457092285

> <r_mmod_Van_der_Waal_Energy-OPLS-2005>
156.148544311523

> <r_mmod_Electrostatic_Energy-OPLS-2005>
-276.778930664062

> <r_mmod_Solvation_Energy-OPLS-2005>
-414.469360351562

> <b_mmod_Minimization_Converged-OPLS-2005>
0

> <r_mmod_RMS_Derivative-OPLS-2005>
2.67962956428528

$$$$
90
                    3D
 Structure written by MMmdl.
157165  0  0  1  0            999 V2000
  -30.6615  -14.5443   20.5585 C   0  0  0  0  0  0
  -30.4330  -12.3521   19.4222 C   0  0  0  0  0  0
  -29.4966  -12.5046   18.2049 C   0  0  0  0  0  0
  -28.0196  -12.3510   18.6222 C   0  0  0  0  0  0
  -27.6557  -13.2072   19.8647 C   0  0  2  0  0  0
  -28.7003  -13.0170   20.9858 C   0  0  0  0  0  0
  -25.2574  -13.8155   20.5673 C   0  0  0  0  0  0
  -24.1832  -13.0432   20.9182 C   0  0  0  0  0  0
  -24.6387  -11.6900   20.8736 C   0  0  0  0  0  0
  -23.9056  -10.4288   21.0407 C   0  0  0  0  0  0
  -24.3611   -9.4204   21.9185 C   0  0  0  0  0  0
  -23.6288   -8.2240   22.0754 C   0  0  0  0  0  0
  -22.4270   -8.0278   21.3544 C   0  0  0  0  0  0
  -21.9903   -9.0252   20.4647 C   0  0  0  0  0  0
  -22.7230  -10.2131   20.3056 C   0  0  0  0  0  0
  -21.6851   -6.0734   22.5280 C   0  0  0  0  0  0
  -21.4013   -6.5639   23.8213 C   0  0  0  0  0  0
  -21.3659   -5.6792   24.9176 C   0  0  0  0  0  0
  -21.6044   -4.3055   24.7226 C   0  0  0  0  0  0
  -21.8820   -3.8146   23.4348 C   0  0  0  0  0  0
  -21.9192   -4.6962   22.3403 C   0  0  0  0  0  0
  -22.7857  -13.5233   21.1851 C   0  0  0  0  0  0
  -22.1661   -4.2148   21.0981 F   0  0  0  0  0  0
  -21.5629   -3.4539   25.7739 F   0  0  0  0  0  0
  -30.0191  -13.3489   20.4231 N   0  0  0  0  0  0
  -26.2995  -12.9320   20.3319 N   0  0  0  0  0  0
  -25.9310  -11.6483   20.5750 N   0  0  0  0  0  0
  -22.0498  -12.8227   22.0408 N   0  0  0  0  0  0
  -25.4298  -15.1875   20.4085 N   0  0  0  0  0  0
  -31.8167  -14.7241   20.1638 O   0  0  0  0  0  0
  -21.6636   -6.8875   21.4240 O   0  0  0  0  0  0
  -22.3544  -14.5543   20.6703 O   0  0  0  0  0  0
  -24.6190  -31.8649   23.2065 C   0  0  0  0  0  0
  -25.9067  -32.4805   23.8376 C   0  0  1  0  0  0
  -27.2303  -27.3873   20.1107 C   0  0  0  0  0  0
  -25.5909  -33.8603   24.2308 N   0  0  0  0  0  0
  -23.4092  -30.4874   21.5486 C   0  0  2  0  0  0
  -24.8557  -28.9425   20.1215 C   0  0  0  0  0  0
  -22.7430  -29.4649   22.4981 C   0  0  0  0  0  0
  -18.0274  -28.1378   22.8492 C   0  0  0  0  0  0
  -24.1489  -36.7309   23.2639 C   0  0  0  0  0  0
  -25.9424  -30.8162   21.3662 C   0  0  0  0  0  0
  -26.0199  -29.4447   20.7179 C   0  0  0  0  0  0
  -27.2132  -28.6767   20.7045 C   0  0  0  0  0  0
  -26.0480  -26.9093   19.5108 C   0  0  0  0  0  0
  -24.8665  -27.6753   19.5142 C   0  0  0  0  0  0
  -23.6208  -29.8166   20.1656 C   0  0  0  0  0  0
  -25.4110  -36.3101   24.0334 C   0  0  1  0  0  0
  -20.5867  -28.3673   23.1307 C   0  0  2  0  0  0
  -20.6767  -26.9406   22.5416 C   0  0  0  0  0  0
  -19.5746  -26.6386   21.5213 C   0  0  0  0  0  0
  -18.1922  -26.7924   22.1624 C   0  0  0  0  0  0
  -19.1524  -28.8842   23.2896 C   0  0  0  0  0  0
  -18.9453  -30.1446   23.8909 C   0  0  0  0  0  0
  -17.6456  -30.6587   24.0565 C   0  0  0  0  0  0
  -25.9041  -34.9467   23.5121 C   0  0  0  0  0  0
  -16.5346  -29.9089   23.6327 C   0  0  0  0  0  0
  -16.7263  -28.6503   23.0352 C   0  0  0  0  0  0
  -26.4481  -31.6590   25.0715 C   0  0  0  0  0  0
  -25.3737  -31.3701   26.1457 C   0  0  0  0  0  0
  -27.0314  -30.3027   24.6109 C   0  0  0  0  0  0
  -27.6054  -32.4313   25.7480 C   0  0  0  0  0  0
  -27.5580  -37.1808   24.8465 C   0  0  0  0  0  0
  -21.4154  -29.3037   22.3714 N   0  0  0  0  0  0
  -26.4294  -37.3787   23.9407 N   0  0  0  0  0  0
  -24.6753  -31.0715   22.0984 N   0  0  0  0  0  0
  -23.4182  -28.8193   23.3041 O   0  0  0  0  0  0
  -28.3836  -26.6220   20.0480 O   0  0  0  0  0  0
  -26.5608  -34.8926   22.4685 O   0  0  0  0  0  0
  -23.5372  -32.1423   23.7433 O   0  0  0  0  0  0
  -30.8649  -18.1720   19.3506 C   0  0  0  0  0  0
  -30.8075  -19.3172   18.5322 C   0  0  0  0  0  0
  -29.3070  -19.2325   20.8909 C   0  0  0  0  0  0
  -30.1265  -18.1138   20.5478 C   0  0  0  0  0  0
  -29.2284  -20.3974   20.0648 C   0  0  0  0  0  0
  -30.0035  -20.4219   18.8800 C   0  0  0  0  0  0
  -28.2863  -24.0676   20.1663 C   0  0  0  0  0  0
  -29.6255  -22.9226   21.9119 C   0  0  0  0  0  0
  -30.3188  -16.9054   21.4932 C   0  0  0  0  0  0
  -28.2326  -21.5472   20.3837 C   0  0  0  0  0  0
  -28.4631  -25.4439   20.9008 C   0  0  0  0  0  0
  -29.9020  -15.5610   21.0315 N   0  0  0  0  0  0
  -28.7439  -22.9064   20.7423 N   0  0  0  0  0  0
  -27.6610  -24.0504   19.1021 O   0  0  0  0  0  0
  -29.9652  -21.7776   17.8099 Cl  0  0  0  0  0  0
  -31.4733  -12.4781   19.1168 H   0  0  0  0  0  0
  -30.3630  -11.3467   19.8401 H   0  0  0  0  0  0
  -29.7474  -11.7665   17.4418 H   0  0  0  0  0  0
  -29.6474  -13.4825   17.7450 H   0  0  0  0  0  0
  -27.8461  -11.2961   18.8384 H   0  0  0  0  0  0
  -27.3637  -12.6003   17.7873 H   0  0  0  0  0  0
  -27.6888  -14.2495   19.5468 H   0  0  0  0  0  0
  -28.6978  -11.9843   21.3376 H   0  0  0  0  0  0
  -28.4544  -13.6231   21.8589 H   0  0  0  0  0  0
  -25.2757   -9.5682   22.4756 H   0  0  0  0  0  0
  -23.9999   -7.4631   22.7472 H   0  0  0  0  0  0
  -21.0835   -8.8769   19.8953 H   0  0  0  0  0  0
  -22.3689  -10.9670   19.6164 H   0  0  0  0  0  0
  -21.2004   -7.6147   23.9716 H   0  0  0  0  0  0
  -21.1480   -6.0523   25.9079 H   0  0  0  0  0  0
  -22.0600   -2.7608   23.2849 H   0  0  0  0  0  0
  -22.4109  -11.9882   22.4790 H   0  0  0  0  0  0
  -21.1120  -13.1258   22.2621 H   0  0  0  0  0  0
  -24.6624  -15.8421   20.5158 H   0  0  0  0  0  0
  -26.2788  -15.6267   20.0750 H   0  0  0  0  0  0
  -26.7136  -32.5507   23.1136 H   0  0  0  0  0  0
  -25.0057  -33.9759   25.0452 H   0  0  0  0  0  0
  -22.6999  -31.3051   21.4058 H   0  0  0  0  0  0
  -23.3745  -35.9648   23.3313 H   0  0  0  0  0  0
  -24.3579  -36.8914   22.2051 H   0  0  0  0  0  0
  -23.7250  -37.6519   23.6649 H   0  0  0  0  0  0
  -26.0588  -31.5779   20.5941 H   0  0  0  0  0  0
  -26.8289  -30.8724   21.9864 H   0  0  0  0  0  0
  -28.1162  -29.0660   21.1540 H   0  0  0  0  0  0
  -26.0358  -25.9450   19.0256 H   0  0  0  0  0  0
  -23.9736  -27.2839   19.0465 H   0  0  0  0  0  0
  -23.7350  -30.5901   19.4050 H   0  0  0  0  0  0
  -22.7428  -29.2403   19.8681 H   0  0  0  0  0  0
  -25.1287  -36.1965   25.0827 H   0  0  0  0  0  0
  -20.9954  -28.3244   24.1430 H   0  0  0  0  0  0
  -20.5676  -26.2281   23.3606 H   0  0  0  0  0  0
  -21.6637  -26.7454   22.1205 H   0  0  0  0  0  0
  -19.6913  -25.6301   21.1236 H   0  0  0  0  0  0
  -19.6684  -27.3204   20.6748 H   0  0  0  0  0  0
  -17.4194  -26.6673   21.4025 H   0  0  0  0  0  0
  -18.0323  -26.0061   22.9015 H   0  0  0  0  0  0
  -19.7931  -30.7253   24.2288 H   0  0  0  0  0  0
  -17.5015  -31.6269   24.5162 H   0  0  0  0  0  0
  -15.5348  -30.2997   23.7645 H   0  0  0  0  0  0
  -15.8661  -28.0827   22.7065 H   0  0  0  0  0  0
  -24.5912  -30.7048   25.7790 H   0  0  0  0  0  0
  -24.8924  -32.2856   26.4909 H   0  0  0  0  0  0
  -25.8083  -30.8867   27.0215 H   0  0  0  0  0  0
  -26.2865  -29.6781   24.1164 H   0  0  0  0  0  0
  -27.4075  -29.7270   25.4577 H   0  0  0  0  0  0
  -27.8705  -30.4333   23.9270 H   0  0  0  0  0  0
  -27.2674  -33.3606   26.2077 H   0  0  0  0  0  0
  -28.3854  -32.6883   25.0300 H   0  0  0  0  0  0
  -28.0734  -31.8423   26.5378 H   0  0  0  0  0  0
  -28.2605  -38.0098   24.7507 H   0  0  0  0  0  0
  -28.1068  -36.2630   24.6300 H   0  0  0  0  0  0
  -27.2297  -37.1471   25.8869 H   0  0  0  0  0  0
  -20.9323  -29.8756   21.6928 H   0  0  0  0  0  0
  -26.0183  -38.2867   24.1401 H   0  0  0  0  0  0
  -31.5055  -17.3472   19.0704 H   0  0  0  0  0  0
  -31.3892  -19.3489   17.6220 H   0  0  0  0  0  0
  -28.7278  -19.1964   21.8031 H   0  0  0  0  0  0
  -29.1556  -23.4377   22.7508 H   0  0  0  0  0  0
  -30.5660  -23.4231   21.6784 H   0  0  0  0  0  0
  -29.8745  -21.9178   22.2541 H   0  0  0  0  0  0
  -29.7811  -17.1061   22.4206 H   0  0  0  0  0  0
  -31.3720  -16.8709   21.7779 H   0  0  0  0  0  0
  -27.5956  -21.2241   21.2080 H   0  0  0  0  0  0
  -27.5543  -21.6084   19.5315 H   0  0  0  0  0  0
  -29.4446  -25.4826   21.3709 H   0  0  0  0  0  0
  -27.7331  -25.5035   21.7096 H   0  0  0  0  0  0
  -28.9475  -15.3127   21.2407 H   0  0  0  0  0  0
  1 25  1  0  0  0
  1 30  2  0  0  0
  1 82  1  0  0  0
  2  3  1  0  0  0
  2 25  1  0  0  0
  2 86  1  0  0  0
  2 87  1  0  0  0
  3  4  1  0  0  0
  3 88  1  0  0  0
  3 89  1  0  0  0
  4  5  1  0  0  0
  4 90  1  0  0  0
  4 91  1  0  0  0
  5  6  1  0  0  0
  5 26  1  0  0  0
  5 92  1  0  0  0
  6 25  1  0  0  0
  6 93  1  0  0  0
  6 94  1  0  0  0
  7  8  2  0  0  0
  7 26  1  0  0  0
  7 29  1  0  0  0
  8  9  1  0  0  0
  8 22  1  0  0  0
  9 10  1  0  0  0
  9 27  2  0  0  0
 10 11  2  0  0  0
 10 15  1  0  0  0
 11 12  1  0  0  0
 11 95  1  0  0  0
 12 13  2  0  0  0
 12 96  1  0  0  0
 13 14  1  0  0  0
 13 31  1  0  0  0
 14 15  2  0  0  0
 14 97  1  0  0  0
 15 98  1  0  0  0
 16 17  2  0  0  0
 16 21  1  0  0  0
 16 31  1  0  0  0
 17 18  1  0  0  0
 17 99  1  0  0  0
 18 19  2  0  0  0
 18100  1  0  0  0
 19 20  1  0  0  0
 19 24  1  0  0  0
 20 21  2  0  0  0
 20101  1  0  0  0
 21 23  1  0  0  0
 22 28  1  0  0  0
 22 32  2  0  0  0
 26 27  1  0  0  0
 28102  1  0  0  0
 28103  1  0  0  0
 29104  1  0  0  0
 29105  1  0  0  0
 33 34  1  0  0  0
 33 66  1  0  0  0
 33 70  2  0  0  0
 34 36  1  0  0  0
 34 59  1  0  0  0
 34106  1  0  0  0
 35 44  2  0  0  0
 35 45  1  0  0  0
 35 68  1  0  0  0
 36 56  1  0  0  0
 36107  1  0  0  0
 37 39  1  0  0  0
 37 47  1  0  0  0
 37 66  1  0  0  0
 37108  1  0  0  0
 38 43  2  0  0  0
 38 46  1  0  0  0
 38 47  1  0  0  0
 39 64  1  0  0  0
 39 67  2  0  0  0
 40 52  1  0  0  0
 40 53  2  0  0  0
 40 58  1  0  0  0
 41109  1  0  0  0
 41110  1  0  0  0
 41111  1  0  0  0
 41 48  1  0  0  0
 42 43  1  0  0  0
 42 66  1  0  0  0
 42112  1  0  0  0
 42113  1  0  0  0
 43 44  1  0  0  0
 44114  1  0  0  0
 45 46  2  0  0  0
 45115  1  0  0  0
 46116  1  0  0  0
 47117  1  0  0  0
 47118  1  0  0  0
 48 56  1  0  0  0
 48 65  1  0  0  0
 48119  1  0  0  0
 49 50  1  0  0  0
 49 53  1  0  0  0
 49 64  1  0  0  0
 49120  1  0  0  0
 50 51  1  0  0  0
 50121  1  0  0  0
 50122  1  0  0  0
 51 52  1  0  0  0
 51123  1  0  0  0
 51124  1  0  0  0
 52125  1  0  0  0
 52126  1  0  0  0
 53 54  1  0  0  0
 54 55  2  0  0  0
 54127  1  0  0  0
 55 57  1  0  0  0
 55128  1  0  0  0
 56 69  2  0  0  0
 57 58  2  0  0  0
 57129  1  0  0  0
 58130  1  0  0  0
 59 60  1  0  0  0
 59 61  1  0  0  0
 59 62  1  0  0  0
 60131  1  0  0  0
 60132  1  0  0  0
 60133  1  0  0  0
 61134  1  0  0  0
 61135  1  0  0  0
 61136  1  0  0  0
 62137  1  0  0  0
 62138  1  0  0  0
 62139  1  0  0  0
 63 65  1  0  0  0
 63140  1  0  0  0
 63141  1  0  0  0
 63142  1  0  0  0
 64143  1  0  0  0
 65144  1  0  0  0
 68 81  1  0  0  0
 71 72  2  0  0  0
 71 74  1  0  0  0
 71145  1  0  0  0
 72 76  1  0  0  0
 72146  1  0  0  0
 73 74  2  0  0  0
 73 75  1  0  0  0
 73147  1  0  0  0
 74 79  1  0  0  0
 75 76  2  0  0  0
 75 80  1  0  0  0
 76 85  1  0  0  0
 77 81  1  0  0  0
 77 83  1  0  0  0
 77 84  2  0  0  0
 78 83  1  0  0  0
 78148  1  0  0  0
 78149  1  0  0  0
 78150  1  0  0  0
 79 82  1  0  0  0
 79151  1  0  0  0
 79152  1  0  0  0
 80 83  1  0  0  0
 80153  1  0  0  0
 80154  1  0  0  0
 81155  1  0  0  0
 81156  1  0  0  0
 82157  1  0  0  0
M  ISO  4   1 100  68 101  81 101  82 100
M  END
> <chiral flag>
0

> <version>
0

> <s_m_source_file>
/data/baiqing/PycharmProjects/Reinvent-master-3.2/result/LINK_invent/BTK/process_docking_weight1_custom_product_contain_oxygen_bond_distance_aromatic_linkinvent_7_9_3/rearranged_h_0048.sdf

> <i_m_source_file_index>
91

> <r_mmod_Potential_Energy-OPLS-2005>
-32.8085556030273

> <r_mmod_Stretch_Energy-OPLS-2005>
54.9209785461426

> <r_mmod_Bend_Energy-OPLS-2005>
111.819747924805

> <r_mmod_Torsional_Energy-OPLS-2005>
244.785583496094

> <r_mmod_Improper_Torsional_Energy-OPLS-2005>
4.63857555389404

> <r_mmod_Van_der_Waal_Energy-OPLS-2005>
143.171417236328

> <r_mmod_Electrostatic_Energy-OPLS-2005>
-381.316680908203

> <r_mmod_Solvation_Energy-OPLS-2005>
-233.035522460938

> <b_mmod_Minimization_Converged-OPLS-2005>
0

> <r_mmod_RMS_Derivative-OPLS-2005>
0.302566289901733

$$$$
