0
                    3D
 Structure written by MMmdl.
152160  0  0  1  0            999 V2000
  -30.5314  -14.8513   20.4727 C   0  0  0  0  0  0
  -30.4355  -12.5215   19.4971 C   0  0  0  0  0  0
  -29.5064  -12.5329   18.2604 C   0  0  0  0  0  0
  -28.0377  -12.3173   18.6768 C   0  0  0  0  0  0
  -27.6344  -13.2189   19.8735 C   0  0  2  0  0  0
  -28.6827  -13.1826   21.0083 C   0  0  0  0  0  0
  -25.2404  -13.7998   20.6050 C   0  0  0  0  0  0
  -24.1662  -13.0221   20.9412 C   0  0  0  0  0  0
  -24.6310  -11.6781   20.8799 C   0  0  0  0  0  0
  -23.8985  -10.4181   21.0408 C   0  0  0  0  0  0
  -24.3565   -9.4114   21.9179 C   0  0  0  0  0  0
  -23.6267   -8.2137   22.0728 C   0  0  0  0  0  0
  -22.4220   -8.0202   21.3511 C   0  0  0  0  0  0
  -21.9840   -9.0164   20.4601 C   0  0  0  0  0  0
  -22.7169  -10.2062   20.3021 C   0  0  0  0  0  0
  -21.6872   -6.0667   22.5290 C   0  0  0  0  0  0
  -21.4071   -6.5590   23.8231 C   0  0  0  0  0  0
  -21.3665   -5.6773   24.9212 C   0  0  0  0  0  0
  -21.6070   -4.3035   24.7300 C   0  0  0  0  0  0
  -21.8823   -3.8070   23.4445 C   0  0  0  0  0  0
  -21.9192   -4.6876   22.3461 C   0  0  0  0  0  0
  -22.7699  -13.5018   21.2132 C   0  0  0  0  0  0
  -22.1664   -4.2003   21.1075 F   0  0  0  0  0  0
  -21.5534   -3.4561   25.7849 F   0  0  0  0  0  0
  -29.9753  -13.5814   20.4292 N   0  0  0  0  0  0
  -26.2835  -12.9260   20.3424 N   0  0  0  0  0  0
  -25.9224  -11.6413   20.5827 N   0  0  0  0  0  0
  -22.0270  -12.7835   22.0578 N   0  0  0  0  0  0
  -25.4044  -15.1669   20.4877 N   0  0  0  0  0  0
  -31.7120  -14.9968   20.1223 O   0  0  0  0  0  0
  -21.6612   -6.8779   21.4232 O   0  0  0  0  0  0
  -22.3448  -14.5448   20.7235 O   0  0  0  0  0  0
  -24.6408  -31.8521   23.1938 C   0  0  0  0  0  0
  -25.9162  -32.4735   23.8360 C   0  0  1  0  0  0
  -27.2712  -27.2676   20.1229 C   0  0  0  0  0  0
  -25.5912  -33.8540   24.2265 N   0  0  0  0  0  0
  -23.4436  -30.4728   21.5302 C   0  0  2  0  0  0
  -24.9065  -28.9196   20.0997 C   0  0  0  0  0  0
  -22.7619  -29.4610   22.4833 C   0  0  0  0  0  0
  -18.0380  -28.1403   22.8468 C   0  0  0  0  0  0
  -24.1506  -36.7283   23.2632 C   0  0  0  0  0  0
  -25.9899  -30.7674   21.3795 C   0  0  0  0  0  0
  -26.0722  -29.3914   20.7142 C   0  0  0  0  0  0
  -27.2581  -28.5836   20.7046 C   0  0  0  0  0  0
  -26.0682  -26.8595   19.4941 C   0  0  0  0  0  0
  -24.9142  -27.6706   19.4619 C   0  0  0  0  0  0
  -23.6729  -29.8036   20.1450 C   0  0  0  0  0  0
  -25.4121  -36.3045   24.0310 C   0  0  1  0  0  0
  -20.5945  -28.3847   23.1245 C   0  0  2  0  0  0
  -20.6873  -26.9490   22.5558 C   0  0  0  0  0  0
  -19.5969  -26.6516   21.5235 C   0  0  0  0  0  0
  -18.2106  -26.7985   22.1560 C   0  0  0  0  0  0
  -19.1607  -28.8927   23.2846 C   0  0  0  0  0  0
  -18.9508  -30.1471   23.8903 C   0  0  0  0  0  0
  -17.6515  -30.6641   24.0485 C   0  0  0  0  0  0
  -25.9059  -34.9408   23.5099 C   0  0  0  0  0  0
  -16.5406  -29.9120   23.6304 C   0  0  0  0  0  0
  -16.7350  -28.6499   23.0412 C   0  0  0  0  0  0
  -26.4533  -31.6575   25.0761 C   0  0  0  0  0  0
  -25.3759  -31.3676   26.1489 C   0  0  0  0  0  0
  -27.0390  -30.2983   24.6265 C   0  0  0  0  0  0
  -27.6152  -32.4292   25.7532 C   0  0  0  0  0  0
  -27.5585  -37.1796   24.8452 C   0  0  0  0  0  0
  -21.4301  -29.3169   22.3666 N   0  0  0  0  0  0
  -26.4296  -37.3712   23.9388 N   0  0  0  0  0  0
  -24.7074  -31.0515   22.0900 N   0  0  0  0  0  0
  -23.4350  -28.8082   23.2866 O   0  0  0  0  0  0
  -28.3867  -26.3863   20.1878 O   0  0  0  0  0  0
  -26.5629  -34.8866   22.4673 O   0  0  0  0  0  0
  -23.5529  -32.1316   23.7208 O   0  0  0  0  0  0
  -28.3096  -18.0094   20.1703 C   0  0  0  0  0  0
  -29.5115  -17.4082   20.5783 C   0  0  0  0  0  0
  -29.6193  -19.6876   20.6492 C   0  0  0  0  0  0
  -27.1244  -17.5486   19.4514 C   0  0  0  0  0  0
  -29.2467  -23.8171   20.4006 C   0  0  0  0  0  0
  -25.8420  -18.3992   19.4543 C   0  0  0  0  0  0
  -28.9828  -22.2618   20.0659 C   0  0  0  0  0  0
  -28.1920  -24.9173   19.8845 C   0  0  0  0  0  0
  -30.3657  -18.5454   20.8494 N   0  0  0  0  0  0
  -29.6518  -15.9062   20.7551 N   0  0  0  0  0  0
  -29.8599  -21.1103   20.5562 N   0  0  0  0  0  0
  -27.1499  -16.5226   18.7728 O   0  0  0  0  0  0
  -30.2365  -24.1460   21.0636 O   0  0  0  0  0  0
  -28.3498  -19.3758   20.3430 O   0  0  0  0  0  0
  -31.4683  -12.6872   19.1901 H   0  0  0  0  0  0
  -30.4155  -11.5443   19.9855 H   0  0  0  0  0  0
  -29.8062  -11.7643   17.5465 H   0  0  0  0  0  0
  -29.6026  -13.4910   17.7456 H   0  0  0  0  0  0
  -27.9148  -11.2676   18.9536 H   0  0  0  0  0  0
  -27.3702  -12.4867   17.8295 H   0  0  0  0  0  0
  -27.6234  -14.2311   19.4800 H   0  0  0  0  0  0
  -28.7492  -12.1828   21.4438 H   0  0  0  0  0  0
  -28.3984  -13.8501   21.8243 H   0  0  0  0  0  0
  -25.2683   -9.5638   22.4777 H   0  0  0  0  0  0
  -23.9992   -7.4530   22.7448 H   0  0  0  0  0  0
  -21.0734   -8.8661   19.8948 H   0  0  0  0  0  0
  -22.3568  -10.9633   19.6160 H   0  0  0  0  0  0
  -21.2123   -7.6098   23.9694 H   0  0  0  0  0  0
  -21.1496   -6.0536   25.9119 H   0  0  0  0  0  0
  -22.0596   -2.7504   23.3054 H   0  0  0  0  0  0
  -22.3727  -11.9303   22.4753 H   0  0  0  0  0  0
  -21.0990  -13.1009   22.2994 H   0  0  0  0  0  0
  -24.5897  -15.7685   20.5494 H   0  0  0  0  0  0
  -26.0971  -15.5121   19.8253 H   0  0  0  0  0  0
  -26.7301  -32.5412   23.1199 H   0  0  0  0  0  0
  -24.9989  -33.9699   25.0367 H   0  0  0  0  0  0
  -22.7407  -31.2948   21.3758 H   0  0  0  0  0  0
  -23.3720  -35.9653   23.3297 H   0  0  0  0  0  0
  -24.3611  -36.8910   22.2042 H   0  0  0  0  0  0
  -23.7294  -37.6494   23.6678 H   0  0  0  0  0  0
  -26.1493  -31.5411   20.6270 H   0  0  0  0  0  0
  -26.8584  -30.8116   22.0270 H   0  0  0  0  0  0
  -28.1534  -28.9558   21.1846 H   0  0  0  0  0  0
  -26.0018  -25.8905   19.0201 H   0  0  0  0  0  0
  -24.0361  -27.3214   18.9345 H   0  0  0  0  0  0
  -23.8090  -30.5817   19.3901 H   0  0  0  0  0  0
  -22.7982  -29.2347   19.8300 H   0  0  0  0  0  0
  -25.1333  -36.1880   25.0782 H   0  0  0  0  0  0
  -20.9991  -28.3542   24.1348 H   0  0  0  0  0  0
  -20.5572  -26.2507   23.3863 H   0  0  0  0  0  0
  -21.6829  -26.7426   22.1599 H   0  0  0  0  0  0
  -19.7287  -25.6476   21.1171 H   0  0  0  0  0  0
  -19.7025  -27.3326   20.6825 H   0  0  0  0  0  0
  -17.4332  -26.6680   21.3988 H   0  0  0  0  0  0
  -18.0638  -26.0126   22.8951 H   0  0  0  0  0  0
  -19.7970  -30.7279   24.2371 H   0  0  0  0  0  0
  -17.5064  -31.6420   24.4962 H   0  0  0  0  0  0
  -15.5421  -30.3040   23.7525 H   0  0  0  0  0  0
  -15.8790  -28.0769   22.7156 H   0  0  0  0  0  0
  -24.5997  -30.6996   25.7757 H   0  0  0  0  0  0
  -24.8923  -32.2822   26.4932 H   0  0  0  0  0  0
  -25.8094  -30.8828   27.0264 H   0  0  0  0  0  0
  -26.2973  -29.6728   24.1307 H   0  0  0  0  0  0
  -27.4073  -29.7243   25.4795 H   0  0  0  0  0  0
  -27.8865  -30.4237   23.9515 H   0  0  0  0  0  0
  -27.2827  -33.3590   26.2156 H   0  0  0  0  0  0
  -28.3934  -32.6852   25.0328 H   0  0  0  0  0  0
  -28.0877  -31.8381   26.5415 H   0  0  0  0  0  0
  -28.2586  -38.0107   24.7481 H   0  0  0  0  0  0
  -28.1108  -36.2650   24.6322 H   0  0  0  0  0  0
  -27.2313  -37.1446   25.8848 H   0  0  0  0  0  0
  -20.9501  -29.9202   21.7095 H   0  0  0  0  0  0
  -26.0183  -38.2783   24.1371 H   0  0  0  0  0  0
  -26.0076  -19.4590   19.2334 H   0  0  0  0  0  0
  -25.3447  -18.3155   20.4225 H   0  0  0  0  0  0
  -25.1410  -18.0214   18.7061 H   0  0  0  0  0  0
  -28.9377  -22.1703   18.9756 H   0  0  0  0  0  0
  -27.9700  -22.0477   20.4062 H   0  0  0  0  0  0
  -27.2395  -24.5989   20.3058 H   0  0  0  0  0  0
  -28.1016  -24.7830   18.8093 H   0  0  0  0  0  0
  -28.7608  -15.4841   20.9624 H   0  0  0  0  0  0
  -30.8458  -21.3490   20.5094 H   0  0  0  0  0  0
  1 25  1  0  0  0
  1 30  2  0  0  0
  1 80  1  0  0  0
  2  3  1  0  0  0
  2 25  1  0  0  0
  2 85  1  0  0  0
  2 86  1  0  0  0
  3  4  1  0  0  0
  3 87  1  0  0  0
  3 88  1  0  0  0
  4  5  1  0  0  0
  4 89  1  0  0  0
  4 90  1  0  0  0
  5  6  1  0  0  0
  5 26  1  0  0  0
  5 91  1  0  0  0
  6 25  1  0  0  0
  6 92  1  0  0  0
  6 93  1  0  0  0
  7  8  2  0  0  0
  7 26  1  0  0  0
  7 29  1  0  0  0
  8  9  1  0  0  0
  8 22  1  0  0  0
  9 10  1  0  0  0
  9 27  2  0  0  0
 10 11  2  0  0  0
 10 15  1  0  0  0
 11 12  1  0  0  0
 11 94  1  0  0  0
 12 13  2  0  0  0
 12 95  1  0  0  0
 13 14  1  0  0  0
 13 31  1  0  0  0
 14 15  2  0  0  0
 14 96  1  0  0  0
 15 97  1  0  0  0
 16 17  2  0  0  0
 16 21  1  0  0  0
 16 31  1  0  0  0
 17 18  1  0  0  0
 17 98  1  0  0  0
 18 19  2  0  0  0
 18 99  1  0  0  0
 19 20  1  0  0  0
 19 24  1  0  0  0
 20 21  2  0  0  0
 20100  1  0  0  0
 21 23  1  0  0  0
 22 28  1  0  0  0
 22 32  2  0  0  0
 26 27  1  0  0  0
 28101  1  0  0  0
 28102  1  0  0  0
 29103  1  0  0  0
 29104  1  0  0  0
 33 34  1  0  0  0
 33 66  1  0  0  0
 33 70  2  0  0  0
 34 36  1  0  0  0
 34 59  1  0  0  0
 34105  1  0  0  0
 35 44  2  0  0  0
 35 45  1  0  0  0
 35 68  1  0  0  0
 36 56  1  0  0  0
 36106  1  0  0  0
 37 39  1  0  0  0
 37 47  1  0  0  0
 37 66  1  0  0  0
 37107  1  0  0  0
 38 43  2  0  0  0
 38 46  1  0  0  0
 38 47  1  0  0  0
 39 64  1  0  0  0
 39 67  2  0  0  0
 40 52  1  0  0  0
 40 53  2  0  0  0
 40 58  1  0  0  0
 41108  1  0  0  0
 41109  1  0  0  0
 41110  1  0  0  0
 41 48  1  0  0  0
 42 43  1  0  0  0
 42 66  1  0  0  0
 42111  1  0  0  0
 42112  1  0  0  0
 43 44  1  0  0  0
 44113  1  0  0  0
 45 46  2  0  0  0
 45114  1  0  0  0
 46115  1  0  0  0
 47116  1  0  0  0
 47117  1  0  0  0
 48 56  1  0  0  0
 48 65  1  0  0  0
 48118  1  0  0  0
 49 50  1  0  0  0
 49 53  1  0  0  0
 49 64  1  0  0  0
 49119  1  0  0  0
 50 51  1  0  0  0
 50120  1  0  0  0
 50121  1  0  0  0
 51 52  1  0  0  0
 51122  1  0  0  0
 51123  1  0  0  0
 52124  1  0  0  0
 52125  1  0  0  0
 53 54  1  0  0  0
 54 55  2  0  0  0
 54126  1  0  0  0
 55 57  1  0  0  0
 55127  1  0  0  0
 56 69  2  0  0  0
 57 58  2  0  0  0
 57128  1  0  0  0
 58129  1  0  0  0
 59 60  1  0  0  0
 59 61  1  0  0  0
 59 62  1  0  0  0
 60130  1  0  0  0
 60131  1  0  0  0
 60132  1  0  0  0
 61133  1  0  0  0
 61134  1  0  0  0
 61135  1  0  0  0
 62136  1  0  0  0
 62137  1  0  0  0
 62138  1  0  0  0
 63 65  1  0  0  0
 63139  1  0  0  0
 63140  1  0  0  0
 63141  1  0  0  0
 64142  1  0  0  0
 65143  1  0  0  0
 68 78  1  0  0  0
 71 72  2  0  0  0
 71 74  1  0  0  0
 71 84  1  0  0  0
 72 79  1  0  0  0
 72 80  1  0  0  0
 73 79  2  0  0  0
 73 81  1  0  0  0
 73 84  1  0  0  0
 74 76  1  0  0  0
 74 82  2  0  0  0
 75 77  1  0  0  0
 75 78  1  0  0  0
 75 83  2  0  0  0
 76144  1  0  0  0
 76145  1  0  0  0
 76146  1  0  0  0
 77 81  1  0  0  0
 77147  1  0  0  0
 77148  1  0  0  0
 78149  1  0  0  0
 78150  1  0  0  0
 80151  1  0  0  0
 81152  1  0  0  0
M  ISO  4   1 100  68 101  78 101  80 100
M  END
> <chiral flag>
0

> <version>
0

> <s_m_source_file>
/data/baiqing/PycharmProjects/Reinvent-master-3.2/result/LINK_invent/BTK/process_docking_weight1_custom_product_contain_oxygen_bond_distance_aromatic_linkinvent_7_9_3/rearranged_h_0161.sdf

> <i_m_source_file_index>
1

> <r_mmod_Potential_Energy-OPLS-2005>
134.020935058594

> <r_mmod_Stretch_Energy-OPLS-2005>
142.730407714844

> <r_mmod_Bend_Energy-OPLS-2005>
219.963607788086

> <r_mmod_Torsional_Energy-OPLS-2005>
229.160339355469

> <r_mmod_Improper_Torsional_Energy-OPLS-2005>
10.5417394638062

> <r_mmod_Van_der_Waal_Energy-OPLS-2005>
118.463386535645

> <r_mmod_Electrostatic_Energy-OPLS-2005>
-442.557708740234

> <r_mmod_Solvation_Energy-OPLS-2005>
-260.611053466797

> <b_mmod_Minimization_Converged-OPLS-2005>
0

> <r_mmod_RMS_Derivative-OPLS-2005>
9.70939922332764

$$$$
1
                    3D
 Structure written by MMmdl.
154162  0  0  1  0            999 V2000
  -30.6595  -14.4962   20.5875 C   0  0  0  0  0  0
  -30.4401  -12.3269   19.4146 C   0  0  0  0  0  0
  -29.5003  -12.5134   18.2031 C   0  0  0  0  0  0
  -28.0205  -12.3639   18.6151 C   0  0  0  0  0  0
  -27.6636  -13.1970   19.8742 C   0  0  2  0  0  0
  -28.7055  -12.9562   20.9905 C   0  0  0  0  0  0
  -25.2607  -13.8130   20.5654 C   0  0  0  0  0  0
  -24.1854  -13.0430   20.9189 C   0  0  0  0  0  0
  -24.6388  -11.6892   20.8738 C   0  0  0  0  0  0
  -23.9046  -10.4289   21.0412 C   0  0  0  0  0  0
  -24.3601   -9.4206   21.9188 C   0  0  0  0  0  0
  -23.6283   -8.2240   22.0754 C   0  0  0  0  0  0
  -22.4267   -8.0275   21.3544 C   0  0  0  0  0  0
  -21.9896   -9.0249   20.4650 C   0  0  0  0  0  0
  -22.7220  -10.2133   20.3060 C   0  0  0  0  0  0
  -21.6850   -6.0731   22.5279 C   0  0  0  0  0  0
  -21.4012   -6.5636   23.8211 C   0  0  0  0  0  0
  -21.3660   -5.6788   24.9174 C   0  0  0  0  0  0
  -21.6044   -4.3051   24.7225 C   0  0  0  0  0  0
  -21.8820   -3.8142   23.4347 C   0  0  0  0  0  0
  -21.9192   -4.6960   22.3403 C   0  0  0  0  0  0
  -22.7878  -13.5246   21.1846 C   0  0  0  0  0  0
  -22.1663   -4.2145   21.0982 F   0  0  0  0  0  0
  -21.5629   -3.4536   25.7739 F   0  0  0  0  0  0
  -30.0353  -13.2930   20.4467 N   0  0  0  0  0  0
  -26.3027  -12.9277   20.3331 N   0  0  0  0  0  0
  -25.9306  -11.6452   20.5745 N   0  0  0  0  0  0
  -22.0499  -12.8252   22.0399 N   0  0  0  0  0  0
  -25.4343  -15.1841   20.4004 N   0  0  0  0  0  0
  -31.7864  -14.7257   20.1351 O   0  0  0  0  0  0
  -21.6634   -6.8871   21.4240 O   0  0  0  0  0  0
  -22.3579  -14.5556   20.6688 O   0  0  0  0  0  0
  -24.6150  -31.8672   23.2094 C   0  0  0  0  0  0
  -25.9038  -32.4820   23.8393 C   0  0  1  0  0  0
  -27.2375  -27.4262   20.1069 C   0  0  0  0  0  0
  -25.5895  -33.8620   24.2325 N   0  0  0  0  0  0
  -23.4047  -30.4892   21.5498 C   0  0  2  0  0  0
  -24.8540  -28.9474   20.1241 C   0  0  0  0  0  0
  -22.7411  -29.4655   22.4989 C   0  0  0  0  0  0
  -18.0270  -28.1378   22.8491 C   0  0  0  0  0  0
  -24.1486  -36.7319   23.2638 C   0  0  0  0  0  0
  -25.9343  -30.8290   21.3652 C   0  0  0  0  0  0
  -26.0139  -29.4586   20.7222 C   0  0  0  0  0  0
  -27.2121  -28.7047   20.7124 C   0  0  0  0  0  0
  -26.0631  -26.9260   19.5111 C   0  0  0  0  0  0
  -24.8721  -27.6782   19.5183 C   0  0  0  0  0  0
  -23.6167  -29.8172   20.1667 C   0  0  0  0  0  0
  -25.4107  -36.3114   24.0336 C   0  0  1  0  0  0
  -20.5860  -28.3668   23.1319 C   0  0  2  0  0  0
  -20.6761  -26.9404   22.5418 C   0  0  0  0  0  0
  -19.5742  -26.6386   21.5212 C   0  0  0  0  0  0
  -18.1920  -26.7924   22.1623 C   0  0  0  0  0  0
  -19.1519  -28.8839   23.2902 C   0  0  0  0  0  0
  -18.9449  -30.1444   23.8912 C   0  0  0  0  0  0
  -17.6452  -30.6586   24.0566 C   0  0  0  0  0  0
  -25.9033  -34.9477   23.5129 C   0  0  0  0  0  0
  -16.5342  -29.9089   23.6325 C   0  0  0  0  0  0
  -16.7259  -28.6505   23.0348 C   0  0  0  0  0  0
  -26.4472  -31.6598   25.0718 C   0  0  0  0  0  0
  -25.3743  -31.3704   26.1470 C   0  0  0  0  0  0
  -27.0299  -30.3040   24.6092 C   0  0  0  0  0  0
  -27.6050  -32.4317   25.7480 C   0  0  0  0  0  0
  -27.5581  -37.1813   24.8463 C   0  0  0  0  0  0
  -21.4136  -29.3035   22.3727 N   0  0  0  0  0  0
  -26.4296  -37.3796   23.9406 N   0  0  0  0  0  0
  -24.6696  -31.0766   22.0999 N   0  0  0  0  0  0
  -23.4178  -28.8195   23.3034 O   0  0  0  0  0  0
  -28.3910  -26.6818   20.0082 O   0  0  0  0  0  0
  -26.5596  -34.8929   22.4691 O   0  0  0  0  0  0
  -23.5338  -32.1425   23.7481 O   0  0  0  0  0  0
  -31.2615  -18.9391   21.6273 C   0  0  0  0  0  0
  -31.2340  -17.5386   21.4074 C   0  0  0  0  0  0
  -28.8218  -17.6496   21.1623 C   0  0  0  0  0  0
  -30.0704  -19.7104   21.6295 C   0  0  0  0  0  0
  -30.0036  -16.8710   21.2009 C   0  0  0  0  0  0
  -28.8494  -19.0497   21.3593 C   0  0  0  0  0  0
  -28.6407  -25.7306   20.9709 C   0  0  0  0  0  0
  -30.0999  -21.1333   22.0522 C   0  0  0  0  0  0
  -28.9553  -24.4435   20.6836 C   0  0  0  0  0  0
  -29.3311  -23.5208   21.7601 C   0  0  0  0  0  0
  -29.8699  -15.4469   21.1306 N   0  0  0  0  0  0
  -29.5216  -22.1446   21.3446 N   0  0  0  0  0  0
  -30.7417  -21.3854   23.2030 N   0  3  0  0  0  0
  -29.5180  -23.8532   22.9376 O   0  0  0  0  0  0
  -28.9520  -24.0101   19.4137 O   0  0  0  0  0  0
  -27.6825  -19.7403   21.3528 F   0  0  0  0  0  0
  -31.4804  -12.4588   19.1108 H   0  0  0  0  0  0
  -30.3689  -11.3101   19.8036 H   0  0  0  0  0  0
  -29.7451  -11.7914   17.4229 H   0  0  0  0  0  0
  -29.6585  -13.4998   17.7641 H   0  0  0  0  0  0
  -27.8345  -11.3067   18.8080 H   0  0  0  0  0  0
  -27.3688  -12.6389   17.7852 H   0  0  0  0  0  0
  -27.7113  -14.2464   19.5830 H   0  0  0  0  0  0
  -28.6924  -11.9095   21.2981 H   0  0  0  0  0  0
  -28.4562  -13.5178   21.8920 H   0  0  0  0  0  0
  -25.2750   -9.5682   22.4757 H   0  0  0  0  0  0
  -23.9996   -7.4629   22.7468 H   0  0  0  0  0  0
  -21.0828   -8.8767   19.8956 H   0  0  0  0  0  0
  -22.3679  -10.9670   19.6166 H   0  0  0  0  0  0
  -21.2002   -7.6144   23.9713 H   0  0  0  0  0  0
  -21.1482   -6.0519   25.9077 H   0  0  0  0  0  0
  -22.0599   -2.7604   23.2846 H   0  0  0  0  0  0
  -22.4096  -11.9913   22.4799 H   0  0  0  0  0  0
  -21.1120  -13.1296   22.2591 H   0  0  0  0  0  0
  -24.6544  -15.8284   20.4746 H   0  0  0  0  0  0
  -26.2505  -15.5999   19.9721 H   0  0  0  0  0  0
  -26.7110  -32.5537   23.1160 H   0  0  0  0  0  0
  -25.0042  -33.9782   25.0468 H   0  0  0  0  0  0
  -22.6936  -31.3057   21.4074 H   0  0  0  0  0  0
  -23.3741  -35.9660   23.3316 H   0  0  0  0  0  0
  -24.3576  -36.8918   22.2049 H   0  0  0  0  0  0
  -23.7251  -37.6534   23.6641 H   0  0  0  0  0  0
  -26.0443  -31.5899   20.5911 H   0  0  0  0  0  0
  -26.8232  -30.8887   21.9813 H   0  0  0  0  0  0
  -28.1143  -29.1004   21.1573 H   0  0  0  0  0  0
  -26.0765  -25.9572   19.0320 H   0  0  0  0  0  0
  -23.9809  -27.2788   19.0535 H   0  0  0  0  0  0
  -23.7277  -30.5894   19.4045 H   0  0  0  0  0  0
  -22.7411  -29.2367   19.8703 H   0  0  0  0  0  0
  -25.1286  -36.1981   25.0830 H   0  0  0  0  0  0
  -20.9955  -28.3233   24.1439 H   0  0  0  0  0  0
  -20.5672  -26.2272   23.3603 H   0  0  0  0  0  0
  -21.6632  -26.7448   22.1212 H   0  0  0  0  0  0
  -19.6908  -25.6302   21.1234 H   0  0  0  0  0  0
  -19.6688  -27.3204   20.6750 H   0  0  0  0  0  0
  -17.4194  -26.6674   21.4021 H   0  0  0  0  0  0
  -18.0322  -26.0062   22.9017 H   0  0  0  0  0  0
  -19.7925  -30.7253   24.2293 H   0  0  0  0  0  0
  -17.5009  -31.6269   24.5163 H   0  0  0  0  0  0
  -15.5346  -30.3000   23.7640 H   0  0  0  0  0  0
  -15.8656  -28.0833   22.7055 H   0  0  0  0  0  0
  -24.5901  -30.7071   25.7803 H   0  0  0  0  0  0
  -24.8954  -32.2863   26.4943 H   0  0  0  0  0  0
  -25.8098  -30.8848   27.0213 H   0  0  0  0  0  0
  -26.2838  -29.6804   24.1153 H   0  0  0  0  0  0
  -27.4077  -29.7270   25.4544 H   0  0  0  0  0  0
  -27.8672  -30.4353   23.9231 H   0  0  0  0  0  0
  -27.2664  -33.3598   26.2097 H   0  0  0  0  0  0
  -28.3838  -32.6911   25.0295 H   0  0  0  0  0  0
  -28.0746  -31.8421   26.5364 H   0  0  0  0  0  0
  -28.2610  -38.0100   24.7504 H   0  0  0  0  0  0
  -28.1067  -36.2633   24.6298 H   0  0  0  0  0  0
  -27.2297  -37.1476   25.8866 H   0  0  0  0  0  0
  -20.9296  -29.8755   21.6947 H   0  0  0  0  0  0
  -26.0187  -38.2878   24.1401 H   0  0  0  0  0  0
  -32.2097  -19.4159   21.8350 H   0  0  0  0  0  0
  -32.1593  -16.9808   21.4532 H   0  0  0  0  0  0
  -27.8637  -17.1753   21.0124 H   0  0  0  0  0  0
  -28.5946  -26.1381   21.9730 H   0  0  0  0  0  0
  -28.9629  -15.0912   21.3883 H   0  0  0  0  0  0
  -29.2786  -21.8861   20.4004 H   0  0  0  0  0  0
  -31.1324  -20.6333   23.7493 H   0  0  0  0  0  0
  -30.6891  -22.3162   23.5975 H   0  0  0  0  0  0
  -28.7101  -24.7523   18.8742 H   0  0  0  0  0  0
  1 25  1  0  0  0
  1 30  2  0  0  0
  1 81  1  0  0  0
  2  3  1  0  0  0
  2 25  1  0  0  0
  2 87  1  0  0  0
  2 88  1  0  0  0
  3  4  1  0  0  0
  3 89  1  0  0  0
  3 90  1  0  0  0
  4  5  1  0  0  0
  4 91  1  0  0  0
  4 92  1  0  0  0
  5  6  1  0  0  0
  5 26  1  0  0  0
  5 93  1  0  0  0
  6 25  1  0  0  0
  6 94  1  0  0  0
  6 95  1  0  0  0
  7  8  2  0  0  0
  7 26  1  0  0  0
  7 29  1  0  0  0
  8  9  1  0  0  0
  8 22  1  0  0  0
  9 10  1  0  0  0
  9 27  2  0  0  0
 10 11  2  0  0  0
 10 15  1  0  0  0
 11 12  1  0  0  0
 11 96  1  0  0  0
 12 13  2  0  0  0
 12 97  1  0  0  0
 13 14  1  0  0  0
 13 31  1  0  0  0
 14 15  2  0  0  0
 14 98  1  0  0  0
 15 99  1  0  0  0
 16 17  2  0  0  0
 16 21  1  0  0  0
 16 31  1  0  0  0
 17 18  1  0  0  0
 17100  1  0  0  0
 18 19  2  0  0  0
 18101  1  0  0  0
 19 20  1  0  0  0
 19 24  1  0  0  0
 20 21  2  0  0  0
 20102  1  0  0  0
 21 23  1  0  0  0
 22 28  1  0  0  0
 22 32  2  0  0  0
 26 27  1  0  0  0
 28103  1  0  0  0
 28104  1  0  0  0
 29105  1  0  0  0
 29106  1  0  0  0
 33 34  1  0  0  0
 33 66  1  0  0  0
 33 70  2  0  0  0
 34 36  1  0  0  0
 34 59  1  0  0  0
 34107  1  0  0  0
 35 44  2  0  0  0
 35 45  1  0  0  0
 35 68  1  0  0  0
 36 56  1  0  0  0
 36108  1  0  0  0
 37 39  1  0  0  0
 37 47  1  0  0  0
 37 66  1  0  0  0
 37109  1  0  0  0
 38 43  2  0  0  0
 38 46  1  0  0  0
 38 47  1  0  0  0
 39 64  1  0  0  0
 39 67  2  0  0  0
 40 52  1  0  0  0
 40 53  2  0  0  0
 40 58  1  0  0  0
 41110  1  0  0  0
 41111  1  0  0  0
 41112  1  0  0  0
 41 48  1  0  0  0
 42 43  1  0  0  0
 42 66  1  0  0  0
 42113  1  0  0  0
 42114  1  0  0  0
 43 44  1  0  0  0
 44115  1  0  0  0
 45 46  2  0  0  0
 45116  1  0  0  0
 46117  1  0  0  0
 47118  1  0  0  0
 47119  1  0  0  0
 48 56  1  0  0  0
 48 65  1  0  0  0
 48120  1  0  0  0
 49 50  1  0  0  0
 49 53  1  0  0  0
 49 64  1  0  0  0
 49121  1  0  0  0
 50 51  1  0  0  0
 50122  1  0  0  0
 50123  1  0  0  0
 51 52  1  0  0  0
 51124  1  0  0  0
 51125  1  0  0  0
 52126  1  0  0  0
 52127  1  0  0  0
 53 54  1  0  0  0
 54 55  2  0  0  0
 54128  1  0  0  0
 55 57  1  0  0  0
 55129  1  0  0  0
 56 69  2  0  0  0
 57 58  2  0  0  0
 57130  1  0  0  0
 58131  1  0  0  0
 59 60  1  0  0  0
 59 61  1  0  0  0
 59 62  1  0  0  0
 60132  1  0  0  0
 60133  1  0  0  0
 60134  1  0  0  0
 61135  1  0  0  0
 61136  1  0  0  0
 61137  1  0  0  0
 62138  1  0  0  0
 62139  1  0  0  0
 62140  1  0  0  0
 63 65  1  0  0  0
 63141  1  0  0  0
 63142  1  0  0  0
 63143  1  0  0  0
 64144  1  0  0  0
 65145  1  0  0  0
 68 77  1  0  0  0
 71 72  2  0  0  0
 71 74  1  0  0  0
 71146  1  0  0  0
 72 75  1  0  0  0
 72147  1  0  0  0
 73 75  2  0  0  0
 73 76  1  0  0  0
 73148  1  0  0  0
 74 76  2  0  0  0
 74 78  1  0  0  0
 75 81  1  0  0  0
 76 86  1  0  0  0
 77 79  2  0  0  0
 77149  1  0  0  0
 78 82  1  0  0  0
 78 83  2  0  0  0
 79 80  1  0  0  0
 79 85  1  0  0  0
 80 82  1  0  0  0
 80 84  2  0  0  0
 81150  1  0  0  0
 82151  1  0  0  0
 83152  1  0  0  0
 83153  1  0  0  0
 85154  1  0  0  0
M  CHG  1  83   1
M  ISO  4   1 100  68 101  77 101  81 100
M  END
> <chiral flag>
0

> <version>
0

> <s_m_source_file>
/data/baiqing/PycharmProjects/Reinvent-master-3.2/result/LINK_invent/BTK/process_docking_weight1_custom_product_contain_oxygen_bond_distance_aromatic_linkinvent_7_9_3/rearranged_h_0161.sdf

> <i_m_source_file_index>
2

> <r_mmod_Potential_Energy-OPLS-2005>
-313.546752929688

> <r_mmod_Stretch_Energy-OPLS-2005>
40.6897888183594

> <r_mmod_Bend_Energy-OPLS-2005>
109.048690795898

> <r_mmod_Torsional_Energy-OPLS-2005>
232.488021850586

> <r_mmod_Improper_Torsional_Energy-OPLS-2005>
6.04361820220947

> <r_mmod_Van_der_Waal_Energy-OPLS-2005>
162.565536499023

> <r_mmod_Electrostatic_Energy-OPLS-2005>
-455.998626708984

> <r_mmod_Solvation_Energy-OPLS-2005>
-422.121276855469

> <b_mmod_Minimization_Converged-OPLS-2005>
0

> <r_mmod_RMS_Derivative-OPLS-2005>
0.507634103298187

$$$$
2
                    3D
 Structure written by MMmdl.
158166  0  0  1  0            999 V2000
  -30.6072  -14.5779   20.5655 C   0  0  0  0  0  0
  -30.4478  -12.3671   19.4264 C   0  0  0  0  0  0
  -29.5041  -12.5203   18.2112 C   0  0  0  0  0  0
  -28.0246  -12.3624   18.6214 C   0  0  0  0  0  0
  -27.6627  -13.2007   19.8755 C   0  0  2  0  0  0
  -28.7064  -12.9716   20.9918 C   0  0  0  0  0  0
  -25.2609  -13.8137   20.5675 C   0  0  0  0  0  0
  -24.1851  -13.0422   20.9172 C   0  0  0  0  0  0
  -24.6404  -11.6890   20.8738 C   0  0  0  0  0  0
  -23.9066  -10.4282   21.0407 C   0  0  0  0  0  0
  -24.3619   -9.4194   21.9184 C   0  0  0  0  0  0
  -23.6287   -8.2233   22.0756 C   0  0  0  0  0  0
  -22.4271   -8.0277   21.3542 C   0  0  0  0  0  0
  -21.9907   -9.0254   20.4649 C   0  0  0  0  0  0
  -22.7238  -10.2131   20.3056 C   0  0  0  0  0  0
  -21.6849   -6.0741   22.5280 C   0  0  0  0  0  0
  -21.4016   -6.5646   23.8214 C   0  0  0  0  0  0
  -21.3656   -5.6800   24.9175 C   0  0  0  0  0  0
  -21.6037   -4.3063   24.7228 C   0  0  0  0  0  0
  -21.8812   -3.8155   23.4350 C   0  0  0  0  0  0
  -21.9191   -4.6971   22.3407 C   0  0  0  0  0  0
  -22.7876  -13.5234   21.1829 C   0  0  0  0  0  0
  -22.1655   -4.2157   21.0986 F   0  0  0  0  0  0
  -21.5625   -3.4543   25.7740 F   0  0  0  0  0  0
  -30.0291  -13.3423   20.4504 N   0  0  0  0  0  0
  -26.3033  -12.9289   20.3362 N   0  0  0  0  0  0
  -25.9328  -11.6457   20.5773 N   0  0  0  0  0  0
  -22.0524  -12.8237   22.0403 N   0  0  0  0  0  0
  -25.4354  -15.1852   20.4075 N   0  0  0  0  0  0
  -31.7173  -14.8371   20.0839 O   0  0  0  0  0  0
  -21.6627   -6.8881   21.4240 O   0  0  0  0  0  0
  -22.3564  -14.5542   20.6683 O   0  0  0  0  0  0
  -24.6210  -31.8622   23.2043 C   0  0  0  0  0  0
  -25.9075  -32.4792   23.8366 C   0  0  1  0  0  0
  -27.2395  -27.3711   20.1190 C   0  0  0  0  0  0
  -25.5906  -33.8592   24.2299 N   0  0  0  0  0  0
  -23.4135  -30.4830   21.5449 C   0  0  2  0  0  0
  -24.8628  -28.9330   20.1210 C   0  0  0  0  0  0
  -22.7445  -29.4635   22.4960 C   0  0  0  0  0  0
  -18.0283  -28.1383   22.8488 C   0  0  0  0  0  0
  -24.1480  -36.7305   23.2639 C   0  0  0  0  0  0
  -25.9472  -30.8089   21.3650 C   0  0  0  0  0  0
  -26.0267  -29.4357   20.7174 C   0  0  0  0  0  0
  -27.2202  -28.6655   20.7062 C   0  0  0  0  0  0
  -26.0565  -26.8928   19.5199 C   0  0  0  0  0  0
  -24.8751  -27.6624   19.5181 C   0  0  0  0  0  0
  -23.6272  -29.8081   20.1632 C   0  0  0  0  0  0
  -25.4102  -36.3095   24.0335 C   0  0  1  0  0  0
  -20.5876  -28.3682   23.1299 C   0  0  2  0  0  0
  -20.6767  -26.9411   22.5414 C   0  0  0  0  0  0
  -19.5748  -26.6386   21.5212 C   0  0  0  0  0  0
  -18.1929  -26.7924   22.1627 C   0  0  0  0  0  0
  -19.1532  -28.8849   23.2890 C   0  0  0  0  0  0
  -18.9457  -30.1452   23.8905 C   0  0  0  0  0  0
  -17.6458  -30.6588   24.0567 C   0  0  0  0  0  0
  -25.9037  -34.9462   23.5118 C   0  0  0  0  0  0
  -16.5351  -29.9090   23.6325 C   0  0  0  0  0  0
  -16.7270  -28.6506   23.0347 C   0  0  0  0  0  0
  -26.4487  -31.6587   25.0717 C   0  0  0  0  0  0
  -25.3746  -31.3708   26.1462 C   0  0  0  0  0  0
  -27.0324  -30.3021   24.6126 C   0  0  0  0  0  0
  -27.6055  -32.4313   25.7484 C   0  0  0  0  0  0
  -27.5576  -37.1802   24.8466 C   0  0  0  0  0  0
  -21.4165  -29.3044   22.3699 N   0  0  0  0  0  0
  -26.4285  -37.3784   23.9414 N   0  0  0  0  0  0
  -24.6792  -31.0671   22.0965 N   0  0  0  0  0  0
  -23.4183  -28.8187   23.3037 O   0  0  0  0  0  0
  -28.3868  -26.5893   20.0768 O   0  0  0  0  0  0
  -26.5607  -34.8926   22.4683 O   0  0  0  0  0  0
  -23.5387  -32.1397   23.7405 O   0  0  0  0  0  0
  -29.0046  -17.4251   22.2961 C   0  0  0  0  0  0
  -29.0126  -18.8406   22.1040 C   0  0  0  0  0  0
  -29.7505  -16.8559   21.3013 C   0  0  0  0  0  0
  -29.7435  -19.0391   20.9583 C   0  0  0  0  0  0
  -29.4076  -22.8613   20.7363 C   0  0  0  0  0  0
  -28.6045  -24.0289   20.0722 C   0  0  0  0  0  0
  -28.3524  -19.8504   23.0106 C   0  0  0  0  0  0
  -31.8240  -22.5061   23.2136 C   0  0  0  0  0  0
  -29.1045  -21.3951   20.2016 C   0  0  0  0  0  0
  -28.3859  -25.3623   20.8740 C   0  0  0  0  0  0
  -30.2424  -23.1202   21.6787 N   0  0  0  0  0  0
  -29.8218  -15.4836   21.2042 N   0  0  0  0  0  0
  -30.1028  -20.2989   20.4112 N   0  0  0  0  0  0
  -28.1017  -23.9199   18.9465 O   0  0  0  0  0  0
  -30.2329  -17.8349   20.4464 O   0  0  0  0  0  0
  -30.9256  -22.0232   22.2254 O   0  0  0  0  0  0
  -31.4855  -12.5117   19.1216 H   0  0  0  0  0  0
  -30.3944  -11.3532   19.8273 H   0  0  0  0  0  0
  -29.7575  -11.7885   17.4427 H   0  0  0  0  0  0
  -29.6514  -13.5021   17.7582 H   0  0  0  0  0  0
  -27.8465  -11.3049   18.8208 H   0  0  0  0  0  0
  -27.3713  -12.6270   17.7888 H   0  0  0  0  0  0
  -27.7053  -14.2491   19.5795 H   0  0  0  0  0  0
  -28.7112  -11.9214   21.2892 H   0  0  0  0  0  0
  -28.4430  -13.5171   21.8985 H   0  0  0  0  0  0
  -25.2765   -9.5665   22.4760 H   0  0  0  0  0  0
  -23.9990   -7.4629   22.7484 H   0  0  0  0  0  0
  -21.0832   -8.8777   19.8969 H   0  0  0  0  0  0
  -22.3694  -10.9671   19.6173 H   0  0  0  0  0  0
  -21.2008   -7.6154   23.9721 H   0  0  0  0  0  0
  -21.1483   -6.0533   25.9081 H   0  0  0  0  0  0
  -22.0597   -2.7617   23.2847 H   0  0  0  0  0  0
  -22.4135  -11.9882   22.4761 H   0  0  0  0  0  0
  -21.1160  -13.1278   22.2650 H   0  0  0  0  0  0
  -24.6713  -15.8429   20.5175 H   0  0  0  0  0  0
  -26.2899  -15.6222   20.0854 H   0  0  0  0  0  0
  -26.7148  -32.5489   23.1130 H   0  0  0  0  0  0
  -25.0052  -33.9738   25.0442 H   0  0  0  0  0  0
  -22.7058  -31.3014   21.3985 H   0  0  0  0  0  0
  -23.3739  -35.9642   23.3305 H   0  0  0  0  0  0
  -24.3575  -36.8917   22.2055 H   0  0  0  0  0  0
  -23.7234  -37.6511   23.6653 H   0  0  0  0  0  0
  -26.0651  -31.5687   20.5912 H   0  0  0  0  0  0
  -26.8325  -30.8668   21.9860 H   0  0  0  0  0  0
  -28.1208  -29.0536   21.1614 H   0  0  0  0  0  0
  -26.0492  -25.9197   19.0490 H   0  0  0  0  0  0
  -23.9806  -27.2674   19.0566 H   0  0  0  0  0  0
  -23.7441  -30.5796   19.4011 H   0  0  0  0  0  0
  -22.7490  -29.2317   19.8656 H   0  0  0  0  0  0
  -25.1278  -36.1956   25.0828 H   0  0  0  0  0  0
  -20.9972  -28.3255   24.1419 H   0  0  0  0  0  0
  -20.5670  -26.2295   23.3610 H   0  0  0  0  0  0
  -21.6637  -26.7442   22.1209 H   0  0  0  0  0  0
  -19.6912  -25.6300   21.1237 H   0  0  0  0  0  0
  -19.6689  -27.3200   20.6747 H   0  0  0  0  0  0
  -17.4198  -26.6673   21.4030 H   0  0  0  0  0  0
  -18.0338  -26.0065   22.9026 H   0  0  0  0  0  0
  -19.7935  -30.7261   24.2279 H   0  0  0  0  0  0
  -17.5017  -31.6267   24.5173 H   0  0  0  0  0  0
  -15.5353  -30.2999   23.7639 H   0  0  0  0  0  0
  -15.8671  -28.0830   22.7052 H   0  0  0  0  0  0
  -24.5916  -30.7056   25.7806 H   0  0  0  0  0  0
  -24.8945  -32.2868   26.4913 H   0  0  0  0  0  0
  -25.8099  -30.8879   27.0219 H   0  0  0  0  0  0
  -26.2880  -29.6773   24.1173 H   0  0  0  0  0  0
  -27.4070  -29.7270   25.4605 H   0  0  0  0  0  0
  -27.8727  -30.4328   23.9302 H   0  0  0  0  0  0
  -27.2669  -33.3607   26.2076 H   0  0  0  0  0  0
  -28.3862  -32.6878   25.0311 H   0  0  0  0  0  0
  -28.0725  -31.8426   26.5390 H   0  0  0  0  0  0
  -28.2596  -38.0097   24.7509 H   0  0  0  0  0  0
  -28.1066  -36.2628   24.6287 H   0  0  0  0  0  0
  -27.2298  -37.1451   25.8870 H   0  0  0  0  0  0
  -20.9341  -29.8761   21.6905 H   0  0  0  0  0  0
  -26.0171  -38.2860   24.1417 H   0  0  0  0  0  0
  -28.5068  -16.8875   23.0920 H   0  0  0  0  0  0
  -28.0640  -19.3844   23.9533 H   0  0  0  0  0  0
  -27.4520  -20.2550   22.5493 H   0  0  0  0  0  0
  -29.0273  -20.6734   23.2409 H   0  0  0  0  0  0
  -32.3634  -21.6689   23.6591 H   0  0  0  0  0  0
  -31.2991  -23.0259   24.0176 H   0  0  0  0  0  0
  -32.5647  -23.1840   22.7852 H   0  0  0  0  0  0
  -28.9561  -21.4683   19.1241 H   0  0  0  0  0  0
  -28.1341  -21.0938   20.5928 H   0  0  0  0  0  0
  -29.1634  -25.4635   21.6302 H   0  0  0  0  0  0
  -27.4456  -25.2732   21.4188 H   0  0  0  0  0  0
  -29.0515  -15.0203   21.6601 H   0  0  0  0  0  0
  -30.7569  -20.7137   21.0828 H   0  0  0  0  0  0
  1 25  1  0  0  0
  1 30  2  0  0  0
  1 82  1  0  0  0
  2  3  1  0  0  0
  2 25  1  0  0  0
  2 87  1  0  0  0
  2 88  1  0  0  0
  3  4  1  0  0  0
  3 89  1  0  0  0
  3 90  1  0  0  0
  4  5  1  0  0  0
  4 91  1  0  0  0
  4 92  1  0  0  0
  5  6  1  0  0  0
  5 26  1  0  0  0
  5 93  1  0  0  0
  6 25  1  0  0  0
  6 94  1  0  0  0
  6 95  1  0  0  0
  7  8  2  0  0  0
  7 26  1  0  0  0
  7 29  1  0  0  0
  8  9  1  0  0  0
  8 22  1  0  0  0
  9 10  1  0  0  0
  9 27  2  0  0  0
 10 11  2  0  0  0
 10 15  1  0  0  0
 11 12  1  0  0  0
 11 96  1  0  0  0
 12 13  2  0  0  0
 12 97  1  0  0  0
 13 14  1  0  0  0
 13 31  1  0  0  0
 14 15  2  0  0  0
 14 98  1  0  0  0
 15 99  1  0  0  0
 16 17  2  0  0  0
 16 21  1  0  0  0
 16 31  1  0  0  0
 17 18  1  0  0  0
 17100  1  0  0  0
 18 19  2  0  0  0
 18101  1  0  0  0
 19 20  1  0  0  0
 19 24  1  0  0  0
 20 21  2  0  0  0
 20102  1  0  0  0
 21 23  1  0  0  0
 22 28  1  0  0  0
 22 32  2  0  0  0
 26 27  1  0  0  0
 28103  1  0  0  0
 28104  1  0  0  0
 29105  1  0  0  0
 29106  1  0  0  0
 33 34  1  0  0  0
 33 66  1  0  0  0
 33 70  2  0  0  0
 34 36  1  0  0  0
 34 59  1  0  0  0
 34107  1  0  0  0
 35 44  2  0  0  0
 35 45  1  0  0  0
 35 68  1  0  0  0
 36 56  1  0  0  0
 36108  1  0  0  0
 37 39  1  0  0  0
 37 47  1  0  0  0
 37 66  1  0  0  0
 37109  1  0  0  0
 38 43  2  0  0  0
 38 46  1  0  0  0
 38 47  1  0  0  0
 39 64  1  0  0  0
 39 67  2  0  0  0
 40 52  1  0  0  0
 40 53  2  0  0  0
 40 58  1  0  0  0
 41110  1  0  0  0
 41111  1  0  0  0
 41112  1  0  0  0
 41 48  1  0  0  0
 42 43  1  0  0  0
 42 66  1  0  0  0
 42113  1  0  0  0
 42114  1  0  0  0
 43 44  1  0  0  0
 44115  1  0  0  0
 45 46  2  0  0  0
 45116  1  0  0  0
 46117  1  0  0  0
 47118  1  0  0  0
 47119  1  0  0  0
 48 56  1  0  0  0
 48 65  1  0  0  0
 48120  1  0  0  0
 49 50  1  0  0  0
 49 53  1  0  0  0
 49 64  1  0  0  0
 49121  1  0  0  0
 50 51  1  0  0  0
 50122  1  0  0  0
 50123  1  0  0  0
 51 52  1  0  0  0
 51124  1  0  0  0
 51125  1  0  0  0
 52126  1  0  0  0
 52127  1  0  0  0
 53 54  1  0  0  0
 54 55  2  0  0  0
 54128  1  0  0  0
 55 57  1  0  0  0
 55129  1  0  0  0
 56 69  2  0  0  0
 57 58  2  0  0  0
 57130  1  0  0  0
 58131  1  0  0  0
 59 60  1  0  0  0
 59 61  1  0  0  0
 59 62  1  0  0  0
 60132  1  0  0  0
 60133  1  0  0  0
 60134  1  0  0  0
 61135  1  0  0  0
 61136  1  0  0  0
 61137  1  0  0  0
 62138  1  0  0  0
 62139  1  0  0  0
 62140  1  0  0  0
 63 65  1  0  0  0
 63141  1  0  0  0
 63142  1  0  0  0
 63143  1  0  0  0
 64144  1  0  0  0
 65145  1  0  0  0
 68 80  1  0  0  0
 71 72  1  0  0  0
 71 73  2  0  0  0
 71146  1  0  0  0
 72 74  2  0  0  0
 72 77  1  0  0  0
 73 82  1  0  0  0
 73 85  1  0  0  0
 74 83  1  0  0  0
 74 85  1  0  0  0
 75 76  1  0  0  0
 75 79  1  0  0  0
 75 81  2  0  0  0
 76 80  1  0  0  0
 76 84  2  0  0  0
 77147  1  0  0  0
 77148  1  0  0  0
 77149  1  0  0  0
 78 86  1  0  0  0
 78150  1  0  0  0
 78151  1  0  0  0
 78152  1  0  0  0
 79 83  1  0  0  0
 79153  1  0  0  0
 79154  1  0  0  0
 80155  1  0  0  0
 80156  1  0  0  0
 81 86  1  0  0  0
 82157  1  0  0  0
 83158  1  0  0  0
M  ISO  4   1 100  68 101  80 101  82 100
M  END
> <chiral flag>
0

> <version>
0

> <s_m_source_file>
/data/baiqing/PycharmProjects/Reinvent-master-3.2/result/LINK_invent/BTK/process_docking_weight1_custom_product_contain_oxygen_bond_distance_aromatic_linkinvent_7_9_3/rearranged_h_0161.sdf

> <i_m_source_file_index>
3

> <r_mmod_Potential_Energy-OPLS-2005>
117.512886047363

> <r_mmod_Stretch_Energy-OPLS-2005>
68.4591064453125

> <r_mmod_Bend_Energy-OPLS-2005>
165.2060546875

> <r_mmod_Torsional_Energy-OPLS-2005>
257.0595703125

> <r_mmod_Improper_Torsional_Energy-OPLS-2005>
10.1383495330811

> <r_mmod_Van_der_Waal_Energy-OPLS-2005>
127.339851379395

> <r_mmod_Electrostatic_Energy-OPLS-2005>
-288.945068359375

> <r_mmod_Solvation_Energy-OPLS-2005>
-250.37663269043

> <b_mmod_Minimization_Converged-OPLS-2005>
0

> <r_mmod_RMS_Derivative-OPLS-2005>
1.25419175624847

$$$$
3
                    3D
 Structure written by MMmdl.
161170  0  0  1  0            999 V2000
  -30.6204  -14.7296   20.4718 C   0  0  0  0  0  0
  -30.4336  -12.4436   19.4769 C   0  0  0  0  0  0
  -29.5154  -12.5334   18.2395 C   0  0  0  0  0  0
  -28.0374  -12.3640   18.6402 C   0  0  0  0  0  0
  -27.6491  -13.2329   19.8658 C   0  0  2  0  0  0
  -28.6956  -13.1387   21.0001 C   0  0  0  0  0  0
  -25.2541  -13.8208   20.5696 C   0  0  0  0  0  0
  -24.1830  -13.0455   20.9210 C   0  0  0  0  0  0
  -24.6421  -11.6934   20.8770 C   0  0  0  0  0  0
  -23.9093  -10.4308   21.0406 C   0  0  0  0  0  0
  -24.3648   -9.4213   21.9172 C   0  0  0  0  0  0
  -23.6313   -8.2253   22.0732 C   0  0  0  0  0  0
  -22.4302   -8.0282   21.3518 C   0  0  0  0  0  0
  -21.9937   -9.0253   20.4621 C   0  0  0  0  0  0
  -22.7267  -10.2133   20.3039 C   0  0  0  0  0  0
  -21.6863   -6.0740   22.5255 C   0  0  0  0  0  0
  -21.4026   -6.5644   23.8194 C   0  0  0  0  0  0
  -21.3678   -5.6790   24.9159 C   0  0  0  0  0  0
  -21.6068   -4.3051   24.7203 C   0  0  0  0  0  0
  -21.8820   -3.8139   23.4320 C   0  0  0  0  0  0
  -21.9193   -4.6967   22.3383 C   0  0  0  0  0  0
  -22.7846  -13.5219   21.1833 C   0  0  0  0  0  0
  -22.1648   -4.2164   21.0961 F   0  0  0  0  0  0
  -21.5643   -3.4527   25.7710 F   0  0  0  0  0  0
  -30.0081  -13.4923   20.4354 N   0  0  0  0  0  0
  -26.2989  -12.9407   20.3354 N   0  0  0  0  0  0
  -25.9354  -11.6560   20.5798 N   0  0  0  0  0  0
  -22.0495  -12.8220   22.0409 N   0  0  0  0  0  0
  -25.4291  -15.1925   20.4099 N   0  0  0  0  0  0
  -31.7772  -14.8509   20.0522 O   0  0  0  0  0  0
  -21.6655   -6.8876   21.4214 O   0  0  0  0  0  0
  -22.3513  -14.5486   20.6619 O   0  0  0  0  0  0
  -24.6306  -31.8561   23.1973 C   0  0  0  0  0  0
  -25.9137  -32.4755   23.8336 C   0  0  1  0  0  0
  -27.2334  -27.2718   20.1380 C   0  0  0  0  0  0
  -25.5944  -33.8565   24.2278 N   0  0  0  0  0  0
  -23.4296  -30.4763   21.5396 C   0  0  2  0  0  0
  -24.8810  -28.9200   20.1141 C   0  0  0  0  0  0
  -22.7526  -29.4605   22.4905 C   0  0  0  0  0  0
  -18.0317  -28.1370   22.8476 C   0  0  0  0  0  0
  -24.1493  -36.7275   23.2639 C   0  0  0  0  0  0
  -25.9728  -30.7741   21.3742 C   0  0  0  0  0  0
  -26.0516  -29.3943   20.7208 C   0  0  0  0  0  0
  -27.2334  -28.5845   20.7173 C   0  0  0  0  0  0
  -26.0431  -26.8649   19.4973 C   0  0  0  0  0  0
  -24.8814  -27.6622   19.4910 C   0  0  0  0  0  0
  -23.6486  -29.8039   20.1579 C   0  0  0  0  0  0
  -25.4122  -36.3070   24.0334 C   0  0  1  0  0  0
  -20.5914  -28.3680   23.1256 C   0  0  2  0  0  0
  -20.6787  -26.9389   22.5396 C   0  0  0  0  0  0
  -19.5759  -26.6368   21.5202 C   0  0  0  0  0  0
  -18.1947  -26.7921   22.1613 C   0  0  0  0  0  0
  -19.1565  -28.8851   23.2859 C   0  0  0  0  0  0
  -18.9478  -30.1456   23.8871 C   0  0  0  0  0  0
  -17.6465  -30.6561   24.0558 C   0  0  0  0  0  0
  -25.9062  -34.9436   23.5102 C   0  0  0  0  0  0
  -16.5363  -29.9049   23.6311 C   0  0  0  0  0  0
  -16.7303  -28.6470   23.0334 C   0  0  0  0  0  0
  -26.4513  -31.6561   25.0714 C   0  0  0  0  0  0
  -25.3738  -31.3679   26.1428 C   0  0  0  0  0  0
  -27.0367  -30.2990   24.6160 C   0  0  0  0  0  0
  -27.6080  -32.4285   25.7491 C   0  0  0  0  0  0
  -27.5584  -37.1794   24.8467 C   0  0  0  0  0  0
  -21.4232  -29.3029   22.3650 N   0  0  0  0  0  0
  -26.4297  -37.3762   23.9410 N   0  0  0  0  0  0
  -24.6965  -31.0535   22.0938 N   0  0  0  0  0  0
  -23.4223  -28.8158   23.3013 O   0  0  0  0  0  0
  -28.3294  -26.3802   20.1644 O   0  0  0  0  0  0
  -26.5611  -34.8911   22.4661 O   0  0  0  0  0  0
  -23.5455  -32.1382   23.7263 O   0  0  0  0  0  0
  -28.2876  -18.2041   18.5129 C   0  0  0  0  0  0
  -28.5418  -19.4624   19.0802 C   0  0  0  0  0  0
  -28.8371  -17.0453   19.0944 C   0  0  0  0  0  0
  -29.3710  -19.5683   20.2071 C   0  0  0  0  0  0
  -29.6299  -17.1266   20.2581 C   0  0  0  0  0  0
  -29.0381  -23.7841   20.1843 C   0  0  0  0  0  0
  -29.2085  -22.2711   22.3114 C   0  0  0  0  0  0
  -29.7934  -21.0544   20.6333 C   0  0  1  0  0  0
  -28.8197  -22.3402   20.8320 C   0  0  2  0  0  0
  -30.4446  -21.3948   22.0137 C   0  0  0  0  0  0
  -30.6827  -20.2859   23.0499 C   0  0  0  0  0  0
  -31.7831  -22.1451   21.9024 C   0  0  0  0  0  0
  -28.0698  -24.9768   20.6442 C   0  0  0  0  0  0
  -29.8900  -18.3995   20.7743 N   0  0  0  0  0  0
  -29.8939  -15.8238   20.9079 N   0  0  0  0  0  0
  -29.9105  -24.0408   19.3500 O   0  0  0  0  0  0
  -31.4777  -12.5611   19.1810 H   0  0  0  0  0  0
  -30.3558  -11.4537   19.9298 H   0  0  0  0  0  0
  -29.7890  -11.7775   17.5017 H   0  0  0  0  0  0
  -29.6566  -13.5014   17.7556 H   0  0  0  0  0  0
  -27.8693  -11.3081   18.8535 H   0  0  0  0  0  0
  -27.3979  -12.6096   17.7929 H   0  0  0  0  0  0
  -27.6455  -14.2642   19.5190 H   0  0  0  0  0  0
  -28.7246  -12.1295   21.4092 H   0  0  0  0  0  0
  -28.4289  -13.7930   21.8324 H   0  0  0  0  0  0
  -25.2804   -9.5704   22.4734 H   0  0  0  0  0  0
  -24.0039   -7.4651   22.7450 H   0  0  0  0  0  0
  -21.0870   -8.8752   19.8928 H   0  0  0  0  0  0
  -22.3706  -10.9661   19.6143 H   0  0  0  0  0  0
  -21.2005   -7.6144   23.9695 H   0  0  0  0  0  0
  -21.1517   -6.0522   25.9069 H   0  0  0  0  0  0
  -22.0582   -2.7603   23.2805 H   0  0  0  0  0  0
  -22.4131  -11.9961   22.4916 H   0  0  0  0  0  0
  -21.1053  -13.1170   22.2461 H   0  0  0  0  0  0
  -24.6738  -15.8564   20.5339 H   0  0  0  0  0  0
  -26.2787  -15.6247   20.0704 H   0  0  0  0  0  0
  -26.7207  -32.5424   23.1082 H   0  0  0  0  0  0
  -25.0132  -33.9716   25.0453 H   0  0  0  0  0  0
  -22.7235  -31.2962   21.3914 H   0  0  0  0  0  0
  -23.3759  -35.9597   23.3295 H   0  0  0  0  0  0
  -24.3578  -36.8899   22.2048 H   0  0  0  0  0  0
  -23.7229  -37.6475   23.6663 H   0  0  0  0  0  0
  -26.1104  -31.5327   20.6022 H   0  0  0  0  0  0
  -26.8499  -30.8267   22.0063 H   0  0  0  0  0  0
  -28.1333  -28.9497   21.1937 H   0  0  0  0  0  0
  -26.0006  -25.9086   18.9977 H   0  0  0  0  0  0
  -23.9870  -27.2963   19.0037 H   0  0  0  0  0  0
  -23.7695  -30.5778   19.3988 H   0  0  0  0  0  0
  -22.7667  -29.2337   19.8571 H   0  0  0  0  0  0
  -25.1296  -36.1921   25.0824 H   0  0  0  0  0  0
  -21.0034  -28.3254   24.1366 H   0  0  0  0  0  0
  -20.5662  -26.2301   23.3615 H   0  0  0  0  0  0
  -21.6657  -26.7388   22.1192 H   0  0  0  0  0  0
  -19.6910  -25.6276   21.1236 H   0  0  0  0  0  0
  -19.6699  -27.3180   20.6732 H   0  0  0  0  0  0
  -17.4223  -26.6686   21.4007 H   0  0  0  0  0  0
  -18.0330  -26.0060   22.8999 H   0  0  0  0  0  0
  -19.7954  -30.7291   24.2210 H   0  0  0  0  0  0
  -17.5010  -31.6240   24.5166 H   0  0  0  0  0  0
  -15.5354  -30.2926   23.7655 H   0  0  0  0  0  0
  -15.8716  -28.0789   22.7023 H   0  0  0  0  0  0
  -24.5945  -30.6998   25.7734 H   0  0  0  0  0  0
  -24.8890  -32.2830   26.4838 H   0  0  0  0  0  0
  -25.8059  -30.8864   27.0211 H   0  0  0  0  0  0
  -26.2937  -29.6720   24.1209 H   0  0  0  0  0  0
  -27.4115  -29.7257   25.4648 H   0  0  0  0  0  0
  -27.8790  -30.4293   23.9361 H   0  0  0  0  0  0
  -27.2715  -33.3597   26.2058 H   0  0  0  0  0  0
  -28.3901  -32.6809   25.0318 H   0  0  0  0  0  0
  -28.0737  -31.8403   26.5408 H   0  0  0  0  0  0
  -28.2589  -38.0100   24.7517 H   0  0  0  0  0  0
  -28.1095  -36.2633   24.6294 H   0  0  0  0  0  0
  -27.2306  -37.1427   25.8870 H   0  0  0  0  0  0
  -20.9433  -29.8760   21.6854 H   0  0  0  0  0  0
  -26.0182  -38.2840   24.1400 H   0  0  0  0  0  0
  -27.6611  -18.1239   17.6359 H   0  0  0  0  0  0
  -28.1334  -20.3523   18.6197 H   0  0  0  0  0  0
  -28.6022  -16.0927   18.6465 H   0  0  0  0  0  0
  -28.4514  -21.7449   22.8963 H   0  0  0  0  0  0
  -29.4437  -23.2302   22.7771 H   0  0  0  0  0  0
  -30.5004  -21.3222   19.8460 H   0  0  0  0  0  0
  -27.7800  -22.0340   20.7159 H   0  0  0  0  0  0
  -29.7878  -19.6851   23.2185 H   0  0  0  0  0  0
  -30.9678  -20.6990   24.0190 H   0  0  0  0  0  0
  -31.4773  -19.6028   22.7474 H   0  0  0  0  0  0
  -31.7384  -22.9656   21.1873 H   0  0  0  0  0  0
  -32.5838  -21.4858   21.5618 H   0  0  0  0  0  0
  -32.0945  -22.5770   22.8547 H   0  0  0  0  0  0
  -28.1153  -25.0081   21.7321 H   0  0  0  0  0  0
  -27.0541  -24.6688   20.4060 H   0  0  0  0  0  0
  -29.1125  -15.5277   21.4696 H   0  0  0  0  0  0
  1 25  1  0  0  0
  1 30  2  0  0  0
  1 85  1  0  0  0
  2  3  1  0  0  0
  2 25  1  0  0  0
  2 87  1  0  0  0
  2 88  1  0  0  0
  3  4  1  0  0  0
  3 89  1  0  0  0
  3 90  1  0  0  0
  4  5  1  0  0  0
  4 91  1  0  0  0
  4 92  1  0  0  0
  5  6  1  0  0  0
  5 26  1  0  0  0
  5 93  1  0  0  0
  6 25  1  0  0  0
  6 94  1  0  0  0
  6 95  1  0  0  0
  7  8  2  0  0  0
  7 26  1  0  0  0
  7 29  1  0  0  0
  8  9  1  0  0  0
  8 22  1  0  0  0
  9 10  1  0  0  0
  9 27  2  0  0  0
 10 11  2  0  0  0
 10 15  1  0  0  0
 11 12  1  0  0  0
 11 96  1  0  0  0
 12 13  2  0  0  0
 12 97  1  0  0  0
 13 14  1  0  0  0
 13 31  1  0  0  0
 14 15  2  0  0  0
 14 98  1  0  0  0
 15 99  1  0  0  0
 16 17  2  0  0  0
 16 21  1  0  0  0
 16 31  1  0  0  0
 17 18  1  0  0  0
 17100  1  0  0  0
 18 19  2  0  0  0
 18101  1  0  0  0
 19 20  1  0  0  0
 19 24  1  0  0  0
 20 21  2  0  0  0
 20102  1  0  0  0
 21 23  1  0  0  0
 22 28  1  0  0  0
 22 32  2  0  0  0
 26 27  1  0  0  0
 28103  1  0  0  0
 28104  1  0  0  0
 29105  1  0  0  0
 29106  1  0  0  0
 33 34  1  0  0  0
 33 66  1  0  0  0
 33 70  2  0  0  0
 34 36  1  0  0  0
 34 59  1  0  0  0
 34107  1  0  0  0
 35 44  2  0  0  0
 35 45  1  0  0  0
 35 68  1  0  0  0
 36 56  1  0  0  0
 36108  1  0  0  0
 37 39  1  0  0  0
 37 47  1  0  0  0
 37 66  1  0  0  0
 37109  1  0  0  0
 38 43  2  0  0  0
 38 46  1  0  0  0
 38 47  1  0  0  0
 39 64  1  0  0  0
 39 67  2  0  0  0
 40 52  1  0  0  0
 40 53  2  0  0  0
 40 58  1  0  0  0
 41110  1  0  0  0
 41111  1  0  0  0
 41112  1  0  0  0
 41 48  1  0  0  0
 42 43  1  0  0  0
 42 66  1  0  0  0
 42113  1  0  0  0
 42114  1  0  0  0
 43 44  1  0  0  0
 44115  1  0  0  0
 45 46  2  0  0  0
 45116  1  0  0  0
 46117  1  0  0  0
 47118  1  0  0  0
 47119  1  0  0  0
 48 56  1  0  0  0
 48 65  1  0  0  0
 48120  1  0  0  0
 49 50  1  0  0  0
 49 53  1  0  0  0
 49 64  1  0  0  0
 49121  1  0  0  0
 50 51  1  0  0  0
 50122  1  0  0  0
 50123  1  0  0  0
 51 52  1  0  0  0
 51124  1  0  0  0
 51125  1  0  0  0
 52126  1  0  0  0
 52127  1  0  0  0
 53 54  1  0  0  0
 54 55  2  0  0  0
 54128  1  0  0  0
 55 57  1  0  0  0
 55129  1  0  0  0
 56 69  2  0  0  0
 57 58  2  0  0  0
 57130  1  0  0  0
 58131  1  0  0  0
 59 60  1  0  0  0
 59 61  1  0  0  0
 59 62  1  0  0  0
 60132  1  0  0  0
 60133  1  0  0  0
 60134  1  0  0  0
 61135  1  0  0  0
 61136  1  0  0  0
 61137  1  0  0  0
 62138  1  0  0  0
 62139  1  0  0  0
 62140  1  0  0  0
 63 65  1  0  0  0
 63141  1  0  0  0
 63142  1  0  0  0
 63143  1  0  0  0
 64144  1  0  0  0
 65145  1  0  0  0
 68 83  1  0  0  0
 71 72  2  0  0  0
 71 73  1  0  0  0
 71146  1  0  0  0
 72 74  1  0  0  0
 72147  1  0  0  0
 73 75  2  0  0  0
 73148  1  0  0  0
 74 84  2  0  0  0
 74 78  1  0  0  0
 75 84  1  0  0  0
 75 85  1  0  0  0
 76 83  1  0  0  0
 76 86  2  0  0  0
 76 79  1  0  0  0
 77 79  1  0  0  0
 77 80  1  0  0  0
 77149  1  0  0  0
 77150  1  0  0  0
 78 79  1  0  0  0
 78 80  1  0  0  0
 78151  1  0  0  0
 79152  1  0  0  0
 80 81  1  0  0  0
 80 82  1  0  0  0
 81153  1  0  0  0
 81154  1  0  0  0
 81155  1  0  0  0
 82156  1  0  0  0
 82157  1  0  0  0
 82158  1  0  0  0
 83159  1  0  0  0
 83160  1  0  0  0
 85161  1  0  0  0
M  ISO  4   1 100  68 101  83 101  85 100
M  END
> <chiral flag>
0

> <version>
0

> <s_m_source_file>
/data/baiqing/PycharmProjects/Reinvent-master-3.2/result/LINK_invent/BTK/process_docking_weight1_custom_product_contain_oxygen_bond_distance_aromatic_linkinvent_7_9_3/rearranged_h_0161.sdf

> <i_m_source_file_index>
4

> <r_mmod_Potential_Energy-OPLS-2005>
98.3854904174805

> <r_mmod_Stretch_Energy-OPLS-2005>
129.206787109375

> <r_mmod_Bend_Energy-OPLS-2005>
184.730377197266

> <r_mmod_Torsional_Energy-OPLS-2005>
286.845642089844

> <r_mmod_Improper_Torsional_Energy-OPLS-2005>
6.75083017349243

> <r_mmod_Van_der_Waal_Energy-OPLS-2005>
130.128356933594

> <r_mmod_Electrostatic_Energy-OPLS-2005>
-475.113189697266

> <r_mmod_Solvation_Energy-OPLS-2005>
-239.961517333984

> <b_mmod_Minimization_Converged-OPLS-2005>
0

> <r_mmod_RMS_Derivative-OPLS-2005>
3.69080305099487

$$$$
4
                    3D
 Structure written by MMmdl.
164173  0  0  1  0            999 V2000
  -30.6952  -14.4832   20.5933 C   0  0  0  0  0  0
  -30.4304  -12.3196   19.4225 C   0  0  0  0  0  0
  -29.4986  -12.5186   18.2086 C   0  0  0  0  0  0
  -28.0191  -12.3800   18.6174 C   0  0  0  0  0  0
  -27.6664  -13.2087   19.8809 C   0  0  2  0  0  0
  -28.7075  -12.9765   20.9996 C   0  0  0  0  0  0
  -25.2616  -13.8169   20.5697 C   0  0  0  0  0  0
  -24.1856  -13.0447   20.9171 C   0  0  0  0  0  0
  -24.6405  -11.6912   20.8719 C   0  0  0  0  0  0
  -23.9067  -10.4298   21.0392 C   0  0  0  0  0  0
  -24.3612   -9.4217   21.9175 C   0  0  0  0  0  0
  -23.6288   -8.2257   22.0756 C   0  0  0  0  0  0
  -22.4269   -8.0290   21.3550 C   0  0  0  0  0  0
  -21.9901   -9.0264   20.4651 C   0  0  0  0  0  0
  -22.7237  -10.2141   20.3051 C   0  0  0  0  0  0
  -21.6856   -6.0731   22.5276 C   0  0  0  0  0  0
  -21.4019   -6.5632   23.8209 C   0  0  0  0  0  0
  -21.3662   -5.6788   24.9171 C   0  0  0  0  0  0
  -21.6044   -4.3051   24.7225 C   0  0  0  0  0  0
  -21.8820   -3.8143   23.4346 C   0  0  0  0  0  0
  -21.9196   -4.6958   22.3400 C   0  0  0  0  0  0
  -22.7880  -13.5254   21.1828 C   0  0  0  0  0  0
  -22.1665   -4.2145   21.0977 F   0  0  0  0  0  0
  -21.5626   -3.4537   25.7739 F   0  0  0  0  0  0
  -30.0439  -13.2924   20.4582 N   0  0  0  0  0  0
  -26.3053  -12.9338   20.3386 N   0  0  0  0  0  0
  -25.9334  -11.6497   20.5750 N   0  0  0  0  0  0
  -22.0505  -12.8261   22.0379 N   0  0  0  0  0  0
  -25.4359  -15.1884   20.4127 N   0  0  0  0  0  0
  -31.7937  -14.7033   20.0743 O   0  0  0  0  0  0
  -21.6646   -6.8879   21.4240 O   0  0  0  0  0  0
  -22.3575  -14.5564   20.6673 O   0  0  0  0  0  0
  -24.6185  -31.8677   23.2125 C   0  0  0  0  0  0
  -25.9077  -32.4812   23.8408 C   0  0  1  0  0  0
  -27.2230  -27.3944   20.0753 C   0  0  0  0  0  0
  -25.5922  -33.8613   24.2331 N   0  0  0  0  0  0
  -23.4065  -30.4971   21.5547 C   0  0  2  0  0  0
  -24.8487  -28.9708   20.1112 C   0  0  0  0  0  0
  -22.7429  -29.4659   22.4973 C   0  0  0  0  0  0
  -18.0274  -28.1380   22.8485 C   0  0  0  0  0  0
  -24.1487  -36.7309   23.2631 C   0  0  0  0  0  0
  -25.9447  -30.8134   21.3812 C   0  0  0  0  0  0
  -26.0150  -29.4493   20.7207 C   0  0  0  0  0  0
  -27.1994  -28.6654   20.7107 C   0  0  0  0  0  0
  -26.0312  -26.9672   19.4330 C   0  0  0  0  0  0
  -24.8542  -27.7282   19.4676 C   0  0  0  0  0  0
  -23.6162  -29.8441   20.1653 C   0  0  0  0  0  0
  -25.4104  -36.3099   24.0333 C   0  0  1  0  0  0
  -20.5868  -28.3671   23.1304 C   0  0  2  0  0  0
  -20.6767  -26.9406   22.5408 C   0  0  0  0  0  0
  -19.5740  -26.6383   21.5208 C   0  0  0  0  0  0
  -18.1921  -26.7924   22.1623 C   0  0  0  0  0  0
  -19.1526  -28.8843   23.2890 C   0  0  0  0  0  0
  -18.9457  -30.1449   23.8897 C   0  0  0  0  0  0
  -17.6459  -30.6583   24.0562 C   0  0  0  0  0  0
  -25.9041  -34.9469   23.5126 C   0  0  0  0  0  0
  -16.5349  -29.9084   23.6325 C   0  0  0  0  0  0
  -16.7264  -28.6505   23.0340 C   0  0  0  0  0  0
  -26.4492  -31.6587   25.0742 C   0  0  0  0  0  0
  -25.3754  -31.3707   26.1485 C   0  0  0  0  0  0
  -27.0320  -30.3008   24.6163 C   0  0  0  0  0  0
  -27.6057  -32.4311   25.7508 C   0  0  0  0  0  0
  -27.5582  -37.1801   24.8456 C   0  0  0  0  0  0
  -21.4154  -29.3041   22.3713 N   0  0  0  0  0  0
  -26.4281  -37.3790   23.9417 N   0  0  0  0  0  0
  -24.6746  -31.0746   22.1058 N   0  0  0  0  0  0
  -23.4192  -28.8176   23.3004 O   0  0  0  0  0  0
  -28.3752  -26.6060   20.1091 O   0  0  0  0  0  0
  -26.5602  -34.8923   22.4687 O   0  0  0  0  0  0
  -23.5370  -32.1464   23.7490 O   0  0  0  0  0  0
  -28.5942  -18.8751   21.3020 C   0  0  0  0  0  0
  -28.7723  -17.4897   21.4986 C   0  0  0  0  0  0
  -31.0047  -17.6453   20.5707 C   0  0  0  0  0  0
  -29.6039  -19.6741   20.7164 C   0  0  0  0  0  0
  -29.9639  -16.8431   21.1069 C   0  0  0  0  0  0
  -30.8304  -19.0420   20.3816 C   0  0  0  0  0  0
  -29.7073  -21.6671   19.0279 C   0  0  0  0  0  0
  -29.7628  -22.1907   21.4594 C   0  0  0  0  0  0
  -29.0451  -23.0316   18.7271 C   0  0  0  0  0  0
  -29.1146  -23.5830   21.2001 C   0  0  0  0  0  0
  -29.2845  -21.1588   20.4174 C   0  0  2  0  0  0
  -29.3331  -24.1607   19.7647 C   0  0  2  0  0  0
  -31.2933  -25.5273   20.2754 C   0  0  0  0  0  0
  -28.3376  -25.3282   19.4200 C   0  0  0  0  0  0
  -30.0201  -15.4193   21.2920 N   0  0  0  0  0  0
  -30.7003  -24.4916   19.5014 O   0  0  0  0  0  0
  -31.8510  -19.7628   19.8599 F   0  0  0  0  0  0
  -31.4732  -12.4281   19.1183 H   0  0  0  0  0  0
  -30.3401  -11.3044   19.8117 H   0  0  0  0  0  0
  -29.7355  -11.7957   17.4271 H   0  0  0  0  0  0
  -29.6689  -13.5049   17.7733 H   0  0  0  0  0  0
  -27.8206  -11.3230   18.7999 H   0  0  0  0  0  0
  -27.3737  -12.6704   17.7877 H   0  0  0  0  0  0
  -27.7144  -14.2597   19.5941 H   0  0  0  0  0  0
  -28.6852  -11.9359   21.3258 H   0  0  0  0  0  0
  -28.4548  -13.5565   21.8881 H   0  0  0  0  0  0
  -25.2750   -9.5698   22.4761 H   0  0  0  0  0  0
  -23.9996   -7.4648   22.7475 H   0  0  0  0  0  0
  -21.0832   -8.8785   19.8958 H   0  0  0  0  0  0
  -22.3689  -10.9681   19.6165 H   0  0  0  0  0  0
  -21.2013   -7.6141   23.9708 H   0  0  0  0  0  0
  -21.1481   -6.0519   25.9073 H   0  0  0  0  0  0
  -22.0596   -2.7604   23.2850 H   0  0  0  0  0  0
  -22.4098  -11.9918   22.4781 H   0  0  0  0  0  0
  -21.1126  -13.1306   22.2564 H   0  0  0  0  0  0
  -24.6714  -15.8466   20.5180 H   0  0  0  0  0  0
  -26.2900  -15.6231   20.0872 H   0  0  0  0  0  0
  -26.7137  -32.5502   23.1154 H   0  0  0  0  0  0
  -25.0069  -33.9777   25.0472 H   0  0  0  0  0  0
  -22.6963  -31.3160   21.4219 H   0  0  0  0  0  0
  -23.3747  -35.9642   23.3283 H   0  0  0  0  0  0
  -24.3589  -36.8941   22.2050 H   0  0  0  0  0  0
  -23.7245  -37.6510   23.6660 H   0  0  0  0  0  0
  -26.0767  -31.5820   20.6182 H   0  0  0  0  0  0
  -26.8258  -30.8537   22.0096 H   0  0  0  0  0  0
  -28.0930  -29.0284   21.1991 H   0  0  0  0  0  0
  -25.9529  -26.0469   18.8773 H   0  0  0  0  0  0
  -23.9634  -27.3605   18.9759 H   0  0  0  0  0  0
  -23.7336  -30.6275   19.4153 H   0  0  0  0  0  0
  -22.7365  -29.2748   19.8596 H   0  0  0  0  0  0
  -25.1273  -36.1956   25.0821 H   0  0  0  0  0  0
  -20.9953  -28.3237   24.1427 H   0  0  0  0  0  0
  -20.5677  -26.2278   23.3596 H   0  0  0  0  0  0
  -21.6639  -26.7455   22.1198 H   0  0  0  0  0  0
  -19.6904  -25.6297   21.1229 H   0  0  0  0  0  0
  -19.6669  -27.3200   20.6742 H   0  0  0  0  0  0
  -17.4188  -26.6666   21.4026 H   0  0  0  0  0  0
  -18.0324  -26.0065   22.9020 H   0  0  0  0  0  0
  -19.7936  -30.7264   24.2259 H   0  0  0  0  0  0
  -17.5018  -31.6265   24.5163 H   0  0  0  0  0  0
  -15.5351  -30.2991   23.7646 H   0  0  0  0  0  0
  -15.8662  -28.0829   22.7045 H   0  0  0  0  0  0
  -24.5918  -30.7062   25.7831 H   0  0  0  0  0  0
  -24.8965  -32.2871   26.4943 H   0  0  0  0  0  0
  -25.8106  -30.8868   27.0238 H   0  0  0  0  0  0
  -26.2879  -29.6767   24.1199 H   0  0  0  0  0  0
  -27.4035  -29.7247   25.4649 H   0  0  0  0  0  0
  -27.8749  -30.4286   23.9367 H   0  0  0  0  0  0
  -27.2661  -33.3599   26.2102 H   0  0  0  0  0  0
  -28.3861  -32.6884   25.0336 H   0  0  0  0  0  0
  -28.0729  -31.8429   26.5416 H   0  0  0  0  0  0
  -28.2569  -38.0127   24.7544 H   0  0  0  0  0  0
  -28.1107  -36.2664   24.6212 H   0  0  0  0  0  0
  -27.2316  -37.1375   25.8861 H   0  0  0  0  0  0
  -20.9310  -29.8792   21.6962 H   0  0  0  0  0  0
  -26.0163  -38.2859   24.1438 H   0  0  0  0  0  0
  -27.6493  -19.3182   21.5843 H   0  0  0  0  0  0
  -27.9615  -16.9193   21.9311 H   0  0  0  0  0  0
  -31.9490  -17.2055   20.2872 H   0  0  0  0  0  0
  -30.7913  -21.7591   18.9590 H   0  0  0  0  0  0
  -29.4060  -20.9504   18.2639 H   0  0  0  0  0  0
  -29.4882  -21.8548   22.4598 H   0  0  0  0  0  0
  -30.8505  -22.2681   21.4447 H   0  0  0  0  0  0
  -27.9686  -22.8657   18.6571 H   0  0  0  0  0  0
  -29.3484  -23.3620   17.7322 H   0  0  0  0  0  0
  -29.4328  -24.2944   21.9604 H   0  0  0  0  0  0
  -28.0417  -23.4730   21.3629 H   0  0  0  0  0  0
  -28.1939  -21.1999   20.4241 H   0  0  0  0  0  0
  -32.3360  -25.6351   19.9764 H   0  0  0  0  0  0
  -31.2892  -25.3054   21.3415 H   0  0  0  0  0  0
  -30.8176  -26.4922   20.1106 H   0  0  0  0  0  0
  -27.3786  -24.8555   19.6194 H   0  0  0  0  0  0
  -28.3761  -25.5375   18.3493 H   0  0  0  0  0  0
  -29.2205  -15.0303   21.7677 H   0  0  0  0  0  0
  1 25  1  0  0  0
  1 30  2  0  0  0
  1 85  1  0  0  0
  2  3  1  0  0  0
  2 25  1  0  0  0
  2 88  1  0  0  0
  2 89  1  0  0  0
  3  4  1  0  0  0
  3 90  1  0  0  0
  3 91  1  0  0  0
  4  5  1  0  0  0
  4 92  1  0  0  0
  4 93  1  0  0  0
  5  6  1  0  0  0
  5 26  1  0  0  0
  5 94  1  0  0  0
  6 25  1  0  0  0
  6 95  1  0  0  0
  6 96  1  0  0  0
  7  8  2  0  0  0
  7 26  1  0  0  0
  7 29  1  0  0  0
  8  9  1  0  0  0
  8 22  1  0  0  0
  9 10  1  0  0  0
  9 27  2  0  0  0
 10 11  2  0  0  0
 10 15  1  0  0  0
 11 12  1  0  0  0
 11 97  1  0  0  0
 12 13  2  0  0  0
 12 98  1  0  0  0
 13 14  1  0  0  0
 13 31  1  0  0  0
 14 15  2  0  0  0
 14 99  1  0  0  0
 15100  1  0  0  0
 16 17  2  0  0  0
 16 21  1  0  0  0
 16 31  1  0  0  0
 17 18  1  0  0  0
 17101  1  0  0  0
 18 19  2  0  0  0
 18102  1  0  0  0
 19 20  1  0  0  0
 19 24  1  0  0  0
 20 21  2  0  0  0
 20103  1  0  0  0
 21 23  1  0  0  0
 22 28  1  0  0  0
 22 32  2  0  0  0
 26 27  1  0  0  0
 28104  1  0  0  0
 28105  1  0  0  0
 29106  1  0  0  0
 29107  1  0  0  0
 33 34  1  0  0  0
 33 66  1  0  0  0
 33 70  2  0  0  0
 34 36  1  0  0  0
 34 59  1  0  0  0
 34108  1  0  0  0
 35 44  2  0  0  0
 35 45  1  0  0  0
 35 68  1  0  0  0
 36 56  1  0  0  0
 36109  1  0  0  0
 37 39  1  0  0  0
 37 47  1  0  0  0
 37 66  1  0  0  0
 37110  1  0  0  0
 38 43  2  0  0  0
 38 46  1  0  0  0
 38 47  1  0  0  0
 39 64  1  0  0  0
 39 67  2  0  0  0
 40 52  1  0  0  0
 40 53  2  0  0  0
 40 58  1  0  0  0
 41111  1  0  0  0
 41112  1  0  0  0
 41113  1  0  0  0
 41 48  1  0  0  0
 42 43  1  0  0  0
 42 66  1  0  0  0
 42114  1  0  0  0
 42115  1  0  0  0
 43 44  1  0  0  0
 44116  1  0  0  0
 45 46  2  0  0  0
 45117  1  0  0  0
 46118  1  0  0  0
 47119  1  0  0  0
 47120  1  0  0  0
 48 56  1  0  0  0
 48 65  1  0  0  0
 48121  1  0  0  0
 49 50  1  0  0  0
 49 53  1  0  0  0
 49 64  1  0  0  0
 49122  1  0  0  0
 50 51  1  0  0  0
 50123  1  0  0  0
 50124  1  0  0  0
 51 52  1  0  0  0
 51125  1  0  0  0
 51126  1  0  0  0
 52127  1  0  0  0
 52128  1  0  0  0
 53 54  1  0  0  0
 54 55  2  0  0  0
 54129  1  0  0  0
 55 57  1  0  0  0
 55130  1  0  0  0
 56 69  2  0  0  0
 57 58  2  0  0  0
 57131  1  0  0  0
 58132  1  0  0  0
 59 60  1  0  0  0
 59 61  1  0  0  0
 59 62  1  0  0  0
 60133  1  0  0  0
 60134  1  0  0  0
 60135  1  0  0  0
 61136  1  0  0  0
 61137  1  0  0  0
 61138  1  0  0  0
 62139  1  0  0  0
 62140  1  0  0  0
 62141  1  0  0  0
 63 65  1  0  0  0
 63142  1  0  0  0
 63143  1  0  0  0
 63144  1  0  0  0
 64145  1  0  0  0
 65146  1  0  0  0
 68 84  1  0  0  0
 71 72  2  0  0  0
 71 74  1  0  0  0
 71147  1  0  0  0
 72 75  1  0  0  0
 72148  1  0  0  0
 73 75  2  0  0  0
 73 76  1  0  0  0
 73149  1  0  0  0
 74 76  2  0  0  0
 74 81  1  0  0  0
 75 85  1  0  0  0
 76 87  1  0  0  0
 77 79  1  0  0  0
 77 81  1  0  0  0
 77150  1  0  0  0
 77151  1  0  0  0
 78 80  1  0  0  0
 78 81  1  0  0  0
 78152  1  0  0  0
 78153  1  0  0  0
 79 82  1  0  0  0
 79154  1  0  0  0
 79155  1  0  0  0
 80 82  1  0  0  0
 80156  1  0  0  0
 80157  1  0  0  0
 81158  1  0  0  0
 82 84  1  0  0  0
 82 86  1  0  0  0
 83 86  1  0  0  0
 83159  1  0  0  0
 83160  1  0  0  0
 83161  1  0  0  0
 84162  1  0  0  0
 84163  1  0  0  0
 85164  1  0  0  0
M  ISO  4   1 100  68 101  84 101  85 100
M  END
> <chiral flag>
0

> <version>
0

> <s_m_source_file>
/data/baiqing/PycharmProjects/Reinvent-master-3.2/result/LINK_invent/BTK/process_docking_weight1_custom_product_contain_oxygen_bond_distance_aromatic_linkinvent_7_9_3/rearranged_h_0161.sdf

> <i_m_source_file_index>
5

> <r_mmod_Potential_Energy-OPLS-2005>
52.601634979248

> <r_mmod_Stretch_Energy-OPLS-2005>
49.4307098388672

> <r_mmod_Bend_Energy-OPLS-2005>
141.908050537109

> <r_mmod_Torsional_Energy-OPLS-2005>
234.243011474609

> <r_mmod_Improper_Torsional_Energy-OPLS-2005>
3.71322011947632

> <r_mmod_Van_der_Waal_Energy-OPLS-2005>
166.439392089844

> <r_mmod_Electrostatic_Energy-OPLS-2005>
-355.059204101562

> <r_mmod_Solvation_Energy-OPLS-2005>
-205.71240234375

> <b_mmod_Minimization_Converged-OPLS-2005>
0

> <r_mmod_RMS_Derivative-OPLS-2005>
1.1044088602066

$$$$
5
                    3D
 Structure written by MMmdl.
156163  0  0  1  0            999 V2000
  -30.4608  -15.2783   20.3608 C   0  0  0  0  0  0
  -30.4270  -12.8124   19.5318 C   0  0  0  0  0  0
  -29.5333  -12.5793   18.2892 C   0  0  0  0  0  0
  -28.0769  -12.3087   18.7071 C   0  0  0  0  0  0
  -27.6082  -13.2783   19.8215 C   0  0  2  0  0  0
  -28.6389  -13.4701   20.9553 C   0  0  0  0  0  0
  -25.2360  -13.8269   20.5653 C   0  0  0  0  0  0
  -24.1740  -13.0454   20.9250 C   0  0  0  0  0  0
  -24.6396  -11.6946   20.8753 C   0  0  0  0  0  0
  -23.9104  -10.4303   21.0394 C   0  0  0  0  0  0
  -24.3641   -9.4222   21.9164 C   0  0  0  0  0  0
  -23.6311   -8.2264   22.0732 C   0  0  0  0  0  0
  -22.4299   -8.0296   21.3530 C   0  0  0  0  0  0
  -21.9937   -9.0265   20.4633 C   0  0  0  0  0  0
  -22.7266  -10.2147   20.3046 C   0  0  0  0  0  0
  -21.6884   -6.0728   22.5262 C   0  0  0  0  0  0
  -21.4028   -6.5628   23.8192 C   0  0  0  0  0  0
  -21.3668   -5.6781   24.9159 C   0  0  0  0  0  0
  -21.6053   -4.3048   24.7226 C   0  0  0  0  0  0
  -21.8828   -3.8132   23.4345 C   0  0  0  0  0  0
  -21.9206   -4.6950   22.3394 C   0  0  0  0  0  0
  -22.7758  -13.5196   21.1907 C   0  0  0  0  0  0
  -22.1681   -4.2130   21.0974 F   0  0  0  0  0  0
  -21.5629   -3.4525   25.7734 F   0  0  0  0  0  0
  -29.8698  -13.9752   20.3239 N   0  0  0  0  0  0
  -26.2798  -12.9541   20.3159 N   0  0  0  0  0  0
  -25.9341  -11.6656   20.5715 N   0  0  0  0  0  0
  -22.0415  -12.8182   22.0468 N   0  0  0  0  0  0
  -25.4027  -15.1991   20.3941 N   0  0  0  0  0  0
  -31.6840  -15.2290   20.1464 O   0  0  0  0  0  0
  -21.6682   -6.8881   21.4230 O   0  0  0  0  0  0
  -22.3441  -14.5498   20.6747 O   0  0  0  0  0  0
  -24.6627  -31.8247   23.1699 C   0  0  0  0  0  0
  -25.9330  -32.4584   23.8146 C   0  0  1  0  0  0
  -27.1998  -26.9193   20.1815 C   0  0  0  0  0  0
  -25.6009  -33.8399   24.2064 N   0  0  0  0  0  0
  -23.4754  -30.4388   21.5218 C   0  0  2  0  0  0
  -24.9215  -28.8232   20.1154 C   0  0  0  0  0  0
  -22.7660  -29.4459   22.4797 C   0  0  0  0  0  0
  -18.0324  -28.1408   22.8476 C   0  0  0  0  0  0
  -24.1507  -36.7204   23.2643 C   0  0  0  0  0  0
  -26.0458  -30.6263   21.4018 C   0  0  0  0  0  0
  -26.1082  -29.2157   20.7458 C   0  0  0  0  0  0
  -27.2439  -28.2868   20.7531 C   0  0  0  0  0  0
  -25.9853  -26.6833   19.5007 C   0  0  0  0  0  0
  -24.8850  -27.5767   19.4725 C   0  0  0  0  0  0
  -23.7117  -29.7557   20.1473 C   0  0  0  0  0  0
  -25.4143  -36.2964   24.0295 C   0  0  1  0  0  0
  -20.5950  -28.3741   23.1196 C   0  0  2  0  0  0
  -20.6803  -26.9435   22.5405 C   0  0  0  0  0  0
  -19.5774  -26.6380   21.5234 C   0  0  0  0  0  0
  -18.1957  -26.7949   22.1631 C   0  0  0  0  0  0
  -19.1590  -28.8902   23.2827 C   0  0  0  0  0  0
  -18.9492  -30.1501   23.8849 C   0  0  0  0  0  0
  -17.6482  -30.6595   24.0559 C   0  0  0  0  0  0
  -25.9117  -34.9344   23.4996 C   0  0  0  0  0  0
  -16.5372  -29.9077   23.6348 C   0  0  0  0  0  0
  -16.7302  -28.6506   23.0352 C   0  0  0  0  0  0
  -26.4570  -31.6517   25.0671 C   0  0  0  0  0  0
  -25.3687  -31.3773   26.1318 C   0  0  0  0  0  0
  -27.0465  -30.2879   24.6417 C   0  0  0  0  0  0
  -27.6059  -32.4316   25.7477 C   0  0  0  0  0  0
  -27.5577  -37.1766   24.8460 C   0  0  0  0  0  0
  -21.4341  -29.3038   22.3546 N   0  0  0  0  0  0
  -26.4283  -37.3698   23.9407 N   0  0  0  0  0  0
  -24.7496  -30.9894   22.0839 N   0  0  0  0  0  0
  -23.4213  -28.8014   23.3023 O   0  0  0  0  0  0
  -28.1998  -25.8121   20.2248 O   0  0  0  0  0  0
  -26.5716  -34.8884   22.4586 O   0  0  0  0  0  0
  -23.5697  -32.1221   23.6806 O   0  0  0  0  0  0
  -30.1532  -18.1784   20.2364 C   0  0  0  0  0  0
  -31.8414  -17.9628   18.4056 C   0  0  0  0  0  0
  -30.1401  -23.0176   21.0406 C   0  0  0  0  0  0
  -29.4036  -22.7717   18.6494 C   0  0  0  0  0  0
  -31.6255  -18.2297   19.9035 C   0  0  0  0  0  0
  -28.6344  -20.9232   20.3906 C   0  0  0  0  0  0
  -27.9199  -24.1802   20.2767 C   0  0  0  0  0  0
  -28.9531  -22.6984   20.1207 C   0  0  0  0  0  0
  -29.7002  -16.7533   20.4245 N   0  0  0  0  0  0
  -29.7033  -19.6323   20.2295 N   0  3  0  0  0  0
  -31.4507  -12.9938   19.2042 H   0  0  0  0  0  0
  -30.4794  -11.9070   20.1389 H   0  0  0  0  0  0
  -29.9121  -11.7493   17.6924 H   0  0  0  0  0  0
  -29.5715  -13.4588   17.6450 H   0  0  0  0  0  0
  -28.0139  -11.2766   19.0584 H   0  0  0  0  0  0
  -27.4206  -12.3829   17.8390 H   0  0  0  0  0  0
  -27.5238  -14.2459   19.3257 H   0  0  0  0  0  0
  -28.8092  -12.5389   21.4991 H   0  0  0  0  0  0
  -28.2699  -14.1955   21.6852 H   0  0  0  0  0  0
  -25.2763   -9.5723   22.4757 H   0  0  0  0  0  0
  -24.0023   -7.4666   22.7452 H   0  0  0  0  0  0
  -21.0857   -8.8792   19.8933 H   0  0  0  0  0  0
  -22.3692  -10.9697   19.6182 H   0  0  0  0  0  0
  -21.2018   -7.6130   23.9694 H   0  0  0  0  0  0
  -21.1484   -6.0506   25.9058 H   0  0  0  0  0  0
  -22.0601   -2.7600   23.2855 H   0  0  0  0  0  0
  -22.4057  -11.9861   22.4853 H   0  0  0  0  0  0
  -21.1020  -13.1196   22.2645 H   0  0  0  0  0  0
  -24.6208  -15.8436   20.4548 H   0  0  0  0  0  0
  -26.2073  -15.6019   19.9303 H   0  0  0  0  0  0
  -26.7387  -32.5113   23.0846 H   0  0  0  0  0  0
  -25.0091  -33.9474   25.0171 H   0  0  0  0  0  0
  -22.7897  -31.2714   21.3549 H   0  0  0  0  0  0
  -23.3791  -35.9514   23.3258 H   0  0  0  0  0  0
  -24.3578  -36.8894   22.2065 H   0  0  0  0  0  0
  -23.7249  -37.6371   23.6725 H   0  0  0  0  0  0
  -26.2311  -31.3686   20.6232 H   0  0  0  0  0  0
  -26.9036  -30.6774   22.0588 H   0  0  0  0  0  0
  -28.1409  -28.5860   21.2755 H   0  0  0  0  0  0
  -25.8492  -25.7385   18.9971 H   0  0  0  0  0  0
  -23.9834  -27.2708   18.9584 H   0  0  0  0  0  0
  -23.8695  -30.5258   19.3917 H   0  0  0  0  0  0
  -22.8194  -29.2147   19.8281 H   0  0  0  0  0  0
  -25.1357  -36.1745   25.0786 H   0  0  0  0  0  0
  -21.0049  -28.3352   24.1324 H   0  0  0  0  0  0
  -20.5704  -26.2363   23.3645 H   0  0  0  0  0  0
  -21.6659  -26.7429   22.1197 H   0  0  0  0  0  0
  -19.6927  -25.6281   21.1271 H   0  0  0  0  0  0
  -19.6705  -27.3177   20.6752 H   0  0  0  0  0  0
  -17.4235  -26.6714   21.4023 H   0  0  0  0  0  0
  -18.0329  -26.0096   22.9023 H   0  0  0  0  0  0
  -19.7961  -30.7344   24.2173 H   0  0  0  0  0  0
  -17.5021  -31.6270   24.5171 H   0  0  0  0  0  0
  -15.5364  -30.2942   23.7710 H   0  0  0  0  0  0
  -15.8716  -28.0807   22.7062 H   0  0  0  0  0  0
  -24.5871  -30.7135   25.7612 H   0  0  0  0  0  0
  -24.8876  -32.2978   26.4628 H   0  0  0  0  0  0
  -25.7892  -30.8994   27.0172 H   0  0  0  0  0  0
  -26.3129  -29.6542   24.1416 H   0  0  0  0  0  0
  -27.3989  -29.7249   25.5069 H   0  0  0  0  0  0
  -27.9074  -30.4049   23.9830 H   0  0  0  0  0  0
  -27.2627  -33.3644   26.1954 H   0  0  0  0  0  0
  -28.3917  -32.6834   25.0346 H   0  0  0  0  0  0
  -28.0674  -31.8512   26.5471 H   0  0  0  0  0  0
  -28.2575  -38.0083   24.7527 H   0  0  0  0  0  0
  -28.1108  -36.2620   24.6279 H   0  0  0  0  0  0
  -27.2300  -37.1380   25.8861 H   0  0  0  0  0  0
  -20.9583  -29.8710   21.6672 H   0  0  0  0  0  0
  -26.0142  -38.2762   24.1395 H   0  0  0  0  0  0
  -32.9002  -17.9901   18.1516 H   0  0  0  0  0  0
  -31.3403  -18.7153   17.7983 H   0  0  0  0  0  0
  -31.4577  -16.9887   18.1029 H   0  0  0  0  0  0
  -30.9678  -22.3270   20.8908 H   0  0  0  0  0  0
  -29.8416  -22.9587   22.0883 H   0  0  0  0  0  0
  -30.5153  -24.0268   20.8656 H   0  0  0  0  0  0
  -30.1057  -21.9773   18.3968 H   0  0  0  0  0  0
  -29.8828  -23.7253   18.4195 H   0  0  0  0  0  0
  -28.5445  -22.6725   17.9827 H   0  0  0  0  0  0
  -32.1965  -17.5509   20.5319 H   0  0  0  0  0  0
  -32.0428  -19.2070   20.1490 H   0  0  0  0  0  0
  -27.7679  -20.6663   19.7800 H   0  0  0  0  0  0
  -28.2719  -20.8466   21.4169 H   0  0  0  0  0  0
  -27.4107  -24.0596   21.2342 H   0  0  0  0  0  0
  -27.1171  -24.0239   19.5557 H   0  0  0  0  0  0
  -28.7103  -16.7342   20.6012 H   0  0  0  0  0  0
  -30.5536  -20.1373   20.0157 H   0  0  0  0  0  0
  1 25  1  0  0  0
  1 30  2  0  0  0
  1 79  1  0  0  0
  2  3  1  0  0  0
  2 25  1  0  0  0
  2 81  1  0  0  0
  2 82  1  0  0  0
  3  4  1  0  0  0
  3 83  1  0  0  0
  3 84  1  0  0  0
  4  5  1  0  0  0
  4 85  1  0  0  0
  4 86  1  0  0  0
  5  6  1  0  0  0
  5 26  1  0  0  0
  5 87  1  0  0  0
  6 25  1  0  0  0
  6 88  1  0  0  0
  6 89  1  0  0  0
  7  8  2  0  0  0
  7 26  1  0  0  0
  7 29  1  0  0  0
  8  9  1  0  0  0
  8 22  1  0  0  0
  9 10  1  0  0  0
  9 27  2  0  0  0
 10 11  2  0  0  0
 10 15  1  0  0  0
 11 12  1  0  0  0
 11 90  1  0  0  0
 12 13  2  0  0  0
 12 91  1  0  0  0
 13 14  1  0  0  0
 13 31  1  0  0  0
 14 15  2  0  0  0
 14 92  1  0  0  0
 15 93  1  0  0  0
 16 17  2  0  0  0
 16 21  1  0  0  0
 16 31  1  0  0  0
 17 18  1  0  0  0
 17 94  1  0  0  0
 18 19  2  0  0  0
 18 95  1  0  0  0
 19 20  1  0  0  0
 19 24  1  0  0  0
 20 21  2  0  0  0
 20 96  1  0  0  0
 21 23  1  0  0  0
 22 28  1  0  0  0
 22 32  2  0  0  0
 26 27  1  0  0  0
 28 97  1  0  0  0
 28 98  1  0  0  0
 29 99  1  0  0  0
 29100  1  0  0  0
 33 34  1  0  0  0
 33 66  1  0  0  0
 33 70  2  0  0  0
 34 36  1  0  0  0
 34 59  1  0  0  0
 34101  1  0  0  0
 35 44  2  0  0  0
 35 45  1  0  0  0
 35 68  1  0  0  0
 36 56  1  0  0  0
 36102  1  0  0  0
 37 39  1  0  0  0
 37 47  1  0  0  0
 37 66  1  0  0  0
 37103  1  0  0  0
 38 43  2  0  0  0
 38 46  1  0  0  0
 38 47  1  0  0  0
 39 64  1  0  0  0
 39 67  2  0  0  0
 40 52  1  0  0  0
 40 53  2  0  0  0
 40 58  1  0  0  0
 41104  1  0  0  0
 41105  1  0  0  0
 41106  1  0  0  0
 41 48  1  0  0  0
 42 43  1  0  0  0
 42 66  1  0  0  0
 42107  1  0  0  0
 42108  1  0  0  0
 43 44  1  0  0  0
 44109  1  0  0  0
 45 46  2  0  0  0
 45110  1  0  0  0
 46111  1  0  0  0
 47112  1  0  0  0
 47113  1  0  0  0
 48 56  1  0  0  0
 48 65  1  0  0  0
 48114  1  0  0  0
 49 50  1  0  0  0
 49 53  1  0  0  0
 49 64  1  0  0  0
 49115  1  0  0  0
 50 51  1  0  0  0
 50116  1  0  0  0
 50117  1  0  0  0
 51 52  1  0  0  0
 51118  1  0  0  0
 51119  1  0  0  0
 52120  1  0  0  0
 52121  1  0  0  0
 53 54  1  0  0  0
 54 55  2  0  0  0
 54122  1  0  0  0
 55 57  1  0  0  0
 55123  1  0  0  0
 56 69  2  0  0  0
 57 58  2  0  0  0
 57124  1  0  0  0
 58125  1  0  0  0
 59 60  1  0  0  0
 59 61  1  0  0  0
 59 62  1  0  0  0
 60126  1  0  0  0
 60127  1  0  0  0
 60128  1  0  0  0
 61129  1  0  0  0
 61130  1  0  0  0
 61131  1  0  0  0
 62132  1  0  0  0
 62133  1  0  0  0
 62134  1  0  0  0
 63 65  1  0  0  0
 63135  1  0  0  0
 63136  1  0  0  0
 63137  1  0  0  0
 64138  1  0  0  0
 65139  1  0  0  0
 68 77  1  0  0  0
 71 75  1  0  0  0
 71 79  1  0  0  0
 71 80  2  0  0  0
 72 75  1  0  0  0
 72140  1  0  0  0
 72141  1  0  0  0
 72142  1  0  0  0
 73143  1  0  0  0
 73144  1  0  0  0
 73145  1  0  0  0
 73 78  1  0  0  0
 74 78  1  0  0  0
 74146  1  0  0  0
 74147  1  0  0  0
 74148  1  0  0  0
 75149  1  0  0  0
 75150  1  0  0  0
 76 78  1  0  0  0
 76 80  1  0  0  0
 76151  1  0  0  0
 76152  1  0  0  0
 77 78  1  0  0  0
 77153  1  0  0  0
 77154  1  0  0  0
 79155  1  0  0  0
 80156  1  0  0  0
M  CHG  1  80   1
M  ISO  4   1 100  68 101  77 101  79 100
M  END
> <chiral flag>
0

> <version>
0

> <s_m_source_file>
/data/baiqing/PycharmProjects/Reinvent-master-3.2/result/LINK_invent/BTK/process_docking_weight1_custom_product_contain_oxygen_bond_distance_aromatic_linkinvent_7_9_3/rearranged_h_0161.sdf

> <i_m_source_file_index>
6

> <r_mmod_Potential_Energy-OPLS-2005>
1381.11096191406

> <r_mmod_Stretch_Energy-OPLS-2005>
658.578552246094

> <r_mmod_Bend_Energy-OPLS-2005>
537.606201171875

> <r_mmod_Torsional_Energy-OPLS-2005>
229.310882568359

> <r_mmod_Improper_Torsional_Energy-OPLS-2005>
5.07952117919922

> <r_mmod_Van_der_Waal_Energy-OPLS-2005>
118.361068725586

> <r_mmod_Electrostatic_Energy-OPLS-2005>
-205.856216430664

> <r_mmod_Solvation_Energy-OPLS-2005>
-425.076599121094

> <b_mmod_Minimization_Converged-OPLS-2005>
0

> <r_mmod_RMS_Derivative-OPLS-2005>
3.93170738220215

$$$$
6
                    3D
 Structure written by MMmdl.
150158  0  0  1  0            999 V2000
  -30.6545  -14.5555   20.5379 C   0  0  0  0  0  0
  -30.4403  -12.3383   19.4487 C   0  0  0  0  0  0
  -29.5158  -12.4831   18.2192 C   0  0  0  0  0  0
  -28.0373  -12.3265   18.6282 C   0  0  0  0  0  0
  -27.6640  -13.1975   19.8588 C   0  0  2  0  0  0
  -28.7039  -13.0340   20.9892 C   0  0  0  0  0  0
  -25.2673  -13.8121   20.5661 C   0  0  0  0  0  0
  -24.1911  -13.0445   20.9166 C   0  0  0  0  0  0
  -24.6442  -11.6890   20.8720 C   0  0  0  0  0  0
  -23.9102  -10.4291   21.0404 C   0  0  0  0  0  0
  -24.3637   -9.4208   21.9178 C   0  0  0  0  0  0
  -23.6288   -8.2257   22.0760 C   0  0  0  0  0  0
  -22.4268   -8.0300   21.3559 C   0  0  0  0  0  0
  -21.9919   -9.0291   20.4659 C   0  0  0  0  0  0
  -22.7276  -10.2149   20.3056 C   0  0  0  0  0  0
  -21.6849   -6.0735   22.5276 C   0  0  0  0  0  0
  -21.4026   -6.5638   23.8220 C   0  0  0  0  0  0
  -21.3674   -5.6789   24.9176 C   0  0  0  0  0  0
  -21.6038   -4.3048   24.7210 C   0  0  0  0  0  0
  -21.8828   -3.8153   23.4332 C   0  0  0  0  0  0
  -21.9209   -4.6971   22.3393 C   0  0  0  0  0  0
  -22.7939  -13.5265   21.1826 C   0  0  0  0  0  0
  -22.1659   -4.2162   21.0966 F   0  0  0  0  0  0
  -21.5634   -3.4526   25.7725 F   0  0  0  0  0  0
  -30.0272  -13.3481   20.4380 N   0  0  0  0  0  0
  -26.3075  -12.9267   20.3281 N   0  0  0  0  0  0
  -25.9359  -11.6443   20.5717 N   0  0  0  0  0  0
  -22.0538  -12.8291   22.0365 N   0  0  0  0  0  0
  -25.4432  -15.1840   20.4094 N   0  0  0  0  0  0
  -31.8029  -14.7077   20.1122 O   0  0  0  0  0  0
  -21.6643   -6.8887   21.4242 O   0  0  0  0  0  0
  -22.3630  -14.5562   20.6637 O   0  0  0  0  0  0
  -24.6192  -31.8665   23.2068 C   0  0  0  0  0  0
  -25.9070  -32.4808   23.8377 C   0  0  1  0  0  0
  -27.2193  -27.3786   20.1043 C   0  0  0  0  0  0
  -25.5914  -33.8613   24.2309 N   0  0  0  0  0  0
  -23.4069  -30.4913   21.5507 C   0  0  2  0  0  0
  -24.8500  -28.9518   20.1149 C   0  0  0  0  0  0
  -22.7431  -29.4660   22.4979 C   0  0  0  0  0  0
  -18.0279  -28.1374   22.8503 C   0  0  0  0  0  0
  -24.1497  -36.7294   23.2639 C   0  0  0  0  0  0
  -25.9419  -30.8161   21.3662 C   0  0  0  0  0  0
  -26.0164  -29.4477   20.7095 C   0  0  0  0  0  0
  -27.2053  -28.6717   20.6944 C   0  0  0  0  0  0
  -26.0309  -26.9163   19.4935 C   0  0  0  0  0  0
  -24.8549  -27.6885   19.5020 C   0  0  0  0  0  0
  -23.6164  -29.8281   20.1642 C   0  0  0  0  0  0
  -25.4123  -36.3103   24.0331 C   0  0  1  0  0  0
  -20.5871  -28.3675   23.1317 C   0  0  2  0  0  0
  -20.6766  -26.9409   22.5421 C   0  0  0  0  0  0
  -19.5736  -26.6390   21.5223 C   0  0  0  0  0  0
  -18.1920  -26.7920   22.1636 C   0  0  0  0  0  0
  -19.1533  -28.8843   23.2903 C   0  0  0  0  0  0
  -18.9454  -30.1449   23.8909 C   0  0  0  0  0  0
  -17.6459  -30.6588   24.0574 C   0  0  0  0  0  0
  -25.9047  -34.9463   23.5112 C   0  0  0  0  0  0
  -16.5349  -29.9087   23.6328 C   0  0  0  0  0  0
  -16.7267  -28.6496   23.0354 C   0  0  0  0  0  0
  -26.4488  -31.6590   25.0714 C   0  0  0  0  0  0
  -25.3738  -31.3706   26.1444 C   0  0  0  0  0  0
  -27.0308  -30.3023   24.6101 C   0  0  0  0  0  0
  -27.6050  -32.4316   25.7482 C   0  0  0  0  0  0
  -27.5578  -37.1814   24.8471 C   0  0  0  0  0  0
  -21.4158  -29.3036   22.3725 N   0  0  0  0  0  0
  -26.4307  -37.3788   23.9403 N   0  0  0  0  0  0
  -24.6746  -31.0734   22.0986 N   0  0  0  0  0  0
  -23.4192  -28.8210   23.3038 O   0  0  0  0  0  0
  -28.3654  -26.5919   20.1335 O   0  0  0  0  0  0
  -26.5616  -34.8929   22.4677 O   0  0  0  0  0  0
  -23.5375  -32.1445   23.7445 O   0  0  0  0  0  0
  -29.6428  -19.6829   20.8638 C   0  0  0  0  0  0
  -28.7492  -19.9599   18.7167 C   0  0  0  0  0  0
  -29.0315  -20.5807   19.9056 C   0  0  0  0  0  0
  -29.8481  -18.4001   20.3683 C   0  0  0  0  0  0
  -29.6053  -22.8351   20.2197 C   0  0  0  0  0  0
  -29.5332  -24.3774   20.3166 C   0  0  0  0  0  0
  -30.5822  -17.2103   20.9883 C   0  0  0  0  0  0
  -28.1901  -25.1363   20.1440 C   0  0  0  0  0  0
  -29.8519  -15.8137   21.0172 C   0  0  0  0  0  0
  -28.6855  -21.9427   20.1036 N   0  0  0  0  0  0
  -30.5631  -25.0355   20.5157 O   0  0  0  0  0  0
  -29.2685  -18.2937   18.7212 S   0  0  0  0  0  0
  -31.4869  -12.4446   19.1573 H   0  0  0  0  0  0
  -30.3527  -11.3380   19.8791 H   0  0  0  0  0  0
  -29.7720  -11.7263   17.4768 H   0  0  0  0  0  0
  -29.6757  -13.4514   17.7428 H   0  0  0  0  0  0
  -27.8797  -11.2721   18.8625 H   0  0  0  0  0  0
  -27.3853  -12.5515   17.7832 H   0  0  0  0  0  0
  -27.6944  -14.2310   19.5158 H   0  0  0  0  0  0
  -28.7027  -12.0116   21.3706 H   0  0  0  0  0  0
  -28.4556  -13.6643   21.8423 H   0  0  0  0  0  0
  -25.2788   -9.5667   22.4751 H   0  0  0  0  0  0
  -24.0010   -7.4638   22.7471 H   0  0  0  0  0  0
  -21.0862   -8.8830   19.8941 H   0  0  0  0  0  0
  -22.3767  -10.9697   19.6165 H   0  0  0  0  0  0
  -21.2000   -7.6142   23.9731 H   0  0  0  0  0  0
  -21.1486   -6.0499   25.9085 H   0  0  0  0  0  0
  -22.0586   -2.7614   23.2823 H   0  0  0  0  0  0
  -22.4128  -11.9974   22.4810 H   0  0  0  0  0  0
  -21.1140  -13.1337   22.2481 H   0  0  0  0  0  0
  -24.6784  -15.8377   20.5295 H   0  0  0  0  0  0
  -26.3011  -15.6274   20.1084 H   0  0  0  0  0  0
  -26.7131  -32.5506   23.1123 H   0  0  0  0  0  0
  -25.0082  -33.9780   25.0457 H   0  0  0  0  0  0
  -22.6968  -31.3085   21.4128 H   0  0  0  0  0  0
  -23.3753  -35.9629   23.3338 H   0  0  0  0  0  0
  -24.3578  -36.8874   22.2041 H   0  0  0  0  0  0
  -23.7268  -37.6515   23.6632 H   0  0  0  0  0  0
  -26.0649  -31.5858   20.6027 H   0  0  0  0  0  0
  -26.8245  -30.8637   21.9914 H   0  0  0  0  0  0
  -28.1050  -29.0515   21.1577 H   0  0  0  0  0  0
  -25.9904  -25.9594   18.9961 H   0  0  0  0  0  0
  -23.9578  -27.3060   19.0353 H   0  0  0  0  0  0
  -23.7331  -30.6055   19.4076 H   0  0  0  0  0  0
  -22.7361  -29.2572   19.8639 H   0  0  0  0  0  0
  -25.1315  -36.1951   25.0822 H   0  0  0  0  0  0
  -20.9964  -28.3230   24.1440 H   0  0  0  0  0  0
  -20.5685  -26.2285   23.3613 H   0  0  0  0  0  0
  -21.6632  -26.7462   22.1207 H   0  0  0  0  0  0
  -19.6901  -25.6311   21.1229 H   0  0  0  0  0  0
  -19.6651  -27.3223   20.6767 H   0  0  0  0  0  0
  -17.4196  -26.6688   21.4031 H   0  0  0  0  0  0
  -18.0303  -26.0056   22.9019 H   0  0  0  0  0  0
  -19.7933  -30.7264   24.2271 H   0  0  0  0  0  0
  -17.5015  -31.6260   24.5182 H   0  0  0  0  0  0
  -15.5351  -30.2996   23.7638 H   0  0  0  0  0  0
  -15.8663  -28.0822   22.7057 H   0  0  0  0  0  0
  -24.5929  -30.7031   25.7791 H   0  0  0  0  0  0
  -24.8902  -32.2861   26.4867 H   0  0  0  0  0  0
  -25.8081  -30.8908   27.0221 H   0  0  0  0  0  0
  -26.2848  -29.6796   24.1150 H   0  0  0  0  0  0
  -27.4067  -29.7258   25.4566 H   0  0  0  0  0  0
  -27.8698  -30.4341   23.9259 H   0  0  0  0  0  0
  -27.2655  -33.3614   26.2072 H   0  0  0  0  0  0
  -28.3854  -32.6890   25.0302 H   0  0  0  0  0  0
  -28.0720  -31.8430   26.5394 H   0  0  0  0  0  0
  -28.2632  -38.0077   24.7491 H   0  0  0  0  0  0
  -28.1040  -36.2610   24.6341 H   0  0  0  0  0  0
  -27.2283  -37.1514   25.8873 H   0  0  0  0  0  0
  -20.9318  -29.8768   21.6956 H   0  0  0  0  0  0
  -26.0185  -38.2867   24.1379 H   0  0  0  0  0  0
  -29.9288  -20.0059   21.8563 H   0  0  0  0  0  0
  -28.2850  -20.3671   17.8252 H   0  0  0  0  0  0
  -30.6384  -22.4748   20.2448 H   0  0  0  0  0  0
  -30.8507  -17.4610   22.0171 H   0  0  0  0  0  0
  -31.5438  -17.1271   20.4832 H   0  0  0  0  0  0
  -27.5308  -24.8477   20.9640 H   0  0  0  0  0  0
  -27.7319  -24.7978   19.2164 H   0  0  0  0  0  0
  -29.4971  -15.6346   22.0317 H   0  0  0  0  0  0
  -28.9588  -15.8733   20.3969 H   0  0  0  0  0  0
  1 25  1  0  0  0
  1 30  2  0  0  0
  1 79  1  0  0  0
  2  3  1  0  0  0
  2 25  1  0  0  0
  2 83  1  0  0  0
  2 84  1  0  0  0
  3  4  1  0  0  0
  3 85  1  0  0  0
  3 86  1  0  0  0
  4  5  1  0  0  0
  4 87  1  0  0  0
  4 88  1  0  0  0
  5  6  1  0  0  0
  5 26  1  0  0  0
  5 89  1  0  0  0
  6 25  1  0  0  0
  6 90  1  0  0  0
  6 91  1  0  0  0
  7  8  2  0  0  0
  7 26  1  0  0  0
  7 29  1  0  0  0
  8  9  1  0  0  0
  8 22  1  0  0  0
  9 10  1  0  0  0
  9 27  2  0  0  0
 10 11  2  0  0  0
 10 15  1  0  0  0
 11 12  1  0  0  0
 11 92  1  0  0  0
 12 13  2  0  0  0
 12 93  1  0  0  0
 13 14  1  0  0  0
 13 31  1  0  0  0
 14 15  2  0  0  0
 14 94  1  0  0  0
 15 95  1  0  0  0
 16 17  2  0  0  0
 16 21  1  0  0  0
 16 31  1  0  0  0
 17 18  1  0  0  0
 17 96  1  0  0  0
 18 19  2  0  0  0
 18 97  1  0  0  0
 19 20  1  0  0  0
 19 24  1  0  0  0
 20 21  2  0  0  0
 20 98  1  0  0  0
 21 23  1  0  0  0
 22 28  1  0  0  0
 22 32  2  0  0  0
 26 27  1  0  0  0
 28 99  1  0  0  0
 28100  1  0  0  0
 29101  1  0  0  0
 29102  1  0  0  0
 33 34  1  0  0  0
 33 66  1  0  0  0
 33 70  2  0  0  0
 34 36  1  0  0  0
 34 59  1  0  0  0
 34103  1  0  0  0
 35 44  2  0  0  0
 35 45  1  0  0  0
 35 68  1  0  0  0
 36 56  1  0  0  0
 36104  1  0  0  0
 37 39  1  0  0  0
 37 47  1  0  0  0
 37 66  1  0  0  0
 37105  1  0  0  0
 38 43  2  0  0  0
 38 46  1  0  0  0
 38 47  1  0  0  0
 39 64  1  0  0  0
 39 67  2  0  0  0
 40 52  1  0  0  0
 40 53  2  0  0  0
 40 58  1  0  0  0
 41106  1  0  0  0
 41107  1  0  0  0
 41108  1  0  0  0
 41 48  1  0  0  0
 42 43  1  0  0  0
 42 66  1  0  0  0
 42109  1  0  0  0
 42110  1  0  0  0
 43 44  1  0  0  0
 44111  1  0  0  0
 45 46  2  0  0  0
 45112  1  0  0  0
 46113  1  0  0  0
 47114  1  0  0  0
 47115  1  0  0  0
 48 56  1  0  0  0
 48 65  1  0  0  0
 48116  1  0  0  0
 49 50  1  0  0  0
 49 53  1  0  0  0
 49 64  1  0  0  0
 49117  1  0  0  0
 50 51  1  0  0  0
 50118  1  0  0  0
 50119  1  0  0  0
 51 52  1  0  0  0
 51120  1  0  0  0
 51121  1  0  0  0
 52122  1  0  0  0
 52123  1  0  0  0
 53 54  1  0  0  0
 54 55  2  0  0  0
 54124  1  0  0  0
 55 57  1  0  0  0
 55125  1  0  0  0
 56 69  2  0  0  0
 57 58  2  0  0  0
 57126  1  0  0  0
 58127  1  0  0  0
 59 60  1  0  0  0
 59 61  1  0  0  0
 59 62  1  0  0  0
 60128  1  0  0  0
 60129  1  0  0  0
 60130  1  0  0  0
 61131  1  0  0  0
 61132  1  0  0  0
 61133  1  0  0  0
 62134  1  0  0  0
 62135  1  0  0  0
 62136  1  0  0  0
 63 65  1  0  0  0
 63137  1  0  0  0
 63138  1  0  0  0
 63139  1  0  0  0
 64140  1  0  0  0
 65141  1  0  0  0
 68 78  1  0  0  0
 71 73  1  0  0  0
 71 74  2  0  0  0
 71142  1  0  0  0
 72 73  2  0  0  0
 72 82  1  0  0  0
 72143  1  0  0  0
 73 80  1  0  0  0
 74 77  1  0  0  0
 74 82  1  0  0  0
 75 76  1  0  0  0
 75 80  2  0  0  0
 75144  1  0  0  0
 76 78  1  0  0  0
 76 81  2  0  0  0
 77 79  1  0  0  0
 77145  1  0  0  0
 77146  1  0  0  0
 78147  1  0  0  0
 78148  1  0  0  0
 79149  1  0  0  0
 79150  1  0  0  0
M  ISO  4   1 100  68 101  78 101  79 100
M  END
> <chiral flag>
0

> <version>
0

> <s_m_source_file>
/data/baiqing/PycharmProjects/Reinvent-master-3.2/result/LINK_invent/BTK/process_docking_weight1_custom_product_contain_oxygen_bond_distance_aromatic_linkinvent_7_9_3/rearranged_h_0161.sdf

> <i_m_source_file_index>
7

> <r_mmod_Potential_Energy-OPLS-2005>
-19.3806381225586

> <r_mmod_Stretch_Energy-OPLS-2005>
53.4189834594727

> <r_mmod_Bend_Energy-OPLS-2005>
111.283676147461

> <r_mmod_Torsional_Energy-OPLS-2005>
190.230346679688

> <r_mmod_Improper_Torsional_Energy-OPLS-2005>
4.05656766891479

> <r_mmod_Van_der_Waal_Energy-OPLS-2005>
124.947280883789

> <r_mmod_Electrostatic_Energy-OPLS-2005>
-306.822357177734

> <r_mmod_Solvation_Energy-OPLS-2005>
-222.571334838867

> <b_mmod_Minimization_Converged-OPLS-2005>
0

> <r_mmod_RMS_Derivative-OPLS-2005>
2.87964797019958

$$$$
7
                    3D
 Structure written by MMmdl.
154163  0  0  1  0            999 V2000
  -30.6246  -14.6868   20.4713 C   0  0  0  0  0  0
  -30.4327  -12.4176   19.4671 C   0  0  0  0  0  0
  -29.5100  -12.5040   18.2316 C   0  0  0  0  0  0
  -28.0334  -12.3373   18.6420 C   0  0  0  0  0  0
  -27.6471  -13.2249   19.8552 C   0  0  2  0  0  0
  -28.6900  -13.1266   20.9910 C   0  0  0  0  0  0
  -25.2539  -13.8192   20.5686 C   0  0  0  0  0  0
  -24.1821  -13.0443   20.9195 C   0  0  0  0  0  0
  -24.6402  -11.6919   20.8742 C   0  0  0  0  0  0
  -23.9077  -10.4299   21.0403 C   0  0  0  0  0  0
  -24.3626   -9.4212   21.9180 C   0  0  0  0  0  0
  -23.6303   -8.2246   22.0751 C   0  0  0  0  0  0
  -22.4286   -8.0286   21.3543 C   0  0  0  0  0  0
  -21.9920   -9.0257   20.4641 C   0  0  0  0  0  0
  -22.7248  -10.2135   20.3050 C   0  0  0  0  0  0
  -21.6856   -6.0739   22.5283 C   0  0  0  0  0  0
  -21.4009   -6.5640   23.8215 C   0  0  0  0  0  0
  -21.3658   -5.6793   24.9177 C   0  0  0  0  0  0
  -21.6046   -4.3058   24.7228 C   0  0  0  0  0  0
  -21.8820   -3.8148   23.4350 C   0  0  0  0  0  0
  -21.9195   -4.6964   22.3407 C   0  0  0  0  0  0
  -22.7844  -13.5224   21.1860 C   0  0  0  0  0  0
  -22.1666   -4.2149   21.0988 F   0  0  0  0  0  0
  -21.5628   -3.4540   25.7740 F   0  0  0  0  0  0
  -29.9998  -13.4650   20.4186 N   0  0  0  0  0  0
  -26.2960  -12.9385   20.3283 N   0  0  0  0  0  0
  -25.9329  -11.6535   20.5748 N   0  0  0  0  0  0
  -22.0483  -12.8212   22.0410 N   0  0  0  0  0  0
  -25.4256  -15.1913   20.4109 N   0  0  0  0  0  0
  -31.8044  -14.7935   20.1240 O   0  0  0  0  0  0
  -21.6650   -6.8882   21.4244 O   0  0  0  0  0  0
  -22.3531  -14.5537   20.6716 O   0  0  0  0  0  0
  -24.6270  -31.8579   23.2000 C   0  0  0  0  0  0
  -25.9114  -32.4766   23.8337 C   0  0  1  0  0  0
  -27.2285  -27.3061   20.1083 C   0  0  0  0  0  0
  -25.5923  -33.8569   24.2265 N   0  0  0  0  0  0
  -23.4213  -30.4799   21.5433 C   0  0  2  0  0  0
  -24.8672  -28.9311   20.1075 C   0  0  0  0  0  0
  -22.7479  -29.4612   22.4935 C   0  0  0  0  0  0
  -18.0281  -28.1393   22.8488 C   0  0  0  0  0  0
  -24.1486  -36.7278   23.2637 C   0  0  0  0  0  0
  -25.9623  -30.7839   21.3712 C   0  0  0  0  0  0
  -26.0354  -29.4091   20.7138 C   0  0  0  0  0  0
  -27.2139  -28.6046   20.7108 C   0  0  0  0  0  0
  -26.0306  -26.8744   19.4948 C   0  0  0  0  0  0
  -24.8668  -27.6692   19.4925 C   0  0  0  0  0  0
  -23.6352  -29.8122   20.1588 C   0  0  0  0  0  0
  -25.4110  -36.3075   24.0332 C   0  0  1  0  0  0
  -20.5886  -28.3689   23.1293 C   0  0  2  0  0  0
  -20.6768  -26.9413   22.5420 C   0  0  0  0  0  0
  -19.5747  -26.6393   21.5216 C   0  0  0  0  0  0
  -18.1923  -26.7944   22.1618 C   0  0  0  0  0  0
  -19.1536  -28.8857   23.2886 C   0  0  0  0  0  0
  -18.9459  -30.1457   23.8900 C   0  0  0  0  0  0
  -17.6456  -30.6593   24.0563 C   0  0  0  0  0  0
  -25.9051  -34.9447   23.5098 C   0  0  0  0  0  0
  -16.5347  -29.9091   23.6338 C   0  0  0  0  0  0
  -16.7271  -28.6508   23.0354 C   0  0  0  0  0  0
  -26.4494  -31.6583   25.0713 C   0  0  0  0  0  0
  -25.3728  -31.3727   26.1443 C   0  0  0  0  0  0
  -27.0323  -30.3002   24.6166 C   0  0  0  0  0  0
  -27.6065  -32.4302   25.7482 C   0  0  0  0  0  0
  -27.5582  -37.1783   24.8458 C   0  0  0  0  0  0
  -21.4192  -29.3037   22.3683 N   0  0  0  0  0  0
  -26.4278  -37.3781   23.9427 N   0  0  0  0  0  0
  -24.6893  -31.0580   22.0951 N   0  0  0  0  0  0
  -23.4200  -28.8155   23.3017 O   0  0  0  0  0  0
  -28.3524  -26.4643   20.1915 O   0  0  0  0  0  0
  -26.5623  -34.8925   22.4665 O   0  0  0  0  0  0
  -23.5430  -32.1380   23.7321 O   0  0  0  0  0  0
  -31.2223  -17.7756   19.9262 C   0  0  0  0  0  0
  -30.1362  -17.1455   20.4929 C   0  0  0  0  0  0
  -29.8163  -19.4005   20.4374 C   0  0  0  0  0  0
  -28.1303  -22.7871   19.0684 C   0  0  0  0  0  0
  -28.6439  -23.8133   19.7937 C   0  0  0  0  0  0
  -28.3082  -21.2622   19.3134 C   0  0  0  0  0  0
  -29.4829  -23.4338   21.0153 C   0  0  0  0  0  0
  -30.0856  -21.9733   20.9615 C   0  0  0  0  0  0
  -29.1179  -20.8038   20.5695 C   0  0  2  0  0  0
  -28.5497  -25.3130   19.2844 C   0  0  0  0  0  0
  -31.0003  -19.1574   19.8672 N   0  0  0  0  0  0
  -29.8504  -15.8000   20.7358 N   0  0  0  0  0  0
  -29.2272  -18.1899   20.7970 O   0  0  0  0  0  0
  -31.4748  -12.5347   19.1651 H   0  0  0  0  0  0
  -30.3672  -11.4318   19.9302 H   0  0  0  0  0  0
  -29.7829  -11.7404   17.5017 H   0  0  0  0  0  0
  -29.6484  -13.4663   17.7354 H   0  0  0  0  0  0
  -27.8777  -11.2862   18.8891 H   0  0  0  0  0  0
  -27.3801  -12.5490   17.7953 H   0  0  0  0  0  0
  -27.6530  -14.2522   19.4903 H   0  0  0  0  0  0
  -28.7099  -12.1201   21.4129 H   0  0  0  0  0  0
  -28.4312  -13.7951   21.8137 H   0  0  0  0  0  0
  -25.2772   -9.5689   22.4752 H   0  0  0  0  0  0
  -24.0014   -7.4634   22.7464 H   0  0  0  0  0  0
  -21.0854   -8.8776   19.8943 H   0  0  0  0  0  0
  -22.3715  -10.9672   19.6154 H   0  0  0  0  0  0
  -21.2000   -7.6145   23.9718 H   0  0  0  0  0  0
  -21.1475   -6.0523   25.9081 H   0  0  0  0  0  0
  -22.0599   -2.7610   23.2854 H   0  0  0  0  0  0
  -22.4095  -11.9862   22.4785 H   0  0  0  0  0  0
  -21.1095  -13.1227   22.2604 H   0  0  0  0  0  0
  -24.6585  -15.8455   20.5218 H   0  0  0  0  0  0
  -26.2724  -15.6305   20.0721 H   0  0  0  0  0  0
  -26.7186  -32.5432   23.1090 H   0  0  0  0  0  0
  -25.0083  -33.9713   25.0416 H   0  0  0  0  0  0
  -22.7162  -31.3014   21.4003 H   0  0  0  0  0  0
  -23.3767  -35.9588   23.3265 H   0  0  0  0  0  0
  -24.3588  -36.8928   22.2059 H   0  0  0  0  0  0
  -23.7209  -37.6457   23.6678 H   0  0  0  0  0  0
  -26.0945  -31.5455   20.6012 H   0  0  0  0  0  0
  -26.8430  -30.8342   22.0002 H   0  0  0  0  0  0
  -28.1088  -28.9651   21.1981 H   0  0  0  0  0  0
  -25.9507  -25.8932   19.0519 H   0  0  0  0  0  0
  -23.9661  -27.2913   19.0284 H   0  0  0  0  0  0
  -23.7526  -30.5875   19.4011 H   0  0  0  0  0  0
  -22.7544  -29.2410   19.8595 H   0  0  0  0  0  0
  -25.1287  -36.1913   25.0824 H   0  0  0  0  0  0
  -20.9983  -28.3260   24.1411 H   0  0  0  0  0  0
  -20.5664  -26.2298   23.3617 H   0  0  0  0  0  0
  -21.6635  -26.7440   22.1212 H   0  0  0  0  0  0
  -19.6903  -25.6305   21.1243 H   0  0  0  0  0  0
  -19.6694  -27.3206   20.6752 H   0  0  0  0  0  0
  -17.4203  -26.6708   21.4008 H   0  0  0  0  0  0
  -18.0299  -26.0085   22.9009 H   0  0  0  0  0  0
  -19.7931  -30.7270   24.2279 H   0  0  0  0  0  0
  -17.5012  -31.6277   24.5152 H   0  0  0  0  0  0
  -15.5346  -30.2983   23.7674 H   0  0  0  0  0  0
  -15.8672  -28.0828   22.7070 H   0  0  0  0  0  0
  -24.5915  -30.7060   25.7776 H   0  0  0  0  0  0
  -24.8908  -32.2893   26.4852 H   0  0  0  0  0  0
  -25.8055  -30.8923   27.0229 H   0  0  0  0  0  0
  -26.2886  -29.6757   24.1203 H   0  0  0  0  0  0
  -27.4031  -29.7253   25.4663 H   0  0  0  0  0  0
  -27.8758  -30.4281   23.9378 H   0  0  0  0  0  0
  -27.2708  -33.3632   26.2024 H   0  0  0  0  0  0
  -28.3902  -32.6802   25.0317 H   0  0  0  0  0  0
  -28.0704  -31.8438   26.5425 H   0  0  0  0  0  0
  -28.2567  -38.0111   24.7552 H   0  0  0  0  0  0
  -28.1109  -36.2646   24.6216 H   0  0  0  0  0  0
  -27.2316  -37.1346   25.8862 H   0  0  0  0  0  0
  -20.9370  -29.8757   21.6891 H   0  0  0  0  0  0
  -26.0151  -38.2846   24.1458 H   0  0  0  0  0  0
  -32.1360  -17.3453   19.5391 H   0  0  0  0  0  0
  -27.5863  -23.0281   18.1653 H   0  0  0  0  0  0
  -28.8287  -20.8927   18.4291 H   0  0  0  0  0  0
  -27.3328  -20.7751   19.3049 H   0  0  0  0  0  0
  -28.8588  -23.5556   21.9012 H   0  0  0  0  0  0
  -30.2961  -24.1541   21.1108 H   0  0  0  0  0  0
  -30.5542  -21.7444   21.9194 H   0  0  0  0  0  0
  -30.9007  -21.9820   20.2363 H   0  0  0  0  0  0
  -28.4039  -20.7112   21.3885 H   0  0  0  0  0  0
  -27.8900  -25.3582   18.4193 H   0  0  0  0  0  0
  -29.5306  -25.5003   18.8482 H   0  0  0  0  0  0
  -28.9124  -15.6023   21.0480 H   0  0  0  0  0  0
  1 25  1  0  0  0
  1 30  2  0  0  0
  1 82  1  0  0  0
  2  3  1  0  0  0
  2 25  1  0  0  0
  2 84  1  0  0  0
  2 85  1  0  0  0
  3  4  1  0  0  0
  3 86  1  0  0  0
  3 87  1  0  0  0
  4  5  1  0  0  0
  4 88  1  0  0  0
  4 89  1  0  0  0
  5  6  1  0  0  0
  5 26  1  0  0  0
  5 90  1  0  0  0
  6 25  1  0  0  0
  6 91  1  0  0  0
  6 92  1  0  0  0
  7  8  2  0  0  0
  7 26  1  0  0  0
  7 29  1  0  0  0
  8  9  1  0  0  0
  8 22  1  0  0  0
  9 10  1  0  0  0
  9 27  2  0  0  0
 10 11  2  0  0  0
 10 15  1  0  0  0
 11 12  1  0  0  0
 11 93  1  0  0  0
 12 13  2  0  0  0
 12 94  1  0  0  0
 13 14  1  0  0  0
 13 31  1  0  0  0
 14 15  2  0  0  0
 14 95  1  0  0  0
 15 96  1  0  0  0
 16 17  2  0  0  0
 16 21  1  0  0  0
 16 31  1  0  0  0
 17 18  1  0  0  0
 17 97  1  0  0  0
 18 19  2  0  0  0
 18 98  1  0  0  0
 19 20  1  0  0  0
 19 24  1  0  0  0
 20 21  2  0  0  0
 20 99  1  0  0  0
 21 23  1  0  0  0
 22 28  1  0  0  0
 22 32  2  0  0  0
 26 27  1  0  0  0
 28100  1  0  0  0
 28101  1  0  0  0
 29102  1  0  0  0
 29103  1  0  0  0
 33 34  1  0  0  0
 33 66  1  0  0  0
 33 70  2  0  0  0
 34 36  1  0  0  0
 34 59  1  0  0  0
 34104  1  0  0  0
 35 44  2  0  0  0
 35 45  1  0  0  0
 35 68  1  0  0  0
 36 56  1  0  0  0
 36105  1  0  0  0
 37 39  1  0  0  0
 37 47  1  0  0  0
 37 66  1  0  0  0
 37106  1  0  0  0
 38 43  2  0  0  0
 38 46  1  0  0  0
 38 47  1  0  0  0
 39 64  1  0  0  0
 39 67  2  0  0  0
 40 52  1  0  0  0
 40 53  2  0  0  0
 40 58  1  0  0  0
 41107  1  0  0  0
 41108  1  0  0  0
 41109  1  0  0  0
 41 48  1  0  0  0
 42 43  1  0  0  0
 42 66  1  0  0  0
 42110  1  0  0  0
 42111  1  0  0  0
 43 44  1  0  0  0
 44112  1  0  0  0
 45 46  2  0  0  0
 45113  1  0  0  0
 46114  1  0  0  0
 47115  1  0  0  0
 47116  1  0  0  0
 48 56  1  0  0  0
 48 65  1  0  0  0
 48117  1  0  0  0
 49 50  1  0  0  0
 49 53  1  0  0  0
 49 64  1  0  0  0
 49118  1  0  0  0
 50 51  1  0  0  0
 50119  1  0  0  0
 50120  1  0  0  0
 51 52  1  0  0  0
 51121  1  0  0  0
 51122  1  0  0  0
 52123  1  0  0  0
 52124  1  0  0  0
 53 54  1  0  0  0
 54 55  2  0  0  0
 54125  1  0  0  0
 55 57  1  0  0  0
 55126  1  0  0  0
 56 69  2  0  0  0
 57 58  2  0  0  0
 57127  1  0  0  0
 58128  1  0  0  0
 59 60  1  0  0  0
 59 61  1  0  0  0
 59 62  1  0  0  0
 60129  1  0  0  0
 60130  1  0  0  0
 60131  1  0  0  0
 61132  1  0  0  0
 61133  1  0  0  0
 61134  1  0  0  0
 62135  1  0  0  0
 62136  1  0  0  0
 62137  1  0  0  0
 63 65  1  0  0  0
 63138  1  0  0  0
 63139  1  0  0  0
 63140  1  0  0  0
 64141  1  0  0  0
 65142  1  0  0  0
 68 80  1  0  0  0
 71 72  2  0  0  0
 71 81  1  0  0  0
 71143  1  0  0  0
 72 82  1  0  0  0
 72 83  1  0  0  0
 73 81  2  0  0  0
 73 83  1  0  0  0
 73 79  1  0  0  0
 74 75  2  0  0  0
 74 76  1  0  0  0
 74144  1  0  0  0
 75 77  1  0  0  0
 75 80  1  0  0  0
 76 79  1  0  0  0
 76145  1  0  0  0
 76146  1  0  0  0
 77 78  1  0  0  0
 77147  1  0  0  0
 77148  1  0  0  0
 78 79  1  0  0  0
 78149  1  0  0  0
 78150  1  0  0  0
 79151  1  0  0  0
 80152  1  0  0  0
 80153  1  0  0  0
 82154  1  0  0  0
M  ISO  4   1 100  68 101  80 101  82 100
M  END
> <chiral flag>
0

> <version>
0

> <s_m_source_file>
/data/baiqing/PycharmProjects/Reinvent-master-3.2/result/LINK_invent/BTK/process_docking_weight1_custom_product_contain_oxygen_bond_distance_aromatic_linkinvent_7_9_3/rearranged_h_0161.sdf

> <i_m_source_file_index>
8

> <r_mmod_Potential_Energy-OPLS-2005>
83.7747650146484

> <r_mmod_Stretch_Energy-OPLS-2005>
89.0426483154297

> <r_mmod_Bend_Energy-OPLS-2005>
158.316177368164

> <r_mmod_Torsional_Energy-OPLS-2005>
216.932220458984

> <r_mmod_Improper_Torsional_Energy-OPLS-2005>
5.10360622406006

> <r_mmod_Van_der_Waal_Energy-OPLS-2005>
126.821075439453

> <r_mmod_Electrostatic_Energy-OPLS-2005>
-359.512603759766

> <r_mmod_Solvation_Energy-OPLS-2005>
-213.589157104492

> <b_mmod_Minimization_Converged-OPLS-2005>
0

> <r_mmod_RMS_Derivative-OPLS-2005>
1.01303124427795

$$$$
8
                    3D
 Structure written by MMmdl.
164172  0  0  1  0            999 V2000
  -30.5380  -14.9240   20.4133 C   0  0  0  0  0  0
  -30.4405  -12.5651   19.5041 C   0  0  0  0  0  0
  -29.5209  -12.5320   18.2598 C   0  0  0  0  0  0
  -28.0498  -12.3279   18.6694 C   0  0  0  0  0  0
  -27.6372  -13.2448   19.8494 C   0  0  2  0  0  0
  -28.6793  -13.2459   20.9904 C   0  0  0  0  0  0
  -25.2499  -13.8242   20.5773 C   0  0  0  0  0  0
  -24.1778  -13.0470   20.9197 C   0  0  0  0  0  0
  -24.6371  -11.6948   20.8729 C   0  0  0  0  0  0
  -23.9069  -10.4291   21.0373 C   0  0  0  0  0  0
  -24.3602   -9.4196   21.9141 C   0  0  0  0  0  0
  -23.6274   -8.2235   22.0721 C   0  0  0  0  0  0
  -22.4260   -8.0267   21.3521 C   0  0  0  0  0  0
  -21.9897   -9.0241   20.4627 C   0  0  0  0  0  0
  -22.7227  -10.2112   20.3031 C   0  0  0  0  0  0
  -21.6855   -6.0723   22.5281 C   0  0  0  0  0  0
  -21.4007   -6.5626   23.8207 C   0  0  0  0  0  0
  -21.3663   -5.6771   24.9151 C   0  0  0  0  0  0
  -21.6050   -4.3041   24.7208 C   0  0  0  0  0  0
  -21.8818   -3.8132   23.4329 C   0  0  0  0  0  0
  -21.9181   -4.6955   22.3385 C   0  0  0  0  0  0
  -22.7787  -13.5250   21.1850 C   0  0  0  0  0  0
  -22.1652   -4.2143   21.0961 F   0  0  0  0  0  0
  -21.5634   -3.4524   25.7719 F   0  0  0  0  0  0
  -29.9658  -13.6534   20.4058 N   0  0  0  0  0  0
  -26.2911  -12.9461   20.3302 N   0  0  0  0  0  0
  -25.9307  -11.6596   20.5740 N   0  0  0  0  0  0
  -22.0429  -12.8272   22.0440 N   0  0  0  0  0  0
  -25.4211  -15.1977   20.4306 N   0  0  0  0  0  0
  -31.7168  -15.0201   20.0494 O   0  0  0  0  0  0
  -21.6629   -6.8866   21.4235 O   0  0  0  0  0  0
  -22.3491  -14.5545   20.6684 O   0  0  0  0  0  0
  -24.6428  -31.8447   23.1904 C   0  0  0  0  0  0
  -25.9210  -32.4692   23.8266 C   0  0  1  0  0  0
  -27.2188  -27.1386   20.1595 C   0  0  0  0  0  0
  -25.5964  -33.8489   24.2186 N   0  0  0  0  0  0
  -23.4468  -30.4614   21.5365 C   0  0  2  0  0  0
  -24.8995  -28.8837   20.1194 C   0  0  0  0  0  0
  -22.7581  -29.4508   22.4890 C   0  0  0  0  0  0
  -18.0325  -28.1349   22.8504 C   0  0  0  0  0  0
  -24.1496  -36.7249   23.2638 C   0  0  0  0  0  0
  -26.0035  -30.7160   21.3920 C   0  0  0  0  0  0
  -26.0774  -29.3241   20.7401 C   0  0  0  0  0  0
  -27.2414  -28.4651   20.7492 C   0  0  0  0  0  0
  -26.0184  -26.7953   19.5089 C   0  0  0  0  0  0
  -24.8776  -27.6261   19.4947 C   0  0  0  0  0  0
  -23.6770  -29.7883   20.1579 C   0  0  0  0  0  0
  -25.4134  -36.3035   24.0323 C   0  0  1  0  0  0
  -20.5947  -28.3659   23.1253 C   0  0  2  0  0  0
  -20.6805  -26.9365   22.5406 C   0  0  0  0  0  0
  -19.5780  -26.6358   21.5204 C   0  0  0  0  0  0
  -18.1961  -26.7899   22.1623 C   0  0  0  0  0  0
  -19.1587  -28.8832   23.2864 C   0  0  0  0  0  0
  -18.9504  -30.1444   23.8867 C   0  0  0  0  0  0
  -17.6500  -30.6556   24.0564 C   0  0  0  0  0  0
  -25.9080  -34.9403   23.5059 C   0  0  0  0  0  0
  -16.5389  -29.9049   23.6333 C   0  0  0  0  0  0
  -16.7311  -28.6462   23.0363 C   0  0  0  0  0  0
  -26.4540  -31.6548   25.0709 C   0  0  0  0  0  0
  -25.3719  -31.3746   26.1399 C   0  0  0  0  0  0
  -27.0386  -30.2938   24.6282 C   0  0  0  0  0  0
  -27.6074  -32.4303   25.7475 C   0  0  0  0  0  0
  -27.5585  -37.1786   24.8464 C   0  0  0  0  0  0
  -21.4282  -29.2999   22.3640 N   0  0  0  0  0  0
  -26.4294  -37.3760   23.9419 N   0  0  0  0  0  0
  -24.7165  -31.0292   22.0935 N   0  0  0  0  0  0
  -23.4239  -28.8060   23.3031 O   0  0  0  0  0  0
  -28.2487  -26.1325   20.1145 O   0  0  0  0  0  0
  -26.5650  -34.8900   22.4627 O   0  0  0  0  0  0
  -23.5540  -32.1306   23.7115 O   0  0  0  0  0  0
  -29.1467  -17.7790   19.0463 C   0  0  0  0  0  0
  -28.8505  -19.2016   19.0469 C   0  0  0  0  0  0
  -29.6869  -17.4245   20.2637 C   0  0  0  0  0  0
  -29.2691  -19.7872   20.2234 C   0  0  0  0  0  0
  -28.2057  -24.9836   20.9984 C   0  0  0  0  0  0
  -28.4510  -23.5712   21.0503 C   0  0  0  0  0  0
  -28.8244  -22.4292   20.0814 C   0  0  0  0  0  0
  -24.4101  -18.9119   18.1424 C   0  0  0  0  0  0
  -25.8014  -19.8839   19.9589 C   0  0  0  0  0  0
  -25.3073  -21.2380   17.8968 C   0  0  0  0  0  0
  -26.8507  -19.2352   17.6896 C   0  0  0  0  0  0
  -25.6157  -19.8249   18.4280 C   0  0  0  0  0  0
  -28.1296  -19.8591   18.0387 N   0  0  0  0  0  0
  -29.0761  -21.1499   20.6633 N   0  0  0  0  0  0
  -29.7636  -16.0671   20.7406 N   0  0  0  0  0  0
  -28.8862  -22.5868   18.8616 O   0  0  0  0  0  0
  -29.7188  -18.6610   21.0182 O   0  0  0  0  0  0
  -28.3036  -23.0897   22.2974 O   0  0  0  0  0  0
  -31.4738  -12.7147   19.1888 H   0  0  0  0  0  0
  -30.4257  -11.6083   20.0286 H   0  0  0  0  0  0
  -29.8298  -11.7369   17.5796 H   0  0  0  0  0  0
  -29.6226  -13.4658   17.7051 H   0  0  0  0  0  0
  -27.9317  -11.2822   18.9556 H   0  0  0  0  0  0
  -27.3877  -12.4851   17.8164 H   0  0  0  0  0  0
  -27.6124  -14.2516   19.4371 H   0  0  0  0  0  0
  -28.7594  -12.2628   21.4603 H   0  0  0  0  0  0
  -28.3778  -13.9377   21.7774 H   0  0  0  0  0  0
  -25.2712   -9.5682   22.4733 H   0  0  0  0  0  0
  -23.9990   -7.4629   22.7444 H   0  0  0  0  0  0
  -21.0829   -8.8767   19.8930 H   0  0  0  0  0  0
  -22.3683  -10.9653   19.6162 H   0  0  0  0  0  0
  -21.2021   -7.6131   23.9731 H   0  0  0  0  0  0
  -21.1491   -6.0477   25.9076 H   0  0  0  0  0  0
  -22.0608   -2.7613   23.2826 H   0  0  0  0  0  0
  -22.4072  -11.9962   22.4855 H   0  0  0  0  0  0
  -21.1017  -13.1260   22.2594 H   0  0  0  0  0  0
  -24.6584  -15.8503   20.5788 H   0  0  0  0  0  0
  -26.2879  -15.6544   20.1776 H   0  0  0  0  0  0
  -26.7268  -32.5311   23.0984 H   0  0  0  0  0  0
  -25.0164  -33.9596   25.0357 H   0  0  0  0  0  0
  -22.7475  -31.2857   21.3811 H   0  0  0  0  0  0
  -23.3780  -35.9554   23.3275 H   0  0  0  0  0  0
  -24.3578  -36.8890   22.2056 H   0  0  0  0  0  0
  -23.7215  -37.6428   23.6667 H   0  0  0  0  0  0
  -26.1610  -31.4675   20.6176 H   0  0  0  0  0  0
  -26.8726  -30.7689   22.0340 H   0  0  0  0  0  0
  -28.1454  -28.7950   21.2425 H   0  0  0  0  0  0
  -25.9545  -25.8332   19.0213 H   0  0  0  0  0  0
  -23.9790  -27.2787   19.0009 H   0  0  0  0  0  0
  -23.8172  -30.5591   19.4005 H   0  0  0  0  0  0
  -22.7909  -29.2331   19.8474 H   0  0  0  0  0  0
  -25.1319  -36.1865   25.0817 H   0  0  0  0  0  0
  -21.0045  -28.3226   24.1376 H   0  0  0  0  0  0
  -20.5662  -26.2265   23.3613 H   0  0  0  0  0  0
  -21.6681  -26.7336   22.1238 H   0  0  0  0  0  0
  -19.6934  -25.6273   21.1213 H   0  0  0  0  0  0
  -19.6716  -27.3184   20.6748 H   0  0  0  0  0  0
  -17.4233  -26.6689   21.4007 H   0  0  0  0  0  0
  -18.0320  -26.0001   22.8971 H   0  0  0  0  0  0
  -19.7978  -30.7283   24.2199 H   0  0  0  0  0  0
  -17.5055  -31.6244   24.5168 H   0  0  0  0  0  0
  -15.5390  -30.2941   23.7680 H   0  0  0  0  0  0
  -15.8725  -28.0770   22.7064 H   0  0  0  0  0  0
  -24.5940  -30.7035   25.7745 H   0  0  0  0  0  0
  -24.8874  -32.2930   26.4720 H   0  0  0  0  0  0
  -25.8024  -30.9015   27.0236 H   0  0  0  0  0  0
  -26.3001  -29.6678   24.1275 H   0  0  0  0  0  0
  -27.3972  -29.7223   25.4858 H   0  0  0  0  0  0
  -27.8920  -30.4170   23.9614 H   0  0  0  0  0  0
  -27.2692  -33.3641   26.1967 H   0  0  0  0  0  0
  -28.3922  -32.6792   25.0322 H   0  0  0  0  0  0
  -28.0691  -31.8480   26.5453 H   0  0  0  0  0  0
  -28.2598  -38.0095   24.7538 H   0  0  0  0  0  0
  -28.1092  -36.2627   24.6260 H   0  0  0  0  0  0
  -27.2303  -37.1391   25.8866 H   0  0  0  0  0  0
  -20.9461  -29.8778   21.6908 H   0  0  0  0  0  0
  -26.0162  -38.2820   24.1429 H   0  0  0  0  0  0
  -28.8971  -17.0749   18.2658 H   0  0  0  0  0  0
  -27.9165  -25.4032   21.9525 H   0  0  0  0  0  0
  -23.5007  -19.2786   18.6208 H   0  0  0  0  0  0
  -24.5858  -17.8997   18.5120 H   0  0  0  0  0  0
  -24.2067  -18.8352   17.0747 H   0  0  0  0  0  0
  -24.8725  -20.1461   20.4638 H   0  0  0  0  0  0
  -26.5233  -20.6428   20.2443 H   0  0  0  0  0  0
  -26.1371  -18.9298   20.3637 H   0  0  0  0  0  0
  -24.4692  -21.6901   18.4278 H   0  0  0  0  0  0
  -25.0442  -21.2160   16.8386 H   0  0  0  0  0  0
  -26.1622  -21.9047   18.0077 H   0  0  0  0  0  0
  -26.7056  -19.3358   16.6126 H   0  0  0  0  0  0
  -26.8902  -18.1590   17.8599 H   0  0  0  0  0  0
  -28.0840  -20.8694   18.1779 H   0  0  0  0  0  0
  -29.0897  -21.2483   21.6703 H   0  0  0  0  0  0
  -28.9262  -15.7853   21.2264 H   0  0  0  0  0  0
  -28.0953  -23.8174   22.8674 H   0  0  0  0  0  0
  1 25  1  0  0  0
  1 30  2  0  0  0
  1 85  1  0  0  0
  2  3  1  0  0  0
  2 25  1  0  0  0
  2 89  1  0  0  0
  2 90  1  0  0  0
  3  4  1  0  0  0
  3 91  1  0  0  0
  3 92  1  0  0  0
  4  5  1  0  0  0
  4 93  1  0  0  0
  4 94  1  0  0  0
  5  6  1  0  0  0
  5 26  1  0  0  0
  5 95  1  0  0  0
  6 25  1  0  0  0
  6 96  1  0  0  0
  6 97  1  0  0  0
  7  8  2  0  0  0
  7 26  1  0  0  0
  7 29  1  0  0  0
  8  9  1  0  0  0
  8 22  1  0  0  0
  9 10  1  0  0  0
  9 27  2  0  0  0
 10 11  2  0  0  0
 10 15  1  0  0  0
 11 12  1  0  0  0
 11 98  1  0  0  0
 12 13  2  0  0  0
 12 99  1  0  0  0
 13 14  1  0  0  0
 13 31  1  0  0  0
 14 15  2  0  0  0
 14100  1  0  0  0
 15101  1  0  0  0
 16 17  2  0  0  0
 16 21  1  0  0  0
 16 31  1  0  0  0
 17 18  1  0  0  0
 17102  1  0  0  0
 18 19  2  0  0  0
 18103  1  0  0  0
 19 20  1  0  0  0
 19 24  1  0  0  0
 20 21  2  0  0  0
 20104  1  0  0  0
 21 23  1  0  0  0
 22 28  1  0  0  0
 22 32  2  0  0  0
 26 27  1  0  0  0
 28105  1  0  0  0
 28106  1  0  0  0
 29107  1  0  0  0
 29108  1  0  0  0
 33 34  1  0  0  0
 33 66  1  0  0  0
 33 70  2  0  0  0
 34 36  1  0  0  0
 34 59  1  0  0  0
 34109  1  0  0  0
 35 44  2  0  0  0
 35 45  1  0  0  0
 35 68  1  0  0  0
 36 56  1  0  0  0
 36110  1  0  0  0
 37 39  1  0  0  0
 37 47  1  0  0  0
 37 66  1  0  0  0
 37111  1  0  0  0
 38 43  2  0  0  0
 38 46  1  0  0  0
 38 47  1  0  0  0
 39 64  1  0  0  0
 39 67  2  0  0  0
 40 52  1  0  0  0
 40 53  2  0  0  0
 40 58  1  0  0  0
 41112  1  0  0  0
 41113  1  0  0  0
 41114  1  0  0  0
 41 48  1  0  0  0
 42 43  1  0  0  0
 42 66  1  0  0  0
 42115  1  0  0  0
 42116  1  0  0  0
 43 44  1  0  0  0
 44117  1  0  0  0
 45 46  2  0  0  0
 45118  1  0  0  0
 46119  1  0  0  0
 47120  1  0  0  0
 47121  1  0  0  0
 48 56  1  0  0  0
 48 65  1  0  0  0
 48122  1  0  0  0
 49 50  1  0  0  0
 49 53  1  0  0  0
 49 64  1  0  0  0
 49123  1  0  0  0
 50 51  1  0  0  0
 50124  1  0  0  0
 50125  1  0  0  0
 51 52  1  0  0  0
 51126  1  0  0  0
 51127  1  0  0  0
 52128  1  0  0  0
 52129  1  0  0  0
 53 54  1  0  0  0
 54 55  2  0  0  0
 54130  1  0  0  0
 55 57  1  0  0  0
 55131  1  0  0  0
 56 69  2  0  0  0
 57 58  2  0  0  0
 57132  1  0  0  0
 58133  1  0  0  0
 59 60  1  0  0  0
 59 61  1  0  0  0
 59 62  1  0  0  0
 60134  1  0  0  0
 60135  1  0  0  0
 60136  1  0  0  0
 61137  1  0  0  0
 61138  1  0  0  0
 61139  1  0  0  0
 62140  1  0  0  0
 62141  1  0  0  0
 62142  1  0  0  0
 63 65  1  0  0  0
 63143  1  0  0  0
 63144  1  0  0  0
 63145  1  0  0  0
 64146  1  0  0  0
 65147  1  0  0  0
 68 75  1  0  0  0
 71 72  1  0  0  0
 71 73  2  0  0  0
 71148  1  0  0  0
 72 74  2  0  0  0
 72 83  1  0  0  0
 73 85  1  0  0  0
 73 87  1  0  0  0
 74 84  1  0  0  0
 74 87  1  0  0  0
 75 76  2  0  0  0
 75149  1  0  0  0
 76 77  1  0  0  0
 76 88  1  0  0  0
 77 84  1  0  0  0
 77 86  2  0  0  0
 78150  1  0  0  0
 78151  1  0  0  0
 78152  1  0  0  0
 78 82  1  0  0  0
 79 82  1  0  0  0
 79153  1  0  0  0
 79154  1  0  0  0
 79155  1  0  0  0
 80 82  1  0  0  0
 80156  1  0  0  0
 80157  1  0  0  0
 80158  1  0  0  0
 81 82  1  0  0  0
 81 83  1  0  0  0
 81159  1  0  0  0
 81160  1  0  0  0
 83161  1  0  0  0
 84162  1  0  0  0
 85163  1  0  0  0
 88164  1  0  0  0
M  ISO  4   1 100  68 101  75 101  85 100
M  END
> <chiral flag>
0

> <version>
0

> <s_m_source_file>
/data/baiqing/PycharmProjects/Reinvent-master-3.2/result/LINK_invent/BTK/process_docking_weight1_custom_product_contain_oxygen_bond_distance_aromatic_linkinvent_7_9_3/rearranged_h_0161.sdf

> <i_m_source_file_index>
9

> <r_mmod_Potential_Energy-OPLS-2005>
404.511108398438

> <r_mmod_Stretch_Energy-OPLS-2005>
211.211181640625

> <r_mmod_Bend_Energy-OPLS-2005>
333.906372070312

> <r_mmod_Torsional_Energy-OPLS-2005>
294.101715087891

> <r_mmod_Improper_Torsional_Energy-OPLS-2005>
12.7491588592529

> <r_mmod_Van_der_Waal_Energy-OPLS-2005>
111.335174560547

> <r_mmod_Electrostatic_Energy-OPLS-2005>
-503.5078125

> <r_mmod_Solvation_Energy-OPLS-2005>
-238.182067871094

> <b_mmod_Minimization_Converged-OPLS-2005>
0

> <r_mmod_RMS_Derivative-OPLS-2005>
3.72710108757019

$$$$
9
                    3D
 Structure written by MMmdl.
161169  0  0  1  0            999 V2000
  -30.6371  -14.5792   20.4655 C   0  0  0  0  0  0
  -30.4196  -12.3351   19.4535 C   0  0  0  0  0  0
  -29.5050  -12.5035   18.2243 C   0  0  0  0  0  0
  -28.0238  -12.3566   18.6279 C   0  0  0  0  0  0
  -27.6548  -13.2140   19.8714 C   0  0  2  0  0  0
  -28.6993  -13.0393   20.9938 C   0  0  0  0  0  0
  -25.2572  -13.8163   20.5730 C   0  0  0  0  0  0
  -24.1837  -13.0415   20.9184 C   0  0  0  0  0  0
  -24.6402  -11.6895   20.8694 C   0  0  0  0  0  0
  -23.9067  -10.4292   21.0409 C   0  0  0  0  0  0
  -24.3617   -9.4200   21.9191 C   0  0  0  0  0  0
  -23.6293   -8.2236   22.0774 C   0  0  0  0  0  0
  -22.4265   -8.0281   21.3563 C   0  0  0  0  0  0
  -21.9904   -9.0243   20.4655 C   0  0  0  0  0  0
  -22.7238  -10.2122   20.3070 C   0  0  0  0  0  0
  -21.6859   -6.0726   22.5291 C   0  0  0  0  0  0
  -21.4032   -6.5630   23.8224 C   0  0  0  0  0  0
  -21.3663   -5.6777   24.9177 C   0  0  0  0  0  0
  -21.6055   -4.3038   24.7216 C   0  0  0  0  0  0
  -21.8815   -3.8137   23.4332 C   0  0  0  0  0  0
  -21.9208   -4.6961   22.3395 C   0  0  0  0  0  0
  -22.7854  -13.5204   21.1853 C   0  0  0  0  0  0
  -22.1650   -4.2144   21.0969 F   0  0  0  0  0  0
  -21.5635   -3.4520   25.7724 F   0  0  0  0  0  0
  -30.0184  -13.3596   20.4341 N   0  0  0  0  0  0
  -26.3012  -12.9333   20.3373 N   0  0  0  0  0  0
  -25.9323  -11.6473   20.5687 N   0  0  0  0  0  0
  -22.0525  -12.8172   22.0414 N   0  0  0  0  0  0
  -25.4254  -15.1908   20.4188 N   0  0  0  0  0  0
  -31.8009  -14.7158   20.0743 O   0  0  0  0  0  0
  -21.6630   -6.8876   21.4261 O   0  0  0  0  0  0
  -22.3491  -14.5490   20.6701 O   0  0  0  0  0  0
  -24.6180  -31.8623   23.2032 C   0  0  0  0  0  0
  -25.9068  -32.4792   23.8342 C   0  0  1  0  0  0
  -27.2306  -27.3649   20.1218 C   0  0  0  0  0  0
  -25.5908  -33.8603   24.2282 N   0  0  0  0  0  0
  -23.4094  -30.4828   21.5442 C   0  0  2  0  0  0
  -24.8578  -28.9305   20.1226 C   0  0  0  0  0  0
  -22.7416  -29.4656   22.4975 C   0  0  0  0  0  0
  -18.0284  -28.1372   22.8511 C   0  0  0  0  0  0
  -24.1497  -36.7338   23.2634 C   0  0  0  0  0  0
  -25.9436  -30.8044   21.3683 C   0  0  0  0  0  0
  -26.0203  -29.4290   20.7229 C   0  0  0  0  0  0
  -27.2132  -28.6568   20.7142 C   0  0  0  0  0  0
  -26.0513  -26.8918   19.5136 C   0  0  0  0  0  0
  -24.8717  -27.6620   19.5130 C   0  0  0  0  0  0
  -23.6233  -29.8056   20.1646 C   0  0  0  0  0  0
  -25.4121  -36.3117   24.0327 C   0  0  1  0  0  0
  -20.5868  -28.3674   23.1299 C   0  0  2  0  0  0
  -20.6773  -26.9409   22.5402 C   0  0  0  0  0  0
  -19.5760  -26.6369   21.5202 C   0  0  0  0  0  0
  -18.1942  -26.7922   22.1618 C   0  0  0  0  0  0
  -19.1532  -28.8846   23.2903 C   0  0  0  0  0  0
  -18.9456  -30.1456   23.8904 C   0  0  0  0  0  0
  -17.6458  -30.6594   24.0562 C   0  0  0  0  0  0
  -25.9041  -34.9488   23.5112 C   0  0  0  0  0  0
  -16.5351  -29.9081   23.6338 C   0  0  0  0  0  0
  -16.7269  -28.6491   23.0373 C   0  0  0  0  0  0
  -26.4467  -31.6580   25.0701 C   0  0  0  0  0  0
  -25.3702  -31.3718   26.1414 C   0  0  0  0  0  0
  -27.0275  -30.3006   24.6120 C   0  0  0  0  0  0
  -27.6011  -32.4297   25.7487 C   0  0  0  0  0  0
  -27.5612  -37.1811   24.8465 C   0  0  0  0  0  0
  -21.4148  -29.3031   22.3687 N   0  0  0  0  0  0
  -26.4326  -37.3792   23.9403 N   0  0  0  0  0  0
  -24.6752  -31.0674   22.0953 N   0  0  0  0  0  0
  -23.4172  -28.8204   23.3040 O   0  0  0  0  0  0
  -28.3767  -26.5842   20.0629 O   0  0  0  0  0  0
  -26.5630  -34.8940   22.4682 O   0  0  0  0  0  0
  -23.5353  -32.1414   23.7390 O   0  0  0  0  0  0
  -30.5950  -17.4437   19.2748 C   0  0  0  0  0  0
  -30.3752  -18.8587   19.2661 C   0  0  0  0  0  0
  -29.6490  -19.2194   20.3850 C   0  0  0  0  0  0
  -29.9846  -16.9752   20.4097 C   0  0  0  0  0  0
  -29.1810  -20.5315   20.8855 C   0  0  0  0  0  0
  -28.5029  -24.0156   20.2852 C   0  0  0  0  0  0
  -30.4647  -23.2522   21.8289 C   0  0  0  0  0  0
  -30.7723  -23.5431   19.3803 C   0  0  0  0  0  0
  -30.5757  -19.2695   16.9144 C   0  0  0  0  0  0
  -28.4658  -25.4396   20.9678 C   0  0  0  0  0  0
  -29.7656  -23.0756   20.4555 C   0  0  0  0  0  0
  -30.8409  -19.7326   18.2695 N   0  0  0  0  0  0
  -29.8612  -15.6517   20.8018 N   0  0  0  0  0  0
  -29.5477  -21.6151   20.1242 N   0  0  0  0  0  0
  -27.5559  -23.6459   19.5809 O   0  0  0  0  0  0
  -29.3825  -18.0318   21.0764 O   0  0  0  0  0  0
  -28.2882  -20.6212   22.2994 S   0  0  0  0  0  0
  -31.4672  -12.4170   19.1663 H   0  0  0  0  0  0
  -30.3067  -11.3360   19.8764 H   0  0  0  0  0  0
  -29.7562  -11.7671   17.4624 H   0  0  0  0  0  0
  -29.6692  -13.4862   17.7786 H   0  0  0  0  0  0
  -27.8569  -11.2997   18.8412 H   0  0  0  0  0  0
  -27.3732  -12.6074   17.7906 H   0  0  0  0  0  0
  -27.6751  -14.2558   19.5545 H   0  0  0  0  0  0
  -28.6925  -12.0091   21.3554 H   0  0  0  0  0  0
  -28.4601  -13.6637   21.8538 H   0  0  0  0  0  0
  -25.2781   -9.5611   22.4717 H   0  0  0  0  0  0
  -24.0006   -7.4603   22.7473 H   0  0  0  0  0  0
  -21.0862   -8.8760   19.8910 H   0  0  0  0  0  0
  -22.3759  -10.9655   19.6136 H   0  0  0  0  0  0
  -21.2005   -7.6136   23.9709 H   0  0  0  0  0  0
  -21.1510   -6.0514   25.9079 H   0  0  0  0  0  0
  -22.0594   -2.7603   23.2840 H   0  0  0  0  0  0
  -22.4149  -11.9800   22.4736 H   0  0  0  0  0  0
  -21.1162  -13.1201   22.2674 H   0  0  0  0  0  0
  -24.6578  -15.8447   20.5382 H   0  0  0  0  0  0
  -26.2752  -15.6440   20.1063 H   0  0  0  0  0  0
  -26.7107  -32.5483   23.1057 H   0  0  0  0  0  0
  -24.9991  -33.9733   25.0383 H   0  0  0  0  0  0
  -22.6999  -31.3008   21.3988 H   0  0  0  0  0  0
  -23.3779  -35.9656   23.3282 H   0  0  0  0  0  0
  -24.3580  -36.8984   22.2054 H   0  0  0  0  0  0
  -23.7227  -37.6521   23.6669 H   0  0  0  0  0  0
  -26.0625  -31.5626   20.5939 H   0  0  0  0  0  0
  -26.8300  -30.8610   21.9921 H   0  0  0  0  0  0
  -28.1155  -29.0394   21.1697 H   0  0  0  0  0  0
  -26.0418  -25.9222   19.0335 H   0  0  0  0  0  0
  -23.9766  -27.2708   19.0481 H   0  0  0  0  0  0
  -23.7327  -30.5754   19.3981 H   0  0  0  0  0  0
  -22.7448  -29.2272   19.8719 H   0  0  0  0  0  0
  -25.1290  -36.1978   25.0822 H   0  0  0  0  0  0
  -20.9967  -28.3243   24.1418 H   0  0  0  0  0  0
  -20.5667  -26.2296   23.3596 H   0  0  0  0  0  0
  -21.6633  -26.7425   22.1208 H   0  0  0  0  0  0
  -19.6906  -25.6260   21.1265 H   0  0  0  0  0  0
  -19.6705  -27.3166   20.6723 H   0  0  0  0  0  0
  -17.4202  -26.6712   21.4025 H   0  0  0  0  0  0
  -18.0336  -26.0050   22.8997 H   0  0  0  0  0  0
  -19.7931  -30.7294   24.2265 H   0  0  0  0  0  0
  -17.5007  -31.6277   24.5155 H   0  0  0  0  0  0
  -15.5345  -30.2982   23.7662 H   0  0  0  0  0  0
  -15.8680  -28.0802   22.7077 H   0  0  0  0  0  0
  -24.5833  -30.7135   25.7706 H   0  0  0  0  0  0
  -24.8959  -32.2906   26.4871 H   0  0  0  0  0  0
  -25.7983  -30.8815   27.0165 H   0  0  0  0  0  0
  -26.2813  -29.6796   24.1137 H   0  0  0  0  0  0
  -27.3967  -29.7202   25.4588 H   0  0  0  0  0  0
  -27.8703  -30.4304   23.9330 H   0  0  0  0  0  0
  -27.2595  -33.3561   26.2114 H   0  0  0  0  0  0
  -28.3803  -32.6900   25.0317 H   0  0  0  0  0  0
  -28.0719  -31.8409   26.5368 H   0  0  0  0  0  0
  -28.2587  -38.0143   24.7526 H   0  0  0  0  0  0
  -28.1148  -36.2667   24.6264 H   0  0  0  0  0  0
  -27.2345  -37.1434   25.8873 H   0  0  0  0  0  0
  -20.9317  -29.8747   21.6893 H   0  0  0  0  0  0
  -26.0236  -38.2890   24.1350 H   0  0  0  0  0  0
  -31.1130  -16.8508   18.5347 H   0  0  0  0  0  0
  -30.9548  -24.2225   21.9213 H   0  0  0  0  0  0
  -31.2419  -22.5025   21.9778 H   0  0  0  0  0  0
  -29.7668  -23.1809   22.6654 H   0  0  0  0  0  0
  -31.1707  -24.5333   19.6046 H   0  0  0  0  0  0
  -30.3127  -23.5902   18.3865 H   0  0  0  0  0  0
  -31.6253  -22.8700   19.3083 H   0  0  0  0  0  0
  -30.6736  -20.1013   16.2163 H   0  0  0  0  0  0
  -29.5628  -18.8747   16.8044 H   0  0  0  0  0  0
  -31.2865  -18.4950   16.6158 H   0  0  0  0  0  0
  -29.3556  -25.5895   21.5728 H   0  0  0  0  0  0
  -27.6305  -25.4560   21.6683 H   0  0  0  0  0  0
  -31.8113  -20.0255   18.3937 H   0  0  0  0  0  0
  -28.9966  -15.4172   21.2622 H   0  0  0  0  0  0
  -29.9760  -21.3233   19.2502 H   0  0  0  0  0  0
  1 25  1  0  0  0
  1 30  2  0  0  0
  1 83  1  0  0  0
  2  3  1  0  0  0
  2 25  1  0  0  0
  2 88  1  0  0  0
  2 89  1  0  0  0
  3  4  1  0  0  0
  3 90  1  0  0  0
  3 91  1  0  0  0
  4  5  1  0  0  0
  4 92  1  0  0  0
  4 93  1  0  0  0
  5  6  1  0  0  0
  5 26  1  0  0  0
  5 94  1  0  0  0
  6 25  1  0  0  0
  6 95  1  0  0  0
  6 96  1  0  0  0
  7  8  2  0  0  0
  7 26  1  0  0  0
  7 29  1  0  0  0
  8  9  1  0  0  0
  8 22  1  0  0  0
  9 10  1  0  0  0
  9 27  2  0  0  0
 10 11  2  0  0  0
 10 15  1  0  0  0
 11 12  1  0  0  0
 11 97  1  0  0  0
 12 13  2  0  0  0
 12 98  1  0  0  0
 13 14  1  0  0  0
 13 31  1  0  0  0
 14 15  2  0  0  0
 14 99  1  0  0  0
 15100  1  0  0  0
 16 17  2  0  0  0
 16 21  1  0  0  0
 16 31  1  0  0  0
 17 18  1  0  0  0
 17101  1  0  0  0
 18 19  2  0  0  0
 18102  1  0  0  0
 19 20  1  0  0  0
 19 24  1  0  0  0
 20 21  2  0  0  0
 20103  1  0  0  0
 21 23  1  0  0  0
 22 28  1  0  0  0
 22 32  2  0  0  0
 26 27  1  0  0  0
 28104  1  0  0  0
 28105  1  0  0  0
 29106  1  0  0  0
 29107  1  0  0  0
 33 34  1  0  0  0
 33 66  1  0  0  0
 33 70  2  0  0  0
 34 36  1  0  0  0
 34 59  1  0  0  0
 34108  1  0  0  0
 35 44  2  0  0  0
 35 45  1  0  0  0
 35 68  1  0  0  0
 36 56  1  0  0  0
 36109  1  0  0  0
 37 39  1  0  0  0
 37 47  1  0  0  0
 37 66  1  0  0  0
 37110  1  0  0  0
 38 43  2  0  0  0
 38 46  1  0  0  0
 38 47  1  0  0  0
 39 64  1  0  0  0
 39 67  2  0  0  0
 40 52  1  0  0  0
 40 53  2  0  0  0
 40 58  1  0  0  0
 41111  1  0  0  0
 41112  1  0  0  0
 41113  1  0  0  0
 41 48  1  0  0  0
 42 43  1  0  0  0
 42 66  1  0  0  0
 42114  1  0  0  0
 42115  1  0  0  0
 43 44  1  0  0  0
 44116  1  0  0  0
 45 46  2  0  0  0
 45117  1  0  0  0
 46118  1  0  0  0
 47119  1  0  0  0
 47120  1  0  0  0
 48 56  1  0  0  0
 48 65  1  0  0  0
 48121  1  0  0  0
 49 50  1  0  0  0
 49 53  1  0  0  0
 49 64  1  0  0  0
 49122  1  0  0  0
 50 51  1  0  0  0
 50123  1  0  0  0
 50124  1  0  0  0
 51 52  1  0  0  0
 51125  1  0  0  0
 51126  1  0  0  0
 52127  1  0  0  0
 52128  1  0  0  0
 53 54  1  0  0  0
 54 55  2  0  0  0
 54129  1  0  0  0
 55 57  1  0  0  0
 55130  1  0  0  0
 56 69  2  0  0  0
 57 58  2  0  0  0
 57131  1  0  0  0
 58132  1  0  0  0
 59 60  1  0  0  0
 59 61  1  0  0  0
 59 62  1  0  0  0
 60133  1  0  0  0
 60134  1  0  0  0
 60135  1  0  0  0
 61136  1  0  0  0
 61137  1  0  0  0
 61138  1  0  0  0
 62139  1  0  0  0
 62140  1  0  0  0
 62141  1  0  0  0
 63 65  1  0  0  0
 63142  1  0  0  0
 63143  1  0  0  0
 63144  1  0  0  0
 64145  1  0  0  0
 65146  1  0  0  0
 68 80  1  0  0  0
 71 72  1  0  0  0
 71 74  2  0  0  0
 71147  1  0  0  0
 72 73  2  0  0  0
 72 82  1  0  0  0
 73 75  1  0  0  0
 73 86  1  0  0  0
 74 83  1  0  0  0
 74 86  1  0  0  0
 75 84  1  0  0  0
 75 87  2  0  0  0
 76 80  1  0  0  0
 76 81  1  0  0  0
 76 85  2  0  0  0
 77148  1  0  0  0
 77149  1  0  0  0
 77150  1  0  0  0
 77 81  1  0  0  0
 78 81  1  0  0  0
 78151  1  0  0  0
 78152  1  0  0  0
 78153  1  0  0  0
 79 82  1  0  0  0
 79154  1  0  0  0
 79155  1  0  0  0
 79156  1  0  0  0
 80157  1  0  0  0
 80158  1  0  0  0
 81 84  1  0  0  0
 82159  1  0  0  0
 83160  1  0  0  0
 84161  1  0  0  0
M  ISO  4   1 100  68 101  80 101  83 100
M  END
> <chiral flag>
0

> <version>
0

> <s_m_source_file>
/data/baiqing/PycharmProjects/Reinvent-master-3.2/result/LINK_invent/BTK/process_docking_weight1_custom_product_contain_oxygen_bond_distance_aromatic_linkinvent_7_9_3/rearranged_h_0161.sdf

> <i_m_source_file_index>
10

> <r_mmod_Potential_Energy-OPLS-2005>
128.195419311523

> <r_mmod_Stretch_Energy-OPLS-2005>
69.5871810913086

> <r_mmod_Bend_Energy-OPLS-2005>
151.072158813477

> <r_mmod_Torsional_Energy-OPLS-2005>
296.183288574219

> <r_mmod_Improper_Torsional_Energy-OPLS-2005>
10.1741790771484

> <r_mmod_Van_der_Waal_Energy-OPLS-2005>
134.239013671875

> <r_mmod_Electrostatic_Energy-OPLS-2005>
-323.464782714844

> <r_mmod_Solvation_Energy-OPLS-2005>
-238.934524536133

> <b_mmod_Minimization_Converged-OPLS-2005>
0

> <r_mmod_RMS_Derivative-OPLS-2005>
4.82324504852295

$$$$
10
                    3D
 Structure written by MMmdl.
161169  0  0  1  0            999 V2000
  -30.7299  -14.4505   20.5653 C   0  0  0  0  0  0
  -30.4105  -12.2851   19.4176 C   0  0  0  0  0  0
  -29.4854  -12.4741   18.1974 C   0  0  0  0  0  0
  -28.0126  -12.3206   18.6226 C   0  0  0  0  0  0
  -27.6607  -13.1886   19.8622 C   0  0  2  0  0  0
  -28.7073  -12.9962   20.9847 C   0  0  0  0  0  0
  -25.2684  -13.8160   20.5696 C   0  0  0  0  0  0
  -24.1901  -13.0472   20.9178 C   0  0  0  0  0  0
  -24.6398  -11.6910   20.8733 C   0  0  0  0  0  0
  -23.9051  -10.4304   21.0417 C   0  0  0  0  0  0
  -24.3625   -9.4215   21.9193 C   0  0  0  0  0  0
  -23.6295   -8.2260   22.0766 C   0  0  0  0  0  0
  -22.4274   -8.0296   21.3562 C   0  0  0  0  0  0
  -21.9909   -9.0261   20.4662 C   0  0  0  0  0  0
  -22.7228  -10.2139   20.3057 C   0  0  0  0  0  0
  -21.6849   -6.0752   22.5286 C   0  0  0  0  0  0
  -21.4011   -6.5650   23.8224 C   0  0  0  0  0  0
  -21.3653   -5.6802   24.9178 C   0  0  0  0  0  0
  -21.6030   -4.3066   24.7237 C   0  0  0  0  0  0
  -21.8823   -3.8165   23.4357 C   0  0  0  0  0  0
  -21.9195   -4.6983   22.3410 C   0  0  0  0  0  0
  -22.7934  -13.5289   21.1837 C   0  0  0  0  0  0
  -22.1672   -4.2174   21.0999 F   0  0  0  0  0  0
  -21.5615   -3.4543   25.7749 F   0  0  0  0  0  0
  -30.0316  -13.2927   20.4183 N   0  0  0  0  0  0
  -26.3041  -12.9254   20.3303 N   0  0  0  0  0  0
  -25.9308  -11.6441   20.5755 N   0  0  0  0  0  0
  -22.0573  -12.8257   22.0374 N   0  0  0  0  0  0
  -25.4561  -15.1883   20.4101 N   0  0  0  0  0  0
  -31.8630  -14.6088   20.1083 O   0  0  0  0  0  0
  -21.6637   -6.8898   21.4250 O   0  0  0  0  0  0
  -22.3646  -14.5618   20.6700 O   0  0  0  0  0  0
  -24.6137  -31.8671   23.2094 C   0  0  0  0  0  0
  -25.9031  -32.4819   23.8407 C   0  0  1  0  0  0
  -27.2403  -27.4159   20.1083 C   0  0  0  0  0  0
  -25.5875  -33.8628   24.2327 N   0  0  0  0  0  0
  -23.4051  -30.4875   21.5481 C   0  0  2  0  0  0
  -24.8558  -28.9467   20.1189 C   0  0  0  0  0  0
  -22.7379  -29.4689   22.4993 C   0  0  0  0  0  0
  -18.0269  -28.1391   22.8464 C   0  0  0  0  0  0
  -24.1484  -36.7314   23.2647 C   0  0  0  0  0  0
  -25.9345  -30.8289   21.3645 C   0  0  0  0  0  0
  -26.0159  -29.4578   20.7160 C   0  0  0  0  0  0
  -27.2135  -28.7005   20.7057 C   0  0  0  0  0  0
  -26.0646  -26.9171   19.5128 C   0  0  0  0  0  0
  -24.8769  -27.6765   19.5126 C   0  0  0  0  0  0
  -23.6182  -29.8144   20.1642 C   0  0  0  0  0  0
  -25.4102  -36.3119   24.0346 C   0  0  1  0  0  0
  -20.5848  -28.3686   23.1300 C   0  0  2  0  0  0
  -20.6735  -26.9419   22.5401 C   0  0  0  0  0  0
  -19.5739  -26.6392   21.5193 C   0  0  0  0  0  0
  -18.1917  -26.7942   22.1608 C   0  0  0  0  0  0
  -19.1510  -28.8848   23.2892 C   0  0  0  0  0  0
  -18.9453  -30.1462   23.8889 C   0  0  0  0  0  0
  -17.6466  -30.6594   24.0555 C   0  0  0  0  0  0
  -25.9018  -34.9476   23.5136 C   0  0  0  0  0  0
  -16.5348  -29.9089   23.6346 C   0  0  0  0  0  0
  -16.7262  -28.6511   23.0327 C   0  0  0  0  0  0
  -26.4485  -31.6601   25.0733 C   0  0  0  0  0  0
  -25.3769  -31.3698   26.1487 C   0  0  0  0  0  0
  -27.0316  -30.3045   24.6104 C   0  0  0  0  0  0
  -27.6065  -32.4312   25.7488 C   0  0  0  0  0  0
  -27.5581  -37.1829   24.8472 C   0  0  0  0  0  0
  -21.4107  -29.3078   22.3719 N   0  0  0  0  0  0
  -26.4298  -37.3782   23.9411 N   0  0  0  0  0  0
  -24.6689  -31.0751   22.1004 N   0  0  0  0  0  0
  -23.4142  -28.8231   23.3035 O   0  0  0  0  0  0
  -28.3966  -26.6604   20.0634 O   0  0  0  0  0  0
  -26.5590  -34.8937   22.4701 O   0  0  0  0  0  0
  -23.5326  -32.1439   23.7483 O   0  0  0  0  0  0
  -28.5961  -18.3359   21.5625 C   0  0  0  0  0  0
  -28.0015  -20.6038   20.8810 C   0  0  0  0  0  0
  -29.1991  -21.5385   20.7557 C   0  0  0  0  0  0
  -30.0593  -18.0812   21.1872 C   0  0  0  0  0  0
  -29.8449  -17.1908   23.9658 C   0  0  0  0  0  0
  -28.4370  -16.7775   23.4934 C   0  0  0  0  0  0
  -30.6761  -16.7126   21.6786 C   0  0  2  0  0  0
  -28.9697  -22.9949   21.2443 C   0  0  0  0  0  0
  -28.7527  -24.1365   20.1991 C   0  0  0  0  0  0
  -28.4144  -25.4896   20.9047 C   0  0  0  0  0  0
  -27.7805  -19.3862   21.2545 N   0  0  0  0  0  0
  -30.9276  -16.6945   23.1198 N   0  0  0  0  0  0
  -27.9460  -17.4727   22.2762 N   0  3  0  0  0  0
  -30.0650  -15.4643   21.1491 N   0  0  0  0  0  0
  -30.3173  -21.1644   20.3907 O   0  0  0  0  0  0
  -31.4904  -15.4364   23.5820 F   0  0  0  0  0  0
  -31.4609  -12.3437   19.1275 H   0  0  0  0  0  0
  -30.2767  -11.2829   19.8330 H   0  0  0  0  0  0
  -29.7238  -11.7385   17.4271 H   0  0  0  0  0  0
  -29.6452  -13.4562   17.7487 H   0  0  0  0  0  0
  -27.8505  -11.2650   18.8513 H   0  0  0  0  0  0
  -27.3453  -12.5526   17.7924 H   0  0  0  0  0  0
  -27.7049  -14.2272   19.5385 H   0  0  0  0  0  0
  -28.6935  -11.9668   21.3440 H   0  0  0  0  0  0
  -28.4741  -13.6047   21.8589 H   0  0  0  0  0  0
  -25.2781   -9.5671   22.4760 H   0  0  0  0  0  0
  -23.9990   -7.4650   22.7492 H   0  0  0  0  0  0
  -21.0831   -8.8770   19.8985 H   0  0  0  0  0  0
  -22.3693  -10.9672   19.6163 H   0  0  0  0  0  0
  -21.2011   -7.6166   23.9722 H   0  0  0  0  0  0
  -21.1455   -6.0549   25.9084 H   0  0  0  0  0  0
  -22.0610   -2.7631   23.2851 H   0  0  0  0  0  0
  -22.4153  -11.9840   22.4639 H   0  0  0  0  0  0
  -21.1239  -13.1325   22.2693 H   0  0  0  0  0  0
  -24.6810  -15.8386   20.4663 H   0  0  0  0  0  0
  -26.2714  -15.5795   19.9554 H   0  0  0  0  0  0
  -26.7121  -32.5551   23.1207 H   0  0  0  0  0  0
  -25.0051  -33.9794   25.0495 H   0  0  0  0  0  0
  -22.6962  -31.3052   21.4046 H   0  0  0  0  0  0
  -23.3733  -35.9656   23.3315 H   0  0  0  0  0  0
  -24.3580  -36.8913   22.2059 H   0  0  0  0  0  0
  -23.7250  -37.6539   23.6634 H   0  0  0  0  0  0
  -26.0425  -31.5926   20.5927 H   0  0  0  0  0  0
  -26.8228  -30.8869   21.9812 H   0  0  0  0  0  0
  -28.1082  -29.0932   21.1678 H   0  0  0  0  0  0
  -26.0679  -25.9420   19.0472 H   0  0  0  0  0  0
  -23.9882  -27.2792   19.0442 H   0  0  0  0  0  0
  -23.7309  -30.5879   19.4045 H   0  0  0  0  0  0
  -22.7414  -29.2353   19.8701 H   0  0  0  0  0  0
  -25.1284  -36.1998   25.0836 H   0  0  0  0  0  0
  -20.9928  -28.3174   24.1425 H   0  0  0  0  0  0
  -21.6601  -26.7414   22.1217 H   0  0  0  0  0  0
  -20.5562  -26.2317   23.3591 H   0  0  0  0  0  0
  -19.6930  -25.6282   21.1257 H   0  0  0  0  0  0
  -19.6680  -27.3194   20.6722 H   0  0  0  0  0  0
  -17.4183  -26.6645   21.4025 H   0  0  0  0  0  0
  -18.0340  -26.0115   22.9037 H   0  0  0  0  0  0
  -19.7929  -30.7279   24.2251 H   0  0  0  0  0  0
  -17.5038  -31.6287   24.5136 H   0  0  0  0  0  0
  -15.5345  -30.2974   23.7696 H   0  0  0  0  0  0
  -15.8648  -28.0860   22.7032 H   0  0  0  0  0  0
  -24.5927  -30.7052   25.7846 H   0  0  0  0  0  0
  -24.8978  -32.2842   26.4991 H   0  0  0  0  0  0
  -25.8142  -30.8851   27.0225 H   0  0  0  0  0  0
  -26.2865  -29.6812   24.1132 H   0  0  0  0  0  0
  -27.4071  -29.7278   25.4576 H   0  0  0  0  0  0
  -27.8706  -30.4386   23.9263 H   0  0  0  0  0  0
  -27.2691  -33.3593   26.2128 H   0  0  0  0  0  0
  -28.3846  -32.6903   25.0291 H   0  0  0  0  0  0
  -28.0763  -31.8392   26.5371 H   0  0  0  0  0  0
  -28.2622  -38.0107   24.7484 H   0  0  0  0  0  0
  -28.1051  -36.2638   24.6317 H   0  0  0  0  0  0
  -27.2295  -37.1507   25.8877 H   0  0  0  0  0  0
  -20.9238  -29.8804   21.6959 H   0  0  0  0  0  0
  -26.0191  -38.2864   24.1388 H   0  0  0  0  0  0
  -27.0851  -21.1624   20.6820 H   0  0  0  0  0  0
  -30.6771  -18.8915   21.5749 H   0  0  0  0  0  0
  -30.1407  -18.1184   20.0992 H   0  0  0  0  0  0
  -30.0214  -16.8343   24.9801 H   0  0  0  0  0  0
  -29.9056  -18.2764   24.0279 H   0  0  0  0  0  0
  -27.7167  -17.0284   24.2744 H   0  0  0  0  0  0
  -28.3561  -15.7029   23.3319 H   0  0  0  0  0  0
  -31.6929  -16.7404   21.2839 H   0  0  0  0  0  0
  -29.8244  -23.2564   21.8655 H   0  0  0  0  0  0
  -28.1129  -22.9801   21.9177 H   0  0  0  0  0  0
  -27.9450  -23.8763   19.5158 H   0  0  0  0  0  0
  -29.6507  -24.2495   19.5897 H   0  0  0  0  0  0
  -27.4708  -25.3826   21.4455 H   0  0  0  0  0  0
  -29.1711  -25.6806   21.6670 H   0  0  0  0  0  0
  -26.9389  -17.5998   22.2801 H   0  0  0  0  0  0
  -29.1025  -15.2771   21.3737 H   0  0  0  0  0  0
  1 25  1  0  0  0
  1 30  2  0  0  0
  1 84  1  0  0  0
  2  3  1  0  0  0
  2 25  1  0  0  0
  2 87  1  0  0  0
  2 88  1  0  0  0
  3  4  1  0  0  0
  3 89  1  0  0  0
  3 90  1  0  0  0
  4  5  1  0  0  0
  4 91  1  0  0  0
  4 92  1  0  0  0
  5  6  1  0  0  0
  5 26  1  0  0  0
  5 93  1  0  0  0
  6 25  1  0  0  0
  6 94  1  0  0  0
  6 95  1  0  0  0
  7  8  2  0  0  0
  7 26  1  0  0  0
  7 29  1  0  0  0
  8  9  1  0  0  0
  8 22  1  0  0  0
  9 10  1  0  0  0
  9 27  2  0  0  0
 10 11  2  0  0  0
 10 15  1  0  0  0
 11 12  1  0  0  0
 11 96  1  0  0  0
 12 13  2  0  0  0
 12 97  1  0  0  0
 13 14  1  0  0  0
 13 31  1  0  0  0
 14 15  2  0  0  0
 14 98  1  0  0  0
 15 99  1  0  0  0
 16 17  2  0  0  0
 16 21  1  0  0  0
 16 31  1  0  0  0
 17 18  1  0  0  0
 17100  1  0  0  0
 18 19  2  0  0  0
 18101  1  0  0  0
 19 20  1  0  0  0
 19 24  1  0  0  0
 20 21  2  0  0  0
 20102  1  0  0  0
 21 23  1  0  0  0
 22 28  1  0  0  0
 22 32  2  0  0  0
 26 27  1  0  0  0
 28103  1  0  0  0
 28104  1  0  0  0
 29105  1  0  0  0
 29106  1  0  0  0
 33 34  1  0  0  0
 33 66  1  0  0  0
 33 70  2  0  0  0
 34 36  1  0  0  0
 34 59  1  0  0  0
 34107  1  0  0  0
 35 44  2  0  0  0
 35 45  1  0  0  0
 35 68  1  0  0  0
 36 56  1  0  0  0
 36108  1  0  0  0
 37 39  1  0  0  0
 37 47  1  0  0  0
 37 66  1  0  0  0
 37109  1  0  0  0
 38 43  2  0  0  0
 38 46  1  0  0  0
 38 47  1  0  0  0
 39 64  1  0  0  0
 39 67  2  0  0  0
 40 52  1  0  0  0
 40 53  2  0  0  0
 40 58  1  0  0  0
 41110  1  0  0  0
 41111  1  0  0  0
 41112  1  0  0  0
 41 48  1  0  0  0
 42 43  1  0  0  0
 42 66  1  0  0  0
 42113  1  0  0  0
 42114  1  0  0  0
 43 44  1  0  0  0
 44115  1  0  0  0
 45 46  2  0  0  0
 45116  1  0  0  0
 46117  1  0  0  0
 47118  1  0  0  0
 47119  1  0  0  0
 48 56  1  0  0  0
 48 65  1  0  0  0
 48120  1  0  0  0
 49 50  1  0  0  0
 49 53  1  0  0  0
 49 64  1  0  0  0
 49121  1  0  0  0
 50 51  1  0  0  0
 50122  1  0  0  0
 50123  1  0  0  0
 51 52  1  0  0  0
 51124  1  0  0  0
 51125  1  0  0  0
 52126  1  0  0  0
 52127  1  0  0  0
 53 54  1  0  0  0
 54 55  2  0  0  0
 54128  1  0  0  0
 55 57  1  0  0  0
 55129  1  0  0  0
 56 69  2  0  0  0
 57 58  2  0  0  0
 57130  1  0  0  0
 58131  1  0  0  0
 59 60  1  0  0  0
 59 61  1  0  0  0
 59 62  1  0  0  0
 60132  1  0  0  0
 60133  1  0  0  0
 60134  1  0  0  0
 61135  1  0  0  0
 61136  1  0  0  0
 61137  1  0  0  0
 62138  1  0  0  0
 62139  1  0  0  0
 62140  1  0  0  0
 63 65  1  0  0  0
 63141  1  0  0  0
 63142  1  0  0  0
 63143  1  0  0  0
 64144  1  0  0  0
 65145  1  0  0  0
 68 80  1  0  0  0
 71 74  1  0  0  0
 71 81  1  0  0  0
 71 83  2  0  0  0
 72 73  1  0  0  0
 72 81  2  0  0  0
 72146  1  0  0  0
 73 78  1  0  0  0
 73 85  2  0  0  0
 74 77  1  0  0  0
 74147  1  0  0  0
 74148  1  0  0  0
 75 76  1  0  0  0
 75 82  1  0  0  0
 75149  1  0  0  0
 75150  1  0  0  0
 76 83  1  0  0  0
 76151  1  0  0  0
 76152  1  0  0  0
 77 82  1  0  0  0
 77 84  1  0  0  0
 77153  1  0  0  0
 78 79  1  0  0  0
 78154  1  0  0  0
 78155  1  0  0  0
 79 80  1  0  0  0
 79156  1  0  0  0
 79157  1  0  0  0
 80158  1  0  0  0
 80159  1  0  0  0
 82 86  1  0  0  0
 83160  1  0  0  0
 84161  1  0  0  0
M  CHG  1  83   1
M  ISO  4   1 100  68 101  80 101  84 100
M  END
> <chiral flag>
0

> <version>
0

> <s_m_source_file>
/data/baiqing/PycharmProjects/Reinvent-master-3.2/result/LINK_invent/BTK/process_docking_weight1_custom_product_contain_oxygen_bond_distance_aromatic_linkinvent_7_9_3/rearranged_h_0161.sdf

> <i_m_source_file_index>
11

> <r_mmod_Potential_Energy-OPLS-2005>
-75.635124206543

> <r_mmod_Stretch_Energy-OPLS-2005>
49.1895217895508

> <r_mmod_Bend_Energy-OPLS-2005>
180.998626708984

> <r_mmod_Torsional_Energy-OPLS-2005>
292.074462890625

> <r_mmod_Improper_Torsional_Energy-OPLS-2005>
6.53956699371338

> <r_mmod_Van_der_Waal_Energy-OPLS-2005>
135.502395629883

> <r_mmod_Electrostatic_Energy-OPLS-2005>
-284.781433105469

> <r_mmod_Solvation_Energy-OPLS-2005>
-469.291229248047

> <b_mmod_Minimization_Converged-OPLS-2005>
0

> <r_mmod_RMS_Derivative-OPLS-2005>
4.31392002105713

$$$$
11
                    3D
 Structure written by MMmdl.
155164  0  0  1  0            999 V2000
  -30.6062  -14.6497   20.5083 C   0  0  0  0  0  0
  -30.4476  -12.4022   19.4489 C   0  0  0  0  0  0
  -29.5111  -12.5084   18.2234 C   0  0  0  0  0  0
  -28.0343  -12.3410   18.6356 C   0  0  0  0  0  0
  -27.6551  -13.2108   19.8631 C   0  0  2  0  0  0
  -28.7009  -13.0594   20.9918 C   0  0  0  0  0  0
  -25.2572  -13.8151   20.5667 C   0  0  0  0  0  0
  -24.1837  -13.0430   20.9196 C   0  0  0  0  0  0
  -24.6395  -11.6897   20.8740 C   0  0  0  0  0  0
  -23.9060  -10.4287   21.0409 C   0  0  0  0  0  0
  -24.3611   -9.4203   21.9185 C   0  0  0  0  0  0
  -23.6285   -8.2239   22.0756 C   0  0  0  0  0  0
  -22.4270   -8.0278   21.3545 C   0  0  0  0  0  0
  -21.9901   -9.0253   20.4650 C   0  0  0  0  0  0
  -22.7231  -10.2131   20.3059 C   0  0  0  0  0  0
  -21.6852   -6.0731   22.5278 C   0  0  0  0  0  0
  -21.4014   -6.5635   23.8209 C   0  0  0  0  0  0
  -21.3656   -5.6789   24.9171 C   0  0  0  0  0  0
  -21.6045   -4.3052   24.7224 C   0  0  0  0  0  0
  -21.8820   -3.8143   23.4346 C   0  0  0  0  0  0
  -21.9194   -4.6959   22.3401 C   0  0  0  0  0  0
  -22.7863  -13.5234   21.1854 C   0  0  0  0  0  0
  -22.1663   -4.2144   21.0978 F   0  0  0  0  0  0
  -21.5627   -3.4534   25.7737 F   0  0  0  0  0  0
  -30.0158  -13.4149   20.4321 N   0  0  0  0  0  0
  -26.2994  -12.9321   20.3301 N   0  0  0  0  0  0
  -25.9321  -11.6485   20.5747 N   0  0  0  0  0  0
  -22.0498  -12.8233   22.0410 N   0  0  0  0  0  0
  -25.4290  -15.1866   20.4033 N   0  0  0  0  0  0
  -31.7643  -14.8416   20.1284 O   0  0  0  0  0  0
  -21.6638   -6.8871   21.4238 O   0  0  0  0  0  0
  -22.3556  -14.5544   20.6702 O   0  0  0  0  0  0
  -24.6273  -31.8601   23.2031 C   0  0  0  0  0  0
  -25.9118  -32.4781   23.8358 C   0  0  1  0  0  0
  -27.2256  -27.3141   20.1132 C   0  0  0  0  0  0
  -25.5931  -33.8581   24.2285 N   0  0  0  0  0  0
  -23.4208  -30.4851   21.5465 C   0  0  2  0  0  0
  -24.8667  -28.9423   20.1129 C   0  0  0  0  0  0
  -22.7478  -29.4629   22.4936 C   0  0  0  0  0  0
  -18.0287  -28.1386   22.8485 C   0  0  0  0  0  0
  -24.1487  -36.7292   23.2638 C   0  0  0  0  0  0
  -25.9639  -30.7893   21.3757 C   0  0  0  0  0  0
  -26.0382  -29.4173   20.7159 C   0  0  0  0  0  0
  -27.2205  -28.6162   20.7056 C   0  0  0  0  0  0
  -26.0249  -26.8961   19.4892 C   0  0  0  0  0  0
  -24.8626  -27.6866   19.4915 C   0  0  0  0  0  0
  -23.6356  -29.8229   20.1615 C   0  0  0  0  0  0
  -25.4112  -36.3084   24.0331 C   0  0  1  0  0  0
  -20.5888  -28.3693   23.1277 C   0  0  2  0  0  0
  -20.6778  -26.9416   22.5407 C   0  0  0  0  0  0
  -19.5753  -26.6386   21.5209 C   0  0  0  0  0  0
  -18.1933  -26.7928   22.1625 C   0  0  0  0  0  0
  -19.1540  -28.8855   23.2877 C   0  0  0  0  0  0
  -18.9465  -30.1456   23.8895 C   0  0  0  0  0  0
  -17.6465  -30.6588   24.0564 C   0  0  0  0  0  0
  -25.9053  -34.9454   23.5107 C   0  0  0  0  0  0
  -16.5355  -29.9086   23.6331 C   0  0  0  0  0  0
  -16.7274  -28.6504   23.0351 C   0  0  0  0  0  0
  -26.4498  -31.6591   25.0731 C   0  0  0  0  0  0
  -25.3732  -31.3729   26.1458 C   0  0  0  0  0  0
  -27.0346  -30.3016   24.6191 C   0  0  0  0  0  0
  -27.6058  -32.4327   25.7499 C   0  0  0  0  0  0
  -27.5579  -37.1800   24.8465 C   0  0  0  0  0  0
  -21.4191  -29.3047   22.3673 N   0  0  0  0  0  0
  -26.4290  -37.3780   23.9410 N   0  0  0  0  0  0
  -24.6895  -31.0610   22.0985 N   0  0  0  0  0  0
  -23.4198  -28.8163   23.3013 O   0  0  0  0  0  0
  -28.3412  -26.4559   20.1584 O   0  0  0  0  0  0
  -26.5620  -34.8921   22.4673 O   0  0  0  0  0  0
  -23.5435  -32.1399   23.7358 O   0  0  0  0  0  0
  -28.6435  -17.9018   20.7467 C   0  0  0  0  0  0
  -31.0201  -17.9016   20.5824 C   0  0  0  0  0  0
  -29.8374  -17.1327   20.7147 C   0  0  0  0  0  0
  -28.6568  -19.3237   20.6520 C   0  0  0  0  0  0
  -29.8938  -20.0121   20.5457 C   0  0  0  0  0  0
  -29.2600  -23.9666   20.2328 C   0  0  0  0  0  0
  -28.8846  -22.4244   20.3261 C   0  0  0  0  0  0
  -31.5606  -23.3894   20.2884 C   0  0  0  0  0  0
  -31.2348  -22.0639   21.0173 C   0  0  0  0  0  0
  -28.0845  -24.9951   20.0285 C   0  0  0  0  0  0
  -31.0412  -19.2708   20.5106 N   0  0  0  0  0  0
  -30.4727  -24.3710   20.2836 N   0  0  0  0  0  0
  -30.0159  -21.4523   20.4826 N   0  0  0  0  0  0
  -29.7629  -15.6730   20.8538 N   0  0  0  0  0  0
  -27.4820  -19.9997   20.6870 F   0  0  0  0  0  0
  -31.4856  -12.5445   19.1437 H   0  0  0  0  0  0
  -30.3985  -11.4047   19.8884 H   0  0  0  0  0  0
  -29.7775  -11.7565   17.4794 H   0  0  0  0  0  0
  -29.6482  -13.4763   17.7384 H   0  0  0  0  0  0
  -27.8750  -11.2876   18.8693 H   0  0  0  0  0  0
  -27.3795  -12.5675   17.7933 H   0  0  0  0  0  0
  -27.6738  -14.2456   19.5219 H   0  0  0  0  0  0
  -28.7171  -12.0332   21.3623 H   0  0  0  0  0  0
  -28.4431  -13.6785   21.8523 H   0  0  0  0  0  0
  -25.2759   -9.5675   22.4754 H   0  0  0  0  0  0
  -23.9994   -7.4630   22.7474 H   0  0  0  0  0  0
  -21.0831   -8.8773   19.8957 H   0  0  0  0  0  0
  -22.3692  -10.9670   19.6167 H   0  0  0  0  0  0
  -21.2009   -7.6144   23.9710 H   0  0  0  0  0  0
  -21.1478   -6.0521   25.9073 H   0  0  0  0  0  0
  -22.0603   -2.7605   23.2851 H   0  0  0  0  0  0
  -22.4111  -11.9893   22.4800 H   0  0  0  0  0  0
  -21.1119  -13.1271   22.2616 H   0  0  0  0  0  0
  -24.6521  -15.8331   20.4877 H   0  0  0  0  0  0
  -26.2500  -15.6073   19.9894 H   0  0  0  0  0  0
  -26.7188  -32.5449   23.1107 H   0  0  0  0  0  0
  -25.0076  -33.9726   25.0427 H   0  0  0  0  0  0
  -22.7150  -31.3060   21.4047 H   0  0  0  0  0  0
  -23.3752  -35.9623   23.3304 H   0  0  0  0  0  0
  -24.3578  -36.8909   22.2052 H   0  0  0  0  0  0
  -23.7240  -37.6495   23.6657 H   0  0  0  0  0  0
  -26.0983  -31.5534   20.6087 H   0  0  0  0  0  0
  -26.8431  -30.8356   22.0066 H   0  0  0  0  0  0
  -28.1180  -28.9778   21.1879 H   0  0  0  0  0  0
  -25.9424  -25.9407   18.9961 H   0  0  0  0  0  0
  -23.9651  -27.3155   19.0159 H   0  0  0  0  0  0
  -23.7561  -30.6008   19.4067 H   0  0  0  0  0  0
  -22.7551  -29.2539   19.8575 H   0  0  0  0  0  0
  -25.1291  -36.1937   25.0824 H   0  0  0  0  0  0
  -20.9979  -28.3270   24.1398 H   0  0  0  0  0  0
  -20.5677  -26.2304   23.3607 H   0  0  0  0  0  0
  -21.6646  -26.7445   22.1201 H   0  0  0  0  0  0
  -19.6915  -25.6297   21.1238 H   0  0  0  0  0  0
  -19.6687  -27.3197   20.6739 H   0  0  0  0  0  0
  -17.4199  -26.6667   21.4031 H   0  0  0  0  0  0
  -18.0342  -26.0071   22.9024 H   0  0  0  0  0  0
  -19.7941  -30.7271   24.2263 H   0  0  0  0  0  0
  -17.5021  -31.6268   24.5167 H   0  0  0  0  0  0
  -15.5356  -30.2988   23.7658 H   0  0  0  0  0  0
  -15.8674  -28.0823   22.7067 H   0  0  0  0  0  0
  -24.5909  -30.7074   25.7786 H   0  0  0  0  0  0
  -24.8921  -32.2896   26.4879 H   0  0  0  0  0  0
  -25.8059  -30.8911   27.0235 H   0  0  0  0  0  0
  -26.2925  -29.6762   24.1215 H   0  0  0  0  0  0
  -27.4044  -29.7276   25.4698 H   0  0  0  0  0  0
  -27.8794  -30.4302   23.9420 H   0  0  0  0  0  0
  -27.2669  -33.3626   26.2078 H   0  0  0  0  0  0
  -28.3866  -32.6891   25.0325 H   0  0  0  0  0  0
  -28.0730  -31.8454   26.5414 H   0  0  0  0  0  0
  -28.2599  -38.0096   24.7518 H   0  0  0  0  0  0
  -28.1074  -36.2630   24.6283 H   0  0  0  0  0  0
  -27.2299  -37.1440   25.8869 H   0  0  0  0  0  0
  -20.9367  -29.8775   21.6890 H   0  0  0  0  0  0
  -26.0172  -38.2854   24.1417 H   0  0  0  0  0  0
  -27.6912  -17.4034   20.8484 H   0  0  0  0  0  0
  -31.9874  -17.4229   20.5624 H   0  0  0  0  0  0
  -28.3166  -22.1566   19.4349 H   0  0  0  0  0  0
  -28.2063  -22.2997   21.1706 H   0  0  0  0  0  0
  -31.8592  -23.1739   19.2605 H   0  0  0  0  0  0
  -32.4397  -23.8323   20.7591 H   0  0  0  0  0  0
  -31.1008  -22.2436   22.0848 H   0  0  0  0  0  0
  -32.1015  -21.4091   20.9271 H   0  0  0  0  0  0
  -27.2840  -24.7175   20.7157 H   0  0  0  0  0  0
  -27.7172  -24.8020   19.0211 H   0  0  0  0  0  0
  -28.8557  -15.3251   21.1259 H   0  0  0  0  0  0
  1 25  1  0  0  0
  1 30  2  0  0  0
  1 84  1  0  0  0
  2  3  1  0  0  0
  2 25  1  0  0  0
  2 86  1  0  0  0
  2 87  1  0  0  0
  3  4  1  0  0  0
  3 88  1  0  0  0
  3 89  1  0  0  0
  4  5  1  0  0  0
  4 90  1  0  0  0
  4 91  1  0  0  0
  5  6  1  0  0  0
  5 26  1  0  0  0
  5 92  1  0  0  0
  6 25  1  0  0  0
  6 93  1  0  0  0
  6 94  1  0  0  0
  7  8  2  0  0  0
  7 26  1  0  0  0
  7 29  1  0  0  0
  8  9  1  0  0  0
  8 22  1  0  0  0
  9 10  1  0  0  0
  9 27  2  0  0  0
 10 11  2  0  0  0
 10 15  1  0  0  0
 11 12  1  0  0  0
 11 95  1  0  0  0
 12 13  2  0  0  0
 12 96  1  0  0  0
 13 14  1  0  0  0
 13 31  1  0  0  0
 14 15  2  0  0  0
 14 97  1  0  0  0
 15 98  1  0  0  0
 16 17  2  0  0  0
 16 21  1  0  0  0
 16 31  1  0  0  0
 17 18  1  0  0  0
 17 99  1  0  0  0
 18 19  2  0  0  0
 18100  1  0  0  0
 19 20  1  0  0  0
 19 24  1  0  0  0
 20 21  2  0  0  0
 20101  1  0  0  0
 21 23  1  0  0  0
 22 28  1  0  0  0
 22 32  2  0  0  0
 26 27  1  0  0  0
 28102  1  0  0  0
 28103  1  0  0  0
 29104  1  0  0  0
 29105  1  0  0  0
 33 34  1  0  0  0
 33 66  1  0  0  0
 33 70  2  0  0  0
 34 36  1  0  0  0
 34 59  1  0  0  0
 34106  1  0  0  0
 35 44  2  0  0  0
 35 45  1  0  0  0
 35 68  1  0  0  0
 36 56  1  0  0  0
 36107  1  0  0  0
 37 39  1  0  0  0
 37 47  1  0  0  0
 37 66  1  0  0  0
 37108  1  0  0  0
 38 43  2  0  0  0
 38 46  1  0  0  0
 38 47  1  0  0  0
 39 64  1  0  0  0
 39 67  2  0  0  0
 40 52  1  0  0  0
 40 53  2  0  0  0
 40 58  1  0  0  0
 41109  1  0  0  0
 41110  1  0  0  0
 41111  1  0  0  0
 41 48  1  0  0  0
 42 43  1  0  0  0
 42 66  1  0  0  0
 42112  1  0  0  0
 42113  1  0  0  0
 43 44  1  0  0  0
 44114  1  0  0  0
 45 46  2  0  0  0
 45115  1  0  0  0
 46116  1  0  0  0
 47117  1  0  0  0
 47118  1  0  0  0
 48 56  1  0  0  0
 48 65  1  0  0  0
 48119  1  0  0  0
 49 50  1  0  0  0
 49 53  1  0  0  0
 49 64  1  0  0  0
 49120  1  0  0  0
 50 51  1  0  0  0
 50121  1  0  0  0
 50122  1  0  0  0
 51 52  1  0  0  0
 51123  1  0  0  0
 51124  1  0  0  0
 52125  1  0  0  0
 52126  1  0  0  0
 53 54  1  0  0  0
 54 55  2  0  0  0
 54127  1  0  0  0
 55 57  1  0  0  0
 55128  1  0  0  0
 56 69  2  0  0  0
 57 58  2  0  0  0
 57129  1  0  0  0
 58130  1  0  0  0
 59 60  1  0  0  0
 59 61  1  0  0  0
 59 62  1  0  0  0
 60131  1  0  0  0
 60132  1  0  0  0
 60133  1  0  0  0
 61134  1  0  0  0
 61135  1  0  0  0
 61136  1  0  0  0
 62137  1  0  0  0
 62138  1  0  0  0
 62139  1  0  0  0
 63 65  1  0  0  0
 63140  1  0  0  0
 63141  1  0  0  0
 63142  1  0  0  0
 64143  1  0  0  0
 65144  1  0  0  0
 68 80  1  0  0  0
 71 73  2  0  0  0
 71 74  1  0  0  0
 71145  1  0  0  0
 72 73  1  0  0  0
 72 81  2  0  0  0
 72146  1  0  0  0
 73 84  1  0  0  0
 74 75  2  0  0  0
 74 85  1  0  0  0
 75 81  1  0  0  0
 75 83  1  0  0  0
 76 77  1  0  0  0
 76 80  1  0  0  0
 76 82  2  0  0  0
 77 83  1  0  0  0
 77147  1  0  0  0
 77148  1  0  0  0
 78 79  1  0  0  0
 78 82  1  0  0  0
 78149  1  0  0  0
 78150  1  0  0  0
 79 83  1  0  0  0
 79151  1  0  0  0
 79152  1  0  0  0
 80153  1  0  0  0
 80154  1  0  0  0
 84155  1  0  0  0
M  ISO  4   1 100  68 101  80 101  84 100
M  END
> <chiral flag>
0

> <version>
0

> <s_m_source_file>
/data/baiqing/PycharmProjects/Reinvent-master-3.2/result/LINK_invent/BTK/process_docking_weight1_custom_product_contain_oxygen_bond_distance_aromatic_linkinvent_7_9_3/rearranged_h_0161.sdf

> <i_m_source_file_index>
12

> <r_mmod_Potential_Energy-OPLS-2005>
-30.3340530395508

> <r_mmod_Stretch_Energy-OPLS-2005>
88.084846496582

> <r_mmod_Bend_Energy-OPLS-2005>
153.395690917969

> <r_mmod_Torsional_Energy-OPLS-2005>
205.586212158203

> <r_mmod_Improper_Torsional_Energy-OPLS-2005>
6.05271244049072

> <r_mmod_Van_der_Waal_Energy-OPLS-2005>
167.506210327148

> <r_mmod_Electrostatic_Energy-OPLS-2005>
-450.237762451172

> <r_mmod_Solvation_Energy-OPLS-2005>
-252.707656860352

> <b_mmod_Minimization_Converged-OPLS-2005>
0

> <r_mmod_RMS_Derivative-OPLS-2005>
0.578552782535553

$$$$
12
                    3D
 Structure written by MMmdl.
163172  0  0  1  0            999 V2000
  -30.7362  -14.4772   20.5786 C   0  0  0  0  0  0
  -30.4144  -12.3130   19.4299 C   0  0  0  0  0  0
  -29.4911  -12.4994   18.2099 C   0  0  0  0  0  0
  -28.0145  -12.3580   18.6252 C   0  0  0  0  0  0
  -27.6590  -13.2134   19.8713 C   0  0  2  0  0  0
  -28.7025  -13.0248   20.9967 C   0  0  0  0  0  0
  -25.2570  -13.8183   20.5681 C   0  0  0  0  0  0
  -24.1831  -13.0446   20.9183 C   0  0  0  0  0  0
  -24.6396  -11.6912   20.8743 C   0  0  0  0  0  0
  -23.9062  -10.4291   21.0405 C   0  0  0  0  0  0
  -24.3616   -9.4209   21.9187 C   0  0  0  0  0  0
  -23.6291   -8.2245   22.0756 C   0  0  0  0  0  0
  -22.4276   -8.0285   21.3544 C   0  0  0  0  0  0
  -21.9910   -9.0257   20.4644 C   0  0  0  0  0  0
  -22.7238  -10.2131   20.3054 C   0  0  0  0  0  0
  -21.6851   -6.0739   22.5279 C   0  0  0  0  0  0
  -21.4008   -6.5637   23.8213 C   0  0  0  0  0  0
  -21.3659   -5.6787   24.9173 C   0  0  0  0  0  0
  -21.6045   -4.3052   24.7221 C   0  0  0  0  0  0
  -21.8822   -3.8147   23.4341 C   0  0  0  0  0  0
  -21.9190   -4.6965   22.3399 C   0  0  0  0  0  0
  -22.7847  -13.5238   21.1839 C   0  0  0  0  0  0
  -22.1660   -4.2148   21.0979 F   0  0  0  0  0  0
  -21.5630   -3.4541   25.7735 F   0  0  0  0  0  0
  -30.0331  -13.3178   20.4388 N   0  0  0  0  0  0
  -26.3016  -12.9363   20.3366 N   0  0  0  0  0  0
  -25.9328  -11.6516   20.5782 N   0  0  0  0  0  0
  -22.0486  -12.8224   22.0395 N   0  0  0  0  0  0
  -25.4286  -15.1902   20.4084 N   0  0  0  0  0  0
  -31.8511  -14.6210   20.0721 O   0  0  0  0  0  0
  -21.6639   -6.8882   21.4242 O   0  0  0  0  0  0
  -22.3525  -14.5548   20.6696 O   0  0  0  0  0  0
  -24.6158  -31.8683   23.2094 C   0  0  0  0  0  0
  -25.9053  -32.4833   23.8382 C   0  0  1  0  0  0
  -27.2282  -27.4175   20.0945 C   0  0  0  0  0  0
  -25.5906  -33.8622   24.2325 N   0  0  0  0  0  0
  -23.4045  -30.4946   21.5500 C   0  0  2  0  0  0
  -24.8507  -28.9677   20.1100 C   0  0  0  0  0  0
  -22.7420  -29.4677   22.4978 C   0  0  0  0  0  0
  -18.0279  -28.1393   22.8472 C   0  0  0  0  0  0
  -24.1490  -36.7301   23.2637 C   0  0  0  0  0  0
  -25.9369  -30.8316   21.3644 C   0  0  0  0  0  0
  -26.0146  -29.4675   20.7061 C   0  0  0  0  0  0
  -27.2070  -28.7018   20.6934 C   0  0  0  0  0  0
  -26.0422  -26.9527   19.4747 C   0  0  0  0  0  0
  -24.8607  -27.7110   19.4883 C   0  0  0  0  0  0
  -23.6118  -29.8311   20.1639 C   0  0  0  0  0  0
  -25.4110  -36.3113   24.0345 C   0  0  1  0  0  0
  -20.5872  -28.3669   23.1309 C   0  0  2  0  0  0
  -20.6779  -26.9405   22.5409 C   0  0  0  0  0  0
  -19.5756  -26.6385   21.5216 C   0  0  0  0  0  0
  -18.1929  -26.7926   22.1619 C   0  0  0  0  0  0
  -19.1533  -28.8842   23.2888 C   0  0  0  0  0  0
  -18.9462  -30.1443   23.8907 C   0  0  0  0  0  0
  -17.6469  -30.6590   24.0565 C   0  0  0  0  0  0
  -25.9039  -34.9483   23.5134 C   0  0  0  0  0  0
  -16.5355  -29.9094   23.6336 C   0  0  0  0  0  0
  -16.7271  -28.6514   23.0341 C   0  0  0  0  0  0
  -26.4465  -31.6610   25.0713 C   0  0  0  0  0  0
  -25.3707  -31.3719   26.1439 C   0  0  0  0  0  0
  -27.0303  -30.3060   24.6067 C   0  0  0  0  0  0
  -27.6037  -32.4319   25.7484 C   0  0  0  0  0  0
  -27.5589  -37.1803   24.8471 C   0  0  0  0  0  0
  -21.4150  -29.3047   22.3712 N   0  0  0  0  0  0
  -26.4302  -37.3802   23.9417 N   0  0  0  0  0  0
  -24.6710  -31.0776   22.1003 N   0  0  0  0  0  0
  -23.4195  -28.8217   23.3019 O   0  0  0  0  0  0
  -28.3710  -26.6298   20.1501 O   0  0  0  0  0  0
  -26.5601  -34.8929   22.4695 O   0  0  0  0  0  0
  -23.5339  -32.1433   23.7486 O   0  0  0  0  0  0
  -32.4163  -18.4175   21.8543 C   0  0  0  0  0  0
  -31.5205  -19.5012   21.8325 C   0  0  0  0  0  0
  -31.9556  -17.1057   21.6405 C   0  0  0  0  0  0
  -29.6911  -17.9518   21.3724 C   0  0  0  0  0  0
  -30.1463  -19.2856   21.5851 C   0  0  0  0  0  0
  -30.5880  -16.8479   21.3823 C   0  0  0  0  0  0
  -27.4754  -21.6981   23.0768 C   0  0  0  0  0  0
  -28.5352  -20.5905   23.0307 C   0  0  0  0  0  0
  -28.0761  -23.0245   22.5935 C   0  0  0  0  0  0
  -29.1478  -20.4598   21.6214 C   0  0  1  0  0  0
  -28.6992  -22.8973   21.1804 C   0  0  1  0  0  0
  -29.2531  -24.2846   20.7016 C   0  0  0  0  0  0
  -28.1244  -25.2050   20.1605 C   0  0  0  0  0  0
  -30.0968  -15.5098   21.1786 N   0  0  0  0  0  0
  -29.6967  -21.7785   21.1640 N   0  3  0  0  0  0
  -31.4604  -12.3927   19.1261 H   0  0  0  0  0  0
  -30.3060  -11.3094   19.8434 H   0  0  0  0  0  0
  -29.7329  -11.7665   17.4389 H   0  0  0  0  0  0
  -29.6559  -13.4811   17.7634 H   0  0  0  0  0  0
  -27.8308  -11.3035   18.8353 H   0  0  0  0  0  0
  -27.3616  -12.6172   17.7902 H   0  0  0  0  0  0
  -27.6944  -14.2565   19.5571 H   0  0  0  0  0  0
  -28.6797  -11.9985   21.3650 H   0  0  0  0  0  0
  -28.4638  -13.6508   21.8578 H   0  0  0  0  0  0
  -25.2764   -9.5680   22.4757 H   0  0  0  0  0  0
  -23.9999   -7.4633   22.7473 H   0  0  0  0  0  0
  -21.0848   -8.8775   19.8947 H   0  0  0  0  0  0
  -22.3712  -10.9669   19.6156 H   0  0  0  0  0  0
  -21.1999   -7.6143   23.9715 H   0  0  0  0  0  0
  -21.1478   -6.0518   25.9073 H   0  0  0  0  0  0
  -22.0602   -2.7611   23.2845 H   0  0  0  0  0  0
  -22.4093  -11.9877   22.4770 H   0  0  0  0  0  0
  -21.1111  -13.1255   22.2610 H   0  0  0  0  0  0
  -24.6616  -15.8461   20.5109 H   0  0  0  0  0  0
  -26.2797  -15.6269   20.0770 H   0  0  0  0  0  0
  -26.7121  -32.5540   23.1137 H   0  0  0  0  0  0
  -25.0069  -33.9782   25.0472 H   0  0  0  0  0  0
  -22.6940  -31.3124   21.4107 H   0  0  0  0  0  0
  -23.3774  -35.9620   23.3308 H   0  0  0  0  0  0
  -24.3573  -36.8899   22.2052 H   0  0  0  0  0  0
  -23.7223  -37.6499   23.6634 H   0  0  0  0  0  0
  -26.0493  -31.5990   20.5973 H   0  0  0  0  0  0
  -26.8249  -30.8833   21.9826 H   0  0  0  0  0  0
  -28.1003  -29.0810   21.1681 H   0  0  0  0  0  0
  -25.9968  -25.9946   18.9795 H   0  0  0  0  0  0
  -23.9678  -27.3224   19.0199 H   0  0  0  0  0  0
  -23.7148  -30.6058   19.4029 H   0  0  0  0  0  0
  -22.7374  -29.2477   19.8706 H   0  0  0  0  0  0
  -25.1289  -36.1984   25.0842 H   0  0  0  0  0  0
  -20.9945  -28.3227   24.1440 H   0  0  0  0  0  0
  -20.5710  -26.2266   23.3590 H   0  0  0  0  0  0
  -21.6643  -26.7475   22.1183 H   0  0  0  0  0  0
  -19.6934  -25.6304   21.1238 H   0  0  0  0  0  0
  -19.6714  -27.3193   20.6753 H   0  0  0  0  0  0
  -17.4204  -26.6668   21.4019 H   0  0  0  0  0  0
  -18.0337  -26.0068   22.9017 H   0  0  0  0  0  0
  -19.7947  -30.7250   24.2277 H   0  0  0  0  0  0
  -17.5036  -31.6280   24.5156 H   0  0  0  0  0  0
  -15.5360  -30.3011   23.7668 H   0  0  0  0  0  0
  -15.8658  -28.0855   22.7056 H   0  0  0  0  0  0
  -24.5883  -30.7074   25.7748 H   0  0  0  0  0  0
  -24.8888  -32.2884   26.4857 H   0  0  0  0  0  0
  -25.8022  -30.8888   27.0214 H   0  0  0  0  0  0
  -26.2851  -29.6824   24.1107 H   0  0  0  0  0  0
  -27.4096  -29.7282   25.4506 H   0  0  0  0  0  0
  -27.8667  -30.4412   23.9205 H   0  0  0  0  0  0
  -27.2664  -33.3614   26.2073 H   0  0  0  0  0  0
  -28.3842  -32.6879   25.0312 H   0  0  0  0  0  0
  -28.0697  -31.8428   26.5386 H   0  0  0  0  0  0
  -28.2606  -38.0102   24.7531 H   0  0  0  0  0  0
  -28.1094  -36.2635   24.6298 H   0  0  0  0  0  0
  -27.2296  -37.1437   25.8870 H   0  0  0  0  0  0
  -20.9305  -29.8749   21.6920 H   0  0  0  0  0  0
  -26.0202  -38.2891   24.1413 H   0  0  0  0  0  0
  -33.4663  -18.5907   22.0484 H   0  0  0  0  0  0
  -31.9064  -20.4924   22.0270 H   0  0  0  0  0  0
  -32.6765  -16.3023   21.6871 H   0  0  0  0  0  0
  -28.6368  -17.7749   21.2109 H   0  0  0  0  0  0
  -27.0931  -21.8084   24.0919 H   0  0  0  0  0  0
  -26.6213  -21.4271   22.4538 H   0  0  0  0  0  0
  -28.0816  -19.6451   23.3321 H   0  0  0  0  0  0
  -29.3199  -20.7968   23.7600 H   0  0  0  0  0  0
  -28.8329  -23.3588   23.3053 H   0  0  0  0  0  0
  -27.2986  -23.7877   22.6078 H   0  0  0  0  0  0
  -28.3475  -20.2008   20.9256 H   0  0  0  0  0  0
  -27.9150  -22.6033   20.4806 H   0  0  0  0  0  0
  -29.9973  -24.1547   19.9146 H   0  0  0  0  0  0
  -29.7680  -24.7782   21.5264 H   0  0  0  0  0  0
  -27.2352  -25.0212   20.7644 H   0  0  0  0  0  0
  -27.8836  -24.8805   19.1479 H   0  0  0  0  0  0
  -29.1361  -15.3325   21.4313 H   0  0  0  0  0  0
  -30.0447  -21.6615   20.2251 H   0  0  0  0  0  0
  -30.4767  -22.0269   21.7486 H   0  0  0  0  0  0
  1 25  1  0  0  0
  1 30  2  0  0  0
  1 84  1  0  0  0
  2  3  1  0  0  0
  2 25  1  0  0  0
  2 86  1  0  0  0
  2 87  1  0  0  0
  3  4  1  0  0  0
  3 88  1  0  0  0
  3 89  1  0  0  0
  4  5  1  0  0  0
  4 90  1  0  0  0
  4 91  1  0  0  0
  5  6  1  0  0  0
  5 26  1  0  0  0
  5 92  1  0  0  0
  6 25  1  0  0  0
  6 93  1  0  0  0
  6 94  1  0  0  0
  7  8  2  0  0  0
  7 26  1  0  0  0
  7 29  1  0  0  0
  8  9  1  0  0  0
  8 22  1  0  0  0
  9 10  1  0  0  0
  9 27  2  0  0  0
 10 11  2  0  0  0
 10 15  1  0  0  0
 11 12  1  0  0  0
 11 95  1  0  0  0
 12 13  2  0  0  0
 12 96  1  0  0  0
 13 14  1  0  0  0
 13 31  1  0  0  0
 14 15  2  0  0  0
 14 97  1  0  0  0
 15 98  1  0  0  0
 16 17  2  0  0  0
 16 21  1  0  0  0
 16 31  1  0  0  0
 17 18  1  0  0  0
 17 99  1  0  0  0
 18 19  2  0  0  0
 18100  1  0  0  0
 19 20  1  0  0  0
 19 24  1  0  0  0
 20 21  2  0  0  0
 20101  1  0  0  0
 21 23  1  0  0  0
 22 28  1  0  0  0
 22 32  2  0  0  0
 26 27  1  0  0  0
 28102  1  0  0  0
 28103  1  0  0  0
 29104  1  0  0  0
 29105  1  0  0  0
 33 34  1  0  0  0
 33 66  1  0  0  0
 33 70  2  0  0  0
 34 36  1  0  0  0
 34 59  1  0  0  0
 34106  1  0  0  0
 35 44  2  0  0  0
 35 45  1  0  0  0
 35 68  1  0  0  0
 36 56  1  0  0  0
 36107  1  0  0  0
 37 39  1  0  0  0
 37 47  1  0  0  0
 37 66  1  0  0  0
 37108  1  0  0  0
 38 43  2  0  0  0
 38 46  1  0  0  0
 38 47  1  0  0  0
 39 64  1  0  0  0
 39 67  2  0  0  0
 40 52  1  0  0  0
 40 53  2  0  0  0
 40 58  1  0  0  0
 41109  1  0  0  0
 41110  1  0  0  0
 41111  1  0  0  0
 41 48  1  0  0  0
 42 43  1  0  0  0
 42 66  1  0  0  0
 42112  1  0  0  0
 42113  1  0  0  0
 43 44  1  0  0  0
 44114  1  0  0  0
 45 46  2  0  0  0
 45115  1  0  0  0
 46116  1  0  0  0
 47117  1  0  0  0
 47118  1  0  0  0
 48 56  1  0  0  0
 48 65  1  0  0  0
 48119  1  0  0  0
 49 50  1  0  0  0
 49 53  1  0  0  0
 49 64  1  0  0  0
 49120  1  0  0  0
 50 51  1  0  0  0
 50121  1  0  0  0
 50122  1  0  0  0
 51 52  1  0  0  0
 51123  1  0  0  0
 51124  1  0  0  0
 52125  1  0  0  0
 52126  1  0  0  0
 53 54  1  0  0  0
 54 55  2  0  0  0
 54127  1  0  0  0
 55 57  1  0  0  0
 55128  1  0  0  0
 56 69  2  0  0  0
 57 58  2  0  0  0
 57129  1  0  0  0
 58130  1  0  0  0
 59 60  1  0  0  0
 59 61  1  0  0  0
 59 62  1  0  0  0
 60131  1  0  0  0
 60132  1  0  0  0
 60133  1  0  0  0
 61134  1  0  0  0
 61135  1  0  0  0
 61136  1  0  0  0
 62137  1  0  0  0
 62138  1  0  0  0
 62139  1  0  0  0
 63 65  1  0  0  0
 63140  1  0  0  0
 63141  1  0  0  0
 63142  1  0  0  0
 64143  1  0  0  0
 65144  1  0  0  0
 68 83  1  0  0  0
 71 72  2  0  0  0
 71 73  1  0  0  0
 71145  1  0  0  0
 72 75  1  0  0  0
 72146  1  0  0  0
 73 76  2  0  0  0
 73147  1  0  0  0
 74 75  2  0  0  0
 74 76  1  0  0  0
 74148  1  0  0  0
 75 80  1  0  0  0
 76 84  1  0  0  0
 77 78  1  0  0  0
 77 79  1  0  0  0
 77149  1  0  0  0
 77150  1  0  0  0
 78 80  1  0  0  0
 78151  1  0  0  0
 78152  1  0  0  0
 79 81  1  0  0  0
 79153  1  0  0  0
 79154  1  0  0  0
 80 85  1  0  0  0
 80155  1  0  0  0
 81 82  1  0  0  0
 81 85  1  0  0  0
 81156  1  0  0  0
 82 83  1  0  0  0
 82157  1  0  0  0
 82158  1  0  0  0
 83159  1  0  0  0
 83160  1  0  0  0
 84161  1  0  0  0
 85162  1  0  0  0
 85163  1  0  0  0
M  CHG  1  85   1
M  ISO  4   1 100  68 101  83 101  84 100
M  END
> <chiral flag>
0

> <version>
0

> <s_m_source_file>
/data/baiqing/PycharmProjects/Reinvent-master-3.2/result/LINK_invent/BTK/process_docking_weight1_custom_product_contain_oxygen_bond_distance_aromatic_linkinvent_7_9_3/rearranged_h_0161.sdf

> <i_m_source_file_index>
13

> <r_mmod_Potential_Energy-OPLS-2005>
-170.734878540039

> <r_mmod_Stretch_Energy-OPLS-2005>
46.154354095459

> <r_mmod_Bend_Energy-OPLS-2005>
100.167297363281

> <r_mmod_Torsional_Energy-OPLS-2005>
248.530303955078

> <r_mmod_Improper_Torsional_Energy-OPLS-2005>
3.2443699836731

> <r_mmod_Van_der_Waal_Energy-OPLS-2005>
166.900100708008

> <r_mmod_Electrostatic_Energy-OPLS-2005>
-287.217620849609

> <r_mmod_Solvation_Energy-OPLS-2005>
-465.319580078125

> <b_mmod_Minimization_Converged-OPLS-2005>
0

> <r_mmod_RMS_Derivative-OPLS-2005>
1.79991042613983

$$$$
13
                    3D
 Structure written by MMmdl.
152160  0  0  1  0            999 V2000
  -30.5864  -14.7530   20.4497 C   0  0  0  0  0  0
  -30.4407  -12.4517   19.4908 C   0  0  0  0  0  0
  -29.5220  -12.5099   18.2480 C   0  0  0  0  0  0
  -28.0440  -12.3299   18.6527 C   0  0  0  0  0  0
  -27.6427  -13.2308   19.8500 C   0  0  2  0  0  0
  -28.6801  -13.1628   20.9896 C   0  0  0  0  0  0
  -25.2511  -13.8179   20.5658 C   0  0  0  0  0  0
  -24.1794  -13.0444   20.9195 C   0  0  0  0  0  0
  -24.6376  -11.6927   20.8738 C   0  0  0  0  0  0
  -23.9036  -10.4310   21.0398 C   0  0  0  0  0  0
  -24.3607   -9.4234   21.9166 C   0  0  0  0  0  0
  -23.6301   -8.2259   22.0728 C   0  0  0  0  0  0
  -22.4281   -8.0287   21.3528 C   0  0  0  0  0  0
  -21.9914   -9.0248   20.4627 C   0  0  0  0  0  0
  -22.7216  -10.2141   20.3041 C   0  0  0  0  0  0
  -21.6855   -6.0753   22.5274 C   0  0  0  0  0  0
  -21.4004   -6.5651   23.8209 C   0  0  0  0  0  0
  -21.3666   -5.6799   24.9170 C   0  0  0  0  0  0
  -21.6036   -4.3059   24.7215 C   0  0  0  0  0  0
  -21.8823   -3.8162   23.4335 C   0  0  0  0  0  0
  -21.9198   -4.6983   22.3397 C   0  0  0  0  0  0
  -22.7833  -13.5234   21.1889 C   0  0  0  0  0  0
  -22.1673   -4.2176   21.0974 F   0  0  0  0  0  0
  -21.5636   -3.4544   25.7727 F   0  0  0  0  0  0
  -29.9928  -13.5102   20.4246 N   0  0  0  0  0  0
  -26.2926  -12.9383   20.3253 N   0  0  0  0  0  0
  -25.9311  -11.6527   20.5754 N   0  0  0  0  0  0
  -22.0507  -12.8190   22.0447 N   0  0  0  0  0  0
  -25.4248  -15.1871   20.4019 N   0  0  0  0  0  0
  -31.7688  -14.8389   20.1068 O   0  0  0  0  0  0
  -21.6643   -6.8891   21.4232 O   0  0  0  0  0  0
  -22.3521  -14.5555   20.6770 O   0  0  0  0  0  0
  -24.6327  -31.8552   23.1972 C   0  0  0  0  0  0
  -25.9143  -32.4755   23.8321 C   0  0  1  0  0  0
  -27.2239  -27.2617   20.1176 C   0  0  0  0  0  0
  -25.5928  -33.8552   24.2257 N   0  0  0  0  0  0
  -23.4282  -30.4795   21.5426 C   0  0  2  0  0  0
  -24.8719  -28.9223   20.1087 C   0  0  0  0  0  0
  -22.7447  -29.4662   22.4921 C   0  0  0  0  0  0
  -18.0269  -28.1398   22.8485 C   0  0  0  0  0  0
  -24.1491  -36.7283   23.2647 C   0  0  0  0  0  0
  -25.9736  -30.7651   21.3768 C   0  0  0  0  0  0
  -26.0430  -29.3880   20.7173 C   0  0  0  0  0  0
  -27.2172  -28.5705   20.7115 C   0  0  0  0  0  0
  -26.0225  -26.8564   19.4906 C   0  0  0  0  0  0
  -24.8675  -27.6634   19.4866 C   0  0  0  0  0  0
  -23.6443  -29.8113   20.1595 C   0  0  0  0  0  0
  -25.4116  -36.3070   24.0330 C   0  0  1  0  0  0
  -20.5871  -28.3742   23.1254 C   0  0  2  0  0  0
  -20.6779  -26.9463   22.5382 C   0  0  0  0  0  0
  -19.5754  -26.6379   21.5210 C   0  0  0  0  0  0
  -18.1938  -26.7930   22.1635 C   0  0  0  0  0  0
  -19.1513  -28.8873   23.2865 C   0  0  0  0  0  0
  -18.9443  -30.1473   23.8900 C   0  0  0  0  0  0
  -17.6446  -30.6598   24.0568 C   0  0  0  0  0  0
  -25.9048  -34.9438   23.5111 C   0  0  0  0  0  0
  -16.5341  -29.9101   23.6331 C   0  0  0  0  0  0
  -16.7250  -28.6511   23.0355 C   0  0  0  0  0  0
  -26.4491  -31.6575   25.0720 C   0  0  0  0  0  0
  -25.3694  -31.3749   26.1436 C   0  0  0  0  0  0
  -27.0350  -30.2985   24.6230 C   0  0  0  0  0  0
  -27.6042  -32.4323   25.7494 C   0  0  0  0  0  0
  -27.5585  -37.1800   24.8472 C   0  0  0  0  0  0
  -21.4152  -29.3107   22.3634 N   0  0  0  0  0  0
  -26.4296  -37.3771   23.9415 N   0  0  0  0  0  0
  -24.6981  -31.0497   22.0960 N   0  0  0  0  0  0
  -23.4106  -28.8214   23.3059 O   0  0  0  0  0  0
  -28.3402  -26.3957   20.2002 O   0  0  0  0  0  0
  -26.5635  -34.8914   22.4686 O   0  0  0  0  0  0
  -23.5465  -32.1396   23.7240 O   0  0  0  0  0  0
  -27.0694  -19.4510   20.8891 C   0  0  0  0  0  0
  -27.9413  -18.2952   20.8215 C   0  0  0  0  0  0
  -27.4954  -20.6982   20.6288 C   0  0  0  0  0  0
  -29.2373  -18.4260   20.4835 C   0  0  0  0  0  0
  -29.6639  -19.8228   20.2112 C   0  0  0  0  0  0
  -30.0798  -17.1134   20.3675 C   0  0  0  0  0  0
  -28.5613  -23.7219   20.4311 C   0  0  0  0  0  0
  -29.1777  -22.3765   19.8034 C   0  0  0  0  0  0
  -28.4142  -25.0466   19.5345 C   0  0  0  0  0  0
  -29.7288  -15.8805   20.6986 N   0  0  0  0  0  0
  -28.8212  -20.9502   20.2953 N   0  0  0  0  0  0
  -30.9383  -20.0439   19.8371 N   0  3  0  0  0  0
  -28.2055  -23.7395   21.6157 O   0  0  0  0  0  0
  -31.4845  -12.5649   19.1917 H   0  0  0  0  0  0
  -30.3782  -11.4779   19.9783 H   0  0  0  0  0  0
  -29.8171  -11.7415   17.5309 H   0  0  0  0  0  0
  -29.6487  -13.4691   17.7428 H   0  0  0  0  0  0
  -27.9009  -11.2827   18.9202 H   0  0  0  0  0  0
  -27.3893  -12.5148   17.8012 H   0  0  0  0  0  0
  -27.6426  -14.2535   19.4700 H   0  0  0  0  0  0
  -28.7080  -12.1674   21.4357 H   0  0  0  0  0  0
  -28.4053  -13.8471   21.7948 H   0  0  0  0  0  0
  -25.2758   -9.5749   22.4728 H   0  0  0  0  0  0
  -24.0048   -7.4656   22.7425 H   0  0  0  0  0  0
  -21.0863   -8.8736   19.8924 H   0  0  0  0  0  0
  -22.3650  -10.9675   19.6154 H   0  0  0  0  0  0
  -21.1971   -7.6158   23.9712 H   0  0  0  0  0  0
  -21.1487   -6.0532   25.9070 H   0  0  0  0  0  0
  -22.0592   -2.7629   23.2824 H   0  0  0  0  0  0
  -22.4177  -11.9853   22.4800 H   0  0  0  0  0  0
  -21.1114  -13.1155   22.2691 H   0  0  0  0  0  0
  -24.6606  -15.8486   20.4765 H   0  0  0  0  0  0
  -26.2843  -15.5955   20.0577 H   0  0  0  0  0  0
  -26.7222  -32.5386   23.1069 H   0  0  0  0  0  0
  -25.0046  -33.9689   25.0382 H   0  0  0  0  0  0
  -22.7305  -31.3053   21.3958 H   0  0  0  0  0  0
  -23.3748  -35.9625   23.3308 H   0  0  0  0  0  0
  -24.3583  -36.8897   22.2067 H   0  0  0  0  0  0
  -23.7238  -37.6484   23.6655 H   0  0  0  0  0  0
  -26.1155  -31.5240   20.6064 H   0  0  0  0  0  0
  -26.8495  -30.8094   22.0127 H   0  0  0  0  0  0
  -28.1124  -28.9290   21.2005 H   0  0  0  0  0  0
  -25.9206  -25.8916   19.0210 H   0  0  0  0  0  0
  -23.9714  -27.2922   19.0086 H   0  0  0  0  0  0
  -23.7670  -30.5890   19.4049 H   0  0  0  0  0  0
  -22.7598  -29.2470   19.8612 H   0  0  0  0  0  0
  -25.1293  -36.1941   25.0821 H   0  0  0  0  0  0
  -20.9951  -28.3343   24.1377 H   0  0  0  0  0  0
  -21.6649  -26.7521   22.1151 H   0  0  0  0  0  0
  -20.5720  -26.2344   23.3580 H   0  0  0  0  0  0
  -19.6910  -25.6264   21.1309 H   0  0  0  0  0  0
  -19.6724  -27.3111   20.6676 H   0  0  0  0  0  0
  -17.4215  -26.6627   21.4048 H   0  0  0  0  0  0
  -18.0373  -26.0101   22.9055 H   0  0  0  0  0  0
  -19.7925  -30.7273   24.2279 H   0  0  0  0  0  0
  -17.4993  -31.6297   24.5142 H   0  0  0  0  0  0
  -15.5347  -30.2988   23.7670 H   0  0  0  0  0  0
  -15.8642  -28.0846   22.7077 H   0  0  0  0  0  0
  -24.5863  -30.7105   25.7778 H   0  0  0  0  0  0
  -24.8884  -32.2924   26.4825 H   0  0  0  0  0  0
  -25.7973  -30.8956   27.0245 H   0  0  0  0  0  0
  -26.2958  -29.6733   24.1210 H   0  0  0  0  0  0
  -27.3984  -29.7252   25.4768 H   0  0  0  0  0  0
  -27.8847  -30.4272   23.9522 H   0  0  0  0  0  0
  -27.2642  -33.3629   26.2053 H   0  0  0  0  0  0
  -28.3841  -32.6872   25.0309 H   0  0  0  0  0  0
  -28.0714  -31.8459   26.5416 H   0  0  0  0  0  0
  -28.2607  -38.0094   24.7491 H   0  0  0  0  0  0
  -28.1063  -36.2610   24.6313 H   0  0  0  0  0  0
  -27.2292  -37.1483   25.8874 H   0  0  0  0  0  0
  -20.9305  -29.8796   21.6829 H   0  0  0  0  0  0
  -26.0172  -38.2857   24.1371 H   0  0  0  0  0  0
  -26.0234  -19.3100   21.1286 H   0  0  0  0  0  0
  -27.5208  -17.3214   21.0221 H   0  0  0  0  0  0
  -26.8344  -21.5513   20.6459 H   0  0  0  0  0  0
  -31.0695  -17.3057   19.9428 H   0  0  0  0  0  0
  -30.2558  -22.4860   19.8908 H   0  0  0  0  0  0
  -28.9692  -22.3961   18.7342 H   0  0  0  0  0  0
  -27.6006  -24.8814   18.8337 H   0  0  0  0  0  0
  -29.3035  -25.0829   18.9048 H   0  0  0  0  0  0
  -31.5895  -19.2885   19.6963 H   0  0  0  0  0  0
  -31.2958  -20.9766   19.7074 H   0  0  0  0  0  0
  1 25  1  0  0  0
  1 30  2  0  0  0
  1 80  1  0  0  0
  2  3  1  0  0  0
  2 25  1  0  0  0
  2 84  1  0  0  0
  2 85  1  0  0  0
  3  4  1  0  0  0
  3 86  1  0  0  0
  3 87  1  0  0  0
  4  5  1  0  0  0
  4 88  1  0  0  0
  4 89  1  0  0  0
  5  6  1  0  0  0
  5 26  1  0  0  0
  5 90  1  0  0  0
  6 25  1  0  0  0
  6 91  1  0  0  0
  6 92  1  0  0  0
  7  8  2  0  0  0
  7 26  1  0  0  0
  7 29  1  0  0  0
  8  9  1  0  0  0
  8 22  1  0  0  0
  9 10  1  0  0  0
  9 27  2  0  0  0
 10 11  2  0  0  0
 10 15  1  0  0  0
 11 12  1  0  0  0
 11 93  1  0  0  0
 12 13  2  0  0  0
 12 94  1  0  0  0
 13 14  1  0  0  0
 13 31  1  0  0  0
 14 15  2  0  0  0
 14 95  1  0  0  0
 15 96  1  0  0  0
 16 17  2  0  0  0
 16 21  1  0  0  0
 16 31  1  0  0  0
 17 18  1  0  0  0
 17 97  1  0  0  0
 18 19  2  0  0  0
 18 98  1  0  0  0
 19 20  1  0  0  0
 19 24  1  0  0  0
 20 21  2  0  0  0
 20 99  1  0  0  0
 21 23  1  0  0  0
 22 28  1  0  0  0
 22 32  2  0  0  0
 26 27  1  0  0  0
 28100  1  0  0  0
 28101  1  0  0  0
 29102  1  0  0  0
 29103  1  0  0  0
 33 34  1  0  0  0
 33 66  1  0  0  0
 33 70  2  0  0  0
 34 36  1  0  0  0
 34 59  1  0  0  0
 34104  1  0  0  0
 35 44  2  0  0  0
 35 45  1  0  0  0
 35 68  1  0  0  0
 36 56  1  0  0  0
 36105  1  0  0  0
 37 39  1  0  0  0
 37 47  1  0  0  0
 37 66  1  0  0  0
 37106  1  0  0  0
 38 43  2  0  0  0
 38 46  1  0  0  0
 38 47  1  0  0  0
 39 64  1  0  0  0
 39 67  2  0  0  0
 40 52  1  0  0  0
 40 53  2  0  0  0
 40 58  1  0  0  0
 41107  1  0  0  0
 41108  1  0  0  0
 41109  1  0  0  0
 41 48  1  0  0  0
 42 43  1  0  0  0
 42 66  1  0  0  0
 42110  1  0  0  0
 42111  1  0  0  0
 43 44  1  0  0  0
 44112  1  0  0  0
 45 46  2  0  0  0
 45113  1  0  0  0
 46114  1  0  0  0
 47115  1  0  0  0
 47116  1  0  0  0
 48 56  1  0  0  0
 48 65  1  0  0  0
 48117  1  0  0  0
 49 50  1  0  0  0
 49 53  1  0  0  0
 49 64  1  0  0  0
 49118  1  0  0  0
 50 51  1  0  0  0
 50119  1  0  0  0
 50120  1  0  0  0
 51 52  1  0  0  0
 51121  1  0  0  0
 51122  1  0  0  0
 52123  1  0  0  0
 52124  1  0  0  0
 53 54  1  0  0  0
 54 55  2  0  0  0
 54125  1  0  0  0
 55 57  1  0  0  0
 55126  1  0  0  0
 56 69  2  0  0  0
 57 58  2  0  0  0
 57127  1  0  0  0
 58128  1  0  0  0
 59 60  1  0  0  0
 59 61  1  0  0  0
 59 62  1  0  0  0
 60129  1  0  0  0
 60130  1  0  0  0
 60131  1  0  0  0
 61132  1  0  0  0
 61133  1  0  0  0
 61134  1  0  0  0
 62135  1  0  0  0
 62136  1  0  0  0
 62137  1  0  0  0
 63 65  1  0  0  0
 63138  1  0  0  0
 63139  1  0  0  0
 63140  1  0  0  0
 64141  1  0  0  0
 65142  1  0  0  0
 68 79  1  0  0  0
 71 72  1  0  0  0
 71 73  2  0  0  0
 71143  1  0  0  0
 72 74  2  0  0  0
 72144  1  0  0  0
 73 81  1  0  0  0
 73145  1  0  0  0
 74 75  1  0  0  0
 74 76  1  0  0  0
 75 81  1  0  0  0
 75 82  2  0  0  0
 76 80  2  0  0  0
 76146  1  0  0  0
 77 78  1  0  0  0
 77 79  1  0  0  0
 77 83  2  0  0  0
 78 81  1  0  0  0
 78147  1  0  0  0
 78148  1  0  0  0
 79149  1  0  0  0
 79150  1  0  0  0
 82151  1  0  0  0
 82152  1  0  0  0
M  CHG  1  82   1
M  ISO  4   1 100  68 101  79 101  80 100
M  END
> <chiral flag>
0

> <version>
0

> <s_m_source_file>
/data/baiqing/PycharmProjects/Reinvent-master-3.2/result/LINK_invent/BTK/process_docking_weight1_custom_product_contain_oxygen_bond_distance_aromatic_linkinvent_7_9_3/rearranged_h_0161.sdf

> <i_m_source_file_index>
14

> <r_mmod_Potential_Energy-OPLS-2005>
63.0500564575195

> <r_mmod_Stretch_Energy-OPLS-2005>
137.301483154297

> <r_mmod_Bend_Energy-OPLS-2005>
176.037750244141

> <r_mmod_Torsional_Energy-OPLS-2005>
208.942840576172

> <r_mmod_Improper_Torsional_Energy-OPLS-2005>
4.75426912307739

> <r_mmod_Van_der_Waal_Energy-OPLS-2005>
142.034164428711

> <r_mmod_Electrostatic_Energy-OPLS-2005>
-214.524520874023

> <r_mmod_Solvation_Energy-OPLS-2005>
-476.483154296875

> <b_mmod_Minimization_Converged-OPLS-2005>
0

> <r_mmod_RMS_Derivative-OPLS-2005>
3.25175428390503

$$$$
14
                    3D
 Structure written by MMmdl.
155163  0  0  1  0            999 V2000
  -30.5855  -14.8542   20.4283 C   0  0  0  0  0  0
  -30.4366  -12.5241   19.4938 C   0  0  0  0  0  0
  -29.5189  -12.5234   18.2502 C   0  0  0  0  0  0
  -28.0479  -12.3272   18.6626 C   0  0  0  0  0  0
  -27.6373  -13.2428   19.8457 C   0  0  2  0  0  0
  -28.6799  -13.2316   20.9861 C   0  0  0  0  0  0
  -25.2492  -13.8211   20.5698 C   0  0  0  0  0  0
  -24.1796  -13.0444   20.9219 C   0  0  0  0  0  0
  -24.6400  -11.6927   20.8750 C   0  0  0  0  0  0
  -23.9071  -10.4303   21.0408 C   0  0  0  0  0  0
  -24.3621   -9.4215   21.9181 C   0  0  0  0  0  0
  -23.6301   -8.2245   22.0744 C   0  0  0  0  0  0
  -22.4282   -8.0284   21.3538 C   0  0  0  0  0  0
  -21.9922   -9.0259   20.4637 C   0  0  0  0  0  0
  -22.7246  -10.2142   20.3051 C   0  0  0  0  0  0
  -21.6856   -6.0739   22.5281 C   0  0  0  0  0  0
  -21.4014   -6.5642   23.8216 C   0  0  0  0  0  0
  -21.3661   -5.6788   24.9176 C   0  0  0  0  0  0
  -21.6050   -4.3051   24.7223 C   0  0  0  0  0  0
  -21.8819   -3.8146   23.4340 C   0  0  0  0  0  0
  -21.9192   -4.6965   22.3399 C   0  0  0  0  0  0
  -22.7815  -13.5223   21.1871 C   0  0  0  0  0  0
  -22.1660   -4.2152   21.0976 F   0  0  0  0  0  0
  -21.5632   -3.4534   25.7732 F   0  0  0  0  0  0
  -29.9711  -13.6094   20.3986 N   0  0  0  0  0  0
  -26.2919  -12.9433   20.3253 N   0  0  0  0  0  0
  -25.9332  -11.6568   20.5732 N   0  0  0  0  0  0
  -22.0454  -12.8214   22.0421 N   0  0  0  0  0  0
  -25.4177  -15.1938   20.4112 N   0  0  0  0  0  0
  -31.7806  -14.9053   20.1215 O   0  0  0  0  0  0
  -21.6640   -6.8885   21.4245 O   0  0  0  0  0  0
  -22.3504  -14.5533   20.6719 O   0  0  0  0  0  0
  -24.6372  -31.8498   23.1937 C   0  0  0  0  0  0
  -25.9172  -32.4724   23.8308 C   0  0  1  0  0  0
  -27.2136  -27.1925   20.1456 C   0  0  0  0  0  0
  -25.5945  -33.8530   24.2221 N   0  0  0  0  0  0
  -23.4382  -30.4711   21.5376 C   0  0  2  0  0  0
  -24.8869  -28.9073   20.1100 C   0  0  0  0  0  0
  -22.7537  -29.4575   22.4878 C   0  0  0  0  0  0
  -18.0300  -28.1388   22.8477 C   0  0  0  0  0  0
  -24.1499  -36.7284   23.2637 C   0  0  0  0  0  0
  -25.9891  -30.7395   21.3866 C   0  0  0  0  0  0
  -26.0596  -29.3542   20.7323 C   0  0  0  0  0  0
  -27.2243  -28.5084   20.7420 C   0  0  0  0  0  0
  -26.0245  -26.8423   19.4688 C   0  0  0  0  0  0
  -24.8777  -27.6614   19.4657 C   0  0  0  0  0  0
  -23.6623  -29.8042   20.1546 C   0  0  0  0  0  0
  -25.4125  -36.3055   24.0317 C   0  0  1  0  0  0
  -20.5908  -28.3712   23.1248 C   0  0  2  0  0  0
  -20.6785  -26.9422   22.5404 C   0  0  0  0  0  0
  -19.5761  -26.6384   21.5208 C   0  0  0  0  0  0
  -18.1944  -26.7929   22.1621 C   0  0  0  0  0  0
  -19.1555  -28.8864   23.2859 C   0  0  0  0  0  0
  -18.9471  -30.1460   23.8887 C   0  0  0  0  0  0
  -17.6469  -30.6585   24.0558 C   0  0  0  0  0  0
  -25.9069  -34.9423   23.5075 C   0  0  0  0  0  0
  -16.5360  -29.9083   23.6325 C   0  0  0  0  0  0
  -16.7285  -28.6500   23.0349 C   0  0  0  0  0  0
  -26.4511  -31.6570   25.0725 C   0  0  0  0  0  0
  -25.3712  -31.3752   26.1435 C   0  0  0  0  0  0
  -27.0353  -30.2966   24.6270 C   0  0  0  0  0  0
  -27.6058  -32.4314   25.7506 C   0  0  0  0  0  0
  -27.5585  -37.1798   24.8454 C   0  0  0  0  0  0
  -21.4235  -29.3051   22.3626 N   0  0  0  0  0  0
  -26.4295  -37.3759   23.9403 N   0  0  0  0  0  0
  -24.7073  -31.0403   22.0947 N   0  0  0  0  0  0
  -23.4206  -28.8120   23.3003 O   0  0  0  0  0  0
  -28.2781  -26.2388   20.1931 O   0  0  0  0  0  0
  -26.5654  -34.8907   22.4653 O   0  0  0  0  0  0
  -23.5509  -32.1353   23.7189 O   0  0  0  0  0  0
  -31.0527  -19.6197   19.3081 C   0  0  0  0  0  0
  -29.9451  -19.8891   20.0980 C   0  0  0  0  0  0
  -30.1168  -17.4645   20.2803 C   0  0  0  0  0  0
  -28.0273  -24.8106   20.2882 C   0  0  0  0  0  0
  -28.9336  -23.7402   20.2636 C   0  0  0  0  0  0
  -28.5828  -22.2430   20.3370 C   0  0  0  0  0  0
  -32.7967  -21.4785   19.4315 C   0  0  0  0  0  0
  -31.1963  -21.3484   17.4389 C   0  0  0  0  0  0
  -31.9382  -20.5691   18.5377 C   0  0  0  0  0  0
  -29.4164  -18.6255   20.6337 N   0  0  0  0  0  0
  -29.6573  -21.3556   20.3240 N   0  0  0  0  0  0
  -29.8307  -16.0259   20.6405 N   0  0  0  0  0  0
  -27.4257  -21.8257   20.4118 O   0  0  0  0  0  0
  -30.2341  -24.0462   20.1539 O   0  0  0  0  0  0
  -31.4505  -17.9027   19.2198 S   0  0  0  0  0  0
  -31.4754  -12.6571   19.1861 H   0  0  0  0  0  0
  -30.4001  -11.5597   20.0027 H   0  0  0  0  0  0
  -29.8245  -11.7399   17.5550 H   0  0  0  0  0  0
  -29.6272  -13.4683   17.7156 H   0  0  0  0  0  0
  -27.9219  -11.2813   18.9450 H   0  0  0  0  0  0
  -27.3899  -12.4947   17.8088 H   0  0  0  0  0  0
  -27.6168  -14.2547   19.4399 H   0  0  0  0  0  0
  -28.7411  -12.2471   21.4537 H   0  0  0  0  0  0
  -28.3929  -13.9292   21.7745 H   0  0  0  0  0  0
  -25.2765   -9.5697   22.4752 H   0  0  0  0  0  0
  -24.0017   -7.4635   22.7459 H   0  0  0  0  0  0
  -21.0852   -8.8774   19.8945 H   0  0  0  0  0  0
  -22.3698  -10.9677   19.6160 H   0  0  0  0  0  0
  -21.2005   -7.6149   23.9720 H   0  0  0  0  0  0
  -21.1486   -6.0515   25.9079 H   0  0  0  0  0  0
  -22.0598   -2.7609   23.2830 H   0  0  0  0  0  0
  -22.4058  -11.9877   22.4824 H   0  0  0  0  0  0
  -21.1061  -13.1223   22.2593 H   0  0  0  0  0  0
  -24.6511  -15.8464   20.5333 H   0  0  0  0  0  0
  -26.2531  -15.6323   20.0455 H   0  0  0  0  0  0
  -26.7239  -32.5353   23.1043 H   0  0  0  0  0  0
  -25.0051  -33.9660   25.0341 H   0  0  0  0  0  0
  -22.7383  -31.2955   21.3878 H   0  0  0  0  0  0
  -23.3755  -35.9623   23.3282 H   0  0  0  0  0  0
  -24.3591  -36.8931   22.2056 H   0  0  0  0  0  0
  -23.7262  -37.6482   23.6680 H   0  0  0  0  0  0
  -26.1372  -31.4942   20.6130 H   0  0  0  0  0  0
  -26.8631  -30.7907   22.0240 H   0  0  0  0  0  0
  -28.1193  -28.8418   21.2488 H   0  0  0  0  0  0
  -25.9597  -25.8965   18.9511 H   0  0  0  0  0  0
  -23.9842  -27.3191   18.9618 H   0  0  0  0  0  0
  -23.7966  -30.5808   19.4004 H   0  0  0  0  0  0
  -22.7785  -29.2443   19.8435 H   0  0  0  0  0  0
  -25.1309  -36.1892   25.0810 H   0  0  0  0  0  0
  -21.0004  -28.3297   24.1366 H   0  0  0  0  0  0
  -20.5676  -26.2326   23.3617 H   0  0  0  0  0  0
  -21.6654  -26.7434   22.1204 H   0  0  0  0  0  0
  -19.6925  -25.6293   21.1243 H   0  0  0  0  0  0
  -19.6695  -27.3187   20.6731 H   0  0  0  0  0  0
  -17.4213  -26.6666   21.4028 H   0  0  0  0  0  0
  -18.0352  -26.0074   22.9022 H   0  0  0  0  0  0
  -19.7948  -30.7272   24.2264 H   0  0  0  0  0  0
  -17.5024  -31.6263   24.5163 H   0  0  0  0  0  0
  -15.5360  -30.2981   23.7648 H   0  0  0  0  0  0
  -15.8689  -28.0814   22.7066 H   0  0  0  0  0  0
  -24.5876  -30.7119   25.7755 H   0  0  0  0  0  0
  -24.8919  -32.2934   26.4839 H   0  0  0  0  0  0
  -25.8003  -30.8930   27.0227 H   0  0  0  0  0  0
  -26.2943  -29.6707   24.1281 H   0  0  0  0  0  0
  -27.3974  -29.7249   25.4826 H   0  0  0  0  0  0
  -27.8856  -30.4200   23.9560 H   0  0  0  0  0  0
  -27.2660  -33.3619   26.2067 H   0  0  0  0  0  0
  -28.3881  -32.6864   25.0345 H   0  0  0  0  0  0
  -28.0711  -31.8448   26.5439 H   0  0  0  0  0  0
  -28.2580  -38.0115   24.7511 H   0  0  0  0  0  0
  -28.1103  -36.2643   24.6261 H   0  0  0  0  0  0
  -27.2306  -37.1422   25.8857 H   0  0  0  0  0  0
  -20.9433  -29.8777   21.6825 H   0  0  0  0  0  0
  -26.0165  -38.2834   24.1392 H   0  0  0  0  0  0
  -26.9726  -24.5983   20.3960 H   0  0  0  0  0  0
  -33.3903  -20.8915   20.1329 H   0  0  0  0  0  0
  -32.2011  -22.1818   20.0102 H   0  0  0  0  0  0
  -33.4919  -22.0663   18.8306 H   0  0  0  0  0  0
  -30.6801  -20.6699   16.7590 H   0  0  0  0  0  0
  -31.8921  -21.9388   16.8415 H   0  0  0  0  0  0
  -30.4564  -22.0385   17.8427 H   0  0  0  0  0  0
  -32.6608  -19.9543   17.9978 H   0  0  0  0  0  0
  -30.4952  -21.9163   20.2463 H   0  0  0  0  0  0
  -28.9039  -15.8617   20.9979 H   0  0  0  0  0  0
  -30.2901  -24.9931   20.1197 H   0  0  0  0  0  0
  1 25  1  0  0  0
  1 30  2  0  0  0
  1 82  1  0  0  0
  2  3  1  0  0  0
  2 25  1  0  0  0
  2 86  1  0  0  0
  2 87  1  0  0  0
  3  4  1  0  0  0
  3 88  1  0  0  0
  3 89  1  0  0  0
  4  5  1  0  0  0
  4 90  1  0  0  0
  4 91  1  0  0  0
  5  6  1  0  0  0
  5 26  1  0  0  0
  5 92  1  0  0  0
  6 25  1  0  0  0
  6 93  1  0  0  0
  6 94  1  0  0  0
  7  8  2  0  0  0
  7 26  1  0  0  0
  7 29  1  0  0  0
  8  9  1  0  0  0
  8 22  1  0  0  0
  9 10  1  0  0  0
  9 27  2  0  0  0
 10 11  2  0  0  0
 10 15  1  0  0  0
 11 12  1  0  0  0
 11 95  1  0  0  0
 12 13  2  0  0  0
 12 96  1  0  0  0
 13 14  1  0  0  0
 13 31  1  0  0  0
 14 15  2  0  0  0
 14 97  1  0  0  0
 15 98  1  0  0  0
 16 17  2  0  0  0
 16 21  1  0  0  0
 16 31  1  0  0  0
 17 18  1  0  0  0
 17 99  1  0  0  0
 18 19  2  0  0  0
 18100  1  0  0  0
 19 20  1  0  0  0
 19 24  1  0  0  0
 20 21  2  0  0  0
 20101  1  0  0  0
 21 23  1  0  0  0
 22 28  1  0  0  0
 22 32  2  0  0  0
 26 27  1  0  0  0
 28102  1  0  0  0
 28103  1  0  0  0
 29104  1  0  0  0
 29105  1  0  0  0
 33 34  1  0  0  0
 33 66  1  0  0  0
 33 70  2  0  0  0
 34 36  1  0  0  0
 34 59  1  0  0  0
 34106  1  0  0  0
 35 44  2  0  0  0
 35 45  1  0  0  0
 35 68  1  0  0  0
 36 56  1  0  0  0
 36107  1  0  0  0
 37 39  1  0  0  0
 37 47  1  0  0  0
 37 66  1  0  0  0
 37108  1  0  0  0
 38 43  2  0  0  0
 38 46  1  0  0  0
 38 47  1  0  0  0
 39 64  1  0  0  0
 39 67  2  0  0  0
 40 52  1  0  0  0
 40 53  2  0  0  0
 40 58  1  0  0  0
 41109  1  0  0  0
 41110  1  0  0  0
 41111  1  0  0  0
 41 48  1  0  0  0
 42 43  1  0  0  0
 42 66  1  0  0  0
 42112  1  0  0  0
 42113  1  0  0  0
 43 44  1  0  0  0
 44114  1  0  0  0
 45 46  2  0  0  0
 45115  1  0  0  0
 46116  1  0  0  0
 47117  1  0  0  0
 47118  1  0  0  0
 48 56  1  0  0  0
 48 65  1  0  0  0
 48119  1  0  0  0
 49 50  1  0  0  0
 49 53  1  0  0  0
 49 64  1  0  0  0
 49120  1  0  0  0
 50 51  1  0  0  0
 50121  1  0  0  0
 50122  1  0  0  0
 51 52  1  0  0  0
 51123  1  0  0  0
 51124  1  0  0  0
 52125  1  0  0  0
 52126  1  0  0  0
 53 54  1  0  0  0
 54 55  2  0  0  0
 54127  1  0  0  0
 55 57  1  0  0  0
 55128  1  0  0  0
 56 69  2  0  0  0
 57 58  2  0  0  0
 57129  1  0  0  0
 58130  1  0  0  0
 59 60  1  0  0  0
 59 61  1  0  0  0
 59 62  1  0  0  0
 60131  1  0  0  0
 60132  1  0  0  0
 60133  1  0  0  0
 61134  1  0  0  0
 61135  1  0  0  0
 61136  1  0  0  0
 62137  1  0  0  0
 62138  1  0  0  0
 62139  1  0  0  0
 63 65  1  0  0  0
 63140  1  0  0  0
 63141  1  0  0  0
 63142  1  0  0  0
 64143  1  0  0  0
 65144  1  0  0  0
 68 74  1  0  0  0
 71 72  2  0  0  0
 71 79  1  0  0  0
 71 85  1  0  0  0
 72 80  1  0  0  0
 72 81  1  0  0  0
 73 80  2  0  0  0
 73 82  1  0  0  0
 73 85  1  0  0  0
 74 75  2  0  0  0
 74145  1  0  0  0
 75 76  1  0  0  0
 75 84  1  0  0  0
 76 81  1  0  0  0
 76 83  2  0  0  0
 77146  1  0  0  0
 77147  1  0  0  0
 77148  1  0  0  0
 77 79  1  0  0  0
 78 79  1  0  0  0
 78149  1  0  0  0
 78150  1  0  0  0
 78151  1  0  0  0
 79152  1  0  0  0
 81153  1  0  0  0
 82154  1  0  0  0
 84155  1  0  0  0
M  ISO  4   1 100  68 101  74 101  82 100
M  END
> <chiral flag>
0

> <version>
0

> <s_m_source_file>
/data/baiqing/PycharmProjects/Reinvent-master-3.2/result/LINK_invent/BTK/process_docking_weight1_custom_product_contain_oxygen_bond_distance_aromatic_linkinvent_7_9_3/rearranged_h_0161.sdf

> <i_m_source_file_index>
15

> <r_mmod_Potential_Energy-OPLS-2005>
146.406219482422

> <r_mmod_Stretch_Energy-OPLS-2005>
166.816925048828

> <r_mmod_Bend_Energy-OPLS-2005>
218.802047729492

> <r_mmod_Torsional_Energy-OPLS-2005>
196.536682128906

> <r_mmod_Improper_Torsional_Energy-OPLS-2005>
5.0456109046936

> <r_mmod_Van_der_Waal_Energy-OPLS-2005>
116.50040435791

> <r_mmod_Electrostatic_Energy-OPLS-2005>
-468.232452392578

> <r_mmod_Solvation_Energy-OPLS-2005>
-225.948211669922

> <b_mmod_Minimization_Converged-OPLS-2005>
0

> <r_mmod_RMS_Derivative-OPLS-2005>
0.972930312156677

$$$$
15
                    3D
 Structure written by MMmdl.
163171  0  0  1  0            999 V2000
  -30.6961  -14.4876   20.5556 C   0  0  0  0  0  0
  -30.4174  -12.3136   19.4237 C   0  0  0  0  0  0
  -29.4910  -12.5041   18.2054 C   0  0  0  0  0  0
  -28.0124  -12.3676   18.6172 C   0  0  0  0  0  0
  -27.6572  -13.2101   19.8721 C   0  0  2  0  0  0
  -28.7003  -13.0061   20.9938 C   0  0  0  0  0  0
  -25.2570  -13.8172   20.5688 C   0  0  0  0  0  0
  -24.1827  -13.0441   20.9175 C   0  0  0  0  0  0
  -24.6390  -11.6909   20.8733 C   0  0  0  0  0  0
  -23.9058  -10.4294   21.0404 C   0  0  0  0  0  0
  -24.3615   -9.4210   21.9180 C   0  0  0  0  0  0
  -23.6296   -8.2242   22.0748 C   0  0  0  0  0  0
  -22.4271   -8.0279   21.3544 C   0  0  0  0  0  0
  -21.9909   -9.0249   20.4642 C   0  0  0  0  0  0
  -22.7231  -10.2132   20.3053 C   0  0  0  0  0  0
  -21.6857   -6.0737   22.5281 C   0  0  0  0  0  0
  -21.4015   -6.5643   23.8212 C   0  0  0  0  0  0
  -21.3656   -5.6797   24.9177 C   0  0  0  0  0  0
  -21.6049   -4.3058   24.7230 C   0  0  0  0  0  0
  -21.8817   -3.8148   23.4348 C   0  0  0  0  0  0
  -21.9193   -4.6966   22.3404 C   0  0  0  0  0  0
  -22.7855  -13.5236   21.1849 C   0  0  0  0  0  0
  -22.1662   -4.2151   21.0983 F   0  0  0  0  0  0
  -21.5628   -3.4541   25.7742 F   0  0  0  0  0  0
  -30.0266  -13.3090   20.4340 N   0  0  0  0  0  0
  -26.3003  -12.9343   20.3357 N   0  0  0  0  0  0
  -25.9319  -11.6493   20.5762 N   0  0  0  0  0  0
  -22.0507  -12.8216   22.0404 N   0  0  0  0  0  0
  -25.4301  -15.1891   20.4129 N   0  0  0  0  0  0
  -31.8351  -14.6432   20.1073 O   0  0  0  0  0  0
  -21.6637   -6.8873   21.4240 O   0  0  0  0  0  0
  -22.3535  -14.5549   20.6723 O   0  0  0  0  0  0
  -24.6143  -31.8660   23.2066 C   0  0  0  0  0  0
  -25.9034  -32.4806   23.8370 C   0  0  1  0  0  0
  -27.2288  -27.4258   20.1112 C   0  0  0  0  0  0
  -25.5900  -33.8608   24.2309 N   0  0  0  0  0  0
  -23.4039  -30.4874   21.5455 C   0  0  2  0  0  0
  -24.8492  -28.9522   20.1097 C   0  0  0  0  0  0
  -22.7422  -29.4639   22.4965 C   0  0  0  0  0  0
  -18.0275  -28.1379   22.8475 C   0  0  0  0  0  0
  -24.1494  -36.7311   23.2641 C   0  0  0  0  0  0
  -25.9300  -30.8379   21.3517 C   0  0  0  0  0  0
  -26.0100  -29.4715   20.6968 C   0  0  0  0  0  0
  -27.2078  -28.7221   20.6778 C   0  0  0  0  0  0
  -26.0568  -26.9227   19.5104 C   0  0  0  0  0  0
  -24.8688  -27.6808   19.5080 C   0  0  0  0  0  0
  -23.6113  -29.8189   20.1599 C   0  0  0  0  0  0
  -25.4113  -36.3107   24.0340 C   0  0  1  0  0  0
  -20.5873  -28.3658   23.1307 C   0  0  2  0  0  0
  -20.6768  -26.9390   22.5419 C   0  0  0  0  0  0
  -19.5750  -26.6381   21.5210 C   0  0  0  0  0  0
  -18.1920  -26.7924   22.1616 C   0  0  0  0  0  0
  -19.1530  -28.8838   23.2883 C   0  0  0  0  0  0
  -18.9461  -30.1437   23.8899 C   0  0  0  0  0  0
  -17.6471  -30.6581   24.0562 C   0  0  0  0  0  0
  -25.9046  -34.9472   23.5129 C   0  0  0  0  0  0
  -16.5355  -29.9094   23.6326 C   0  0  0  0  0  0
  -16.7267  -28.6517   23.0329 C   0  0  0  0  0  0
  -26.4469  -31.6565   25.0680 C   0  0  0  0  0  0
  -25.3749  -31.3669   26.1437 C   0  0  0  0  0  0
  -27.0286  -30.3014   24.6018 C   0  0  0  0  0  0
  -27.6045  -32.4275   25.7455 C   0  0  0  0  0  0
  -27.5578  -37.1802   24.8467 C   0  0  0  0  0  0
  -21.4150  -29.3028   22.3720 N   0  0  0  0  0  0
  -26.4298  -37.3782   23.9412 N   0  0  0  0  0  0
  -24.6680  -31.0781   22.0941 N   0  0  0  0  0  0
  -23.4199  -28.8186   23.3002 O   0  0  0  0  0  0
  -28.3783  -26.6594   20.1765 O   0  0  0  0  0  0
  -26.5613  -34.8931   22.4690 O   0  0  0  0  0  0
  -23.5337  -32.1425   23.7458 O   0  0  0  0  0  0
  -31.0005  -19.6606   21.3857 C   0  0  0  0  0  0
  -31.6884  -17.3189   21.3379 C   0  0  0  0  0  0
  -29.6524  -19.2882   21.1849 C   0  0  0  0  0  0
  -32.0117  -18.6852   21.4635 C   0  0  0  0  0  0
  -30.3504  -16.9083   21.1218 C   0  0  0  0  0  0
  -29.3388  -17.9021   21.0506 C   0  0  0  0  0  0
  -28.6239  -20.3539   21.2420 C   0  0  0  0  0  0
  -27.5412  -25.6605   22.3300 C   0  0  0  0  0  0
  -28.0296  -26.6638   23.3696 C   0  0  0  0  0  0
  -28.2318  -24.1016   20.3166 C   0  0  0  0  0  0
  -28.1384  -22.8571   21.2601 C   0  0  0  0  0  0
  -28.3945  -25.4833   21.0452 C   0  0  1  0  0  0
  -33.3312  -19.0773   21.6884 N   0  0  0  0  0  0
  -27.4337  -20.0957   21.7820 N   0  0  0  0  0  0
  -29.9736  -15.5231   21.0356 N   0  0  0  0  0  0
  -28.8737  -21.6273   20.8386 N   0  3  0  0  0  0
  -26.5038  -25.0222   22.5214 O   0  0  0  0  0  0
  -28.0531  -17.4984   20.8870 F   0  0  0  0  0  0
  -31.4628  -12.4061   19.1225 H   0  0  0  0  0  0
  -30.3138  -11.3068   19.8314 H   0  0  0  0  0  0
  -29.7317  -11.7760   17.4304 H   0  0  0  0  0  0
  -29.6573  -13.4877   17.7625 H   0  0  0  0  0  0
  -27.8194  -11.3120   18.8126 H   0  0  0  0  0  0
  -27.3637  -12.6436   17.7847 H   0  0  0  0  0  0
  -27.6947  -14.2560   19.5672 H   0  0  0  0  0  0
  -28.6795  -11.9750   21.3489 H   0  0  0  0  0  0
  -28.4662  -13.6202   21.8648 H   0  0  0  0  0  0
  -25.2761   -9.5694   22.4749 H   0  0  0  0  0  0
  -24.0013   -7.4634   22.7467 H   0  0  0  0  0  0
  -21.0839   -8.8765   19.8947 H   0  0  0  0  0  0
  -22.3685  -10.9674   19.6161 H   0  0  0  0  0  0
  -21.2005   -7.6150   23.9719 H   0  0  0  0  0  0
  -21.1482   -6.0525   25.9080 H   0  0  0  0  0  0
  -22.0598   -2.7610   23.2851 H   0  0  0  0  0  0
  -22.4129  -11.9866   22.4767 H   0  0  0  0  0  0
  -21.1127  -13.1232   22.2635 H   0  0  0  0  0  0
  -24.6665  -15.8444   20.5370 H   0  0  0  0  0  0
  -26.2892  -15.6373   20.1211 H   0  0  0  0  0  0
  -26.7097  -32.5527   23.1130 H   0  0  0  0  0  0
  -25.0025  -33.9771   25.0442 H   0  0  0  0  0  0
  -22.6935  -31.3037   21.4032 H   0  0  0  0  0  0
  -23.3745  -35.9649   23.3326 H   0  0  0  0  0  0
  -24.3597  -36.8928   22.2054 H   0  0  0  0  0  0
  -23.7263  -37.6525   23.6657 H   0  0  0  0  0  0
  -26.0392  -31.6068   20.5851 H   0  0  0  0  0  0
  -26.8203  -30.8934   21.9666 H   0  0  0  0  0  0
  -28.1067  -29.1212   21.1270 H   0  0  0  0  0  0
  -26.0561  -25.9415   19.0590 H   0  0  0  0  0  0
  -23.9747  -27.2752   19.0540 H   0  0  0  0  0  0
  -23.7218  -30.5941   19.4000 H   0  0  0  0  0  0
  -22.7360  -29.2393   19.8607 H   0  0  0  0  0  0
  -25.1286  -36.1969   25.0831 H   0  0  0  0  0  0
  -20.9953  -28.3214   24.1433 H   0  0  0  0  0  0
  -20.5682  -26.2249   23.3604 H   0  0  0  0  0  0
  -21.6630  -26.7435   22.1204 H   0  0  0  0  0  0
  -19.6923  -25.6298   21.1221 H   0  0  0  0  0  0
  -19.6700  -27.3199   20.6746 H   0  0  0  0  0  0
  -17.4193  -26.6658   21.4010 H   0  0  0  0  0  0
  -18.0314  -26.0071   22.9021 H   0  0  0  0  0  0
  -19.7950  -30.7229   24.2267 H   0  0  0  0  0  0
  -17.5047  -31.6265   24.5148 H   0  0  0  0  0  0
  -15.5366  -30.3005   23.7658 H   0  0  0  0  0  0
  -15.8660  -28.0856   22.7027 H   0  0  0  0  0  0
  -24.5924  -30.7011   25.7776 H   0  0  0  0  0  0
  -24.8919  -32.2822   26.4876 H   0  0  0  0  0  0
  -25.8108  -30.8843   27.0193 H   0  0  0  0  0  0
  -26.2797  -29.6776   24.1115 H   0  0  0  0  0  0
  -27.4133  -29.7229   25.4423 H   0  0  0  0  0  0
  -27.8606  -30.4347   23.9095 H   0  0  0  0  0  0
  -27.2662  -33.3569   26.2049 H   0  0  0  0  0  0
  -28.3847  -32.6850   25.0279 H   0  0  0  0  0  0
  -28.0719  -31.8385   26.5364 H   0  0  0  0  0  0
  -28.2577  -38.0106   24.7499 H   0  0  0  0  0  0
  -28.1088  -36.2634   24.6302 H   0  0  0  0  0  0
  -27.2301  -37.1471   25.8870 H   0  0  0  0  0  0
  -20.9313  -29.8771   21.6965 H   0  0  0  0  0  0
  -26.0191  -38.2858   24.1423 H   0  0  0  0  0  0
  -31.2584  -20.7007   21.5226 H   0  0  0  0  0  0
  -32.4775  -16.5880   21.4331 H   0  0  0  0  0  0
  -29.0345  -26.4068   23.7012 H   0  0  0  0  0  0
  -27.3700  -26.6707   24.2369 H   0  0  0  0  0  0
  -28.0519  -27.6686   22.9540 H   0  0  0  0  0  0
  -29.0592  -23.9812   19.6184 H   0  0  0  0  0  0
  -27.3317  -24.1276   19.7021 H   0  0  0  0  0  0
  -27.0827  -22.6343   21.4207 H   0  0  0  0  0  0
  -28.5366  -23.1114   22.2432 H   0  0  0  0  0  0
  -29.4140  -25.4650   21.4313 H   0  0  0  0  0  0
  -33.5115  -20.0003   22.0696 H   0  0  0  0  0  0
  -33.9974  -18.3823   22.0131 H   0  0  0  0  0  0
  -27.2125  -19.1358   22.0107 H   0  0  0  0  0  0
  -26.6939  -20.7757   21.8154 H   0  0  0  0  0  0
  -29.0065  -15.3226   21.2378 H   0  0  0  0  0  0
  -29.7622  -21.7751   20.3729 H   0  0  0  0  0  0
  1 25  1  0  0  0
  1 30  2  0  0  0
  1 85  1  0  0  0
  2  3  1  0  0  0
  2 25  1  0  0  0
  2 89  1  0  0  0
  2 90  1  0  0  0
  3  4  1  0  0  0
  3 91  1  0  0  0
  3 92  1  0  0  0
  4  5  1  0  0  0
  4 93  1  0  0  0
  4 94  1  0  0  0
  5  6  1  0  0  0
  5 26  1  0  0  0
  5 95  1  0  0  0
  6 25  1  0  0  0
  6 96  1  0  0  0
  6 97  1  0  0  0
  7  8  2  0  0  0
  7 26  1  0  0  0
  7 29  1  0  0  0
  8  9  1  0  0  0
  8 22  1  0  0  0
  9 10  1  0  0  0
  9 27  2  0  0  0
 10 11  2  0  0  0
 10 15  1  0  0  0
 11 12  1  0  0  0
 11 98  1  0  0  0
 12 13  2  0  0  0
 12 99  1  0  0  0
 13 14  1  0  0  0
 13 31  1  0  0  0
 14 15  2  0  0  0
 14100  1  0  0  0
 15101  1  0  0  0
 16 17  2  0  0  0
 16 21  1  0  0  0
 16 31  1  0  0  0
 17 18  1  0  0  0
 17102  1  0  0  0
 18 19  2  0  0  0
 18103  1  0  0  0
 19 20  1  0  0  0
 19 24  1  0  0  0
 20 21  2  0  0  0
 20104  1  0  0  0
 21 23  1  0  0  0
 22 28  1  0  0  0
 22 32  2  0  0  0
 26 27  1  0  0  0
 28105  1  0  0  0
 28106  1  0  0  0
 29107  1  0  0  0
 29108  1  0  0  0
 33 34  1  0  0  0
 33 66  1  0  0  0
 33 70  2  0  0  0
 34 36  1  0  0  0
 34 59  1  0  0  0
 34109  1  0  0  0
 35 44  2  0  0  0
 35 45  1  0  0  0
 35 68  1  0  0  0
 36 56  1  0  0  0
 36110  1  0  0  0
 37 39  1  0  0  0
 37 47  1  0  0  0
 37 66  1  0  0  0
 37111  1  0  0  0
 38 43  2  0  0  0
 38 46  1  0  0  0
 38 47  1  0  0  0
 39 64  1  0  0  0
 39 67  2  0  0  0
 40 52  1  0  0  0
 40 53  2  0  0  0
 40 58  1  0  0  0
 41112  1  0  0  0
 41113  1  0  0  0
 41114  1  0  0  0
 41 48  1  0  0  0
 42 43  1  0  0  0
 42 66  1  0  0  0
 42115  1  0  0  0
 42116  1  0  0  0
 43 44  1  0  0  0
 44117  1  0  0  0
 45 46  2  0  0  0
 45118  1  0  0  0
 46119  1  0  0  0
 47120  1  0  0  0
 47121  1  0  0  0
 48 56  1  0  0  0
 48 65  1  0  0  0
 48122  1  0  0  0
 49 50  1  0  0  0
 49 53  1  0  0  0
 49 64  1  0  0  0
 49123  1  0  0  0
 50 51  1  0  0  0
 50124  1  0  0  0
 50125  1  0  0  0
 51 52  1  0  0  0
 51126  1  0  0  0
 51127  1  0  0  0
 52128  1  0  0  0
 52129  1  0  0  0
 53 54  1  0  0  0
 54 55  2  0  0  0
 54130  1  0  0  0
 55 57  1  0  0  0
 55131  1  0  0  0
 56 69  2  0  0  0
 57 58  2  0  0  0
 57132  1  0  0  0
 58133  1  0  0  0
 59 60  1  0  0  0
 59 61  1  0  0  0
 59 62  1  0  0  0
 60134  1  0  0  0
 60135  1  0  0  0
 60136  1  0  0  0
 61137  1  0  0  0
 61138  1  0  0  0
 61139  1  0  0  0
 62140  1  0  0  0
 62141  1  0  0  0
 62142  1  0  0  0
 63 65  1  0  0  0
 63143  1  0  0  0
 63144  1  0  0  0
 63145  1  0  0  0
 64146  1  0  0  0
 65147  1  0  0  0
 68 82  1  0  0  0
 71 73  2  0  0  0
 71 74  1  0  0  0
 71148  1  0  0  0
 72 74  2  0  0  0
 72 75  1  0  0  0
 72149  1  0  0  0
 73 76  1  0  0  0
 73 77  1  0  0  0
 74 83  1  0  0  0
 75 76  2  0  0  0
 75 85  1  0  0  0
 76 88  1  0  0  0
 77 84  1  0  0  0
 77 86  2  0  0  0
 78 79  1  0  0  0
 78 82  1  0  0  0
 78 87  2  0  0  0
 79150  1  0  0  0
 79151  1  0  0  0
 79152  1  0  0  0
 80 81  1  0  0  0
 80153  1  0  0  0
 80154  1  0  0  0
 80 82  1  0  0  0
 81 86  1  0  0  0
 81155  1  0  0  0
 81156  1  0  0  0
 82157  1  0  0  0
 83158  1  0  0  0
 83159  1  0  0  0
 84160  1  0  0  0
 84161  1  0  0  0
 85162  1  0  0  0
 86163  1  0  0  0
M  CHG  1  86   1
M  ISO  4   1 100  68 101  82 101  85 100
M  END
> <chiral flag>
0

> <version>
0

> <s_m_source_file>
/data/baiqing/PycharmProjects/Reinvent-master-3.2/result/LINK_invent/BTK/process_docking_weight1_custom_product_contain_oxygen_bond_distance_aromatic_linkinvent_7_9_3/rearranged_h_0161.sdf

> <i_m_source_file_index>
16

> <r_mmod_Potential_Energy-OPLS-2005>
-282.342559814453

> <r_mmod_Stretch_Energy-OPLS-2005>
47.4724884033203

> <r_mmod_Bend_Energy-OPLS-2005>
115.692733764648

> <r_mmod_Torsional_Energy-OPLS-2005>
255.056091308594

> <r_mmod_Improper_Torsional_Energy-OPLS-2005>
8.58148288726807

> <r_mmod_Van_der_Waal_Energy-OPLS-2005>
161.889190673828

> <r_mmod_Electrostatic_Energy-OPLS-2005>
-457.433441162109

> <r_mmod_Solvation_Energy-OPLS-2005>
-430.258880615234

> <b_mmod_Minimization_Converged-OPLS-2005>
0

> <r_mmod_RMS_Derivative-OPLS-2005>
1.85785341262817

$$$$
16
                    3D
 Structure written by MMmdl.
160168  0  0  1  0            999 V2000
  -30.7038  -14.4653   20.5040 C   0  0  0  0  0  0
  -30.4156  -12.2826   19.4364 C   0  0  0  0  0  0
  -29.4992  -12.4937   18.2128 C   0  0  0  0  0  0
  -28.0176  -12.3658   18.6199 C   0  0  0  0  0  0
  -27.6611  -13.2113   19.8726 C   0  0  2  0  0  0
  -28.7015  -13.0136   20.9998 C   0  0  0  0  0  0
  -25.2581  -13.8174   20.5678 C   0  0  0  0  0  0
  -24.1832  -13.0448   20.9172 C   0  0  0  0  0  0
  -24.6390  -11.6915   20.8731 C   0  0  0  0  0  0
  -23.9056  -10.4299   21.0406 C   0  0  0  0  0  0
  -24.3607   -9.4217   21.9184 C   0  0  0  0  0  0
  -23.6290   -8.2250   22.0749 C   0  0  0  0  0  0
  -22.4276   -8.0274   21.3541 C   0  0  0  0  0  0
  -21.9903   -9.0251   20.4653 C   0  0  0  0  0  0
  -22.7228  -10.2133   20.3062 C   0  0  0  0  0  0
  -21.6847   -6.0731   22.5279 C   0  0  0  0  0  0
  -21.4020   -6.5635   23.8213 C   0  0  0  0  0  0
  -21.3661   -5.6786   24.9173 C   0  0  0  0  0  0
  -21.6042   -4.3049   24.7229 C   0  0  0  0  0  0
  -21.8814   -3.8140   23.4350 C   0  0  0  0  0  0
  -21.9194   -4.6961   22.3405 C   0  0  0  0  0  0
  -22.7854  -13.5246   21.1836 C   0  0  0  0  0  0
  -22.1660   -4.2146   21.0986 F   0  0  0  0  0  0
  -21.5628   -3.4530   25.7744 F   0  0  0  0  0  0
  -30.0360  -13.2835   20.4438 N   0  0  0  0  0  0
  -26.3023  -12.9353   20.3359 N   0  0  0  0  0  0
  -25.9318  -11.6506   20.5759 N   0  0  0  0  0  0
  -22.0474  -12.8260   22.0397 N   0  0  0  0  0  0
  -25.4302  -15.1890   20.4087 N   0  0  0  0  0  0
  -31.8775  -14.5905   20.1476 O   0  0  0  0  0  0
  -21.6636   -6.8873   21.4240 O   0  0  0  0  0  0
  -22.3545  -14.5552   20.6686 O   0  0  0  0  0  0
  -24.6172  -31.8696   23.2134 C   0  0  0  0  0  0
  -25.9067  -32.4831   23.8415 C   0  0  1  0  0  0
  -27.2147  -27.4146   20.0822 C   0  0  0  0  0  0
  -25.5914  -33.8628   24.2340 N   0  0  0  0  0  0
  -23.4035  -30.4996   21.5564 C   0  0  2  0  0  0
  -24.8422  -28.9753   20.1132 C   0  0  0  0  0  0
  -22.7424  -29.4675   22.4993 C   0  0  0  0  0  0
  -18.0278  -28.1374   22.8494 C   0  0  0  0  0  0
  -24.1485  -36.7310   23.2637 C   0  0  0  0  0  0
  -25.9385  -30.8272   21.3728 C   0  0  0  0  0  0
  -26.0088  -29.4639   20.7135 C   0  0  0  0  0  0
  -27.1965  -28.6905   20.6994 C   0  0  0  0  0  0
  -26.0231  -26.9667   19.4540 C   0  0  0  0  0  0
  -24.8441  -27.7246   19.4849 C   0  0  0  0  0  0
  -23.6093  -29.8461   20.1670 C   0  0  0  0  0  0
  -25.4106  -36.3117   24.0341 C   0  0  1  0  0  0
  -20.5871  -28.3664   23.1308 C   0  0  2  0  0  0
  -20.6767  -26.9397   22.5413 C   0  0  0  0  0  0
  -19.5741  -26.6379   21.5212 C   0  0  0  0  0  0
  -18.1922  -26.7920   22.1625 C   0  0  0  0  0  0
  -19.1528  -28.8837   23.2899 C   0  0  0  0  0  0
  -18.9456  -30.1438   23.8910 C   0  0  0  0  0  0
  -17.6457  -30.6580   24.0564 C   0  0  0  0  0  0
  -25.9039  -34.9482   23.5136 C   0  0  0  0  0  0
  -16.5349  -29.9082   23.6320 C   0  0  0  0  0  0
  -16.7267  -28.6498   23.0352 C   0  0  0  0  0  0
  -26.4481  -31.6607   25.0744 C   0  0  0  0  0  0
  -25.3737  -31.3723   26.1491 C   0  0  0  0  0  0
  -27.0312  -30.3045   24.6132 C   0  0  0  0  0  0
  -27.6054  -32.4329   25.7503 C   0  0  0  0  0  0
  -27.5583  -37.1810   24.8467 C   0  0  0  0  0  0
  -21.4157  -29.3035   22.3723 N   0  0  0  0  0  0
  -26.4296  -37.3799   23.9413 N   0  0  0  0  0  0
  -24.6718  -31.0792   22.1049 N   0  0  0  0  0  0
  -23.4198  -28.8190   23.3018 O   0  0  0  0  0  0
  -28.3654  -26.6380   20.1167 O   0  0  0  0  0  0
  -26.5597  -34.8929   22.4696 O   0  0  0  0  0  0
  -23.5359  -32.1459   23.7519 O   0  0  0  0  0  0
  -30.5428  -16.8679   18.7335 C   0  0  0  0  0  0
  -29.5152  -17.9860   20.6251 C   0  0  0  0  0  0
  -30.0080  -19.2585   18.5775 C   0  0  0  0  0  0
  -30.0269  -16.7996   20.0488 C   0  0  0  0  0  0
  -30.5517  -18.0708   18.0034 C   0  0  0  0  0  0
  -29.5038  -19.2194   19.9204 C   0  0  0  0  0  0
  -29.9420  -20.4921   17.7389 C   0  0  0  0  0  0
  -28.7516  -22.7558   20.1280 C   0  0  0  0  0  0
  -29.1565  -24.2502   20.3403 C   0  0  0  0  0  0
  -28.7731  -20.5751   16.7652 C   0  0  0  0  0  0
  -29.5726  -21.6016   20.7458 C   0  0  0  0  0  0
  -28.1969  -25.2645   19.6958 C   0  0  0  0  0  0
  -31.0823  -18.0104   16.7042 N   0  0  0  0  0  0
  -29.9441  -15.5509   20.7568 N   0  0  0  0  0  0
  -28.8853  -20.3028   20.5881 N   0  0  0  0  0  0
  -30.7643  -21.4131   17.7872 O   0  0  0  0  0  0
  -27.7493  -22.4727   19.4561 O   0  0  0  0  0  0
  -30.1578  -24.5866   20.9866 O   0  0  0  0  0  0
  -31.4650  -12.3551   19.1432 H   0  0  0  0  0  0
  -30.2849  -11.2780   19.8409 H   0  0  0  0  0  0
  -29.7371  -11.7676   17.4342 H   0  0  0  0  0  0
  -29.6792  -13.4785   17.7768 H   0  0  0  0  0  0
  -27.8221  -11.3116   18.8170 H   0  0  0  0  0  0
  -27.3732  -12.6424   17.7851 H   0  0  0  0  0  0
  -27.6997  -14.2566   19.5652 H   0  0  0  0  0  0
  -28.6620  -11.9919   21.3805 H   0  0  0  0  0  0
  -28.4805  -13.6572   21.8529 H   0  0  0  0  0  0
  -25.2753   -9.5695   22.4752 H   0  0  0  0  0  0
  -24.0002   -7.4640   22.7465 H   0  0  0  0  0  0
  -21.0829   -8.8776   19.8964 H   0  0  0  0  0  0
  -22.3687  -10.9668   19.6165 H   0  0  0  0  0  0
  -21.2016   -7.6142   23.9720 H   0  0  0  0  0  0
  -21.1486   -6.0516   25.9076 H   0  0  0  0  0  0
  -22.0595   -2.7604   23.2849 H   0  0  0  0  0  0
  -22.4082  -11.9946   22.4841 H   0  0  0  0  0  0
  -21.1080  -13.1294   22.2563 H   0  0  0  0  0  0
  -24.6638  -15.8444   20.5199 H   0  0  0  0  0  0
  -26.2849  -15.6284   20.0920 H   0  0  0  0  0  0
  -26.7137  -32.5530   23.1171 H   0  0  0  0  0  0
  -25.0073  -33.9786   25.0490 H   0  0  0  0  0  0
  -22.6928  -31.3187   21.4267 H   0  0  0  0  0  0
  -23.3748  -35.9644   23.3318 H   0  0  0  0  0  0
  -24.3580  -36.8904   22.2050 H   0  0  0  0  0  0
  -23.7239  -37.6520   23.6637 H   0  0  0  0  0  0
  -26.0626  -31.5962   20.6087 H   0  0  0  0  0  0
  -26.8230  -30.8697   21.9968 H   0  0  0  0  0  0
  -28.0943  -29.0616   21.1728 H   0  0  0  0  0  0
  -25.9555  -26.0308   18.9203 H   0  0  0  0  0  0
  -23.9481  -27.3472   19.0112 H   0  0  0  0  0  0
  -23.7242  -30.6287   19.4163 H   0  0  0  0  0  0
  -22.7298  -29.2753   19.8628 H   0  0  0  0  0  0
  -25.1280  -36.1990   25.0834 H   0  0  0  0  0  0
  -20.9964  -28.3233   24.1429 H   0  0  0  0  0  0
  -20.5673  -26.2273   23.3607 H   0  0  0  0  0  0
  -21.6640  -26.7439   22.1206 H   0  0  0  0  0  0
  -19.6899  -25.6293   21.1237 H   0  0  0  0  0  0
  -19.6674  -27.3196   20.6747 H   0  0  0  0  0  0
  -17.4191  -26.6671   21.4028 H   0  0  0  0  0  0
  -18.0319  -26.0061   22.9018 H   0  0  0  0  0  0
  -19.7935  -30.7251   24.2290 H   0  0  0  0  0  0
  -17.5016  -31.6265   24.5163 H   0  0  0  0  0  0
  -15.5350  -30.2993   23.7633 H   0  0  0  0  0  0
  -15.8668  -28.0818   22.7061 H   0  0  0  0  0  0
  -24.5899  -30.7086   25.7824 H   0  0  0  0  0  0
  -24.8941  -32.2887   26.4941 H   0  0  0  0  0  0
  -25.8079  -30.8885   27.0248 H   0  0  0  0  0  0
  -26.2860  -29.6817   24.1171 H   0  0  0  0  0  0
  -27.4064  -29.7277   25.4595 H   0  0  0  0  0  0
  -27.8709  -30.4361   23.9304 H   0  0  0  0  0  0
  -27.2664  -33.3614   26.2106 H   0  0  0  0  0  0
  -28.3839  -32.6914   25.0313 H   0  0  0  0  0  0
  -28.0751  -31.8446   26.5394 H   0  0  0  0  0  0
  -28.2609  -38.0098   24.7517 H   0  0  0  0  0  0
  -28.1068  -36.2634   24.6288 H   0  0  0  0  0  0
  -27.2304  -37.1462   25.8871 H   0  0  0  0  0  0
  -20.9315  -29.8785   21.6968 H   0  0  0  0  0  0
  -26.0189  -38.2881   24.1410 H   0  0  0  0  0  0
  -30.9213  -15.9771   18.2512 H   0  0  0  0  0  0
  -29.1009  -17.9461   21.6232 H   0  0  0  0  0  0
  -27.9289  -19.9915   17.1323 H   0  0  0  0  0  0
  -29.0675  -20.1832   15.7919 H   0  0  0  0  0  0
  -28.4529  -21.6097   16.6465 H   0  0  0  0  0  0
  -29.6957  -21.8074   21.8094 H   0  0  0  0  0  0
  -30.5731  -21.5862   20.3146 H   0  0  0  0  0  0
  -27.2169  -24.8962   19.9943 H   0  0  0  0  0  0
  -28.2685  -25.1938   18.6098 H   0  0  0  0  0  0
  -31.5728  -17.1744   16.4005 H   0  0  0  0  0  0
  -31.4134  -18.8487   16.2375 H   0  0  0  0  0  0
  -29.0817  -15.3772   21.2516 H   0  0  0  0  0  0
  -27.9411  -20.4919   20.2497 H   0  0  0  0  0  0
  1 25  1  0  0  0
  1 30  2  0  0  0
  1 84  1  0  0  0
  2  3  1  0  0  0
  2 25  1  0  0  0
  2 89  1  0  0  0
  2 90  1  0  0  0
  3  4  1  0  0  0
  3 91  1  0  0  0
  3 92  1  0  0  0
  4  5  1  0  0  0
  4 93  1  0  0  0
  4 94  1  0  0  0
  5  6  1  0  0  0
  5 26  1  0  0  0
  5 95  1  0  0  0
  6 25  1  0  0  0
  6 96  1  0  0  0
  6 97  1  0  0  0
  7  8  2  0  0  0
  7 26  1  0  0  0
  7 29  1  0  0  0
  8  9  1  0  0  0
  8 22  1  0  0  0
  9 10  1  0  0  0
  9 27  2  0  0  0
 10 11  2  0  0  0
 10 15  1  0  0  0
 11 12  1  0  0  0
 11 98  1  0  0  0
 12 13  2  0  0  0
 12 99  1  0  0  0
 13 14  1  0  0  0
 13 31  1  0  0  0
 14 15  2  0  0  0
 14100  1  0  0  0
 15101  1  0  0  0
 16 17  2  0  0  0
 16 21  1  0  0  0
 16 31  1  0  0  0
 17 18  1  0  0  0
 17102  1  0  0  0
 18 19  2  0  0  0
 18103  1  0  0  0
 19 20  1  0  0  0
 19 24  1  0  0  0
 20 21  2  0  0  0
 20104  1  0  0  0
 21 23  1  0  0  0
 22 28  1  0  0  0
 22 32  2  0  0  0
 26 27  1  0  0  0
 28105  1  0  0  0
 28106  1  0  0  0
 29107  1  0  0  0
 29108  1  0  0  0
 33 34  1  0  0  0
 33 66  1  0  0  0
 33 70  2  0  0  0
 34 36  1  0  0  0
 34 59  1  0  0  0
 34109  1  0  0  0
 35 44  2  0  0  0
 35 45  1  0  0  0
 35 68  1  0  0  0
 36 56  1  0  0  0
 36110  1  0  0  0
 37 39  1  0  0  0
 37 47  1  0  0  0
 37 66  1  0  0  0
 37111  1  0  0  0
 38 43  2  0  0  0
 38 46  1  0  0  0
 38 47  1  0  0  0
 39 64  1  0  0  0
 39 67  2  0  0  0
 40 52  1  0  0  0
 40 53  2  0  0  0
 40 58  1  0  0  0
 41112  1  0  0  0
 41113  1  0  0  0
 41114  1  0  0  0
 41 48  1  0  0  0
 42 43  1  0  0  0
 42 66  1  0  0  0
 42115  1  0  0  0
 42116  1  0  0  0
 43 44  1  0  0  0
 44117  1  0  0  0
 45 46  2  0  0  0
 45118  1  0  0  0
 46119  1  0  0  0
 47120  1  0  0  0
 47121  1  0  0  0
 48 56  1  0  0  0
 48 65  1  0  0  0
 48122  1  0  0  0
 49 50  1  0  0  0
 49 53  1  0  0  0
 49 64  1  0  0  0
 49123  1  0  0  0
 50 51  1  0  0  0
 50124  1  0  0  0
 50125  1  0  0  0
 51 52  1  0  0  0
 51126  1  0  0  0
 51127  1  0  0  0
 52128  1  0  0  0
 52129  1  0  0  0
 53 54  1  0  0  0
 54 55  2  0  0  0
 54130  1  0  0  0
 55 57  1  0  0  0
 55131  1  0  0  0
 56 69  2  0  0  0
 57 58  2  0  0  0
 57132  1  0  0  0
 58133  1  0  0  0
 59 60  1  0  0  0
 59 61  1  0  0  0
 59 62  1  0  0  0
 60134  1  0  0  0
 60135  1  0  0  0
 60136  1  0  0  0
 61137  1  0  0  0
 61138  1  0  0  0
 61139  1  0  0  0
 62140  1  0  0  0
 62141  1  0  0  0
 62142  1  0  0  0
 63 65  1  0  0  0
 63143  1  0  0  0
 63144  1  0  0  0
 63145  1  0  0  0
 64146  1  0  0  0
 65147  1  0  0  0
 68 82  1  0  0  0
 71 74  2  0  0  0
 71 75  1  0  0  0
 71148  1  0  0  0
 72 74  1  0  0  0
 72 76  2  0  0  0
 72149  1  0  0  0
 73 75  2  0  0  0
 73 76  1  0  0  0
 73 77  1  0  0  0
 74 84  1  0  0  0
 75 83  1  0  0  0
 76 85  1  0  0  0
 77 80  1  0  0  0
 77 86  2  0  0  0
 78 79  1  0  0  0
 78 81  1  0  0  0
 78 87  2  0  0  0
 79 82  1  0  0  0
 79 88  2  0  0  0
 80150  1  0  0  0
 80151  1  0  0  0
 80152  1  0  0  0
 81 85  1  0  0  0
 81153  1  0  0  0
 81154  1  0  0  0
 82155  1  0  0  0
 82156  1  0  0  0
 83157  1  0  0  0
 83158  1  0  0  0
 84159  1  0  0  0
 85160  1  0  0  0
M  ISO  4   1 100  68 101  82 101  84 100
M  END
> <chiral flag>
0

> <version>
0

> <s_m_source_file>
/data/baiqing/PycharmProjects/Reinvent-master-3.2/result/LINK_invent/BTK/process_docking_weight1_custom_product_contain_oxygen_bond_distance_aromatic_linkinvent_7_9_3/rearranged_h_0161.sdf

> <i_m_source_file_index>
17

> <r_mmod_Potential_Energy-OPLS-2005>
350.301666259766

> <r_mmod_Stretch_Energy-OPLS-2005>
46.9303855895996

> <r_mmod_Bend_Energy-OPLS-2005>
117.767639160156

> <r_mmod_Torsional_Energy-OPLS-2005>
303.768249511719

> <r_mmod_Improper_Torsional_Energy-OPLS-2005>
13.9884748458862

> <r_mmod_Van_der_Waal_Energy-OPLS-2005>
168.831634521484

> <r_mmod_Electrostatic_Energy-OPLS-2005>
-69.2483596801758

> <r_mmod_Solvation_Energy-OPLS-2005>
-251.195236206055

> <b_mmod_Minimization_Converged-OPLS-2005>
0

> <r_mmod_RMS_Derivative-OPLS-2005>
1.66700100898743

$$$$
17
                    3D
 Structure written by MMmdl.
157165  0  0  1  0            999 V2000
  -30.6987  -14.5917   20.5451 C   0  0  0  0  0  0
  -30.4273  -12.3713   19.4693 C   0  0  0  0  0  0
  -29.5164  -12.5160   18.2309 C   0  0  0  0  0  0
  -28.0360  -12.3533   18.6289 C   0  0  0  0  0  0
  -27.6583  -13.2219   19.8627 C   0  0  2  0  0  0
  -28.6975  -13.0725   20.9975 C   0  0  0  0  0  0
  -25.2610  -13.8168   20.5710 C   0  0  0  0  0  0
  -24.1851  -13.0442   20.9166 C   0  0  0  0  0  0
  -24.6418  -11.6911   20.8724 C   0  0  0  0  0  0
  -23.9088  -10.4290   21.0374 C   0  0  0  0  0  0
  -24.3651   -9.4205   21.9152 C   0  0  0  0  0  0
  -23.6331   -8.2253   22.0731 C   0  0  0  0  0  0
  -22.4309   -8.0280   21.3523 C   0  0  0  0  0  0
  -21.9951   -9.0229   20.4622 C   0  0  0  0  0  0
  -22.7281  -10.2113   20.3010 C   0  0  0  0  0  0
  -21.6847   -6.0752   22.5280 C   0  0  0  0  0  0
  -21.4010   -6.5652   23.8221 C   0  0  0  0  0  0
  -21.3656   -5.6801   24.9175 C   0  0  0  0  0  0
  -21.6024   -4.3063   24.7227 C   0  0  0  0  0  0
  -21.8824   -3.8154   23.4355 C   0  0  0  0  0  0
  -21.9202   -4.6979   22.3407 C   0  0  0  0  0  0
  -22.7872  -13.5242   21.1801 C   0  0  0  0  0  0
  -22.1656   -4.2173   21.0985 F   0  0  0  0  0  0
  -21.5647   -3.4552   25.7732 F   0  0  0  0  0  0
  -30.0219  -13.3995   20.4526 N   0  0  0  0  0  0
  -26.3041  -12.9367   20.3308 N   0  0  0  0  0  0
  -25.9361  -11.6514   20.5755 N   0  0  0  0  0  0
  -22.0505  -12.8232   22.0365 N   0  0  0  0  0  0
  -25.4337  -15.1884   20.4160 N   0  0  0  0  0  0
  -31.8241  -14.6968   20.0512 O   0  0  0  0  0  0
  -21.6654   -6.8889   21.4230 O   0  0  0  0  0  0
  -22.3547  -14.5522   20.6621 O   0  0  0  0  0  0
  -24.6242  -31.8575   23.2061 C   0  0  0  0  0  0
  -25.9106  -32.4765   23.8366 C   0  0  1  0  0  0
  -27.2318  -27.3442   20.1062 C   0  0  0  0  0  0
  -25.5916  -33.8568   24.2289 N   0  0  0  0  0  0
  -23.4161  -30.4815   21.5487 C   0  0  2  0  0  0
  -24.8636  -28.9375   20.1137 C   0  0  0  0  0  0
  -22.7460  -29.4610   22.4983 C   0  0  0  0  0  0
  -18.0267  -28.1338   22.8484 C   0  0  0  0  0  0
  -24.1468  -36.7263   23.2650 C   0  0  0  0  0  0
  -25.9552  -30.7953   21.3742 C   0  0  0  0  0  0
  -26.0307  -29.4265   20.7126 C   0  0  0  0  0  0
  -27.2163  -28.6376   20.7079 C   0  0  0  0  0  0
  -26.0365  -26.8894   19.5056 C   0  0  0  0  0  0
  -24.8644  -27.6716   19.5058 C   0  0  0  0  0  0
  -23.6270  -29.8105   20.1651 C   0  0  0  0  0  0
  -25.4097  -36.3068   24.0330 C   0  0  1  0  0  0
  -20.5870  -28.3642   23.1295 C   0  0  2  0  0  0
  -20.6761  -26.9366   22.5410 C   0  0  0  0  0  0
  -19.5751  -26.6347   21.5201 C   0  0  0  0  0  0
  -18.1917  -26.7896   22.1598 C   0  0  0  0  0  0
  -19.1525  -28.8813   23.2881 C   0  0  0  0  0  0
  -18.9447  -30.1424   23.8895 C   0  0  0  0  0  0
  -17.6447  -30.6553   24.0561 C   0  0  0  0  0  0
  -25.9045  -34.9439   23.5110 C   0  0  0  0  0  0
  -16.5336  -29.9046   23.6351 C   0  0  0  0  0  0
  -16.7252  -28.6458   23.0374 C   0  0  0  0  0  0
  -26.4492  -31.6580   25.0740 C   0  0  0  0  0  0
  -25.3745  -31.3673   26.1475 C   0  0  0  0  0  0
  -27.0342  -30.3012   24.6189 C   0  0  0  0  0  0
  -27.6040  -32.4304   25.7528 C   0  0  0  0  0  0
  -27.5565  -37.1789   24.8476 C   0  0  0  0  0  0
  -21.4180  -29.3017   22.3724 N   0  0  0  0  0  0
  -26.4264  -37.3781   23.9426 N   0  0  0  0  0  0
  -24.6838  -31.0606   22.1000 N   0  0  0  0  0  0
  -23.4204  -28.8146   23.3052 O   0  0  0  0  0  0
  -28.3407  -26.4947   20.1875 O   0  0  0  0  0  0
  -26.5607  -34.8912   22.4677 O   0  0  0  0  0  0
  -23.5415  -32.1355   23.7414 O   0  0  0  0  0  0
  -29.8126  -19.5865   20.5361 C   0  0  0  0  0  0
  -29.5591  -18.4686   22.6843 C   0  0  0  0  0  0
  -29.2133  -20.8882   22.5009 C   0  0  0  0  0  0
  -29.8788  -18.3764   21.3108 C   0  0  0  0  0  0
  -29.4619  -20.8629   21.1051 C   0  0  0  0  0  0
  -29.2521  -19.7123   23.2812 C   0  0  0  0  0  0
  -30.2924  -17.0455   20.7239 C   0  0  0  0  0  0
  -30.0489  -15.7696   21.1732 C   0  0  0  0  0  0
  -28.5571  -25.5283   19.2082 C   0  0  0  0  0  0
  -28.8627  -24.1886   19.2988 C   0  0  0  0  0  0
  -28.9816  -23.3645   20.5312 C   0  0  0  0  0  0
  -30.1400  -19.7103   25.5068 C   0  0  0  0  0  0
  -29.3506  -22.0628   20.2732 N   0  0  0  0  0  0
  -28.9602  -19.7714   24.6499 N   0  0  0  0  0  0
  -28.7654  -23.7912   21.6672 O   0  0  0  0  0  0
  -29.0597  -23.5407   18.1358 O   0  0  0  0  0  0
  -31.4781  -12.4556   19.1780 H   0  0  0  0  0  0
  -30.3277  -11.3747   19.9042 H   0  0  0  0  0  0
  -29.7953  -11.7797   17.4714 H   0  0  0  0  0  0
  -29.6655  -13.4939   17.7678 H   0  0  0  0  0  0
  -27.8680  -11.2981   18.8488 H   0  0  0  0  0  0
  -27.3871  -12.5913   17.7837 H   0  0  0  0  0  0
  -27.6842  -14.2595   19.5365 H   0  0  0  0  0  0
  -28.6955  -12.0472   21.3684 H   0  0  0  0  0  0
  -28.4398  -13.6981   21.8491 H   0  0  0  0  0  0
  -25.2803   -9.5702   22.4706 H   0  0  0  0  0  0
  -24.0049   -7.4654   22.7440 H   0  0  0  0  0  0
  -21.0908   -8.8734   19.8914 H   0  0  0  0  0  0
  -22.3743  -10.9633   19.6099 H   0  0  0  0  0  0
  -21.1976   -7.6158   23.9725 H   0  0  0  0  0  0
  -21.1471   -6.0525   25.9068 H   0  0  0  0  0  0
  -22.0608   -2.7620   23.2840 H   0  0  0  0  0  0
  -22.4165  -11.9976   22.4893 H   0  0  0  0  0  0
  -21.1048  -13.1134   22.2420 H   0  0  0  0  0  0
  -24.6790  -15.8544   20.5374 H   0  0  0  0  0  0
  -26.3044  -15.6222   20.1355 H   0  0  0  0  0  0
  -26.7192  -32.5433   23.1127 H   0  0  0  0  0  0
  -25.0104  -33.9702   25.0464 H   0  0  0  0  0  0
  -22.7084  -31.3005   21.4058 H   0  0  0  0  0  0
  -23.3744  -35.9587   23.3310 H   0  0  0  0  0  0
  -24.3577  -36.8878   22.2068 H   0  0  0  0  0  0
  -23.7193  -37.6452   23.6667 H   0  0  0  0  0  0
  -26.0888  -31.5616   20.6092 H   0  0  0  0  0  0
  -26.8346  -30.8356   22.0063 H   0  0  0  0  0  0
  -28.1104  -29.0034   21.1943 H   0  0  0  0  0  0
  -25.9838  -25.9049   19.0655 H   0  0  0  0  0  0
  -23.9620  -27.2823   19.0551 H   0  0  0  0  0  0
  -23.7365  -30.5808   19.4005 H   0  0  0  0  0  0
  -22.7497  -29.2290   19.8726 H   0  0  0  0  0  0
  -25.1282  -36.1912   25.0826 H   0  0  0  0  0  0
  -20.9934  -28.3185   24.1428 H   0  0  0  0  0  0
  -20.5625  -26.2253   23.3607 H   0  0  0  0  0  0
  -21.6634  -26.7391   22.1211 H   0  0  0  0  0  0
  -19.6906  -25.6248   21.1252 H   0  0  0  0  0  0
  -19.6703  -27.3161   20.6740 H   0  0  0  0  0  0
  -17.4198  -26.6657   21.3983 H   0  0  0  0  0  0
  -18.0311  -26.0005   22.8961 H   0  0  0  0  0  0
  -19.7920  -30.7243   24.2262 H   0  0  0  0  0  0
  -17.4994  -31.6253   24.5115 H   0  0  0  0  0  0
  -15.5338  -30.2942   23.7679 H   0  0  0  0  0  0
  -15.8645  -28.0774   22.7115 H   0  0  0  0  0  0
  -24.5958  -30.6967   25.7819 H   0  0  0  0  0  0
  -24.8923  -32.2819   26.4943 H   0  0  0  0  0  0
  -25.8103  -30.8845   27.0230 H   0  0  0  0  0  0
  -26.2915  -29.6740   24.1245 H   0  0  0  0  0  0
  -27.4080  -29.7271   25.4678 H   0  0  0  0  0  0
  -27.8773  -30.4302   23.9397 H   0  0  0  0  0  0
  -27.2639  -33.3582   26.2137 H   0  0  0  0  0  0
  -28.3874  -32.6870   25.0382 H   0  0  0  0  0  0
  -28.0697  -31.8421   26.5443 H   0  0  0  0  0  0
  -28.2583  -38.0096   24.7543 H   0  0  0  0  0  0
  -28.1057  -36.2629   24.6253 H   0  0  0  0  0  0
  -27.2292  -37.1360   25.8886 H   0  0  0  0  0  0
  -20.9352  -29.8765   21.6957 H   0  0  0  0  0  0
  -26.0132  -38.2839   24.1481 H   0  0  0  0  0  0
  -30.0413  -19.5182   19.4812 H   0  0  0  0  0  0
  -29.5910  -17.5800   23.3019 H   0  0  0  0  0  0
  -28.9638  -21.8147   22.9946 H   0  0  0  0  0  0
  -30.9185  -17.1418   19.8457 H   0  0  0  0  0  0
  -29.4090  -15.6303   22.0283 H   0  0  0  0  0  0
  -28.4695  -25.9936   18.2349 H   0  0  0  0  0  0
  -29.8691  -19.2884   26.4755 H   0  0  0  0  0  0
  -30.5497  -20.7069   25.6839 H   0  0  0  0  0  0
  -30.9316  -19.0820   25.0897 H   0  0  0  0  0  0
  -29.5194  -21.9327   19.2828 H   0  0  0  0  0  0
  -28.2870  -19.0585   24.9305 H   0  0  0  0  0  0
  -28.9658  -24.1693   17.4301 H   0  0  0  0  0  0
  1 25  1  0  0  0
  1 30  2  0  0  0
  1 78  1  0  0  0
  2  3  1  0  0  0
  2 25  1  0  0  0
  2 87  1  0  0  0
  2 88  1  0  0  0
  3  4  1  0  0  0
  3 89  1  0  0  0
  3 90  1  0  0  0
  4  5  1  0  0  0
  4 91  1  0  0  0
  4 92  1  0  0  0
  5  6  1  0  0  0
  5 26  1  0  0  0
  5 93  1  0  0  0
  6 25  1  0  0  0
  6 94  1  0  0  0
  6 95  1  0  0  0
  7  8  2  0  0  0
  7 26  1  0  0  0
  7 29  1  0  0  0
  8  9  1  0  0  0
  8 22  1  0  0  0
  9 10  1  0  0  0
  9 27  2  0  0  0
 10 11  2  0  0  0
 10 15  1  0  0  0
 11 12  1  0  0  0
 11 96  1  0  0  0
 12 13  2  0  0  0
 12 97  1  0  0  0
 13 14  1  0  0  0
 13 31  1  0  0  0
 14 15  2  0  0  0
 14 98  1  0  0  0
 15 99  1  0  0  0
 16 17  2  0  0  0
 16 21  1  0  0  0
 16 31  1  0  0  0
 17 18  1  0  0  0
 17100  1  0  0  0
 18 19  2  0  0  0
 18101  1  0  0  0
 19 20  1  0  0  0
 19 24  1  0  0  0
 20 21  2  0  0  0
 20102  1  0  0  0
 21 23  1  0  0  0
 22 28  1  0  0  0
 22 32  2  0  0  0
 26 27  1  0  0  0
 28103  1  0  0  0
 28104  1  0  0  0
 29105  1  0  0  0
 29106  1  0  0  0
 33 34  1  0  0  0
 33 66  1  0  0  0
 33 70  2  0  0  0
 34 36  1  0  0  0
 34 59  1  0  0  0
 34107  1  0  0  0
 35 44  2  0  0  0
 35 45  1  0  0  0
 35 68  1  0  0  0
 36 56  1  0  0  0
 36108  1  0  0  0
 37 39  1  0  0  0
 37 47  1  0  0  0
 37 66  1  0  0  0
 37109  1  0  0  0
 38 43  2  0  0  0
 38 46  1  0  0  0
 38 47  1  0  0  0
 39 64  1  0  0  0
 39 67  2  0  0  0
 40 52  1  0  0  0
 40 53  2  0  0  0
 40 58  1  0  0  0
 41110  1  0  0  0
 41111  1  0  0  0
 41112  1  0  0  0
 41 48  1  0  0  0
 42 43  1  0  0  0
 42 66  1  0  0  0
 42113  1  0  0  0
 42114  1  0  0  0
 43 44  1  0  0  0
 44115  1  0  0  0
 45 46  2  0  0  0
 45116  1  0  0  0
 46117  1  0  0  0
 47118  1  0  0  0
 47119  1  0  0  0
 48 56  1  0  0  0
 48 65  1  0  0  0
 48120  1  0  0  0
 49 50  1  0  0  0
 49 53  1  0  0  0
 49 64  1  0  0  0
 49121  1  0  0  0
 50 51  1  0  0  0
 50122  1  0  0  0
 50123  1  0  0  0
 51 52  1  0  0  0
 51124  1  0  0  0
 51125  1  0  0  0
 52126  1  0  0  0
 52127  1  0  0  0
 53 54  1  0  0  0
 54 55  2  0  0  0
 54128  1  0  0  0
 55 57  1  0  0  0
 55129  1  0  0  0
 56 69  2  0  0  0
 57 58  2  0  0  0
 57130  1  0  0  0
 58131  1  0  0  0
 59 60  1  0  0  0
 59 61  1  0  0  0
 59 62  1  0  0  0
 60132  1  0  0  0
 60133  1  0  0  0
 60134  1  0  0  0
 61135  1  0  0  0
 61136  1  0  0  0
 61137  1  0  0  0
 62138  1  0  0  0
 62139  1  0  0  0
 62140  1  0  0  0
 63 65  1  0  0  0
 63141  1  0  0  0
 63142  1  0  0  0
 63143  1  0  0  0
 64144  1  0  0  0
 65145  1  0  0  0
 68 79  1  0  0  0
 71 74  2  0  0  0
 71 75  1  0  0  0
 71146  1  0  0  0
 72 74  1  0  0  0
 72 76  2  0  0  0
 72147  1  0  0  0
 73 75  2  0  0  0
 73 76  1  0  0  0
 73148  1  0  0  0
 74 77  1  0  0  0
 75 83  1  0  0  0
 76 84  1  0  0  0
 77 78  2  0  0  0
 77149  1  0  0  0
 78150  1  0  0  0
 79 80  2  0  0  0
 79151  1  0  0  0
 80 81  1  0  0  0
 80 86  1  0  0  0
 81 83  1  0  0  0
 81 85  2  0  0  0
 82 84  1  0  0  0
 82152  1  0  0  0
 82153  1  0  0  0
 82154  1  0  0  0
 83155  1  0  0  0
 84156  1  0  0  0
 86157  1  0  0  0
M  ISO  4   1 100  68 101  78 100  79 101
M  END
> <chiral flag>
0

> <version>
0

> <s_m_source_file>
/data/baiqing/PycharmProjects/Reinvent-master-3.2/result/LINK_invent/BTK/process_docking_weight1_custom_product_contain_oxygen_bond_distance_aromatic_linkinvent_7_9_3/rearranged_h_0161.sdf

> <i_m_source_file_index>
18

> <r_mmod_Potential_Energy-OPLS-2005>
53.9423370361328

> <r_mmod_Stretch_Energy-OPLS-2005>
72.2449493408203

> <r_mmod_Bend_Energy-OPLS-2005>
145.700912475586

> <r_mmod_Torsional_Energy-OPLS-2005>
206.846481323242

> <r_mmod_Improper_Torsional_Energy-OPLS-2005>
8.65325450897217

> <r_mmod_Van_der_Waal_Energy-OPLS-2005>
156.255889892578

> <r_mmod_Electrostatic_Energy-OPLS-2005>
-322.127044677734

> <r_mmod_Solvation_Energy-OPLS-2005>
-251.440399169922

> <b_mmod_Minimization_Converged-OPLS-2005>
0

> <r_mmod_RMS_Derivative-OPLS-2005>
4.54972267150879

$$$$
18
                    3D
 Structure written by MMmdl.
154162  0  0  1  0            999 V2000
  -30.6348  -14.5374   20.5954 C   0  0  0  0  0  0
  -30.4491  -12.3527   19.4268 C   0  0  0  0  0  0
  -29.5058  -12.5172   18.2125 C   0  0  0  0  0  0
  -28.0267  -12.3604   18.6252 C   0  0  0  0  0  0
  -27.6656  -13.1994   19.8787 C   0  0  2  0  0  0
  -28.7055  -12.9589   20.9963 C   0  0  0  0  0  0
  -25.2608  -13.8141   20.5654 C   0  0  0  0  0  0
  -24.1847  -13.0443   20.9182 C   0  0  0  0  0  0
  -24.6389  -11.6905   20.8729 C   0  0  0  0  0  0
  -23.9045  -10.4300   21.0411 C   0  0  0  0  0  0
  -24.3601   -9.4218   21.9191 C   0  0  0  0  0  0
  -23.6277   -8.2254   22.0752 C   0  0  0  0  0  0
  -22.4261   -8.0295   21.3548 C   0  0  0  0  0  0
  -21.9890   -9.0272   20.4652 C   0  0  0  0  0  0
  -22.7212  -10.2153   20.3064 C   0  0  0  0  0  0
  -21.6857   -6.0740   22.5284 C   0  0  0  0  0  0
  -21.4013   -6.5638   23.8220 C   0  0  0  0  0  0
  -21.3649   -5.6791   24.9180 C   0  0  0  0  0  0
  -21.6051   -4.3055   24.7230 C   0  0  0  0  0  0
  -21.8813   -3.8144   23.4351 C   0  0  0  0  0  0
  -21.9185   -4.6966   22.3407 C   0  0  0  0  0  0
  -22.7875  -13.5266   21.1849 C   0  0  0  0  0  0
  -22.1664   -4.2156   21.0983 F   0  0  0  0  0  0
  -21.5620   -3.4536   25.7739 F   0  0  0  0  0  0
  -30.0354  -13.3158   20.4623 N   0  0  0  0  0  0
  -26.3039  -12.9292   20.3353 N   0  0  0  0  0  0
  -25.9306  -11.6461   20.5739 N   0  0  0  0  0  0
  -22.0497  -12.8281   22.0416 N   0  0  0  0  0  0
  -25.4332  -15.1849   20.4016 N   0  0  0  0  0  0
  -31.7282  -14.8033   20.0825 O   0  0  0  0  0  0
  -21.6637   -6.8886   21.4248 O   0  0  0  0  0  0
  -22.3571  -14.5576   20.6678 O   0  0  0  0  0  0
  -24.6200  -31.8660   23.2077 C   0  0  0  0  0  0
  -25.9076  -32.4815   23.8386 C   0  0  1  0  0  0
  -27.2216  -27.3761   20.0970 C   0  0  0  0  0  0
  -25.5912  -33.8613   24.2305 N   0  0  0  0  0  0
  -23.4094  -30.4919   21.5499 C   0  0  2  0  0  0
  -24.8538  -28.9589   20.1108 C   0  0  0  0  0  0
  -22.7444  -29.4654   22.4959 C   0  0  0  0  0  0
  -18.0280  -28.1383   22.8494 C   0  0  0  0  0  0
  -24.1490  -36.7303   23.2634 C   0  0  0  0  0  0
  -25.9470  -30.8109   21.3749 C   0  0  0  0  0  0
  -26.0192  -29.4441   20.7162 C   0  0  0  0  0  0
  -27.2039  -28.6601   20.7087 C   0  0  0  0  0  0
  -26.0346  -26.9380   19.4596 C   0  0  0  0  0  0
  -24.8596  -27.7076   19.4789 C   0  0  0  0  0  0
  -23.6204  -29.8326   20.1628 C   0  0  0  0  0  0
  -25.4112  -36.3100   24.0329 C   0  0  1  0  0  0
  -20.5879  -28.3678   23.1300 C   0  0  2  0  0  0
  -20.6779  -26.9407   22.5412 C   0  0  0  0  0  0
  -19.5751  -26.6384   21.5216 C   0  0  0  0  0  0
  -18.1931  -26.7926   22.1630 C   0  0  0  0  0  0
  -19.1537  -28.8841   23.2893 C   0  0  0  0  0  0
  -18.9464  -30.1451   23.8910 C   0  0  0  0  0  0
  -17.6464  -30.6587   24.0563 C   0  0  0  0  0  0
  -25.9044  -34.9472   23.5113 C   0  0  0  0  0  0
  -16.5353  -29.9086   23.6330 C   0  0  0  0  0  0
  -16.7272  -28.6503   23.0354 C   0  0  0  0  0  0
  -26.4475  -31.6613   25.0735 C   0  0  0  0  0  0
  -25.3726  -31.3761   26.1475 C   0  0  0  0  0  0
  -27.0303  -30.3038   24.6164 C   0  0  0  0  0  0
  -27.6045  -32.4344   25.7490 C   0  0  0  0  0  0
  -27.5583  -37.1805   24.8462 C   0  0  0  0  0  0
  -21.4162  -29.3035   22.3696 N   0  0  0  0  0  0
  -26.4293  -37.3790   23.9405 N   0  0  0  0  0  0
  -24.6767  -31.0720   22.1006 N   0  0  0  0  0  0
  -23.4197  -28.8184   23.3008 O   0  0  0  0  0  0
  -28.3628  -26.5774   20.1494 O   0  0  0  0  0  0
  -26.5611  -34.8926   22.4677 O   0  0  0  0  0  0
  -23.5380  -32.1436   23.7437 O   0  0  0  0  0  0
  -30.4566  -17.8574   20.4577 C   0  0  0  0  0  0
  -29.7649  -16.8662   21.2347 C   0  0  0  0  0  0
  -28.8053  -17.5266   21.9595 C   0  0  0  0  0  0
  -29.8466  -19.0515   20.7904 C   0  0  0  0  0  0
  -29.1797  -24.1982   20.5151 C   0  0  0  0  0  0
  -27.7371  -17.0953   22.9095 C   0  0  0  0  0  0
  -28.2331  -25.1731   19.7616 C   0  0  0  0  0  0
  -29.4958  -21.5640   20.8550 C   0  0  0  0  0  0
  -29.4419  -22.7950   19.8772 C   0  0  2  0  0  0
  -29.9034  -15.4315   21.3004 N   0  0  0  0  0  0
  -30.1051  -20.3397   20.2759 N   0  0  0  0  0  0
  -29.7065  -24.5267   21.5859 O   0  0  0  0  0  0
  -28.8602  -18.8706   21.7069 O   0  0  0  0  0  0
  -30.6033  -22.8370   19.2158 F   0  0  0  0  0  0
  -31.4871  -12.4985   19.1222 H   0  0  0  0  0  0
  -30.3979  -11.3373   19.8224 H   0  0  0  0  0  0
  -29.7549  -11.7897   17.4383 H   0  0  0  0  0  0
  -29.6570  -13.4990   17.7618 H   0  0  0  0  0  0
  -27.8505  -11.3031   18.8285 H   0  0  0  0  0  0
  -27.3730  -12.6238   17.7929 H   0  0  0  0  0  0
  -27.7149  -14.2494   19.5898 H   0  0  0  0  0  0
  -28.7004  -11.9066   21.2879 H   0  0  0  0  0  0
  -28.4404  -13.5004   21.9040 H   0  0  0  0  0  0
  -25.2749   -9.5687   22.4761 H   0  0  0  0  0  0
  -23.9994   -7.4630   22.7442 H   0  0  0  0  0  0
  -21.0825   -8.8782   19.8953 H   0  0  0  0  0  0
  -22.3665  -10.9695   19.6174 H   0  0  0  0  0  0
  -21.2024   -7.6148   23.9725 H   0  0  0  0  0  0
  -21.1469   -6.0522   25.9083 H   0  0  0  0  0  0
  -22.0595   -2.7607   23.2849 H   0  0  0  0  0  0
  -22.4111  -11.9958   22.4842 H   0  0  0  0  0  0
  -21.1128  -13.1325   22.2617 H   0  0  0  0  0  0
  -24.6571  -15.8324   20.4829 H   0  0  0  0  0  0
  -26.2738  -15.6154   20.0356 H   0  0  0  0  0  0
  -26.7144  -32.5504   23.1142 H   0  0  0  0  0  0
  -25.0065  -33.9778   25.0451 H   0  0  0  0  0  0
  -22.7005  -31.3109   21.4126 H   0  0  0  0  0  0
  -23.3754  -35.9635   23.3302 H   0  0  0  0  0  0
  -24.3581  -36.8918   22.2048 H   0  0  0  0  0  0
  -23.7247  -37.6507   23.6652 H   0  0  0  0  0  0
  -26.0785  -31.5778   20.6104 H   0  0  0  0  0  0
  -26.8283  -30.8549   22.0029 H   0  0  0  0  0  0
  -28.0983  -29.0249   21.1940 H   0  0  0  0  0  0
  -25.9764  -25.9981   18.9329 H   0  0  0  0  0  0
  -23.9677  -27.3332   18.9958 H   0  0  0  0  0  0
  -23.7368  -30.6117   19.4082 H   0  0  0  0  0  0
  -22.7410  -29.2606   19.8601 H   0  0  0  0  0  0
  -25.1292  -36.1956   25.0824 H   0  0  0  0  0  0
  -20.9980  -28.3249   24.1417 H   0  0  0  0  0  0
  -20.5693  -26.2282   23.3600 H   0  0  0  0  0  0
  -21.6648  -26.7450   22.1196 H   0  0  0  0  0  0
  -19.6909  -25.6296   21.1238 H   0  0  0  0  0  0
  -19.6684  -27.3199   20.6749 H   0  0  0  0  0  0
  -17.4196  -26.6672   21.4034 H   0  0  0  0  0  0
  -18.0329  -26.0067   22.9027 H   0  0  0  0  0  0
  -19.7938  -30.7262   24.2283 H   0  0  0  0  0  0
  -17.5018  -31.6269   24.5158 H   0  0  0  0  0  0
  -15.5356  -30.2992   23.7645 H   0  0  0  0  0  0
  -15.8671  -28.0819   22.7069 H   0  0  0  0  0  0
  -24.5857  -30.7159   25.7806 H   0  0  0  0  0  0
  -24.8971  -32.2947   26.4928 H   0  0  0  0  0  0
  -25.8050  -30.8904   27.0232 H   0  0  0  0  0  0
  -26.2867  -29.6807   24.1178 H   0  0  0  0  0  0
  -27.3999  -29.7271   25.4654 H   0  0  0  0  0  0
  -27.8740  -30.4322   23.9378 H   0  0  0  0  0  0
  -27.2646  -33.3623   26.2102 H   0  0  0  0  0  0
  -28.3824  -32.6951   25.0301 H   0  0  0  0  0  0
  -28.0748  -31.8461   26.5378 H   0  0  0  0  0  0
  -28.2605  -38.0099   24.7514 H   0  0  0  0  0  0
  -28.1080  -36.2635   24.6280 H   0  0  0  0  0  0
  -27.2306  -37.1444   25.8868 H   0  0  0  0  0  0
  -20.9322  -29.8757   21.6919 H   0  0  0  0  0  0
  -26.0179  -38.2866   24.1416 H   0  0  0  0  0  0
  -31.2617  -17.7151   19.7515 H   0  0  0  0  0  0
  -27.5444  -16.0246   22.8372 H   0  0  0  0  0  0
  -26.8002  -17.6119   22.6972 H   0  0  0  0  0  0
  -28.0197  -17.3177   23.9381 H   0  0  0  0  0  0
  -27.2361  -24.7974   19.9878 H   0  0  0  0  0  0
  -28.3851  -25.0748   18.6862 H   0  0  0  0  0  0
  -28.4845  -21.3474   21.2028 H   0  0  0  0  0  0
  -30.0639  -21.8317   21.7470 H   0  0  0  0  0  0
  -28.6760  -22.6230   19.1202 H   0  0  0  0  0  0
  -29.1559  -14.9778   21.8022 H   0  0  0  0  0  0
  -30.8350  -20.4989   19.5858 H   0  0  0  0  0  0
  1 25  1  0  0  0
  1 30  2  0  0  0
  1 80  1  0  0  0
  2  3  1  0  0  0
  2 25  1  0  0  0
  2 85  1  0  0  0
  2 86  1  0  0  0
  3  4  1  0  0  0
  3 87  1  0  0  0
  3 88  1  0  0  0
  4  5  1  0  0  0
  4 89  1  0  0  0
  4 90  1  0  0  0
  5  6  1  0  0  0
  5 26  1  0  0  0
  5 91  1  0  0  0
  6 25  1  0  0  0
  6 92  1  0  0  0
  6 93  1  0  0  0
  7  8  2  0  0  0
  7 26  1  0  0  0
  7 29  1  0  0  0
  8  9  1  0  0  0
  8 22  1  0  0  0
  9 10  1  0  0  0
  9 27  2  0  0  0
 10 11  2  0  0  0
 10 15  1  0  0  0
 11 12  1  0  0  0
 11 94  1  0  0  0
 12 13  2  0  0  0
 12 95  1  0  0  0
 13 14  1  0  0  0
 13 31  1  0  0  0
 14 15  2  0  0  0
 14 96  1  0  0  0
 15 97  1  0  0  0
 16 17  2  0  0  0
 16 21  1  0  0  0
 16 31  1  0  0  0
 17 18  1  0  0  0
 17 98  1  0  0  0
 18 19  2  0  0  0
 18 99  1  0  0  0
 19 20  1  0  0  0
 19 24  1  0  0  0
 20 21  2  0  0  0
 20100  1  0  0  0
 21 23  1  0  0  0
 22 28  1  0  0  0
 22 32  2  0  0  0
 26 27  1  0  0  0
 28101  1  0  0  0
 28102  1  0  0  0
 29103  1  0  0  0
 29104  1  0  0  0
 33 34  1  0  0  0
 33 66  1  0  0  0
 33 70  2  0  0  0
 34 36  1  0  0  0
 34 59  1  0  0  0
 34105  1  0  0  0
 35 44  2  0  0  0
 35 45  1  0  0  0
 35 68  1  0  0  0
 36 56  1  0  0  0
 36106  1  0  0  0
 37 39  1  0  0  0
 37 47  1  0  0  0
 37 66  1  0  0  0
 37107  1  0  0  0
 38 43  2  0  0  0
 38 46  1  0  0  0
 38 47  1  0  0  0
 39 64  1  0  0  0
 39 67  2  0  0  0
 40 52  1  0  0  0
 40 53  2  0  0  0
 40 58  1  0  0  0
 41108  1  0  0  0
 41109  1  0  0  0
 41110  1  0  0  0
 41 48  1  0  0  0
 42 43  1  0  0  0
 42 66  1  0  0  0
 42111  1  0  0  0
 42112  1  0  0  0
 43 44  1  0  0  0
 44113  1  0  0  0
 45 46  2  0  0  0
 45114  1  0  0  0
 46115  1  0  0  0
 47116  1  0  0  0
 47117  1  0  0  0
 48 56  1  0  0  0
 48 65  1  0  0  0
 48118  1  0  0  0
 49 50  1  0  0  0
 49 53  1  0  0  0
 49 64  1  0  0  0
 49119  1  0  0  0
 50 51  1  0  0  0
 50120  1  0  0  0
 50121  1  0  0  0
 51 52  1  0  0  0
 51122  1  0  0  0
 51123  1  0  0  0
 52124  1  0  0  0
 52125  1  0  0  0
 53 54  1  0  0  0
 54 55  2  0  0  0
 54126  1  0  0  0
 55 57  1  0  0  0
 55127  1  0  0  0
 56 69  2  0  0  0
 57 58  2  0  0  0
 57128  1  0  0  0
 58129  1  0  0  0
 59 60  1  0  0  0
 59 61  1  0  0  0
 59 62  1  0  0  0
 60130  1  0  0  0
 60131  1  0  0  0
 60132  1  0  0  0
 61133  1  0  0  0
 61134  1  0  0  0
 61135  1  0  0  0
 62136  1  0  0  0
 62137  1  0  0  0
 62138  1  0  0  0
 63 65  1  0  0  0
 63139  1  0  0  0
 63140  1  0  0  0
 63141  1  0  0  0
 64142  1  0  0  0
 65143  1  0  0  0
 68 77  1  0  0  0
 71 72  1  0  0  0
 71 74  2  0  0  0
 71144  1  0  0  0
 72 73  2  0  0  0
 72 80  1  0  0  0
 73 76  1  0  0  0
 73 83  1  0  0  0
 74 81  1  0  0  0
 74 83  1  0  0  0
 75 77  1  0  0  0
 75 79  1  0  0  0
 75 82  2  0  0  0
 76145  1  0  0  0
 76146  1  0  0  0
 76147  1  0  0  0
 77148  1  0  0  0
 77149  1  0  0  0
 78 79  1  0  0  0
 78 81  1  0  0  0
 78150  1  0  0  0
 78151  1  0  0  0
 79 84  1  0  0  0
 79152  1  0  0  0
 80153  1  0  0  0
 81154  1  0  0  0
M  ISO  4   1 100  68 101  77 101  80 100
M  END
> <chiral flag>
0

> <version>
0

> <s_m_source_file>
/data/baiqing/PycharmProjects/Reinvent-master-3.2/result/LINK_invent/BTK/process_docking_weight1_custom_product_contain_oxygen_bond_distance_aromatic_linkinvent_7_9_3/rearranged_h_0161.sdf

> <i_m_source_file_index>
19

> <r_mmod_Potential_Energy-OPLS-2005>
-0.840074181556702

> <r_mmod_Stretch_Energy-OPLS-2005>
50.7339859008789

> <r_mmod_Bend_Energy-OPLS-2005>
136.999725341797

> <r_mmod_Torsional_Energy-OPLS-2005>
211.458145141602

> <r_mmod_Improper_Torsional_Energy-OPLS-2005>
3.61238813400269

> <r_mmod_Van_der_Waal_Energy-OPLS-2005>
126.090385437012

> <r_mmod_Electrostatic_Energy-OPLS-2005>
-311.080932617188

> <r_mmod_Solvation_Energy-OPLS-2005>
-244.41423034668

> <b_mmod_Minimization_Converged-OPLS-2005>
0

> <r_mmod_RMS_Derivative-OPLS-2005>
1.91036772727966

$$$$
19
                    3D
 Structure written by MMmdl.
162170  0  0  1  0            999 V2000
  -30.6509  -14.5464   20.4450 C   0  0  0  0  0  0
  -30.4283  -12.2944   19.4774 C   0  0  0  0  0  0
  -29.5075  -12.3958   18.2427 C   0  0  0  0  0  0
  -28.0199  -12.3136   18.6391 C   0  0  0  0  0  0
  -27.6520  -13.2046   19.8573 C   0  0  2  0  0  0
  -28.6914  -13.0599   20.9919 C   0  0  0  0  0  0
  -25.2544  -13.8177   20.5671 C   0  0  0  0  0  0
  -24.1800  -13.0457   20.9191 C   0  0  0  0  0  0
  -24.6351  -11.6925   20.8761 C   0  0  0  0  0  0
  -23.9038  -10.4306   21.0433 C   0  0  0  0  0  0
  -24.3601   -9.4219   21.9204 C   0  0  0  0  0  0
  -23.6280   -8.2251   22.0762 C   0  0  0  0  0  0
  -22.4263   -8.0286   21.3554 C   0  0  0  0  0  0
  -21.9902   -9.0263   20.4660 C   0  0  0  0  0  0
  -22.7223  -10.2144   20.3074 C   0  0  0  0  0  0
  -21.6844   -6.0733   22.5283 C   0  0  0  0  0  0
  -21.4012   -6.5633   23.8219 C   0  0  0  0  0  0
  -21.3661   -5.6784   24.9180 C   0  0  0  0  0  0
  -21.6044   -4.3049   24.7231 C   0  0  0  0  0  0
  -21.8815   -3.8141   23.4353 C   0  0  0  0  0  0
  -21.9188   -4.6960   22.3405 C   0  0  0  0  0  0
  -22.7825  -13.5259   21.1854 C   0  0  0  0  0  0
  -22.1655   -4.2150   21.0982 F   0  0  0  0  0  0
  -21.5635   -3.4527   25.7743 F   0  0  0  0  0  0
  -30.0192  -13.3406   20.4273 N   0  0  0  0  0  0
  -26.2957  -12.9336   20.3291 N   0  0  0  0  0  0
  -25.9270  -11.6505   20.5785 N   0  0  0  0  0  0
  -22.0444  -12.8277   22.0419 N   0  0  0  0  0  0
  -25.4252  -15.1901   20.4089 N   0  0  0  0  0  0
  -31.8376  -14.6829   20.1411 O   0  0  0  0  0  0
  -21.6628   -6.8882   21.4246 O   0  0  0  0  0  0
  -22.3516  -14.5566   20.6697 O   0  0  0  0  0  0
  -24.6122  -31.8687   23.2092 C   0  0  0  0  0  0
  -25.9034  -32.4821   23.8373 C   0  0  1  0  0  0
  -27.2386  -27.4329   20.1227 C   0  0  0  0  0  0
  -25.5909  -33.8620   24.2322 N   0  0  0  0  0  0
  -23.3993  -30.4881   21.5482 C   0  0  2  0  0  0
  -24.8507  -28.9480   20.1165 C   0  0  0  0  0  0
  -22.7392  -29.4655   22.4977 C   0  0  0  0  0  0
  -18.0268  -28.1361   22.8479 C   0  0  0  0  0  0
  -24.1488  -36.7309   23.2629 C   0  0  0  0  0  0
  -25.9250  -30.8363   21.3602 C   0  0  0  0  0  0
  -26.0064  -29.4680   20.7131 C   0  0  0  0  0  0
  -27.2037  -28.7182   20.7100 C   0  0  0  0  0  0
  -26.0721  -26.9251   19.5151 C   0  0  0  0  0  0
  -24.8791  -27.6768   19.5128 C   0  0  0  0  0  0
  -23.6087  -29.8124   20.1646 C   0  0  0  0  0  0
  -25.4116  -36.3113   24.0327 C   0  0  1  0  0  0
  -20.5855  -28.3657   23.1321 C   0  0  2  0  0  0
  -20.6790  -26.9415   22.5385 C   0  0  0  0  0  0
  -19.5771  -26.6414   21.5184 C   0  0  0  0  0  0
  -18.1934  -26.7919   22.1584 C   0  0  0  0  0  0
  -19.1508  -28.8821   23.2890 C   0  0  0  0  0  0
  -18.9427  -30.1428   23.8902 C   0  0  0  0  0  0
  -17.6428  -30.6567   24.0549 C   0  0  0  0  0  0
  -25.9037  -34.9475   23.5118 C   0  0  0  0  0  0
  -16.5328  -29.9065   23.6307 C   0  0  0  0  0  0
  -16.7255  -28.6485   23.0322 C   0  0  0  0  0  0
  -26.4489  -31.6595   25.0689 C   0  0  0  0  0  0
  -25.3757  -31.3708   26.1438 C   0  0  0  0  0  0
  -27.0302  -30.3029   24.6046 C   0  0  0  0  0  0
  -27.6066  -32.4308   25.7457 C   0  0  0  0  0  0
  -27.5580  -37.1808   24.8460 C   0  0  0  0  0  0
  -21.4120  -29.3052   22.3747 N   0  0  0  0  0  0
  -26.4300  -37.3792   23.9396 N   0  0  0  0  0  0
  -24.6628  -31.0796   22.0974 N   0  0  0  0  0  0
  -23.4172  -28.8195   23.3012 O   0  0  0  0  0  0
  -28.4093  -26.7037   20.1176 O   0  0  0  0  0  0
  -26.5585  -34.8930   22.4670 O   0  0  0  0  0  0
  -23.5332  -32.1439   23.7506 O   0  0  0  0  0  0
  -30.2035  -18.3517   17.9375 C   0  0  0  0  0  0
  -29.9613  -19.4958   18.7030 C   0  0  0  0  0  0
  -29.6484  -18.0912   20.6700 C   0  0  0  0  0  0
  -30.1393  -17.0639   18.5054 C   0  0  0  0  0  0
  -29.6276  -19.3841   20.0673 C   0  0  0  0  0  0
  -29.9204  -16.9069   19.9143 C   0  0  0  0  0  0
  -30.2557  -15.9764   17.5050 C   0  0  0  0  0  0
  -28.6563  -21.6596   20.3557 C   0  0  0  0  0  0
  -28.9680  -15.6633   16.7521 C   0  0  0  0  0  0
  -27.8437  -25.8221   22.3876 C   0  0  0  0  0  0
  -28.7197  -22.9742   21.1632 C   0  0  0  0  0  0
  -28.2006  -24.2277   20.3856 C   0  0  0  0  0  0
  -28.5465  -25.5931   21.0346 C   0  0  1  0  0  0
  -29.3378  -20.5784   20.8107 N   0  0  0  0  0  0
  -29.8334  -15.6219   20.5817 N   0  0  0  0  0  0
  -31.3059  -15.4029   17.2104 O   0  0  0  0  0  0
  -27.9622  -21.6200   19.3363 O   0  0  0  0  0  0
  -31.4760  -12.3844   19.1835 H   0  0  0  0  0  0
  -30.3331  -11.3131   19.9444 H   0  0  0  0  0  0
  -29.7447  -11.5998   17.5363 H   0  0  0  0  0  0
  -29.7005  -13.3185   17.7129 H   0  0  0  0  0  0
  -27.8092  -11.2693   18.8712 H   0  0  0  0  0  0
  -27.3879  -12.5619   17.7868 H   0  0  0  0  0  0
  -27.6743  -14.2350   19.5042 H   0  0  0  0  0  0
  -28.6706  -12.0512   21.4062 H   0  0  0  0  0  0
  -28.4544  -13.7273   21.8222 H   0  0  0  0  0  0
  -25.2750   -9.5682   22.4778 H   0  0  0  0  0  0
  -23.9991   -7.4632   22.7467 H   0  0  0  0  0  0
  -21.0843   -8.8790   19.8955 H   0  0  0  0  0  0
  -22.3703  -10.9686   19.6182 H   0  0  0  0  0  0
  -21.2002   -7.6139   23.9733 H   0  0  0  0  0  0
  -21.1485   -6.0508   25.9090 H   0  0  0  0  0  0
  -22.0592   -2.7605   23.2849 H   0  0  0  0  0  0
  -22.4034  -11.9951   22.4841 H   0  0  0  0  0  0
  -21.1070  -13.1345   22.2622 H   0  0  0  0  0  0
  -24.6548  -15.8394   20.5313 H   0  0  0  0  0  0
  -26.2711  -15.6401   20.0849 H   0  0  0  0  0  0
  -26.7083  -32.5546   23.1121 H   0  0  0  0  0  0
  -25.0110  -33.9768   25.0500 H   0  0  0  0  0  0
  -22.6857  -31.3029   21.4067 H   0  0  0  0  0  0
  -23.3739  -35.9646   23.3307 H   0  0  0  0  0  0
  -24.3580  -36.8917   22.2038 H   0  0  0  0  0  0
  -23.7253  -37.6524   23.6638 H   0  0  0  0  0  0
  -26.0297  -31.5998   20.5872 H   0  0  0  0  0  0
  -26.8134  -30.8968   21.9763 H   0  0  0  0  0  0
  -28.0970  -29.1160   21.1722 H   0  0  0  0  0  0
  -26.0879  -25.9507   19.0482 H   0  0  0  0  0  0
  -23.9910  -27.2712   19.0492 H   0  0  0  0  0  0
  -23.7126  -30.5846   19.4020 H   0  0  0  0  0  0
  -22.7342  -29.2288   19.8696 H   0  0  0  0  0  0
  -25.1288  -36.1965   25.0822 H   0  0  0  0  0  0
  -20.9918  -28.3205   24.1449 H   0  0  0  0  0  0
  -20.5715  -26.2236   23.3521 H   0  0  0  0  0  0
  -21.6662  -26.7499   22.1159 H   0  0  0  0  0  0
  -19.6950  -25.6345   21.1173 H   0  0  0  0  0  0
  -19.6730  -27.3263   20.6751 H   0  0  0  0  0  0
  -17.4225  -26.6664   21.3962 H   0  0  0  0  0  0
  -18.0341  -26.0046   22.8958 H   0  0  0  0  0  0
  -19.7911  -30.7232   24.2256 H   0  0  0  0  0  0
  -17.4995  -31.6248   24.5160 H   0  0  0  0  0  0
  -15.5321  -30.2959   23.7613 H   0  0  0  0  0  0
  -15.8667  -28.0809   22.7016 H   0  0  0  0  0  0
  -24.5921  -30.7068   25.7771 H   0  0  0  0  0  0
  -24.8961  -32.2875   26.4894 H   0  0  0  0  0  0
  -25.8125  -30.8874   27.0183 H   0  0  0  0  0  0
  -26.2832  -29.6796   24.1110 H   0  0  0  0  0  0
  -27.4082  -29.7272   25.4503 H   0  0  0  0  0  0
  -27.8677  -30.4336   23.9178 H   0  0  0  0  0  0
  -27.2678  -33.3583   26.2092 H   0  0  0  0  0  0
  -28.3862  -32.6914   25.0278 H   0  0  0  0  0  0
  -28.0741  -31.8386   26.5335 H   0  0  0  0  0  0
  -28.2604  -38.0097   24.7498 H   0  0  0  0  0  0
  -28.1071  -36.2628   24.6300 H   0  0  0  0  0  0
  -27.2288  -37.1479   25.8861 H   0  0  0  0  0  0
  -20.9251  -29.8813   21.7022 H   0  0  0  0  0  0
  -26.0185  -38.2866   24.1414 H   0  0  0  0  0  0
  -30.4031  -18.4733   16.8810 H   0  0  0  0  0  0
  -30.0085  -20.4588   18.2133 H   0  0  0  0  0  0
  -29.4293  -18.0039   21.7253 H   0  0  0  0  0  0
  -28.1800  -15.3937   17.4545 H   0  0  0  0  0  0
  -29.1098  -14.8363   16.0570 H   0  0  0  0  0  0
  -28.6427  -16.5349   16.1852 H   0  0  0  0  0  0
  -28.1126  -25.0511   23.1096 H   0  0  0  0  0  0
  -26.7580  -25.8108   22.2881 H   0  0  0  0  0  0
  -28.1310  -26.7808   22.8194 H   0  0  0  0  0  0
  -29.7596  -23.1343   21.4538 H   0  0  0  0  0  0
  -28.1521  -22.8440   22.0845 H   0  0  0  0  0  0
  -27.1224  -24.1451   20.2512 H   0  0  0  0  0  0
  -28.6316  -24.2216   19.3842 H   0  0  0  0  0  0
  -29.6152  -25.5686   21.2509 H   0  0  0  0  0  0
  -29.7304  -20.6441   21.7400 H   0  0  0  0  0  0
  -28.9563  -15.4275   21.0419 H   0  0  0  0  0  0
  1 25  1  0  0  0
  1 30  2  0  0  0
  1 85  1  0  0  0
  2  3  1  0  0  0
  2 25  1  0  0  0
  2 88  1  0  0  0
  2 89  1  0  0  0
  3  4  1  0  0  0
  3 90  1  0  0  0
  3 91  1  0  0  0
  4  5  1  0  0  0
  4 92  1  0  0  0
  4 93  1  0  0  0
  5  6  1  0  0  0
  5 26  1  0  0  0
  5 94  1  0  0  0
  6 25  1  0  0  0
  6 95  1  0  0  0
  6 96  1  0  0  0
  7  8  2  0  0  0
  7 26  1  0  0  0
  7 29  1  0  0  0
  8  9  1  0  0  0
  8 22  1  0  0  0
  9 10  1  0  0  0
  9 27  2  0  0  0
 10 11  2  0  0  0
 10 15  1  0  0  0
 11 12  1  0  0  0
 11 97  1  0  0  0
 12 13  2  0  0  0
 12 98  1  0  0  0
 13 14  1  0  0  0
 13 31  1  0  0  0
 14 15  2  0  0  0
 14 99  1  0  0  0
 15100  1  0  0  0
 16 17  2  0  0  0
 16 21  1  0  0  0
 16 31  1  0  0  0
 17 18  1  0  0  0
 17101  1  0  0  0
 18 19  2  0  0  0
 18102  1  0  0  0
 19 20  1  0  0  0
 19 24  1  0  0  0
 20 21  2  0  0  0
 20103  1  0  0  0
 21 23  1  0  0  0
 22 28  1  0  0  0
 22 32  2  0  0  0
 26 27  1  0  0  0
 28104  1  0  0  0
 28105  1  0  0  0
 29106  1  0  0  0
 29107  1  0  0  0
 33 34  1  0  0  0
 33 66  1  0  0  0
 33 70  2  0  0  0
 34 36  1  0  0  0
 34 59  1  0  0  0
 34108  1  0  0  0
 35 44  2  0  0  0
 35 45  1  0  0  0
 35 68  1  0  0  0
 36 56  1  0  0  0
 36109  1  0  0  0
 37 39  1  0  0  0
 37 47  1  0  0  0
 37 66  1  0  0  0
 37110  1  0  0  0
 38 43  2  0  0  0
 38 46  1  0  0  0
 38 47  1  0  0  0
 39 64  1  0  0  0
 39 67  2  0  0  0
 40 52  1  0  0  0
 40 53  2  0  0  0
 40 58  1  0  0  0
 41111  1  0  0  0
 41112  1  0  0  0
 41113  1  0  0  0
 41 48  1  0  0  0
 42 43  1  0  0  0
 42 66  1  0  0  0
 42114  1  0  0  0
 42115  1  0  0  0
 43 44  1  0  0  0
 44116  1  0  0  0
 45 46  2  0  0  0
 45117  1  0  0  0
 46118  1  0  0  0
 47119  1  0  0  0
 47120  1  0  0  0
 48 56  1  0  0  0
 48 65  1  0  0  0
 48121  1  0  0  0
 49 50  1  0  0  0
 49 53  1  0  0  0
 49 64  1  0  0  0
 49122  1  0  0  0
 50 51  1  0  0  0
 50123  1  0  0  0
 50124  1  0  0  0
 51 52  1  0  0  0
 51125  1  0  0  0
 51126  1  0  0  0
 52127  1  0  0  0
 52128  1  0  0  0
 53 54  1  0  0  0
 54 55  2  0  0  0
 54129  1  0  0  0
 55 57  1  0  0  0
 55130  1  0  0  0
 56 69  2  0  0  0
 57 58  2  0  0  0
 57131  1  0  0  0
 58132  1  0  0  0
 59 60  1  0  0  0
 59 61  1  0  0  0
 59 62  1  0  0  0
 60133  1  0  0  0
 60134  1  0  0  0
 60135  1  0  0  0
 61136  1  0  0  0
 61137  1  0  0  0
 61138  1  0  0  0
 62139  1  0  0  0
 62140  1  0  0  0
 62141  1  0  0  0
 63 65  1  0  0  0
 63142  1  0  0  0
 63143  1  0  0  0
 63144  1  0  0  0
 64145  1  0  0  0
 65146  1  0  0  0
 68 83  1  0  0  0
 71 72  2  0  0  0
 71 74  1  0  0  0
 71147  1  0  0  0
 72 75  1  0  0  0
 72148  1  0  0  0
 73 75  2  0  0  0
 73 76  1  0  0  0
 73149  1  0  0  0
 74 76  2  0  0  0
 74 77  1  0  0  0
 75 84  1  0  0  0
 76 85  1  0  0  0
 77 79  1  0  0  0
 77 86  2  0  0  0
 78 81  1  0  0  0
 78 84  1  0  0  0
 78 87  2  0  0  0
 79150  1  0  0  0
 79151  1  0  0  0
 79152  1  0  0  0
 80153  1  0  0  0
 80154  1  0  0  0
 80155  1  0  0  0
 80 83  1  0  0  0
 81 82  1  0  0  0
 81156  1  0  0  0
 81157  1  0  0  0
 82 83  1  0  0  0
 82158  1  0  0  0
 82159  1  0  0  0
 83160  1  0  0  0
 84161  1  0  0  0
 85162  1  0  0  0
M  ISO  4   1 100  68 101  83 101  85 100
M  END
> <chiral flag>
0

> <version>
0

> <s_m_source_file>
/data/baiqing/PycharmProjects/Reinvent-master-3.2/result/LINK_invent/BTK/process_docking_weight1_custom_product_contain_oxygen_bond_distance_aromatic_linkinvent_7_9_3/rearranged_h_0161.sdf

> <i_m_source_file_index>
20

> <r_mmod_Potential_Energy-OPLS-2005>
42.4678421020508

> <r_mmod_Stretch_Energy-OPLS-2005>
47.2083892822266

> <r_mmod_Bend_Energy-OPLS-2005>
109.128234863281

> <r_mmod_Torsional_Energy-OPLS-2005>
342.207458496094

> <r_mmod_Improper_Torsional_Energy-OPLS-2005>
7.23085975646973

> <r_mmod_Van_der_Waal_Energy-OPLS-2005>
144.687393188477

> <r_mmod_Electrostatic_Energy-OPLS-2005>
-380.779663085938

> <r_mmod_Solvation_Energy-OPLS-2005>
-252.959075927734

> <b_mmod_Minimization_Converged-OPLS-2005>
0

> <r_mmod_RMS_Derivative-OPLS-2005>
2.05362772941589

$$$$
20
                    3D
 Structure written by MMmdl.
160168  0  0  1  0            999 V2000
  -30.6051  -14.8185   20.4486 C   0  0  0  0  0  0
  -30.4249  -12.5108   19.4738 C   0  0  0  0  0  0
  -29.5058  -12.4908   18.2369 C   0  0  0  0  0  0
  -28.0372  -12.2940   18.6605 C   0  0  0  0  0  0
  -27.6250  -13.2196   19.8329 C   0  0  2  0  0  0
  -28.6674  -13.2381   20.9654 C   0  0  0  0  0  0
  -25.2501  -13.8157   20.5698 C   0  0  0  0  0  0
  -24.1794  -13.0450   20.9223 C   0  0  0  0  0  0
  -24.6377  -11.6916   20.8799 C   0  0  0  0  0  0
  -23.9050  -10.4297   21.0437 C   0  0  0  0  0  0
  -24.3600   -9.4222   21.9218 C   0  0  0  0  0  0
  -23.6295   -8.2246   22.0757 C   0  0  0  0  0  0
  -22.4289   -8.0285   21.3534 C   0  0  0  0  0  0
  -21.9909   -9.0262   20.4651 C   0  0  0  0  0  0
  -22.7214  -10.2141   20.3092 C   0  0  0  0  0  0
  -21.6868   -6.0736   22.5293 C   0  0  0  0  0  0
  -21.3990   -6.5629   23.8215 C   0  0  0  0  0  0
  -21.3650   -5.6804   24.9151 C   0  0  0  0  0  0
  -21.6040   -4.3064   24.7230 C   0  0  0  0  0  0
  -21.8823   -3.8148   23.4359 C   0  0  0  0  0  0
  -21.9190   -4.6958   22.3410 C   0  0  0  0  0  0
  -22.7826  -13.5271   21.1908 C   0  0  0  0  0  0
  -22.1685   -4.2141   21.0991 F   0  0  0  0  0  0
  -21.5615   -3.4581   25.7744 F   0  0  0  0  0  0
  -29.9483  -13.6057   20.3635 N   0  0  0  0  0  0
  -26.2872  -12.9328   20.3220 N   0  0  0  0  0  0
  -25.9259  -11.6520   20.5762 N   0  0  0  0  0  0
  -22.0496  -12.8276   22.0436 N   0  0  0  0  0  0
  -25.4312  -15.1886   20.4020 N   0  0  0  0  0  0
  -31.8001  -14.8429   20.1350 O   0  0  0  0  0  0
  -21.6633   -6.8901   21.4265 O   0  0  0  0  0  0
  -22.3571  -14.5597   20.6741 O   0  0  0  0  0  0
  -24.6366  -31.8518   23.1923 C   0  0  0  0  0  0
  -25.9164  -32.4733   23.8320 C   0  0  1  0  0  0
  -27.2171  -27.2275   20.1450 C   0  0  0  0  0  0
  -25.5915  -33.8527   24.2237 N   0  0  0  0  0  0
  -23.4376  -30.4701   21.5365 C   0  0  2  0  0  0
  -24.8837  -28.9063   20.1119 C   0  0  0  0  0  0
  -22.7555  -29.4618   22.4920 C   0  0  0  0  0  0
  -18.0397  -28.1341   22.8497 C   0  0  0  0  0  0
  -24.1486  -36.7268   23.2641 C   0  0  0  0  0  0
  -25.9818  -30.7549   21.3762 C   0  0  0  0  0  0
  -26.0573  -29.3718   20.7216 C   0  0  0  0  0  0
  -27.2321  -28.5476   20.7200 C   0  0  0  0  0  0
  -26.0275  -26.8417   19.4923 C   0  0  0  0  0  0
  -24.8777  -27.6554   19.4783 C   0  0  0  0  0  0
  -23.6549  -29.7941   20.1565 C   0  0  0  0  0  0
  -25.4109  -36.3041   24.0327 C   0  0  1  0  0  0
  -20.5989  -28.3801   23.1408 C   0  0  2  0  0  0
  -20.6980  -26.9516   22.5552 C   0  0  0  0  0  0
  -19.6003  -26.6466   21.5261 C   0  0  0  0  0  0
  -18.2145  -26.7917   22.1584 C   0  0  0  0  0  0
  -19.1603  -28.8864   23.2922 C   0  0  0  0  0  0
  -18.9438  -30.1473   23.8927 C   0  0  0  0  0  0
  -17.6409  -30.6570   24.0503 C   0  0  0  0  0  0
  -25.9049  -34.9443   23.5091 C   0  0  0  0  0  0
  -16.5359  -29.9032   23.6177 C   0  0  0  0  0  0
  -16.7345  -28.6421   23.0280 C   0  0  0  0  0  0
  -26.4543  -31.6551   25.0715 C   0  0  0  0  0  0
  -25.3759  -31.3707   26.1424 C   0  0  0  0  0  0
  -27.0368  -30.2960   24.6213 C   0  0  0  0  0  0
  -27.6090  -32.4299   25.7477 C   0  0  0  0  0  0
  -27.5560  -37.1769   24.8468 C   0  0  0  0  0  0
  -21.4257  -29.3170   22.3775 N   0  0  0  0  0  0
  -26.4278  -37.3745   23.9407 N   0  0  0  0  0  0
  -24.7056  -31.0476   22.0906 N   0  0  0  0  0  0
  -23.4221  -28.8126   23.2999 O   0  0  0  0  0  0
  -28.2849  -26.2941   20.1748 O   0  0  0  0  0  0
  -26.5647  -34.8931   22.4674 O   0  0  0  0  0  0
  -23.5500  -32.1349   23.7173 O   0  0  0  0  0  0
  -27.6569  -17.5477   18.5750 C   0  0  0  0  0  0
  -27.8788  -18.9369   18.6522 C   0  0  0  0  0  0
  -28.6964  -19.3946   19.7202 C   0  0  0  0  0  0
  -29.2298  -17.0460   20.1597 C   0  0  0  0  0  0
  -27.3135  -19.7155   17.5294 C   0  0  0  0  0  0
  -25.4697  -21.5985   20.3488 C   0  0  0  0  0  0
  -28.7001  -23.5778   20.0522 C   0  0  0  0  0  0
  -24.1146  -22.1376   19.8994 C   0  0  0  0  0  0
  -26.6757  -22.1389   19.5808 C   0  0  0  0  0  0
  -27.9860  -24.8932   20.6816 C   0  0  0  0  0  0
  -28.0786  -22.0614   20.2603 C   0  0  1  0  0  0
  -28.3093  -16.6243   19.3108 N   0  0  0  0  0  0
  -29.3913  -18.4007   20.4223 N   0  0  0  0  0  0
  -27.9935  -20.3888   16.6958 N   0  0  0  0  0  0
  -28.9734  -20.8220   19.9585 N   0  0  0  0  0  0
  -29.9806  -16.0140   20.8340 N   0  0  0  0  0  0
  -25.5717  -20.7802   21.2662 O   0  0  0  0  0  0
  -29.7204  -23.7270   19.3763 O   0  0  0  0  0  0
  -31.4600  -12.6466   19.1542 H   0  0  0  0  0  0
  -30.4023  -11.5491   19.9964 H   0  0  0  0  0  0
  -29.8084  -11.6943   17.5635 H   0  0  0  0  0  0
  -29.6066  -13.4176   17.6757 H   0  0  0  0  0  0
  -27.9139  -11.2508   18.9606 H   0  0  0  0  0  0
  -27.3796  -12.4360   17.8035 H   0  0  0  0  0  0
  -27.5939  -14.2131   19.3949 H   0  0  0  0  0  0
  -28.7268  -12.2652   21.4551 H   0  0  0  0  0  0
  -28.3849  -13.9597   21.7344 H   0  0  0  0  0  0
  -25.2749   -9.5663   22.4776 H   0  0  0  0  0  0
  -23.9975   -7.4644   22.7470 H   0  0  0  0  0  0
  -21.0843   -8.8788   19.8973 H   0  0  0  0  0  0
  -22.3702  -10.9664   19.6196 H   0  0  0  0  0  0
  -21.1979   -7.6141   23.9712 H   0  0  0  0  0  0
  -21.1459   -6.0523   25.9058 H   0  0  0  0  0  0
  -22.0599   -2.7628   23.2869 H   0  0  0  0  0  0
  -22.4179  -11.9948   22.4794 H   0  0  0  0  0  0
  -21.1110  -13.1259   22.2636 H   0  0  0  0  0  0
  -24.6892  -15.8638   20.5338 H   0  0  0  0  0  0
  -26.2992  -15.5894   20.0642 H   0  0  0  0  0  0
  -26.7224  -32.5402   23.1040 H   0  0  0  0  0  0
  -25.0036  -33.9653   25.0363 H   0  0  0  0  0  0
  -22.7377  -31.2888   21.3795 H   0  0  0  0  0  0
  -23.3741  -35.9602   23.3314 H   0  0  0  0  0  0
  -24.3580  -36.8869   22.2049 H   0  0  0  0  0  0
  -23.7255  -37.6478   23.6670 H   0  0  0  0  0  0
  -26.1303  -31.5072   20.6009 H   0  0  0  0  0  0
  -26.8599  -30.8069   22.0075 H   0  0  0  0  0  0
  -28.1337  -28.8883   21.2142 H   0  0  0  0  0  0
  -25.9799  -25.8834   19.0021 H   0  0  0  0  0  0
  -23.9875  -27.2955   18.9805 H   0  0  0  0  0  0
  -23.7659  -30.5605   19.3889 H   0  0  0  0  0  0
  -22.7757  -29.2144   19.8677 H   0  0  0  0  0  0
  -25.1278  -36.1879   25.0818 H   0  0  0  0  0  0
  -21.0076  -28.3414   24.1525 H   0  0  0  0  0  0
  -20.5905  -26.2453   23.3771 H   0  0  0  0  0  0
  -21.6918  -26.7604   22.1465 H   0  0  0  0  0  0
  -19.7278  -25.6425   21.1246 H   0  0  0  0  0  0
  -19.7041  -27.3320   20.6834 H   0  0  0  0  0  0
  -17.4463  -26.6609   21.3963 H   0  0  0  0  0  0
  -18.0619  -26.0027   22.8976 H   0  0  0  0  0  0
  -19.7907  -30.7312   24.2327 H   0  0  0  0  0  0
  -17.4910  -31.6311   24.4982 H   0  0  0  0  0  0
  -15.5342  -30.2893   23.7383 H   0  0  0  0  0  0
  -15.8782  -28.0705   22.6937 H   0  0  0  0  0  0
  -24.5953  -30.7026   25.7780 H   0  0  0  0  0  0
  -24.8927  -32.2861   26.4863 H   0  0  0  0  0  0
  -25.8082  -30.8895   27.0218 H   0  0  0  0  0  0
  -26.2959  -29.6708   24.1222 H   0  0  0  0  0  0
  -27.4014  -29.7234   25.4765 H   0  0  0  0  0  0
  -27.8880  -30.4230   23.9511 H   0  0  0  0  0  0
  -27.2712  -33.3624   26.2056 H   0  0  0  0  0  0
  -28.3912  -32.6826   25.0283 H   0  0  0  0  0  0
  -28.0790  -31.8428   26.5380 H   0  0  0  0  0  0
  -28.2580  -38.0063   24.7478 H   0  0  0  0  0  0
  -28.1037  -36.2574   24.6316 H   0  0  0  0  0  0
  -27.2293  -37.1481   25.8883 H   0  0  0  0  0  0
  -20.9419  -29.8994   21.7122 H   0  0  0  0  0  0
  -26.0143  -38.2825   24.1366 H   0  0  0  0  0  0
  -26.9842  -17.1461   17.8314 H   0  0  0  0  0  0
  -26.2210  -19.6630   17.4148 H   0  0  0  0  0  0
  -24.1189  -22.1800   18.8097 H   0  0  0  0  0  0
  -23.9348  -23.1427   20.2843 H   0  0  0  0  0  0
  -23.2850  -21.5028   20.2148 H   0  0  0  0  0  0
  -26.4042  -23.1836   19.4277 H   0  0  0  0  0  0
  -26.6735  -21.7792   18.5658 H   0  0  0  0  0  0
  -28.2648  -24.9021   21.7362 H   0  0  0  0  0  0
  -26.9120  -24.7249   20.6948 H   0  0  0  0  0  0
  -27.9046  -21.9775   21.3366 H   0  0  0  0  0  0
  -28.9947  -20.3619   16.8768 H   0  0  0  0  0  0
  -29.8812  -20.9480   20.3912 H   0  0  0  0  0  0
  -30.6241  -16.4764   21.4513 H   0  0  0  0  0  0
  1 25  1  0  0  0
  1 30  2  0  0  0
  1 86  1  0  0  0
  2  3  1  0  0  0
  2 25  1  0  0  0
  2 89  1  0  0  0
  2 90  1  0  0  0
  3  4  1  0  0  0
  3 91  1  0  0  0
  3 92  1  0  0  0
  4  5  1  0  0  0
  4 93  1  0  0  0
  4 94  1  0  0  0
  5  6  1  0  0  0
  5 26  1  0  0  0
  5 95  1  0  0  0
  6 25  1  0  0  0
  6 96  1  0  0  0
  6 97  1  0  0  0
  7  8  2  0  0  0
  7 26  1  0  0  0
  7 29  1  0  0  0
  8  9  1  0  0  0
  8 22  1  0  0  0
  9 10  1  0  0  0
  9 27  2  0  0  0
 10 11  2  0  0  0
 10 15  1  0  0  0
 11 12  1  0  0  0
 11 98  1  0  0  0
 12 13  2  0  0  0
 12 99  1  0  0  0
 13 14  1  0  0  0
 13 31  1  0  0  0
 14 15  2  0  0  0
 14100  1  0  0  0
 15101  1  0  0  0
 16 17  2  0  0  0
 16 21  1  0  0  0
 16 31  1  0  0  0
 17 18  1  0  0  0
 17102  1  0  0  0
 18 19  2  0  0  0
 18103  1  0  0  0
 19 20  1  0  0  0
 19 24  1  0  0  0
 20 21  2  0  0  0
 20104  1  0  0  0
 21 23  1  0  0  0
 22 28  1  0  0  0
 22 32  2  0  0  0
 26 27  1  0  0  0
 28105  1  0  0  0
 28106  1  0  0  0
 29107  1  0  0  0
 29108  1  0  0  0
 33 34  1  0  0  0
 33 66  1  0  0  0
 33 70  2  0  0  0
 34 36  1  0  0  0
 34 59  1  0  0  0
 34109  1  0  0  0
 35 44  2  0  0  0
 35 45  1  0  0  0
 35 68  1  0  0  0
 36 56  1  0  0  0
 36110  1  0  0  0
 37 39  1  0  0  0
 37 47  1  0  0  0
 37 66  1  0  0  0
 37111  1  0  0  0
 38 43  2  0  0  0
 38 46  1  0  0  0
 38 47  1  0  0  0
 39 64  1  0  0  0
 39 67  2  0  0  0
 40 52  1  0  0  0
 40 53  2  0  0  0
 40 58  1  0  0  0
 41112  1  0  0  0
 41113  1  0  0  0
 41114  1  0  0  0
 41 48  1  0  0  0
 42 43  1  0  0  0
 42 66  1  0  0  0
 42115  1  0  0  0
 42116  1  0  0  0
 43 44  1  0  0  0
 44117  1  0  0  0
 45 46  2  0  0  0
 45118  1  0  0  0
 46119  1  0  0  0
 47120  1  0  0  0
 47121  1  0  0  0
 48 56  1  0  0  0
 48 65  1  0  0  0
 48122  1  0  0  0
 49 50  1  0  0  0
 49 53  1  0  0  0
 49 64  1  0  0  0
 49123  1  0  0  0
 50 51  1  0  0  0
 50124  1  0  0  0
 50125  1  0  0  0
 51 52  1  0  0  0
 51126  1  0  0  0
 51127  1  0  0  0
 52128  1  0  0  0
 52129  1  0  0  0
 53 54  1  0  0  0
 54 55  2  0  0  0
 54130  1  0  0  0
 55 57  1  0  0  0
 55131  1  0  0  0
 56 69  2  0  0  0
 57 58  2  0  0  0
 57132  1  0  0  0
 58133  1  0  0  0
 59 60  1  0  0  0
 59 61  1  0  0  0
 59 62  1  0  0  0
 60134  1  0  0  0
 60135  1  0  0  0
 60136  1  0  0  0
 61137  1  0  0  0
 61138  1  0  0  0
 61139  1  0  0  0
 62140  1  0  0  0
 62141  1  0  0  0
 62142  1  0  0  0
 63 65  1  0  0  0
 63143  1  0  0  0
 63144  1  0  0  0
 63145  1  0  0  0
 64146  1  0  0  0
 65147  1  0  0  0
 68 80  1  0  0  0
 71 72  2  0  0  0
 71 82  1  0  0  0
 71148  1  0  0  0
 72 73  1  0  0  0
 72 75  1  0  0  0
 73 83  2  0  0  0
 73 85  1  0  0  0
 74 82  2  0  0  0
 74 83  1  0  0  0
 74 86  1  0  0  0
 75 84  2  0  0  0
 75149  1  0  0  0
 76 78  1  0  0  0
 76 79  1  0  0  0
 76 87  2  0  0  0
 77 80  1  0  0  0
 77 81  1  0  0  0
 77 88  2  0  0  0
 78150  1  0  0  0
 78151  1  0  0  0
 78152  1  0  0  0
 79153  1  0  0  0
 79154  1  0  0  0
 79 81  1  0  0  0
 80155  1  0  0  0
 80156  1  0  0  0
 81 85  1  0  0  0
 81157  1  0  0  0
 84158  1  0  0  0
 85159  1  0  0  0
 86160  1  0  0  0
M  ISO  4   1 100  68 101  80 101  86 100
M  END
> <chiral flag>
0

> <version>
0

> <s_m_source_file>
/data/baiqing/PycharmProjects/Reinvent-master-3.2/result/LINK_invent/BTK/process_docking_weight1_custom_product_contain_oxygen_bond_distance_aromatic_linkinvent_7_9_3/rearranged_h_0161.sdf

> <i_m_source_file_index>
21

> <r_mmod_Potential_Energy-OPLS-2005>
-28.6778030395508

> <r_mmod_Stretch_Energy-OPLS-2005>
166.297012329102

> <r_mmod_Bend_Energy-OPLS-2005>
258.233978271484

> <r_mmod_Torsional_Energy-OPLS-2005>
307.748199462891

> <r_mmod_Improper_Torsional_Energy-OPLS-2005>
9.14129257202148

> <r_mmod_Van_der_Waal_Energy-OPLS-2005>
137.092971801758

> <r_mmod_Electrostatic_Energy-OPLS-2005>
-761.560546875

> <r_mmod_Solvation_Energy-OPLS-2005>
-264.724426269531

> <b_mmod_Minimization_Converged-OPLS-2005>
0

> <r_mmod_RMS_Derivative-OPLS-2005>
8.05426979064941

$$$$
21
                    3D
 Structure written by MMmdl.
156164  0  0  1  0            999 V2000
  -30.7082  -14.4236   20.6247 C   0  0  0  0  0  0
  -30.4250  -12.2980   19.4034 C   0  0  0  0  0  0
  -29.4898  -12.5219   18.1969 C   0  0  0  0  0  0
  -28.0112  -12.3806   18.6099 C   0  0  0  0  0  0
  -27.6649  -13.1993   19.8811 C   0  0  2  0  0  0
  -28.7038  -12.9395   20.9946 C   0  0  0  0  0  0
  -25.2614  -13.8141   20.5671 C   0  0  0  0  0  0
  -24.1851  -13.0436   20.9165 C   0  0  0  0  0  0
  -24.6387  -11.6897   20.8724 C   0  0  0  0  0  0
  -23.9048  -10.4289   21.0398 C   0  0  0  0  0  0
  -24.3609   -9.4211   21.9182 C   0  0  0  0  0  0
  -23.6291   -8.2243   22.0748 C   0  0  0  0  0  0
  -22.4274   -8.0277   21.3537 C   0  0  0  0  0  0
  -21.9904   -9.0245   20.4642 C   0  0  0  0  0  0
  -22.7219  -10.2130   20.3048 C   0  0  0  0  0  0
  -21.6853   -6.0734   22.5277 C   0  0  0  0  0  0
  -21.4007   -6.5640   23.8205 C   0  0  0  0  0  0
  -21.3665   -5.6796   24.9173 C   0  0  0  0  0  0
  -21.6048   -4.3055   24.7222 C   0  0  0  0  0  0
  -21.8823   -3.8145   23.4341 C   0  0  0  0  0  0
  -21.9192   -4.6965   22.3400 C   0  0  0  0  0  0
  -22.7881  -13.5251   21.1842 C   0  0  0  0  0  0
  -22.1667   -4.2151   21.0978 F   0  0  0  0  0  0
  -21.5637   -3.4540   25.7731 F   0  0  0  0  0  0
  -30.0391  -13.2531   20.4523 N   0  0  0  0  0  0
  -26.3037  -12.9297   20.3369 N   0  0  0  0  0  0
  -25.9311  -11.6460   20.5746 N   0  0  0  0  0  0
  -22.0513  -12.8237   22.0390 N   0  0  0  0  0  0
  -25.4359  -15.1853   20.4081 N   0  0  0  0  0  0
  -31.8062  -14.6525   20.1064 O   0  0  0  0  0  0
  -21.6637   -6.8870   21.4236 O   0  0  0  0  0  0
  -22.3575  -14.5564   20.6702 O   0  0  0  0  0  0
  -24.6136  -31.8692   23.2137 C   0  0  0  0  0  0
  -25.9042  -32.4819   23.8422 C   0  0  1  0  0  0
  -27.2334  -27.4441   20.0878 C   0  0  0  0  0  0
  -25.5916  -33.8618   24.2357 N   0  0  0  0  0  0
  -23.3991  -30.4943   21.5543 C   0  0  2  0  0  0
  -24.8424  -28.9628   20.1166 C   0  0  0  0  0  0
  -22.7391  -29.4666   22.5012 C   0  0  0  0  0  0
  -18.0254  -28.1368   22.8497 C   0  0  0  0  0  0
  -24.1483  -36.7317   23.2641 C   0  0  0  0  0  0
  -25.9272  -30.8360   21.3662 C   0  0  0  0  0  0
  -26.0009  -29.4722   20.7124 C   0  0  0  0  0  0
  -27.1945  -28.7186   20.6976 C   0  0  0  0  0  0
  -26.0510  -26.9475   19.4883 C   0  0  0  0  0  0
  -24.8615  -27.6985   19.5050 C   0  0  0  0  0  0
  -23.6057  -29.8301   20.1676 C   0  0  0  0  0  0
  -25.4104  -36.3115   24.0346 C   0  0  1  0  0  0
  -20.5846  -28.3650   23.1327 C   0  0  2  0  0  0
  -20.6752  -26.9397   22.5414 C   0  0  0  0  0  0
  -19.5734  -26.6386   21.5207 C   0  0  0  0  0  0
  -18.1906  -26.7917   22.1615 C   0  0  0  0  0  0
  -19.1504  -28.8825   23.2910 C   0  0  0  0  0  0
  -18.9435  -30.1429   23.8924 C   0  0  0  0  0  0
  -17.6440  -30.6581   24.0559 C   0  0  0  0  0  0
  -25.9035  -34.9472   23.5147 C   0  0  0  0  0  0
  -16.5329  -29.9081   23.6324 C   0  0  0  0  0  0
  -16.7243  -28.6492   23.0355 C   0  0  0  0  0  0
  -26.4483  -31.6587   25.0740 C   0  0  0  0  0  0
  -25.3764  -31.3672   26.1500 C   0  0  0  0  0  0
  -27.0312  -30.3031   24.6105 C   0  0  0  0  0  0
  -27.6074  -32.4293   25.7492 C   0  0  0  0  0  0
  -27.5573  -37.1821   24.8464 C   0  0  0  0  0  0
  -21.4120  -29.3026   22.3744 N   0  0  0  0  0  0
  -26.4293  -37.3797   23.9404 N   0  0  0  0  0  0
  -24.6651  -31.0804   22.1033 N   0  0  0  0  0  0
  -23.4165  -28.8213   23.3056 O   0  0  0  0  0  0
  -28.4377  -26.7691   20.1034 O   0  0  0  0  0  0
  -26.5579  -34.8919   22.4695 O   0  0  0  0  0  0
  -23.5335  -32.1448   23.7541 O   0  0  0  0  0  0
  -29.2667  -17.6605   21.5398 C   0  0  0  0  0  0
  -31.6545  -17.1985   21.7099 C   0  0  0  0  0  0
  -30.8295  -19.4884   21.9262 C   0  0  0  0  0  0
  -30.3344  -16.7319   21.5060 C   0  0  0  0  0  0
  -29.5012  -19.0411   21.7392 C   0  0  0  0  0  0
  -31.8972  -18.5703   21.9170 C   0  0  0  0  0  0
  -27.2579  -23.6365   20.9893 C   0  0  0  0  0  0
  -27.2617  -22.0972   21.2452 C   0  0  0  0  0  0
  -28.5879  -24.3700   20.7511 C   0  0  0  0  0  0
  -28.5900  -21.3588   21.5006 C   0  0  0  0  0  0
  -28.5659  -25.4254   19.6198 C   0  0  0  0  0  0
  -30.0264  -15.3524   21.3204 N   0  0  0  0  0  0
  -28.4062  -19.9223   21.7557 N   0  0  0  0  0  0
  -26.1879  -24.2558   21.0032 O   0  0  0  0  0  0
  -26.1967  -21.4609   21.2331 O   0  0  0  0  0  0
  -33.1639  -19.0075   22.1172 F   0  0  0  0  0  0
  -31.4676  -12.4099   19.1008 H   0  0  0  0  0  0
  -30.3333  -11.2762   19.7757 H   0  0  0  0  0  0
  -29.7240  -11.8127   17.4017 H   0  0  0  0  0  0
  -29.6582  -13.5161   17.7795 H   0  0  0  0  0  0
  -27.8140  -11.3223   18.7847 H   0  0  0  0  0  0
  -27.3609  -12.6769   17.7859 H   0  0  0  0  0  0
  -27.7220  -14.2530   19.6082 H   0  0  0  0  0  0
  -28.6757  -11.8920   21.2982 H   0  0  0  0  0  0
  -28.4584  -13.5011   21.8974 H   0  0  0  0  0  0
  -25.2754   -9.5705   22.4752 H   0  0  0  0  0  0
  -24.0012   -7.4637   22.7469 H   0  0  0  0  0  0
  -21.0831   -8.8754   19.8949 H   0  0  0  0  0  0
  -22.3668  -10.9670   19.6156 H   0  0  0  0  0  0
  -21.1986   -7.6147   23.9707 H   0  0  0  0  0  0
  -21.1493   -6.0524   25.9074 H   0  0  0  0  0  0
  -22.0595   -2.7609   23.2830 H   0  0  0  0  0  0
  -22.4131  -11.9889   22.4763 H   0  0  0  0  0  0
  -21.1133  -13.1263   22.2605 H   0  0  0  0  0  0
  -24.6669  -15.8397   20.5001 H   0  0  0  0  0  0
  -26.2858  -15.6179   20.0700 H   0  0  0  0  0  0
  -26.7109  -32.5532   23.1184 H   0  0  0  0  0  0
  -25.0112  -33.9790   25.0530 H   0  0  0  0  0  0
  -22.6880  -31.3119   21.4193 H   0  0  0  0  0  0
  -23.3730  -35.9668   23.3343 H   0  0  0  0  0  0
  -24.3579  -36.8881   22.2048 H   0  0  0  0  0  0
  -23.7252  -37.6546   23.6617 H   0  0  0  0  0  0
  -26.0402  -31.6043   20.6002 H   0  0  0  0  0  0
  -26.8154  -30.8857   21.9840 H   0  0  0  0  0  0
  -28.0918  -29.1125   21.1553 H   0  0  0  0  0  0
  -26.0079  -25.9844   19.0060 H   0  0  0  0  0  0
  -23.9699  -27.2978   19.0429 H   0  0  0  0  0  0
  -23.7166  -30.6078   19.4107 H   0  0  0  0  0  0
  -22.7284  -29.2527   19.8705 H   0  0  0  0  0  0
  -25.1285  -36.1996   25.0844 H   0  0  0  0  0  0
  -20.9929  -28.3209   24.1449 H   0  0  0  0  0  0
  -20.5650  -26.2259   23.3597 H   0  0  0  0  0  0
  -21.6624  -26.7452   22.1205 H   0  0  0  0  0  0
  -19.6897  -25.6304   21.1219 H   0  0  0  0  0  0
  -19.6675  -27.3212   20.6754 H   0  0  0  0  0  0
  -17.4187  -26.6673   21.4007 H   0  0  0  0  0  0
  -18.0302  -26.0044   22.8995 H   0  0  0  0  0  0
  -19.7913  -30.7222   24.2316 H   0  0  0  0  0  0
  -17.5001  -31.6265   24.5149 H   0  0  0  0  0  0
  -15.5331  -30.2992   23.7641 H   0  0  0  0  0  0
  -15.8638  -28.0813   22.7077 H   0  0  0  0  0  0
  -24.5940  -30.7016   25.7836 H   0  0  0  0  0  0
  -24.8955  -32.2816   26.4992 H   0  0  0  0  0  0
  -25.8151  -30.8817   27.0230 H   0  0  0  0  0  0
  -26.2849  -29.6776   24.1196 H   0  0  0  0  0  0
  -27.4118  -29.7287   25.4563 H   0  0  0  0  0  0
  -27.8672  -30.4343   23.9228 H   0  0  0  0  0  0
  -27.2714  -33.3584   26.2112 H   0  0  0  0  0  0
  -28.3873  -32.6864   25.0307 H   0  0  0  0  0  0
  -28.0758  -31.8383   26.5374 H   0  0  0  0  0  0
  -28.2617  -38.0090   24.7495 H   0  0  0  0  0  0
  -28.1048  -36.2633   24.6325 H   0  0  0  0  0  0
  -27.2294  -37.1507   25.8865 H   0  0  0  0  0  0
  -20.9275  -29.8746   21.6975 H   0  0  0  0  0  0
  -26.0189  -38.2884   24.1386 H   0  0  0  0  0  0
  -28.2548  -17.3078   21.3975 H   0  0  0  0  0  0
  -32.4919  -16.5172   21.7236 H   0  0  0  0  0  0
  -31.0542  -20.5309   22.0922 H   0  0  0  0  0  0
  -29.3439  -23.6301   20.4965 H   0  0  0  0  0  0
  -28.9171  -24.8251   21.6848 H   0  0  0  0  0  0
  -29.0796  -21.8262   22.3558 H   0  0  0  0  0  0
  -29.2363  -21.4901   20.6327 H   0  0  0  0  0  0
  -27.8833  -25.1592   18.8148 H   0  0  0  0  0  0
  -29.5445  -25.3922   19.1409 H   0  0  0  0  0  0
  -29.1030  -15.0584   21.6004 H   0  0  0  0  0  0
  -27.4756  -19.5688   21.5367 H   0  0  0  0  0  0
  1 25  1  0  0  0
  1 30  2  0  0  0
  1 82  1  0  0  0
  2  3  1  0  0  0
  2 25  1  0  0  0
  2 87  1  0  0  0
  2 88  1  0  0  0
  3  4  1  0  0  0
  3 89  1  0  0  0
  3 90  1  0  0  0
  4  5  1  0  0  0
  4 91  1  0  0  0
  4 92  1  0  0  0
  5  6  1  0  0  0
  5 26  1  0  0  0
  5 93  1  0  0  0
  6 25  1  0  0  0
  6 94  1  0  0  0
  6 95  1  0  0  0
  7  8  2  0  0  0
  7 26  1  0  0  0
  7 29  1  0  0  0
  8  9  1  0  0  0
  8 22  1  0  0  0
  9 10  1  0  0  0
  9 27  2  0  0  0
 10 11  2  0  0  0
 10 15  1  0  0  0
 11 12  1  0  0  0
 11 96  1  0  0  0
 12 13  2  0  0  0
 12 97  1  0  0  0
 13 14  1  0  0  0
 13 31  1  0  0  0
 14 15  2  0  0  0
 14 98  1  0  0  0
 15 99  1  0  0  0
 16 17  2  0  0  0
 16 21  1  0  0  0
 16 31  1  0  0  0
 17 18  1  0  0  0
 17100  1  0  0  0
 18 19  2  0  0  0
 18101  1  0  0  0
 19 20  1  0  0  0
 19 24  1  0  0  0
 20 21  2  0  0  0
 20102  1  0  0  0
 21 23  1  0  0  0
 22 28  1  0  0  0
 22 32  2  0  0  0
 26 27  1  0  0  0
 28103  1  0  0  0
 28104  1  0  0  0
 29105  1  0  0  0
 29106  1  0  0  0
 33 34  1  0  0  0
 33 66  1  0  0  0
 33 70  2  0  0  0
 34 36  1  0  0  0
 34 59  1  0  0  0
 34107  1  0  0  0
 35 44  2  0  0  0
 35 45  1  0  0  0
 35 68  1  0  0  0
 36 56  1  0  0  0
 36108  1  0  0  0
 37 39  1  0  0  0
 37 47  1  0  0  0
 37 66  1  0  0  0
 37109  1  0  0  0
 38 43  2  0  0  0
 38 46  1  0  0  0
 38 47  1  0  0  0
 39 64  1  0  0  0
 39 67  2  0  0  0
 40 52  1  0  0  0
 40 53  2  0  0  0
 40 58  1  0  0  0
 41110  1  0  0  0
 41111  1  0  0  0
 41112  1  0  0  0
 41 48  1  0  0  0
 42 43  1  0  0  0
 42 66  1  0  0  0
 42113  1  0  0  0
 42114  1  0  0  0
 43 44  1  0  0  0
 44115  1  0  0  0
 45 46  2  0  0  0
 45116  1  0  0  0
 46117  1  0  0  0
 47118  1  0  0  0
 47119  1  0  0  0
 48 56  1  0  0  0
 48 65  1  0  0  0
 48120  1  0  0  0
 49 50  1  0  0  0
 49 53  1  0  0  0
 49 64  1  0  0  0
 49121  1  0  0  0
 50 51  1  0  0  0
 50122  1  0  0  0
 50123  1  0  0  0
 51 52  1  0  0  0
 51124  1  0  0  0
 51125  1  0  0  0
 52126  1  0  0  0
 52127  1  0  0  0
 53 54  1  0  0  0
 54 55  2  0  0  0
 54128  1  0  0  0
 55 57  1  0  0  0
 55129  1  0  0  0
 56 69  2  0  0  0
 57 58  2  0  0  0
 57130  1  0  0  0
 58131  1  0  0  0
 59 60  1  0  0  0
 59 61  1  0  0  0
 59 62  1  0  0  0
 60132  1  0  0  0
 60133  1  0  0  0
 60134  1  0  0  0
 61135  1  0  0  0
 61136  1  0  0  0
 61137  1  0  0  0
 62138  1  0  0  0
 62139  1  0  0  0
 62140  1  0  0  0
 63 65  1  0  0  0
 63141  1  0  0  0
 63142  1  0  0  0
 63143  1  0  0  0
 64144  1  0  0  0
 65145  1  0  0  0
 68 81  1  0  0  0
 71 74  2  0  0  0
 71 75  1  0  0  0
 71146  1  0  0  0
 72 74  1  0  0  0
 72 76  2  0  0  0
 72147  1  0  0  0
 73 75  2  0  0  0
 73 76  1  0  0  0
 73148  1  0  0  0
 74 82  1  0  0  0
 75 83  1  0  0  0
 76 86  1  0  0  0
 77 78  1  0  0  0
 77 79  1  0  0  0
 77 84  2  0  0  0
 78 80  1  0  0  0
 78 85  2  0  0  0
 79 81  1  0  0  0
 79149  1  0  0  0
 79150  1  0  0  0
 80 83  1  0  0  0
 80151  1  0  0  0
 80152  1  0  0  0
 81153  1  0  0  0
 81154  1  0  0  0
 82155  1  0  0  0
 83156  1  0  0  0
M  ISO  4   1 100  68 101  81 101  82 100
M  END
> <chiral flag>
0

> <version>
0

> <s_m_source_file>
/data/baiqing/PycharmProjects/Reinvent-master-3.2/result/LINK_invent/BTK/process_docking_weight1_custom_product_contain_oxygen_bond_distance_aromatic_linkinvent_7_9_3/rearranged_h_0161.sdf

> <i_m_source_file_index>
22

> <r_mmod_Potential_Energy-OPLS-2005>
58.1276359558105

> <r_mmod_Stretch_Energy-OPLS-2005>
37.4230346679688

> <r_mmod_Bend_Energy-OPLS-2005>
117.526885986328

> <r_mmod_Torsional_Energy-OPLS-2005>
204.746063232422

> <r_mmod_Improper_Torsional_Energy-OPLS-2005>
4.77190494537354

> <r_mmod_Van_der_Waal_Energy-OPLS-2005>
158.274765014648

> <r_mmod_Electrostatic_Energy-OPLS-2005>
-218.708740234375

> <r_mmod_Solvation_Energy-OPLS-2005>
-255.533432006836

> <b_mmod_Minimization_Converged-OPLS-2005>
0

> <r_mmod_RMS_Derivative-OPLS-2005>
1.39745736122131

$$$$
22
                    3D
 Structure written by MMmdl.
160168  0  0  1  0            999 V2000
  -30.6938  -14.6020   20.5029 C   0  0  0  0  0  0
  -30.4171  -12.3721   19.4481 C   0  0  0  0  0  0
  -29.4944  -12.4868   18.2168 C   0  0  0  0  0  0
  -28.0188  -12.3344   18.6332 C   0  0  0  0  0  0
  -27.6435  -13.2186   19.8524 C   0  0  2  0  0  0
  -28.6910  -13.1049   20.9841 C   0  0  0  0  0  0
  -25.2514  -13.8174   20.5678 C   0  0  0  0  0  0
  -24.1803  -13.0434   20.9219 C   0  0  0  0  0  0
  -24.6379  -11.6907   20.8760 C   0  0  0  0  0  0
  -23.9057  -10.4287   21.0418 C   0  0  0  0  0  0
  -24.3612   -9.4202   21.9191 C   0  0  0  0  0  0
  -23.6289   -8.2238   22.0756 C   0  0  0  0  0  0
  -22.4273   -8.0275   21.3544 C   0  0  0  0  0  0
  -21.9907   -9.0251   20.4649 C   0  0  0  0  0  0
  -22.7232  -10.2132   20.3063 C   0  0  0  0  0  0
  -21.6852   -6.0733   22.5278 C   0  0  0  0  0  0
  -21.4013   -6.5639   23.8212 C   0  0  0  0  0  0
  -21.3658   -5.6792   24.9173 C   0  0  0  0  0  0
  -21.6044   -4.3054   24.7226 C   0  0  0  0  0  0
  -21.8819   -3.8146   23.4347 C   0  0  0  0  0  0
  -21.9191   -4.6961   22.3402 C   0  0  0  0  0  0
  -22.7828  -13.5226   21.1872 C   0  0  0  0  0  0
  -22.1661   -4.2146   21.0980 F   0  0  0  0  0  0
  -21.5628   -3.4539   25.7740 F   0  0  0  0  0  0
  -30.0059  -13.4188   20.4068 N   0  0  0  0  0  0
  -26.2931  -12.9360   20.3282 N   0  0  0  0  0  0
  -25.9303  -11.6518   20.5765 N   0  0  0  0  0  0
  -22.0463  -12.8218   22.0419 N   0  0  0  0  0  0
  -25.4204  -15.1896   20.4051 N   0  0  0  0  0  0
  -31.8814  -14.6526   20.1496 O   0  0  0  0  0  0
  -21.6637   -6.8873   21.4240 O   0  0  0  0  0  0
  -22.3525  -14.5534   20.6713 O   0  0  0  0  0  0
  -24.6218  -31.8619   23.2048 C   0  0  0  0  0  0
  -25.9078  -32.4790   23.8362 C   0  0  1  0  0  0
  -27.2235  -27.3554   20.1153 C   0  0  0  0  0  0
  -25.5909  -33.8587   24.2291 N   0  0  0  0  0  0
  -23.4131  -30.4854   21.5472 C   0  0  2  0  0  0
  -24.8579  -28.9412   20.1140 C   0  0  0  0  0  0
  -22.7447  -29.4633   22.4964 C   0  0  0  0  0  0
  -18.0277  -28.1379   22.8482 C   0  0  0  0  0  0
  -24.1489  -36.7300   23.2643 C   0  0  0  0  0  0
  -25.9491  -30.8056   21.3673 C   0  0  0  0  0  0
  -26.0241  -29.4348   20.7123 C   0  0  0  0  0  0
  -27.2116  -28.6535   20.7001 C   0  0  0  0  0  0
  -26.0361  -26.8983   19.5023 C   0  0  0  0  0  0
  -24.8634  -27.6773   19.5019 C   0  0  0  0  0  0
  -23.6241  -29.8174   20.1625 C   0  0  0  0  0  0
  -25.4114  -36.3090   24.0333 C   0  0  1  0  0  0
  -20.5873  -28.3674   23.1299 C   0  0  2  0  0  0
  -20.6764  -26.9401   22.5415 C   0  0  0  0  0  0
  -19.5743  -26.6378   21.5209 C   0  0  0  0  0  0
  -18.1921  -26.7920   22.1619 C   0  0  0  0  0  0
  -19.1527  -28.8842   23.2884 C   0  0  0  0  0  0
  -18.9454  -30.1445   23.8896 C   0  0  0  0  0  0
  -17.6456  -30.6580   24.0565 C   0  0  0  0  0  0
  -25.9047  -34.9457   23.5115 C   0  0  0  0  0  0
  -16.5346  -29.9080   23.6332 C   0  0  0  0  0  0
  -16.7267  -28.6500   23.0347 C   0  0  0  0  0  0
  -26.4480  -31.6591   25.0718 C   0  0  0  0  0  0
  -25.3728  -31.3713   26.1458 C   0  0  0  0  0  0
  -27.0324  -30.3025   24.6138 C   0  0  0  0  0  0
  -27.6049  -32.4321   25.7482 C   0  0  0  0  0  0
  -27.5582  -37.1803   24.8466 C   0  0  0  0  0  0
  -21.4165  -29.3037   22.3706 N   0  0  0  0  0  0
  -26.4296  -37.3783   23.9408 N   0  0  0  0  0  0
  -24.6802  -31.0663   22.0977 N   0  0  0  0  0  0
  -23.4188  -28.8171   23.3028 O   0  0  0  0  0  0
  -28.3680  -26.5598   20.1374 O   0  0  0  0  0  0
  -26.5617  -34.8917   22.4680 O   0  0  0  0  0  0
  -23.5395  -32.1397   23.7407 O   0  0  0  0  0  0
  -29.6630  -18.3004   20.9529 C   0  0  0  0  0  0
  -32.4037  -18.5545   21.1230 C   0  0  0  0  0  0
  -31.6291  -19.7213   21.3063 C   0  0  0  0  0  0
  -30.2086  -19.6189   21.1586 C   0  0  0  0  0  0
  -30.4923  -17.1238   20.8720 C   0  0  0  0  0  0
  -32.3344  -20.9787   21.6971 C   0  0  0  0  0  0
  -29.7983  -22.8225   19.8627 C   0  0  0  0  0  0
  -29.5899  -24.3734   20.0263 C   0  0  0  0  0  0
  -27.8124  -24.8811   21.8084 C   0  0  0  0  0  0
  -28.8442  -21.6910   20.3519 C   0  0  0  0  0  0
  -28.2394  -25.1015   20.3431 C   0  0  1  0  0  0
  -33.5903  -21.1559   21.7880 N   0  0  0  0  0  0
  -30.8462  -22.3972   19.2887 N   0  0  0  0  0  0
  -31.8277  -17.3501   20.9220 N   0  3  0  0  0  0
  -29.3565  -20.7486   21.3959 N   0  0  0  0  0  0
  -29.9908  -15.7481   20.7868 N   0  0  0  0  0  0
  -30.5789  -25.0981   19.8454 O   0  0  0  0  0  0
  -31.4612  -12.4607   19.1417 H   0  0  0  0  0  0
  -30.3276  -11.3849   19.9045 H   0  0  0  0  0  0
  -29.7528  -11.7249   17.4797 H   0  0  0  0  0  0
  -29.6434  -13.4495   17.7252 H   0  0  0  0  0  0
  -27.8546  -11.2836   18.8751 H   0  0  0  0  0  0
  -27.3631  -12.5550   17.7898 H   0  0  0  0  0  0
  -27.6505  -14.2467   19.4911 H   0  0  0  0  0  0
  -28.6969  -12.0956   21.3994 H   0  0  0  0  0  0
  -28.4419  -13.7669   21.8151 H   0  0  0  0  0  0
  -25.2758   -9.5677   22.4765 H   0  0  0  0  0  0
  -23.9996   -7.4628   22.7475 H   0  0  0  0  0  0
  -21.0839   -8.8770   19.8955 H   0  0  0  0  0  0
  -22.3692  -10.9672   19.6172 H   0  0  0  0  0  0
  -21.2006   -7.6147   23.9712 H   0  0  0  0  0  0
  -21.1480   -6.0524   25.9075 H   0  0  0  0  0  0
  -22.0600   -2.7607   23.2849 H   0  0  0  0  0  0
  -22.4071  -11.9874   22.4804 H   0  0  0  0  0  0
  -21.1078  -13.1246   22.2617 H   0  0  0  0  0  0
  -24.6382  -15.8293   20.4955 H   0  0  0  0  0  0
  -26.2305  -15.6217   19.9818 H   0  0  0  0  0  0
  -26.7141  -32.5476   23.1112 H   0  0  0  0  0  0
  -25.0049  -33.9736   25.0429 H   0  0  0  0  0  0
  -22.7055  -31.3050   21.4061 H   0  0  0  0  0  0
  -23.3750  -35.9636   23.3307 H   0  0  0  0  0  0
  -24.3572  -36.8909   22.2057 H   0  0  0  0  0  0
  -23.7240  -37.6503   23.6656 H   0  0  0  0  0  0
  -26.0720  -31.5704   20.5991 H   0  0  0  0  0  0
  -26.8333  -30.8566   21.9914 H   0  0  0  0  0  0
  -28.1117  -29.0290   21.1665 H   0  0  0  0  0  0
  -25.9954  -25.9362   19.0151 H   0  0  0  0  0  0
  -23.9678  -27.2947   19.0312 H   0  0  0  0  0  0
  -23.7397  -30.5926   19.4043 H   0  0  0  0  0  0
  -22.7449  -29.2433   19.8639 H   0  0  0  0  0  0
  -25.1288  -36.1953   25.0826 H   0  0  0  0  0  0
  -20.9959  -28.3242   24.1422 H   0  0  0  0  0  0
  -20.5666  -26.2276   23.3607 H   0  0  0  0  0  0
  -21.6633  -26.7437   22.1205 H   0  0  0  0  0  0
  -19.6911  -25.6291   21.1229 H   0  0  0  0  0  0
  -19.6685  -27.3199   20.6746 H   0  0  0  0  0  0
  -17.4190  -26.6666   21.4021 H   0  0  0  0  0  0
  -18.0324  -26.0063   22.9019 H   0  0  0  0  0  0
  -19.7935  -30.7252   24.2269 H   0  0  0  0  0  0
  -17.5017  -31.6265   24.5155 H   0  0  0  0  0  0
  -15.5348  -30.2983   23.7658 H   0  0  0  0  0  0
  -15.8665  -28.0824   22.7062 H   0  0  0  0  0  0
  -24.5903  -30.7061   25.7785 H   0  0  0  0  0  0
  -24.8924  -32.2879   26.4896 H   0  0  0  0  0  0
  -25.8071  -30.8882   27.0224 H   0  0  0  0  0  0
  -26.2889  -29.6773   24.1184 H   0  0  0  0  0  0
  -27.4066  -29.7278   25.4618 H   0  0  0  0  0  0
  -27.8733  -30.4322   23.9322 H   0  0  0  0  0  0
  -27.2662  -33.3618   26.2068 H   0  0  0  0  0  0
  -28.3855  -32.6884   25.0306 H   0  0  0  0  0  0
  -28.0724  -31.8442   26.5390 H   0  0  0  0  0  0
  -28.2602  -38.0102   24.7509 H   0  0  0  0  0  0
  -28.1072  -36.2626   24.6292 H   0  0  0  0  0  0
  -27.2291  -37.1450   25.8869 H   0  0  0  0  0  0
  -20.9336  -29.8766   21.6924 H   0  0  0  0  0  0
  -26.0180  -38.2860   24.1412 H   0  0  0  0  0  0
  -28.5897  -18.1927   20.9146 H   0  0  0  0  0  0
  -33.4839  -18.5414   21.1876 H   0  0  0  0  0  0
  -31.6881  -21.8253   21.9398 H   0  0  0  0  0  0
  -27.7929  -23.8288   22.0853 H   0  0  0  0  0  0
  -26.8119  -25.2745   21.9872 H   0  0  0  0  0  0
  -28.4919  -25.3863   22.4952 H   0  0  0  0  0  0
  -28.5546  -21.1036   19.4790 H   0  0  0  0  0  0
  -27.9165  -22.1360   20.7076 H   0  0  0  0  0  0
  -27.4970  -24.6744   19.6708 H   0  0  0  0  0  0
  -34.1372  -20.3377   21.5477 H   0  0  0  0  0  0
  -31.4111  -23.1961   19.0144 H   0  0  0  0  0  0
  -32.4479  -16.5343   20.8198 H   0  0  0  0  0  0
  -29.6336  -21.2603   22.2258 H   0  0  0  0  0  0
  -29.0088  -15.6204   20.9502 H   0  0  0  0  0  0
  1 25  1  0  0  0
  1 30  2  0  0  0
  1 86  1  0  0  0
  2  3  1  0  0  0
  2 25  1  0  0  0
  2 88  1  0  0  0
  2 89  1  0  0  0
  3  4  1  0  0  0
  3 90  1  0  0  0
  3 91  1  0  0  0
  4  5  1  0  0  0
  4 92  1  0  0  0
  4 93  1  0  0  0
  5  6  1  0  0  0
  5 26  1  0  0  0
  5 94  1  0  0  0
  6 25  1  0  0  0
  6 95  1  0  0  0
  6 96  1  0  0  0
  7  8  2  0  0  0
  7 26  1  0  0  0
  7 29  1  0  0  0
  8  9  1  0  0  0
  8 22  1  0  0  0
  9 10  1  0  0  0
  9 27  2  0  0  0
 10 11  2  0  0  0
 10 15  1  0  0  0
 11 12  1  0  0  0
 11 97  1  0  0  0
 12 13  2  0  0  0
 12 98  1  0  0  0
 13 14  1  0  0  0
 13 31  1  0  0  0
 14 15  2  0  0  0
 14 99  1  0  0  0
 15100  1  0  0  0
 16 17  2  0  0  0
 16 21  1  0  0  0
 16 31  1  0  0  0
 17 18  1  0  0  0
 17101  1  0  0  0
 18 19  2  0  0  0
 18102  1  0  0  0
 19 20  1  0  0  0
 19 24  1  0  0  0
 20 21  2  0  0  0
 20103  1  0  0  0
 21 23  1  0  0  0
 22 28  1  0  0  0
 22 32  2  0  0  0
 26 27  1  0  0  0
 28104  1  0  0  0
 28105  1  0  0  0
 29106  1  0  0  0
 29107  1  0  0  0
 33 34  1  0  0  0
 33 66  1  0  0  0
 33 70  2  0  0  0
 34 36  1  0  0  0
 34 59  1  0  0  0
 34108  1  0  0  0
 35 44  2  0  0  0
 35 45  1  0  0  0
 35 68  1  0  0  0
 36 56  1  0  0  0
 36109  1  0  0  0
 37 39  1  0  0  0
 37 47  1  0  0  0
 37 66  1  0  0  0
 37110  1  0  0  0
 38 43  2  0  0  0
 38 46  1  0  0  0
 38 47  1  0  0  0
 39 64  1  0  0  0
 39 67  2  0  0  0
 40 52  1  0  0  0
 40 53  2  0  0  0
 40 58  1  0  0  0
 41111  1  0  0  0
 41112  1  0  0  0
 41113  1  0  0  0
 41 48  1  0  0  0
 42 43  1  0  0  0
 42 66  1  0  0  0
 42114  1  0  0  0
 42115  1  0  0  0
 43 44  1  0  0  0
 44116  1  0  0  0
 45 46  2  0  0  0
 45117  1  0  0  0
 46118  1  0  0  0
 47119  1  0  0  0
 47120  1  0  0  0
 48 56  1  0  0  0
 48 65  1  0  0  0
 48121  1  0  0  0
 49 50  1  0  0  0
 49 53  1  0  0  0
 49 64  1  0  0  0
 49122  1  0  0  0
 50 51  1  0  0  0
 50123  1  0  0  0
 50124  1  0  0  0
 51 52  1  0  0  0
 51125  1  0  0  0
 51126  1  0  0  0
 52127  1  0  0  0
 52128  1  0  0  0
 53 54  1  0  0  0
 54 55  2  0  0  0
 54129  1  0  0  0
 55 57  1  0  0  0
 55130  1  0  0  0
 56 69  2  0  0  0
 57 58  2  0  0  0
 57131  1  0  0  0
 58132  1  0  0  0
 59 60  1  0  0  0
 59 61  1  0  0  0
 59 62  1  0  0  0
 60133  1  0  0  0
 60134  1  0  0  0
 60135  1  0  0  0
 61136  1  0  0  0
 61137  1  0  0  0
 61138  1  0  0  0
 62139  1  0  0  0
 62140  1  0  0  0
 62141  1  0  0  0
 63 65  1  0  0  0
 63142  1  0  0  0
 63143  1  0  0  0
 63144  1  0  0  0
 64145  1  0  0  0
 65146  1  0  0  0
 68 81  1  0  0  0
 71 74  2  0  0  0
 71 75  1  0  0  0
 71147  1  0  0  0
 72 73  2  0  0  0
 72 84  1  0  0  0
 72148  1  0  0  0
 73 74  1  0  0  0
 73 76  1  0  0  0
 74 85  1  0  0  0
 75 84  2  0  0  0
 75 86  1  0  0  0
 76 82  2  0  0  0
 76149  1  0  0  0
 77 78  1  0  0  0
 77 80  1  0  0  0
 77 83  2  0  0  0
 78 81  1  0  0  0
 78 87  2  0  0  0
 79150  1  0  0  0
 79151  1  0  0  0
 79152  1  0  0  0
 79 81  1  0  0  0
 80 85  1  0  0  0
 80153  1  0  0  0
 80154  1  0  0  0
 81155  1  0  0  0
 82156  1  0  0  0
 83157  1  0  0  0
 84158  1  0  0  0
 85159  1  0  0  0
 86160  1  0  0  0
M  CHG  1  84   1
M  ISO  4   1 100  68 101  81 101  86 100
M  END
> <chiral flag>
0

> <version>
0

> <s_m_source_file>
/data/baiqing/PycharmProjects/Reinvent-master-3.2/result/LINK_invent/BTK/process_docking_weight1_custom_product_contain_oxygen_bond_distance_aromatic_linkinvent_7_9_3/rearranged_h_0161.sdf

> <i_m_source_file_index>
23

> <r_mmod_Potential_Energy-OPLS-2005>
225.481811523438

> <r_mmod_Stretch_Energy-OPLS-2005>
81.9229202270508

> <r_mmod_Bend_Energy-OPLS-2005>
158.735687255859

> <r_mmod_Torsional_Energy-OPLS-2005>
236.5986328125

> <r_mmod_Improper_Torsional_Energy-OPLS-2005>
9.8657751083374

> <r_mmod_Van_der_Waal_Energy-OPLS-2005>
157.43293762207

> <r_mmod_Electrostatic_Energy-OPLS-2005>
37.0499534606934

> <r_mmod_Solvation_Energy-OPLS-2005>
-493.500549316406

> <b_mmod_Minimization_Converged-OPLS-2005>
0

> <r_mmod_RMS_Derivative-OPLS-2005>
0.685254633426666

$$$$
23
                    3D
 Structure written by MMmdl.
149157  0  0  1  0            999 V2000
  -30.6638  -14.5913   20.5113 C   0  0  0  0  0  0
  -30.4225  -12.3601   19.4583 C   0  0  0  0  0  0
  -29.5036  -12.4863   18.2249 C   0  0  0  0  0  0
  -28.0243  -12.3438   18.6338 C   0  0  0  0  0  0
  -27.6493  -13.2182   19.8607 C   0  0  2  0  0  0
  -28.6913  -13.0822   20.9914 C   0  0  0  0  0  0
  -25.2529  -13.8171   20.5669 C   0  0  0  0  0  0
  -24.1807  -13.0426   20.9184 C   0  0  0  0  0  0
  -24.6389  -11.6905   20.8760 C   0  0  0  0  0  0
  -23.9071  -10.4292   21.0431 C   0  0  0  0  0  0
  -24.3618   -9.4200   21.9199 C   0  0  0  0  0  0
  -23.6289   -8.2241   22.0765 C   0  0  0  0  0  0
  -22.4271   -8.0288   21.3555 C   0  0  0  0  0  0
  -21.9916   -9.0267   20.4654 C   0  0  0  0  0  0
  -22.7256  -10.2140   20.3067 C   0  0  0  0  0  0
  -21.6858   -6.0737   22.5271 C   0  0  0  0  0  0
  -21.4028   -6.5641   23.8204 C   0  0  0  0  0  0
  -21.3656   -5.6793   24.9162 C   0  0  0  0  0  0
  -21.6039   -4.3058   24.7215 C   0  0  0  0  0  0
  -21.8824   -3.8149   23.4338 C   0  0  0  0  0  0
  -21.9190   -4.6965   22.3392 C   0  0  0  0  0  0
  -22.7836  -13.5217   21.1873 C   0  0  0  0  0  0
  -22.1664   -4.2149   21.0968 F   0  0  0  0  0  0
  -21.5617   -3.4542   25.7730 F   0  0  0  0  0  0
  -30.0085  -13.3946   20.4229 N   0  0  0  0  0  0
  -26.2962  -12.9362   20.3312 N   0  0  0  0  0  0
  -25.9316  -11.6513   20.5773 N   0  0  0  0  0  0
  -22.0478  -12.8195   22.0420 N   0  0  0  0  0  0
  -25.4229  -15.1890   20.4064 N   0  0  0  0  0  0
  -31.8343  -14.7123   20.1408 O   0  0  0  0  0  0
  -21.6639   -6.8880   21.4239 O   0  0  0  0  0  0
  -22.3519  -14.5529   20.6735 O   0  0  0  0  0  0
  -24.6236  -31.8621   23.2039 C   0  0  0  0  0  0
  -25.9086  -32.4798   23.8360 C   0  0  1  0  0  0
  -27.2247  -27.3441   20.1195 C   0  0  0  0  0  0
  -25.5911  -33.8597   24.2291 N   0  0  0  0  0  0
  -23.4154  -30.4848   21.5461 C   0  0  2  0  0  0
  -24.8606  -28.9377   20.1142 C   0  0  0  0  0  0
  -22.7459  -29.4631   22.4951 C   0  0  0  0  0  0
  -18.0283  -28.1395   22.8486 C   0  0  0  0  0  0
  -24.1483  -36.7304   23.2641 C   0  0  0  0  0  0
  -25.9526  -30.7995   21.3697 C   0  0  0  0  0  0
  -26.0267  -29.4273   20.7158 C   0  0  0  0  0  0
  -27.2126  -28.6423   20.7058 C   0  0  0  0  0  0
  -26.0394  -26.8961   19.4953 C   0  0  0  0  0  0
  -24.8669  -27.6769   19.4955 C   0  0  0  0  0  0
  -23.6283  -29.8169   20.1616 C   0  0  0  0  0  0
  -25.4110  -36.3103   24.0332 C   0  0  1  0  0  0
  -20.5877  -28.3688   23.1294 C   0  0  2  0  0  0
  -20.6773  -26.9414   22.5409 C   0  0  0  0  0  0
  -19.5750  -26.6389   21.5213 C   0  0  0  0  0  0
  -18.1928  -26.7938   22.1624 C   0  0  0  0  0  0
  -19.1534  -28.8856   23.2888 C   0  0  0  0  0  0
  -18.9460  -30.1459   23.8901 C   0  0  0  0  0  0
  -17.6463  -30.6592   24.0565 C   0  0  0  0  0  0
  -25.9044  -34.9467   23.5112 C   0  0  0  0  0  0
  -16.5351  -29.9093   23.6333 C   0  0  0  0  0  0
  -16.7271  -28.6513   23.0347 C   0  0  0  0  0  0
  -26.4483  -31.6606   25.0724 C   0  0  0  0  0  0
  -25.3727  -31.3724   26.1458 C   0  0  0  0  0  0
  -27.0329  -30.3040   24.6152 C   0  0  0  0  0  0
  -27.6049  -32.4336   25.7496 C   0  0  0  0  0  0
  -27.5578  -37.1810   24.8468 C   0  0  0  0  0  0
  -21.4176  -29.3048   22.3694 N   0  0  0  0  0  0
  -26.4293  -37.3790   23.9407 N   0  0  0  0  0  0
  -24.6826  -31.0655   22.0970 N   0  0  0  0  0  0
  -23.4202  -28.8184   23.3027 O   0  0  0  0  0  0
  -28.3645  -26.5409   20.1326 O   0  0  0  0  0  0
  -26.5611  -34.8929   22.4679 O   0  0  0  0  0  0
  -23.5405  -32.1400   23.7383 O   0  0  0  0  0  0
  -28.5586  -18.3435   19.5599 C   0  0  0  0  0  0
  -28.1885  -19.7235   19.4575 C   0  0  0  0  0  0
  -29.5628  -18.2446   20.4890 C   0  0  0  0  0  0
  -28.9913  -20.4109   20.3270 C   0  0  0  0  0  0
  -29.1595  -22.6364   19.6469 C   0  0  0  0  0  0
  -29.1280  -24.1913   19.5418 C   0  0  0  0  0  0
  -30.4244  -17.0851   21.0160 C   0  0  0  0  0  0
  -28.2133  -25.0988   20.4248 C   0  0  0  0  0  0
  -28.9357  -21.7870   20.5987 N   0  0  0  0  0  0
  -29.9251  -15.6838   20.8567 N   0  0  0  0  0  0
  -29.8288  -24.7453   18.6836 O   0  0  0  0  0  0
  -29.8208  -19.5220   20.9848 O   0  0  0  0  0  0
  -31.4698  -12.4516   19.1641 H   0  0  0  0  0  0
  -30.3280  -11.3716   19.9079 H   0  0  0  0  0  0
  -29.7599  -11.7252   17.4851 H   0  0  0  0  0  0
  -29.6638  -13.4499   17.7391 H   0  0  0  0  0  0
  -27.8532  -11.2909   18.8650 H   0  0  0  0  0  0
  -27.3745  -12.5757   17.7905 H   0  0  0  0  0  0
  -27.6693  -14.2533   19.5206 H   0  0  0  0  0  0
  -28.6925  -12.0696   21.3952 H   0  0  0  0  0  0
  -28.4453  -13.7402   21.8268 H   0  0  0  0  0  0
  -25.2767   -9.5672   22.4770 H   0  0  0  0  0  0
  -23.9994   -7.4630   22.7478 H   0  0  0  0  0  0
  -21.0852   -8.8790   19.8956 H   0  0  0  0  0  0
  -22.3728  -10.9676   19.6170 H   0  0  0  0  0  0
  -21.2052   -7.6158   23.9713 H   0  0  0  0  0  0
  -21.1464   -6.0521   25.9057 H   0  0  0  0  0  0
  -22.0611   -2.7615   23.2831 H   0  0  0  0  0  0
  -22.4079  -11.9832   22.4771 H   0  0  0  0  0  0
  -21.1106  -13.1231   22.2657 H   0  0  0  0  0  0
  -24.6601  -15.8473   20.5278 H   0  0  0  0  0  0
  -26.2749  -15.6284   20.0872 H   0  0  0  0  0  0
  -26.7154  -32.5483   23.1115 H   0  0  0  0  0  0
  -25.0064  -33.9744   25.0441 H   0  0  0  0  0  0
  -22.7077  -31.3031   21.4030 H   0  0  0  0  0  0
  -23.3747  -35.9634   23.3320 H   0  0  0  0  0  0
  -24.3570  -36.8908   22.2050 H   0  0  0  0  0  0
  -23.7229  -37.6509   23.6650 H   0  0  0  0  0  0
  -26.0768  -31.5607   20.5981 H   0  0  0  0  0  0
  -26.8379  -30.8539   21.9916 H   0  0  0  0  0  0
  -28.1122  -29.0157   21.1743 H   0  0  0  0  0  0
  -26.0080  -25.9389   18.9951 H   0  0  0  0  0  0
  -23.9739  -27.3008   19.0150 H   0  0  0  0  0  0
  -23.7463  -30.5919   19.4032 H   0  0  0  0  0  0
  -22.7492  -29.2441   19.8625 H   0  0  0  0  0  0
  -25.1289  -36.1961   25.0822 H   0  0  0  0  0  0
  -20.9967  -28.3261   24.1418 H   0  0  0  0  0  0
  -20.5684  -26.2298   23.3609 H   0  0  0  0  0  0
  -21.6642  -26.7456   22.1202 H   0  0  0  0  0  0
  -19.6914  -25.6302   21.1246 H   0  0  0  0  0  0
  -19.6693  -27.3197   20.6746 H   0  0  0  0  0  0
  -17.4200  -26.6682   21.4025 H   0  0  0  0  0  0
  -18.0329  -26.0080   22.9023 H   0  0  0  0  0  0
  -19.7932  -30.7270   24.2277 H   0  0  0  0  0  0
  -17.5017  -31.6274   24.5165 H   0  0  0  0  0  0
  -15.5352  -30.3000   23.7654 H   0  0  0  0  0  0
  -15.8671  -28.0838   22.7062 H   0  0  0  0  0  0
  -24.5906  -30.7069   25.7784 H   0  0  0  0  0  0
  -24.8911  -32.2882   26.4895 H   0  0  0  0  0  0
  -25.8061  -30.8896   27.0224 H   0  0  0  0  0  0
  -26.2889  -29.6787   24.1202 H   0  0  0  0  0  0
  -27.4075  -29.7296   25.4635 H   0  0  0  0  0  0
  -27.8735  -30.4353   23.9336 H   0  0  0  0  0  0
  -27.2663  -33.3627   26.2091 H   0  0  0  0  0  0
  -28.3852  -32.6910   25.0323 H   0  0  0  0  0  0
  -28.0727  -31.8452   26.5400 H   0  0  0  0  0  0
  -28.2611  -38.0094   24.7508 H   0  0  0  0  0  0
  -28.1061  -36.2628   24.6306 H   0  0  0  0  0  0
  -27.2299  -37.1475   25.8872 H   0  0  0  0  0  0
  -20.9352  -29.8759   21.6891 H   0  0  0  0  0  0
  -26.0186  -38.2868   24.1402 H   0  0  0  0  0  0
  -28.1414  -17.5151   19.0051 H   0  0  0  0  0  0
  -27.4196  -20.1505   18.8290 H   0  0  0  0  0  0
  -29.4812  -22.2019   18.6954 H   0  0  0  0  0  0
  -30.6013  -17.2398   22.0802 H   0  0  0  0  0  0
  -31.4074  -17.1683   20.5498 H   0  0  0  0  0  0
  -28.4707  -24.9303   21.4700 H   0  0  0  0  0  0
  -27.1862  -24.7575   20.3086 H   0  0  0  0  0  0
  -28.9596  -15.5184   21.0932 H   0  0  0  0  0  0
  1 25  1  0  0  0
  1 30  2  0  0  0
  1 80  1  0  0  0
  2  3  1  0  0  0
  2 25  1  0  0  0
  2 83  1  0  0  0
  2 84  1  0  0  0
  3  4  1  0  0  0
  3 85  1  0  0  0
  3 86  1  0  0  0
  4  5  1  0  0  0
  4 87  1  0  0  0
  4 88  1  0  0  0
  5  6  1  0  0  0
  5 26  1  0  0  0
  5 89  1  0  0  0
  6 25  1  0  0  0
  6 90  1  0  0  0
  6 91  1  0  0  0
  7  8  2  0  0  0
  7 26  1  0  0  0
  7 29  1  0  0  0
  8  9  1  0  0  0
  8 22  1  0  0  0
  9 10  1  0  0  0
  9 27  2  0  0  0
 10 11  2  0  0  0
 10 15  1  0  0  0
 11 12  1  0  0  0
 11 92  1  0  0  0
 12 13  2  0  0  0
 12 93  1  0  0  0
 13 14  1  0  0  0
 13 31  1  0  0  0
 14 15  2  0  0  0
 14 94  1  0  0  0
 15 95  1  0  0  0
 16 17  2  0  0  0
 16 21  1  0  0  0
 16 31  1  0  0  0
 17 18  1  0  0  0
 17 96  1  0  0  0
 18 19  2  0  0  0
 18 97  1  0  0  0
 19 20  1  0  0  0
 19 24  1  0  0  0
 20 21  2  0  0  0
 20 98  1  0  0  0
 21 23  1  0  0  0
 22 28  1  0  0  0
 22 32  2  0  0  0
 26 27  1  0  0  0
 28 99  1  0  0  0
 28100  1  0  0  0
 29101  1  0  0  0
 29102  1  0  0  0
 33 34  1  0  0  0
 33 66  1  0  0  0
 33 70  2  0  0  0
 34 36  1  0  0  0
 34 59  1  0  0  0
 34103  1  0  0  0
 35 44  2  0  0  0
 35 45  1  0  0  0
 35 68  1  0  0  0
 36 56  1  0  0  0
 36104  1  0  0  0
 37 39  1  0  0  0
 37 47  1  0  0  0
 37 66  1  0  0  0
 37105  1  0  0  0
 38 43  2  0  0  0
 38 46  1  0  0  0
 38 47  1  0  0  0
 39 64  1  0  0  0
 39 67  2  0  0  0
 40 52  1  0  0  0
 40 53  2  0  0  0
 40 58  1  0  0  0
 41106  1  0  0  0
 41107  1  0  0  0
 41108  1  0  0  0
 41 48  1  0  0  0
 42 43  1  0  0  0
 42 66  1  0  0  0
 42109  1  0  0  0
 42110  1  0  0  0
 43 44  1  0  0  0
 44111  1  0  0  0
 45 46  2  0  0  0
 45112  1  0  0  0
 46113  1  0  0  0
 47114  1  0  0  0
 47115  1  0  0  0
 48 56  1  0  0  0
 48 65  1  0  0  0
 48116  1  0  0  0
 49 50  1  0  0  0
 49 53  1  0  0  0
 49 64  1  0  0  0
 49117  1  0  0  0
 50 51  1  0  0  0
 50118  1  0  0  0
 50119  1  0  0  0
 51 52  1  0  0  0
 51120  1  0  0  0
 51121  1  0  0  0
 52122  1  0  0  0
 52123  1  0  0  0
 53 54  1  0  0  0
 54 55  2  0  0  0
 54124  1  0  0  0
 55 57  1  0  0  0
 55125  1  0  0  0
 56 69  2  0  0  0
 57 58  2  0  0  0
 57126  1  0  0  0
 58127  1  0  0  0
 59 60  1  0  0  0
 59 61  1  0  0  0
 59 62  1  0  0  0
 60128  1  0  0  0
 60129  1  0  0  0
 60130  1  0  0  0
 61131  1  0  0  0
 61132  1  0  0  0
 61133  1  0  0  0
 62134  1  0  0  0
 62135  1  0  0  0
 62136  1  0  0  0
 63 65  1  0  0  0
 63137  1  0  0  0
 63138  1  0  0  0
 63139  1  0  0  0
 64140  1  0  0  0
 65141  1  0  0  0
 68 78  1  0  0  0
 71 72  1  0  0  0
 71 73  2  0  0  0
 71142  1  0  0  0
 72 74  2  0  0  0
 72143  1  0  0  0
 73 77  1  0  0  0
 73 82  1  0  0  0
 74 79  1  0  0  0
 74 82  1  0  0  0
 75 76  1  0  0  0
 75 79  2  0  0  0
 75144  1  0  0  0
 76 78  1  0  0  0
 76 81  2  0  0  0
 77 80  1  0  0  0
 77145  1  0  0  0
 77146  1  0  0  0
 78147  1  0  0  0
 78148  1  0  0  0
 80149  1  0  0  0
M  ISO  4   1 100  68 101  78 101  80 100
M  END
> <chiral flag>
0

> <version>
0

> <s_m_source_file>
/data/baiqing/PycharmProjects/Reinvent-master-3.2/result/LINK_invent/BTK/process_docking_weight1_custom_product_contain_oxygen_bond_distance_aromatic_linkinvent_7_9_3/rearranged_h_0161.sdf

> <i_m_source_file_index>
24

> <r_mmod_Potential_Energy-OPLS-2005>
-63.0315551757812

> <r_mmod_Stretch_Energy-OPLS-2005>
63.0094375610352

> <r_mmod_Bend_Energy-OPLS-2005>
124.167907714844

> <r_mmod_Torsional_Energy-OPLS-2005>
226.231582641602

> <r_mmod_Improper_Torsional_Energy-OPLS-2005>
4.11865568161011

> <r_mmod_Van_der_Waal_Energy-OPLS-2005>
124.471809387207

> <r_mmod_Electrostatic_Energy-OPLS-2005>
-400.690948486328

> <r_mmod_Solvation_Energy-OPLS-2005>
-240.348266601562

> <b_mmod_Minimization_Converged-OPLS-2005>
0

> <r_mmod_RMS_Derivative-OPLS-2005>
2.07572603225708

$$$$
24
                    3D
 Structure written by MMmdl.
155163  0  0  1  0            999 V2000
  -30.6879  -14.5103   20.5769 C   0  0  0  0  0  0
  -30.4389  -12.3354   19.4200 C   0  0  0  0  0  0
  -29.5008  -12.5155   18.2064 C   0  0  0  0  0  0
  -28.0235  -12.3634   18.6209 C   0  0  0  0  0  0
  -27.6665  -13.2057   19.8749 C   0  0  2  0  0  0
  -28.7110  -12.9877   20.9934 C   0  0  0  0  0  0
  -25.2621  -13.8162   20.5690 C   0  0  0  0  0  0
  -24.1860  -13.0446   20.9176 C   0  0  0  0  0  0
  -24.6406  -11.6909   20.8721 C   0  0  0  0  0  0
  -23.9067  -10.4298   21.0392 C   0  0  0  0  0  0
  -24.3617   -9.4214   21.9178 C   0  0  0  0  0  0
  -23.6287   -8.2254   22.0745 C   0  0  0  0  0  0
  -22.4270   -8.0295   21.3536 C   0  0  0  0  0  0
  -21.9896   -9.0268   20.4644 C   0  0  0  0  0  0
  -22.7226  -10.2147   20.3046 C   0  0  0  0  0  0
  -21.6855   -6.0737   22.5279 C   0  0  0  0  0  0
  -21.4016   -6.5640   23.8214 C   0  0  0  0  0  0
  -21.3649   -5.6790   24.9171 C   0  0  0  0  0  0
  -21.6040   -4.3053   24.7231 C   0  0  0  0  0  0
  -21.8818   -3.8144   23.4352 C   0  0  0  0  0  0
  -21.9191   -4.6959   22.3404 C   0  0  0  0  0  0
  -22.7877  -13.5256   21.1839 C   0  0  0  0  0  0
  -22.1665   -4.2143   21.0985 F   0  0  0  0  0  0
  -21.5614   -3.4543   25.7742 F   0  0  0  0  0  0
  -30.0430  -13.3141   20.4459 N   0  0  0  0  0  0
  -26.3054  -12.9322   20.3365 N   0  0  0  0  0  0
  -25.9339  -11.6493   20.5762 N   0  0  0  0  0  0
  -22.0504  -12.8262   22.0396 N   0  0  0  0  0  0
  -25.4361  -15.1882   20.4120 N   0  0  0  0  0  0
  -31.7968  -14.7288   20.0794 O   0  0  0  0  0  0
  -21.6634   -6.8888   21.4247 O   0  0  0  0  0  0
  -22.3567  -14.5563   20.6683 O   0  0  0  0  0  0
  -24.6193  -31.8656   23.2104 C   0  0  0  0  0  0
  -25.9066  -32.4811   23.8399 C   0  0  1  0  0  0
  -27.2349  -27.3926   20.0726 C   0  0  0  0  0  0
  -25.5907  -33.8611   24.2321 N   0  0  0  0  0  0
  -23.4099  -30.4914   21.5523 C   0  0  2  0  0  0
  -24.8540  -28.9597   20.1165 C   0  0  0  0  0  0
  -22.7425  -29.4646   22.4968 C   0  0  0  0  0  0
  -18.0283  -28.1384   22.8489 C   0  0  0  0  0  0
  -24.1480  -36.7296   23.2641 C   0  0  0  0  0  0
  -25.9467  -30.8139   21.3746 C   0  0  0  0  0  0
  -26.0220  -29.4477   20.7158 C   0  0  0  0  0  0
  -27.2119  -28.6706   20.6958 C   0  0  0  0  0  0
  -26.0359  -26.9463   19.4578 C   0  0  0  0  0  0
  -24.8578  -27.7079   19.4899 C   0  0  0  0  0  0
  -23.6202  -29.8309   20.1670 C   0  0  0  0  0  0
  -25.4106  -36.3093   24.0330 C   0  0  1  0  0  0
  -20.5873  -28.3672   23.1297 C   0  0  2  0  0  0
  -20.6760  -26.9405   22.5405 C   0  0  0  0  0  0
  -19.5742  -26.6394   21.5197 C   0  0  0  0  0  0
  -18.1922  -26.7936   22.1617 C   0  0  0  0  0  0
  -19.1530  -28.8848   23.2898 C   0  0  0  0  0  0
  -18.9457  -30.1444   23.8917 C   0  0  0  0  0  0
  -17.6462  -30.6587   24.0564 C   0  0  0  0  0  0
  -25.9035  -34.9466   23.5117 C   0  0  0  0  0  0
  -16.5356  -29.9086   23.6332 C   0  0  0  0  0  0
  -16.7267  -28.6501   23.0361 C   0  0  0  0  0  0
  -26.4500  -31.6601   25.0734 C   0  0  0  0  0  0
  -25.3766  -31.3728   26.1482 C   0  0  0  0  0  0
  -27.0315  -30.3028   24.6142 C   0  0  0  0  0  0
  -27.6079  -32.4324   25.7477 C   0  0  0  0  0  0
  -27.5570  -37.1813   24.8478 C   0  0  0  0  0  0
  -21.4150  -29.3037   22.3691 N   0  0  0  0  0  0
  -26.4300  -37.3771   23.9394 N   0  0  0  0  0  0
  -24.6773  -31.0712   22.1036 N   0  0  0  0  0  0
  -23.4166  -28.8172   23.3019 O   0  0  0  0  0  0
  -28.3912  -26.6089   20.0824 O   0  0  0  0  0  0
  -26.5599  -34.8919   22.4679 O   0  0  0  0  0  0
  -23.5368  -32.1445   23.7449 O   0  0  0  0  0  0
  -30.9638  -17.7176   20.6497 C   0  0  0  0  0  0
  -30.7382  -19.1124   20.9666 C   0  0  0  0  0  0
  -29.6993  -19.2494   21.8656 C   0  0  0  0  0  0
  -30.1042  -16.8250   21.2637 C   0  0  0  0  0  0
  -29.9118  -21.8092   19.4495 C   0  0  0  0  0  0
  -29.3963  -24.2563   19.9079 C   0  0  0  0  0  0
  -29.1596  -20.4747   22.5379 C   0  0  0  0  0  0
  -31.6272  -20.2322   20.4118 C   0  0  0  0  0  0
  -28.2647  -25.2575   19.5525 C   0  0  0  0  0  0
  -29.9764  -15.4618   21.2166 N   0  0  0  0  0  0
  -29.2272  -22.9734   19.2660 N   0  0  0  0  0  0
  -30.8975  -21.5292   20.3319 N   0  3  0  0  0  0
  -30.3265  -24.4872   20.6916 O   0  0  0  0  0  0
  -28.9744  -17.7091   22.2492 S   0  0  0  0  0  0
  -31.4798  -12.4514   19.1123 H   0  0  0  0  0  0
  -30.3586  -11.3245   19.8218 H   0  0  0  0  0  0
  -29.7457  -11.7887   17.4303 H   0  0  0  0  0  0
  -29.6571  -13.5004   17.7638 H   0  0  0  0  0  0
  -27.8438  -11.3060   18.8202 H   0  0  0  0  0  0
  -27.3695  -12.6308   17.7905 H   0  0  0  0  0  0
  -27.7074  -14.2541   19.5772 H   0  0  0  0  0  0
  -28.6992  -11.9483   21.3230 H   0  0  0  0  0  0
  -28.4582  -13.5705   21.8807 H   0  0  0  0  0  0
  -25.2769   -9.5682   22.4759 H   0  0  0  0  0  0
  -23.9985   -7.4640   22.7466 H   0  0  0  0  0  0
  -21.0814   -8.8799   19.8968 H   0  0  0  0  0  0
  -22.3688  -10.9687   19.6163 H   0  0  0  0  0  0
  -21.2028   -7.6151   23.9723 H   0  0  0  0  0  0
  -21.1461   -6.0521   25.9078 H   0  0  0  0  0  0
  -22.0606   -2.7602   23.2863 H   0  0  0  0  0  0
  -22.4106  -11.9930   22.4803 H   0  0  0  0  0  0
  -21.1127  -13.1306   22.2607 H   0  0  0  0  0  0
  -24.6745  -15.8483   20.5272 H   0  0  0  0  0  0
  -26.2951  -15.6251   20.1000 H   0  0  0  0  0  0
  -26.7117  -32.5510   23.1136 H   0  0  0  0  0  0
  -25.0049  -33.9777   25.0458 H   0  0  0  0  0  0
  -22.7011  -31.3100   21.4123 H   0  0  0  0  0  0
  -23.3705  -35.9675   23.3395 H   0  0  0  0  0  0
  -24.3545  -36.8808   22.2033 H   0  0  0  0  0  0
  -23.7294  -37.6554   23.6595 H   0  0  0  0  0  0
  -26.0683  -31.5805   20.6082 H   0  0  0  0  0  0
  -26.8317  -30.8628   21.9973 H   0  0  0  0  0  0
  -28.1115  -29.0420   21.1675 H   0  0  0  0  0  0
  -25.9618  -26.0054   18.9337 H   0  0  0  0  0  0
  -23.9616  -27.3274   19.0185 H   0  0  0  0  0  0
  -23.7314  -30.6081   19.4100 H   0  0  0  0  0  0
  -22.7429  -29.2546   19.8664 H   0  0  0  0  0  0
  -25.1285  -36.1965   25.0824 H   0  0  0  0  0  0
  -20.9975  -28.3257   24.1415 H   0  0  0  0  0  0
  -20.5627  -26.2288   23.3597 H   0  0  0  0  0  0
  -21.6636  -26.7427   22.1222 H   0  0  0  0  0  0
  -19.6898  -25.6303   21.1223 H   0  0  0  0  0  0
  -19.6687  -27.3202   20.6728 H   0  0  0  0  0  0
  -17.4180  -26.6670   21.4035 H   0  0  0  0  0  0
  -18.0348  -26.0089   22.9025 H   0  0  0  0  0  0
  -19.7930  -30.7255   24.2311 H   0  0  0  0  0  0
  -17.5012  -31.6275   24.5150 H   0  0  0  0  0  0
  -15.5356  -30.2989   23.7660 H   0  0  0  0  0  0
  -15.8667  -28.0819   22.7091 H   0  0  0  0  0  0
  -24.5928  -30.7083   25.7829 H   0  0  0  0  0  0
  -24.8979  -32.2892   26.4943 H   0  0  0  0  0  0
  -25.8117  -30.8889   27.0232 H   0  0  0  0  0  0
  -26.2857  -29.6784   24.1208 H   0  0  0  0  0  0
  -27.4068  -29.7279   25.4619 H   0  0  0  0  0  0
  -27.8708  -30.4315   23.9303 H   0  0  0  0  0  0
  -27.2708  -33.3611   26.2092 H   0  0  0  0  0  0
  -28.3863  -32.6909   25.0283 H   0  0  0  0  0  0
  -28.0779  -31.8431   26.5361 H   0  0  0  0  0  0
  -28.2654  -38.0043   24.7422 H   0  0  0  0  0  0
  -28.0995  -36.2572   24.6430 H   0  0  0  0  0  0
  -27.2268  -37.1604   25.8879 H   0  0  0  0  0  0
  -20.9308  -29.8761   21.6918 H   0  0  0  0  0  0
  -26.0188  -38.2853   24.1369 H   0  0  0  0  0  0
  -31.7611  -17.4218   19.9807 H   0  0  0  0  0  0
  -29.6084  -20.9900   18.8064 H   0  0  0  0  0  0
  -29.9519  -21.1811   22.7843 H   0  0  0  0  0  0
  -28.6604  -20.2183   23.4730 H   0  0  0  0  0  0
  -28.4310  -20.9798   21.9040 H   0  0  0  0  0  0
  -32.0125  -19.9734   19.4243 H   0  0  0  0  0  0
  -32.4990  -20.3667   21.0529 H   0  0  0  0  0  0
  -27.3696  -24.7790   19.9511 H   0  0  0  0  0  0
  -28.1680  -25.3046   18.4673 H   0  0  0  0  0  0
  -29.1351  -15.1046   21.6427 H   0  0  0  0  0  0
  -28.4837  -22.8605   18.5948 H   0  0  0  0  0  0
  -31.2465  -22.2673   20.9286 H   0  0  0  0  0  0
  1 25  1  0  0  0
  1 30  2  0  0  0
  1 80  1  0  0  0
  2  3  1  0  0  0
  2 25  1  0  0  0
  2 85  1  0  0  0
  2 86  1  0  0  0
  3  4  1  0  0  0
  3 87  1  0  0  0
  3 88  1  0  0  0
  4  5  1  0  0  0
  4 89  1  0  0  0
  4 90  1  0  0  0
  5  6  1  0  0  0
  5 26  1  0  0  0
  5 91  1  0  0  0
  6 25  1  0  0  0
  6 92  1  0  0  0
  6 93  1  0  0  0
  7  8  2  0  0  0
  7 26  1  0  0  0
  7 29  1  0  0  0
  8  9  1  0  0  0
  8 22  1  0  0  0
  9 10  1  0  0  0
  9 27  2  0  0  0
 10 11  2  0  0  0
 10 15  1  0  0  0
 11 12  1  0  0  0
 11 94  1  0  0  0
 12 13  2  0  0  0
 12 95  1  0  0  0
 13 14  1  0  0  0
 13 31  1  0  0  0
 14 15  2  0  0  0
 14 96  1  0  0  0
 15 97  1  0  0  0
 16 17  2  0  0  0
 16 21  1  0  0  0
 16 31  1  0  0  0
 17 18  1  0  0  0
 17 98  1  0  0  0
 18 19  2  0  0  0
 18 99  1  0  0  0
 19 20  1  0  0  0
 19 24  1  0  0  0
 20 21  2  0  0  0
 20100  1  0  0  0
 21 23  1  0  0  0
 22 28  1  0  0  0
 22 32  2  0  0  0
 26 27  1  0  0  0
 28101  1  0  0  0
 28102  1  0  0  0
 29103  1  0  0  0
 29104  1  0  0  0
 33 34  1  0  0  0
 33 66  1  0  0  0
 33 70  2  0  0  0
 34 36  1  0  0  0
 34 59  1  0  0  0
 34105  1  0  0  0
 35 44  2  0  0  0
 35 45  1  0  0  0
 35 68  1  0  0  0
 36 56  1  0  0  0
 36106  1  0  0  0
 37 39  1  0  0  0
 37 47  1  0  0  0
 37 66  1  0  0  0
 37107  1  0  0  0
 38 43  2  0  0  0
 38 46  1  0  0  0
 38 47  1  0  0  0
 39 64  1  0  0  0
 39 67  2  0  0  0
 40 52  1  0  0  0
 40 53  2  0  0  0
 40 58  1  0  0  0
 41108  1  0  0  0
 41109  1  0  0  0
 41110  1  0  0  0
 41 48  1  0  0  0
 42 43  1  0  0  0
 42 66  1  0  0  0
 42111  1  0  0  0
 42112  1  0  0  0
 43 44  1  0  0  0
 44113  1  0  0  0
 45 46  2  0  0  0
 45114  1  0  0  0
 46115  1  0  0  0
 47116  1  0  0  0
 47117  1  0  0  0
 48 56  1  0  0  0
 48 65  1  0  0  0
 48118  1  0  0  0
 49 50  1  0  0  0
 49 53  1  0  0  0
 49 64  1  0  0  0
 49119  1  0  0  0
 50 51  1  0  0  0
 50120  1  0  0  0
 50121  1  0  0  0
 51 52  1  0  0  0
 51122  1  0  0  0
 51123  1  0  0  0
 52124  1  0  0  0
 52125  1  0  0  0
 53 54  1  0  0  0
 54 55  2  0  0  0
 54126  1  0  0  0
 55 57  1  0  0  0
 55127  1  0  0  0
 56 69  2  0  0  0
 57 58  2  0  0  0
 57128  1  0  0  0
 58129  1  0  0  0
 59 60  1  0  0  0
 59 61  1  0  0  0
 59 62  1  0  0  0
 60130  1  0  0  0
 60131  1  0  0  0
 60132  1  0  0  0
 61133  1  0  0  0
 61134  1  0  0  0
 61135  1  0  0  0
 62136  1  0  0  0
 62137  1  0  0  0
 62138  1  0  0  0
 63 65  1  0  0  0
 63139  1  0  0  0
 63140  1  0  0  0
 63141  1  0  0  0
 64142  1  0  0  0
 65143  1  0  0  0
 68 79  1  0  0  0
 71 72  1  0  0  0
 71 74  2  0  0  0
 71144  1  0  0  0
 72 73  2  0  0  0
 72 78  1  0  0  0
 73 77  1  0  0  0
 73 84  1  0  0  0
 74 80  1  0  0  0
 74 84  1  0  0  0
 75 81  1  0  0  0
 75 82  2  0  0  0
 75145  1  0  0  0
 76 79  1  0  0  0
 76 81  1  0  0  0
 76 83  2  0  0  0
 77146  1  0  0  0
 77147  1  0  0  0
 77148  1  0  0  0
 78 82  1  0  0  0
 78149  1  0  0  0
 78150  1  0  0  0
 79151  1  0  0  0
 79152  1  0  0  0
 80153  1  0  0  0
 81154  1  0  0  0
 82155  1  0  0  0
M  CHG  1  82   1
M  ISO  4   1 100  68 101  79 101  80 100
M  END
> <chiral flag>
0

> <version>
0

> <s_m_source_file>
/data/baiqing/PycharmProjects/Reinvent-master-3.2/result/LINK_invent/BTK/process_docking_weight1_custom_product_contain_oxygen_bond_distance_aromatic_linkinvent_7_9_3/rearranged_h_0161.sdf

> <i_m_source_file_index>
25

> <r_mmod_Potential_Energy-OPLS-2005>
-240.442077636719

> <r_mmod_Stretch_Energy-OPLS-2005>
46.5896224975586

> <r_mmod_Bend_Energy-OPLS-2005>
147.470321655273

> <r_mmod_Torsional_Energy-OPLS-2005>
196.938400268555

> <r_mmod_Improper_Torsional_Energy-OPLS-2005>
3.07435321807861

> <r_mmod_Van_der_Waal_Energy-OPLS-2005>
134.717544555664

> <r_mmod_Electrostatic_Energy-OPLS-2005>
-300.096923828125

> <r_mmod_Solvation_Energy-OPLS-2005>
-487.807525634766

> <b_mmod_Minimization_Converged-OPLS-2005>
0

> <r_mmod_RMS_Derivative-OPLS-2005>
2.13303470611572

$$$$
25
                    3D
 Structure written by MMmdl.
156164  0  0  1  0            999 V2000
  -30.5989  -14.7713   20.4760 C   0  0  0  0  0  0
  -30.4289  -12.4759   19.4856 C   0  0  0  0  0  0
  -29.5095  -12.5187   18.2465 C   0  0  0  0  0  0
  -28.0375  -12.3322   18.6620 C   0  0  0  0  0  0
  -27.6409  -13.2354   19.8593 C   0  0  2  0  0  0
  -28.6819  -13.1854   21.0003 C   0  0  0  0  0  0
  -25.2523  -13.8212   20.5740 C   0  0  0  0  0  0
  -24.1816  -13.0445   20.9201 C   0  0  0  0  0  0
  -24.6425  -11.6921   20.8798 C   0  0  0  0  0  0
  -23.9133  -10.4291   21.0452 C   0  0  0  0  0  0
  -24.3666   -9.4188   21.9216 C   0  0  0  0  0  0
  -23.6296   -8.2248   22.0779 C   0  0  0  0  0  0
  -22.4283   -8.0319   21.3547 C   0  0  0  0  0  0
  -21.9939   -9.0324   20.4672 C   0  0  0  0  0  0
  -22.7315  -10.2169   20.3091 C   0  0  0  0  0  0
  -21.6850   -6.0750   22.5292 C   0  0  0  0  0  0
  -21.4022   -6.5661   23.8225 C   0  0  0  0  0  0
  -21.3642   -5.6805   24.9179 C   0  0  0  0  0  0
  -21.6023   -4.3073   24.7221 C   0  0  0  0  0  0
  -21.8818   -3.8172   23.4351 C   0  0  0  0  0  0
  -21.9188   -4.6980   22.3407 C   0  0  0  0  0  0
  -22.7845  -13.5229   21.1852 C   0  0  0  0  0  0
  -22.1654   -4.2181   21.0968 F   0  0  0  0  0  0
  -21.5609   -3.4550   25.7717 F   0  0  0  0  0  0
  -29.9812  -13.5417   20.4179 N   0  0  0  0  0  0
  -26.2949  -12.9426   20.3344 N   0  0  0  0  0  0
  -25.9372  -11.6562   20.5849 N   0  0  0  0  0  0
  -22.0505  -12.8211   22.0410 N   0  0  0  0  0  0
  -25.4217  -15.1931   20.4130 N   0  0  0  0  0  0
  -31.7796  -14.8704   20.1246 O   0  0  0  0  0  0
  -21.6635   -6.8916   21.4258 O   0  0  0  0  0  0
  -22.3515  -14.5521   20.6691 O   0  0  0  0  0  0
  -24.6309  -31.8491   23.2020 C   0  0  0  0  0  0
  -25.9136  -32.4725   23.8346 C   0  0  1  0  0  0
  -27.1488  -27.2039   20.1722 C   0  0  0  0  0  0
  -25.5913  -33.8520   24.2246 N   0  0  0  0  0  0
  -23.4243  -30.4785   21.5451 C   0  0  2  0  0  0
  -24.8625  -28.9376   20.0985 C   0  0  0  0  0  0
  -22.7501  -29.4562   22.4903 C   0  0  0  0  0  0
  -18.0292  -28.1350   22.8480 C   0  0  0  0  0  0
  -24.1481  -36.7286   23.2642 C   0  0  0  0  0  0
  -25.9738  -30.7562   21.3828 C   0  0  0  0  0  0
  -26.0368  -29.3777   20.7219 C   0  0  0  0  0  0
  -27.1903  -28.5257   20.7427 C   0  0  0  0  0  0
  -25.9662  -26.8591   19.4809 C   0  0  0  0  0  0
  -24.8341  -27.6904   19.4650 C   0  0  0  0  0  0
  -23.6385  -29.8281   20.1565 C   0  0  0  0  0  0
  -25.4112  -36.3047   24.0320 C   0  0  1  0  0  0
  -20.5888  -28.3623   23.1290 C   0  0  2  0  0  0
  -20.6750  -26.9342   22.5420 C   0  0  0  0  0  0
  -19.5733  -26.6350   21.5192 C   0  0  0  0  0  0
  -18.1929  -26.7903   22.1613 C   0  0  0  0  0  0
  -19.1545  -28.8821   23.2867 C   0  0  0  0  0  0
  -18.9459  -30.1435   23.8869 C   0  0  0  0  0  0
  -17.6459  -30.6569   24.0530 C   0  0  0  0  0  0
  -25.9059  -34.9404   23.5097 C   0  0  0  0  0  0
  -16.5359  -29.9037   23.6333 C   0  0  0  0  0  0
  -16.7278  -28.6446   23.0373 C   0  0  0  0  0  0
  -26.4492  -31.6578   25.0760 C   0  0  0  0  0  0
  -25.3730  -31.3760   26.1505 C   0  0  0  0  0  0
  -27.0320  -30.2971   24.6286 C   0  0  0  0  0  0
  -27.6028  -32.4308   25.7568 C   0  0  0  0  0  0
  -27.5576  -37.1813   24.8462 C   0  0  0  0  0  0
  -21.4206  -29.2977   22.3662 N   0  0  0  0  0  0
  -26.4291  -37.3738   23.9414 N   0  0  0  0  0  0
  -24.6951  -31.0474   22.0978 N   0  0  0  0  0  0
  -23.4190  -28.8092   23.3006 O   0  0  0  0  0  0
  -28.1466  -26.2061   20.3433 O   0  0  0  0  0  0
  -26.5639  -34.8874   22.4673 O   0  0  0  0  0  0
  -23.5468  -32.1329   23.7326 O   0  0  0  0  0  0
  -29.3675  -18.6254   20.8440 C   0  0  0  0  0  0
  -27.9688  -19.5398   22.2980 C   0  0  0  0  0  0
  -28.7979  -20.8762   20.7450 C   0  0  0  0  0  0
  -26.7103  -24.6080   21.6941 C   0  0  0  0  0  0
  -25.8149  -23.3741   21.7835 C   0  0  0  0  0  0
  -30.2659  -17.3610   20.4524 C   0  0  0  0  0  0
  -28.8613  -23.5738   20.7102 C   0  0  0  0  0  0
  -27.7198  -24.7331   20.5058 C   0  0  2  0  0  0
  -28.5759  -18.4361   21.8950 N   0  0  0  0  0  0
  -29.4930  -19.8360   20.2039 N   0  0  0  0  0  0
  -28.0361  -20.7699   21.8150 N   0  0  0  0  0  0
  -27.1213  -19.3788   23.3474 N   0  0  0  0  0  0
  -28.7717  -22.1655   20.1096 N   0  0  0  0  0  0
  -29.8463  -15.9101   20.7123 N   0  0  0  0  0  0
  -26.6268  -25.4658   22.5787 O   0  0  0  0  0  0
  -31.4707  -12.6029   19.1844 H   0  0  0  0  0  0
  -30.3745  -11.5011   19.9729 H   0  0  0  0  0  0
  -29.7975  -11.7411   17.5349 H   0  0  0  0  0  0
  -29.6295  -13.4694   17.7294 H   0  0  0  0  0  0
  -27.9004  -11.2843   18.9266 H   0  0  0  0  0  0
  -27.3710  -12.5228   17.8197 H   0  0  0  0  0  0
  -27.6324  -14.2549   19.4754 H   0  0  0  0  0  0
  -28.7278  -12.1932   21.4538 H   0  0  0  0  0  0
  -28.4087  -13.8756   21.7960 H   0  0  0  0  0  0
  -25.2827   -9.5616   22.4764 H   0  0  0  0  0  0
  -23.9992   -7.4630   22.7515 H   0  0  0  0  0  0
  -21.0852   -8.8894   19.8987 H   0  0  0  0  0  0
  -22.3838  -10.9715   19.6189 H   0  0  0  0  0  0
  -21.2055   -7.6186   23.9727 H   0  0  0  0  0  0
  -21.1434   -6.0540   25.9059 H   0  0  0  0  0  0
  -22.0605   -2.7643   23.2839 H   0  0  0  0  0  0
  -22.4133  -11.9839   22.4743 H   0  0  0  0  0  0
  -21.1155  -13.1278   22.2700 H   0  0  0  0  0  0
  -24.6626  -15.8509   20.5522 H   0  0  0  0  0  0
  -26.2736  -15.6370   20.0924 H   0  0  0  0  0  0
  -26.7203  -32.5336   23.1062 H   0  0  0  0  0  0
  -24.9953  -33.9619   25.0314 H   0  0  0  0  0  0
  -22.7145  -31.2997   21.4129 H   0  0  0  0  0  0
  -23.3721  -35.9640   23.3295 H   0  0  0  0  0  0
  -24.3573  -36.8926   22.2063 H   0  0  0  0  0  0
  -23.7257  -37.6486   23.6689 H   0  0  0  0  0  0
  -26.1181  -31.5172   20.6133 H   0  0  0  0  0  0
  -26.8464  -30.7976   22.0213 H   0  0  0  0  0  0
  -28.0735  -28.8408   21.2813 H   0  0  0  0  0  0
  -25.8567  -25.8977   19.0038 H   0  0  0  0  0  0
  -23.9302  -27.3499   18.9779 H   0  0  0  0  0  0
  -23.7645  -30.6151   19.4102 H   0  0  0  0  0  0
  -22.7519  -29.2714   19.8453 H   0  0  0  0  0  0
  -25.1287  -36.1874   25.0813 H   0  0  0  0  0  0
  -20.9971  -28.3191   24.1394 H   0  0  0  0  0  0
  -20.5592  -26.2220   23.3601 H   0  0  0  0  0  0
  -21.6619  -26.7317   22.1233 H   0  0  0  0  0  0
  -19.6877  -25.6242   21.1230 H   0  0  0  0  0  0
  -19.6705  -27.3133   20.6714 H   0  0  0  0  0  0
  -17.4177  -26.6622   21.4048 H   0  0  0  0  0  0
  -18.0364  -26.0055   22.9039 H   0  0  0  0  0  0
  -19.7945  -30.7265   24.2213 H   0  0  0  0  0  0
  -17.5010  -31.6258   24.5095 H   0  0  0  0  0  0
  -15.5334  -30.2906   23.7706 H   0  0  0  0  0  0
  -15.8688  -28.0741   22.7121 H   0  0  0  0  0  0
  -24.5883  -30.7088   25.7893 H   0  0  0  0  0  0
  -24.8938  -32.2948   26.4916 H   0  0  0  0  0  0
  -25.8061  -30.8983   27.0316 H   0  0  0  0  0  0
  -26.2916  -29.6755   24.1225 H   0  0  0  0  0  0
  -27.3866  -29.7184   25.4844 H   0  0  0  0  0  0
  -27.8864  -30.4197   23.9614 H   0  0  0  0  0  0
  -27.2600  -33.3581   26.2178 H   0  0  0  0  0  0
  -28.3874  -32.6922   25.0445 H   0  0  0  0  0  0
  -28.0686  -31.8429   26.5498 H   0  0  0  0  0  0
  -28.2575  -38.0120   24.7468 H   0  0  0  0  0  0
  -28.1091  -36.2643   24.6320 H   0  0  0  0  0  0
  -27.2312  -37.1487   25.8870 H   0  0  0  0  0  0
  -20.9354  -29.8707   21.6891 H   0  0  0  0  0  0
  -26.0160  -38.2810   24.1394 H   0  0  0  0  0  0
  -25.9229  -22.7403   20.9010 H   0  0  0  0  0  0
  -24.7615  -23.6485   21.8798 H   0  0  0  0  0  0
  -26.0796  -22.7800   22.6591 H   0  0  0  0  0  0
  -31.2072  -17.5064   20.9860 H   0  0  0  0  0  0
  -30.5163  -17.4455   19.3951 H   0  0  0  0  0  0
  -29.0499  -23.4603   21.7758 H   0  0  0  0  0  0
  -29.7780  -23.9978   20.3094 H   0  0  0  0  0  0
  -27.1823  -24.4647   19.5998 H   0  0  0  0  0  0
  -27.1747  -18.5244   23.8870 H   0  0  0  0  0  0
  -26.7755  -20.2044   23.8161 H   0  0  0  0  0  0
  -29.2089  -22.1295   19.1927 H   0  0  0  0  0  0
  -28.8893  -15.7938   21.0127 H   0  0  0  0  0  0
  1 25  1  0  0  0
  1 30  2  0  0  0
  1 84  1  0  0  0
  2  3  1  0  0  0
  2 25  1  0  0  0
  2 86  1  0  0  0
  2 87  1  0  0  0
  3  4  1  0  0  0
  3 88  1  0  0  0
  3 89  1  0  0  0
  4  5  1  0  0  0
  4 90  1  0  0  0
  4 91  1  0  0  0
  5  6  1  0  0  0
  5 26  1  0  0  0
  5 92  1  0  0  0
  6 25  1  0  0  0
  6 93  1  0  0  0
  6 94  1  0  0  0
  7  8  2  0  0  0
  7 26  1  0  0  0
  7 29  1  0  0  0
  8  9  1  0  0  0
  8 22  1  0  0  0
  9 10  1  0  0  0
  9 27  2  0  0  0
 10 11  2  0  0  0
 10 15  1  0  0  0
 11 12  1  0  0  0
 11 95  1  0  0  0
 12 13  2  0  0  0
 12 96  1  0  0  0
 13 14  1  0  0  0
 13 31  1  0  0  0
 14 15  2  0  0  0
 14 97  1  0  0  0
 15 98  1  0  0  0
 16 17  2  0  0  0
 16 21  1  0  0  0
 16 31  1  0  0  0
 17 18  1  0  0  0
 17 99  1  0  0  0
 18 19  2  0  0  0
 18100  1  0  0  0
 19 20  1  0  0  0
 19 24  1  0  0  0
 20 21  2  0  0  0
 20101  1  0  0  0
 21 23  1  0  0  0
 22 28  1  0  0  0
 22 32  2  0  0  0
 26 27  1  0  0  0
 28102  1  0  0  0
 28103  1  0  0  0
 29104  1  0  0  0
 29105  1  0  0  0
 33 34  1  0  0  0
 33 66  1  0  0  0
 33 70  2  0  0  0
 34 36  1  0  0  0
 34 59  1  0  0  0
 34106  1  0  0  0
 35 44  2  0  0  0
 35 45  1  0  0  0
 35 68  1  0  0  0
 36 56  1  0  0  0
 36107  1  0  0  0
 37 39  1  0  0  0
 37 47  1  0  0  0
 37 66  1  0  0  0
 37108  1  0  0  0
 38 43  2  0  0  0
 38 46  1  0  0  0
 38 47  1  0  0  0
 39 64  1  0  0  0
 39 67  2  0  0  0
 40 52  1  0  0  0
 40 53  2  0  0  0
 40 58  1  0  0  0
 41109  1  0  0  0
 41110  1  0  0  0
 41111  1  0  0  0
 41 48  1  0  0  0
 42 43  1  0  0  0
 42 66  1  0  0  0
 42112  1  0  0  0
 42113  1  0  0  0
 43 44  1  0  0  0
 44114  1  0  0  0
 45 46  2  0  0  0
 45115  1  0  0  0
 46116  1  0  0  0
 47117  1  0  0  0
 47118  1  0  0  0
 48 56  1  0  0  0
 48 65  1  0  0  0
 48119  1  0  0  0
 49 50  1  0  0  0
 49 53  1  0  0  0
 49 64  1  0  0  0
 49120  1  0  0  0
 50 51  1  0  0  0
 50121  1  0  0  0
 50122  1  0  0  0
 51 52  1  0  0  0
 51123  1  0  0  0
 51124  1  0  0  0
 52125  1  0  0  0
 52126  1  0  0  0
 53 54  1  0  0  0
 54 55  2  0  0  0
 54127  1  0  0  0
 55 57  1  0  0  0
 55128  1  0  0  0
 56 69  2  0  0  0
 57 58  2  0  0  0
 57129  1  0  0  0
 58130  1  0  0  0
 59 60  1  0  0  0
 59 61  1  0  0  0
 59 62  1  0  0  0
 60131  1  0  0  0
 60132  1  0  0  0
 60133  1  0  0  0
 61134  1  0  0  0
 61135  1  0  0  0
 61136  1  0  0  0
 62137  1  0  0  0
 62138  1  0  0  0
 62139  1  0  0  0
 63 65  1  0  0  0
 63140  1  0  0  0
 63141  1  0  0  0
 63142  1  0  0  0
 64143  1  0  0  0
 65144  1  0  0  0
 68 78  1  0  0  0
 71 76  1  0  0  0
 71 79  1  0  0  0
 71 80  2  0  0  0
 72 79  2  0  0  0
 72 81  1  0  0  0
 72 82  1  0  0  0
 73 80  1  0  0  0
 73 81  2  0  0  0
 73 83  1  0  0  0
 74 75  1  0  0  0
 74 78  1  0  0  0
 74 85  2  0  0  0
 75145  1  0  0  0
 75146  1  0  0  0
 75147  1  0  0  0
 76 84  1  0  0  0
 76148  1  0  0  0
 76149  1  0  0  0
 77 83  1  0  0  0
 77150  1  0  0  0
 77151  1  0  0  0
 77 78  1  0  0  0
 78152  1  0  0  0
 82153  1  0  0  0
 82154  1  0  0  0
 83155  1  0  0  0
 84156  1  0  0  0
M  ISO  4   1 100  68 101  78 101  84 100
M  END
> <chiral flag>
0

> <version>
0

> <s_m_source_file>
/data/baiqing/PycharmProjects/Reinvent-master-3.2/result/LINK_invent/BTK/process_docking_weight1_custom_product_contain_oxygen_bond_distance_aromatic_linkinvent_7_9_3/rearranged_h_0161.sdf

> <i_m_source_file_index>
26

> <r_mmod_Potential_Energy-OPLS-2005>
-889.807373046875

> <r_mmod_Stretch_Energy-OPLS-2005>
138.391662597656

> <r_mmod_Bend_Energy-OPLS-2005>
180.877914428711

> <r_mmod_Torsional_Energy-OPLS-2005>
213.030685424805

> <r_mmod_Improper_Torsional_Energy-OPLS-2005>
9.93406391143799

> <r_mmod_Van_der_Waal_Energy-OPLS-2005>
154.768951416016

> <r_mmod_Electrostatic_Energy-OPLS-2005>
-1447.93994140625

> <r_mmod_Solvation_Energy-OPLS-2005>
-267.0986328125

> <b_mmod_Minimization_Converged-OPLS-2005>
0

> <r_mmod_RMS_Derivative-OPLS-2005>
5.64235305786133

$$$$
26
                    3D
 Structure written by MMmdl.
156165  0  0  1  0            999 V2000
  -30.6009  -14.6862   20.4702 C   0  0  0  0  0  0
  -30.4429  -12.4172   19.4517 C   0  0  0  0  0  0
  -29.5077  -12.5078   18.2242 C   0  0  0  0  0  0
  -28.0317  -12.3390   18.6398 C   0  0  0  0  0  0
  -27.6493  -13.2185   19.8600 C   0  0  2  0  0  0
  -28.6993  -13.0976   20.9875 C   0  0  0  0  0  0
  -25.2540  -13.8173   20.5725 C   0  0  0  0  0  0
  -24.1810  -13.0418   20.9181 C   0  0  0  0  0  0
  -24.6395  -11.6896   20.8729 C   0  0  0  0  0  0
  -23.9067  -10.4280   21.0399 C   0  0  0  0  0  0
  -24.3617   -9.4199   21.9181 C   0  0  0  0  0  0
  -23.6290   -8.2237   22.0755 C   0  0  0  0  0  0
  -22.4272   -8.0277   21.3545 C   0  0  0  0  0  0
  -21.9908   -9.0248   20.4644 C   0  0  0  0  0  0
  -22.7239  -10.2125   20.3050 C   0  0  0  0  0  0
  -21.6850   -6.0732   22.5279 C   0  0  0  0  0  0
  -21.4012   -6.5639   23.8211 C   0  0  0  0  0  0
  -21.3659   -5.6794   24.9175 C   0  0  0  0  0  0
  -21.6046   -4.3056   24.7226 C   0  0  0  0  0  0
  -21.8819   -3.8145   23.4348 C   0  0  0  0  0  0
  -21.9191   -4.6960   22.3402 C   0  0  0  0  0  0
  -22.7830  -13.5203   21.1853 C   0  0  0  0  0  0
  -22.1660   -4.2145   21.0980 F   0  0  0  0  0  0
  -21.5631   -3.4542   25.7741 F   0  0  0  0  0  0
  -30.0078  -13.4494   20.4135 N   0  0  0  0  0  0
  -26.2977  -12.9364   20.3335 N   0  0  0  0  0  0
  -25.9326  -11.6510   20.5758 N   0  0  0  0  0  0
  -22.0484  -12.8188   22.0414 N   0  0  0  0  0  0
  -25.4144  -15.1921   20.4266 N   0  0  0  0  0  0
  -31.7845  -14.8423   20.1554 O   0  0  0  0  0  0
  -21.6634   -6.8877   21.4244 O   0  0  0  0  0  0
  -22.3505  -14.5511   20.6715 O   0  0  0  0  0  0
  -24.6279  -31.8582   23.2007 C   0  0  0  0  0  0
  -25.9118  -32.4770   23.8344 C   0  0  1  0  0  0
  -27.2239  -27.3016   20.1272 C   0  0  0  0  0  0
  -25.5928  -33.8571   24.2270 N   0  0  0  0  0  0
  -23.4234  -30.4806   21.5431 C   0  0  2  0  0  0
  -24.8724  -28.9320   20.1111 C   0  0  0  0  0  0
  -22.7485  -29.4615   22.4924 C   0  0  0  0  0  0
  -18.0287  -28.1388   22.8488 C   0  0  0  0  0  0
  -24.1490  -36.7288   23.2640 C   0  0  0  0  0  0
  -25.9660  -30.7835   21.3752 C   0  0  0  0  0  0
  -26.0421  -29.4088   20.7184 C   0  0  0  0  0  0
  -27.2240  -28.6059   20.7154 C   0  0  0  0  0  0
  -26.0379  -26.8856   19.4855 C   0  0  0  0  0  0
  -24.8730  -27.6764   19.4841 C   0  0  0  0  0  0
  -23.6404  -29.8135   20.1594 C   0  0  0  0  0  0
  -25.4116  -36.3078   24.0327 C   0  0  1  0  0  0
  -20.5889  -28.3697   23.1279 C   0  0  2  0  0  0
  -20.6778  -26.9418   22.5411 C   0  0  0  0  0  0
  -19.5752  -26.6387   21.5214 C   0  0  0  0  0  0
  -18.1932  -26.7932   22.1625 C   0  0  0  0  0  0
  -19.1540  -28.8860   23.2879 C   0  0  0  0  0  0
  -18.9463  -30.1463   23.8895 C   0  0  0  0  0  0
  -17.6463  -30.6592   24.0564 C   0  0  0  0  0  0
  -25.9054  -34.9447   23.5100 C   0  0  0  0  0  0
  -16.5355  -29.9090   23.6332 C   0  0  0  0  0  0
  -16.7275  -28.6506   23.0354 C   0  0  0  0  0  0
  -26.4498  -31.6585   25.0720 C   0  0  0  0  0  0
  -25.3729  -31.3728   26.1446 C   0  0  0  0  0  0
  -27.0346  -30.3007   24.6187 C   0  0  0  0  0  0
  -27.6052  -32.4324   25.7495 C   0  0  0  0  0  0
  -27.5580  -37.1800   24.8465 C   0  0  0  0  0  0
  -21.4196  -29.3044   22.3667 N   0  0  0  0  0  0
  -26.4292  -37.3776   23.9408 N   0  0  0  0  0  0
  -24.6911  -31.0578   22.0965 N   0  0  0  0  0  0
  -23.4199  -28.8157   23.3014 O   0  0  0  0  0  0
  -28.3137  -26.4149   20.1559 O   0  0  0  0  0  0
  -26.5622  -34.8918   22.4666 O   0  0  0  0  0  0
  -23.5437  -32.1385   23.7324 O   0  0  0  0  0  0
  -30.9103  -19.4234   20.8430 C   0  0  0  0  0  0
  -30.9475  -17.9947   20.9331 C   0  0  0  0  0  0
  -28.6919  -19.3419   19.9338 C   0  0  0  0  0  0
  -29.7878  -20.1487   20.3400 C   0  0  0  0  0  0
  -29.8515  -17.1960   20.5172 C   0  0  0  0  0  0
  -28.7278  -17.9117   20.0125 C   0  0  0  0  0  0
  -28.8119  -23.7720   20.2569 C   0  0  0  0  0  0
  -29.3870  -23.7250   18.8664 C   0  0  0  0  0  0
  -29.7138  -22.2277   18.6916 C   0  0  0  0  0  0
  -29.8570  -21.7239   20.1366 C   0  0  1  0  0  0
  -28.0505  -25.0756   20.7575 C   0  0  0  0  0  0
  -28.9731  -22.6486   20.8982 N   0  0  0  0  0  0
  -27.6409  -17.1768   19.5392 N   0  0  0  0  0  0
  -29.7438  -15.7396   20.6720 N   0  0  0  0  0  0
  -31.4817  -12.5545   19.1458 H   0  0  0  0  0  0
  -30.3908  -11.4269   19.9068 H   0  0  0  0  0  0
  -29.7766  -11.7505   17.4865 H   0  0  0  0  0  0
  -29.6394  -13.4730   17.7323 H   0  0  0  0  0  0
  -27.8758  -11.2867   18.8808 H   0  0  0  0  0  0
  -27.3743  -12.5572   17.7975 H   0  0  0  0  0  0
  -27.6534  -14.2477   19.5041 H   0  0  0  0  0  0
  -28.7220  -12.0818   21.3854 H   0  0  0  0  0  0
  -28.4451  -13.7438   21.8293 H   0  0  0  0  0  0
  -25.2762   -9.5675   22.4753 H   0  0  0  0  0  0
  -23.9999   -7.4628   22.7475 H   0  0  0  0  0  0
  -21.0840   -8.8764   19.8949 H   0  0  0  0  0  0
  -22.3697  -10.9664   19.6157 H   0  0  0  0  0  0
  -21.2005   -7.6147   23.9713 H   0  0  0  0  0  0
  -21.1484   -6.0526   25.9078 H   0  0  0  0  0  0
  -22.0599   -2.7607   23.2848 H   0  0  0  0  0  0
  -22.4115  -11.9852   22.4794 H   0  0  0  0  0  0
  -21.1105  -13.1209   22.2640 H   0  0  0  0  0  0
  -24.6364  -15.8262   20.5669 H   0  0  0  0  0  0
  -26.2694  -15.6899   20.1832 H   0  0  0  0  0  0
  -26.7185  -32.5440   23.1090 H   0  0  0  0  0  0
  -25.0075  -33.9713   25.0415 H   0  0  0  0  0  0
  -22.7178  -31.3013   21.3979 H   0  0  0  0  0  0
  -23.3753  -35.9620   23.3300 H   0  0  0  0  0  0
  -24.3576  -36.8914   22.2054 H   0  0  0  0  0  0
  -23.7243  -37.6489   23.6664 H   0  0  0  0  0  0
  -26.0990  -31.5458   20.6065 H   0  0  0  0  0  0
  -26.8454  -30.8333   22.0057 H   0  0  0  0  0  0
  -28.1207  -28.9649   21.2009 H   0  0  0  0  0  0
  -26.0020  -25.9237   18.9934 H   0  0  0  0  0  0
  -23.9788  -27.3070   19.0010 H   0  0  0  0  0  0
  -23.7609  -30.5891   19.4024 H   0  0  0  0  0  0
  -22.7605  -29.2432   19.8564 H   0  0  0  0  0  0
  -25.1297  -36.1927   25.0820 H   0  0  0  0  0  0
  -20.9981  -28.3277   24.1400 H   0  0  0  0  0  0
  -20.5685  -26.2307   23.3612 H   0  0  0  0  0  0
  -21.6646  -26.7450   22.1202 H   0  0  0  0  0  0
  -19.6916  -25.6298   21.1246 H   0  0  0  0  0  0
  -19.6691  -27.3195   20.6742 H   0  0  0  0  0  0
  -17.4203  -26.6681   21.4028 H   0  0  0  0  0  0
  -18.0331  -26.0077   22.9024 H   0  0  0  0  0  0
  -19.7940  -30.7281   24.2262 H   0  0  0  0  0  0
  -17.5019  -31.6270   24.5170 H   0  0  0  0  0  0
  -15.5356  -30.2993   23.7661 H   0  0  0  0  0  0
  -15.8673  -28.0827   22.7070 H   0  0  0  0  0  0
  -24.5899  -30.7085   25.7773 H   0  0  0  0  0  0
  -24.8928  -32.2900   26.4870 H   0  0  0  0  0  0
  -25.8052  -30.8903   27.0221 H   0  0  0  0  0  0
  -26.2924  -29.6753   24.1211 H   0  0  0  0  0  0
  -27.4039  -29.7269   25.4697 H   0  0  0  0  0  0
  -27.8795  -30.4287   23.9417 H   0  0  0  0  0  0
  -27.2656  -33.3627   26.2062 H   0  0  0  0  0  0
  -28.3870  -32.6882   25.0331 H   0  0  0  0  0  0
  -28.0712  -31.8457   26.5423 H   0  0  0  0  0  0
  -28.2595  -38.0099   24.7512 H   0  0  0  0  0  0
  -28.1078  -36.2628   24.6291 H   0  0  0  0  0  0
  -27.2295  -37.1450   25.8868 H   0  0  0  0  0  0
  -20.9380  -29.8763   21.6870 H   0  0  0  0  0  0
  -26.0170  -38.2850   24.1410 H   0  0  0  0  0  0
  -31.7859  -19.9726   21.1604 H   0  0  0  0  0  0
  -31.8275  -17.5181   21.3413 H   0  0  0  0  0  0
  -27.8226  -19.8349   19.5220 H   0  0  0  0  0  0
  -30.2833  -24.3444   18.8251 H   0  0  0  0  0  0
  -28.6704  -24.0878   18.1292 H   0  0  0  0  0  0
  -30.6053  -22.0491   18.0896 H   0  0  0  0  0  0
  -28.8768  -21.7270   18.2029 H   0  0  0  0  0  0
  -30.8771  -21.9772   20.4353 H   0  0  0  0  0  0
  -28.2752  -25.1826   21.8190 H   0  0  0  0  0  0
  -26.9882  -24.8361   20.7319 H   0  0  0  0  0  0
  -26.9454  -17.7292   19.0493 H   0  0  0  0  0  0
  -27.9194  -16.3963   18.9562 H   0  0  0  0  0  0
  -28.7863  -15.4433   20.7820 H   0  0  0  0  0  0
  1 25  1  0  0  0
  1 30  2  0  0  0
  1 84  1  0  0  0
  2  3  1  0  0  0
  2 25  1  0  0  0
  2 85  1  0  0  0
  2 86  1  0  0  0
  3  4  1  0  0  0
  3 87  1  0  0  0
  3 88  1  0  0  0
  4  5  1  0  0  0
  4 89  1  0  0  0
  4 90  1  0  0  0
  5  6  1  0  0  0
  5 26  1  0  0  0
  5 91  1  0  0  0
  6 25  1  0  0  0
  6 92  1  0  0  0
  6 93  1  0  0  0
  7  8  2  0  0  0
  7 26  1  0  0  0
  7 29  1  0  0  0
  8  9  1  0  0  0
  8 22  1  0  0  0
  9 10  1  0  0  0
  9 27  2  0  0  0
 10 11  2  0  0  0
 10 15  1  0  0  0
 11 12  1  0  0  0
 11 94  1  0  0  0
 12 13  2  0  0  0
 12 95  1  0  0  0
 13 14  1  0  0  0
 13 31  1  0  0  0
 14 15  2  0  0  0
 14 96  1  0  0  0
 15 97  1  0  0  0
 16 17  2  0  0  0
 16 21  1  0  0  0
 16 31  1  0  0  0
 17 18  1  0  0  0
 17 98  1  0  0  0
 18 19  2  0  0  0
 18 99  1  0  0  0
 19 20  1  0  0  0
 19 24  1  0  0  0
 20 21  2  0  0  0
 20100  1  0  0  0
 21 23  1  0  0  0
 22 28  1  0  0  0
 22 32  2  0  0  0
 26 27  1  0  0  0
 28101  1  0  0  0
 28102  1  0  0  0
 29103  1  0  0  0
 29104  1  0  0  0
 33 34  1  0  0  0
 33 66  1  0  0  0
 33 70  2  0  0  0
 34 36  1  0  0  0
 34 59  1  0  0  0
 34105  1  0  0  0
 35 44  2  0  0  0
 35 45  1  0  0  0
 35 68  1  0  0  0
 36 56  1  0  0  0
 36106  1  0  0  0
 37 39  1  0  0  0
 37 47  1  0  0  0
 37 66  1  0  0  0
 37107  1  0  0  0
 38 43  2  0  0  0
 38 46  1  0  0  0
 38 47  1  0  0  0
 39 64  1  0  0  0
 39 67  2  0  0  0
 40 52  1  0  0  0
 40 53  2  0  0  0
 40 58  1  0  0  0
 41108  1  0  0  0
 41109  1  0  0  0
 41110  1  0  0  0
 41 48  1  0  0  0
 42 43  1  0  0  0
 42 66  1  0  0  0
 42111  1  0  0  0
 42112  1  0  0  0
 43 44  1  0  0  0
 44113  1  0  0  0
 45 46  2  0  0  0
 45114  1  0  0  0
 46115  1  0  0  0
 47116  1  0  0  0
 47117  1  0  0  0
 48 56  1  0  0  0
 48 65  1  0  0  0
 48118  1  0  0  0
 49 50  1  0  0  0
 49 53  1  0  0  0
 49 64  1  0  0  0
 49119  1  0  0  0
 50 51  1  0  0  0
 50120  1  0  0  0
 50121  1  0  0  0
 51 52  1  0  0  0
 51122  1  0  0  0
 51123  1  0  0  0
 52124  1  0  0  0
 52125  1  0  0  0
 53 54  1  0  0  0
 54 55  2  0  0  0
 54126  1  0  0  0
 55 57  1  0  0  0
 55127  1  0  0  0
 56 69  2  0  0  0
 57 58  2  0  0  0
 57128  1  0  0  0
 58129  1  0  0  0
 59 60  1  0  0  0
 59 61  1  0  0  0
 59 62  1  0  0  0
 60130  1  0  0  0
 60131  1  0  0  0
 60132  1  0  0  0
 61133  1  0  0  0
 61134  1  0  0  0
 61135  1  0  0  0
 62136  1  0  0  0
 62137  1  0  0  0
 62138  1  0  0  0
 63 65  1  0  0  0
 63139  1  0  0  0
 63140  1  0  0  0
 63141  1  0  0  0
 64142  1  0  0  0
 65143  1  0  0  0
 68 81  1  0  0  0
 71 72  2  0  0  0
 71 74  1  0  0  0
 71144  1  0  0  0
 72 75  1  0  0  0
 72145  1  0  0  0
 73 74  2  0  0  0
 73 76  1  0  0  0
 73146  1  0  0  0
 74 80  1  0  0  0
 75 76  2  0  0  0
 75 84  1  0  0  0
 76 83  1  0  0  0
 77 78  1  0  0  0
 77 81  1  0  0  0
 77 82  2  0  0  0
 78 79  1  0  0  0
 78147  1  0  0  0
 78148  1  0  0  0
 79 80  1  0  0  0
 79149  1  0  0  0
 79150  1  0  0  0
 80 82  1  0  0  0
 80151  1  0  0  0
 81152  1  0  0  0
 81153  1  0  0  0
 83154  1  0  0  0
 83155  1  0  0  0
 84156  1  0  0  0
M  ISO  4   1 100  68 101  81 101  84 100
M  END
> <chiral flag>
0

> <version>
0

> <s_m_source_file>
/data/baiqing/PycharmProjects/Reinvent-master-3.2/result/LINK_invent/BTK/process_docking_weight1_custom_product_contain_oxygen_bond_distance_aromatic_linkinvent_7_9_3/rearranged_h_0161.sdf

> <i_m_source_file_index>
27

> <r_mmod_Potential_Energy-OPLS-2005>
13.3303489685059

> <r_mmod_Stretch_Energy-OPLS-2005>
89.1541519165039

> <r_mmod_Bend_Energy-OPLS-2005>
179.338104248047

> <r_mmod_Torsional_Energy-OPLS-2005>
267.380737304688

> <r_mmod_Improper_Torsional_Energy-OPLS-2005>
11.9292602539062

> <r_mmod_Van_der_Waal_Energy-OPLS-2005>
136.510223388672

> <r_mmod_Electrostatic_Energy-OPLS-2005>
-520.84521484375

> <r_mmod_Solvation_Energy-OPLS-2005>
-213.754440307617

> <b_mmod_Minimization_Converged-OPLS-2005>
0

> <r_mmod_RMS_Derivative-OPLS-2005>
0.416694819927216

$$$$
27
                    3D
 Structure written by MMmdl.
159168  0  0  1  0            999 V2000
  -30.6915  -14.4701   20.5574 C   0  0  0  0  0  0
  -30.4248  -12.2984   19.4284 C   0  0  0  0  0  0
  -29.4977  -12.5022   18.2110 C   0  0  0  0  0  0
  -28.0175  -12.3664   18.6201 C   0  0  0  0  0  0
  -27.6636  -13.2049   19.8777 C   0  0  2  0  0  0
  -28.7035  -12.9795   20.9998 C   0  0  0  0  0  0
  -25.2595  -13.8156   20.5675 C   0  0  0  0  0  0
  -24.1842  -13.0438   20.9171 C   0  0  0  0  0  0
  -24.6392  -11.6904   20.8731 C   0  0  0  0  0  0
  -23.9057  -10.4292   21.0403 C   0  0  0  0  0  0
  -24.3611   -9.4209   21.9181 C   0  0  0  0  0  0
  -23.6288   -8.2244   22.0756 C   0  0  0  0  0  0
  -22.4270   -8.0280   21.3545 C   0  0  0  0  0  0
  -21.9902   -9.0253   20.4649 C   0  0  0  0  0  0
  -22.7229  -10.2133   20.3055 C   0  0  0  0  0  0
  -21.6852   -6.0733   22.5278 C   0  0  0  0  0  0
  -21.4014   -6.5638   23.8210 C   0  0  0  0  0  0
  -21.3660   -5.6792   24.9173 C   0  0  0  0  0  0
  -21.6044   -4.3055   24.7224 C   0  0  0  0  0  0
  -21.8820   -3.8145   23.4347 C   0  0  0  0  0  0
  -21.9193   -4.6961   22.3402 C   0  0  0  0  0  0
  -22.7866  -13.5242   21.1837 C   0  0  0  0  0  0
  -22.1661   -4.2146   21.0980 F   0  0  0  0  0  0
  -21.5630   -3.4539   25.7737 F   0  0  0  0  0  0
  -30.0396  -13.2799   20.4547 N   0  0  0  0  0  0
  -26.3032  -12.9323   20.3371 N   0  0  0  0  0  0
  -25.9320  -11.6485   20.5767 N   0  0  0  0  0  0
  -22.0505  -12.8239   22.0396 N   0  0  0  0  0  0
  -25.4323  -15.1871   20.4076 N   0  0  0  0  0  0
  -31.8169  -14.6558   20.0852 O   0  0  0  0  0  0
  -21.6638   -6.8875   21.4239 O   0  0  0  0  0  0
  -22.3554  -14.5552   20.6690 O   0  0  0  0  0  0
  -24.6139  -31.8682   23.2102 C   0  0  0  0  0  0
  -25.9033  -32.4826   23.8398 C   0  0  1  0  0  0
  -27.2342  -27.4419   20.0996 C   0  0  0  0  0  0
  -25.5891  -33.8623   24.2331 N   0  0  0  0  0  0
  -23.4026  -30.4910   21.5502 C   0  0  2  0  0  0
  -24.8512  -28.9582   20.1135 C   0  0  0  0  0  0
  -22.7410  -29.4657   22.4989 C   0  0  0  0  0  0
  -18.0272  -28.1375   22.8494 C   0  0  0  0  0  0
  -24.1486  -36.7320   23.2638 C   0  0  0  0  0  0
  -25.9304  -30.8369   21.3620 C   0  0  0  0  0  0
  -26.0108  -29.4717   20.7097 C   0  0  0  0  0  0
  -27.2090  -28.7211   20.6990 C   0  0  0  0  0  0
  -26.0634  -26.9430   19.4924 C   0  0  0  0  0  0
  -24.8719  -27.6926   19.5008 C   0  0  0  0  0  0
  -23.6114  -29.8227   20.1648 C   0  0  0  0  0  0
  -25.4106  -36.3115   24.0338 C   0  0  1  0  0  0
  -20.5862  -28.3662   23.1320 C   0  0  2  0  0  0
  -20.6763  -26.9399   22.5417 C   0  0  0  0  0  0
  -19.5742  -26.6385   21.5212 C   0  0  0  0  0  0
  -18.1922  -26.7921   22.1626 C   0  0  0  0  0  0
  -19.1522  -28.8834   23.2905 C   0  0  0  0  0  0
  -18.9450  -30.1441   23.8914 C   0  0  0  0  0  0
  -17.6453  -30.6583   24.0565 C   0  0  0  0  0  0
  -25.9031  -34.9478   23.5133 C   0  0  0  0  0  0
  -16.5343  -29.9086   23.6323 C   0  0  0  0  0  0
  -16.7262  -28.6502   23.0347 C   0  0  0  0  0  0
  -26.4467  -31.6599   25.0719 C   0  0  0  0  0  0
  -25.3740  -31.3701   26.1473 C   0  0  0  0  0  0
  -27.0293  -30.3043   24.6080 C   0  0  0  0  0  0
  -27.6049  -32.4312   25.7477 C   0  0  0  0  0  0
  -27.5582  -37.1813   24.8465 C   0  0  0  0  0  0
  -21.4138  -29.3031   22.3729 N   0  0  0  0  0  0
  -26.4296  -37.3796   23.9407 N   0  0  0  0  0  0
  -24.6672  -31.0789   22.0998 N   0  0  0  0  0  0
  -23.4183  -28.8198   23.3031 O   0  0  0  0  0  0
  -28.3727  -26.6691   20.1103 O   0  0  0  0  0  0
  -26.5594  -34.8927   22.4695 O   0  0  0  0  0  0
  -23.5333  -32.1427   23.7501 O   0  0  0  0  0  0
  -30.4296  -18.7587   19.2874 C   0  0  0  0  0  0
  -30.6528  -17.4179   19.6744 C   0  0  0  0  0  0
  -28.7769  -19.0028   21.0517 C   0  0  0  0  0  0
  -29.4815  -19.5621   19.9620 C   0  0  0  0  0  0
  -29.9161  -16.8417   20.7408 C   0  0  0  0  0  0
  -28.9887  -17.6570   21.4283 C   0  0  0  0  0  0
  -28.9510  -23.4027   19.7168 C   0  0  0  0  0  0
  -29.1541  -20.9046   19.4374 C   0  0  0  0  0  0
  -29.5676  -23.5662   22.0204 C   0  0  0  0  0  0
  -29.8392  -22.1420   21.5151 C   0  0  0  0  0  0
  -29.3332  -24.4395   20.7780 C   0  0  2  0  0  0
  -28.2801  -25.5550   21.0141 C   0  0  0  0  0  0
  -29.2676  -22.0604   20.1597 N   0  0  0  0  0  0
  -29.9831  -15.4633   21.1235 N   0  0  0  0  0  0
  -28.7333  -20.9355   18.1706 N   0  3  0  0  0  0
  -28.4519  -23.6733   18.6189 O   0  0  0  0  0  0
  -28.2601  -17.1242   22.4394 F   0  0  0  0  0  0
  -31.4703  -12.3933   19.1292 H   0  0  0  0  0  0
  -30.3220  -11.2863   19.8229 H   0  0  0  0  0  0
  -29.7362  -11.7771   17.4317 H   0  0  0  0  0  0
  -29.6703  -13.4872   17.7746 H   0  0  0  0  0  0
  -27.8244  -11.3105   18.8139 H   0  0  0  0  0  0
  -27.3695  -12.6440   17.7879 H   0  0  0  0  0  0
  -27.7096  -14.2535   19.5829 H   0  0  0  0  0  0
  -28.6744  -11.9425   21.3380 H   0  0  0  0  0  0
  -28.4626  -13.5759   21.8808 H   0  0  0  0  0  0
  -25.2759   -9.5685   22.4750 H   0  0  0  0  0  0
  -23.9998   -7.4638   22.7477 H   0  0  0  0  0  0
  -21.0833   -8.8769   19.8957 H   0  0  0  0  0  0
  -22.3687  -10.9670   19.6163 H   0  0  0  0  0  0
  -21.2005   -7.6147   23.9712 H   0  0  0  0  0  0
  -21.1482   -6.0524   25.9075 H   0  0  0  0  0  0
  -22.0599   -2.7608   23.2847 H   0  0  0  0  0  0
  -22.4113  -11.9896   22.4783 H   0  0  0  0  0  0
  -21.1128  -13.1274   22.2606 H   0  0  0  0  0  0
  -24.6679  -15.8437   20.5208 H   0  0  0  0  0  0
  -26.2883  -15.6261   20.0949 H   0  0  0  0  0  0
  -26.7107  -32.5546   23.1169 H   0  0  0  0  0  0
  -25.0044  -33.9787   25.0477 H   0  0  0  0  0  0
  -22.6909  -31.3074   21.4110 H   0  0  0  0  0  0
  -23.3741  -35.9661   23.3313 H   0  0  0  0  0  0
  -24.3581  -36.8919   22.2049 H   0  0  0  0  0  0
  -23.7247  -37.6534   23.6640 H   0  0  0  0  0  0
  -26.0395  -31.6032   20.5933 H   0  0  0  0  0  0
  -26.8192  -30.8923   21.9787 H   0  0  0  0  0  0
  -28.1044  -29.1104   21.1634 H   0  0  0  0  0  0
  -26.0736  -25.9702   19.0205 H   0  0  0  0  0  0
  -23.9813  -27.2918   19.0366 H   0  0  0  0  0  0
  -23.7171  -30.5976   19.4047 H   0  0  0  0  0  0
  -22.7364  -29.2405   19.8701 H   0  0  0  0  0  0
  -25.1282  -36.1985   25.0832 H   0  0  0  0  0  0
  -20.9954  -28.3225   24.1440 H   0  0  0  0  0  0
  -20.5667  -26.2269   23.3603 H   0  0  0  0  0  0
  -21.6633  -26.7444   22.1209 H   0  0  0  0  0  0
  -19.6905  -25.6301   21.1230 H   0  0  0  0  0  0
  -19.6683  -27.3206   20.6751 H   0  0  0  0  0  0
  -17.4192  -26.6668   21.4028 H   0  0  0  0  0  0
  -18.0327  -26.0059   22.9020 H   0  0  0  0  0  0
  -19.7926  -30.7251   24.2293 H   0  0  0  0  0  0
  -17.5009  -31.6265   24.5163 H   0  0  0  0  0  0
  -15.5345  -30.2996   23.7636 H   0  0  0  0  0  0
  -15.8661  -28.0827   22.7053 H   0  0  0  0  0  0
  -24.5902  -30.7062   25.7809 H   0  0  0  0  0  0
  -24.8945  -32.2858   26.4944 H   0  0  0  0  0  0
  -25.8097  -30.8850   27.0217 H   0  0  0  0  0  0
  -26.2831  -29.6811   24.1137 H   0  0  0  0  0  0
  -27.4075  -29.7270   25.4527 H   0  0  0  0  0  0
  -27.8660  -30.4369   23.9217 H   0  0  0  0  0  0
  -27.2672  -33.3597   26.2093 H   0  0  0  0  0  0
  -28.3837  -32.6896   25.0290 H   0  0  0  0  0  0
  -28.0741  -31.8412   26.5360 H   0  0  0  0  0  0
  -28.2607  -38.0103   24.7507 H   0  0  0  0  0  0
  -28.1070  -36.2635   24.6296 H   0  0  0  0  0  0
  -27.2300  -37.1470   25.8868 H   0  0  0  0  0  0
  -20.9295  -29.8759   21.6958 H   0  0  0  0  0  0
  -26.0189  -38.2878   24.1401 H   0  0  0  0  0  0
  -30.9740  -19.1600   18.4428 H   0  0  0  0  0  0
  -31.3668  -16.8419   19.1054 H   0  0  0  0  0  0
  -28.0222  -19.5773   21.5688 H   0  0  0  0  0  0
  -30.4066  -23.9400   22.6081 H   0  0  0  0  0  0
  -28.6935  -23.5644   22.6733 H   0  0  0  0  0  0
  -29.4110  -21.4118   22.2017 H   0  0  0  0  0  0
  -30.9131  -21.9531   21.4628 H   0  0  0  0  0  0
  -30.2804  -24.8868   20.4760 H   0  0  0  0  0  0
  -28.4094  -25.9555   22.0208 H   0  0  0  0  0  0
  -27.2835  -25.1089   21.0020 H   0  0  0  0  0  0
  -29.1994  -15.1620   21.6823 H   0  0  0  0  0  0
  -28.6092  -20.0818   17.6494 H   0  0  0  0  0  0
  -28.4696  -21.8238   17.7627 H   0  0  0  0  0  0
  1 25  1  0  0  0
  1 30  2  0  0  0
  1 84  1  0  0  0
  2  3  1  0  0  0
  2 25  1  0  0  0
  2 88  1  0  0  0
  2 89  1  0  0  0
  3  4  1  0  0  0
  3 90  1  0  0  0
  3 91  1  0  0  0
  4  5  1  0  0  0
  4 92  1  0  0  0
  4 93  1  0  0  0
  5  6  1  0  0  0
  5 26  1  0  0  0
  5 94  1  0  0  0
  6 25  1  0  0  0
  6 95  1  0  0  0
  6 96  1  0  0  0
  7  8  2  0  0  0
  7 26  1  0  0  0
  7 29  1  0  0  0
  8  9  1  0  0  0
  8 22  1  0  0  0
  9 10  1  0  0  0
  9 27  2  0  0  0
 10 11  2  0  0  0
 10 15  1  0  0  0
 11 12  1  0  0  0
 11 97  1  0  0  0
 12 13  2  0  0  0
 12 98  1  0  0  0
 13 14  1  0  0  0
 13 31  1  0  0  0
 14 15  2  0  0  0
 14 99  1  0  0  0
 15100  1  0  0  0
 16 17  2  0  0  0
 16 21  1  0  0  0
 16 31  1  0  0  0
 17 18  1  0  0  0
 17101  1  0  0  0
 18 19  2  0  0  0
 18102  1  0  0  0
 19 20  1  0  0  0
 19 24  1  0  0  0
 20 21  2  0  0  0
 20103  1  0  0  0
 21 23  1  0  0  0
 22 28  1  0  0  0
 22 32  2  0  0  0
 26 27  1  0  0  0
 28104  1  0  0  0
 28105  1  0  0  0
 29106  1  0  0  0
 29107  1  0  0  0
 33 34  1  0  0  0
 33 66  1  0  0  0
 33 70  2  0  0  0
 34 36  1  0  0  0
 34 59  1  0  0  0
 34108  1  0  0  0
 35 44  2  0  0  0
 35 45  1  0  0  0
 35 68  1  0  0  0
 36 56  1  0  0  0
 36109  1  0  0  0
 37 39  1  0  0  0
 37 47  1  0  0  0
 37 66  1  0  0  0
 37110  1  0  0  0
 38 43  2  0  0  0
 38 46  1  0  0  0
 38 47  1  0  0  0
 39 64  1  0  0  0
 39 67  2  0  0  0
 40 52  1  0  0  0
 40 53  2  0  0  0
 40 58  1  0  0  0
 41111  1  0  0  0
 41112  1  0  0  0
 41113  1  0  0  0
 41 48  1  0  0  0
 42 43  1  0  0  0
 42 66  1  0  0  0
 42114  1  0  0  0
 42115  1  0  0  0
 43 44  1  0  0  0
 44116  1  0  0  0
 45 46  2  0  0  0
 45117  1  0  0  0
 46118  1  0  0  0
 47119  1  0  0  0
 47120  1  0  0  0
 48 56  1  0  0  0
 48 65  1  0  0  0
 48121  1  0  0  0
 49 50  1  0  0  0
 49 53  1  0  0  0
 49 64  1  0  0  0
 49122  1  0  0  0
 50 51  1  0  0  0
 50123  1  0  0  0
 50124  1  0  0  0
 51 52  1  0  0  0
 51125  1  0  0  0
 51126  1  0  0  0
 52127  1  0  0  0
 52128  1  0  0  0
 53 54  1  0  0  0
 54 55  2  0  0  0
 54129  1  0  0  0
 55 57  1  0  0  0
 55130  1  0  0  0
 56 69  2  0  0  0
 57 58  2  0  0  0
 57131  1  0  0  0
 58132  1  0  0  0
 59 60  1  0  0  0
 59 61  1  0  0  0
 59 62  1  0  0  0
 60133  1  0  0  0
 60134  1  0  0  0
 60135  1  0  0  0
 61136  1  0  0  0
 61137  1  0  0  0
 61138  1  0  0  0
 62139  1  0  0  0
 62140  1  0  0  0
 62141  1  0  0  0
 63 65  1  0  0  0
 63142  1  0  0  0
 63143  1  0  0  0
 63144  1  0  0  0
 64145  1  0  0  0
 65146  1  0  0  0
 68 82  1  0  0  0
 71 72  2  0  0  0
 71 74  1  0  0  0
 71147  1  0  0  0
 72 75  1  0  0  0
 72148  1  0  0  0
 73 74  2  0  0  0
 73 76  1  0  0  0
 73149  1  0  0  0
 74 78  1  0  0  0
 75 76  2  0  0  0
 75 84  1  0  0  0
 76 87  1  0  0  0
 77 81  1  0  0  0
 77 83  1  0  0  0
 77 86  2  0  0  0
 78 83  1  0  0  0
 78 85  2  0  0  0
 79 80  1  0  0  0
 79 81  1  0  0  0
 79150  1  0  0  0
 79151  1  0  0  0
 80 83  1  0  0  0
 80152  1  0  0  0
 80153  1  0  0  0
 81 82  1  0  0  0
 81154  1  0  0  0
 82155  1  0  0  0
 82156  1  0  0  0
 84157  1  0  0  0
 85158  1  0  0  0
 85159  1  0  0  0
M  CHG  1  85   1
M  ISO  4   1 100  68 101  82 101  84 100
M  END
> <chiral flag>
0

> <version>
0

> <s_m_source_file>
/data/baiqing/PycharmProjects/Reinvent-master-3.2/result/LINK_invent/BTK/process_docking_weight1_custom_product_contain_oxygen_bond_distance_aromatic_linkinvent_7_9_3/rearranged_h_0161.sdf

> <i_m_source_file_index>
28

> <r_mmod_Potential_Energy-OPLS-2005>
-252.65104675293

> <r_mmod_Stretch_Energy-OPLS-2005>
38.962329864502

> <r_mmod_Bend_Energy-OPLS-2005>
127.553192138672

> <r_mmod_Torsional_Energy-OPLS-2005>
277.9541015625

> <r_mmod_Improper_Torsional_Energy-OPLS-2005>
4.54280185699463

> <r_mmod_Van_der_Waal_Energy-OPLS-2005>
159.341995239258

> <r_mmod_Electrostatic_Energy-OPLS-2005>
-457.18408203125

> <r_mmod_Solvation_Energy-OPLS-2005>
-416.303649902344

> <b_mmod_Minimization_Converged-OPLS-2005>
0

> <r_mmod_RMS_Derivative-OPLS-2005>
0.234752148389816

$$$$
28
                    3D
 Structure written by MMmdl.
152160  0  0  1  0            999 V2000
  -30.6197  -14.6506   20.4989 C   0  0  0  0  0  0
  -30.4394  -12.3999   19.4571 C   0  0  0  0  0  0
  -29.5098  -12.5096   18.2275 C   0  0  0  0  0  0
  -28.0326  -12.3450   18.6379 C   0  0  0  0  0  0
  -27.6535  -13.2171   19.8640 C   0  0  2  0  0  0
  -28.6976  -13.0777   20.9953 C   0  0  0  0  0  0
  -25.2564  -13.8170   20.5690 C   0  0  0  0  0  0
  -24.1830  -13.0439   20.9197 C   0  0  0  0  0  0
  -24.6393  -11.6910   20.8737 C   0  0  0  0  0  0
  -23.9060  -10.4295   21.0403 C   0  0  0  0  0  0
  -24.3613   -9.4210   21.9179 C   0  0  0  0  0  0
  -23.6289   -8.2246   22.0750 C   0  0  0  0  0  0
  -22.4271   -8.0283   21.3543 C   0  0  0  0  0  0
  -21.9901   -9.0258   20.4647 C   0  0  0  0  0  0
  -22.7231  -10.2137   20.3055 C   0  0  0  0  0  0
  -21.6857   -6.0733   22.5276 C   0  0  0  0  0  0
  -21.4015   -6.5636   23.8209 C   0  0  0  0  0  0
  -21.3661   -5.6788   24.9171 C   0  0  0  0  0  0
  -21.6044   -4.3050   24.7225 C   0  0  0  0  0  0
  -21.8821   -3.8144   23.4344 C   0  0  0  0  0  0
  -21.9193   -4.6960   22.3399 C   0  0  0  0  0  0
  -22.7853  -13.5235   21.1855 C   0  0  0  0  0  0
  -22.1663   -4.2145   21.0978 F   0  0  0  0  0  0
  -21.5629   -3.4534   25.7737 F   0  0  0  0  0  0
  -30.0130  -13.4229   20.4335 N   0  0  0  0  0  0
  -26.2989  -12.9350   20.3317 N   0  0  0  0  0  0
  -25.9322  -11.6505   20.5752 N   0  0  0  0  0  0
  -22.0490  -12.8237   22.0413 N   0  0  0  0  0  0
  -25.4283  -15.1891   20.4106 N   0  0  0  0  0  0
  -31.7786  -14.8125   20.1078 O   0  0  0  0  0  0
  -21.6640   -6.8877   21.4239 O   0  0  0  0  0  0
  -22.3545  -14.5543   20.6700 O   0  0  0  0  0  0
  -24.6260  -31.8597   23.2028 C   0  0  0  0  0  0
  -25.9107  -32.4780   23.8360 C   0  0  1  0  0  0
  -27.2241  -27.3167   20.1216 C   0  0  0  0  0  0
  -25.5919  -33.8580   24.2285 N   0  0  0  0  0  0
  -23.4205  -30.4828   21.5454 C   0  0  2  0  0  0
  -24.8689  -28.9389   20.1119 C   0  0  0  0  0  0
  -22.7477  -29.4618   22.4939 C   0  0  0  0  0  0
  -18.0287  -28.1383   22.8484 C   0  0  0  0  0  0
  -24.1490  -36.7298   23.2640 C   0  0  0  0  0  0
  -25.9620  -30.7902   21.3752 C   0  0  0  0  0  0
  -26.0380  -29.4171   20.7183 C   0  0  0  0  0  0
  -27.2208  -28.6180   20.7130 C   0  0  0  0  0  0
  -26.0374  -26.8996   19.4782 C   0  0  0  0  0  0
  -24.8708  -27.6859   19.4817 C   0  0  0  0  0  0
  -23.6360  -29.8179   20.1610 C   0  0  0  0  0  0
  -25.4114  -36.3085   24.0329 C   0  0  1  0  0  0
  -20.5886  -28.3684   23.1285 C   0  0  2  0  0  0
  -20.6775  -26.9407   22.5411 C   0  0  0  0  0  0
  -19.5752  -26.6381   21.5211 C   0  0  0  0  0  0
  -18.1932  -26.7923   22.1624 C   0  0  0  0  0  0
  -19.1539  -28.8851   23.2879 C   0  0  0  0  0  0
  -18.9461  -30.1452   23.8896 C   0  0  0  0  0  0
  -17.6461  -30.6583   24.0561 C   0  0  0  0  0  0
  -25.9046  -34.9452   23.5108 C   0  0  0  0  0  0
  -16.5353  -29.9081   23.6326 C   0  0  0  0  0  0
  -16.7275  -28.6499   23.0348 C   0  0  0  0  0  0
  -26.4492  -31.6588   25.0727 C   0  0  0  0  0  0
  -25.3728  -31.3733   26.1458 C   0  0  0  0  0  0
  -27.0327  -30.3009   24.6181 C   0  0  0  0  0  0
  -27.6060  -32.4316   25.7489 C   0  0  0  0  0  0
  -27.5575  -37.1810   24.8468 C   0  0  0  0  0  0
  -21.4189  -29.3038   22.3680 N   0  0  0  0  0  0
  -26.4299  -37.3772   23.9395 N   0  0  0  0  0  0
  -24.6883  -31.0605   22.0980 N   0  0  0  0  0  0
  -23.4200  -28.8154   23.3017 O   0  0  0  0  0  0
  -28.3267  -26.4493   20.1565 O   0  0  0  0  0  0
  -26.5614  -34.8916   22.4674 O   0  0  0  0  0  0
  -23.5422  -32.1397   23.7352 O   0  0  0  0  0  0
  -31.0012  -17.8266   20.0274 C   0  0  0  0  0  0
  -28.8763  -18.0162   21.0963 C   0  0  0  0  0  0
  -29.9266  -17.1568   20.6663 C   0  0  0  0  0  0
  -30.9670  -19.2453   19.8490 C   0  0  0  0  0  0
  -29.8629  -20.0049   20.3274 C   0  0  0  0  0  0
  -29.1057  -23.9373   20.1974 C   0  0  0  0  0  0
  -28.8229  -22.4198   20.5616 C   0  0  0  0  0  0
  -28.0342  -25.0439   20.5517 C   0  0  0  0  0  0
  -28.8347  -19.3784   20.9402 N   0  0  0  0  0  0
  -32.0114  -19.8913   19.1759 N   0  0  0  0  0  0
  -29.8199  -15.7020   20.8693 N   0  0  0  0  0  0
  -29.8612  -21.4246   20.1506 N   0  0  0  0  0  0
  -30.1667  -24.2418   19.6396 O   0  0  0  0  0  0
  -31.4806  -12.5261   19.1553 H   0  0  0  0  0  0
  -30.3763  -11.4053   19.9010 H   0  0  0  0  0  0
  -29.7765  -11.7570   17.4841 H   0  0  0  0  0  0
  -29.6510  -13.4785   17.7459 H   0  0  0  0  0  0
  -27.8709  -11.2919   18.8707 H   0  0  0  0  0  0
  -27.3789  -12.5731   17.7951 H   0  0  0  0  0  0
  -27.6703  -14.2516   19.5209 H   0  0  0  0  0  0
  -28.7110  -12.0568   21.3799 H   0  0  0  0  0  0
  -28.4400  -13.7106   21.8459 H   0  0  0  0  0  0
  -25.2759   -9.5686   22.4753 H   0  0  0  0  0  0
  -23.9999   -7.4635   22.7466 H   0  0  0  0  0  0
  -21.0831   -8.8780   19.8955 H   0  0  0  0  0  0
  -22.3686  -10.9677   19.6169 H   0  0  0  0  0  0
  -21.2009   -7.6145   23.9712 H   0  0  0  0  0  0
  -21.1479   -6.0517   25.9073 H   0  0  0  0  0  0
  -22.0598   -2.7605   23.2848 H   0  0  0  0  0  0
  -22.4100  -11.9906   22.4819 H   0  0  0  0  0  0
  -21.1109  -13.1273   22.2610 H   0  0  0  0  0  0
  -24.6580  -15.8410   20.5116 H   0  0  0  0  0  0
  -26.2661  -15.6217   20.0433 H   0  0  0  0  0  0
  -26.7176  -32.5454   23.1110 H   0  0  0  0  0  0
  -25.0062  -33.9726   25.0427 H   0  0  0  0  0  0
  -22.7140  -31.3028   21.4021 H   0  0  0  0  0  0
  -23.3736  -35.9651   23.3337 H   0  0  0  0  0  0
  -24.3576  -36.8881   22.2048 H   0  0  0  0  0  0
  -23.7270  -37.6523   23.6639 H   0  0  0  0  0  0
  -26.0930  -31.5539   20.6073 H   0  0  0  0  0  0
  -26.8424  -30.8402   22.0043 H   0  0  0  0  0  0
  -28.1175  -28.9787   21.1973 H   0  0  0  0  0  0
  -25.9925  -25.9524   18.9614 H   0  0  0  0  0  0
  -23.9785  -27.3192   18.9932 H   0  0  0  0  0  0
  -23.7536  -30.5943   19.4040 H   0  0  0  0  0  0
  -22.7568  -29.2454   19.8591 H   0  0  0  0  0  0
  -25.1300  -36.1945   25.0824 H   0  0  0  0  0  0
  -20.9977  -28.3260   24.1405 H   0  0  0  0  0  0
  -20.5674  -26.2292   23.3610 H   0  0  0  0  0  0
  -21.6646  -26.7435   22.1207 H   0  0  0  0  0  0
  -19.6914  -25.6291   21.1241 H   0  0  0  0  0  0
  -19.6689  -27.3189   20.6740 H   0  0  0  0  0  0
  -17.4199  -26.6664   21.4030 H   0  0  0  0  0  0
  -18.0340  -26.0068   22.9025 H   0  0  0  0  0  0
  -19.7937  -30.7268   24.2270 H   0  0  0  0  0  0
  -17.5014  -31.6265   24.5160 H   0  0  0  0  0  0
  -15.5352  -30.2982   23.7649 H   0  0  0  0  0  0
  -15.8674  -28.0814   22.7064 H   0  0  0  0  0  0
  -24.5893  -30.7090   25.7792 H   0  0  0  0  0  0
  -24.8929  -32.2901   26.4890 H   0  0  0  0  0  0
  -25.8053  -30.8904   27.0230 H   0  0  0  0  0  0
  -26.2896  -29.6763   24.1208 H   0  0  0  0  0  0
  -27.4024  -29.7263   25.4685 H   0  0  0  0  0  0
  -27.8770  -30.4290   23.9404 H   0  0  0  0  0  0
  -27.2683  -33.3620   26.2068 H   0  0  0  0  0  0
  -28.3866  -32.6869   25.0308 H   0  0  0  0  0  0
  -28.0733  -31.8437   26.5400 H   0  0  0  0  0  0
  -28.2625  -38.0074   24.7466 H   0  0  0  0  0  0
  -28.1038  -36.2604   24.6359 H   0  0  0  0  0  0
  -27.2287  -37.1541   25.8872 H   0  0  0  0  0  0
  -20.9366  -29.8765   21.6894 H   0  0  0  0  0  0
  -26.0185  -38.2857   24.1361 H   0  0  0  0  0  0
  -31.8455  -17.2695   19.6513 H   0  0  0  0  0  0
  -28.0134  -17.5904   21.5875 H   0  0  0  0  0  0
  -27.8715  -22.1361   20.1114 H   0  0  0  0  0  0
  -28.6853  -22.3522   21.6408 H   0  0  0  0  0  0
  -27.8980  -25.0289   21.6331 H   0  0  0  0  0  0
  -27.0945  -24.6925   20.1328 H   0  0  0  0  0  0
  -32.6546  -19.3019   18.6544 H   0  0  0  0  0  0
  -31.7610  -20.7154   18.6383 H   0  0  0  0  0  0
  -28.9322  -15.3955   21.2407 H   0  0  0  0  0  0
  -30.7330  -21.8208   19.8175 H   0  0  0  0  0  0
  1 25  1  0  0  0
  1 30  2  0  0  0
  1 81  1  0  0  0
  2  3  1  0  0  0
  2 25  1  0  0  0
  2 84  1  0  0  0
  2 85  1  0  0  0
  3  4  1  0  0  0
  3 86  1  0  0  0
  3 87  1  0  0  0
  4  5  1  0  0  0
  4 88  1  0  0  0
  4 89  1  0  0  0
  5  6  1  0  0  0
  5 26  1  0  0  0
  5 90  1  0  0  0
  6 25  1  0  0  0
  6 91  1  0  0  0
  6 92  1  0  0  0
  7  8  2  0  0  0
  7 26  1  0  0  0
  7 29  1  0  0  0
  8  9  1  0  0  0
  8 22  1  0  0  0
  9 10  1  0  0  0
  9 27  2  0  0  0
 10 11  2  0  0  0
 10 15  1  0  0  0
 11 12  1  0  0  0
 11 93  1  0  0  0
 12 13  2  0  0  0
 12 94  1  0  0  0
 13 14  1  0  0  0
 13 31  1  0  0  0
 14 15  2  0  0  0
 14 95  1  0  0  0
 15 96  1  0  0  0
 16 17  2  0  0  0
 16 21  1  0  0  0
 16 31  1  0  0  0
 17 18  1  0  0  0
 17 97  1  0  0  0
 18 19  2  0  0  0
 18 98  1  0  0  0
 19 20  1  0  0  0
 19 24  1  0  0  0
 20 21  2  0  0  0
 20 99  1  0  0  0
 21 23  1  0  0  0
 22 28  1  0  0  0
 22 32  2  0  0  0
 26 27  1  0  0  0
 28100  1  0  0  0
 28101  1  0  0  0
 29102  1  0  0  0
 29103  1  0  0  0
 33 34  1  0  0  0
 33 66  1  0  0  0
 33 70  2  0  0  0
 34 36  1  0  0  0
 34 59  1  0  0  0
 34104  1  0  0  0
 35 44  2  0  0  0
 35 45  1  0  0  0
 35 68  1  0  0  0
 36 56  1  0  0  0
 36105  1  0  0  0
 37 39  1  0  0  0
 37 47  1  0  0  0
 37 66  1  0  0  0
 37106  1  0  0  0
 38 43  2  0  0  0
 38 46  1  0  0  0
 38 47  1  0  0  0
 39 64  1  0  0  0
 39 67  2  0  0  0
 40 52  1  0  0  0
 40 53  2  0  0  0
 40 58  1  0  0  0
 41107  1  0  0  0
 41108  1  0  0  0
 41109  1  0  0  0
 41 48  1  0  0  0
 42 43  1  0  0  0
 42 66  1  0  0  0
 42110  1  0  0  0
 42111  1  0  0  0
 43 44  1  0  0  0
 44112  1  0  0  0
 45 46  2  0  0  0
 45113  1  0  0  0
 46114  1  0  0  0
 47115  1  0  0  0
 47116  1  0  0  0
 48 56  1  0  0  0
 48 65  1  0  0  0
 48117  1  0  0  0
 49 50  1  0  0  0
 49 53  1  0  0  0
 49 64  1  0  0  0
 49118  1  0  0  0
 50 51  1  0  0  0
 50119  1  0  0  0
 50120  1  0  0  0
 51 52  1  0  0  0
 51121  1  0  0  0
 51122  1  0  0  0
 52123  1  0  0  0
 52124  1  0  0  0
 53 54  1  0  0  0
 54 55  2  0  0  0
 54125  1  0  0  0
 55 57  1  0  0  0
 55126  1  0  0  0
 56 69  2  0  0  0
 57 58  2  0  0  0
 57127  1  0  0  0
 58128  1  0  0  0
 59 60  1  0  0  0
 59 61  1  0  0  0
 59 62  1  0  0  0
 60129  1  0  0  0
 60130  1  0  0  0
 60131  1  0  0  0
 61132  1  0  0  0
 61133  1  0  0  0
 61134  1  0  0  0
 62135  1  0  0  0
 62136  1  0  0  0
 62137  1  0  0  0
 63 65  1  0  0  0
 63138  1  0  0  0
 63139  1  0  0  0
 63140  1  0  0  0
 64141  1  0  0  0
 65142  1  0  0  0
 68 78  1  0  0  0
 71 73  2  0  0  0
 71 74  1  0  0  0
 71143  1  0  0  0
 72 73  1  0  0  0
 72 79  2  0  0  0
 72144  1  0  0  0
 73 81  1  0  0  0
 74 75  2  0  0  0
 74 80  1  0  0  0
 75 79  1  0  0  0
 75 82  1  0  0  0
 76 77  1  0  0  0
 76 78  1  0  0  0
 76 83  2  0  0  0
 77 82  1  0  0  0
 77145  1  0  0  0
 77146  1  0  0  0
 78147  1  0  0  0
 78148  1  0  0  0
 80149  1  0  0  0
 80150  1  0  0  0
 81151  1  0  0  0
 82152  1  0  0  0
M  ISO  4   1 100  68 101  78 101  81 100
M  END
> <chiral flag>
0

> <version>
0

> <s_m_source_file>
/data/baiqing/PycharmProjects/Reinvent-master-3.2/result/LINK_invent/BTK/process_docking_weight1_custom_product_contain_oxygen_bond_distance_aromatic_linkinvent_7_9_3/rearranged_h_0161.sdf

> <i_m_source_file_index>
29

> <r_mmod_Potential_Energy-OPLS-2005>
-214.126419067383

> <r_mmod_Stretch_Energy-OPLS-2005>
79.5340042114258

> <r_mmod_Bend_Energy-OPLS-2005>
145.336547851562

> <r_mmod_Torsional_Energy-OPLS-2005>
217.350509643555

> <r_mmod_Improper_Torsional_Energy-OPLS-2005>
8.49639415740967

> <r_mmod_Van_der_Waal_Energy-OPLS-2005>
149.409606933594

> <r_mmod_Electrostatic_Energy-OPLS-2005>
-606.211242675781

> <r_mmod_Solvation_Energy-OPLS-2005>
-259.628448486328

> <b_mmod_Minimization_Converged-OPLS-2005>
0

> <r_mmod_RMS_Derivative-OPLS-2005>
0.602801620960236

$$$$
29
                    3D
 Structure written by MMmdl.
148156  0  0  1  0            999 V2000
  -30.5867  -14.7222   20.4704 C   0  0  0  0  0  0
  -30.4448  -12.4396   19.4606 C   0  0  0  0  0  0
  -29.5119  -12.5033   18.2297 C   0  0  0  0  0  0
  -28.0375  -12.3265   18.6458 C   0  0  0  0  0  0
  -27.6471  -13.2183   19.8534 C   0  0  2  0  0  0
  -28.6938  -13.1197   20.9859 C   0  0  0  0  0  0
  -25.2546  -13.8167   20.5684 C   0  0  0  0  0  0
  -24.1823  -13.0431   20.9208 C   0  0  0  0  0  0
  -24.6394  -11.6903   20.8748 C   0  0  0  0  0  0
  -23.9066  -10.4288   21.0411 C   0  0  0  0  0  0
  -24.3617   -9.4202   21.9187 C   0  0  0  0  0  0
  -23.6293   -8.2238   22.0754 C   0  0  0  0  0  0
  -22.4275   -8.0278   21.3544 C   0  0  0  0  0  0
  -21.9911   -9.0251   20.4647 C   0  0  0  0  0  0
  -22.7240  -10.2133   20.3058 C   0  0  0  0  0  0
  -21.6853   -6.0734   22.5278 C   0  0  0  0  0  0
  -21.4013   -6.5637   23.8211 C   0  0  0  0  0  0
  -21.3658   -5.6791   24.9175 C   0  0  0  0  0  0
  -21.6043   -4.3055   24.7227 C   0  0  0  0  0  0
  -21.8820   -3.8146   23.4347 C   0  0  0  0  0  0
  -21.9193   -4.6961   22.3403 C   0  0  0  0  0  0
  -22.7845  -13.5225   21.1868 C   0  0  0  0  0  0
  -22.1662   -4.2145   21.0981 F   0  0  0  0  0  0
  -21.5629   -3.4538   25.7739 F   0  0  0  0  0  0
  -29.9983  -13.4805   20.4113 N   0  0  0  0  0  0
  -26.2964  -12.9347   20.3283 N   0  0  0  0  0  0
  -25.9320  -11.6505   20.5751 N   0  0  0  0  0  0
  -22.0488  -12.8214   22.0422 N   0  0  0  0  0  0
  -25.4240  -15.1890   20.4081 N   0  0  0  0  0  0
  -31.7707  -14.8695   20.1528 O   0  0  0  0  0  0
  -21.6638   -6.8876   21.4240 O   0  0  0  0  0  0
  -22.3534  -14.5534   20.6717 O   0  0  0  0  0  0
  -24.6286  -31.8564   23.1985 C   0  0  0  0  0  0
  -25.9115  -32.4765   23.8331 C   0  0  1  0  0  0
  -27.2295  -27.2881   20.1358 C   0  0  0  0  0  0
  -25.5921  -33.8565   24.2261 N   0  0  0  0  0  0
  -23.4258  -30.4765   21.5409 C   0  0  2  0  0  0
  -24.8753  -28.9189   20.1171 C   0  0  0  0  0  0
  -22.7490  -29.4607   22.4926 C   0  0  0  0  0  0
  -18.0292  -28.1390   22.8493 C   0  0  0  0  0  0
  -24.1488  -36.7283   23.2640 C   0  0  0  0  0  0
  -25.9680  -30.7785   21.3725 C   0  0  0  0  0  0
  -26.0450  -29.4004   20.7199 C   0  0  0  0  0  0
  -27.2288  -28.5992   20.7127 C   0  0  0  0  0  0
  -26.0391  -26.8586   19.5153 C   0  0  0  0  0  0
  -24.8752  -27.6548   19.5035 C   0  0  0  0  0  0
  -23.6444  -29.8039   20.1592 C   0  0  0  0  0  0
  -25.4116  -36.3077   24.0331 C   0  0  1  0  0  0
  -20.5895  -28.3695   23.1279 C   0  0  2  0  0  0
  -20.6780  -26.9414   22.5411 C   0  0  0  0  0  0
  -19.5751  -26.6387   21.5216 C   0  0  0  0  0  0
  -18.1934  -26.7934   22.1631 C   0  0  0  0  0  0
  -19.1545  -28.8860   23.2884 C   0  0  0  0  0  0
  -18.9467  -30.1464   23.8897 C   0  0  0  0  0  0
  -17.6465  -30.6592   24.0568 C   0  0  0  0  0  0
  -25.9053  -34.9446   23.5101 C   0  0  0  0  0  0
  -16.5357  -29.9090   23.6340 C   0  0  0  0  0  0
  -16.7279  -28.6510   23.0357 C   0  0  0  0  0  0
  -26.4491  -31.6583   25.0709 C   0  0  0  0  0  0
  -25.3715  -31.3744   26.1434 C   0  0  0  0  0  0
  -27.0325  -30.3002   24.6173 C   0  0  0  0  0  0
  -27.6052  -32.4311   25.7477 C   0  0  0  0  0  0
  -27.5582  -37.1797   24.8468 C   0  0  0  0  0  0
  -21.4200  -29.3042   22.3666 N   0  0  0  0  0  0
  -26.4293  -37.3774   23.9411 N   0  0  0  0  0  0
  -24.6930  -31.0550   22.0943 N   0  0  0  0  0  0
  -23.4195  -28.8159   23.3029 O   0  0  0  0  0  0
  -28.3381  -26.4222   20.1298 O   0  0  0  0  0  0
  -26.5624  -34.8918   22.4668 O   0  0  0  0  0  0
  -23.5439  -32.1372   23.7291 O   0  0  0  0  0  0
  -30.6360  -19.4563   20.9019 C   0  0  0  0  0  0
  -30.8722  -18.0253   21.0212 C   0  0  0  0  0  0
  -29.4174  -19.8034   20.3526 C   0  0  0  0  0  0
  -29.8645  -17.1803   20.5966 C   0  0  0  0  0  0
  -28.6469  -23.7779   19.9531 C   0  0  0  0  0  0
  -29.0644  -22.4195   20.7008 C   0  0  0  0  0  0
  -28.1833  -25.0744   20.7640 C   0  0  0  0  0  0
  -29.7239  -15.7858   20.6559 N   0  0  0  0  0  0
  -28.8360  -21.0900   20.0082 N   0  0  0  0  0  0
  -28.6632  -23.8053   18.7177 O   0  0  0  0  0  0
  -31.9861  -17.5763   21.5535 F   0  0  0  0  0  0
  -28.5680  -18.2663   20.0130 S   0  0  0  0  0  0
  -31.4827  -12.5835   19.1545 H   0  0  0  0  0  0
  -30.4029  -11.4547   19.9285 H   0  0  0  0  0  0
  -29.7899  -11.7356   17.5062 H   0  0  0  0  0  0
  -29.6372  -13.4607   17.7218 H   0  0  0  0  0  0
  -27.8947  -11.2769   18.9052 H   0  0  0  0  0  0
  -27.3780  -12.5222   17.7998 H   0  0  0  0  0  0
  -27.6483  -14.2428   19.4819 H   0  0  0  0  0  0
  -28.7262  -12.1097   21.3973 H   0  0  0  0  0  0
  -28.4314  -13.7753   21.8182 H   0  0  0  0  0  0
  -25.2760   -9.5676   22.4761 H   0  0  0  0  0  0
  -23.9999   -7.4628   22.7469 H   0  0  0  0  0  0
  -21.0841   -8.8770   19.8952 H   0  0  0  0  0  0
  -22.3696  -10.9671   19.6164 H   0  0  0  0  0  0
  -21.2005   -7.6144   23.9711 H   0  0  0  0  0  0
  -21.1480   -6.0523   25.9075 H   0  0  0  0  0  0
  -22.0601   -2.7607   23.2848 H   0  0  0  0  0  0
  -22.4102  -11.9868   22.4800 H   0  0  0  0  0  0
  -21.1108  -13.1237   22.2634 H   0  0  0  0  0  0
  -24.6507  -15.8371   20.5132 H   0  0  0  0  0  0
  -26.2567  -15.6288   20.0394 H   0  0  0  0  0  0
  -26.7183  -32.5427   23.1077 H   0  0  0  0  0  0
  -25.0073  -33.9707   25.0410 H   0  0  0  0  0  0
  -22.7224  -31.2981   21.3922 H   0  0  0  0  0  0
  -23.3756  -35.9607   23.3300 H   0  0  0  0  0  0
  -24.3585  -36.8904   22.2054 H   0  0  0  0  0  0
  -23.7225  -37.6480   23.6659 H   0  0  0  0  0  0
  -26.1008  -31.5382   20.6010 H   0  0  0  0  0  0
  -26.8482  -30.8319   22.0020 H   0  0  0  0  0  0
  -28.1300  -28.9681   21.1828 H   0  0  0  0  0  0
  -26.0066  -25.8875   19.0410 H   0  0  0  0  0  0
  -23.9793  -27.2820   19.0261 H   0  0  0  0  0  0
  -23.7693  -30.5771   19.3999 H   0  0  0  0  0  0
  -22.7640  -29.2345   19.8564 H   0  0  0  0  0  0
  -25.1295  -36.1930   25.0823 H   0  0  0  0  0  0
  -20.9997  -28.3268   24.1396 H   0  0  0  0  0  0
  -20.5686  -26.2302   23.3612 H   0  0  0  0  0  0
  -21.6648  -26.7442   22.1203 H   0  0  0  0  0  0
  -19.6911  -25.6298   21.1246 H   0  0  0  0  0  0
  -19.6690  -27.3202   20.6748 H   0  0  0  0  0  0
  -17.4206  -26.6690   21.4028 H   0  0  0  0  0  0
  -18.0334  -26.0074   22.9027 H   0  0  0  0  0  0
  -19.7939  -30.7288   24.2258 H   0  0  0  0  0  0
  -17.5019  -31.6272   24.5169 H   0  0  0  0  0  0
  -15.5360  -30.2993   23.7654 H   0  0  0  0  0  0
  -15.8683  -28.0829   22.7063 H   0  0  0  0  0  0
  -24.5882  -30.7099   25.7771 H   0  0  0  0  0  0
  -24.8916  -32.2919   26.4844 H   0  0  0  0  0  0
  -25.8031  -30.8931   27.0217 H   0  0  0  0  0  0
  -26.2900  -29.6755   24.1193 H   0  0  0  0  0  0
  -27.4017  -29.7256   25.4679 H   0  0  0  0  0  0
  -27.8774  -30.4289   23.9400 H   0  0  0  0  0  0
  -27.2681  -33.3627   26.2030 H   0  0  0  0  0  0
  -28.3874  -32.6839   25.0307 H   0  0  0  0  0  0
  -28.0699  -31.8439   26.5408 H   0  0  0  0  0  0
  -28.2603  -38.0094   24.7524 H   0  0  0  0  0  0
  -28.1076  -36.2628   24.6285 H   0  0  0  0  0  0
  -27.2306  -37.1437   25.8873 H   0  0  0  0  0  0
  -20.9381  -29.8761   21.6870 H   0  0  0  0  0  0
  -26.0175  -38.2847   24.1416 H   0  0  0  0  0  0
  -31.3858  -20.1669   21.2150 H   0  0  0  0  0  0
  -28.5370  -22.4009   21.6555 H   0  0  0  0  0  0
  -30.1233  -22.5028   20.9474 H   0  0  0  0  0  0
  -28.7415  -25.0887   21.6998 H   0  0  0  0  0  0
  -27.1418  -24.9232   21.0481 H   0  0  0  0  0  0
  -28.7707  -15.4784   20.7613 H   0  0  0  0  0  0
  -27.9693  -21.0702   19.4733 H   0  0  0  0  0  0
  1 25  1  0  0  0
  1 30  2  0  0  0
  1 78  1  0  0  0
  2  3  1  0  0  0
  2 25  1  0  0  0
  2 83  1  0  0  0
  2 84  1  0  0  0
  3  4  1  0  0  0
  3 85  1  0  0  0
  3 86  1  0  0  0
  4  5  1  0  0  0
  4 87  1  0  0  0
  4 88  1  0  0  0
  5  6  1  0  0  0
  5 26  1  0  0  0
  5 89  1  0  0  0
  6 25  1  0  0  0
  6 90  1  0  0  0
  6 91  1  0  0  0
  7  8  2  0  0  0
  7 26  1  0  0  0
  7 29  1  0  0  0
  8  9  1  0  0  0
  8 22  1  0  0  0
  9 10  1  0  0  0
  9 27  2  0  0  0
 10 11  2  0  0  0
 10 15  1  0  0  0
 11 12  1  0  0  0
 11 92  1  0  0  0
 12 13  2  0  0  0
 12 93  1  0  0  0
 13 14  1  0  0  0
 13 31  1  0  0  0
 14 15  2  0  0  0
 14 94  1  0  0  0
 15 95  1  0  0  0
 16 17  2  0  0  0
 16 21  1  0  0  0
 16 31  1  0  0  0
 17 18  1  0  0  0
 17 96  1  0  0  0
 18 19  2  0  0  0
 18 97  1  0  0  0
 19 20  1  0  0  0
 19 24  1  0  0  0
 20 21  2  0  0  0
 20 98  1  0  0  0
 21 23  1  0  0  0
 22 28  1  0  0  0
 22 32  2  0  0  0
 26 27  1  0  0  0
 28 99  1  0  0  0
 28100  1  0  0  0
 29101  1  0  0  0
 29102  1  0  0  0
 33 34  1  0  0  0
 33 66  1  0  0  0
 33 70  2  0  0  0
 34 36  1  0  0  0
 34 59  1  0  0  0
 34103  1  0  0  0
 35 44  2  0  0  0
 35 45  1  0  0  0
 35 68  1  0  0  0
 36 56  1  0  0  0
 36104  1  0  0  0
 37 39  1  0  0  0
 37 47  1  0  0  0
 37 66  1  0  0  0
 37105  1  0  0  0
 38 43  2  0  0  0
 38 46  1  0  0  0
 38 47  1  0  0  0
 39 64  1  0  0  0
 39 67  2  0  0  0
 40 52  1  0  0  0
 40 53  2  0  0  0
 40 58  1  0  0  0
 41106  1  0  0  0
 41107  1  0  0  0
 41108  1  0  0  0
 41 48  1  0  0  0
 42 43  1  0  0  0
 42 66  1  0  0  0
 42109  1  0  0  0
 42110  1  0  0  0
 43 44  1  0  0  0
 44111  1  0  0  0
 45 46  2  0  0  0
 45112  1  0  0  0
 46113  1  0  0  0
 47114  1  0  0  0
 47115  1  0  0  0
 48 56  1  0  0  0
 48 65  1  0  0  0
 48116  1  0  0  0
 49 50  1  0  0  0
 49 53  1  0  0  0
 49 64  1  0  0  0
 49117  1  0  0  0
 50 51  1  0  0  0
 50118  1  0  0  0
 50119  1  0  0  0
 51 52  1  0  0  0
 51120  1  0  0  0
 51121  1  0  0  0
 52122  1  0  0  0
 52123  1  0  0  0
 53 54  1  0  0  0
 54 55  2  0  0  0
 54124  1  0  0  0
 55 57  1  0  0  0
 55125  1  0  0  0
 56 69  2  0  0  0
 57 58  2  0  0  0
 57126  1  0  0  0
 58127  1  0  0  0
 59 60  1  0  0  0
 59 61  1  0  0  0
 59 62  1  0  0  0
 60128  1  0  0  0
 60129  1  0  0  0
 60130  1  0  0  0
 61131  1  0  0  0
 61132  1  0  0  0
 61133  1  0  0  0
 62134  1  0  0  0
 62135  1  0  0  0
 62136  1  0  0  0
 63 65  1  0  0  0
 63137  1  0  0  0
 63138  1  0  0  0
 63139  1  0  0  0
 64140  1  0  0  0
 65141  1  0  0  0
 68 77  1  0  0  0
 71 72  1  0  0  0
 71 73  2  0  0  0
 71142  1  0  0  0
 72 74  2  0  0  0
 72 81  1  0  0  0
 73 79  1  0  0  0
 73 82  1  0  0  0
 74 78  1  0  0  0
 74 82  1  0  0  0
 75 76  1  0  0  0
 75 77  1  0  0  0
 75 80  2  0  0  0
 76 79  1  0  0  0
 76143  1  0  0  0
 76144  1  0  0  0
 77145  1  0  0  0
 77146  1  0  0  0
 78147  1  0  0  0
 79148  1  0  0  0
M  ISO  4   1 100  68 101  77 101  78 100
M  END
> <chiral flag>
0

> <version>
0

> <s_m_source_file>
/data/baiqing/PycharmProjects/Reinvent-master-3.2/result/LINK_invent/BTK/process_docking_weight1_custom_product_contain_oxygen_bond_distance_aromatic_linkinvent_7_9_3/rearranged_h_0161.sdf

> <i_m_source_file_index>
30

> <r_mmod_Potential_Energy-OPLS-2005>
146.426605224609

> <r_mmod_Stretch_Energy-OPLS-2005>
100.108245849609

> <r_mmod_Bend_Energy-OPLS-2005>
156.906280517578

> <r_mmod_Torsional_Energy-OPLS-2005>
243.409896850586

> <r_mmod_Improper_Torsional_Energy-OPLS-2005>
7.44107913970947

> <r_mmod_Van_der_Waal_Energy-OPLS-2005>
110.333915710449

> <r_mmod_Electrostatic_Energy-OPLS-2005>
-292.512420654297

> <r_mmod_Solvation_Energy-OPLS-2005>
-250.831069946289

> <b_mmod_Minimization_Converged-OPLS-2005>
0

> <r_mmod_RMS_Derivative-OPLS-2005>
0.927553236484528

$$$$
30
                    3D
 Structure written by MMmdl.
155163  0  0  1  0            999 V2000
  -30.7108  -14.4266   20.6042 C   0  0  0  0  0  0
  -30.4239  -12.2893   19.4133 C   0  0  0  0  0  0
  -29.4928  -12.5103   18.2031 C   0  0  0  0  0  0
  -28.0125  -12.3795   18.6144 C   0  0  0  0  0  0
  -27.6657  -13.2037   19.8834 C   0  0  2  0  0  0
  -28.7052  -12.9482   20.9982 C   0  0  0  0  0  0
  -25.2592  -13.8153   20.5695 C   0  0  0  0  0  0
  -24.1837  -13.0439   20.9171 C   0  0  0  0  0  0
  -24.6389  -11.6908   20.8737 C   0  0  0  0  0  0
  -23.9057  -10.4296   21.0413 C   0  0  0  0  0  0
  -24.3609   -9.4208   21.9190 C   0  0  0  0  0  0
  -23.6289   -8.2241   22.0752 C   0  0  0  0  0  0
  -22.4271   -8.0283   21.3545 C   0  0  0  0  0  0
  -21.9912   -9.0253   20.4642 C   0  0  0  0  0  0
  -22.7236  -10.2134   20.3052 C   0  0  0  0  0  0
  -21.6848   -6.0738   22.5282 C   0  0  0  0  0  0
  -21.4010   -6.5640   23.8218 C   0  0  0  0  0  0
  -21.3660   -5.6790   24.9179 C   0  0  0  0  0  0
  -21.6046   -4.3054   24.7224 C   0  0  0  0  0  0
  -21.8820   -3.8149   23.4345 C   0  0  0  0  0  0
  -21.9192   -4.6967   22.3403 C   0  0  0  0  0  0
  -22.7858  -13.5237   21.1848 C   0  0  0  0  0  0
  -22.1662   -4.2153   21.0978 F   0  0  0  0  0  0
  -21.5632   -3.4535   25.7733 F   0  0  0  0  0  0
  -30.0440  -13.2516   20.4577 N   0  0  0  0  0  0
  -26.3040  -12.9322   20.3407 N   0  0  0  0  0  0
  -25.9316  -11.6482   20.5779 N   0  0  0  0  0  0
  -22.0489  -12.8233   22.0398 N   0  0  0  0  0  0
  -25.4316  -15.1871   20.4140 N   0  0  0  0  0  0
  -31.8009  -14.6526   20.0743 O   0  0  0  0  0  0
  -21.6636   -6.8880   21.4243 O   0  0  0  0  0  0
  -22.3554  -14.5555   20.6714 O   0  0  0  0  0  0
  -24.6109  -31.8714   23.2141 C   0  0  0  0  0  0
  -25.9034  -32.4835   23.8415 C   0  0  1  0  0  0
  -27.2392  -27.4671   20.1023 C   0  0  0  0  0  0
  -25.5915  -33.8631   24.2358 N   0  0  0  0  0  0
  -23.3976  -30.4945   21.5530 C   0  0  2  0  0  0
  -24.8466  -28.9605   20.1206 C   0  0  0  0  0  0
  -22.7383  -29.4679   22.5011 C   0  0  0  0  0  0
  -18.0276  -28.1374   22.8511 C   0  0  0  0  0  0
  -24.1482  -36.7306   23.2633 C   0  0  0  0  0  0
  -25.9208  -30.8455   21.3630 C   0  0  0  0  0  0
  -26.0007  -29.4777   20.7225 C   0  0  0  0  0  0
  -27.2003  -28.7361   20.7218 C   0  0  0  0  0  0
  -26.0759  -26.9622   19.4875 C   0  0  0  0  0  0
  -24.8753  -27.6976   19.5037 C   0  0  0  0  0  0
  -23.6060  -29.8233   20.1687 C   0  0  0  0  0  0
  -25.4105  -36.3113   24.0337 C   0  0  1  0  0  0
  -20.5859  -28.3663   23.1322 C   0  0  2  0  0  0
  -20.6765  -26.9402   22.5413 C   0  0  0  0  0  0
  -19.5734  -26.6393   21.5217 C   0  0  0  0  0  0
  -18.1919  -26.7930   22.1629 C   0  0  0  0  0  0
  -19.1521  -28.8832   23.2928 C   0  0  0  0  0  0
  -18.9449  -30.1447   23.8929 C   0  0  0  0  0  0
  -17.6444  -30.6587   24.0566 C   0  0  0  0  0  0
  -25.9031  -34.9476   23.5135 C   0  0  0  0  0  0
  -16.5338  -29.9084   23.6323 C   0  0  0  0  0  0
  -16.7264  -28.6497   23.0354 C   0  0  0  0  0  0
  -26.4493  -31.6589   25.0715 C   0  0  0  0  0  0
  -25.3779  -31.3673   26.1471 C   0  0  0  0  0  0
  -27.0314  -30.3035   24.6046 C   0  0  0  0  0  0
  -27.6078  -32.4296   25.7477 C   0  0  0  0  0  0
  -27.5583  -37.1803   24.8467 C   0  0  0  0  0  0
  -21.4114  -29.3039   22.3735 N   0  0  0  0  0  0
  -26.4287  -37.3796   23.9419 N   0  0  0  0  0  0
  -24.6611  -31.0842   22.1028 N   0  0  0  0  0  0
  -23.4163  -28.8232   23.3059 O   0  0  0  0  0  0
  -28.3828  -26.7098   20.0350 O   0  0  0  0  0  0
  -26.5576  -34.8917   22.4683 O   0  0  0  0  0  0
  -23.5312  -32.1466   23.7553 O   0  0  0  0  0  0
  -29.0378  -18.9095   21.5915 C   0  0  0  0  0  0
  -31.1821  -17.4937   20.6103 C   0  0  0  0  0  0
  -30.1241  -16.7697   21.2062 C   0  0  0  0  0  0
  -29.0404  -17.5098   21.7077 C   0  0  0  0  0  0
  -30.1340  -19.5338   20.9725 C   0  0  0  0  0  0
  -30.0614  -23.2298   21.6583 C   0  0  0  0  0  0
  -28.4937  -25.1549   21.9123 C   0  0  0  0  0  0
  -29.4820  -24.2465   22.6400 C   0  0  0  0  0  0
  -29.4684  -21.8158   21.6645 C   0  0  0  0  0  0
  -29.0495  -26.4373   21.2703 C   0  0  0  0  0  0
  -31.1820  -18.8421   20.4949 N   0  0  0  0  0  0
  -30.0557  -15.3507   21.3225 N   0  0  0  0  0  0
  -30.2154  -20.9143   20.7921 N   0  0  0  0  0  0
  -30.9960  -23.5262   20.9041 O   0  0  0  0  0  0
  -27.2908  -24.8720   21.8733 O   0  0  0  0  0  0
  -27.9949  -16.8686   22.2858 F   0  0  0  0  0  0
  -31.4677  -12.3913   19.1108 H   0  0  0  0  0  0
  -30.3245  -11.2708   19.7911 H   0  0  0  0  0  0
  -29.7250  -11.7922   17.4150 H   0  0  0  0  0  0
  -29.6687  -13.4988   17.7759 H   0  0  0  0  0  0
  -27.8107  -11.3224   18.7929 H   0  0  0  0  0  0
  -27.3641  -12.6753   17.7892 H   0  0  0  0  0  0
  -27.7212  -14.2579   19.6097 H   0  0  0  0  0  0
  -28.6715  -11.9036   21.3107 H   0  0  0  0  0  0
  -28.4610  -13.5179   21.8958 H   0  0  0  0  0  0
  -25.2751   -9.5688   22.4772 H   0  0  0  0  0  0
  -24.0001   -7.4630   22.7464 H   0  0  0  0  0  0
  -21.0847   -8.8763   19.8947 H   0  0  0  0  0  0
  -22.3693  -10.9670   19.6158 H   0  0  0  0  0  0
  -21.1996   -7.6147   23.9724 H   0  0  0  0  0  0
  -21.1484   -6.0517   25.9081 H   0  0  0  0  0  0
  -22.0601   -2.7611   23.2836 H   0  0  0  0  0  0
  -22.4089  -11.9886   22.4785 H   0  0  0  0  0  0
  -21.1110  -13.1278   22.2597 H   0  0  0  0  0  0
  -24.6736  -15.8460   20.5534 H   0  0  0  0  0  0
  -26.3029  -15.6345   20.1616 H   0  0  0  0  0  0
  -26.7098  -32.5575   23.1187 H   0  0  0  0  0  0
  -25.0125  -33.9813   25.0539 H   0  0  0  0  0  0
  -22.6863  -31.3120   21.4152 H   0  0  0  0  0  0
  -23.3740  -35.9641   23.3299 H   0  0  0  0  0  0
  -24.3586  -36.8918   22.2047 H   0  0  0  0  0  0
  -23.7231  -37.6509   23.6642 H   0  0  0  0  0  0
  -26.0215  -31.6062   20.5874 H   0  0  0  0  0  0
  -26.8119  -30.9089   21.9749 H   0  0  0  0  0  0
  -28.0905  -29.1473   21.1771 H   0  0  0  0  0  0
  -26.1002  -25.9953   19.0056 H   0  0  0  0  0  0
  -23.9894  -27.2934   19.0343 H   0  0  0  0  0  0
  -23.7109  -30.5968   19.4069 H   0  0  0  0  0  0
  -22.7309  -29.2392   19.8761 H   0  0  0  0  0  0
  -25.1279  -36.1971   25.0830 H   0  0  0  0  0  0
  -20.9983  -28.3226   24.1436 H   0  0  0  0  0  0
  -20.5674  -26.2276   23.3598 H   0  0  0  0  0  0
  -21.6635  -26.7461   22.1194 H   0  0  0  0  0  0
  -19.6889  -25.6309   21.1235 H   0  0  0  0  0  0
  -19.6667  -27.3211   20.6751 H   0  0  0  0  0  0
  -17.4201  -26.6712   21.4024 H   0  0  0  0  0  0
  -18.0305  -26.0053   22.9002 H   0  0  0  0  0  0
  -19.7922  -30.7271   24.2294 H   0  0  0  0  0  0
  -17.4996  -31.6267   24.5165 H   0  0  0  0  0  0
  -15.5337  -30.2990   23.7622 H   0  0  0  0  0  0
  -15.8678  -28.0819   22.7044 H   0  0  0  0  0  0
  -24.5948  -30.7033   25.7798 H   0  0  0  0  0  0
  -24.8970  -32.2812   26.4953 H   0  0  0  0  0  0
  -25.8142  -30.8812   27.0207 H   0  0  0  0  0  0
  -26.2826  -29.6784   24.1158 H   0  0  0  0  0  0
  -27.4164  -29.7287   25.4481 H   0  0  0  0  0  0
  -27.8634  -30.4364   23.9128 H   0  0  0  0  0  0
  -27.2712  -33.3594   26.2082 H   0  0  0  0  0  0
  -28.3878  -32.6862   25.0293 H   0  0  0  0  0  0
  -28.0755  -31.8397   26.5372 H   0  0  0  0  0  0
  -28.2592  -38.0110   24.7541 H   0  0  0  0  0  0
  -28.1094  -36.2645   24.6263 H   0  0  0  0  0  0
  -27.2317  -37.1413   25.8876 H   0  0  0  0  0  0
  -20.9261  -29.8749   21.6952 H   0  0  0  0  0  0
  -26.0172  -38.2874   24.1430 H   0  0  0  0  0  0
  -28.1916  -19.4659   21.9657 H   0  0  0  0  0  0
  -32.0629  -17.0187   20.2098 H   0  0  0  0  0  0
  -30.2876  -24.8406   23.0708 H   0  0  0  0  0  0
  -28.9781  -23.7291   23.4550 H   0  0  0  0  0  0
  -28.4298  -21.8651   21.3373 H   0  0  0  0  0  0
  -29.4754  -21.4389   22.6878 H   0  0  0  0  0  0
  -30.1128  -26.3048   21.0696 H   0  0  0  0  0  0
  -28.9600  -27.2608   21.9783 H   0  0  0  0  0  0
  -29.2225  -15.0095   21.7796 H   0  0  0  0  0  0
  -31.0705  -21.3076   20.4084 H   0  0  0  0  0  0
  1 25  1  0  0  0
  1 30  2  0  0  0
  1 82  1  0  0  0
  2  3  1  0  0  0
  2 25  1  0  0  0
  2 87  1  0  0  0
  2 88  1  0  0  0
  3  4  1  0  0  0
  3 89  1  0  0  0
  3 90  1  0  0  0
  4  5  1  0  0  0
  4 91  1  0  0  0
  4 92  1  0  0  0
  5  6  1  0  0  0
  5 26  1  0  0  0
  5 93  1  0  0  0
  6 25  1  0  0  0
  6 94  1  0  0  0
  6 95  1  0  0  0
  7  8  2  0  0  0
  7 26  1  0  0  0
  7 29  1  0  0  0
  8  9  1  0  0  0
  8 22  1  0  0  0
  9 10  1  0  0  0
  9 27  2  0  0  0
 10 11  2  0  0  0
 10 15  1  0  0  0
 11 12  1  0  0  0
 11 96  1  0  0  0
 12 13  2  0  0  0
 12 97  1  0  0  0
 13 14  1  0  0  0
 13 31  1  0  0  0
 14 15  2  0  0  0
 14 98  1  0  0  0
 15 99  1  0  0  0
 16 17  2  0  0  0
 16 21  1  0  0  0
 16 31  1  0  0  0
 17 18  1  0  0  0
 17100  1  0  0  0
 18 19  2  0  0  0
 18101  1  0  0  0
 19 20  1  0  0  0
 19 24  1  0  0  0
 20 21  2  0  0  0
 20102  1  0  0  0
 21 23  1  0  0  0
 22 28  1  0  0  0
 22 32  2  0  0  0
 26 27  1  0  0  0
 28103  1  0  0  0
 28104  1  0  0  0
 29105  1  0  0  0
 29106  1  0  0  0
 33 34  1  0  0  0
 33 66  1  0  0  0
 33 70  2  0  0  0
 34 36  1  0  0  0
 34 59  1  0  0  0
 34107  1  0  0  0
 35 44  2  0  0  0
 35 45  1  0  0  0
 35 68  1  0  0  0
 36 56  1  0  0  0
 36108  1  0  0  0
 37 39  1  0  0  0
 37 47  1  0  0  0
 37 66  1  0  0  0
 37109  1  0  0  0
 38 43  2  0  0  0
 38 46  1  0  0  0
 38 47  1  0  0  0
 39 64  1  0  0  0
 39 67  2  0  0  0
 40 52  1  0  0  0
 40 53  2  0  0  0
 40 58  1  0  0  0
 41110  1  0  0  0
 41111  1  0  0  0
 41112  1  0  0  0
 41 48  1  0  0  0
 42 43  1  0  0  0
 42 66  1  0  0  0
 42113  1  0  0  0
 42114  1  0  0  0
 43 44  1  0  0  0
 44115  1  0  0  0
 45 46  2  0  0  0
 45116  1  0  0  0
 46117  1  0  0  0
 47118  1  0  0  0
 47119  1  0  0  0
 48 56  1  0  0  0
 48 65  1  0  0  0
 48120  1  0  0  0
 49 50  1  0  0  0
 49 53  1  0  0  0
 49 64  1  0  0  0
 49121  1  0  0  0
 50 51  1  0  0  0
 50122  1  0  0  0
 50123  1  0  0  0
 51 52  1  0  0  0
 51124  1  0  0  0
 51125  1  0  0  0
 52126  1  0  0  0
 52127  1  0  0  0
 53 54  1  0  0  0
 54 55  2  0  0  0
 54128  1  0  0  0
 55 57  1  0  0  0
 55129  1  0  0  0
 56 69  2  0  0  0
 57 58  2  0  0  0
 57130  1  0  0  0
 58131  1  0  0  0
 59 60  1  0  0  0
 59 61  1  0  0  0
 59 62  1  0  0  0
 60132  1  0  0  0
 60133  1  0  0  0
 60134  1  0  0  0
 61135  1  0  0  0
 61136  1  0  0  0
 61137  1  0  0  0
 62138  1  0  0  0
 62139  1  0  0  0
 62140  1  0  0  0
 63 65  1  0  0  0
 63141  1  0  0  0
 63142  1  0  0  0
 63143  1  0  0  0
 64144  1  0  0  0
 65145  1  0  0  0
 68 80  1  0  0  0
 71 74  2  0  0  0
 71 75  1  0  0  0
 71146  1  0  0  0
 72 73  2  0  0  0
 72 81  1  0  0  0
 72147  1  0  0  0
 73 74  1  0  0  0
 73 82  1  0  0  0
 74 86  1  0  0  0
 75 81  2  0  0  0
 75 83  1  0  0  0
 76 78  1  0  0  0
 76 79  1  0  0  0
 76 84  2  0  0  0
 77 78  1  0  0  0
 77 80  1  0  0  0
 77 85  2  0  0  0
 78148  1  0  0  0
 78149  1  0  0  0
 79 83  1  0  0  0
 79150  1  0  0  0
 79151  1  0  0  0
 80152  1  0  0  0
 80153  1  0  0  0
 82154  1  0  0  0
 83155  1  0  0  0
M  ISO  4   1 100  68 101  80 101  82 100
M  END
> <chiral flag>
0

> <version>
0

> <s_m_source_file>
/data/baiqing/PycharmProjects/Reinvent-master-3.2/result/LINK_invent/BTK/process_docking_weight1_custom_product_contain_oxygen_bond_distance_aromatic_linkinvent_7_9_3/rearranged_h_0161.sdf

> <i_m_source_file_index>
31

> <r_mmod_Potential_Energy-OPLS-2005>
-488.853576660156

> <r_mmod_Stretch_Energy-OPLS-2005>
32.0205039978027

> <r_mmod_Bend_Energy-OPLS-2005>
102.142707824707

> <r_mmod_Torsional_Energy-OPLS-2005>
230.022888183594

> <r_mmod_Improper_Torsional_Energy-OPLS-2005>
5.39475107192993

> <r_mmod_Van_der_Waal_Energy-OPLS-2005>
160.038696289062

> <r_mmod_Electrostatic_Energy-OPLS-2005>
-774.576171875

> <r_mmod_Solvation_Energy-OPLS-2005>
-251.345947265625

> <b_mmod_Minimization_Converged-OPLS-2005>
0

> <r_mmod_RMS_Derivative-OPLS-2005>
1.59341132640839

$$$$
31
                    3D
 Structure written by MMmdl.
149157  0  0  1  0            999 V2000
  -30.6892  -14.5138   20.5343 C   0  0  0  0  0  0
  -30.4183  -12.3152   19.4428 C   0  0  0  0  0  0
  -29.4984  -12.4918   18.2166 C   0  0  0  0  0  0
  -28.0193  -12.3474   18.6249 C   0  0  0  0  0  0
  -27.6543  -13.2110   19.8615 C   0  0  2  0  0  0
  -28.6961  -13.0510   20.9917 C   0  0  0  0  0  0
  -25.2576  -13.8165   20.5682 C   0  0  0  0  0  0
  -24.1833  -13.0439   20.9180 C   0  0  0  0  0  0
  -24.6391  -11.6907   20.8736 C   0  0  0  0  0  0
  -23.9061  -10.4293   21.0409 C   0  0  0  0  0  0
  -24.3614   -9.4211   21.9187 C   0  0  0  0  0  0
  -23.6291   -8.2245   22.0757 C   0  0  0  0  0  0
  -22.4274   -8.0281   21.3546 C   0  0  0  0  0  0
  -21.9908   -9.0253   20.4647 C   0  0  0  0  0  0
  -22.7235  -10.2133   20.3057 C   0  0  0  0  0  0
  -21.6854   -6.0736   22.5279 C   0  0  0  0  0  0
  -21.4013   -6.5640   23.8213 C   0  0  0  0  0  0
  -21.3658   -5.6793   24.9174 C   0  0  0  0  0  0
  -21.6044   -4.3057   24.7226 C   0  0  0  0  0  0
  -21.8819   -3.8149   23.4347 C   0  0  0  0  0  0
  -21.9193   -4.6964   22.3402 C   0  0  0  0  0  0
  -22.7858  -13.5238   21.1850 C   0  0  0  0  0  0
  -22.1663   -4.2151   21.0979 F   0  0  0  0  0  0
  -21.5628   -3.4540   25.7738 F   0  0  0  0  0  0
  -30.0261  -13.3283   20.4366 N   0  0  0  0  0  0
  -26.2995  -12.9337   20.3314 N   0  0  0  0  0  0
  -25.9317  -11.6496   20.5752 N   0  0  0  0  0  0
  -22.0497  -12.8225   22.0400 N   0  0  0  0  0  0
  -25.4310  -15.1884   20.4113 N   0  0  0  0  0  0
  -31.8453  -14.6308   20.1177 O   0  0  0  0  0  0
  -21.6640   -6.8878   21.4241 O   0  0  0  0  0  0
  -22.3544  -14.5550   20.6707 O   0  0  0  0  0  0
  -24.6162  -31.8662   23.2078 C   0  0  0  0  0  0
  -25.9046  -32.4814   23.8383 C   0  0  1  0  0  0
  -27.2315  -27.4153   20.1096 C   0  0  0  0  0  0
  -25.5897  -33.8612   24.2317 N   0  0  0  0  0  0
  -23.4051  -30.4886   21.5487 C   0  0  2  0  0  0
  -24.8520  -28.9491   20.1164 C   0  0  0  0  0  0
  -22.7415  -29.4654   22.4987 C   0  0  0  0  0  0
  -18.0270  -28.1379   22.8493 C   0  0  0  0  0  0
  -24.1485  -36.7310   23.2639 C   0  0  0  0  0  0
  -25.9344  -30.8288   21.3604 C   0  0  0  0  0  0
  -26.0134  -29.4607   20.7096 C   0  0  0  0  0  0
  -27.2096  -28.7039   20.6961 C   0  0  0  0  0  0
  -26.0546  -26.9207   19.5095 C   0  0  0  0  0  0
  -24.8685  -27.6801   19.5108 C   0  0  0  0  0  0
  -23.6143  -29.8176   20.1645 C   0  0  0  0  0  0
  -25.4107  -36.3108   24.0338 C   0  0  1  0  0  0
  -20.5862  -28.3667   23.1317 C   0  0  2  0  0  0
  -20.6763  -26.9403   22.5418 C   0  0  0  0  0  0
  -19.5742  -26.6387   21.5214 C   0  0  0  0  0  0
  -18.1918  -26.7927   22.1623 C   0  0  0  0  0  0
  -19.1521  -28.8840   23.2904 C   0  0  0  0  0  0
  -18.9449  -30.1446   23.8915 C   0  0  0  0  0  0
  -17.6452  -30.6586   24.0567 C   0  0  0  0  0  0
  -25.9036  -34.9473   23.5128 C   0  0  0  0  0  0
  -16.5342  -29.9089   23.6329 C   0  0  0  0  0  0
  -16.7260  -28.6505   23.0350 C   0  0  0  0  0  0
  -26.4472  -31.6594   25.0713 C   0  0  0  0  0  0
  -25.3740  -31.3688   26.1461 C   0  0  0  0  0  0
  -27.0305  -30.3042   24.6082 C   0  0  0  0  0  0
  -27.6048  -32.4313   25.7479 C   0  0  0  0  0  0
  -27.5581  -37.1810   24.8465 C   0  0  0  0  0  0
  -21.4141  -29.3035   22.3725 N   0  0  0  0  0  0
  -26.4292  -37.3794   23.9413 N   0  0  0  0  0  0
  -24.6705  -31.0755   22.0979 N   0  0  0  0  0  0
  -23.4181  -28.8197   23.3037 O   0  0  0  0  0  0
  -28.3843  -26.6566   20.1078 O   0  0  0  0  0  0
  -26.5601  -34.8927   22.4692 O   0  0  0  0  0  0
  -23.5352  -32.1415   23.7470 O   0  0  0  0  0  0
  -29.7324  -19.3933   19.6564 C   0  0  0  0  0  0
  -30.0013  -18.4453   20.6909 C   0  0  0  0  0  0
  -29.3040  -20.5112   20.3162 C   0  0  0  0  0  0
  -28.8013  -22.7945   20.3632 C   0  0  0  0  0  0
  -28.5544  -24.1813   19.7624 C   0  0  0  0  0  0
  -30.7147  -17.1058   20.5608 C   0  0  0  0  0  0
  -28.2801  -25.3528   20.7362 C   0  0  0  0  0  0
  -29.9563  -15.8094   20.9921 C   0  0  0  0  0  0
  -29.6968  -18.9608   21.8801 N   0  0  0  0  0  0
  -29.0286  -21.7183   19.6999 N   0  0  0  0  0  0
  -28.5653  -24.3786   18.5390 O   0  0  0  0  0  0
  -29.2467  -20.2760   21.6552 O   0  0  0  0  0  0
  -31.4653  -12.3968   19.1459 H   0  0  0  0  0  0
  -30.3073  -11.3151   19.8650 H   0  0  0  0  0  0
  -29.7469  -11.7566   17.4502 H   0  0  0  0  0  0
  -29.6641  -13.4720   17.7667 H   0  0  0  0  0  0
  -27.8388  -11.2941   18.8424 H   0  0  0  0  0  0
  -27.3694  -12.5988   17.7859 H   0  0  0  0  0  0
  -27.6780  -14.2465   19.5250 H   0  0  0  0  0  0
  -28.6713  -12.0381   21.3958 H   0  0  0  0  0  0
  -28.4636  -13.7128   21.8271 H   0  0  0  0  0  0
  -25.2759   -9.5688   22.4762 H   0  0  0  0  0  0
  -24.0003   -7.4637   22.7479 H   0  0  0  0  0  0
  -21.0842   -8.8769   19.8952 H   0  0  0  0  0  0
  -22.3696  -10.9672   19.6166 H   0  0  0  0  0  0
  -21.2004   -7.6148   23.9716 H   0  0  0  0  0  0
  -21.1480   -6.0524   25.9077 H   0  0  0  0  0  0
  -22.0598   -2.7612   23.2847 H   0  0  0  0  0  0
  -22.4107  -11.9874   22.4770 H   0  0  0  0  0  0
  -21.1118  -13.1255   22.2615 H   0  0  0  0  0  0
  -24.6694  -15.8478   20.5281 H   0  0  0  0  0  0
  -26.2907  -15.6275   20.1065 H   0  0  0  0  0  0
  -26.7118  -32.5523   23.1147 H   0  0  0  0  0  0
  -25.0059  -33.9771   25.0471 H   0  0  0  0  0  0
  -22.6949  -31.3060   21.4074 H   0  0  0  0  0  0
  -23.3749  -35.9640   23.3301 H   0  0  0  0  0  0
  -24.3584  -36.8925   22.2054 H   0  0  0  0  0  0
  -23.7232  -37.6512   23.6654 H   0  0  0  0  0  0
  -26.0444  -31.5927   20.5893 H   0  0  0  0  0  0
  -26.8231  -30.8861   21.9770 H   0  0  0  0  0  0
  -28.1082  -29.0962   21.1518 H   0  0  0  0  0  0
  -26.0531  -25.9485   19.0370 H   0  0  0  0  0  0
  -23.9762  -27.2816   19.0477 H   0  0  0  0  0  0
  -23.7231  -30.5905   19.4029 H   0  0  0  0  0  0
  -22.7379  -29.2375   19.8698 H   0  0  0  0  0  0
  -25.1284  -36.1972   25.0830 H   0  0  0  0  0  0
  -20.9954  -28.3231   24.1437 H   0  0  0  0  0  0
  -20.5669  -26.2274   23.3606 H   0  0  0  0  0  0
  -21.6635  -26.7449   22.1208 H   0  0  0  0  0  0
  -19.6905  -25.6303   21.1232 H   0  0  0  0  0  0
  -19.6681  -27.3210   20.6754 H   0  0  0  0  0  0
  -17.4191  -26.6680   21.4021 H   0  0  0  0  0  0
  -18.0315  -26.0063   22.9011 H   0  0  0  0  0  0
  -19.7924  -30.7258   24.2294 H   0  0  0  0  0  0
  -17.5007  -31.6270   24.5161 H   0  0  0  0  0  0
  -15.5346  -30.2998   23.7646 H   0  0  0  0  0  0
  -15.8656  -28.0834   22.7059 H   0  0  0  0  0  0
  -24.5919  -30.7029   25.7795 H   0  0  0  0  0  0
  -24.8923  -32.2835   26.4927 H   0  0  0  0  0  0
  -25.8098  -30.8846   27.0208 H   0  0  0  0  0  0
  -26.2844  -29.6799   24.1149 H   0  0  0  0  0  0
  -27.4100  -29.7281   25.4531 H   0  0  0  0  0  0
  -27.8666  -30.4371   23.9211 H   0  0  0  0  0  0
  -27.2675  -33.3614   26.2065 H   0  0  0  0  0  0
  -28.3856  -32.6866   25.0301 H   0  0  0  0  0  0
  -28.0714  -31.8425   26.5386 H   0  0  0  0  0  0
  -28.2596  -38.0111   24.7525 H   0  0  0  0  0  0
  -28.1080  -36.2643   24.6276 H   0  0  0  0  0  0
  -27.2302  -37.1441   25.8869 H   0  0  0  0  0  0
  -20.9305  -29.8759   21.6945 H   0  0  0  0  0  0
  -26.0179  -38.2870   24.1419 H   0  0  0  0  0  0
  -29.9059  -19.2889   18.5948 H   0  0  0  0  0  0
  -28.7846  -22.7608   21.4563 H   0  0  0  0  0  0
  -31.6516  -17.1568   21.1167 H   0  0  0  0  0  0
  -31.0149  -16.9983   19.5178 H   0  0  0  0  0  0
  -29.0095  -25.3078   21.5450 H   0  0  0  0  0  0
  -27.3007  -25.2102   21.1947 H   0  0  0  0  0  0
  -28.9640  -15.8284   20.5453 H   0  0  0  0  0  0
  -29.8194  -15.7929   22.0731 H   0  0  0  0  0  0
  1 25  1  0  0  0
  1 30  2  0  0  0
  1 78  1  0  0  0
  2  3  1  0  0  0
  2 25  1  0  0  0
  2 83  1  0  0  0
  2 84  1  0  0  0
  3  4  1  0  0  0
  3 85  1  0  0  0
  3 86  1  0  0  0
  4  5  1  0  0  0
  4 87  1  0  0  0
  4 88  1  0  0  0
  5  6  1  0  0  0
  5 26  1  0  0  0
  5 89  1  0  0  0
  6 25  1  0  0  0
  6 90  1  0  0  0
  6 91  1  0  0  0
  7  8  2  0  0  0
  7 26  1  0  0  0
  7 29  1  0  0  0
  8  9  1  0  0  0
  8 22  1  0  0  0
  9 10  1  0  0  0
  9 27  2  0  0  0
 10 11  2  0  0  0
 10 15  1  0  0  0
 11 12  1  0  0  0
 11 92  1  0  0  0
 12 13  2  0  0  0
 12 93  1  0  0  0
 13 14  1  0  0  0
 13 31  1  0  0  0
 14 15  2  0  0  0
 14 94  1  0  0  0
 15 95  1  0  0  0
 16 17  2  0  0  0
 16 21  1  0  0  0
 16 31  1  0  0  0
 17 18  1  0  0  0
 17 96  1  0  0  0
 18 19  2  0  0  0
 18 97  1  0  0  0
 19 20  1  0  0  0
 19 24  1  0  0  0
 20 21  2  0  0  0
 20 98  1  0  0  0
 21 23  1  0  0  0
 22 28  1  0  0  0
 22 32  2  0  0  0
 26 27  1  0  0  0
 28 99  1  0  0  0
 28100  1  0  0  0
 29101  1  0  0  0
 29102  1  0  0  0
 33 34  1  0  0  0
 33 66  1  0  0  0
 33 70  2  0  0  0
 34 36  1  0  0  0
 34 59  1  0  0  0
 34103  1  0  0  0
 35 44  2  0  0  0
 35 45  1  0  0  0
 35 68  1  0  0  0
 36 56  1  0  0  0
 36104  1  0  0  0
 37 39  1  0  0  0
 37 47  1  0  0  0
 37 66  1  0  0  0
 37105  1  0  0  0
 38 43  2  0  0  0
 38 46  1  0  0  0
 38 47  1  0  0  0
 39 64  1  0  0  0
 39 67  2  0  0  0
 40 52  1  0  0  0
 40 53  2  0  0  0
 40 58  1  0  0  0
 41106  1  0  0  0
 41107  1  0  0  0
 41108  1  0  0  0
 41 48  1  0  0  0
 42 43  1  0  0  0
 42 66  1  0  0  0
 42109  1  0  0  0
 42110  1  0  0  0
 43 44  1  0  0  0
 44111  1  0  0  0
 45 46  2  0  0  0
 45112  1  0  0  0
 46113  1  0  0  0
 47114  1  0  0  0
 47115  1  0  0  0
 48 56  1  0  0  0
 48 65  1  0  0  0
 48116  1  0  0  0
 49 50  1  0  0  0
 49 53  1  0  0  0
 49 64  1  0  0  0
 49117  1  0  0  0
 50 51  1  0  0  0
 50118  1  0  0  0
 50119  1  0  0  0
 51 52  1  0  0  0
 51120  1  0  0  0
 51121  1  0  0  0
 52122  1  0  0  0
 52123  1  0  0  0
 53 54  1  0  0  0
 54 55  2  0  0  0
 54124  1  0  0  0
 55 57  1  0  0  0
 55125  1  0  0  0
 56 69  2  0  0  0
 57 58  2  0  0  0
 57126  1  0  0  0
 58127  1  0  0  0
 59 60  1  0  0  0
 59 61  1  0  0  0
 59 62  1  0  0  0
 60128  1  0  0  0
 60129  1  0  0  0
 60130  1  0  0  0
 61131  1  0  0  0
 61132  1  0  0  0
 61133  1  0  0  0
 62134  1  0  0  0
 62135  1  0  0  0
 62136  1  0  0  0
 63 65  1  0  0  0
 63137  1  0  0  0
 63138  1  0  0  0
 63139  1  0  0  0
 64140  1  0  0  0
 65141  1  0  0  0
 68 77  1  0  0  0
 71 72  1  0  0  0
 71 73  2  0  0  0
 71142  1  0  0  0
 72 76  1  0  0  0
 72 79  2  0  0  0
 73 80  1  0  0  0
 73 82  1  0  0  0
 74 75  1  0  0  0
 74 80  2  0  0  0
 74143  1  0  0  0
 75 77  1  0  0  0
 75 81  2  0  0  0
 76 78  1  0  0  0
 76144  1  0  0  0
 76145  1  0  0  0
 77146  1  0  0  0
 77147  1  0  0  0
 78148  1  0  0  0
 78149  1  0  0  0
 79 82  1  0  0  0
M  ISO  4   1 100  68 101  77 101  78 100
M  END
> <chiral flag>
0

> <version>
0

> <s_m_source_file>
/data/baiqing/PycharmProjects/Reinvent-master-3.2/result/LINK_invent/BTK/process_docking_weight1_custom_product_contain_oxygen_bond_distance_aromatic_linkinvent_7_9_3/rearranged_h_0161.sdf

> <i_m_source_file_index>
32

> <r_mmod_Potential_Energy-OPLS-2005>
-176.089614868164

> <r_mmod_Stretch_Energy-OPLS-2005>
40.9730911254883

> <r_mmod_Bend_Energy-OPLS-2005>
103.492057800293

> <r_mmod_Torsional_Energy-OPLS-2005>
186.172622680664

> <r_mmod_Improper_Torsional_Energy-OPLS-2005>
4.44337511062622

> <r_mmod_Van_der_Waal_Energy-OPLS-2005>
126.173118591309

> <r_mmod_Electrostatic_Energy-OPLS-2005>
-417.568145751953

> <r_mmod_Solvation_Energy-OPLS-2005>
-238.438049316406

> <b_mmod_Minimization_Converged-OPLS-2005>
0

> <r_mmod_RMS_Derivative-OPLS-2005>
0.33037668466568

$$$$
32
                    3D
 Structure written by MMmdl.
155163  0  0  1  0            999 V2000
  -30.7145  -14.5217   20.5124 C   0  0  0  0  0  0
  -30.4102  -12.3201   19.4402 C   0  0  0  0  0  0
  -29.4932  -12.4902   18.2124 C   0  0  0  0  0  0
  -28.0159  -12.3525   18.6257 C   0  0  0  0  0  0
  -27.6536  -13.2168   19.8639 C   0  0  2  0  0  0
  -28.6982  -13.0581   20.9926 C   0  0  0  0  0  0
  -25.2552  -13.8176   20.5657 C   0  0  0  0  0  0
  -24.1830  -13.0446   20.9196 C   0  0  0  0  0  0
  -24.6397  -11.6915   20.8752 C   0  0  0  0  0  0
  -23.9070  -10.4294   21.0410 C   0  0  0  0  0  0
  -24.3624   -9.4200   21.9173 C   0  0  0  0  0  0
  -23.6302   -8.2234   22.0746 C   0  0  0  0  0  0
  -22.4277   -8.0282   21.3545 C   0  0  0  0  0  0
  -21.9913   -9.0257   20.4650 C   0  0  0  0  0  0
  -22.7242  -10.2136   20.3057 C   0  0  0  0  0  0
  -21.6855   -6.0738   22.5279 C   0  0  0  0  0  0
  -21.4012   -6.5638   23.8214 C   0  0  0  0  0  0
  -21.3655   -5.6793   24.9177 C   0  0  0  0  0  0
  -21.6043   -4.3055   24.7228 C   0  0  0  0  0  0
  -21.8821   -3.8150   23.4348 C   0  0  0  0  0  0
  -21.9194   -4.6966   22.3403 C   0  0  0  0  0  0
  -22.7851  -13.5235   21.1859 C   0  0  0  0  0  0
  -22.1665   -4.2150   21.0981 F   0  0  0  0  0  0
  -21.5624   -3.4538   25.7737 F   0  0  0  0  0  0
  -30.0229  -13.3477   20.4240 N   0  0  0  0  0  0
  -26.2989  -12.9367   20.3326 N   0  0  0  0  0  0
  -25.9327  -11.6523   20.5777 N   0  0  0  0  0  0
  -22.0497  -12.8230   22.0421 N   0  0  0  0  0  0
  -25.4251  -15.1888   20.3990 N   0  0  0  0  0  0
  -31.8755  -14.5960   20.1015 O   0  0  0  0  0  0
  -21.6643   -6.8876   21.4240 O   0  0  0  0  0  0
  -22.3539  -14.5538   20.6699 O   0  0  0  0  0  0
  -24.6175  -31.8673   23.2108 C   0  0  0  0  0  0
  -25.9070  -32.4814   23.8391 C   0  0  1  0  0  0
  -27.2182  -27.4117   20.0980 C   0  0  0  0  0  0
  -25.5935  -33.8612   24.2324 N   0  0  0  0  0  0
  -23.4057  -30.4939   21.5514 C   0  0  2  0  0  0
  -24.8506  -28.9631   20.1078 C   0  0  0  0  0  0
  -22.7422  -29.4661   22.4973 C   0  0  0  0  0  0
  -18.0275  -28.1381   22.8485 C   0  0  0  0  0  0
  -24.1482  -36.7275   23.2627 C   0  0  0  0  0  0
  -25.9395  -30.8249   21.3707 C   0  0  0  0  0  0
  -26.0149  -29.4618   20.7087 C   0  0  0  0  0  0
  -27.2063  -28.6939   20.7008 C   0  0  0  0  0  0
  -26.0414  -26.9429   19.4759 C   0  0  0  0  0  0
  -24.8598  -27.7045   19.4854 C   0  0  0  0  0  0
  -23.6142  -29.8324   20.1635 C   0  0  0  0  0  0
  -25.4098  -36.3093   24.0345 C   0  0  1  0  0  0
  -20.5871  -28.3665   23.1315 C   0  0  2  0  0  0
  -20.6753  -26.9395   22.5433 C   0  0  0  0  0  0
  -19.5743  -26.6387   21.5214 C   0  0  0  0  0  0
  -18.1916  -26.7928   22.1611 C   0  0  0  0  0  0
  -19.1526  -28.8838   23.2893 C   0  0  0  0  0  0
  -18.9454  -30.1442   23.8903 C   0  0  0  0  0  0
  -17.6457  -30.6582   24.0567 C   0  0  0  0  0  0
  -25.9048  -34.9471   23.5126 C   0  0  0  0  0  0
  -16.5346  -29.9078   23.6338 C   0  0  0  0  0  0
  -16.7266  -28.6500   23.0352 C   0  0  0  0  0  0
  -26.4480  -31.6604   25.0732 C   0  0  0  0  0  0
  -25.3755  -31.3799   26.1514 C   0  0  0  0  0  0
  -27.0242  -30.3002   24.6151 C   0  0  0  0  0  0
  -27.6097  -32.4298   25.7449 C   0  0  0  0  0  0
  -27.5605  -37.1738   24.8434 C   0  0  0  0  0  0
  -21.4150  -29.3028   22.3711 N   0  0  0  0  0  0
  -26.4257  -37.3812   23.9478 N   0  0  0  0  0  0
  -24.6724  -31.0762   22.1019 N   0  0  0  0  0  0
  -23.4191  -28.8204   23.3018 O   0  0  0  0  0  0
  -28.3188  -26.5771   20.1449 O   0  0  0  0  0  0
  -26.5587  -34.8935   22.4673 O   0  0  0  0  0  0
  -23.5364  -32.1438   23.7495 O   0  0  0  0  0  0
  -31.1516  -19.7212   20.8261 C   0  0  0  0  0  0
  -29.4277  -18.0198   21.0218 C   0  0  0  0  0  0
  -29.7968  -19.3989   21.0120 C   0  0  0  0  0  0
  -32.0610  -18.6760   20.6680 C   0  0  0  0  0  0
  -30.4175  -17.0094   20.8574 C   0  0  0  0  0  0
  -28.0676  -25.3383   20.7179 C   0  0  0  0  0  0
  -28.8317  -20.4850   21.2906 C   0  0  0  0  0  0
  -28.6699  -24.1666   20.3954 C   0  0  0  0  0  0
  -28.2465  -22.9289   21.0789 C   0  0  0  0  0  0
  -31.7129  -17.3821   20.6903 N   0  0  0  0  0  0
  -33.4104  -18.9335   20.4993 N   0  0  0  0  0  0
  -30.0097  -15.6225   20.8919 N   0  0  0  0  0  0
  -29.0008  -21.7352   20.7583 N   0  0  0  0  0  0
  -27.8282  -20.1790   22.1326 N   0  3  0  0  0  0
  -27.3170  -22.8607   21.8951 O   0  0  0  0  0  0
  -29.6322  -24.1308   19.4612 O   0  0  0  0  0  0
  -31.4573  -12.3892   19.1390 H   0  0  0  0  0  0
  -30.2938  -11.3239   19.8708 H   0  0  0  0  0  0
  -29.7390  -11.7465   17.4531 H   0  0  0  0  0  0
  -29.6617  -13.4647   17.7515 H   0  0  0  0  0  0
  -27.8342  -11.2998   18.8452 H   0  0  0  0  0  0
  -27.3646  -12.6024   17.7876 H   0  0  0  0  0  0
  -27.6795  -14.2549   19.5335 H   0  0  0  0  0  0
  -28.6803  -12.0412   21.3885 H   0  0  0  0  0  0
  -28.4641  -13.7103   21.8354 H   0  0  0  0  0  0
  -25.2779   -9.5671   22.4736 H   0  0  0  0  0  0
  -24.0025   -7.4619   22.7454 H   0  0  0  0  0  0
  -21.0844   -8.8776   19.8955 H   0  0  0  0  0  0
  -22.3699  -10.9673   19.6165 H   0  0  0  0  0  0
  -21.2000   -7.6146   23.9715 H   0  0  0  0  0  0
  -21.1471   -6.0521   25.9081 H   0  0  0  0  0  0
  -22.0598   -2.7613   23.2847 H   0  0  0  0  0  0
  -22.4124  -11.9901   22.4824 H   0  0  0  0  0  0
  -21.1115  -13.1255   22.2624 H   0  0  0  0  0  0
  -24.6455  -15.8342   20.4677 H   0  0  0  0  0  0
  -26.2574  -15.6151   20.0127 H   0  0  0  0  0  0
  -26.7133  -32.5517   23.1142 H   0  0  0  0  0  0
  -25.0128  -33.9767   25.0499 H   0  0  0  0  0  0
  -22.6953  -31.3129   21.4166 H   0  0  0  0  0  0
  -23.3800  -35.9542   23.3197 H   0  0  0  0  0  0
  -24.3612  -36.8974   22.2061 H   0  0  0  0  0  0
  -23.7143  -37.6419   23.6685 H   0  0  0  0  0  0
  -26.0665  -31.5971   20.6104 H   0  0  0  0  0  0
  -26.8217  -30.8656   21.9983 H   0  0  0  0  0  0
  -28.1007  -29.0644   21.1820 H   0  0  0  0  0  0
  -26.0307  -25.9711   19.0026 H   0  0  0  0  0  0
  -23.9659  -27.3164   19.0160 H   0  0  0  0  0  0
  -23.7228  -30.6113   19.4075 H   0  0  0  0  0  0
  -22.7360  -29.2560   19.8666 H   0  0  0  0  0  0
  -25.1255  -36.1922   25.0828 H   0  0  0  0  0  0
  -20.9958  -28.3228   24.1441 H   0  0  0  0  0  0
  -20.5633  -26.2276   23.3626 H   0  0  0  0  0  0
  -21.6632  -26.7417   22.1252 H   0  0  0  0  0  0
  -19.6904  -25.6302   21.1233 H   0  0  0  0  0  0
  -19.6699  -27.3207   20.6757 H   0  0  0  0  0  0
  -17.4204  -26.6702   21.3996 H   0  0  0  0  0  0
  -18.0294  -26.0065   22.9000 H   0  0  0  0  0  0
  -19.7934  -30.7253   24.2273 H   0  0  0  0  0  0
  -17.5024  -31.6267   24.5160 H   0  0  0  0  0  0
  -15.5346  -30.2977   23.7674 H   0  0  0  0  0  0
  -15.8667  -28.0833   22.7052 H   0  0  0  0  0  0
  -24.5889  -30.7157   25.7919 H   0  0  0  0  0  0
  -24.8995  -32.2997   26.4922 H   0  0  0  0  0  0
  -25.8126  -30.9019   27.0290 H   0  0  0  0  0  0
  -26.2752  -29.6803   24.1205 H   0  0  0  0  0  0
  -27.3942  -29.7226   25.4631 H   0  0  0  0  0  0
  -27.8653  -30.4243   23.9326 H   0  0  0  0  0  0
  -27.2780  -33.3640   26.1990 H   0  0  0  0  0  0
  -28.3901  -32.6773   25.0242 H   0  0  0  0  0  0
  -28.0750  -31.8428   26.5375 H   0  0  0  0  0  0
  -28.2511  -38.0149   24.7682 H   0  0  0  0  0  0
  -28.1201  -36.2704   24.5957 H   0  0  0  0  0  0
  -27.2390  -37.1032   25.8840 H   0  0  0  0  0  0
  -20.9306  -29.8747   21.6937 H   0  0  0  0  0  0
  -26.0130  -38.2847   24.1653 H   0  0  0  0  0  0
  -31.4944  -20.7457   20.8419 H   0  0  0  0  0  0
  -28.3920  -17.7431   21.1584 H   0  0  0  0  0  0
  -27.2966  -25.3976   21.4780 H   0  0  0  0  0  0
  -33.6883  -19.8603   20.1996 H   0  0  0  0  0  0
  -33.9832  -18.1909   20.1154 H   0  0  0  0  0  0
  -29.0545  -15.4481   21.1553 H   0  0  0  0  0  0
  -29.7516  -21.7858   20.0908 H   0  0  0  0  0  0
  -27.7809  -19.2633   22.5507 H   0  0  0  0  0  0
  -27.1651  -20.8919   22.4083 H   0  0  0  0  0  0
  -29.7408  -25.0208   19.1484 H   0  0  0  0  0  0
  1 25  1  0  0  0
  1 30  2  0  0  0
  1 82  1  0  0  0
  2  3  1  0  0  0
  2 25  1  0  0  0
  2 87  1  0  0  0
  2 88  1  0  0  0
  3  4  1  0  0  0
  3 89  1  0  0  0
  3 90  1  0  0  0
  4  5  1  0  0  0
  4 91  1  0  0  0
  4 92  1  0  0  0
  5  6  1  0  0  0
  5 26  1  0  0  0
  5 93  1  0  0  0
  6 25  1  0  0  0
  6 94  1  0  0  0
  6 95  1  0  0  0
  7  8  2  0  0  0
  7 26  1  0  0  0
  7 29  1  0  0  0
  8  9  1  0  0  0
  8 22  1  0  0  0
  9 10  1  0  0  0
  9 27  2  0  0  0
 10 11  2  0  0  0
 10 15  1  0  0  0
 11 12  1  0  0  0
 11 96  1  0  0  0
 12 13  2  0  0  0
 12 97  1  0  0  0
 13 14  1  0  0  0
 13 31  1  0  0  0
 14 15  2  0  0  0
 14 98  1  0  0  0
 15 99  1  0  0  0
 16 17  2  0  0  0
 16 21  1  0  0  0
 16 31  1  0  0  0
 17 18  1  0  0  0
 17100  1  0  0  0
 18 19  2  0  0  0
 18101  1  0  0  0
 19 20  1  0  0  0
 19 24  1  0  0  0
 20 21  2  0  0  0
 20102  1  0  0  0
 21 23  1  0  0  0
 22 28  1  0  0  0
 22 32  2  0  0  0
 26 27  1  0  0  0
 28103  1  0  0  0
 28104  1  0  0  0
 29105  1  0  0  0
 29106  1  0  0  0
 33 34  1  0  0  0
 33 66  1  0  0  0
 33 70  2  0  0  0
 34 36  1  0  0  0
 34 59  1  0  0  0
 34107  1  0  0  0
 35 44  2  0  0  0
 35 45  1  0  0  0
 35 68  1  0  0  0
 36 56  1  0  0  0
 36108  1  0  0  0
 37 39  1  0  0  0
 37 47  1  0  0  0
 37 66  1  0  0  0
 37109  1  0  0  0
 38 43  2  0  0  0
 38 46  1  0  0  0
 38 47  1  0  0  0
 39 64  1  0  0  0
 39 67  2  0  0  0
 40 52  1  0  0  0
 40 53  2  0  0  0
 40 58  1  0  0  0
 41110  1  0  0  0
 41111  1  0  0  0
 41112  1  0  0  0
 41 48  1  0  0  0
 42 43  1  0  0  0
 42 66  1  0  0  0
 42113  1  0  0  0
 42114  1  0  0  0
 43 44  1  0  0  0
 44115  1  0  0  0
 45 46  2  0  0  0
 45116  1  0  0  0
 46117  1  0  0  0
 47118  1  0  0  0
 47119  1  0  0  0
 48 56  1  0  0  0
 48 65  1  0  0  0
 48120  1  0  0  0
 49 50  1  0  0  0
 49 53  1  0  0  0
 49 64  1  0  0  0
 49121  1  0  0  0
 50 51  1  0  0  0
 50122  1  0  0  0
 50123  1  0  0  0
 51 52  1  0  0  0
 51124  1  0  0  0
 51125  1  0  0  0
 52126  1  0  0  0
 52127  1  0  0  0
 53 54  1  0  0  0
 54 55  2  0  0  0
 54128  1  0  0  0
 55 57  1  0  0  0
 55129  1  0  0  0
 56 69  2  0  0  0
 57 58  2  0  0  0
 57130  1  0  0  0
 58131  1  0  0  0
 59 60  1  0  0  0
 59 61  1  0  0  0
 59 62  1  0  0  0
 60132  1  0  0  0
 60133  1  0  0  0
 60134  1  0  0  0
 61135  1  0  0  0
 61136  1  0  0  0
 61137  1  0  0  0
 62138  1  0  0  0
 62139  1  0  0  0
 62140  1  0  0  0
 63 65  1  0  0  0
 63141  1  0  0  0
 63142  1  0  0  0
 63143  1  0  0  0
 64144  1  0  0  0
 65145  1  0  0  0
 68 76  1  0  0  0
 71 73  2  0  0  0
 71 74  1  0  0  0
 71146  1  0  0  0
 72 73  1  0  0  0
 72 75  2  0  0  0
 72147  1  0  0  0
 73 77  1  0  0  0
 74 80  2  0  0  0
 74 81  1  0  0  0
 75 80  1  0  0  0
 75 82  1  0  0  0
 76 78  2  0  0  0
 76148  1  0  0  0
 77 83  1  0  0  0
 77 84  2  0  0  0
 78 79  1  0  0  0
 78 86  1  0  0  0
 79 83  1  0  0  0
 79 85  2  0  0  0
 81149  1  0  0  0
 81150  1  0  0  0
 82151  1  0  0  0
 83152  1  0  0  0
 84153  1  0  0  0
 84154  1  0  0  0
 86155  1  0  0  0
M  CHG  1  84   1
M  ISO  4   1 100  68 101  76 101  82 100
M  END
> <chiral flag>
0

> <version>
0

> <s_m_source_file>
/data/baiqing/PycharmProjects/Reinvent-master-3.2/result/LINK_invent/BTK/process_docking_weight1_custom_product_contain_oxygen_bond_distance_aromatic_linkinvent_7_9_3/rearranged_h_0161.sdf

> <i_m_source_file_index>
33

> <r_mmod_Potential_Energy-OPLS-2005>
-681.076293945312

> <r_mmod_Stretch_Energy-OPLS-2005>
46.4180450439453

> <r_mmod_Bend_Energy-OPLS-2005>
111.363739013672

> <r_mmod_Torsional_Energy-OPLS-2005>
198.518112182617

> <r_mmod_Improper_Torsional_Energy-OPLS-2005>
8.15886497497559

> <r_mmod_Van_der_Waal_Energy-OPLS-2005>
174.406646728516

> <r_mmod_Electrostatic_Energy-OPLS-2005>
-726.195251464844

> <r_mmod_Solvation_Energy-OPLS-2005>
-518.920227050781

> <b_mmod_Minimization_Converged-OPLS-2005>
0

> <r_mmod_RMS_Derivative-OPLS-2005>
1.38233828544617

$$$$
33
                    3D
 Structure written by MMmdl.
156164  0  0  1  0            999 V2000
  -30.5975  -14.8150   20.4390 C   0  0  0  0  0  0
  -30.4395  -12.5000   19.4740 C   0  0  0  0  0  0
  -29.5141  -12.5129   18.2370 C   0  0  0  0  0  0
  -28.0419  -12.3274   18.6544 C   0  0  0  0  0  0
  -27.6387  -13.2374   19.8455 C   0  0  2  0  0  0
  -28.6890  -13.2077   20.9767 C   0  0  0  0  0  0
  -25.2511  -13.8201   20.5726 C   0  0  0  0  0  0
  -24.1814  -13.0438   20.9234 C   0  0  0  0  0  0
  -24.6408  -11.6918   20.8762 C   0  0  0  0  0  0
  -23.9087  -10.4291   21.0401 C   0  0  0  0  0  0
  -24.3623   -9.4202   21.9183 C   0  0  0  0  0  0
  -23.6295   -8.2240   22.0756 C   0  0  0  0  0  0
  -22.4281   -8.0278   21.3546 C   0  0  0  0  0  0
  -21.9918   -9.0257   20.4655 C   0  0  0  0  0  0
  -22.7248  -10.2133   20.3058 C   0  0  0  0  0  0
  -21.6855   -6.0733   22.5280 C   0  0  0  0  0  0
  -21.4016   -6.5634   23.8211 C   0  0  0  0  0  0
  -21.3664   -5.6791   24.9175 C   0  0  0  0  0  0
  -21.6035   -4.3051   24.7223 C   0  0  0  0  0  0
  -21.8820   -3.8145   23.4346 C   0  0  0  0  0  0
  -21.9192   -4.6965   22.3403 C   0  0  0  0  0  0
  -22.7827  -13.5216   21.1876 C   0  0  0  0  0  0
  -22.1661   -4.2151   21.0981 F   0  0  0  0  0  0
  -21.5633   -3.4533   25.7736 F   0  0  0  0  0  0
  -29.9788  -13.5795   20.3810 N   0  0  0  0  0  0
  -26.2943  -12.9421   20.3287 N   0  0  0  0  0  0
  -25.9338  -11.6555   20.5745 N   0  0  0  0  0  0
  -22.0463  -12.8225   22.0434 N   0  0  0  0  0  0
  -25.4166  -15.1938   20.4157 N   0  0  0  0  0  0
  -31.8035  -14.8855   20.1785 O   0  0  0  0  0  0
  -21.6641   -6.8877   21.4241 O   0  0  0  0  0  0
  -22.3518  -14.5512   20.6691 O   0  0  0  0  0  0
  -24.6402  -31.8517   23.1992 C   0  0  0  0  0  0
  -25.9205  -32.4748   23.8338 C   0  0  1  0  0  0
  -27.2076  -27.1963   20.1236 C   0  0  0  0  0  0
  -25.5977  -33.8551   24.2272 N   0  0  0  0  0  0
  -23.4372  -30.4806   21.5442 C   0  0  2  0  0  0
  -24.8800  -28.9253   20.1133 C   0  0  0  0  0  0
  -22.7539  -29.4613   22.4899 C   0  0  0  0  0  0
  -18.0315  -28.1391   22.8452 C   0  0  0  0  0  0
  -24.1489  -36.7266   23.2640 C   0  0  0  0  0  0
  -25.9927  -30.7464   21.3867 C   0  0  0  0  0  0
  -26.0603  -29.3655   20.7242 C   0  0  0  0  0  0
  -27.2250  -28.5180   20.7137 C   0  0  0  0  0  0
  -25.9918  -26.8537   19.4862 C   0  0  0  0  0  0
  -24.8552  -27.6786   19.4837 C   0  0  0  0  0  0
  -23.6583  -29.8230   20.1590 C   0  0  0  0  0  0
  -25.4120  -36.3065   24.0332 C   0  0  1  0  0  0
  -20.5923  -28.3705   23.1233 C   0  0  2  0  0  0
  -20.6814  -26.9451   22.5311 C   0  0  0  0  0  0
  -19.5782  -26.6456   21.5113 C   0  0  0  0  0  0
  -18.1951  -26.7979   22.1504 C   0  0  0  0  0  0
  -19.1569  -28.8848   23.2872 C   0  0  0  0  0  0
  -18.9488  -30.1428   23.8933 C   0  0  0  0  0  0
  -17.6479  -30.6556   24.0596 C   0  0  0  0  0  0
  -25.9068  -34.9434   23.5101 C   0  0  0  0  0  0
  -16.5374  -29.9071   23.6329 C   0  0  0  0  0  0
  -16.7299  -28.6504   23.0323 C   0  0  0  0  0  0
  -26.4555  -31.6582   25.0733 C   0  0  0  0  0  0
  -25.3772  -31.3727   26.1446 C   0  0  0  0  0  0
  -27.0403  -30.2992   24.6257 C   0  0  0  0  0  0
  -27.6115  -32.4321   25.7506 C   0  0  0  0  0  0
  -27.5582  -37.1792   24.8471 C   0  0  0  0  0  0
  -21.4227  -29.3105   22.3669 N   0  0  0  0  0  0
  -26.4290  -37.3769   23.9418 N   0  0  0  0  0  0
  -24.7103  -31.0452   22.0985 N   0  0  0  0  0  0
  -23.4223  -28.8107   23.2967 O   0  0  0  0  0  0
  -28.2902  -26.2537   20.1910 O   0  0  0  0  0  0
  -26.5616  -34.8900   22.4658 O   0  0  0  0  0  0
  -23.5535  -32.1344   23.7262 O   0  0  0  0  0  0
  -31.1260  -19.3518   20.9052 C   0  0  0  0  0  0
  -31.2775  -17.9186   20.9659 C   0  0  0  0  0  0
  -29.8697  -19.6841   20.4540 C   0  0  0  0  0  0
  -30.0988  -17.3522   20.5596 C   0  0  0  0  0  0
  -29.2222  -21.0184   20.0700 C   0  0  0  0  0  0
  -27.9309  -24.4062   18.5381 C   0  0  0  0  0  0
  -26.9976  -24.2301   20.9583 C   0  0  0  0  0  0
  -29.4259  -23.8014   20.4736 C   0  0  0  0  0  0
  -28.1431  -24.7200   20.0404 C   0  0  0  0  0  0
  -28.4071  -21.0078   19.0118 N   0  0  0  0  0  0
  -29.8008  -15.9654   20.5339 N   0  0  0  0  0  0
  -29.4794  -22.2450   20.6970 N   0  3  0  0  0  0
  -29.2166  -18.4295   20.2444 O   0  0  0  0  0  0
  -31.4779  -12.6355   19.1668 H   0  0  0  0  0  0
  -30.3993  -11.5326   19.9800 H   0  0  0  0  0  0
  -29.8054  -11.7261   17.5412 H   0  0  0  0  0  0
  -29.6298  -13.4563   17.7005 H   0  0  0  0  0  0
  -27.9100  -11.2811   18.9294 H   0  0  0  0  0  0
  -27.3825  -12.5021   17.8038 H   0  0  0  0  0  0
  -27.6185  -14.2511   19.4473 H   0  0  0  0  0  0
  -28.7480  -12.2173   21.4326 H   0  0  0  0  0  0
  -28.4154  -13.8993   21.7761 H   0  0  0  0  0  0
  -25.2753   -9.5684   22.4769 H   0  0  0  0  0  0
  -24.0002   -7.4630   22.7469 H   0  0  0  0  0  0
  -21.0850   -8.8773   19.8961 H   0  0  0  0  0  0
  -22.3698  -10.9674   19.6177 H   0  0  0  0  0  0
  -21.2008   -7.6143   23.9721 H   0  0  0  0  0  0
  -21.1487   -6.0514   25.9078 H   0  0  0  0  0  0
  -22.0598   -2.7611   23.2840 H   0  0  0  0  0  0
  -22.4065  -11.9886   22.4838 H   0  0  0  0  0  0
  -21.1078  -13.1262   22.2612 H   0  0  0  0  0  0
  -24.6410  -15.8377   20.5247 H   0  0  0  0  0  0
  -26.2511  -15.6408   20.0586 H   0  0  0  0  0  0
  -26.7271  -32.5377   23.1069 H   0  0  0  0  0  0
  -25.0136  -33.9689   25.0428 H   0  0  0  0  0  0
  -22.7384  -31.3081   21.4014 H   0  0  0  0  0  0
  -23.3764  -35.9584   23.3294 H   0  0  0  0  0  0
  -24.3582  -36.8900   22.2057 H   0  0  0  0  0  0
  -23.7220  -37.6461   23.6656 H   0  0  0  0  0  0
  -26.1430  -31.5057   20.6172 H   0  0  0  0  0  0
  -26.8673  -30.7919   22.0250 H   0  0  0  0  0  0
  -28.1261  -28.8529   21.2090 H   0  0  0  0  0  0
  -25.8443  -25.9008   19.0123 H   0  0  0  0  0  0
  -23.9504  -27.3330   19.0026 H   0  0  0  0  0  0
  -23.7963  -30.6041   19.4107 H   0  0  0  0  0  0
  -22.7716  -29.2699   19.8441 H   0  0  0  0  0  0
  -25.1302  -36.1910   25.0824 H   0  0  0  0  0  0
  -21.0030  -28.3229   24.1350 H   0  0  0  0  0  0
  -20.5759  -26.2295   23.3475 H   0  0  0  0  0  0
  -21.6665  -26.7520   22.1041 H   0  0  0  0  0  0
  -19.6935  -25.6384   21.1094 H   0  0  0  0  0  0
  -19.6740  -27.3289   20.6659 H   0  0  0  0  0  0
  -17.4258  -26.6839   21.3849 H   0  0  0  0  0  0
  -18.0291  -26.0051   22.8808 H   0  0  0  0  0  0
  -19.7956  -30.7233   24.2340 H   0  0  0  0  0  0
  -17.5023  -31.6209   24.5247 H   0  0  0  0  0  0
  -15.5366  -30.2961   23.7671 H   0  0  0  0  0  0
  -15.8708  -28.0839   22.7009 H   0  0  0  0  0  0
  -24.5983  -30.7037   25.7780 H   0  0  0  0  0  0
  -24.8907  -32.2874   26.4833 H   0  0  0  0  0  0
  -25.8084  -30.8948   27.0249 H   0  0  0  0  0  0
  -26.2990  -29.6730   24.1275 H   0  0  0  0  0  0
  -27.4067  -29.7277   25.4796 H   0  0  0  0  0  0
  -27.8885  -30.4271   23.9526 H   0  0  0  0  0  0
  -27.2755  -33.3652   26.2042 H   0  0  0  0  0  0
  -28.3936  -32.6835   25.0327 H   0  0  0  0  0  0
  -28.0758  -31.8454   26.5442 H   0  0  0  0  0  0
  -28.2593  -38.0094   24.7526 H   0  0  0  0  0  0
  -28.1078  -36.2625   24.6286 H   0  0  0  0  0  0
  -27.2292  -37.1440   25.8870 H   0  0  0  0  0  0
  -20.9405  -29.8903   21.6945 H   0  0  0  0  0  0
  -26.0168  -38.2846   24.1419 H   0  0  0  0  0  0
  -31.8911  -20.0782   21.1365 H   0  0  0  0  0  0
  -32.1585  -17.3758   21.2782 H   0  0  0  0  0  0
  -27.3901  -23.4727   18.3865 H   0  0  0  0  0  0
  -28.8889  -24.3117   18.0263 H   0  0  0  0  0  0
  -27.4161  -25.1802   17.9773 H   0  0  0  0  0  0
  -26.0208  -24.6453   20.7361 H   0  0  0  0  0  0
  -27.2146  -24.4624   22.0013 H   0  0  0  0  0  0
  -26.8763  -23.1492   20.8876 H   0  0  0  0  0  0
  -29.7489  -24.2029   21.4339 H   0  0  0  0  0  0
  -30.2501  -24.0410   19.8016 H   0  0  0  0  0  0
  -27.9224  -21.8236   18.6848 H   0  0  0  0  0  0
  -28.2339  -20.1294   18.5455 H   0  0  0  0  0  0
  -28.8160  -15.7560   20.5664 H   0  0  0  0  0  0
  -30.0063  -22.0769   21.5428 H   0  0  0  0  0  0
  1 25  1  0  0  0
  1 30  2  0  0  0
  1 81  1  0  0  0
  2  3  1  0  0  0
  2 25  1  0  0  0
  2 84  1  0  0  0
  2 85  1  0  0  0
  3  4  1  0  0  0
  3 86  1  0  0  0
  3 87  1  0  0  0
  4  5  1  0  0  0
  4 88  1  0  0  0
  4 89  1  0  0  0
  5  6  1  0  0  0
  5 26  1  0  0  0
  5 90  1  0  0  0
  6 25  1  0  0  0
  6 91  1  0  0  0
  6 92  1  0  0  0
  7  8  2  0  0  0
  7 26  1  0  0  0
  7 29  1  0  0  0
  8  9  1  0  0  0
  8 22  1  0  0  0
  9 10  1  0  0  0
  9 27  2  0  0  0
 10 11  2  0  0  0
 10 15  1  0  0  0
 11 12  1  0  0  0
 11 93  1  0  0  0
 12 13  2  0  0  0
 12 94  1  0  0  0
 13 14  1  0  0  0
 13 31  1  0  0  0
 14 15  2  0  0  0
 14 95  1  0  0  0
 15 96  1  0  0  0
 16 17  2  0  0  0
 16 21  1  0  0  0
 16 31  1  0  0  0
 17 18  1  0  0  0
 17 97  1  0  0  0
 18 19  2  0  0  0
 18 98  1  0  0  0
 19 20  1  0  0  0
 19 24  1  0  0  0
 20 21  2  0  0  0
 20 99  1  0  0  0
 21 23  1  0  0  0
 22 28  1  0  0  0
 22 32  2  0  0  0
 26 27  1  0  0  0
 28100  1  0  0  0
 28101  1  0  0  0
 29102  1  0  0  0
 29103  1  0  0  0
 33 34  1  0  0  0
 33 66  1  0  0  0
 33 70  2  0  0  0
 34 36  1  0  0  0
 34 59  1  0  0  0
 34104  1  0  0  0
 35 44  2  0  0  0
 35 45  1  0  0  0
 35 68  1  0  0  0
 36 56  1  0  0  0
 36105  1  0  0  0
 37 39  1  0  0  0
 37 47  1  0  0  0
 37 66  1  0  0  0
 37106  1  0  0  0
 38 43  2  0  0  0
 38 46  1  0  0  0
 38 47  1  0  0  0
 39 64  1  0  0  0
 39 67  2  0  0  0
 40 52  1  0  0  0
 40 53  2  0  0  0
 40 58  1  0  0  0
 41107  1  0  0  0
 41108  1  0  0  0
 41109  1  0  0  0
 41 48  1  0  0  0
 42 43  1  0  0  0
 42 66  1  0  0  0
 42110  1  0  0  0
 42111  1  0  0  0
 43 44  1  0  0  0
 44112  1  0  0  0
 45 46  2  0  0  0
 45113  1  0  0  0
 46114  1  0  0  0
 47115  1  0  0  0
 47116  1  0  0  0
 48 56  1  0  0  0
 48 65  1  0  0  0
 48117  1  0  0  0
 49 50  1  0  0  0
 49 53  1  0  0  0
 49 64  1  0  0  0
 49118  1  0  0  0
 50 51  1  0  0  0
 50119  1  0  0  0
 50120  1  0  0  0
 51 52  1  0  0  0
 51121  1  0  0  0
 51122  1  0  0  0
 52123  1  0  0  0
 52124  1  0  0  0
 53 54  1  0  0  0
 54 55  2  0  0  0
 54125  1  0  0  0
 55 57  1  0  0  0
 55126  1  0  0  0
 56 69  2  0  0  0
 57 58  2  0  0  0
 57127  1  0  0  0
 58128  1  0  0  0
 59 60  1  0  0  0
 59 61  1  0  0  0
 59 62  1  0  0  0
 60129  1  0  0  0
 60130  1  0  0  0
 60131  1  0  0  0
 61132  1  0  0  0
 61133  1  0  0  0
 61134  1  0  0  0
 62135  1  0  0  0
 62136  1  0  0  0
 62137  1  0  0  0
 63 65  1  0  0  0
 63138  1  0  0  0
 63139  1  0  0  0
 63140  1  0  0  0
 64141  1  0  0  0
 65142  1  0  0  0
 68 79  1  0  0  0
 71 72  1  0  0  0
 71 73  2  0  0  0
 71143  1  0  0  0
 72 74  2  0  0  0
 72144  1  0  0  0
 73 75  1  0  0  0
 73 83  1  0  0  0
 74 81  1  0  0  0
 74 83  1  0  0  0
 75 80  1  0  0  0
 75 82  2  0  0  0
 76145  1  0  0  0
 76146  1  0  0  0
 76147  1  0  0  0
 76 79  1  0  0  0
 77 79  1  0  0  0
 77148  1  0  0  0
 77149  1  0  0  0
 77150  1  0  0  0
 78 79  1  0  0  0
 78 82  1  0  0  0
 78151  1  0  0  0
 78152  1  0  0  0
 80153  1  0  0  0
 80154  1  0  0  0
 81155  1  0  0  0
 82156  1  0  0  0
M  CHG  1  82   1
M  ISO  4   1 100  68 101  79 101  81 100
M  END
> <chiral flag>
0

> <version>
0

> <s_m_source_file>
/data/baiqing/PycharmProjects/Reinvent-master-3.2/result/LINK_invent/BTK/process_docking_weight1_custom_product_contain_oxygen_bond_distance_aromatic_linkinvent_7_9_3/rearranged_h_0161.sdf

> <i_m_source_file_index>
34

> <r_mmod_Potential_Energy-OPLS-2005>
81.4001083374023

> <r_mmod_Stretch_Energy-OPLS-2005>
166.261901855469

> <r_mmod_Bend_Energy-OPLS-2005>
244.136489868164

> <r_mmod_Torsional_Energy-OPLS-2005>
237.113342285156

> <r_mmod_Improper_Torsional_Energy-OPLS-2005>
6.88640117645264

> <r_mmod_Van_der_Waal_Energy-OPLS-2005>
126.868934631348

> <r_mmod_Electrostatic_Energy-OPLS-2005>
-366.635772705078

> <r_mmod_Solvation_Energy-OPLS-2005>
-457.050964355469

> <b_mmod_Minimization_Converged-OPLS-2005>
0

> <r_mmod_RMS_Derivative-OPLS-2005>
2.02756977081299

$$$$
34
                    3D
 Structure written by MMmdl.
153161  0  0  1  0            999 V2000
  -30.6875  -14.4679   20.6472 C   0  0  0  0  0  0
  -30.4371  -12.3347   19.4102 C   0  0  0  0  0  0
  -29.4961  -12.5114   18.1978 C   0  0  0  0  0  0
  -28.0185  -12.3575   18.6183 C   0  0  0  0  0  0
  -27.6631  -13.1918   19.8772 C   0  0  2  0  0  0
  -28.7024  -12.9443   20.9902 C   0  0  0  0  0  0
  -25.2611  -13.8101   20.5737 C   0  0  0  0  0  0
  -24.1847  -13.0439   20.9181 C   0  0  0  0  0  0
  -24.6327  -11.6875   20.8669 C   0  0  0  0  0  0
  -23.8977  -10.4291   21.0346 C   0  0  0  0  0  0
  -24.3533   -9.4237   21.9161 C   0  0  0  0  0  0
  -23.6247   -8.2262   22.0752 C   0  0  0  0  0  0
  -22.4229   -8.0280   21.3548 C   0  0  0  0  0  0
  -21.9832   -9.0239   20.4646 C   0  0  0  0  0  0
  -22.7119  -10.2132   20.3050 C   0  0  0  0  0  0
  -21.6861   -6.0727   22.5279 C   0  0  0  0  0  0
  -21.4002   -6.5625   23.8215 C   0  0  0  0  0  0
  -21.3661   -5.6779   24.9181 C   0  0  0  0  0  0
  -21.6084   -4.3049   24.7232 C   0  0  0  0  0  0
  -21.8815   -3.8135   23.4344 C   0  0  0  0  0  0
  -21.9181   -4.6953   22.3398 C   0  0  0  0  0  0
  -22.7868  -13.5264   21.1837 C   0  0  0  0  0  0
  -22.1650   -4.2136   21.0985 F   0  0  0  0  0  0
  -21.5649   -3.4536   25.7744 F   0  0  0  0  0  0
  -30.0310  -13.2891   20.4541 N   0  0  0  0  0  0
  -26.3009  -12.9256   20.3351 N   0  0  0  0  0  0
  -25.9248  -11.6419   20.5685 N   0  0  0  0  0  0
  -22.0487  -12.8354   22.0401 N   0  0  0  0  0  0
  -25.4410  -15.1859   20.4244 N   0  0  0  0  0  0
  -31.7871  -14.7116   20.1342 O   0  0  0  0  0  0
  -21.6647   -6.8856   21.4232 O   0  0  0  0  0  0
  -22.3611  -14.5595   20.6658 O   0  0  0  0  0  0
  -24.6265  -31.8648   23.1982 C   0  0  0  0  0  0
  -25.9136  -32.4791   23.8346 C   0  0  1  0  0  0
  -27.2556  -27.3945   20.1209 C   0  0  0  0  0  0
  -25.5918  -33.8590   24.2296 N   0  0  0  0  0  0
  -23.4184  -30.4819   21.5407 C   0  0  2  0  0  0
  -24.8642  -28.9322   20.1194 C   0  0  0  0  0  0
  -22.7505  -29.4703   22.4995 C   0  0  0  0  0  0
  -18.0349  -28.1363   22.8480 C   0  0  0  0  0  0
  -24.1470  -36.7291   23.2632 C   0  0  0  0  0  0
  -25.9508  -30.8134   21.3584 C   0  0  0  0  0  0
  -26.0252  -29.4464   20.7070 C   0  0  0  0  0  0
  -27.2246  -28.6889   20.6932 C   0  0  0  0  0  0
  -26.0681  -26.9029   19.5276 C   0  0  0  0  0  0
  -24.8830  -27.6612   19.5208 C   0  0  0  0  0  0
  -23.6239  -29.7977   20.1632 C   0  0  0  0  0  0
  -25.4088  -36.3083   24.0342 C   0  0  1  0  0  0
  -20.5927  -28.3698   23.1308 C   0  0  2  0  0  0
  -20.6833  -26.9402   22.5457 C   0  0  0  0  0  0
  -19.5803  -26.6231   21.5318 C   0  0  0  0  0  0
  -18.1976  -26.7864   22.1716 C   0  0  0  0  0  0
  -19.1560  -28.8858   23.2871 C   0  0  0  0  0  0
  -18.9446  -30.1492   23.8858 C   0  0  0  0  0  0
  -17.6431  -30.6563   24.0533 C   0  0  0  0  0  0
  -25.9039  -34.9465   23.5138 C   0  0  0  0  0  0
  -16.5360  -29.9012   23.6280 C   0  0  0  0  0  0
  -16.7330  -28.6453   23.0310 C   0  0  0  0  0  0
  -26.4512  -31.6592   25.0720 C   0  0  0  0  0  0
  -25.3746  -31.3772   26.1461 C   0  0  0  0  0  0
  -27.0359  -30.3017   24.6163 C   0  0  0  0  0  0
  -27.6072  -32.4367   25.7475 C   0  0  0  0  0  0
  -27.5585  -37.1786   24.8469 C   0  0  0  0  0  0
  -21.4231  -29.3059   22.3714 N   0  0  0  0  0  0
  -26.4269  -37.3785   23.9431 N   0  0  0  0  0  0
  -24.6839  -31.0698   22.0895 N   0  0  0  0  0  0
  -23.4237  -28.8292   23.3109 O   0  0  0  0  0  0
  -28.4272  -26.6467   20.1765 O   0  0  0  0  0  0
  -26.5600  -34.8936   22.4705 O   0  0  0  0  0  0
  -23.5426  -32.1411   23.7316 O   0  0  0  0  0  0
  -30.9400  -18.8235   22.0629 C   0  0  0  0  0  0
  -30.0787  -19.2575   21.0641 C   0  0  0  0  0  0
  -30.2008  -16.7758   21.3647 C   0  0  0  0  0  0
  -29.3821  -22.8413   20.0747 C   0  0  0  0  0  0
  -29.9864  -21.7735   21.0011 C   0  0  0  0  0  0
  -31.8403  -19.6568   22.9181 C   0  0  0  0  0  0
  -29.5816  -24.3536   20.3703 C   0  0  0  0  0  0
  -28.3007  -25.2069   20.0794 C   0  0  0  0  0  0
  -30.9734  -17.4266   22.2409 N   0  0  0  0  0  0
  -28.7226  -22.5249   19.0387 N   0  0  0  0  0  0
  -29.7612  -20.5001   20.5728 N   0  0  0  0  0  0
  -30.0164  -15.3684   21.3886 N   0  0  0  0  0  0
  -30.5957  -22.0955   22.0213 O   0  0  0  0  0  0
  -29.3244  -17.8587   20.2986 S   0  0  0  0  0  0
  -31.4795  -12.4683   19.1132 H   0  0  0  0  0  0
  -30.3643  -11.3199   19.7988 H   0  0  0  0  0  0
  -29.7315  -11.7827   17.4229 H   0  0  0  0  0  0
  -29.6481  -13.4911   17.7403 H   0  0  0  0  0  0
  -27.8361  -11.2972   18.8108 H   0  0  0  0  0  0
  -27.3598  -12.6301   17.7924 H   0  0  0  0  0  0
  -27.7187  -14.2411   19.5844 H   0  0  0  0  0  0
  -28.6999  -11.8892   21.2779 H   0  0  0  0  0  0
  -28.4386  -13.4833   21.9010 H   0  0  0  0  0  0
  -25.2662   -9.5815   22.4735 H   0  0  0  0  0  0
  -23.9986   -7.4683   22.7482 H   0  0  0  0  0  0
  -21.0762   -8.8731   19.8966 H   0  0  0  0  0  0
  -22.3521  -10.9672   19.6185 H   0  0  0  0  0  0
  -21.1997   -7.6126   23.9720 H   0  0  0  0  0  0
  -21.1474   -6.0497   25.9083 H   0  0  0  0  0  0
  -22.0576   -2.7596   23.2853 H   0  0  0  0  0  0
  -22.3980  -11.9949   22.4779 H   0  0  0  0  0  0
  -21.1135  -13.1486   22.2572 H   0  0  0  0  0  0
  -24.6840  -15.8467   20.5588 H   0  0  0  0  0  0
  -26.2948  -15.6216   20.1039 H   0  0  0  0  0  0
  -26.7287  -32.5494   23.1169 H   0  0  0  0  0  0
  -25.0154  -33.9718   25.0513 H   0  0  0  0  0  0
  -22.7105  -31.2995   21.3928 H   0  0  0  0  0  0
  -23.3710  -35.9648   23.3296 H   0  0  0  0  0  0
  -24.3564  -36.8897   22.2043 H   0  0  0  0  0  0
  -23.7220  -37.6503   23.6635 H   0  0  0  0  0  0
  -26.0784  -31.5756   20.5877 H   0  0  0  0  0  0
  -26.8338  -30.8610   21.9850 H   0  0  0  0  0  0
  -28.1285  -29.0759   21.1434 H   0  0  0  0  0  0
  -26.0321  -25.9227   19.0751 H   0  0  0  0  0  0
  -23.9932  -27.2553   19.0587 H   0  0  0  0  0  0
  -23.7285  -30.5555   19.3875 H   0  0  0  0  0  0
  -22.7509  -29.2022   19.8884 H   0  0  0  0  0  0
  -25.1262  -36.1985   25.0830 H   0  0  0  0  0  0
  -20.9985  -28.3286   24.1437 H   0  0  0  0  0  0
  -20.5707  -26.2356   23.3710 H   0  0  0  0  0  0
  -21.6709  -26.7379   22.1312 H   0  0  0  0  0  0
  -19.6949  -25.6071   21.1534 H   0  0  0  0  0  0
  -19.6714  -27.2917   20.6758 H   0  0  0  0  0  0
  -17.4239  -26.6597   21.4130 H   0  0  0  0  0  0
  -18.0305  -26.0039   22.9173 H   0  0  0  0  0  0
  -19.7924  -30.7321   24.2174 H   0  0  0  0  0  0
  -17.4913  -31.6242   24.5082 H   0  0  0  0  0  0
  -15.5318  -30.2837   23.7542 H   0  0  0  0  0  0
  -15.8772  -28.0758   22.6968 H   0  0  0  0  0  0
  -24.5864  -30.7192   25.7786 H   0  0  0  0  0  0
  -24.8994  -32.2961   26.4912 H   0  0  0  0  0  0
  -25.8037  -30.8918   27.0238 H   0  0  0  0  0  0
  -26.2920  -29.6762   24.1208 H   0  0  0  0  0  0
  -27.4086  -29.7292   25.4663 H   0  0  0  0  0  0
  -27.8779  -30.4288   23.9356 H   0  0  0  0  0  0
  -27.2660  -33.3648   26.2087 H   0  0  0  0  0  0
  -28.3825  -32.7007   25.0270 H   0  0  0  0  0  0
  -28.0828  -31.8522   26.5359 H   0  0  0  0  0  0
  -28.2622  -38.0071   24.7523 H   0  0  0  0  0  0
  -28.1064  -36.2607   24.6281 H   0  0  0  0  0  0
  -27.2320  -37.1449   25.8879 H   0  0  0  0  0  0
  -20.9422  -29.8755   21.6888 H   0  0  0  0  0  0
  -26.0167  -38.2887   24.1398 H   0  0  0  0  0  0
  -31.2770  -20.3977   23.4829 H   0  0  0  0  0  0
  -32.5809  -20.1614   22.2934 H   0  0  0  0  0  0
  -32.3699  -19.0769   23.6716 H   0  0  0  0  0  0
  -30.3873  -24.7104   19.7282 H   0  0  0  0  0  0
  -29.9301  -24.5054   21.3942 H   0  0  0  0  0  0
  -27.5042  -24.8585   20.7460 H   0  0  0  0  0  0
  -27.9767  -24.9989   19.0604 H   0  0  0  0  0  0
  -28.6470  -21.5256   18.9191 H   0  0  0  0  0  0
  -29.1999  -20.4701   19.7379 H   0  0  0  0  0  0
  -29.0967  -15.0555   21.6639 H   0  0  0  0  0  0
  1 25  1  0  0  0
  1 30  2  0  0  0
  1 82  1  0  0  0
  2  3  1  0  0  0
  2 25  1  0  0  0
  2 85  1  0  0  0
  2 86  1  0  0  0
  3  4  1  0  0  0
  3 87  1  0  0  0
  3 88  1  0  0  0
  4  5  1  0  0  0
  4 89  1  0  0  0
  4 90  1  0  0  0
  5  6  1  0  0  0
  5 26  1  0  0  0
  5 91  1  0  0  0
  6 25  1  0  0  0
  6 92  1  0  0  0
  6 93  1  0  0  0
  7  8  2  0  0  0
  7 26  1  0  0  0
  7 29  1  0  0  0
  8  9  1  0  0  0
  8 22  1  0  0  0
  9 10  1  0  0  0
  9 27  2  0  0  0
 10 11  2  0  0  0
 10 15  1  0  0  0
 11 12  1  0  0  0
 11 94  1  0  0  0
 12 13  2  0  0  0
 12 95  1  0  0  0
 13 14  1  0  0  0
 13 31  1  0  0  0
 14 15  2  0  0  0
 14 96  1  0  0  0
 15 97  1  0  0  0
 16 17  2  0  0  0
 16 21  1  0  0  0
 16 31  1  0  0  0
 17 18  1  0  0  0
 17 98  1  0  0  0
 18 19  2  0  0  0
 18 99  1  0  0  0
 19 20  1  0  0  0
 19 24  1  0  0  0
 20 21  2  0  0  0
 20100  1  0  0  0
 21 23  1  0  0  0
 22 28  1  0  0  0
 22 32  2  0  0  0
 26 27  1  0  0  0
 28101  1  0  0  0
 28102  1  0  0  0
 29103  1  0  0  0
 29104  1  0  0  0
 33 34  1  0  0  0
 33 66  1  0  0  0
 33 70  2  0  0  0
 34 36  1  0  0  0
 34 59  1  0  0  0
 34105  1  0  0  0
 35 44  2  0  0  0
 35 45  1  0  0  0
 35 68  1  0  0  0
 36 56  1  0  0  0
 36106  1  0  0  0
 37 39  1  0  0  0
 37 47  1  0  0  0
 37 66  1  0  0  0
 37107  1  0  0  0
 38 43  2  0  0  0
 38 46  1  0  0  0
 38 47  1  0  0  0
 39 64  1  0  0  0
 39 67  2  0  0  0
 40 52  1  0  0  0
 40 53  2  0  0  0
 40 58  1  0  0  0
 41108  1  0  0  0
 41109  1  0  0  0
 41110  1  0  0  0
 41 48  1  0  0  0
 42 43  1  0  0  0
 42 66  1  0  0  0
 42111  1  0  0  0
 42112  1  0  0  0
 43 44  1  0  0  0
 44113  1  0  0  0
 45 46  2  0  0  0
 45114  1  0  0  0
 46115  1  0  0  0
 47116  1  0  0  0
 47117  1  0  0  0
 48 56  1  0  0  0
 48 65  1  0  0  0
 48118  1  0  0  0
 49 50  1  0  0  0
 49 53  1  0  0  0
 49 64  1  0  0  0
 49119  1  0  0  0
 50 51  1  0  0  0
 50120  1  0  0  0
 50121  1  0  0  0
 51 52  1  0  0  0
 51122  1  0  0  0
 51123  1  0  0  0
 52124  1  0  0  0
 52125  1  0  0  0
 53 54  1  0  0  0
 54 55  2  0  0  0
 54126  1  0  0  0
 55 57  1  0  0  0
 55127  1  0  0  0
 56 69  2  0  0  0
 57 58  2  0  0  0
 57128  1  0  0  0
 58129  1  0  0  0
 59 60  1  0  0  0
 59 61  1  0  0  0
 59 62  1  0  0  0
 60130  1  0  0  0
 60131  1  0  0  0
 60132  1  0  0  0
 61133  1  0  0  0
 61134  1  0  0  0
 61135  1  0  0  0
 62136  1  0  0  0
 62137  1  0  0  0
 62138  1  0  0  0
 63 65  1  0  0  0
 63139  1  0  0  0
 63140  1  0  0  0
 63141  1  0  0  0
 64142  1  0  0  0
 65143  1  0  0  0
 68 78  1  0  0  0
 71 72  2  0  0  0
 71 76  1  0  0  0
 71 79  1  0  0  0
 72 81  1  0  0  0
 72 84  1  0  0  0
 73 79  2  0  0  0
 73 82  1  0  0  0
 73 84  1  0  0  0
 74 75  1  0  0  0
 74 77  1  0  0  0
 74 80  2  0  0  0
 75 81  1  0  0  0
 75 83  2  0  0  0
 76144  1  0  0  0
 76145  1  0  0  0
 76146  1  0  0  0
 77 78  1  0  0  0
 77147  1  0  0  0
 77148  1  0  0  0
 78149  1  0  0  0
 78150  1  0  0  0
 80151  1  0  0  0
 81152  1  0  0  0
 82153  1  0  0  0
M  ISO  4   1 100  68 101  78 101  82 100
M  END
> <chiral flag>
0

> <version>
0

> <s_m_source_file>
/data/baiqing/PycharmProjects/Reinvent-master-3.2/result/LINK_invent/BTK/process_docking_weight1_custom_product_contain_oxygen_bond_distance_aromatic_linkinvent_7_9_3/rearranged_h_0161.sdf

> <i_m_source_file_index>
35

> <r_mmod_Potential_Energy-OPLS-2005>
-111.866897583008

> <r_mmod_Stretch_Energy-OPLS-2005>
47.1236763000488

> <r_mmod_Bend_Energy-OPLS-2005>
123.258979797363

> <r_mmod_Torsional_Energy-OPLS-2005>
230.140121459961

> <r_mmod_Improper_Torsional_Energy-OPLS-2005>
4.14948129653931

> <r_mmod_Van_der_Waal_Energy-OPLS-2005>
145.081253051758

> <r_mmod_Electrostatic_Energy-OPLS-2005>
-432.858245849609

> <r_mmod_Solvation_Energy-OPLS-2005>
-246.89875793457

> <b_mmod_Minimization_Converged-OPLS-2005>
0

> <r_mmod_RMS_Derivative-OPLS-2005>
7.60605001449585

$$$$
35
                    3D
 Structure written by MMmdl.
155163  0  0  1  0            999 V2000
  -30.6975  -14.4053   20.5656 C   0  0  0  0  0  0
  -30.4165  -12.2671   19.4106 C   0  0  0  0  0  0
  -29.5000  -12.5292   18.1975 C   0  0  0  0  0  0
  -28.0150  -12.4183   18.5976 C   0  0  0  0  0  0
  -27.6674  -13.2118   19.8847 C   0  0  2  0  0  0
  -28.7037  -12.9372   20.9986 C   0  0  0  0  0  0
  -25.2594  -13.8152   20.5658 C   0  0  0  0  0  0
  -24.1821  -13.0442   20.9111 C   0  0  0  0  0  0
  -24.6359  -11.6897   20.8676 C   0  0  0  0  0  0
  -23.9000  -10.4310   21.0398 C   0  0  0  0  0  0
  -24.3575   -9.4239   21.9186 C   0  0  0  0  0  0
  -23.6258   -8.2288   22.0760 C   0  0  0  0  0  0
  -22.4250   -8.0291   21.3539 C   0  0  0  0  0  0
  -21.9845   -9.0255   20.4661 C   0  0  0  0  0  0
  -22.7166  -10.2119   20.3062 C   0  0  0  0  0  0
  -21.6863   -6.0703   22.5259 C   0  0  0  0  0  0
  -21.4044   -6.5610   23.8168 C   0  0  0  0  0  0
  -21.3658   -5.6761   24.9151 C   0  0  0  0  0  0
  -21.6034   -4.3022   24.7194 C   0  0  0  0  0  0
  -21.8830   -3.8112   23.4327 C   0  0  0  0  0  0
  -21.9197   -4.6940   22.3367 C   0  0  0  0  0  0
  -22.7865  -13.5290   21.1787 C   0  0  0  0  0  0
  -22.1674   -4.2131   21.0957 F   0  0  0  0  0  0
  -21.5604   -3.4503   25.7707 F   0  0  0  0  0  0
  -30.0434  -13.2257   20.4609 N   0  0  0  0  0  0
  -26.3035  -12.9340   20.3347 N   0  0  0  0  0  0
  -25.9293  -11.6486   20.5666 N   0  0  0  0  0  0
  -22.0474  -12.8350   22.0371 N   0  0  0  0  0  0
  -25.4292  -15.1883   20.4116 N   0  0  0  0  0  0
  -31.8420  -14.5871   20.1332 O   0  0  0  0  0  0
  -21.6649   -6.8874   21.4215 O   0  0  0  0  0  0
  -22.3598  -14.5622   20.6616 O   0  0  0  0  0  0
  -24.6126  -31.8689   23.2108 C   0  0  0  0  0  0
  -25.8998  -32.4840   23.8410 C   0  0  1  0  0  0
  -27.2482  -27.4569   20.1069 C   0  0  0  0  0  0
  -25.5856  -33.8633   24.2358 N   0  0  0  0  0  0
  -23.4032  -30.4931   21.5449 C   0  0  2  0  0  0
  -24.8554  -28.9593   20.1134 C   0  0  0  0  0  0
  -22.7399  -29.4681   22.4942 C   0  0  0  0  0  0
  -18.0278  -28.1419   22.8460 C   0  0  0  0  0  0
  -24.1485  -36.7317   23.2632 C   0  0  0  0  0  0
  -25.9251  -30.8493   21.3552 C   0  0  0  0  0  0
  -26.0109  -29.4824   20.7058 C   0  0  0  0  0  0
  -27.2114  -28.7395   20.6936 C   0  0  0  0  0  0
  -26.0731  -26.9384   19.5156 C   0  0  0  0  0  0
  -24.8813  -27.6870   19.5142 C   0  0  0  0  0  0
  -23.6166  -29.8257   20.1576 C   0  0  0  0  0  0
  -25.4098  -36.3140   24.0363 C   0  0  1  0  0  0
  -20.5863  -28.3725   23.1280 C   0  0  2  0  0  0
  -20.6789  -26.9456   22.5404 C   0  0  0  0  0  0
  -19.5767  -26.6413   21.5191 C   0  0  0  0  0  0
  -18.1948  -26.7964   22.1603 C   0  0  0  0  0  0
  -19.1526  -28.8875   23.2884 C   0  0  0  0  0  0
  -18.9479  -30.1464   23.8927 C   0  0  0  0  0  0
  -17.6488  -30.6622   24.0575 C   0  0  0  0  0  0
  -25.9006  -34.9495   23.5171 C   0  0  0  0  0  0
  -16.5366  -29.9123   23.6315 C   0  0  0  0  0  0
  -16.7277  -28.6535   23.0328 C   0  0  0  0  0  0
  -26.4451  -31.6598   25.0708 C   0  0  0  0  0  0
  -25.3755  -31.3651   26.1492 C   0  0  0  0  0  0
  -27.0243  -30.3057   24.5992 C   0  0  0  0  0  0
  -27.6092  -32.4255   25.7446 C   0  0  0  0  0  0
  -27.5604  -37.1804   24.8457 C   0  0  0  0  0  0
  -21.4126  -29.3076   22.3679 N   0  0  0  0  0  0
  -26.4291  -37.3831   23.9438 N   0  0  0  0  0  0
  -24.6647  -31.0811   22.0988 N   0  0  0  0  0  0
  -23.4161  -28.8210   23.3005 O   0  0  0  0  0  0
  -28.4420  -26.7715   20.1193 O   0  0  0  0  0  0
  -26.5570  -34.8934   22.4734 O   0  0  0  0  0  0
  -23.5324  -32.1469   23.7490 O   0  0  0  0  0  0
  -29.5963  -17.8499   20.9201 C   0  0  0  0  0  0
  -29.7914  -18.4618   18.6745 C   0  0  0  0  0  0
  -29.5970  -18.9048   19.9550 C   0  0  0  0  0  0
  -29.8846  -16.6221   20.3736 C   0  0  0  0  0  0
  -29.3713  -20.3116   20.2280 C   0  0  0  0  0  0
  -29.6325  -24.7934   20.8674 C   0  0  0  0  0  0
  -29.5509  -23.3380   21.3775 C   0  0  0  0  0  0
  -31.9044  -20.6834   20.3443 C   0  0  0  0  0  0
  -28.3912  -25.3402   20.1483 C   0  0  0  0  0  0
  -30.5291  -21.0858   20.9279 C   0  0  1  0  0  0
  -29.9532  -15.4278   21.0150 N   0  0  0  0  0  0
  -30.3842  -22.5279   20.7100 N   0  0  0  0  0  0
  -28.3337  -20.8833   19.8739 O   0  0  0  0  0  0
  -30.6666  -25.4651   20.9950 O   0  0  0  0  0  0
  -28.8195  -22.9786   22.3054 O   0  0  0  0  0  0
  -30.0754  -16.7580   18.6286 S   0  0  0  0  0  0
  -31.4691  -12.3398   19.1283 H   0  0  0  0  0  0
  -30.2754  -11.2462   19.7671 H   0  0  0  0  0  0
  -29.7174  -11.8225   17.3960 H   0  0  0  0  0  0
  -29.7030  -13.5186   17.7839 H   0  0  0  0  0  0
  -27.7856  -11.3591   18.7324 H   0  0  0  0  0  0
  -27.3929  -12.7627   17.7695 H   0  0  0  0  0  0
  -27.7213  -14.2700   19.6256 H   0  0  0  0  0  0
  -28.6600  -11.8894   21.2979 H   0  0  0  0  0  0
  -28.4828  -13.5103   21.8998 H   0  0  0  0  0  0
  -25.2720   -9.5697   22.4759 H   0  0  0  0  0  0
  -23.9906   -7.4692   22.7494 H   0  0  0  0  0  0
  -21.0734   -8.8783   19.9012 H   0  0  0  0  0  0
  -22.3605  -10.9653   19.6173 H   0  0  0  0  0  0
  -21.2078   -7.6123   23.9671 H   0  0  0  0  0  0
  -21.1474   -6.0512   25.9038 H   0  0  0  0  0  0
  -22.0610   -2.7574   23.2851 H   0  0  0  0  0  0
  -22.4024  -11.9972   22.4762 H   0  0  0  0  0  0
  -21.1134  -13.1484   22.2576 H   0  0  0  0  0  0
  -24.6589  -15.8420   20.5140 H   0  0  0  0  0  0
  -26.2789  -15.6244   20.0774 H   0  0  0  0  0  0
  -26.7087  -32.5588   23.1202 H   0  0  0  0  0  0
  -25.0029  -33.9805   25.0519 H   0  0  0  0  0  0
  -22.6979  -31.3154   21.3990 H   0  0  0  0  0  0
  -23.3780  -35.9610   23.3269 H   0  0  0  0  0  0
  -24.3628  -36.8945   22.2056 H   0  0  0  0  0  0
  -23.7183  -37.6497   23.6649 H   0  0  0  0  0  0
  -26.0265  -31.6211   20.5912 H   0  0  0  0  0  0
  -26.8163  -30.9123   21.9677 H   0  0  0  0  0  0
  -28.1108  -29.1419   21.1394 H   0  0  0  0  0  0
  -26.0704  -25.9685   19.0416 H   0  0  0  0  0  0
  -23.9929  -27.2814   19.0484 H   0  0  0  0  0  0
  -23.7411  -30.6033   19.4020 H   0  0  0  0  0  0
  -22.7399  -29.2544   19.8473 H   0  0  0  0  0  0
  -25.1260  -36.2037   25.0856 H   0  0  0  0  0  0
  -20.9965  -28.3322   24.1390 H   0  0  0  0  0  0
  -20.5685  -26.2338   23.3601 H   0  0  0  0  0  0
  -21.6683  -26.7512   22.1210 H   0  0  0  0  0  0
  -19.6954  -25.6311   21.1239 H   0  0  0  0  0  0
  -19.6702  -27.3204   20.6694 H   0  0  0  0  0  0
  -17.4205  -26.6666   21.4026 H   0  0  0  0  0  0
  -18.0384  -26.0124   22.9012 H   0  0  0  0  0  0
  -19.7967  -30.7255   24.2339 H   0  0  0  0  0  0
  -17.5059  -31.6305   24.5179 H   0  0  0  0  0  0
  -15.5383  -30.3053   23.7645 H   0  0  0  0  0  0
  -15.8661  -28.0871   22.7042 H   0  0  0  0  0  0
  -24.5911  -30.7015   25.7828 H   0  0  0  0  0  0
  -24.8954  -32.2770   26.5049 H   0  0  0  0  0  0
  -25.8154  -30.8748   27.0188 H   0  0  0  0  0  0
  -26.2718  -29.6834   24.1122 H   0  0  0  0  0  0
  -27.4156  -29.7275   25.4373 H   0  0  0  0  0  0
  -27.8509  -30.4426   23.9014 H   0  0  0  0  0  0
  -27.2807  -33.3581   26.2057 H   0  0  0  0  0  0
  -28.3882  -32.6746   25.0219 H   0  0  0  0  0  0
  -28.0771  -31.8315   26.5324 H   0  0  0  0  0  0
  -28.2573  -38.0149   24.7617 H   0  0  0  0  0  0
  -28.1154  -36.2704   24.6143 H   0  0  0  0  0  0
  -27.2353  -37.1292   25.8859 H   0  0  0  0  0  0
  -20.9305  -29.8830   21.6911 H   0  0  0  0  0  0
  -26.0193  -38.2897   24.1516 H   0  0  0  0  0  0
  -29.4051  -18.0340   21.9684 H   0  0  0  0  0  0
  -29.8097  -19.0414   17.7581 H   0  0  0  0  0  0
  -32.1569  -19.6458   20.5682 H   0  0  0  0  0  0
  -32.7034  -21.2884   20.7764 H   0  0  0  0  0  0
  -31.9461  -20.8131   19.2602 H   0  0  0  0  0  0
  -27.5024  -24.9724   20.6635 H   0  0  0  0  0  0
  -28.3762  -24.9634   19.1240 H   0  0  0  0  0  0
  -30.5213  -20.8729   21.9967 H   0  0  0  0  0  0
  -29.1469  -15.1676   21.5628 H   0  0  0  0  0  0
  -30.8990  -22.9355   19.9420 H   0  0  0  0  0  0
  1 25  1  0  0  0
  1 30  2  0  0  0
  1 81  1  0  0  0
  2  3  1  0  0  0
  2 25  1  0  0  0
  2 87  1  0  0  0
  2 88  1  0  0  0
  3  4  1  0  0  0
  3 89  1  0  0  0
  3 90  1  0  0  0
  4  5  1  0  0  0
  4 91  1  0  0  0
  4 92  1  0  0  0
  5  6  1  0  0  0
  5 26  1  0  0  0
  5 93  1  0  0  0
  6 25  1  0  0  0
  6 94  1  0  0  0
  6 95  1  0  0  0
  7  8  2  0  0  0
  7 26  1  0  0  0
  7 29  1  0  0  0
  8  9  1  0  0  0
  8 22  1  0  0  0
  9 10  1  0  0  0
  9 27  2  0  0  0
 10 11  2  0  0  0
 10 15  1  0  0  0
 11 12  1  0  0  0
 11 96  1  0  0  0
 12 13  2  0  0  0
 12 97  1  0  0  0
 13 14  1  0  0  0
 13 31  1  0  0  0
 14 15  2  0  0  0
 14 98  1  0  0  0
 15 99  1  0  0  0
 16 17  2  0  0  0
 16 21  1  0  0  0
 16 31  1  0  0  0
 17 18  1  0  0  0
 17100  1  0  0  0
 18 19  2  0  0  0
 18101  1  0  0  0
 19 20  1  0  0  0
 19 24  1  0  0  0
 20 21  2  0  0  0
 20102  1  0  0  0
 21 23  1  0  0  0
 22 28  1  0  0  0
 22 32  2  0  0  0
 26 27  1  0  0  0
 28103  1  0  0  0
 28104  1  0  0  0
 29105  1  0  0  0
 29106  1  0  0  0
 33 34  1  0  0  0
 33 66  1  0  0  0
 33 70  2  0  0  0
 34 36  1  0  0  0
 34 59  1  0  0  0
 34107  1  0  0  0
 35 44  2  0  0  0
 35 45  1  0  0  0
 35 68  1  0  0  0
 36 56  1  0  0  0
 36108  1  0  0  0
 37 39  1  0  0  0
 37 47  1  0  0  0
 37 66  1  0  0  0
 37109  1  0  0  0
 38 43  2  0  0  0
 38 46  1  0  0  0
 38 47  1  0  0  0
 39 64  1  0  0  0
 39 67  2  0  0  0
 40 52  1  0  0  0
 40 53  2  0  0  0
 40 58  1  0  0  0
 41110  1  0  0  0
 41111  1  0  0  0
 41112  1  0  0  0
 41 48  1  0  0  0
 42 43  1  0  0  0
 42 66  1  0  0  0
 42113  1  0  0  0
 42114  1  0  0  0
 43 44  1  0  0  0
 44115  1  0  0  0
 45 46  2  0  0  0
 45116  1  0  0  0
 46117  1  0  0  0
 47118  1  0  0  0
 47119  1  0  0  0
 48 56  1  0  0  0
 48 65  1  0  0  0
 48120  1  0  0  0
 49 50  1  0  0  0
 49 53  1  0  0  0
 49 64  1  0  0  0
 49121  1  0  0  0
 50 51  1  0  0  0
 50122  1  0  0  0
 50123  1  0  0  0
 51 52  1  0  0  0
 51124  1  0  0  0
 51125  1  0  0  0
 52126  1  0  0  0
 52127  1  0  0  0
 53 54  1  0  0  0
 54 55  2  0  0  0
 54128  1  0  0  0
 55 57  1  0  0  0
 55129  1  0  0  0
 56 69  2  0  0  0
 57 58  2  0  0  0
 57130  1  0  0  0
 58131  1  0  0  0
 59 60  1  0  0  0
 59 61  1  0  0  0
 59 62  1  0  0  0
 60132  1  0  0  0
 60133  1  0  0  0
 60134  1  0  0  0
 61135  1  0  0  0
 61136  1  0  0  0
 61137  1  0  0  0
 62138  1  0  0  0
 62139  1  0  0  0
 62140  1  0  0  0
 63 65  1  0  0  0
 63141  1  0  0  0
 63142  1  0  0  0
 63143  1  0  0  0
 64144  1  0  0  0
 65145  1  0  0  0
 68 79  1  0  0  0
 71 73  1  0  0  0
 71 74  2  0  0  0
 71146  1  0  0  0
 72 73  2  0  0  0
 72 86  1  0  0  0
 72147  1  0  0  0
 73 75  1  0  0  0
 74 81  1  0  0  0
 74 86  1  0  0  0
 75 80  1  0  0  0
 75 83  2  0  0  0
 76 77  1  0  0  0
 76 79  1  0  0  0
 76 84  2  0  0  0
 77 82  1  0  0  0
 77 85  2  0  0  0
 78148  1  0  0  0
 78149  1  0  0  0
 78150  1  0  0  0
 78 80  1  0  0  0
 79151  1  0  0  0
 79152  1  0  0  0
 80 82  1  0  0  0
 80153  1  0  0  0
 81154  1  0  0  0
 82155  1  0  0  0
M  ISO  4   1 100  68 101  79 101  81 100
M  END
> <chiral flag>
0

> <version>
0

> <s_m_source_file>
/data/baiqing/PycharmProjects/Reinvent-master-3.2/result/LINK_invent/BTK/process_docking_weight1_custom_product_contain_oxygen_bond_distance_aromatic_linkinvent_7_9_3/rearranged_h_0161.sdf

> <i_m_source_file_index>
36

> <r_mmod_Potential_Energy-OPLS-2005>
-28.9428272247314

> <r_mmod_Stretch_Energy-OPLS-2005>
33.7397155761719

> <r_mmod_Bend_Energy-OPLS-2005>
95.0056762695312

> <r_mmod_Torsional_Energy-OPLS-2005>
286.548309326172

> <r_mmod_Improper_Torsional_Energy-OPLS-2005>
6.6124587059021

> <r_mmod_Van_der_Waal_Energy-OPLS-2005>
133.559982299805

> <r_mmod_Electrostatic_Energy-OPLS-2005>
-328.938629150391

> <r_mmod_Solvation_Energy-OPLS-2005>
-266.694519042969

> <b_mmod_Minimization_Converged-OPLS-2005>
0

> <r_mmod_RMS_Derivative-OPLS-2005>
6.17166566848755

$$$$
36
                    3D
 Structure written by MMmdl.
168176  0  0  1  0            999 V2000
  -30.7351  -14.5974   20.4800 C   0  0  0  0  0  0
  -30.4223  -12.3667   19.4760 C   0  0  0  0  0  0
  -29.5023  -12.4630   18.2402 C   0  0  0  0  0  0
  -28.0284  -12.3128   18.6561 C   0  0  0  0  0  0
  -27.6480  -13.2261   19.8470 C   0  0  2  0  0  0
  -28.6950  -13.1630   20.9864 C   0  0  0  0  0  0
  -25.2572  -13.8226   20.5689 C   0  0  0  0  0  0
  -24.1834  -13.0482   20.9243 C   0  0  0  0  0  0
  -24.6397  -11.6961   20.8750 C   0  0  0  0  0  0
  -23.9061  -10.4323   21.0389 C   0  0  0  0  0  0
  -24.3593   -9.4237   21.9173 C   0  0  0  0  0  0
  -23.6273   -8.2273   22.0740 C   0  0  0  0  0  0
  -22.4261   -8.0312   21.3535 C   0  0  0  0  0  0
  -21.9899   -9.0284   20.4641 C   0  0  0  0  0  0
  -22.7223  -10.2163   20.3052 C   0  0  0  0  0  0
  -21.6884   -6.0757   22.5297 C   0  0  0  0  0  0
  -21.4015   -6.5654   23.8231 C   0  0  0  0  0  0
  -21.3645   -5.6791   24.9190 C   0  0  0  0  0  0
  -21.6029   -4.3060   24.7220 C   0  0  0  0  0  0
  -21.8822   -3.8169   23.4343 C   0  0  0  0  0  0
  -21.9177   -4.6986   22.3402 C   0  0  0  0  0  0
  -22.7840  -13.5276   21.1853 C   0  0  0  0  0  0
  -22.1663   -4.2176   21.0980 F   0  0  0  0  0  0
  -21.5606   -3.4535   25.7722 F   0  0  0  0  0  0
  -30.0173  -13.4366   20.4063 N   0  0  0  0  0  0
  -26.2983  -12.9413   20.3286 N   0  0  0  0  0  0
  -25.9332  -11.6575   20.5773 N   0  0  0  0  0  0
  -22.0444  -12.8301   22.0427 N   0  0  0  0  0  0
  -25.4300  -15.1920   20.4075 N   0  0  0  0  0  0
  -31.9249  -14.6262   20.1796 O   0  0  0  0  0  0
  -21.6646   -6.8897   21.4247 O   0  0  0  0  0  0
  -22.3537  -14.5564   20.6677 O   0  0  0  0  0  0
  -24.6214  -31.8696   23.2126 C   0  0  0  0  0  0
  -25.9103  -32.4851   23.8390 C   0  0  1  0  0  0
  -27.2089  -27.3777   20.0743 C   0  0  0  0  0  0
  -25.5951  -33.8636   24.2332 N   0  0  0  0  0  0
  -23.4093  -30.5028   21.5544 C   0  0  2  0  0  0
  -24.8458  -28.9695   20.1199 C   0  0  0  0  0  0
  -22.7412  -29.4723   22.4942 C   0  0  0  0  0  0
  -18.0274  -28.1431   22.8427 C   0  0  0  0  0  0
  -24.1460  -36.7309   23.2620 C   0  0  0  0  0  0
  -25.9515  -30.8118   21.3820 C   0  0  0  0  0  0
  -26.0157  -29.4448   20.7222 C   0  0  0  0  0  0
  -27.1965  -28.6539   20.7037 C   0  0  0  0  0  0
  -26.0127  -26.9568   19.4410 C   0  0  0  0  0  0
  -24.8398  -27.7243   19.4834 C   0  0  0  0  0  0
  -23.6185  -29.8490   20.1680 C   0  0  0  0  0  0
  -25.4094  -36.3127   24.0316 C   0  0  1  0  0  0
  -20.5864  -28.3753   23.1228 C   0  0  2  0  0  0
  -20.6765  -26.9471   22.5388 C   0  0  0  0  0  0
  -19.5750  -26.6409   21.5184 C   0  0  0  0  0  0
  -18.1929  -26.7963   22.1590 C   0  0  0  0  0  0
  -19.1523  -28.8887   23.2834 C   0  0  0  0  0  0
  -18.9459  -30.1474   23.8894 C   0  0  0  0  0  0
  -17.6473  -30.6624   24.0556 C   0  0  0  0  0  0
  -25.9031  -34.9507   23.5117 C   0  0  0  0  0  0
  -16.5354  -29.9135   23.6336 C   0  0  0  0  0  0
  -16.7262  -28.6554   23.0322 C   0  0  0  0  0  0
  -26.4466  -31.6660   25.0769 C   0  0  0  0  0  0
  -25.3696  -31.3865   26.1501 C   0  0  0  0  0  0
  -27.0324  -30.3084   24.6266 C   0  0  0  0  0  0
  -27.6045  -32.4387   25.7545 C   0  0  0  0  0  0
  -27.5574  -37.1822   24.8459 C   0  0  0  0  0  0
  -21.4143  -29.3119   22.3649 N   0  0  0  0  0  0
  -26.4286  -37.3833   23.9411 N   0  0  0  0  0  0
  -24.6806  -31.0743   22.1066 N   0  0  0  0  0  0
  -23.4174  -28.8230   23.2982 O   0  0  0  0  0  0
  -28.3577  -26.5855   20.1006 O   0  0  0  0  0  0
  -26.5548  -34.8949   22.4658 O   0  0  0  0  0  0
  -23.5389  -32.1445   23.7478 O   0  0  0  0  0  0
  -30.3481  -18.4203   20.6429 C   0  0  0  0  0  0
  -31.1863  -19.1085   21.5079 C   0  0  0  0  0  0
  -29.3843  -20.5259   20.6036 C   0  0  0  0  0  0
  -34.0870  -19.6189   20.5327 C   0  0  0  0  0  0
  -33.4678  -19.5384   21.8862 C   0  0  0  0  0  0
  -29.0064  -24.1378   20.3398 C   0  0  0  0  0  0
  -33.9146  -20.9675   19.8622 C   0  0  0  0  0  0
  -33.1052  -22.0093   24.3944 C   0  0  0  0  0  0
  -30.5792  -17.0465   19.9882 C   0  0  0  0  0  0
  -28.1807  -22.8898   20.7752 C   0  0  0  0  0  0
  -28.2776  -25.2401   19.5312 C   0  0  0  0  0  0
  -33.5106  -20.5380   24.2210 C   0  0  0  0  0  0
  -29.3290  -19.2675   20.1381 N   0  0  0  0  0  0
  -34.6863  -18.6445   19.9996 N   0  0  0  0  0  0
  -32.3999  -18.7334   22.0906 N   0  0  0  0  0  0
  -28.5479  -21.5750   20.2079 N   0  0  0  0  0  0
  -30.0623  -15.7753   20.5981 N   0  0  0  0  0  0
  -34.0010  -20.3045   22.8586 N   0  3  0  0  0  0
  -30.2077  -24.2244   20.6074 O   0  0  0  0  0  0
  -30.6552  -20.7557   21.7756 S   0  0  0  0  0  0
  -31.4694  -12.4365   19.1755 H   0  0  0  0  0  0
  -30.3216  -11.3977   19.9663 H   0  0  0  0  0  0
  -29.7643  -11.6921   17.5137 H   0  0  0  0  0  0
  -29.6512  -13.4217   17.7423 H   0  0  0  0  0  0
  -27.8715  -11.2650   18.9261 H   0  0  0  0  0  0
  -27.3718  -12.5073   17.8078 H   0  0  0  0  0  0
  -27.6481  -14.2407   19.4474 H   0  0  0  0  0  0
  -28.6958  -12.1760   21.4522 H   0  0  0  0  0  0
  -28.4634  -13.8864   21.7714 H   0  0  0  0  0  0
  -25.2713   -9.5737   22.4787 H   0  0  0  0  0  0
  -23.9984   -7.4668   22.7466 H   0  0  0  0  0  0
  -21.0841   -8.8803   19.8960 H   0  0  0  0  0  0
  -22.3656  -10.9701   19.6190 H   0  0  0  0  0  0
  -21.2061   -7.6166   23.9762 H   0  0  0  0  0  0
  -21.1440   -6.0508   25.9079 H   0  0  0  0  0  0
  -22.0603   -2.7633   23.2844 H   0  0  0  0  0  0
  -22.3947  -11.9916   22.4809 H   0  0  0  0  0  0
  -21.1067  -13.1389   22.2602 H   0  0  0  0  0  0
  -24.6716  -15.8548   20.5262 H   0  0  0  0  0  0
  -26.2851  -15.6245   20.0817 H   0  0  0  0  0  0
  -26.7179  -32.5540   23.1141 H   0  0  0  0  0  0
  -25.0262  -33.9787   25.0578 H   0  0  0  0  0  0
  -22.7068  -31.3283   21.4197 H   0  0  0  0  0  0
  -23.3760  -35.9621   23.3327 H   0  0  0  0  0  0
  -24.3532  -36.8895   22.2031 H   0  0  0  0  0  0
  -23.7164  -37.6502   23.6608 H   0  0  0  0  0  0
  -26.0846  -31.5801   20.6168 H   0  0  0  0  0  0
  -26.8292  -30.8509   22.0163 H   0  0  0  0  0  0
  -28.0993  -29.0058   21.1797 H   0  0  0  0  0  0
  -25.9233  -26.0413   18.8768 H   0  0  0  0  0  0
  -23.9376  -27.3674   19.0086 H   0  0  0  0  0  0
  -23.7498  -30.6303   19.4196 H   0  0  0  0  0  0
  -22.7338  -29.2894   19.8542 H   0  0  0  0  0  0
  -25.1274  -36.1995   25.0809 H   0  0  0  0  0  0
  -20.9955  -28.3388   24.1340 H   0  0  0  0  0  0
  -20.5650  -26.2385   23.3609 H   0  0  0  0  0  0
  -21.6639  -26.7500   22.1185 H   0  0  0  0  0  0
  -19.6915  -25.6304   21.1252 H   0  0  0  0  0  0
  -19.6690  -27.3184   20.6692 H   0  0  0  0  0  0
  -17.4174  -26.6651   21.4037 H   0  0  0  0  0  0
  -18.0372  -26.0134   22.9022 H   0  0  0  0  0  0
  -19.7942  -30.7247   24.2317 H   0  0  0  0  0  0
  -17.5044  -31.6305   24.5170 H   0  0  0  0  0  0
  -15.5359  -30.3036   23.7696 H   0  0  0  0  0  0
  -15.8648  -28.0895   22.7046 H   0  0  0  0  0  0
  -24.5796  -30.7285   25.7857 H   0  0  0  0  0  0
  -24.8931  -32.3068   26.4896 H   0  0  0  0  0  0
  -25.7942  -30.9043   27.0307 H   0  0  0  0  0  0
  -26.2932  -29.6856   24.1193 H   0  0  0  0  0  0
  -27.3911  -29.7327   25.4810 H   0  0  0  0  0  0
  -27.8853  -30.4389   23.9601 H   0  0  0  0  0  0
  -27.2684  -33.3697   26.2128 H   0  0  0  0  0  0
  -28.3861  -32.6944   25.0387 H   0  0  0  0  0  0
  -28.0710  -31.8506   26.5448 H   0  0  0  0  0  0
  -28.2630  -38.0097   24.7537 H   0  0  0  0  0  0
  -28.1031  -36.2626   24.6266 H   0  0  0  0  0  0
  -27.2278  -37.1483   25.8863 H   0  0  0  0  0  0
  -20.9311  -29.8859   21.6872 H   0  0  0  0  0  0
  -26.0174  -38.2921   24.1448 H   0  0  0  0  0  0
  -33.0450  -21.4816   20.2698 H   0  0  0  0  0  0
  -33.7554  -20.8616   18.7883 H   0  0  0  0  0  0
  -34.7849  -21.6048   20.0266 H   0  0  0  0  0  0
  -32.2250  -22.2713   23.8047 H   0  0  0  0  0  0
  -33.9099  -22.6726   24.0814 H   0  0  0  0  0  0
  -32.8899  -22.2409   25.4377 H   0  0  0  0  0  0
  -30.1586  -17.0753   18.9826 H   0  0  0  0  0  0
  -31.6516  -16.9687   19.7961 H   0  0  0  0  0  0
  -28.2019  -22.8095   21.8616 H   0  0  0  0  0  0
  -27.1329  -23.0718   20.5329 H   0  0  0  0  0  0
  -27.2704  -24.8604   19.4568 H   0  0  0  0  0  0
  -28.6840  -25.2632   18.5185 H   0  0  0  0  0  0
  -32.6874  -19.8650   24.4543 H   0  0  0  0  0  0
  -34.3109  -20.3059   24.9281 H   0  0  0  0  0  0
  -34.7026  -17.8377   20.6168 H   0  0  0  0  0  0
  -32.5456  -17.7615   21.8510 H   0  0  0  0  0  0
  -27.9251  -21.3089   19.4504 H   0  0  0  0  0  0
  -29.0704  -15.7243   20.7740 H   0  0  0  0  0  0
  -34.8509  -20.7970   22.6150 H   0  0  0  0  0  0
  1 25  1  0  0  0
  1 30  2  0  0  0
  1 87  1  0  0  0
  2  3  1  0  0  0
  2 25  1  0  0  0
  2 91  1  0  0  0
  2 92  1  0  0  0
  3  4  1  0  0  0
  3 93  1  0  0  0
  3 94  1  0  0  0
  4  5  1  0  0  0
  4 95  1  0  0  0
  4 96  1  0  0  0
  5  6  1  0  0  0
  5 26  1  0  0  0
  5 97  1  0  0  0
  6 25  1  0  0  0
  6 98  1  0  0  0
  6 99  1  0  0  0
  7  8  2  0  0  0
  7 26  1  0  0  0
  7 29  1  0  0  0
  8  9  1  0  0  0
  8 22  1  0  0  0
  9 10  1  0  0  0
  9 27  2  0  0  0
 10 11  2  0  0  0
 10 15  1  0  0  0
 11 12  1  0  0  0
 11100  1  0  0  0
 12 13  2  0  0  0
 12101  1  0  0  0
 13 14  1  0  0  0
 13 31  1  0  0  0
 14 15  2  0  0  0
 14102  1  0  0  0
 15103  1  0  0  0
 16 17  2  0  0  0
 16 21  1  0  0  0
 16 31  1  0  0  0
 17 18  1  0  0  0
 17104  1  0  0  0
 18 19  2  0  0  0
 18105  1  0  0  0
 19 20  1  0  0  0
 19 24  1  0  0  0
 20 21  2  0  0  0
 20106  1  0  0  0
 21 23  1  0  0  0
 22 28  1  0  0  0
 22 32  2  0  0  0
 26 27  1  0  0  0
 28107  1  0  0  0
 28108  1  0  0  0
 29109  1  0  0  0
 29110  1  0  0  0
 33 34  1  0  0  0
 33 66  1  0  0  0
 33 70  2  0  0  0
 34 36  1  0  0  0
 34 59  1  0  0  0
 34111  1  0  0  0
 35 44  2  0  0  0
 35 45  1  0  0  0
 35 68  1  0  0  0
 36 56  1  0  0  0
 36112  1  0  0  0
 37 39  1  0  0  0
 37 47  1  0  0  0
 37 66  1  0  0  0
 37113  1  0  0  0
 38 43  2  0  0  0
 38 46  1  0  0  0
 38 47  1  0  0  0
 39 64  1  0  0  0
 39 67  2  0  0  0
 40 52  1  0  0  0
 40 53  2  0  0  0
 40 58  1  0  0  0
 41114  1  0  0  0
 41115  1  0  0  0
 41116  1  0  0  0
 41 48  1  0  0  0
 42 43  1  0  0  0
 42 66  1  0  0  0
 42117  1  0  0  0
 42118  1  0  0  0
 43 44  1  0  0  0
 44119  1  0  0  0
 45 46  2  0  0  0
 45120  1  0  0  0
 46121  1  0  0  0
 47122  1  0  0  0
 47123  1  0  0  0
 48 56  1  0  0  0
 48 65  1  0  0  0
 48124  1  0  0  0
 49 50  1  0  0  0
 49 53  1  0  0  0
 49 64  1  0  0  0
 49125  1  0  0  0
 50 51  1  0  0  0
 50126  1  0  0  0
 50127  1  0  0  0
 51 52  1  0  0  0
 51128  1  0  0  0
 51129  1  0  0  0
 52130  1  0  0  0
 52131  1  0  0  0
 53 54  1  0  0  0
 54 55  2  0  0  0
 54132  1  0  0  0
 55 57  1  0  0  0
 55133  1  0  0  0
 56 69  2  0  0  0
 57 58  2  0  0  0
 57134  1  0  0  0
 58135  1  0  0  0
 59 60  1  0  0  0
 59 61  1  0  0  0
 59 62  1  0  0  0
 60136  1  0  0  0
 60137  1  0  0  0
 60138  1  0  0  0
 61139  1  0  0  0
 61140  1  0  0  0
 61141  1  0  0  0
 62142  1  0  0  0
 62143  1  0  0  0
 62144  1  0  0  0
 63 65  1  0  0  0
 63145  1  0  0  0
 63146  1  0  0  0
 63147  1  0  0  0
 64148  1  0  0  0
 65149  1  0  0  0
 68 81  1  0  0  0
 71 72  2  0  0  0
 71 79  1  0  0  0
 71 83  1  0  0  0
 72 85  1  0  0  0
 72 90  1  0  0  0
 73 83  2  0  0  0
 73 86  1  0  0  0
 73 90  1  0  0  0
 74 75  1  0  0  0
 74 77  1  0  0  0
 74 84  2  0  0  0
 75 85  1  0  0  0
 75 88  2  0  0  0
 76 80  1  0  0  0
 76 81  1  0  0  0
 76 89  2  0  0  0
 77150  1  0  0  0
 77151  1  0  0  0
 77152  1  0  0  0
 78 82  1  0  0  0
 78153  1  0  0  0
 78154  1  0  0  0
 78155  1  0  0  0
 79 87  1  0  0  0
 79156  1  0  0  0
 79157  1  0  0  0
 80 86  1  0  0  0
 80158  1  0  0  0
 80159  1  0  0  0
 81160  1  0  0  0
 81161  1  0  0  0
 82 88  1  0  0  0
 82162  1  0  0  0
 82163  1  0  0  0
 84164  1  0  0  0
 85165  1  0  0  0
 86166  1  0  0  0
 87167  1  0  0  0
 88168  1  0  0  0
M  CHG  1  88   1
M  ISO  4   1 100  68 101  81 101  87 100
M  END
> <chiral flag>
0

> <version>
0

> <s_m_source_file>
/data/baiqing/PycharmProjects/Reinvent-master-3.2/result/LINK_invent/BTK/process_docking_weight1_custom_product_contain_oxygen_bond_distance_aromatic_linkinvent_7_9_3/rearranged_h_0161.sdf

> <i_m_source_file_index>
37

> <r_mmod_Potential_Energy-OPLS-2005>
-195.476791381836

> <r_mmod_Stretch_Energy-OPLS-2005>
52.888614654541

> <r_mmod_Bend_Energy-OPLS-2005>
132.817626953125

> <r_mmod_Torsional_Energy-OPLS-2005>
293.053253173828

> <r_mmod_Improper_Torsional_Energy-OPLS-2005>
16.0974597930908

> <r_mmod_Van_der_Waal_Energy-OPLS-2005>
120.861640930176

> <r_mmod_Electrostatic_Energy-OPLS-2005>
-389.405914306641

> <r_mmod_Solvation_Energy-OPLS-2005>
-464.525268554688

> <b_mmod_Minimization_Converged-OPLS-2005>
0

> <r_mmod_RMS_Derivative-OPLS-2005>
6.09591388702393

$$$$
37
                    3D
 Structure written by MMmdl.
156164  0  0  1  0            999 V2000
  -30.6684  -14.5244   20.6208 C   0  0  0  0  0  0
  -30.4436  -12.3561   19.4229 C   0  0  0  0  0  0
  -29.5027  -12.5313   18.2107 C   0  0  0  0  0  0
  -28.0242  -12.3775   18.6210 C   0  0  0  0  0  0
  -27.6674  -13.2074   19.8815 C   0  0  2  0  0  0
  -28.7099  -12.9698   20.9983 C   0  0  0  0  0  0
  -25.2561  -13.8128   20.5597 C   0  0  0  0  0  0
  -24.1834  -13.0417   20.9163 C   0  0  0  0  0  0
  -24.6401  -11.6891   20.8738 C   0  0  0  0  0  0
  -23.9059  -10.4283   21.0406 C   0  0  0  0  0  0
  -24.3607   -9.4202   21.9190 C   0  0  0  0  0  0
  -23.6280   -8.2240   22.0758 C   0  0  0  0  0  0
  -22.4265   -8.0277   21.3545 C   0  0  0  0  0  0
  -21.9899   -9.0253   20.4652 C   0  0  0  0  0  0
  -22.7228  -10.2131   20.3060 C   0  0  0  0  0  0
  -21.6853   -6.0727   22.5276 C   0  0  0  0  0  0
  -21.4014   -6.5634   23.8210 C   0  0  0  0  0  0
  -21.3659   -5.6788   24.9173 C   0  0  0  0  0  0
  -21.6042   -4.3050   24.7227 C   0  0  0  0  0  0
  -21.8818   -3.8140   23.4347 C   0  0  0  0  0  0
  -21.9193   -4.6956   22.3404 C   0  0  0  0  0  0
  -22.7858  -13.5230   21.1829 C   0  0  0  0  0  0
  -22.1663   -4.2140   21.0981 F   0  0  0  0  0  0
  -21.5629   -3.4537   25.7742 F   0  0  0  0  0  0
  -30.0442  -13.3166   20.4684 N   0  0  0  0  0  0
  -26.3047  -12.9321   20.3375 N   0  0  0  0  0  0
  -25.9339  -11.6481   20.5784 N   0  0  0  0  0  0
  -22.0494  -12.8243   22.0396 N   0  0  0  0  0  0
  -25.4165  -15.1826   20.3839 N   0  0  0  0  0  0
  -31.7102  -14.8172   20.0256 O   0  0  0  0  0  0
  -21.6636   -6.8870   21.4238 O   0  0  0  0  0  0
  -22.3542  -14.5539   20.6682 O   0  0  0  0  0  0
  -24.6198  -31.8636   23.2050 C   0  0  0  0  0  0
  -25.9068  -32.4801   23.8365 C   0  0  1  0  0  0
  -27.2383  -27.3875   20.1111 C   0  0  0  0  0  0
  -25.5905  -33.8598   24.2298 N   0  0  0  0  0  0
  -23.4110  -30.4846   21.5466 C   0  0  2  0  0  0
  -24.8603  -28.9409   20.1171 C   0  0  0  0  0  0
  -22.7439  -29.4636   22.4970 C   0  0  0  0  0  0
  -18.0277  -28.1379   22.8492 C   0  0  0  0  0  0
  -24.1486  -36.7307   23.2637 C   0  0  0  0  0  0
  -25.9436  -30.8166   21.3631 C   0  0  0  0  0  0
  -26.0238  -29.4458   20.7122 C   0  0  0  0  0  0
  -27.2191  -28.6803   20.6983 C   0  0  0  0  0  0
  -26.0571  -26.9071   19.5084 C   0  0  0  0  0  0
  -24.8743  -27.6733   19.5089 C   0  0  0  0  0  0
  -23.6234  -29.8127   20.1635 C   0  0  0  0  0  0
  -25.4108  -36.3098   24.0333 C   0  0  1  0  0  0
  -20.5872  -28.3672   23.1307 C   0  0  2  0  0  0
  -20.6765  -26.9403   22.5416 C   0  0  0  0  0  0
  -19.5743  -26.6384   21.5213 C   0  0  0  0  0  0
  -18.1923  -26.7923   22.1627 C   0  0  0  0  0  0
  -19.1527  -28.8842   23.2896 C   0  0  0  0  0  0
  -18.9455  -30.1447   23.8907 C   0  0  0  0  0  0
  -17.6456  -30.6585   24.0563 C   0  0  0  0  0  0
  -25.9040  -34.9465   23.5116 C   0  0  0  0  0  0
  -16.5348  -29.9087   23.6326 C   0  0  0  0  0  0
  -16.7265  -28.6503   23.0350 C   0  0  0  0  0  0
  -26.4480  -31.6592   25.0708 C   0  0  0  0  0  0
  -25.3739  -31.3713   26.1454 C   0  0  0  0  0  0
  -27.0310  -30.3029   24.6104 C   0  0  0  0  0  0
  -27.6052  -32.4313   25.7478 C   0  0  0  0  0  0
  -27.5579  -37.1805   24.8465 C   0  0  0  0  0  0
  -21.4160  -29.3036   22.3714 N   0  0  0  0  0  0
  -26.4290  -37.3787   23.9412 N   0  0  0  0  0  0
  -24.6767  -31.0698   22.0968 N   0  0  0  0  0  0
  -23.4189  -28.8179   23.3030 O   0  0  0  0  0  0
  -28.3804  -26.6008   20.0945 O   0  0  0  0  0  0
  -26.5608  -34.8926   22.4681 O   0  0  0  0  0  0
  -23.5377  -32.1402   23.7420 O   0  0  0  0  0  0
  -28.0962  -16.6368   21.6861 C   0  0  0  0  0  0
  -27.3653  -17.8323   21.7381 C   0  0  0  0  0  0
  -30.0935  -17.8816   21.0538 C   0  0  0  0  0  0
  -29.4645  -16.6275   21.3534 C   0  0  0  0  0  0
  -27.9939  -19.0639   21.4971 C   0  0  0  0  0  0
  -29.3642  -19.1200   21.1274 C   0  0  0  0  0  0
  -29.1323  -22.7965   20.8750 C   0  0  0  0  0  0
  -28.8429  -24.0899   20.0553 C   0  0  0  0  0  0
  -29.4763  -21.4697   20.1232 C   0  0  0  0  0  0
  -28.2843  -25.3363   20.8171 C   0  0  0  0  0  0
  -29.1015  -22.7182   22.1460 N   0  0  0  0  0  0
  -27.2573  -20.2253   21.7149 N   0  0  0  0  0  0
  -30.1061  -15.3473   21.5341 N   0  0  0  0  0  0
  -30.0106  -20.3833   20.9977 N   0  0  0  0  0  0
  -29.0203  -24.1463   18.8323 O   0  0  0  0  0  0
  -31.4821  -12.4931   19.1161 H   0  0  0  0  0  0
  -30.3824  -11.3379   19.8102 H   0  0  0  0  0  0
  -29.7504  -11.8055   17.4347 H   0  0  0  0  0  0
  -29.6581  -13.5160   17.7671 H   0  0  0  0  0  0
  -27.8379  -11.3201   18.8110 H   0  0  0  0  0  0
  -27.3732  -12.6558   17.7914 H   0  0  0  0  0  0
  -27.7153  -14.2589   19.5970 H   0  0  0  0  0  0
  -28.7019  -11.9213   21.3004 H   0  0  0  0  0  0
  -28.4423  -13.5208   21.8989 H   0  0  0  0  0  0
  -25.2747   -9.5687   22.4767 H   0  0  0  0  0  0
  -23.9989   -7.4634   22.7479 H   0  0  0  0  0  0
  -21.0827   -8.8773   19.8962 H   0  0  0  0  0  0
  -22.3681  -10.9672   19.6174 H   0  0  0  0  0  0
  -21.2005   -7.6142   23.9709 H   0  0  0  0  0  0
  -21.1484   -6.0520   25.9075 H   0  0  0  0  0  0
  -22.0598   -2.7602   23.2853 H   0  0  0  0  0  0
  -22.4093  -11.9910   22.4804 H   0  0  0  0  0  0
  -21.1125  -13.1304   22.2605 H   0  0  0  0  0  0
  -24.6382  -15.8268   20.4687 H   0  0  0  0  0  0
  -26.2563  -15.6210   20.0283 H   0  0  0  0  0  0
  -26.7139  -32.5501   23.1126 H   0  0  0  0  0  0
  -25.0048  -33.9749   25.0439 H   0  0  0  0  0  0
  -22.7020  -31.3025   21.4029 H   0  0  0  0  0  0
  -23.3744  -35.9645   23.3304 H   0  0  0  0  0  0
  -24.3580  -36.8921   22.2051 H   0  0  0  0  0  0
  -23.7244  -37.6515   23.6652 H   0  0  0  0  0  0
  -26.0579  -31.5793   20.5915 H   0  0  0  0  0  0
  -26.8304  -30.8739   21.9826 H   0  0  0  0  0  0
  -28.1188  -29.0691   21.1547 H   0  0  0  0  0  0
  -26.0512  -25.9347   19.0356 H   0  0  0  0  0  0
  -23.9814  -27.2798   19.0430 H   0  0  0  0  0  0
  -23.7348  -30.5852   19.4017 H   0  0  0  0  0  0
  -22.7467  -29.2340   19.8674 H   0  0  0  0  0  0
  -25.1284  -36.1955   25.0826 H   0  0  0  0  0  0
  -20.9961  -28.3236   24.1429 H   0  0  0  0  0  0
  -20.5665  -26.2279   23.3606 H   0  0  0  0  0  0
  -21.6636  -26.7440   22.1210 H   0  0  0  0  0  0
  -19.6904  -25.6297   21.1236 H   0  0  0  0  0  0
  -19.6680  -27.3199   20.6746 H   0  0  0  0  0  0
  -17.4192  -26.6669   21.4031 H   0  0  0  0  0  0
  -18.0328  -26.0064   22.9023 H   0  0  0  0  0  0
  -19.7932  -30.7258   24.2281 H   0  0  0  0  0  0
  -17.5015  -31.6267   24.5162 H   0  0  0  0  0  0
  -15.5349  -30.2994   23.7644 H   0  0  0  0  0  0
  -15.8666  -28.0826   22.7060 H   0  0  0  0  0  0
  -24.5900  -30.7074   25.7790 H   0  0  0  0  0  0
  -24.8945  -32.2876   26.4910 H   0  0  0  0  0  0
  -25.8083  -30.8870   27.0208 H   0  0  0  0  0  0
  -26.2857  -29.6790   24.1156 H   0  0  0  0  0  0
  -27.4071  -29.7267   25.4569 H   0  0  0  0  0  0
  -27.8698  -30.4338   23.9262 H   0  0  0  0  0  0
  -27.2669  -33.3605   26.2076 H   0  0  0  0  0  0
  -28.3855  -32.6885   25.0302 H   0  0  0  0  0  0
  -28.0728  -31.8422   26.5379 H   0  0  0  0  0  0
  -28.2599  -38.0100   24.7514 H   0  0  0  0  0  0
  -28.1071  -36.2632   24.6284 H   0  0  0  0  0  0
  -27.2299  -37.1454   25.8869 H   0  0  0  0  0  0
  -20.9328  -29.8764   21.6937 H   0  0  0  0  0  0
  -26.0175  -38.2863   24.1414 H   0  0  0  0  0  0
  -27.5886  -15.7213   21.9531 H   0  0  0  0  0  0
  -26.3239  -17.7933   22.0255 H   0  0  0  0  0  0
  -31.1527  -17.9029   20.8416 H   0  0  0  0  0  0
  -30.2270  -21.6942   19.3642 H   0  0  0  0  0  0
  -28.5942  -21.1317   19.5775 H   0  0  0  0  0  0
  -28.8382  -25.4485   21.7490 H   0  0  0  0  0  0
  -27.2523  -25.1253   21.0994 H   0  0  0  0  0  0
  -28.8751  -23.6026   22.5849 H   0  0  0  0  0  0
  -26.4730  -20.1505   22.3516 H   0  0  0  0  0  0
  -27.8365  -21.0363   21.9250 H   0  0  0  0  0  0
  -29.5649  -14.7669   22.1570 H   0  0  0  0  0  0
  -30.0318  -20.8325   21.9138 H   0  0  0  0  0  0
  1 25  1  0  0  0
  1 30  2  0  0  0
  1 83  1  0  0  0
  2  3  1  0  0  0
  2 25  1  0  0  0
  2 86  1  0  0  0
  2 87  1  0  0  0
  3  4  1  0  0  0
  3 88  1  0  0  0
  3 89  1  0  0  0
  4  5  1  0  0  0
  4 90  1  0  0  0
  4 91  1  0  0  0
  5  6  1  0  0  0
  5 26  1  0  0  0
  5 92  1  0  0  0
  6 25  1  0  0  0
  6 93  1  0  0  0
  6 94  1  0  0  0
  7  8  2  0  0  0
  7 26  1  0  0  0
  7 29  1  0  0  0
  8  9  1  0  0  0
  8 22  1  0  0  0
  9 10  1  0  0  0
  9 27  2  0  0  0
 10 11  2  0  0  0
 10 15  1  0  0  0
 11 12  1  0  0  0
 11 95  1  0  0  0
 12 13  2  0  0  0
 12 96  1  0  0  0
 13 14  1  0  0  0
 13 31  1  0  0  0
 14 15  2  0  0  0
 14 97  1  0  0  0
 15 98  1  0  0  0
 16 17  2  0  0  0
 16 21  1  0  0  0
 16 31  1  0  0  0
 17 18  1  0  0  0
 17 99  1  0  0  0
 18 19  2  0  0  0
 18100  1  0  0  0
 19 20  1  0  0  0
 19 24  1  0  0  0
 20 21  2  0  0  0
 20101  1  0  0  0
 21 23  1  0  0  0
 22 28  1  0  0  0
 22 32  2  0  0  0
 26 27  1  0  0  0
 28102  1  0  0  0
 28103  1  0  0  0
 29104  1  0  0  0
 29105  1  0  0  0
 33 34  1  0  0  0
 33 66  1  0  0  0
 33 70  2  0  0  0
 34 36  1  0  0  0
 34 59  1  0  0  0
 34106  1  0  0  0
 35 44  2  0  0  0
 35 45  1  0  0  0
 35 68  1  0  0  0
 36 56  1  0  0  0
 36107  1  0  0  0
 37 39  1  0  0  0
 37 47  1  0  0  0
 37 66  1  0  0  0
 37108  1  0  0  0
 38 43  2  0  0  0
 38 46  1  0  0  0
 38 47  1  0  0  0
 39 64  1  0  0  0
 39 67  2  0  0  0
 40 52  1  0  0  0
 40 53  2  0  0  0
 40 58  1  0  0  0
 41109  1  0  0  0
 41110  1  0  0  0
 41111  1  0  0  0
 41 48  1  0  0  0
 42 43  1  0  0  0
 42 66  1  0  0  0
 42112  1  0  0  0
 42113  1  0  0  0
 43 44  1  0  0  0
 44114  1  0  0  0
 45 46  2  0  0  0
 45115  1  0  0  0
 46116  1  0  0  0
 47117  1  0  0  0
 47118  1  0  0  0
 48 56  1  0  0  0
 48 65  1  0  0  0
 48119  1  0  0  0
 49 50  1  0  0  0
 49 53  1  0  0  0
 49 64  1  0  0  0
 49120  1  0  0  0
 50 51  1  0  0  0
 50121  1  0  0  0
 50122  1  0  0  0
 51 52  1  0  0  0
 51123  1  0  0  0
 51124  1  0  0  0
 52125  1  0  0  0
 52126  1  0  0  0
 53 54  1  0  0  0
 54 55  2  0  0  0
 54127  1  0  0  0
 55 57  1  0  0  0
 55128  1  0  0  0
 56 69  2  0  0  0
 57 58  2  0  0  0
 57129  1  0  0  0
 58130  1  0  0  0
 59 60  1  0  0  0
 59 61  1  0  0  0
 59 62  1  0  0  0
 60131  1  0  0  0
 60132  1  0  0  0
 60133  1  0  0  0
 61134  1  0  0  0
 61135  1  0  0  0
 61136  1  0  0  0
 62137  1  0  0  0
 62138  1  0  0  0
 62139  1  0  0  0
 63 65  1  0  0  0
 63140  1  0  0  0
 63141  1  0  0  0
 63142  1  0  0  0
 64143  1  0  0  0
 65144  1  0  0  0
 68 80  1  0  0  0
 71 72  2  0  0  0
 71 74  1  0  0  0
 71145  1  0  0  0
 72 75  1  0  0  0
 72146  1  0  0  0
 73 74  2  0  0  0
 73 76  1  0  0  0
 73147  1  0  0  0
 74 83  1  0  0  0
 75 76  2  0  0  0
 75 82  1  0  0  0
 76 84  1  0  0  0
 77 78  1  0  0  0
 77 79  1  0  0  0
 77 81  2  0  0  0
 78 80  1  0  0  0
 78 85  2  0  0  0
 79 84  1  0  0  0
 79148  1  0  0  0
 79149  1  0  0  0
 80150  1  0  0  0
 80151  1  0  0  0
 81152  1  0  0  0
 82153  1  0  0  0
 82154  1  0  0  0
 83155  1  0  0  0
 84156  1  0  0  0
M  ISO  4   1 100  68 101  80 101  83 100
M  END
> <chiral flag>
0

> <version>
0

> <s_m_source_file>
/data/baiqing/PycharmProjects/Reinvent-master-3.2/result/LINK_invent/BTK/process_docking_weight1_custom_product_contain_oxygen_bond_distance_aromatic_linkinvent_7_9_3/rearranged_h_0161.sdf

> <i_m_source_file_index>
38

> <r_mmod_Potential_Energy-OPLS-2005>
22.2206783294678

> <r_mmod_Stretch_Energy-OPLS-2005>
62.3650779724121

> <r_mmod_Bend_Energy-OPLS-2005>
132.21533203125

> <r_mmod_Torsional_Energy-OPLS-2005>
286.034088134766

> <r_mmod_Improper_Torsional_Energy-OPLS-2005>
19.4152374267578

> <r_mmod_Van_der_Waal_Energy-OPLS-2005>
150.236633300781

> <r_mmod_Electrostatic_Energy-OPLS-2005>
-403.388610839844

> <r_mmod_Solvation_Energy-OPLS-2005>
-246.039367675781

> <b_mmod_Minimization_Converged-OPLS-2005>
0

> <r_mmod_RMS_Derivative-OPLS-2005>
0.707660317420959

$$$$
38
                    3D
 Structure written by MMmdl.
157165  0  0  1  0            999 V2000
  -30.6623  -14.4977   20.5301 C   0  0  0  0  0  0
  -30.4214  -12.3166   19.4287 C   0  0  0  0  0  0
  -29.4870  -12.5055   18.2124 C   0  0  0  0  0  0
  -28.0117  -12.3571   18.6332 C   0  0  0  0  0  0
  -27.6562  -13.2049   19.8846 C   0  0  2  0  0  0
  -28.6990  -12.9912   21.0051 C   0  0  0  0  0  0
  -25.2533  -13.8152   20.5711 C   0  0  0  0  0  0
  -24.1792  -13.0404   20.9206 C   0  0  0  0  0  0
  -24.6337  -11.6886   20.8735 C   0  0  0  0  0  0
  -23.9025  -10.4277   21.0418 C   0  0  0  0  0  0
  -24.3604   -9.4195   21.9184 C   0  0  0  0  0  0
  -23.6289   -8.2222   22.0735 C   0  0  0  0  0  0
  -22.4262   -8.0262   21.3548 C   0  0  0  0  0  0
  -21.9895   -9.0229   20.4649 C   0  0  0  0  0  0
  -22.7215  -10.2103   20.3064 C   0  0  0  0  0  0
  -21.6840   -6.0728   22.5292 C   0  0  0  0  0  0
  -21.4011   -6.5633   23.8228 C   0  0  0  0  0  0
  -21.3643   -5.6781   24.9190 C   0  0  0  0  0  0
  -21.6062   -4.3047   24.7243 C   0  0  0  0  0  0
  -21.8818   -3.8152   23.4359 C   0  0  0  0  0  0
  -21.9180   -4.6961   22.3408 C   0  0  0  0  0  0
  -22.7837  -13.5198   21.1931 C   0  0  0  0  0  0
  -22.1669   -4.2143   21.0984 F   0  0  0  0  0  0
  -21.5636   -3.4529   25.7754 F   0  0  0  0  0  0
  -30.0254  -13.2991   20.4508 N   0  0  0  0  0  0
  -26.2967  -12.9312   20.3429 N   0  0  0  0  0  0
  -25.9262  -11.6463   20.5800 N   0  0  0  0  0  0
  -22.0522  -12.8141   22.0478 N   0  0  0  0  0  0
  -25.4215  -15.1880   20.4167 N   0  0  0  0  0  0
  -31.7999  -14.6846   20.0936 O   0  0  0  0  0  0
  -21.6614   -6.8880   21.4254 O   0  0  0  0  0  0
  -22.3510  -14.5514   20.6811 O   0  0  0  0  0  0
  -24.6168  -31.8674   23.2128 C   0  0  0  0  0  0
  -25.9064  -32.4836   23.8413 C   0  0  1  0  0  0
  -27.2165  -27.4249   20.1009 C   0  0  0  0  0  0
  -25.5938  -33.8632   24.2351 N   0  0  0  0  0  0
  -23.4025  -30.4966   21.5536 C   0  0  2  0  0  0
  -24.8450  -28.9646   20.1072 C   0  0  0  0  0  0
  -22.7424  -29.4662   22.4983 C   0  0  0  0  0  0
  -18.0271  -28.1387   22.8524 C   0  0  0  0  0  0
  -24.1446  -36.7285   23.2641 C   0  0  0  0  0  0
  -25.9302  -30.8381   21.3591 C   0  0  0  0  0  0
  -26.0069  -29.4697   20.7060 C   0  0  0  0  0  0
  -27.2011  -28.7092   20.6979 C   0  0  0  0  0  0
  -26.0458  -26.9404   19.4848 C   0  0  0  0  0  0
  -24.8616  -27.7029   19.4867 C   0  0  0  0  0  0
  -23.6082  -29.8358   20.1646 C   0  0  0  0  0  0
  -25.4072  -36.3125   24.0349 C   0  0  1  0  0  0
  -20.5865  -28.3653   23.1339 C   0  0  2  0  0  0
  -20.6751  -26.9396   22.5431 C   0  0  0  0  0  0
  -19.5721  -26.6387   21.5242 C   0  0  0  0  0  0
  -18.1895  -26.7946   22.1648 C   0  0  0  0  0  0
  -19.1529  -28.8838   23.2918 C   0  0  0  0  0  0
  -18.9462  -30.1453   23.8906 C   0  0  0  0  0  0
  -17.6467  -30.6596   24.0575 C   0  0  0  0  0  0
  -25.9027  -34.9493   23.5133 C   0  0  0  0  0  0
  -16.5348  -29.9106   23.6346 C   0  0  0  0  0  0
  -16.7266  -28.6523   23.0365 C   0  0  0  0  0  0
  -26.4496  -31.6637   25.0753 C   0  0  0  0  0  0
  -25.3786  -31.3759   26.1532 C   0  0  0  0  0  0
  -27.0331  -30.3104   24.6082 C   0  0  0  0  0  0
  -27.6050  -32.4379   25.7539 C   0  0  0  0  0  0
  -27.5555  -37.1786   24.8472 C   0  0  0  0  0  0
  -21.4147  -29.3044   22.3760 N   0  0  0  0  0  0
  -26.4238  -37.3829   23.9457 N   0  0  0  0  0  0
  -24.6688  -31.0800   22.1020 N   0  0  0  0  0  0
  -23.4223  -28.8193   23.2990 O   0  0  0  0  0  0
  -28.3416  -26.6313   20.1166 O   0  0  0  0  0  0
  -26.5547  -34.8956   22.4672 O   0  0  0  0  0  0
  -23.5372  -32.1402   23.7538 O   0  0  0  0  0  0
  -29.7326  -18.0331   21.0325 C   0  0  0  0  0  0
  -30.0158  -16.9291   18.8983 C   0  0  0  0  0  0
  -29.7554  -19.2851   20.3558 C   0  0  0  0  0  0
  -29.8985  -16.8272   20.3026 C   0  0  0  0  0  0
  -29.8687  -19.2381   18.9472 C   0  0  0  0  0  0
  -29.7111  -20.5911   21.0823 C   0  0  0  0  0  0
  -28.5625  -24.1445   20.2553 C   0  0  0  0  0  0
  -28.2150  -25.4728   20.9715 C   0  0  0  0  0  0
  -29.5051  -23.1520   20.9928 C   0  0  2  0  0  0
  -30.9697  -23.6243   20.8382 C   0  0  0  0  0  0
  -29.9806  -18.0977   18.2334 N   0  0  0  0  0  0
  -29.9055  -15.5397   20.9420 N   0  0  0  0  0  0
  -29.3658  -21.7608   20.4728 N   0  0  0  0  0  0
  -30.0483  -20.6309   22.3873 N   0  3  0  0  0  0
  -28.0620  -23.8893   19.1532 O   0  0  0  0  0  0
  -29.8567  -20.3961   18.2475 F   0  0  0  0  0  0
  -31.7886  -22.8334   21.5316 F   0  0  0  0  0  0
  -31.1224  -24.8697   21.2890 F   0  0  0  0  0  0
  -31.3407  -23.6003   19.5567 F   0  0  0  0  0  0
  -31.4671  -12.4185   19.1317 H   0  0  0  0  0  0
  -30.3315  -11.3067   19.8285 H   0  0  0  0  0  0
  -29.7263  -11.7828   17.4303 H   0  0  0  0  0  0
  -29.6400  -13.4923   17.7735 H   0  0  0  0  0  0
  -27.8415  -11.2999   18.8449 H   0  0  0  0  0  0
  -27.3498  -12.6143   17.8059 H   0  0  0  0  0  0
  -27.6936  -14.2530   19.5838 H   0  0  0  0  0  0
  -28.6804  -11.9557   21.3476 H   0  0  0  0  0  0
  -28.4665  -13.5916   21.8854 H   0  0  0  0  0  0
  -25.2764   -9.5673   22.4745 H   0  0  0  0  0  0
  -24.0025   -7.4587   22.7399 H   0  0  0  0  0  0
  -21.0851   -8.8736   19.8924 H   0  0  0  0  0  0
  -22.3696  -10.9636   19.6172 H   0  0  0  0  0  0
  -21.1988   -7.6144   23.9742 H   0  0  0  0  0  0
  -21.1480   -6.0515   25.9100 H   0  0  0  0  0  0
  -22.0597   -2.7627   23.2835 H   0  0  0  0  0  0
  -22.4147  -11.9772   22.4808 H   0  0  0  0  0  0
  -21.1166  -13.1158   22.2783 H   0  0  0  0  0  0
  -24.6440  -15.8299   20.5229 H   0  0  0  0  0  0
  -26.2745  -15.6431   20.1196 H   0  0  0  0  0  0
  -26.7145  -32.5543   23.1184 H   0  0  0  0  0  0
  -25.0239  -33.9815   25.0608 H   0  0  0  0  0  0
  -22.6916  -31.3143   21.4242 H   0  0  0  0  0  0
  -23.3737  -35.9592   23.3313 H   0  0  0  0  0  0
  -24.3555  -36.8890   22.2061 H   0  0  0  0  0  0
  -23.7167  -37.6476   23.6637 H   0  0  0  0  0  0
  -26.0312  -31.6021   20.5861 H   0  0  0  0  0  0
  -26.8250  -30.9019   21.9661 H   0  0  0  0  0  0
  -28.0969  -29.0978   21.1644 H   0  0  0  0  0  0
  -26.0487  -25.9714   19.0044 H   0  0  0  0  0  0
  -23.9724  -27.3175   19.0064 H   0  0  0  0  0  0
  -23.7159  -30.6193   19.4140 H   0  0  0  0  0  0
  -22.7291  -29.2609   19.8656 H   0  0  0  0  0  0
  -25.1246  -36.1964   25.0839 H   0  0  0  0  0  0
  -20.9951  -28.3183   24.1461 H   0  0  0  0  0  0
  -20.5658  -26.2259   23.3613 H   0  0  0  0  0  0
  -21.6609  -26.7436   22.1206 H   0  0  0  0  0  0
  -19.6864  -25.6300   21.1261 H   0  0  0  0  0  0
  -19.6662  -27.3199   20.6775 H   0  0  0  0  0  0
  -17.4182  -26.6743   21.4025 H   0  0  0  0  0  0
  -18.0242  -26.0071   22.9015 H   0  0  0  0  0  0
  -19.7936  -30.7274   24.2256 H   0  0  0  0  0  0
  -17.5032  -31.6293   24.5158 H   0  0  0  0  0  0
  -15.5350  -30.3019   23.7674 H   0  0  0  0  0  0
  -15.8662  -28.0859   22.7065 H   0  0  0  0  0  0
  -24.5935  -30.7113   25.7921 H   0  0  0  0  0  0
  -24.8997  -32.2927   26.4975 H   0  0  0  0  0  0
  -25.8177  -30.8975   27.0297 H   0  0  0  0  0  0
  -26.2860  -29.6875   24.1139 H   0  0  0  0  0  0
  -27.4168  -29.7337   25.4508 H   0  0  0  0  0  0
  -27.8668  -30.4507   23.9191 H   0  0  0  0  0  0
  -27.2636  -33.3682   26.2091 H   0  0  0  0  0  0
  -28.3876  -32.6932   25.0386 H   0  0  0  0  0  0
  -28.0671  -31.8516   26.5491 H   0  0  0  0  0  0
  -28.2560  -38.0099   24.7562 H   0  0  0  0  0  0
  -28.1060  -36.2636   24.6216 H   0  0  0  0  0  0
  -27.2299  -37.1327   25.8882 H   0  0  0  0  0  0
  -20.9276  -29.8838   21.7064 H   0  0  0  0  0  0
  -26.0117  -38.2891   24.1536 H   0  0  0  0  0  0
  -29.6248  -17.9983   22.1060 H   0  0  0  0  0  0
  -30.1032  -16.0492   18.2780 H   0  0  0  0  0  0
  -28.8528  -25.6057   21.8445 H   0  0  0  0  0  0
  -27.1994  -25.3785   21.3562 H   0  0  0  0  0  0
  -29.2427  -23.1518   22.0500 H   0  0  0  0  0  0
  -29.0861  -15.3014   21.4790 H   0  0  0  0  0  0
  -29.1620  -21.7239   19.4812 H   0  0  0  0  0  0
  -30.4898  -19.8410   22.8344 H   0  0  0  0  0  0
  -29.8554  -21.4185   22.9885 H   0  0  0  0  0  0
  1 25  1  0  0  0
  1 30  2  0  0  0
  1 82  1  0  0  0
  2  3  1  0  0  0
  2 25  1  0  0  0
  2 90  1  0  0  0
  2 91  1  0  0  0
  3  4  1  0  0  0
  3 92  1  0  0  0
  3 93  1  0  0  0
  4  5  1  0  0  0
  4 94  1  0  0  0
  4 95  1  0  0  0
  5  6  1  0  0  0
  5 26  1  0  0  0
  5 96  1  0  0  0
  6 25  1  0  0  0
  6 97  1  0  0  0
  6 98  1  0  0  0
  7  8  2  0  0  0
  7 26  1  0  0  0
  7 29  1  0  0  0
  8  9  1  0  0  0
  8 22  1  0  0  0
  9 10  1  0  0  0
  9 27  2  0  0  0
 10 11  2  0  0  0
 10 15  1  0  0  0
 11 12  1  0  0  0
 11 99  1  0  0  0
 12 13  2  0  0  0
 12100  1  0  0  0
 13 14  1  0  0  0
 13 31  1  0  0  0
 14 15  2  0  0  0
 14101  1  0  0  0
 15102  1  0  0  0
 16 17  2  0  0  0
 16 21  1  0  0  0
 16 31  1  0  0  0
 17 18  1  0  0  0
 17103  1  0  0  0
 18 19  2  0  0  0
 18104  1  0  0  0
 19 20  1  0  0  0
 19 24  1  0  0  0
 20 21  2  0  0  0
 20105  1  0  0  0
 21 23  1  0  0  0
 22 28  1  0  0  0
 22 32  2  0  0  0
 26 27  1  0  0  0
 28106  1  0  0  0
 28107  1  0  0  0
 29108  1  0  0  0
 29109  1  0  0  0
 33 34  1  0  0  0
 33 66  1  0  0  0
 33 70  2  0  0  0
 34 36  1  0  0  0
 34 59  1  0  0  0
 34110  1  0  0  0
 35 44  2  0  0  0
 35 45  1  0  0  0
 35 68  1  0  0  0
 36 56  1  0  0  0
 36111  1  0  0  0
 37 39  1  0  0  0
 37 47  1  0  0  0
 37 66  1  0  0  0
 37112  1  0  0  0
 38 43  2  0  0  0
 38 46  1  0  0  0
 38 47  1  0  0  0
 39 64  1  0  0  0
 39 67  2  0  0  0
 40 52  1  0  0  0
 40 53  2  0  0  0
 40 58  1  0  0  0
 41113  1  0  0  0
 41114  1  0  0  0
 41115  1  0  0  0
 41 48  1  0  0  0
 42 43  1  0  0  0
 42 66  1  0  0  0
 42116  1  0  0  0
 42117  1  0  0  0
 43 44  1  0  0  0
 44118  1  0  0  0
 45 46  2  0  0  0
 45119  1  0  0  0
 46120  1  0  0  0
 47121  1  0  0  0
 47122  1  0  0  0
 48 56  1  0  0  0
 48 65  1  0  0  0
 48123  1  0  0  0
 49 50  1  0  0  0
 49 53  1  0  0  0
 49 64  1  0  0  0
 49124  1  0  0  0
 50 51  1  0  0  0
 50125  1  0  0  0
 50126  1  0  0  0
 51 52  1  0  0  0
 51127  1  0  0  0
 51128  1  0  0  0
 52129  1  0  0  0
 52130  1  0  0  0
 53 54  1  0  0  0
 54 55  2  0  0  0
 54131  1  0  0  0
 55 57  1  0  0  0
 55132  1  0  0  0
 56 69  2  0  0  0
 57 58  2  0  0  0
 57133  1  0  0  0
 58134  1  0  0  0
 59 60  1  0  0  0
 59 61  1  0  0  0
 59 62  1  0  0  0
 60135  1  0  0  0
 60136  1  0  0  0
 60137  1  0  0  0
 61138  1  0  0  0
 61139  1  0  0  0
 61140  1  0  0  0
 62141  1  0  0  0
 62142  1  0  0  0
 62143  1  0  0  0
 63 65  1  0  0  0
 63144  1  0  0  0
 63145  1  0  0  0
 63146  1  0  0  0
 64147  1  0  0  0
 65148  1  0  0  0
 68 78  1  0  0  0
 71 73  2  0  0  0
 71 74  1  0  0  0
 71149  1  0  0  0
 72 74  2  0  0  0
 72 81  1  0  0  0
 72150  1  0  0  0
 73 75  1  0  0  0
 73 76  1  0  0  0
 74 82  1  0  0  0
 75 81  2  0  0  0
 75 86  1  0  0  0
 76 83  1  0  0  0
 76 84  2  0  0  0
 77 78  1  0  0  0
 77 79  1  0  0  0
 77 85  2  0  0  0
 78151  1  0  0  0
 78152  1  0  0  0
 79 80  1  0  0  0
 79 83  1  0  0  0
 79153  1  0  0  0
 80 87  1  0  0  0
 80 88  1  0  0  0
 80 89  1  0  0  0
 82154  1  0  0  0
 83155  1  0  0  0
 84156  1  0  0  0
 84157  1  0  0  0
M  CHG  1  84   1
M  ISO  4   1 100  68 101  78 101  82 100
M  END
> <chiral flag>
0

> <version>
0

> <s_m_source_file>
/data/baiqing/PycharmProjects/Reinvent-master-3.2/result/LINK_invent/BTK/process_docking_weight1_custom_product_contain_oxygen_bond_distance_aromatic_linkinvent_7_9_3/rearranged_h_0161.sdf

> <i_m_source_file_index>
39

> <r_mmod_Potential_Energy-OPLS-2005>
-469.220977783203

> <r_mmod_Stretch_Energy-OPLS-2005>
43.5408897399902

> <r_mmod_Bend_Energy-OPLS-2005>
94.3221588134766

> <r_mmod_Torsional_Energy-OPLS-2005>
257.604461669922

> <r_mmod_Improper_Torsional_Energy-OPLS-2005>
6.27994203567505

> <r_mmod_Van_der_Waal_Energy-OPLS-2005>
160.752822875977

> <r_mmod_Electrostatic_Energy-OPLS-2005>
-548.003662109375

> <r_mmod_Solvation_Energy-OPLS-2005>
-500.913787841797

> <b_mmod_Minimization_Converged-OPLS-2005>
0

> <r_mmod_RMS_Derivative-OPLS-2005>
3.72790479660034

$$$$
39
                    3D
 Structure written by MMmdl.
163171  0  0  1  0            999 V2000
  -30.5953  -14.7690   20.4264 C   0  0  0  0  0  0
  -30.4405  -12.4529   19.4922 C   0  0  0  0  0  0
  -29.5204  -12.4590   18.2499 C   0  0  0  0  0  0
  -28.0395  -12.3216   18.6553 C   0  0  0  0  0  0
  -27.6431  -13.2307   19.8494 C   0  0  2  0  0  0
  -28.6865  -13.1737   20.9866 C   0  0  0  0  0  0
  -25.2514  -13.8193   20.5691 C   0  0  0  0  0  0
  -24.1804  -13.0441   20.9208 C   0  0  0  0  0  0
  -24.6392  -11.6919   20.8751 C   0  0  0  0  0  0
  -23.9069  -10.4293   21.0406 C   0  0  0  0  0  0
  -24.3617   -9.4207   21.9183 C   0  0  0  0  0  0
  -23.6290   -8.2243   22.0753 C   0  0  0  0  0  0
  -22.4271   -8.0280   21.3545 C   0  0  0  0  0  0
  -21.9910   -9.0255   20.4649 C   0  0  0  0  0  0
  -22.7241  -10.2133   20.3057 C   0  0  0  0  0  0
  -21.6854   -6.0731   22.5278 C   0  0  0  0  0  0
  -21.4017   -6.5635   23.8211 C   0  0  0  0  0  0
  -21.3661   -5.6789   24.9173 C   0  0  0  0  0  0
  -21.6043   -4.3052   24.7225 C   0  0  0  0  0  0
  -21.8819   -3.8143   23.4347 C   0  0  0  0  0  0
  -21.9194   -4.6959   22.3403 C   0  0  0  0  0  0
  -22.7825  -13.5224   21.1865 C   0  0  0  0  0  0
  -22.1660   -4.2145   21.0980 F   0  0  0  0  0  0
  -21.5629   -3.4536   25.7738 F   0  0  0  0  0  0
  -29.9892  -13.5283   20.4083 N   0  0  0  0  0  0
  -26.2942  -12.9400   20.3273 N   0  0  0  0  0  0
  -25.9323  -11.6547   20.5758 N   0  0  0  0  0  0
  -22.0468  -12.8218   22.0422 N   0  0  0  0  0  0
  -25.4191  -15.1919   20.4104 N   0  0  0  0  0  0
  -31.7853  -14.8635   20.1065 O   0  0  0  0  0  0
  -21.6640   -6.8873   21.4238 O   0  0  0  0  0  0
  -22.3510  -14.5530   20.6712 O   0  0  0  0  0  0
  -24.6331  -31.8548   23.1994 C   0  0  0  0  0  0
  -25.9152  -32.4752   23.8340 C   0  0  1  0  0  0
  -27.2163  -27.2480   20.1281 C   0  0  0  0  0  0
  -25.5942  -33.8555   24.2259 N   0  0  0  0  0  0
  -23.4305  -30.4795   21.5425 C   0  0  2  0  0  0
  -24.8779  -28.9306   20.1077 C   0  0  0  0  0  0
  -22.7515  -29.4602   22.4900 C   0  0  0  0  0  0
  -18.0297  -28.1390   22.8483 C   0  0  0  0  0  0
  -24.1490  -36.7282   23.2639 C   0  0  0  0  0  0
  -25.9791  -30.7628   21.3838 C   0  0  0  0  0  0
  -26.0506  -29.3856   20.7235 C   0  0  0  0  0  0
  -27.2215  -28.5565   20.7257 C   0  0  0  0  0  0
  -26.0213  -26.8773   19.4652 C   0  0  0  0  0  0
  -24.8700  -27.6852   19.4666 C   0  0  0  0  0  0
  -23.6499  -29.8188   20.1573 C   0  0  0  0  0  0
  -25.4116  -36.3068   24.0326 C   0  0  1  0  0  0
  -20.5903  -28.3704   23.1260 C   0  0  2  0  0  0
  -20.6785  -26.9419   22.5404 C   0  0  0  0  0  0
  -19.5757  -26.6385   21.5212 C   0  0  0  0  0  0
  -18.1939  -26.7930   22.1626 C   0  0  0  0  0  0
  -19.1551  -28.8864   23.2868 C   0  0  0  0  0  0
  -18.9470  -30.1462   23.8891 C   0  0  0  0  0  0
  -17.6468  -30.6588   24.0562 C   0  0  0  0  0  0
  -25.9059  -34.9438   23.5094 C   0  0  0  0  0  0
  -16.5360  -29.9084   23.6330 C   0  0  0  0  0  0
  -16.7283  -28.6502   23.0353 C   0  0  0  0  0  0
  -26.4509  -31.6581   25.0736 C   0  0  0  0  0  0
  -25.3723  -31.3737   26.1450 C   0  0  0  0  0  0
  -27.0359  -30.2992   24.6243 C   0  0  0  0  0  0
  -27.6060  -32.4324   25.7511 C   0  0  0  0  0  0
  -27.5578  -37.1798   24.8464 C   0  0  0  0  0  0
  -21.4220  -29.3050   22.3646 N   0  0  0  0  0  0
  -26.4289  -37.3768   23.9410 N   0  0  0  0  0  0
  -24.6999  -31.0502   22.0980 N   0  0  0  0  0  0
  -23.4208  -28.8136   23.2999 O   0  0  0  0  0  0
  -28.2890  -26.3201   20.2116 O   0  0  0  0  0  0
  -26.5630  -34.8914   22.4664 O   0  0  0  0  0  0
  -23.5478  -32.1377   23.7279 O   0  0  0  0  0  0
  -29.4224  -19.5832   18.4433 C   0  0  0  0  0  0
  -29.4935  -18.3482   17.7880 C   0  0  0  0  0  0
  -29.6198  -17.1591   18.5370 C   0  0  0  0  0  0
  -29.4379  -19.6693   19.8484 C   0  0  0  0  0  0
  -29.7471  -17.2122   19.9557 C   0  0  0  0  0  0
  -29.0726  -19.1993   15.4576 C   0  0  0  0  0  0
  -29.1214  -19.0503   14.1215 C   0  0  0  0  0  0
  -28.9220  -23.6717   20.4259 C   0  0  0  0  0  0
  -28.6272  -22.1507   19.8843 C   0  0  0  0  0  0
  -28.6892  -20.1585   13.1843 C   0  0  0  0  0  0
  -29.5981  -17.7833   13.4336 C   0  0  0  0  0  0
  -27.9910  -24.8701   19.8947 C   0  0  0  0  0  0
  -29.6265  -18.4743   20.5647 N   0  0  0  0  0  0
  -29.5194  -15.9516   17.8315 N   0  0  0  0  0  0
  -29.4346  -18.2383   16.3897 N   0  0  0  0  0  0
  -29.3269  -21.0540   20.3945 N   0  0  0  0  0  0
  -29.8063  -15.8945   20.6578 N   0  0  0  0  0  0
  -29.8379  -23.8946   21.2277 O   0  0  0  0  0  0
  -27.7430  -22.0085   19.0316 O   0  0  0  0  0  0
  -31.4805  -12.5792   19.1864 H   0  0  0  0  0  0
  -30.3956  -11.4864   19.9963 H   0  0  0  0  0  0
  -29.7942  -11.6408   17.5827 H   0  0  0  0  0  0
  -29.6729  -13.3668   17.6710 H   0  0  0  0  0  0
  -27.8771  -11.2771   18.9230 H   0  0  0  0  0  0
  -27.3928  -12.5169   17.7990 H   0  0  0  0  0  0
  -27.6333  -14.2492   19.4620 H   0  0  0  0  0  0
  -28.7226  -12.1774   21.4299 H   0  0  0  0  0  0
  -28.4165  -13.8557   21.7943 H   0  0  0  0  0  0
  -25.2759   -9.5685   22.4762 H   0  0  0  0  0  0
  -23.9999   -7.4633   22.7474 H   0  0  0  0  0  0
  -21.0839   -8.8775   19.8955 H   0  0  0  0  0  0
  -22.3693  -10.9672   19.6171 H   0  0  0  0  0  0
  -21.2011   -7.6144   23.9713 H   0  0  0  0  0  0
  -21.1484   -6.0519   25.9076 H   0  0  0  0  0  0
  -22.0598   -2.7605   23.2850 H   0  0  0  0  0  0
  -22.4080  -11.9882   22.4821 H   0  0  0  0  0  0
  -21.1087  -13.1248   22.2623 H   0  0  0  0  0  0
  -24.6438  -15.8380   20.5101 H   0  0  0  0  0  0
  -26.2537  -15.6324   20.0468 H   0  0  0  0  0  0
  -26.7218  -32.5396   23.1079 H   0  0  0  0  0  0
  -25.0079  -33.9690   25.0398 H   0  0  0  0  0  0
  -22.7275  -31.3028   21.3986 H   0  0  0  0  0  0
  -23.3752  -35.9614   23.3297 H   0  0  0  0  0  0
  -24.3581  -36.8911   22.2054 H   0  0  0  0  0  0
  -23.7244  -37.6483   23.6667 H   0  0  0  0  0  0
  -26.1226  -31.5239   20.6157 H   0  0  0  0  0  0
  -26.8547  -30.8088   22.0196 H   0  0  0  0  0  0
  -28.1140  -28.8965   21.2322 H   0  0  0  0  0  0
  -25.9331  -25.9344   18.9472 H   0  0  0  0  0  0
  -23.9755  -27.3352   18.9698 H   0  0  0  0  0  0
  -23.7775  -30.5981   19.4050 H   0  0  0  0  0  0
  -22.7672  -29.2558   19.8483 H   0  0  0  0  0  0
  -25.1297  -36.1911   25.0818 H   0  0  0  0  0  0
  -20.9997  -28.3286   24.1380 H   0  0  0  0  0  0
  -20.5688  -26.2315   23.3612 H   0  0  0  0  0  0
  -21.6652  -26.7441   22.1197 H   0  0  0  0  0  0
  -19.6917  -25.6292   21.1250 H   0  0  0  0  0  0
  -19.6690  -27.3189   20.6737 H   0  0  0  0  0  0
  -17.4205  -26.6672   21.4033 H   0  0  0  0  0  0
  -18.0344  -26.0077   22.9030 H   0  0  0  0  0  0
  -19.7944  -30.7283   24.2260 H   0  0  0  0  0  0
  -17.5020  -31.6268   24.5164 H   0  0  0  0  0  0
  -15.5359  -30.2984   23.7657 H   0  0  0  0  0  0
  -15.8683  -28.0819   22.7071 H   0  0  0  0  0  0
  -24.5903  -30.7081   25.7776 H   0  0  0  0  0  0
  -24.8909  -32.2907   26.4857 H   0  0  0  0  0  0
  -25.8033  -30.8925   27.0239 H   0  0  0  0  0  0
  -26.2951  -29.6736   24.1250 H   0  0  0  0  0  0
  -27.4008  -29.7263   25.4777 H   0  0  0  0  0  0
  -27.8845  -30.4256   23.9516 H   0  0  0  0  0  0
  -27.2668  -33.3633   26.2069 H   0  0  0  0  0  0
  -28.3882  -32.6870   25.0347 H   0  0  0  0  0  0
  -28.0715  -31.8461   26.5445 H   0  0  0  0  0  0
  -28.2590  -38.0100   24.7514 H   0  0  0  0  0  0
  -28.1080  -36.2632   24.6285 H   0  0  0  0  0  0
  -27.2298  -37.1441   25.8868 H   0  0  0  0  0  0
  -20.9408  -29.8774   21.6851 H   0  0  0  0  0  0
  -26.0165  -38.2841   24.1409 H   0  0  0  0  0  0
  -29.3518  -20.4828   17.8552 H   0  0  0  0  0  0
  -28.7153  -20.1250   15.8855 H   0  0  0  0  0  0
  -28.3455  -21.0371   13.7318 H   0  0  0  0  0  0
  -27.8732  -19.8196   12.5452 H   0  0  0  0  0  0
  -29.5197  -20.4625   12.5464 H   0  0  0  0  0  0
  -29.9377  -17.0212   14.1346 H   0  0  0  0  0  0
  -30.4281  -18.0097   12.7637 H   0  0  0  0  0  0
  -28.7916  -17.3532   12.8389 H   0  0  0  0  0  0
  -27.0012  -24.6323   20.2840 H   0  0  0  0  0  0
  -27.9286  -24.7734   18.8105 H   0  0  0  0  0  0
  -28.9291  -15.9925   17.0080 H   0  0  0  0  0  0
  -29.3108  -15.1270   18.3760 H   0  0  0  0  0  0
  -29.7260  -17.3238   16.0648 H   0  0  0  0  0  0
  -29.8872  -21.2552   21.2105 H   0  0  0  0  0  0
  -28.9562  -15.6815   21.1523 H   0  0  0  0  0  0
  1 25  1  0  0  0
  1 30  2  0  0  0
  1 87  1  0  0  0
  2  3  1  0  0  0
  2 25  1  0  0  0
  2 90  1  0  0  0
  2 91  1  0  0  0
  3  4  1  0  0  0
  3 92  1  0  0  0
  3 93  1  0  0  0
  4  5  1  0  0  0
  4 94  1  0  0  0
  4 95  1  0  0  0
  5  6  1  0  0  0
  5 26  1  0  0  0
  5 96  1  0  0  0
  6 25  1  0  0  0
  6 97  1  0  0  0
  6 98  1  0  0  0
  7  8  2  0  0  0
  7 26  1  0  0  0
  7 29  1  0  0  0
  8  9  1  0  0  0
  8 22  1  0  0  0
  9 10  1  0  0  0
  9 27  2  0  0  0
 10 11  2  0  0  0
 10 15  1  0  0  0
 11 12  1  0  0  0
 11 99  1  0  0  0
 12 13  2  0  0  0
 12100  1  0  0  0
 13 14  1  0  0  0
 13 31  1  0  0  0
 14 15  2  0  0  0
 14101  1  0  0  0
 15102  1  0  0  0
 16 17  2  0  0  0
 16 21  1  0  0  0
 16 31  1  0  0  0
 17 18  1  0  0  0
 17103  1  0  0  0
 18 19  2  0  0  0
 18104  1  0  0  0
 19 20  1  0  0  0
 19 24  1  0  0  0
 20 21  2  0  0  0
 20105  1  0  0  0
 21 23  1  0  0  0
 22 28  1  0  0  0
 22 32  2  0  0  0
 26 27  1  0  0  0
 28106  1  0  0  0
 28107  1  0  0  0
 29108  1  0  0  0
 29109  1  0  0  0
 33 34  1  0  0  0
 33 66  1  0  0  0
 33 70  2  0  0  0
 34 36  1  0  0  0
 34 59  1  0  0  0
 34110  1  0  0  0
 35 44  2  0  0  0
 35 45  1  0  0  0
 35 68  1  0  0  0
 36 56  1  0  0  0
 36111  1  0  0  0
 37 39  1  0  0  0
 37 47  1  0  0  0
 37 66  1  0  0  0
 37112  1  0  0  0
 38 43  2  0  0  0
 38 46  1  0  0  0
 38 47  1  0  0  0
 39 64  1  0  0  0
 39 67  2  0  0  0
 40 52  1  0  0  0
 40 53  2  0  0  0
 40 58  1  0  0  0
 41113  1  0  0  0
 41114  1  0  0  0
 41115  1  0  0  0
 41 48  1  0  0  0
 42 43  1  0  0  0
 42 66  1  0  0  0
 42116  1  0  0  0
 42117  1  0  0  0
 43 44  1  0  0  0
 44118  1  0  0  0
 45 46  2  0  0  0
 45119  1  0  0  0
 46120  1  0  0  0
 47121  1  0  0  0
 47122  1  0  0  0
 48 56  1  0  0  0
 48 65  1  0  0  0
 48123  1  0  0  0
 49 50  1  0  0  0
 49 53  1  0  0  0
 49 64  1  0  0  0
 49124  1  0  0  0
 50 51  1  0  0  0
 50125  1  0  0  0
 50126  1  0  0  0
 51 52  1  0  0  0
 51127  1  0  0  0
 51128  1  0  0  0
 52129  1  0  0  0
 52130  1  0  0  0
 53 54  1  0  0  0
 54 55  2  0  0  0
 54131  1  0  0  0
 55 57  1  0  0  0
 55132  1  0  0  0
 56 69  2  0  0  0
 57 58  2  0  0  0
 57133  1  0  0  0
 58134  1  0  0  0
 59 60  1  0  0  0
 59 61  1  0  0  0
 59 62  1  0  0  0
 60135  1  0  0  0
 60136  1  0  0  0
 60137  1  0  0  0
 61138  1  0  0  0
 61139  1  0  0  0
 61140  1  0  0  0
 62141  1  0  0  0
 62142  1  0  0  0
 62143  1  0  0  0
 63 65  1  0  0  0
 63144  1  0  0  0
 63145  1  0  0  0
 63146  1  0  0  0
 64147  1  0  0  0
 65148  1  0  0  0
 68 82  1  0  0  0
 71 72  2  0  0  0
 71 74  1  0  0  0
 71149  1  0  0  0
 72 73  1  0  0  0
 72 85  1  0  0  0
 73 75  2  0  0  0
 73 84  1  0  0  0
 74 83  2  0  0  0
 74 86  1  0  0  0
 75 83  1  0  0  0
 75 87  1  0  0  0
 76 77  2  0  0  0
 76 85  1  0  0  0
 76150  1  0  0  0
 77 80  1  0  0  0
 77 81  1  0  0  0
 78 79  1  0  0  0
 78 82  1  0  0  0
 78 88  2  0  0  0
 79 86  1  0  0  0
 79 89  2  0  0  0
 80151  1  0  0  0
 80152  1  0  0  0
 80153  1  0  0  0
 81154  1  0  0  0
 81155  1  0  0  0
 81156  1  0  0  0
 82157  1  0  0  0
 82158  1  0  0  0
 84159  1  0  0  0
 84160  1  0  0  0
 85161  1  0  0  0
 86162  1  0  0  0
 87163  1  0  0  0
M  ISO  4   1 100  68 101  82 101  87 100
M  END
> <chiral flag>
0

> <version>
0

> <s_m_source_file>
/data/baiqing/PycharmProjects/Reinvent-master-3.2/result/LINK_invent/BTK/process_docking_weight1_custom_product_contain_oxygen_bond_distance_aromatic_linkinvent_7_9_3/rearranged_h_0161.sdf

> <i_m_source_file_index>
40

> <r_mmod_Potential_Energy-OPLS-2005>
-30.2228908538818

> <r_mmod_Stretch_Energy-OPLS-2005>
144.462631225586

> <r_mmod_Bend_Energy-OPLS-2005>
174.166305541992

> <r_mmod_Torsional_Energy-OPLS-2005>
280.568603515625

> <r_mmod_Improper_Torsional_Energy-OPLS-2005>
10.8964710235596

> <r_mmod_Van_der_Waal_Energy-OPLS-2005>
164.781814575195

> <r_mmod_Electrostatic_Energy-OPLS-2005>
-649.159423828125

> <r_mmod_Solvation_Energy-OPLS-2005>
-254.770172119141

> <b_mmod_Minimization_Converged-OPLS-2005>
0

> <r_mmod_RMS_Derivative-OPLS-2005>
0.434682339429855

$$$$
40
                    3D
 Structure written by MMmdl.
165173  0  0  1  0            999 V2000
  -30.7088  -14.4300   20.6310 C   0  0  0  0  0  0
  -30.4260  -12.3154   19.3822 C   0  0  0  0  0  0
  -29.4789  -12.5180   18.1822 C   0  0  0  0  0  0
  -28.0039  -12.3822   18.6082 C   0  0  0  0  0  0
  -27.6645  -13.2020   19.8813 C   0  0  2  0  0  0
  -28.7091  -12.9390   20.9863 C   0  0  0  0  0  0
  -25.2618  -13.8152   20.5676 C   0  0  0  0  0  0
  -24.1867  -13.0421   20.9186 C   0  0  0  0  0  0
  -24.6436  -11.6889   20.8784 C   0  0  0  0  0  0
  -23.9100  -10.4271   21.0445 C   0  0  0  0  0  0
  -24.3640   -9.4171   21.9210 C   0  0  0  0  0  0
  -23.6297   -8.2207   22.0751 C   0  0  0  0  0  0
  -22.4276   -8.0277   21.3551 C   0  0  0  0  0  0
  -21.9946   -9.0261   20.4653 C   0  0  0  0  0  0
  -22.7285  -10.2128   20.3079 C   0  0  0  0  0  0
  -21.6816   -6.0763   22.5309 C   0  0  0  0  0  0
  -21.4000   -6.5663   23.8254 C   0  0  0  0  0  0
  -21.3643   -5.6805   24.9210 C   0  0  0  0  0  0
  -21.6009   -4.3071   24.7240 C   0  0  0  0  0  0
  -21.8816   -3.8175   23.4358 C   0  0  0  0  0  0
  -21.9179   -4.6995   22.3422 C   0  0  0  0  0  0
  -22.7904  -13.5257   21.1842 C   0  0  0  0  0  0
  -22.1661   -4.2193   21.0996 F   0  0  0  0  0  0
  -21.5606   -3.4556   25.7746 F   0  0  0  0  0  0
  -30.0333  -13.2688   20.4283 N   0  0  0  0  0  0
  -26.3057  -12.9320   20.3439 N   0  0  0  0  0  0
  -25.9358  -11.6476   20.5840 N   0  0  0  0  0  0
  -22.0501  -12.8254   22.0375 N   0  0  0  0  0  0
  -25.4319  -15.1871   20.4081 N   0  0  0  0  0  0
  -31.8161  -14.6650   20.1355 O   0  0  0  0  0  0
  -21.6592   -6.8904   21.4270 O   0  0  0  0  0  0
  -22.3631  -14.5592   20.6722 O   0  0  0  0  0  0
  -24.6144  -31.8688   23.2080 C   0  0  0  0  0  0
  -25.9031  -32.4823   23.8394 C   0  0  1  0  0  0
  -27.2333  -27.4363   20.1023 C   0  0  0  0  0  0
  -25.5900  -33.8620   24.2344 N   0  0  0  0  0  0
  -23.4041  -30.4906   21.5474 C   0  0  2  0  0  0
  -24.8514  -28.9607   20.1103 C   0  0  0  0  0  0
  -22.7424  -29.4659   22.4972 C   0  0  0  0  0  0
  -18.0281  -28.1395   22.8481 C   0  0  0  0  0  0
  -24.1493  -36.7309   23.2632 C   0  0  0  0  0  0
  -25.9315  -30.8376   21.3588 C   0  0  0  0  0  0
  -26.0105  -29.4719   20.7075 C   0  0  0  0  0  0
  -27.2079  -28.7195   20.6946 C   0  0  0  0  0  0
  -26.0602  -26.9454   19.4878 C   0  0  0  0  0  0
  -24.8730  -27.6996   19.4913 C   0  0  0  0  0  0
  -23.6112  -29.8223   20.1621 C   0  0  0  0  0  0
  -25.4107  -36.3107   24.0341 C   0  0  1  0  0  0
  -20.5873  -28.3684   23.1311 C   0  0  2  0  0  0
  -20.6771  -26.9422   22.5407 C   0  0  0  0  0  0
  -19.5745  -26.6403   21.5206 C   0  0  0  0  0  0
  -18.1926  -26.7947   22.1620 C   0  0  0  0  0  0
  -19.1529  -28.8856   23.2898 C   0  0  0  0  0  0
  -18.9448  -30.1464   23.8914 C   0  0  0  0  0  0
  -17.6444  -30.6594   24.0573 C   0  0  0  0  0  0
  -25.9026  -34.9473   23.5138 C   0  0  0  0  0  0
  -16.5339  -29.9092   23.6324 C   0  0  0  0  0  0
  -16.7268  -28.6516   23.0331 C   0  0  0  0  0  0
  -26.4456  -31.6592   25.0718 C   0  0  0  0  0  0
  -25.3727  -31.3689   26.1474 C   0  0  0  0  0  0
  -27.0261  -30.3032   24.6067 C   0  0  0  0  0  0
  -27.6061  -32.4295   25.7464 C   0  0  0  0  0  0
  -27.5592  -37.1809   24.8467 C   0  0  0  0  0  0
  -21.4149  -29.3042   22.3714 N   0  0  0  0  0  0
  -26.4301  -37.3786   23.9413 N   0  0  0  0  0  0
  -24.6682  -31.0807   22.0965 N   0  0  0  0  0  0
  -23.4203  -28.8188   23.3002 O   0  0  0  0  0  0
  -28.3913  -26.6916   20.1099 O   0  0  0  0  0  0
  -26.5581  -34.8922   22.4694 O   0  0  0  0  0  0
  -23.5338  -32.1415   23.7485 O   0  0  0  0  0  0
  -31.2308  -16.1422   23.2630 C   0  0  0  0  0  0
  -31.5607  -18.5153   23.6711 C   0  0  0  0  0  0
  -30.3674  -17.7812   21.6736 C   0  0  0  0  0  0
  -31.7293  -17.1719   24.0868 C   0  0  0  0  0  0
  -30.5691  -16.4339   22.0558 C   0  0  0  0  0  0
  -30.8784  -18.8328   22.4759 C   0  0  0  0  0  0
  -32.3150  -16.8003   25.4041 C   0  0  0  0  0  0
  -33.7153  -17.2585   25.7600 C   0  0  0  0  0  0
  -29.6141  -22.2030   21.1937 C   0  0  0  0  0  0
  -29.2463  -24.3928   19.8987 C   0  0  0  0  0  0
  -34.5036  -18.0472   24.7338 C   0  0  0  0  0  0
  -28.9716  -22.8811   19.9732 C   0  0  0  0  0  0
  -29.7712  -20.6686   21.1489 C   0  0  0  0  0  0
  -28.2466  -25.3378   20.5851 C   0  0  0  0  0  0
  -31.6592  -16.0974   26.2339 N   0  0  0  0  0  0
  -34.2264  -16.9692   26.8843 N   0  0  0  0  0  0
  -30.0174  -15.3651   21.3071 N   0  0  0  0  0  0
  -30.7291  -20.1923   22.1493 N   0  0  0  0  0  0
  -29.9706  -22.8344   22.1957 O   0  0  0  0  0  0
  -30.2084  -24.8315   19.2550 O   0  0  0  0  0  0
  -31.4630  -12.4374   19.0631 H   0  0  0  0  0  0
  -30.3480  -11.2969   19.7640 H   0  0  0  0  0  0
  -29.7068  -11.7995   17.3938 H   0  0  0  0  0  0
  -29.6410  -13.5053   17.7469 H   0  0  0  0  0  0
  -27.8016  -11.3244   18.7787 H   0  0  0  0  0  0
  -27.3479  -12.6845   17.7926 H   0  0  0  0  0  0
  -27.7186  -14.2568   19.6090 H   0  0  0  0  0  0
  -28.6906  -11.8878   21.2760 H   0  0  0  0  0  0
  -28.4710  -13.4887   21.8988 H   0  0  0  0  0  0
  -25.2774   -9.5631   22.4812 H   0  0  0  0  0  0
  -23.9987   -7.4582   22.7459 H   0  0  0  0  0  0
  -21.0870   -8.8819   19.8968 H   0  0  0  0  0  0
  -22.3779  -10.9686   19.6198 H   0  0  0  0  0  0
  -21.2011   -7.6169   23.9806 H   0  0  0  0  0  0
  -21.1462   -6.0510   25.9124 H   0  0  0  0  0  0
  -22.0617   -2.7642   23.2852 H   0  0  0  0  0  0
  -22.4087  -11.9902   22.4765 H   0  0  0  0  0  0
  -21.1157  -13.1361   22.2605 H   0  0  0  0  0  0
  -24.6639  -15.8401   20.5159 H   0  0  0  0  0  0
  -26.2914  -15.6359   20.1138 H   0  0  0  0  0  0
  -26.7114  -32.5544   23.1174 H   0  0  0  0  0  0
  -25.0115  -33.9786   25.0535 H   0  0  0  0  0  0
  -22.6910  -31.3060   21.4073 H   0  0  0  0  0  0
  -23.3757  -35.9642   23.3290 H   0  0  0  0  0  0
  -24.3603  -36.8914   22.2050 H   0  0  0  0  0  0
  -23.7236  -37.6513   23.6632 H   0  0  0  0  0  0
  -26.0431  -31.6040   20.5909 H   0  0  0  0  0  0
  -26.8193  -30.8936   21.9755 H   0  0  0  0  0  0
  -28.1054  -29.1127   21.1518 H   0  0  0  0  0  0
  -26.0576  -25.9863   18.9911 H   0  0  0  0  0  0
  -23.9881  -27.3081   19.0079 H   0  0  0  0  0  0
  -23.7090  -30.5923   19.3964 H   0  0  0  0  0  0
  -22.7381  -29.2331   19.8750 H   0  0  0  0  0  0
  -25.1277  -36.1981   25.0833 H   0  0  0  0  0  0
  -20.9978  -28.3257   24.1428 H   0  0  0  0  0  0
  -20.5682  -26.2288   23.3588 H   0  0  0  0  0  0
  -21.6638  -26.7468   22.1193 H   0  0  0  0  0  0
  -19.6899  -25.6318   21.1228 H   0  0  0  0  0  0
  -19.6681  -27.3213   20.6735 H   0  0  0  0  0  0
  -17.4189  -26.6698   21.4028 H   0  0  0  0  0  0
  -18.0327  -26.0100   22.9026 H   0  0  0  0  0  0
  -19.7913  -30.7285   24.2299 H   0  0  0  0  0  0
  -17.4983  -31.6271   24.5175 H   0  0  0  0  0  0
  -15.5334  -30.2986   23.7637 H   0  0  0  0  0  0
  -15.8677  -28.0839   22.7022 H   0  0  0  0  0  0
  -24.5917  -30.7012   25.7813 H   0  0  0  0  0  0
  -24.8891  -32.2830   26.4927 H   0  0  0  0  0  0
  -25.8092  -30.8863   27.0227 H   0  0  0  0  0  0
  -26.2782  -29.6828   24.1112 H   0  0  0  0  0  0
  -27.4022  -29.7235   25.4506 H   0  0  0  0  0  0
  -27.8627  -30.4353   23.9203 H   0  0  0  0  0  0
  -27.2722  -33.3611   26.2046 H   0  0  0  0  0  0
  -28.3855  -32.6826   25.0264 H   0  0  0  0  0  0
  -28.0733  -31.8405   26.5363 H   0  0  0  0  0  0
  -28.2605  -38.0111   24.7522 H   0  0  0  0  0  0
  -28.1097  -36.2646   24.6280 H   0  0  0  0  0  0
  -27.2320  -37.1445   25.8873 H   0  0  0  0  0  0
  -20.9315  -29.8771   21.6941 H   0  0  0  0  0  0
  -26.0197  -38.2874   24.1397 H   0  0  0  0  0  0
  -31.3428  -15.1140   23.5773 H   0  0  0  0  0  0
  -31.9227  -19.3105   24.3061 H   0  0  0  0  0  0
  -29.8207  -17.9916   20.7676 H   0  0  0  0  0  0
  -34.2224  -19.0995   24.7624 H   0  0  0  0  0  0
  -34.3483  -17.6587   23.7271 H   0  0  0  0  0  0
  -35.5707  -17.9786   24.9442 H   0  0  0  0  0  0
  -27.8964  -22.7089   20.0025 H   0  0  0  0  0  0
  -29.3511  -22.4086   19.0689 H   0  0  0  0  0  0
  -30.0895  -20.3648   20.1513 H   0  0  0  0  0  0
  -28.7954  -20.2164   21.3293 H   0  0  0  0  0  0
  -28.4200  -25.3196   21.6616 H   0  0  0  0  0  0
  -27.2447  -24.9413   20.4306 H   0  0  0  0  0  0
  -30.7434  -15.8631   25.8703 H   0  0  0  0  0  0
  -33.5277  -16.4361   27.3990 H   0  0  0  0  0  0
  -29.0724  -15.1046   21.5440 H   0  0  0  0  0  0
  -31.0180  -20.9037   22.8176 H   0  0  0  0  0  0
  1 25  1  0  0  0
  1 30  2  0  0  0
  1 87  1  0  0  0
  2  3  1  0  0  0
  2 25  1  0  0  0
  2 91  1  0  0  0
  2 92  1  0  0  0
  3  4  1  0  0  0
  3 93  1  0  0  0
  3 94  1  0  0  0
  4  5  1  0  0  0
  4 95  1  0  0  0
  4 96  1  0  0  0
  5  6  1  0  0  0
  5 26  1  0  0  0
  5 97  1  0  0  0
  6 25  1  0  0  0
  6 98  1  0  0  0
  6 99  1  0  0  0
  7  8  2  0  0  0
  7 26  1  0  0  0
  7 29  1  0  0  0
  8  9  1  0  0  0
  8 22  1  0  0  0
  9 10  1  0  0  0
  9 27  2  0  0  0
 10 11  2  0  0  0
 10 15  1  0  0  0
 11 12  1  0  0  0
 11100  1  0  0  0
 12 13  2  0  0  0
 12101  1  0  0  0
 13 14  1  0  0  0
 13 31  1  0  0  0
 14 15  2  0  0  0
 14102  1  0  0  0
 15103  1  0  0  0
 16 17  2  0  0  0
 16 21  1  0  0  0
 16 31  1  0  0  0
 17 18  1  0  0  0
 17104  1  0  0  0
 18 19  2  0  0  0
 18105  1  0  0  0
 19 20  1  0  0  0
 19 24  1  0  0  0
 20 21  2  0  0  0
 20106  1  0  0  0
 21 23  1  0  0  0
 22 28  1  0  0  0
 22 32  2  0  0  0
 26 27  1  0  0  0
 28107  1  0  0  0
 28108  1  0  0  0
 29109  1  0  0  0
 29110  1  0  0  0
 33 34  1  0  0  0
 33 66  1  0  0  0
 33 70  2  0  0  0
 34 36  1  0  0  0
 34 59  1  0  0  0
 34111  1  0  0  0
 35 44  2  0  0  0
 35 45  1  0  0  0
 35 68  1  0  0  0
 36 56  1  0  0  0
 36112  1  0  0  0
 37 39  1  0  0  0
 37 47  1  0  0  0
 37 66  1  0  0  0
 37113  1  0  0  0
 38 43  2  0  0  0
 38 46  1  0  0  0
 38 47  1  0  0  0
 39 64  1  0  0  0
 39 67  2  0  0  0
 40 52  1  0  0  0
 40 53  2  0  0  0
 40 58  1  0  0  0
 41114  1  0  0  0
 41115  1  0  0  0
 41116  1  0  0  0
 41 48  1  0  0  0
 42 43  1  0  0  0
 42 66  1  0  0  0
 42117  1  0  0  0
 42118  1  0  0  0
 43 44  1  0  0  0
 44119  1  0  0  0
 45 46  2  0  0  0
 45120  1  0  0  0
 46121  1  0  0  0
 47122  1  0  0  0
 47123  1  0  0  0
 48 56  1  0  0  0
 48 65  1  0  0  0
 48124  1  0  0  0
 49 50  1  0  0  0
 49 53  1  0  0  0
 49 64  1  0  0  0
 49125  1  0  0  0
 50 51  1  0  0  0
 50126  1  0  0  0
 50127  1  0  0  0
 51 52  1  0  0  0
 51128  1  0  0  0
 51129  1  0  0  0
 52130  1  0  0  0
 52131  1  0  0  0
 53 54  1  0  0  0
 54 55  2  0  0  0
 54132  1  0  0  0
 55 57  1  0  0  0
 55133  1  0  0  0
 56 69  2  0  0  0
 57 58  2  0  0  0
 57134  1  0  0  0
 58135  1  0  0  0
 59 60  1  0  0  0
 59 61  1  0  0  0
 59 62  1  0  0  0
 60136  1  0  0  0
 60137  1  0  0  0
 60138  1  0  0  0
 61139  1  0  0  0
 61140  1  0  0  0
 61141  1  0  0  0
 62142  1  0  0  0
 62143  1  0  0  0
 62144  1  0  0  0
 63 65  1  0  0  0
 63145  1  0  0  0
 63146  1  0  0  0
 63147  1  0  0  0
 64148  1  0  0  0
 65149  1  0  0  0
 68 84  1  0  0  0
 71 74  2  0  0  0
 71 75  1  0  0  0
 71150  1  0  0  0
 72 74  1  0  0  0
 72 76  2  0  0  0
 72151  1  0  0  0
 73 75  2  0  0  0
 73 76  1  0  0  0
 73152  1  0  0  0
 74 77  1  0  0  0
 75 87  1  0  0  0
 76 88  1  0  0  0
 77 78  1  0  0  0
 77 85  2  0  0  0
 78 81  1  0  0  0
 78 86  2  0  0  0
 79 82  1  0  0  0
 79 83  1  0  0  0
 79 89  2  0  0  0
 80 82  1  0  0  0
 80 84  1  0  0  0
 80 90  2  0  0  0
 81153  1  0  0  0
 81154  1  0  0  0
 81155  1  0  0  0
 82156  1  0  0  0
 82157  1  0  0  0
 83 88  1  0  0  0
 83158  1  0  0  0
 83159  1  0  0  0
 84160  1  0  0  0
 84161  1  0  0  0
 85162  1  0  0  0
 86163  1  0  0  0
 87164  1  0  0  0
 88165  1  0  0  0
M  ISO  4   1 100  68 101  84 101  87 100
M  END
> <chiral flag>
0

> <version>
0

> <s_m_source_file>
/data/baiqing/PycharmProjects/Reinvent-master-3.2/result/LINK_invent/BTK/process_docking_weight1_custom_product_contain_oxygen_bond_distance_aromatic_linkinvent_7_9_3/rearranged_h_0161.sdf

> <i_m_source_file_index>
41

> <r_mmod_Potential_Energy-OPLS-2005>
-59.9577445983887

> <r_mmod_Stretch_Energy-OPLS-2005>
38.6387596130371

> <r_mmod_Bend_Energy-OPLS-2005>
111.979232788086

> <r_mmod_Torsional_Energy-OPLS-2005>
279.391296386719

> <r_mmod_Improper_Torsional_Energy-OPLS-2005>
5.93948078155518

> <r_mmod_Van_der_Waal_Energy-OPLS-2005>
164.857238769531

> <r_mmod_Electrostatic_Energy-OPLS-2005>
-387.317138671875

> <r_mmod_Solvation_Energy-OPLS-2005>
-284.045135498047

> <b_mmod_Minimization_Converged-OPLS-2005>
0

> <r_mmod_RMS_Derivative-OPLS-2005>
2.87333989143372

$$$$
41
                    3D
 Structure written by MMmdl.
158166  0  0  1  0            999 V2000
  -30.7134  -14.4944   20.5630 C   0  0  0  0  0  0
  -30.4187  -12.3165   19.4389 C   0  0  0  0  0  0
  -29.5010  -12.5160   18.2148 C   0  0  0  0  0  0
  -28.0183  -12.3789   18.6157 C   0  0  0  0  0  0
  -27.6612  -13.2161   19.8747 C   0  0  2  0  0  0
  -28.7001  -13.0024   20.9967 C   0  0  0  0  0  0
  -25.2571  -13.8177   20.5687 C   0  0  0  0  0  0
  -24.1835  -13.0436   20.9179 C   0  0  0  0  0  0
  -24.6414  -11.6914   20.8729 C   0  0  0  0  0  0
  -23.9081  -10.4296   21.0388 C   0  0  0  0  0  0
  -24.3631   -9.4210   21.9163 C   0  0  0  0  0  0
  -23.6310   -8.2243   22.0739 C   0  0  0  0  0  0
  -22.4285   -8.0278   21.3543 C   0  0  0  0  0  0
  -21.9921   -9.0247   20.4635 C   0  0  0  0  0  0
  -22.7249  -10.2131   20.3039 C   0  0  0  0  0  0
  -21.6851   -6.0741   22.5283 C   0  0  0  0  0  0
  -21.4017   -6.5642   23.8217 C   0  0  0  0  0  0
  -21.3661   -5.6794   24.9178 C   0  0  0  0  0  0
  -21.6041   -4.3056   24.7221 C   0  0  0  0  0  0
  -21.8819   -3.8149   23.4346 C   0  0  0  0  0  0
  -21.9195   -4.6970   22.3406 C   0  0  0  0  0  0
  -22.7852  -13.5222   21.1843 C   0  0  0  0  0  0
  -22.1654   -4.2159   21.0978 F   0  0  0  0  0  0
  -21.5637   -3.4540   25.7728 F   0  0  0  0  0  0
  -30.0332  -13.3144   20.4545 N   0  0  0  0  0  0
  -26.3025  -12.9375   20.3363 N   0  0  0  0  0  0
  -25.9337  -11.6530   20.5749 N   0  0  0  0  0  0
  -22.0498  -12.8221   22.0412 N   0  0  0  0  0  0
  -25.4303  -15.1897   20.4112 N   0  0  0  0  0  0
  -31.8299  -14.6375   20.0553 O   0  0  0  0  0  0
  -21.6643   -6.8875   21.4242 O   0  0  0  0  0  0
  -22.3529  -14.5515   20.6673 O   0  0  0  0  0  0
  -24.6176  -31.8656   23.2104 C   0  0  0  0  0  0
  -25.9057  -32.4806   23.8397 C   0  0  1  0  0  0
  -27.2290  -27.4185   20.0931 C   0  0  0  0  0  0
  -25.5902  -33.8615   24.2321 N   0  0  0  0  0  0
  -23.4062  -30.4921   21.5501 C   0  0  2  0  0  0
  -24.8542  -28.9595   20.1096 C   0  0  0  0  0  0
  -22.7427  -29.4664   22.4979 C   0  0  0  0  0  0
  -18.0272  -28.1378   22.8484 C   0  0  0  0  0  0
  -24.1483  -36.7314   23.2638 C   0  0  0  0  0  0
  -25.9387  -30.8271   21.3666 C   0  0  0  0  0  0
  -26.0175  -29.4629   20.7076 C   0  0  0  0  0  0
  -27.2115  -28.6995   20.6971 C   0  0  0  0  0  0
  -26.0509  -26.9419   19.4779 C   0  0  0  0  0  0
  -24.8659  -27.6987   19.4905 C   0  0  0  0  0  0
  -23.6161  -29.8258   20.1644 C   0  0  0  0  0  0
  -25.4102  -36.3106   24.0336 C   0  0  1  0  0  0
  -20.5863  -28.3678   23.1304 C   0  0  2  0  0  0
  -20.6755  -26.9407   22.5418 C   0  0  0  0  0  0
  -19.5734  -26.6388   21.5210 C   0  0  0  0  0  0
  -18.1916  -26.7927   22.1621 C   0  0  0  0  0  0
  -19.1520  -28.8846   23.2894 C   0  0  0  0  0  0
  -18.9445  -30.1456   23.8906 C   0  0  0  0  0  0
  -17.6442  -30.6584   24.0558 C   0  0  0  0  0  0
  -25.9032  -34.9471   23.5121 C   0  0  0  0  0  0
  -16.5335  -29.9076   23.6327 C   0  0  0  0  0  0
  -16.7262  -28.6495   23.0343 C   0  0  0  0  0  0
  -26.4483  -31.6592   25.0729 C   0  0  0  0  0  0
  -25.3754  -31.3698   26.1478 C   0  0  0  0  0  0
  -27.0316  -30.3021   24.6136 C   0  0  0  0  0  0
  -27.6061  -32.4313   25.7496 C   0  0  0  0  0  0
  -27.5578  -37.1809   24.8461 C   0  0  0  0  0  0
  -21.4150  -29.3037   22.3716 N   0  0  0  0  0  0
  -26.4284  -37.3792   23.9410 N   0  0  0  0  0  0
  -24.6722  -31.0753   22.1010 N   0  0  0  0  0  0
  -23.4184  -28.8197   23.3025 O   0  0  0  0  0  0
  -28.3416  -26.6000   20.1251 O   0  0  0  0  0  0
  -26.5596  -34.8932   22.4686 O   0  0  0  0  0  0
  -23.5364  -32.1423   23.7490 O   0  0  0  0  0  0
  -28.8347  -19.2379   23.4416 C   0  0  0  0  0  0
  -29.2805  -18.0915   22.7698 C   0  0  0  0  0  0
  -28.8147  -20.4747   22.7839 C   0  0  0  0  0  0
  -29.7320  -18.1546   21.4332 C   0  0  0  0  0  0
  -29.6769  -19.4196   20.7499 C   0  0  0  0  0  0
  -29.2048  -20.5943   21.4289 C   0  0  0  0  0  0
  -30.2462  -16.8951   20.8089 C   0  0  0  0  0  0
  -30.0345  -15.6162   21.2248 C   0  0  0  0  0  0
  -28.1228  -25.3561   20.6961 C   0  0  0  0  0  0
  -28.7786  -24.2092   20.3916 C   0  0  0  0  0  0
  -28.3939  -22.9633   21.0801 C   0  0  0  0  0  0
  -29.0632  -18.9079   18.3290 C   0  0  0  0  0  0
  -30.1071  -19.5090   19.2827 C   0  0  0  0  0  0
  -29.1826  -21.8961   20.7978 N   0  0  0  0  0  0
  -27.4148  -22.8815   21.8276 O   0  0  0  0  0  0
  -29.7596  -24.2067   19.4761 O   0  0  0  0  0  0
  -31.4656  -12.3941   19.1417 H   0  0  0  0  0  0
  -30.3054  -11.3088   19.8398 H   0  0  0  0  0  0
  -29.7473  -11.7939   17.4353 H   0  0  0  0  0  0
  -29.6741  -13.5028   17.7817 H   0  0  0  0  0  0
  -27.8238  -11.3232   18.8040 H   0  0  0  0  0  0
  -27.3735  -12.6592   17.7815 H   0  0  0  0  0  0
  -27.7041  -14.2653   19.5834 H   0  0  0  0  0  0
  -28.6778  -11.9661   21.3335 H   0  0  0  0  0  0
  -28.4421  -13.5859   21.8780 H   0  0  0  0  0  0
  -25.2776   -9.5696   22.4734 H   0  0  0  0  0  0
  -24.0024   -7.4640   22.7458 H   0  0  0  0  0  0
  -21.0851   -8.8757   19.8948 H   0  0  0  0  0  0
  -22.3686  -10.9666   19.6150 H   0  0  0  0  0  0
  -21.2003   -7.6149   23.9729 H   0  0  0  0  0  0
  -21.1484   -6.0515   25.9080 H   0  0  0  0  0  0
  -22.0600   -2.7615   23.2837 H   0  0  0  0  0  0
  -22.4108  -11.9896   22.4843 H   0  0  0  0  0  0
  -21.1101  -13.1228   22.2569 H   0  0  0  0  0  0
  -24.6742  -15.8531   20.5341 H   0  0  0  0  0  0
  -26.2998  -15.6288   20.1345 H   0  0  0  0  0  0
  -26.7134  -32.5513   23.1173 H   0  0  0  0  0  0
  -25.0042  -33.9768   25.0455 H   0  0  0  0  0  0
  -22.6954  -31.3094   21.4109 H   0  0  0  0  0  0
  -23.3736  -35.9654   23.3306 H   0  0  0  0  0  0
  -24.3577  -36.8925   22.2050 H   0  0  0  0  0  0
  -23.7251  -37.6528   23.6650 H   0  0  0  0  0  0
  -26.0534  -31.5954   20.6000 H   0  0  0  0  0  0
  -26.8254  -30.8775   21.9872 H   0  0  0  0  0  0
  -28.1067  -29.0773   21.1710 H   0  0  0  0  0  0
  -26.0451  -25.9713   19.0028 H   0  0  0  0  0  0
  -23.9725  -27.3055   19.0253 H   0  0  0  0  0  0
  -23.7221  -30.5999   19.4043 H   0  0  0  0  0  0
  -22.7393  -29.2451   19.8696 H   0  0  0  0  0  0
  -25.1284  -36.1962   25.0829 H   0  0  0  0  0  0
  -20.9954  -28.3241   24.1420 H   0  0  0  0  0  0
  -20.5637  -26.2287   23.3611 H   0  0  0  0  0  0
  -21.6627  -26.7429   22.1215 H   0  0  0  0  0  0
  -19.6884  -25.6299   21.1232 H   0  0  0  0  0  0
  -19.6669  -27.3205   20.6745 H   0  0  0  0  0  0
  -17.4182  -26.6682   21.4025 H   0  0  0  0  0  0
  -18.0310  -26.0071   22.9021 H   0  0  0  0  0  0
  -19.7924  -30.7275   24.2269 H   0  0  0  0  0  0
  -17.4996  -31.6265   24.5160 H   0  0  0  0  0  0
  -15.5338  -30.2970   23.7665 H   0  0  0  0  0  0
  -15.8661  -28.0830   22.7035 H   0  0  0  0  0  0
  -24.5918  -30.7052   25.7821 H   0  0  0  0  0  0
  -24.8955  -32.2849   26.4958 H   0  0  0  0  0  0
  -25.8110  -30.8848   27.0222 H   0  0  0  0  0  0
  -26.2865  -29.6774   24.1185 H   0  0  0  0  0  0
  -27.4057  -29.7271   25.4624 H   0  0  0  0  0  0
  -27.8720  -30.4318   23.9307 H   0  0  0  0  0  0
  -27.2669  -33.3596   26.2110 H   0  0  0  0  0  0
  -28.3850  -32.6902   25.0306 H   0  0  0  0  0  0
  -28.0748  -31.8410   26.5384 H   0  0  0  0  0  0
  -28.2599  -38.0106   24.7508 H   0  0  0  0  0  0
  -28.1075  -36.2643   24.6277 H   0  0  0  0  0  0
  -27.2300  -37.1435   25.8865 H   0  0  0  0  0  0
  -20.9314  -29.8769   21.6941 H   0  0  0  0  0  0
  -26.0174  -38.2867   24.1422 H   0  0  0  0  0  0
  -28.5214  -19.1711   24.4733 H   0  0  0  0  0  0
  -29.3059  -17.1654   23.3239 H   0  0  0  0  0  0
  -28.4947  -21.3325   23.3566 H   0  0  0  0  0  0
  -30.8907  -17.0286   19.9523 H   0  0  0  0  0  0
  -29.3890  -15.4315   22.0659 H   0  0  0  0  0  0
  -27.3347  -25.3888   21.4399 H   0  0  0  0  0  0
  -29.3878  -18.9850   17.2907 H   0  0  0  0  0  0
  -28.1097  -19.4285   18.4161 H   0  0  0  0  0  0
  -28.8865  -17.8527   18.5377 H   0  0  0  0  0  0
  -31.0710  -19.0187   19.1483 H   0  0  0  0  0  0
  -30.2928  -20.5405   18.9868 H   0  0  0  0  0  0
  -29.8526  -22.0681   20.0609 H   0  0  0  0  0  0
  -29.8423  -25.0994   19.1641 H   0  0  0  0  0  0
  1 25  1  0  0  0
  1 30  2  0  0  0
  1 78  1  0  0  0
  2  3  1  0  0  0
  2 25  1  0  0  0
  2 87  1  0  0  0
  2 88  1  0  0  0
  3  4  1  0  0  0
  3 89  1  0  0  0
  3 90  1  0  0  0
  4  5  1  0  0  0
  4 91  1  0  0  0
  4 92  1  0  0  0
  5  6  1  0  0  0
  5 26  1  0  0  0
  5 93  1  0  0  0
  6 25  1  0  0  0
  6 94  1  0  0  0
  6 95  1  0  0  0
  7  8  2  0  0  0
  7 26  1  0  0  0
  7 29  1  0  0  0
  8  9  1  0  0  0
  8 22  1  0  0  0
  9 10  1  0  0  0
  9 27  2  0  0  0
 10 11  2  0  0  0
 10 15  1  0  0  0
 11 12  1  0  0  0
 11 96  1  0  0  0
 12 13  2  0  0  0
 12 97  1  0  0  0
 13 14  1  0  0  0
 13 31  1  0  0  0
 14 15  2  0  0  0
 14 98  1  0  0  0
 15 99  1  0  0  0
 16 17  2  0  0  0
 16 21  1  0  0  0
 16 31  1  0  0  0
 17 18  1  0  0  0
 17100  1  0  0  0
 18 19  2  0  0  0
 18101  1  0  0  0
 19 20  1  0  0  0
 19 24  1  0  0  0
 20 21  2  0  0  0
 20102  1  0  0  0
 21 23  1  0  0  0
 22 28  1  0  0  0
 22 32  2  0  0  0
 26 27  1  0  0  0
 28103  1  0  0  0
 28104  1  0  0  0
 29105  1  0  0  0
 29106  1  0  0  0
 33 34  1  0  0  0
 33 66  1  0  0  0
 33 70  2  0  0  0
 34 36  1  0  0  0
 34 59  1  0  0  0
 34107  1  0  0  0
 35 44  2  0  0  0
 35 45  1  0  0  0
 35 68  1  0  0  0
 36 56  1  0  0  0
 36108  1  0  0  0
 37 39  1  0  0  0
 37 47  1  0  0  0
 37 66  1  0  0  0
 37109  1  0  0  0
 38 43  2  0  0  0
 38 46  1  0  0  0
 38 47  1  0  0  0
 39 64  1  0  0  0
 39 67  2  0  0  0
 40 52  1  0  0  0
 40 53  2  0  0  0
 40 58  1  0  0  0
 41110  1  0  0  0
 41111  1  0  0  0
 41112  1  0  0  0
 41 48  1  0  0  0
 42 43  1  0  0  0
 42 66  1  0  0  0
 42113  1  0  0  0
 42114  1  0  0  0
 43 44  1  0  0  0
 44115  1  0  0  0
 45 46  2  0  0  0
 45116  1  0  0  0
 46117  1  0  0  0
 47118  1  0  0  0
 47119  1  0  0  0
 48 56  1  0  0  0
 48 65  1  0  0  0
 48120  1  0  0  0
 49 50  1  0  0  0
 49 53  1  0  0  0
 49 64  1  0  0  0
 49121  1  0  0  0
 50 51  1  0  0  0
 50122  1  0  0  0
 50123  1  0  0  0
 51 52  1  0  0  0
 51124  1  0  0  0
 51125  1  0  0  0
 52126  1  0  0  0
 52127  1  0  0  0
 53 54  1  0  0  0
 54 55  2  0  0  0
 54128  1  0  0  0
 55 57  1  0  0  0
 55129  1  0  0  0
 56 69  2  0  0  0
 57 58  2  0  0  0
 57130  1  0  0  0
 58131  1  0  0  0
 59 60  1  0  0  0
 59 61  1  0  0  0
 59 62  1  0  0  0
 60132  1  0  0  0
 60133  1  0  0  0
 60134  1  0  0  0
 61135  1  0  0  0
 61136  1  0  0  0
 61137  1  0  0  0
 62138  1  0  0  0
 62139  1  0  0  0
 62140  1  0  0  0
 63 65  1  0  0  0
 63141  1  0  0  0
 63142  1  0  0  0
 63143  1  0  0  0
 64144  1  0  0  0
 65145  1  0  0  0
 68 79  1  0  0  0
 71 72  2  0  0  0
 71 73  1  0  0  0
 71146  1  0  0  0
 72 74  1  0  0  0
 72147  1  0  0  0
 73 76  2  0  0  0
 73148  1  0  0  0
 74 75  2  0  0  0
 74 77  1  0  0  0
 75 76  1  0  0  0
 75 83  1  0  0  0
 76 84  1  0  0  0
 77 78  2  0  0  0
 77149  1  0  0  0
 78150  1  0  0  0
 79 80  2  0  0  0
 79151  1  0  0  0
 80 81  1  0  0  0
 80 86  1  0  0  0
 81 84  1  0  0  0
 81 85  2  0  0  0
 82 83  1  0  0  0
 82152  1  0  0  0
 82153  1  0  0  0
 82154  1  0  0  0
 83155  1  0  0  0
 83156  1  0  0  0
 84157  1  0  0  0
 86158  1  0  0  0
M  ISO  4   1 100  68 101  78 100  79 101
M  END
> <chiral flag>
0

> <version>
0

> <s_m_source_file>
/data/baiqing/PycharmProjects/Reinvent-master-3.2/result/LINK_invent/BTK/process_docking_weight1_custom_product_contain_oxygen_bond_distance_aromatic_linkinvent_7_9_3/rearranged_h_0161.sdf

> <i_m_source_file_index>
42

> <r_mmod_Potential_Energy-OPLS-2005>
-64.3224182128906

> <r_mmod_Stretch_Energy-OPLS-2005>
49.458869934082

> <r_mmod_Bend_Energy-OPLS-2005>
102.326637268066

> <r_mmod_Torsional_Energy-OPLS-2005>
193.433685302734

> <r_mmod_Improper_Torsional_Energy-OPLS-2005>
2.94288468360901

> <r_mmod_Van_der_Waal_Energy-OPLS-2005>
173.040466308594

> <r_mmod_Electrostatic_Energy-OPLS-2005>
-399.315612792969

> <r_mmod_Solvation_Energy-OPLS-2005>
-203.375213623047

> <b_mmod_Minimization_Converged-OPLS-2005>
0

> <r_mmod_RMS_Derivative-OPLS-2005>
1.98302316665649

$$$$
42
                    3D
 Structure written by MMmdl.
158166  0  0  1  0            999 V2000
  -30.6022  -14.6656   20.5172 C   0  0  0  0  0  0
  -30.4421  -12.4082   19.4592 C   0  0  0  0  0  0
  -29.5106  -12.5115   18.2284 C   0  0  0  0  0  0
  -28.0328  -12.3415   18.6359 C   0  0  0  0  0  0
  -27.6502  -13.2113   19.8616 C   0  0  2  0  0  0
  -28.6923  -13.0636   20.9952 C   0  0  0  0  0  0
  -25.2548  -13.8151   20.5685 C   0  0  0  0  0  0
  -24.1818  -13.0430   20.9205 C   0  0  0  0  0  0
  -24.6376  -11.6899   20.8748 C   0  0  0  0  0  0
  -23.9048  -10.4285   21.0414 C   0  0  0  0  0  0
  -24.3607   -9.4202   21.9187 C   0  0  0  0  0  0
  -23.6290   -8.2234   22.0751 C   0  0  0  0  0  0
  -22.4272   -8.0272   21.3539 C   0  0  0  0  0  0
  -21.9902   -9.0241   20.4644 C   0  0  0  0  0  0
  -22.7226  -10.2124   20.3057 C   0  0  0  0  0  0
  -21.6845   -6.0730   22.5280 C   0  0  0  0  0  0
  -21.4012   -6.5634   23.8214 C   0  0  0  0  0  0
  -21.3664   -5.6788   24.9178 C   0  0  0  0  0  0
  -21.6048   -4.3050   24.7228 C   0  0  0  0  0  0
  -21.8819   -3.8141   23.4352 C   0  0  0  0  0  0
  -21.9190   -4.6959   22.3407 C   0  0  0  0  0  0
  -22.7846  -13.5233   21.1867 C   0  0  0  0  0  0
  -22.1660   -4.2146   21.0984 F   0  0  0  0  0  0
  -21.5636   -3.4535   25.7743 F   0  0  0  0  0  0
  -30.0110  -13.4243   20.4447 N   0  0  0  0  0  0
  -26.2957  -12.9317   20.3278 N   0  0  0  0  0  0
  -25.9297  -11.6485   20.5737 N   0  0  0  0  0  0
  -22.0476  -12.8224   22.0413 N   0  0  0  0  0  0
  -25.4276  -15.1875   20.4106 N   0  0  0  0  0  0
  -31.7520  -14.8394   20.0815 O   0  0  0  0  0  0
  -21.6633   -6.8873   21.4243 O   0  0  0  0  0  0
  -22.3549  -14.5546   20.6709 O   0  0  0  0  0  0
  -24.6252  -31.8594   23.2006 C   0  0  0  0  0  0
  -25.9105  -32.4773   23.8337 C   0  0  1  0  0  0
  -27.2251  -27.3203   20.1324 C   0  0  0  0  0  0
  -25.5917  -33.8574   24.2268 N   0  0  0  0  0  0
  -23.4193  -30.4804   21.5433 C   0  0  2  0  0  0
  -24.8678  -28.9307   20.1126 C   0  0  0  0  0  0
  -22.7475  -29.4616   22.4939 C   0  0  0  0  0  0
  -18.0287  -28.1387   22.8492 C   0  0  0  0  0  0
  -24.1497  -36.7295   23.2639 C   0  0  0  0  0  0
  -25.9585  -30.7917   21.3711 C   0  0  0  0  0  0
  -26.0339  -29.4170   20.7177 C   0  0  0  0  0  0
  -27.2181  -28.6238   20.7145 C   0  0  0  0  0  0
  -26.0462  -26.8856   19.4936 C   0  0  0  0  0  0
  -24.8749  -27.6702   19.4914 C   0  0  0  0  0  0
  -23.6341  -29.8104   20.1601 C   0  0  0  0  0  0
  -25.4121  -36.3080   24.0327 C   0  0  1  0  0  0
  -20.5889  -28.3682   23.1291 C   0  0  2  0  0  0
  -20.6778  -26.9409   22.5412 C   0  0  0  0  0  0
  -19.5754  -26.6385   21.5217 C   0  0  0  0  0  0
  -18.1931  -26.7931   22.1625 C   0  0  0  0  0  0
  -19.1539  -28.8853   23.2886 C   0  0  0  0  0  0
  -18.9461  -30.1458   23.8896 C   0  0  0  0  0  0
  -17.6461  -30.6588   24.0564 C   0  0  0  0  0  0
  -25.9051  -34.9449   23.5098 C   0  0  0  0  0  0
  -16.5354  -29.9085   23.6333 C   0  0  0  0  0  0
  -16.7272  -28.6506   23.0349 C   0  0  0  0  0  0
  -26.4488  -31.6577   25.0703 C   0  0  0  0  0  0
  -25.3719  -31.3717   26.1428 C   0  0  0  0  0  0
  -27.0314  -30.2996   24.6144 C   0  0  0  0  0  0
  -27.6046  -32.4315   25.7471 C   0  0  0  0  0  0
  -27.5585  -37.1805   24.8465 C   0  0  0  0  0  0
  -21.4190  -29.3033   22.3685 N   0  0  0  0  0  0
  -26.4301  -37.3773   23.9402 N   0  0  0  0  0  0
  -24.6861  -31.0612   22.0952 N   0  0  0  0  0  0
  -23.4200  -28.8174   23.3028 O   0  0  0  0  0  0
  -28.3519  -26.4866   20.1360 O   0  0  0  0  0  0
  -26.5626  -34.8919   22.4669 O   0  0  0  0  0  0
  -23.5418  -32.1391   23.7344 O   0  0  0  0  0  0
  -28.6578  -17.8883   21.3354 C   0  0  0  0  0  0
  -30.4378  -19.2325   19.7416 C   0  0  0  0  0  0
  -29.3697  -20.0183   20.2684 C   0  0  0  0  0  0
  -28.4636  -19.2841   21.0947 C   0  0  0  0  0  0
  -29.7286  -17.1406   20.7605 C   0  0  0  0  0  0
  -28.8180  -22.4315   20.5003 C   0  0  0  0  0  0
  -29.5882  -25.3355   21.7534 C   0  0  0  0  0  0
  -27.1239  -24.9437   21.7201 C   0  0  0  0  0  0
  -28.6139  -23.8848   19.8837 C   0  0  0  0  0  0
  -28.3707  -25.1615   20.8282 C   0  0  0  0  0  0
  -29.2235  -21.3908   19.8269 N   0  0  0  0  0  0
  -30.5786  -17.8877   19.9916 N   0  3  0  0  0  0
  -27.3358  -19.9114   21.6318 N   0  0  0  0  0  0
  -29.8017  -15.6830   20.9834 N   0  0  0  0  0  0
  -31.4822  -12.5419   19.1568 H   0  0  0  0  0  0
  -30.3893  -11.4102   19.8976 H   0  0  0  0  0  0
  -29.7802  -11.7579   17.4872 H   0  0  0  0  0  0
  -29.6473  -13.4785   17.7423 H   0  0  0  0  0  0
  -27.8750  -11.2880   18.8697 H   0  0  0  0  0  0
  -27.3779  -12.5663   17.7928 H   0  0  0  0  0  0
  -27.6652  -14.2454   19.5179 H   0  0  0  0  0  0
  -28.7092  -12.0355   21.3625 H   0  0  0  0  0  0
  -28.4197  -13.6726   21.8581 H   0  0  0  0  0  0
  -25.2754   -9.5677   22.4760 H   0  0  0  0  0  0
  -24.0001   -7.4624   22.7465 H   0  0  0  0  0  0
  -21.0831   -8.8757   19.8951 H   0  0  0  0  0  0
  -22.3685  -10.9662   19.6166 H   0  0  0  0  0  0
  -21.1999   -7.6142   23.9722 H   0  0  0  0  0  0
  -21.1489   -6.0515   25.9080 H   0  0  0  0  0  0
  -22.0596   -2.7605   23.2850 H   0  0  0  0  0  0
  -22.4068  -11.9878   22.4808 H   0  0  0  0  0  0
  -21.1098  -13.1262   22.2616 H   0  0  0  0  0  0
  -24.6417  -15.8240   20.4913 H   0  0  0  0  0  0
  -26.2275  -15.6115   19.9609 H   0  0  0  0  0  0
  -26.7174  -32.5442   23.1083 H   0  0  0  0  0  0
  -25.0045  -33.9717   25.0400 H   0  0  0  0  0  0
  -22.7128  -31.3000   21.3988 H   0  0  0  0  0  0
  -23.3753  -35.9636   23.3308 H   0  0  0  0  0  0
  -24.3591  -36.8909   22.2055 H   0  0  0  0  0  0
  -23.7266  -37.6503   23.6660 H   0  0  0  0  0  0
  -26.0899  -31.5552   20.6032 H   0  0  0  0  0  0
  -26.8396  -30.8419   21.9991 H   0  0  0  0  0  0
  -28.1178  -28.9951   21.1856 H   0  0  0  0  0  0
  -26.0279  -25.9186   19.0115 H   0  0  0  0  0  0
  -23.9824  -27.2940   19.0105 H   0  0  0  0  0  0
  -23.7505  -30.5846   19.4009 H   0  0  0  0  0  0
  -22.7549  -29.2369   19.8611 H   0  0  0  0  0  0
  -25.1311  -36.1925   25.0821 H   0  0  0  0  0  0
  -20.9977  -28.3255   24.1413 H   0  0  0  0  0  0
  -20.5691  -26.2290   23.3607 H   0  0  0  0  0  0
  -21.6645  -26.7450   22.1198 H   0  0  0  0  0  0
  -19.6913  -25.6296   21.1244 H   0  0  0  0  0  0
  -19.6694  -27.3196   20.6750 H   0  0  0  0  0  0
  -17.4206  -26.6686   21.4023 H   0  0  0  0  0  0
  -18.0324  -26.0075   22.9021 H   0  0  0  0  0  0
  -19.7935  -30.7278   24.2261 H   0  0  0  0  0  0
  -17.5012  -31.6269   24.5164 H   0  0  0  0  0  0
  -15.5351  -30.2981   23.7661 H   0  0  0  0  0  0
  -15.8674  -28.0823   22.7057 H   0  0  0  0  0  0
  -24.5878  -30.7092   25.7741 H   0  0  0  0  0  0
  -24.8928  -32.2887   26.4871 H   0  0  0  0  0  0
  -25.8033  -30.8863   27.0190 H   0  0  0  0  0  0
  -26.2871  -29.6756   24.1182 H   0  0  0  0  0  0
  -27.4025  -29.7247   25.4637 H   0  0  0  0  0  0
  -27.8741  -30.4278   23.9347 H   0  0  0  0  0  0
  -27.2652  -33.3615   26.2048 H   0  0  0  0  0  0
  -28.3849  -32.6881   25.0291 H   0  0  0  0  0  0
  -28.0721  -31.8440   26.5384 H   0  0  0  0  0  0
  -28.2602  -38.0101   24.7501 H   0  0  0  0  0  0
  -28.1082  -36.2630   24.6304 H   0  0  0  0  0  0
  -27.2300  -37.1468   25.8867 H   0  0  0  0  0  0
  -20.9368  -29.8735   21.6877 H   0  0  0  0  0  0
  -26.0179  -38.2849   24.1386 H   0  0  0  0  0  0
  -27.9401  -17.3698   21.9538 H   0  0  0  0  0  0
  -31.1809  -19.6560   19.0774 H   0  0  0  0  0  0
  -28.5811  -22.3621   21.5653 H   0  0  0  0  0  0
  -29.7535  -24.4614   22.3838 H   0  0  0  0  0  0
  -29.4602  -26.1925   22.4162 H   0  0  0  0  0  0
  -30.4992  -25.5026   21.1774 H   0  0  0  0  0  0
  -26.9261  -25.8061   22.3575 H   0  0  0  0  0  0
  -27.2472  -24.0900   22.3859 H   0  0  0  0  0  0
  -26.2292  -24.7505   21.1292 H   0  0  0  0  0  0
  -27.7783  -23.8207   19.1868 H   0  0  0  0  0  0
  -29.4839  -24.0904   19.2607 H   0  0  0  0  0  0
  -31.3722  -17.4109   19.5480 H   0  0  0  0  0  0
  -26.5675  -19.3047   21.8901 H   0  0  0  0  0  0
  -27.0119  -20.7073   21.0989 H   0  0  0  0  0  0
  -28.9932  -15.3034   21.4429 H   0  0  0  0  0  0
  1 25  1  0  0  0
  1 30  2  0  0  0
  1 84  1  0  0  0
  2  3  1  0  0  0
  2 25  1  0  0  0
  2 85  1  0  0  0
  2 86  1  0  0  0
  3  4  1  0  0  0
  3 87  1  0  0  0
  3 88  1  0  0  0
  4  5  1  0  0  0
  4 89  1  0  0  0
  4 90  1  0  0  0
  5  6  1  0  0  0
  5 26  1  0  0  0
  5 91  1  0  0  0
  6 25  1  0  0  0
  6 92  1  0  0  0
  6 93  1  0  0  0
  7  8  2  0  0  0
  7 26  1  0  0  0
  7 29  1  0  0  0
  8  9  1  0  0  0
  8 22  1  0  0  0
  9 10  1  0  0  0
  9 27  2  0  0  0
 10 11  2  0  0  0
 10 15  1  0  0  0
 11 12  1  0  0  0
 11 94  1  0  0  0
 12 13  2  0  0  0
 12 95  1  0  0  0
 13 14  1  0  0  0
 13 31  1  0  0  0
 14 15  2  0  0  0
 14 96  1  0  0  0
 15 97  1  0  0  0
 16 17  2  0  0  0
 16 21  1  0  0  0
 16 31  1  0  0  0
 17 18  1  0  0  0
 17 98  1  0  0  0
 18 19  2  0  0  0
 18 99  1  0  0  0
 19 20  1  0  0  0
 19 24  1  0  0  0
 20 21  2  0  0  0
 20100  1  0  0  0
 21 23  1  0  0  0
 22 28  1  0  0  0
 22 32  2  0  0  0
 26 27  1  0  0  0
 28101  1  0  0  0
 28102  1  0  0  0
 29103  1  0  0  0
 29104  1  0  0  0
 33 34  1  0  0  0
 33 66  1  0  0  0
 33 70  2  0  0  0
 34 36  1  0  0  0
 34 59  1  0  0  0
 34105  1  0  0  0
 35 44  2  0  0  0
 35 45  1  0  0  0
 35 68  1  0  0  0
 36 56  1  0  0  0
 36106  1  0  0  0
 37 39  1  0  0  0
 37 47  1  0  0  0
 37 66  1  0  0  0
 37107  1  0  0  0
 38 43  2  0  0  0
 38 46  1  0  0  0
 38 47  1  0  0  0
 39 64  1  0  0  0
 39 67  2  0  0  0
 40 52  1  0  0  0
 40 53  2  0  0  0
 40 58  1  0  0  0
 41108  1  0  0  0
 41109  1  0  0  0
 41110  1  0  0  0
 41 48  1  0  0  0
 42 43  1  0  0  0
 42 66  1  0  0  0
 42111  1  0  0  0
 42112  1  0  0  0
 43 44  1  0  0  0
 44113  1  0  0  0
 45 46  2  0  0  0
 45114  1  0  0  0
 46115  1  0  0  0
 47116  1  0  0  0
 47117  1  0  0  0
 48 56  1  0  0  0
 48 65  1  0  0  0
 48118  1  0  0  0
 49 50  1  0  0  0
 49 53  1  0  0  0
 49 64  1  0  0  0
 49119  1  0  0  0
 50 51  1  0  0  0
 50120  1  0  0  0
 50121  1  0  0  0
 51 52  1  0  0  0
 51122  1  0  0  0
 51123  1  0  0  0
 52124  1  0  0  0
 52125  1  0  0  0
 53 54  1  0  0  0
 54 55  2  0  0  0
 54126  1  0  0  0
 55 57  1  0  0  0
 55127  1  0  0  0
 56 69  2  0  0  0
 57 58  2  0  0  0
 57128  1  0  0  0
 58129  1  0  0  0
 59 60  1  0  0  0
 59 61  1  0  0  0
 59 62  1  0  0  0
 60130  1  0  0  0
 60131  1  0  0  0
 60132  1  0  0  0
 61133  1  0  0  0
 61134  1  0  0  0
 61135  1  0  0  0
 62136  1  0  0  0
 62137  1  0  0  0
 62138  1  0  0  0
 63 65  1  0  0  0
 63139  1  0  0  0
 63140  1  0  0  0
 63141  1  0  0  0
 64142  1  0  0  0
 65143  1  0  0  0
 68 80  1  0  0  0
 71 74  2  0  0  0
 71 75  1  0  0  0
 71144  1  0  0  0
 72 73  2  0  0  0
 72 82  1  0  0  0
 72145  1  0  0  0
 73 74  1  0  0  0
 73 81  1  0  0  0
 74 83  1  0  0  0
 75 82  2  0  0  0
 75 84  1  0  0  0
 76 79  1  0  0  0
 76 81  2  0  0  0
 76146  1  0  0  0
 77147  1  0  0  0
 77148  1  0  0  0
 77149  1  0  0  0
 77 80  1  0  0  0
 78 80  1  0  0  0
 78150  1  0  0  0
 78151  1  0  0  0
 78152  1  0  0  0
 79 80  1  0  0  0
 79153  1  0  0  0
 79154  1  0  0  0
 82155  1  0  0  0
 83156  1  0  0  0
 83157  1  0  0  0
 84158  1  0  0  0
M  CHG  1  82   1
M  ISO  4   1 100  68 101  80 101  84 100
M  END
> <chiral flag>
0

> <version>
0

> <s_m_source_file>
/data/baiqing/PycharmProjects/Reinvent-master-3.2/result/LINK_invent/BTK/process_docking_weight1_custom_product_contain_oxygen_bond_distance_aromatic_linkinvent_7_9_3/rearranged_h_0161.sdf

> <i_m_source_file_index>
43

> <r_mmod_Potential_Energy-OPLS-2005>
83.4122467041016

> <r_mmod_Stretch_Energy-OPLS-2005>
95.3562698364258

> <r_mmod_Bend_Energy-OPLS-2005>
172.538757324219

> <r_mmod_Torsional_Energy-OPLS-2005>
243.435485839844

> <r_mmod_Improper_Torsional_Energy-OPLS-2005>
9.49045848846436

> <r_mmod_Van_der_Waal_Energy-OPLS-2005>
144.42561340332

> <r_mmod_Electrostatic_Energy-OPLS-2005>
-203.002944946289

> <r_mmod_Solvation_Energy-OPLS-2005>
-428.773834228516

> <b_mmod_Minimization_Converged-OPLS-2005>
0

> <r_mmod_RMS_Derivative-OPLS-2005>
1.05775594711304

$$$$
43
                    3D
 Structure written by MMmdl.
156164  0  0  1  0            999 V2000
  -30.7905  -14.4322   20.5793 C   0  0  0  0  0  0
  -30.4143  -12.2861   19.4339 C   0  0  0  0  0  0
  -29.5019  -12.5012   18.2113 C   0  0  0  0  0  0
  -28.0227  -12.3687   18.6211 C   0  0  0  0  0  0
  -27.6687  -13.2180   19.8724 C   0  0  2  0  0  0
  -28.7120  -13.0306   21.0003 C   0  0  0  0  0  0
  -25.2618  -13.8191   20.5680 C   0  0  0  0  0  0
  -24.1864  -13.0462   20.9162 C   0  0  0  0  0  0
  -24.6436  -11.6940   20.8696 C   0  0  0  0  0  0
  -23.9112  -10.4303   21.0340 C   0  0  0  0  0  0
  -24.3647   -9.4225   21.9133 C   0  0  0  0  0  0
  -23.6308   -8.2259   22.0729 C   0  0  0  0  0  0
  -22.4309   -8.0266   21.3524 C   0  0  0  0  0  0
  -21.9936   -9.0260   20.4662 C   0  0  0  0  0  0
  -22.7268  -10.2134   20.3050 C   0  0  0  0  0  0
  -21.6884   -6.0735   22.5265 C   0  0  0  0  0  0
  -21.4025   -6.5652   23.8195 C   0  0  0  0  0  0
  -21.3661   -5.6785   24.9151 C   0  0  0  0  0  0
  -21.6049   -4.3054   24.7200 C   0  0  0  0  0  0
  -21.8823   -3.8157   23.4318 C   0  0  0  0  0  0
  -21.9189   -4.6964   22.3376 C   0  0  0  0  0  0
  -22.7867  -13.5241   21.1799 C   0  0  0  0  0  0
  -22.1651   -4.2152   21.0943 F   0  0  0  0  0  0
  -21.5625   -3.4534   25.7703 F   0  0  0  0  0  0
  -30.0550  -13.2914   20.4490 N   0  0  0  0  0  0
  -26.3080  -12.9394   20.3356 N   0  0  0  0  0  0
  -25.9387  -11.6549   20.5757 N   0  0  0  0  0  0
  -22.0505  -12.8265   22.0365 N   0  0  0  0  0  0
  -25.4330  -15.1906   20.4069 N   0  0  0  0  0  0
  -31.8861  -14.5719   20.0363 O   0  0  0  0  0  0
  -21.6660   -6.8875   21.4229 O   0  0  0  0  0  0
  -22.3539  -14.5491   20.6560 O   0  0  0  0  0  0
  -24.6241  -31.8718   23.2169 C   0  0  0  0  0  0
  -25.9138  -32.4807   23.8451 C   0  0  1  0  0  0
  -27.1768  -27.3838   20.0698 C   0  0  0  0  0  0
  -25.6005  -33.8602   24.2365 N   0  0  0  0  0  0
  -23.4048  -30.5144   21.5606 C   0  0  2  0  0  0
  -24.8332  -28.9945   20.1102 C   0  0  0  0  0  0
  -22.7469  -29.4757   22.4995 C   0  0  0  0  0  0
  -18.0302  -28.1372   22.8506 C   0  0  0  0  0  0
  -24.1509  -36.7308   23.2631 C   0  0  0  0  0  0
  -25.9490  -30.8190   21.3838 C   0  0  0  0  0  0
  -26.0099  -29.4590   20.7119 C   0  0  0  0  0  0
  -27.1874  -28.6614   20.6921 C   0  0  0  0  0  0
  -25.9730  -26.9773   19.4362 C   0  0  0  0  0  0
  -24.8125  -27.7538   19.4719 C   0  0  0  0  0  0
  -23.6083  -29.8739   20.1683 C   0  0  0  0  0  0
  -25.4121  -36.3101   24.0344 C   0  0  1  0  0  0
  -20.5898  -28.3710   23.1283 C   0  0  2  0  0  0
  -20.6811  -26.9448   22.5391 C   0  0  0  0  0  0
  -19.5774  -26.6380   21.5225 C   0  0  0  0  0  0
  -18.1955  -26.7914   22.1635 C   0  0  0  0  0  0
  -19.1545  -28.8851   23.2882 C   0  0  0  0  0  0
  -18.9486  -30.1452   23.8886 C   0  0  0  0  0  0
  -17.6482  -30.6575   24.0551 C   0  0  0  0  0  0
  -25.9065  -34.9463   23.5129 C   0  0  0  0  0  0
  -16.5372  -29.9079   23.6305 C   0  0  0  0  0  0
  -16.7289  -28.6489   23.0351 C   0  0  0  0  0  0
  -26.4498  -31.6583   25.0783 C   0  0  0  0  0  0
  -25.3712  -31.3754   26.1506 C   0  0  0  0  0  0
  -27.0337  -30.3010   24.6206 C   0  0  0  0  0  0
  -27.6080  -32.4289   25.7552 C   0  0  0  0  0  0
  -27.5593  -37.1807   24.8445 C   0  0  0  0  0  0
  -21.4187  -29.3078   22.3699 N   0  0  0  0  0  0
  -26.4287  -37.3801   23.9413 N   0  0  0  0  0  0
  -24.6773  -31.0834   22.1087 N   0  0  0  0  0  0
  -23.4263  -28.8282   23.3003 O   0  0  0  0  0  0
  -28.2757  -26.5255   20.1091 O   0  0  0  0  0  0
  -26.5588  -34.8922   22.4665 O   0  0  0  0  0  0
  -23.5435  -32.1518   23.7533 O   0  0  0  0  0  0
  -32.3932  -18.5404   21.1086 C   0  0  0  0  0  0
  -31.4406  -19.5172   20.7618 C   0  0  0  0  0  0
  -32.0013  -17.2026   21.3047 C   0  0  0  0  0  0
  -29.6881  -17.8193   20.8624 C   0  0  0  0  0  0
  -30.0731  -19.1713   20.6529 C   0  0  0  0  0  0
  -30.6456  -16.8193   21.1465 C   0  0  0  0  0  0
  -29.0767  -20.2024   20.3064 C   0  0  0  0  0  0
  -28.9637  -24.0235   20.1396 C   0  0  0  0  0  0
  -28.3310  -22.6251   20.2882 C   0  0  0  0  0  0
  -27.9003  -25.1164   20.0082 C   0  0  0  0  0  0
  -30.2103  -24.2316   20.0285 N   0  0  0  0  0  0
  -30.2262  -15.4546   21.2520 N   0  0  0  0  0  0
  -29.3043  -21.5211   20.4974 N   0  0  0  0  0  0
  -27.9127  -19.8040   19.7856 N   0  3  0  0  0  0
  -31.4642  -12.3317   19.1417 H   0  0  0  0  0  0
  -30.2708  -11.2839   19.8388 H   0  0  0  0  0  0
  -29.7462  -11.7734   17.4359 H   0  0  0  0  0  0
  -29.6843  -13.4874   17.7793 H   0  0  0  0  0  0
  -27.8328  -11.3142   18.8216 H   0  0  0  0  0  0
  -27.3809  -12.6396   17.7832 H   0  0  0  0  0  0
  -27.7105  -14.2624   19.5655 H   0  0  0  0  0  0
  -28.6695  -12.0137   21.3917 H   0  0  0  0  0  0
  -28.4731  -13.6802   21.8459 H   0  0  0  0  0  0
  -25.2790   -9.5693   22.4691 H   0  0  0  0  0  0
  -24.0029   -7.4661   22.7468 H   0  0  0  0  0  0
  -21.0866   -8.8818   19.8979 H   0  0  0  0  0  0
  -22.3735  -10.9665   19.6159 H   0  0  0  0  0  0
  -21.2041   -7.6156   23.9716 H   0  0  0  0  0  0
  -21.1472   -6.0498   25.9048 H   0  0  0  0  0  0
  -22.0603   -2.7626   23.2816 H   0  0  0  0  0  0
  -22.4130  -12.0015   22.4902 H   0  0  0  0  0  0
  -21.1092  -13.1256   22.2437 H   0  0  0  0  0  0
  -24.6736  -15.8503   20.5365 H   0  0  0  0  0  0
  -26.2914  -15.6270   20.0979 H   0  0  0  0  0  0
  -26.7204  -32.5513   23.1213 H   0  0  0  0  0  0
  -25.0180  -33.9732   25.0533 H   0  0  0  0  0  0
  -22.6957  -31.3347   21.4356 H   0  0  0  0  0  0
  -23.3767  -35.9639   23.3259 H   0  0  0  0  0  0
  -24.3627  -36.8944   22.2049 H   0  0  0  0  0  0
  -23.7242  -37.6505   23.6651 H   0  0  0  0  0  0
  -26.0896  -31.5954   20.6309 H   0  0  0  0  0  0
  -26.8283  -30.8457   22.0164 H   0  0  0  0  0  0
  -28.0873  -29.0047   21.1824 H   0  0  0  0  0  0
  -25.8612  -26.0581   18.8874 H   0  0  0  0  0  0
  -23.9072  -27.3944   18.9991 H   0  0  0  0  0  0
  -23.7336  -30.6606   19.4244 H   0  0  0  0  0  0
  -22.7215  -29.3183   19.8585 H   0  0  0  0  0  0
  -25.1290  -36.1949   25.0836 H   0  0  0  0  0  0
  -20.9999  -28.3271   24.1402 H   0  0  0  0  0  0
  -20.5789  -26.2340   23.3600 H   0  0  0  0  0  0
  -21.6678  -26.7532   22.1136 H   0  0  0  0  0  0
  -19.6942  -25.6295   21.1256 H   0  0  0  0  0  0
  -19.6650  -27.3193   20.6762 H   0  0  0  0  0  0
  -17.4237  -26.6689   21.4019 H   0  0  0  0  0  0
  -18.0332  -26.0037   22.9021 H   0  0  0  0  0  0
  -19.7962  -30.7258   24.2271 H   0  0  0  0  0  0
  -17.5039  -31.6262   24.5160 H   0  0  0  0  0  0
  -15.5371  -30.2982   23.7598 H   0  0  0  0  0  0
  -15.8715  -28.0782   22.7074 H   0  0  0  0  0  0
  -24.5859  -30.7118   25.7862 H   0  0  0  0  0  0
  -24.8922  -32.2942   26.4912 H   0  0  0  0  0  0
  -25.8005  -30.8947   27.0302 H   0  0  0  0  0  0
  -26.2934  -29.6781   24.1158 H   0  0  0  0  0  0
  -27.3994  -29.7228   25.4707 H   0  0  0  0  0  0
  -27.8836  -30.4331   23.9490 H   0  0  0  0  0  0
  -27.2704  -33.3582   26.2166 H   0  0  0  0  0  0
  -28.3886  -32.6842   25.0365 H   0  0  0  0  0  0
  -28.0758  -31.8368   26.5433 H   0  0  0  0  0  0
  -28.2574  -38.0147   24.7558 H   0  0  0  0  0  0
  -28.1124  -36.2670   24.6184 H   0  0  0  0  0  0
  -27.2316  -37.1371   25.8849 H   0  0  0  0  0  0
  -20.9393  -29.8816   21.6896 H   0  0  0  0  0  0
  -26.0163  -38.2878   24.1417 H   0  0  0  0  0  0
  -33.4331  -18.8244   21.2087 H   0  0  0  0  0  0
  -31.7636  -20.5364   20.5930 H   0  0  0  0  0  0
  -32.7578  -16.4727   21.5543 H   0  0  0  0  0  0
  -28.6544  -17.5230   20.7762 H   0  0  0  0  0  0
  -27.7397  -22.4274   19.3912 H   0  0  0  0  0  0
  -27.6302  -22.6317   21.1270 H   0  0  0  0  0  0
  -27.1148  -24.9060   20.7386 H   0  0  0  0  0  0
  -27.4847  -24.9130   19.0243 H   0  0  0  0  0  0
  -30.7271  -23.3628   20.0333 H   0  0  0  0  0  0
  -29.3058  -15.2698   21.6204 H   0  0  0  0  0  0
  -30.1846  -21.7808   20.9208 H   0  0  0  0  0  0
  -27.7910  -18.8188   19.6117 H   0  0  0  0  0  0
  -27.1300  -20.4104   19.6148 H   0  0  0  0  0  0
  1 25  1  0  0  0
  1 30  2  0  0  0
  1 82  1  0  0  0
  2  3  1  0  0  0
  2 25  1  0  0  0
  2 85  1  0  0  0
  2 86  1  0  0  0
  3  4  1  0  0  0
  3 87  1  0  0  0
  3 88  1  0  0  0
  4  5  1  0  0  0
  4 89  1  0  0  0
  4 90  1  0  0  0
  5  6  1  0  0  0
  5 26  1  0  0  0
  5 91  1  0  0  0
  6 25  1  0  0  0
  6 92  1  0  0  0
  6 93  1  0  0  0
  7  8  2  0  0  0
  7 26  1  0  0  0
  7 29  1  0  0  0
  8  9  1  0  0  0
  8 22  1  0  0  0
  9 10  1  0  0  0
  9 27  2  0  0  0
 10 11  2  0  0  0
 10 15  1  0  0  0
 11 12  1  0  0  0
 11 94  1  0  0  0
 12 13  2  0  0  0
 12 95  1  0  0  0
 13 14  1  0  0  0
 13 31  1  0  0  0
 14 15  2  0  0  0
 14 96  1  0  0  0
 15 97  1  0  0  0
 16 17  2  0  0  0
 16 21  1  0  0  0
 16 31  1  0  0  0
 17 18  1  0  0  0
 17 98  1  0  0  0
 18 19  2  0  0  0
 18 99  1  0  0  0
 19 20  1  0  0  0
 19 24  1  0  0  0
 20 21  2  0  0  0
 20100  1  0  0  0
 21 23  1  0  0  0
 22 28  1  0  0  0
 22 32  2  0  0  0
 26 27  1  0  0  0
 28101  1  0  0  0
 28102  1  0  0  0
 29103  1  0  0  0
 29104  1  0  0  0
 33 34  1  0  0  0
 33 66  1  0  0  0
 33 70  2  0  0  0
 34 36  1  0  0  0
 34 59  1  0  0  0
 34105  1  0  0  0
 35 44  2  0  0  0
 35 45  1  0  0  0
 35 68  1  0  0  0
 36 56  1  0  0  0
 36106  1  0  0  0
 37 39  1  0  0  0
 37 47  1  0  0  0
 37 66  1  0  0  0
 37107  1  0  0  0
 38 43  2  0  0  0
 38 46  1  0  0  0
 38 47  1  0  0  0
 39 64  1  0  0  0
 39 67  2  0  0  0
 40 52  1  0  0  0
 40 53  2  0  0  0
 40 58  1  0  0  0
 41108  1  0  0  0
 41109  1  0  0  0
 41110  1  0  0  0
 41 48  1  0  0  0
 42 43  1  0  0  0
 42 66  1  0  0  0
 42111  1  0  0  0
 42112  1  0  0  0
 43 44  1  0  0  0
 44113  1  0  0  0
 45 46  2  0  0  0
 45114  1  0  0  0
 46115  1  0  0  0
 47116  1  0  0  0
 47117  1  0  0  0
 48 56  1  0  0  0
 48 65  1  0  0  0
 48118  1  0  0  0
 49 50  1  0  0  0
 49 53  1  0  0  0
 49 64  1  0  0  0
 49119  1  0  0  0
 50 51  1  0  0  0
 50120  1  0  0  0
 50121  1  0  0  0
 51 52  1  0  0  0
 51122  1  0  0  0
 51123  1  0  0  0
 52124  1  0  0  0
 52125  1  0  0  0
 53 54  1  0  0  0
 54 55  2  0  0  0
 54126  1  0  0  0
 55 57  1  0  0  0
 55127  1  0  0  0
 56 69  2  0  0  0
 57 58  2  0  0  0
 57128  1  0  0  0
 58129  1  0  0  0
 59 60  1  0  0  0
 59 61  1  0  0  0
 59 62  1  0  0  0
 60130  1  0  0  0
 60131  1  0  0  0
 60132  1  0  0  0
 61133  1  0  0  0
 61134  1  0  0  0
 61135  1  0  0  0
 62136  1  0  0  0
 62137  1  0  0  0
 62138  1  0  0  0
 63 65  1  0  0  0
 63139  1  0  0  0
 63140  1  0  0  0
 63141  1  0  0  0
 64142  1  0  0  0
 65143  1  0  0  0
 68 80  1  0  0  0
 71 72  2  0  0  0
 71 73  1  0  0  0
 71144  1  0  0  0
 72 75  1  0  0  0
 72145  1  0  0  0
 73 76  2  0  0  0
 73146  1  0  0  0
 74 75  2  0  0  0
 74 76  1  0  0  0
 74147  1  0  0  0
 75 77  1  0  0  0
 76 82  1  0  0  0
 77 83  1  0  0  0
 77 84  2  0  0  0
 78 79  1  0  0  0
 78 80  1  0  0  0
 78 81  2  0  0  0
 79 83  1  0  0  0
 79148  1  0  0  0
 79149  1  0  0  0
 80150  1  0  0  0
 80151  1  0  0  0
 81152  1  0  0  0
 82153  1  0  0  0
 83154  1  0  0  0
 84155  1  0  0  0
 84156  1  0  0  0
M  CHG  1  84   1
M  ISO  4   1 100  68 101  80 101  82 100
M  END
> <chiral flag>
0

> <version>
0

> <s_m_source_file>
/data/baiqing/PycharmProjects/Reinvent-master-3.2/result/LINK_invent/BTK/process_docking_weight1_custom_product_contain_oxygen_bond_distance_aromatic_linkinvent_7_9_3/rearranged_h_0161.sdf

> <i_m_source_file_index>
44

> <r_mmod_Potential_Energy-OPLS-2005>
-306.558013916016

> <r_mmod_Stretch_Energy-OPLS-2005>
44.2513656616211

> <r_mmod_Bend_Energy-OPLS-2005>
108.654090881348

> <r_mmod_Torsional_Energy-OPLS-2005>
215.944580078125

> <r_mmod_Improper_Torsional_Energy-OPLS-2005>
4.2090106010437

> <r_mmod_Van_der_Waal_Energy-OPLS-2005>
179.49821472168

> <r_mmod_Electrostatic_Energy-OPLS-2005>
-412.212127685547

> <r_mmod_Solvation_Energy-OPLS-2005>
-473.396057128906

> <b_mmod_Minimization_Converged-OPLS-2005>
0

> <r_mmod_RMS_Derivative-OPLS-2005>
5.4084587097168

$$$$
44
                    3D
 Structure written by MMmdl.
168176  0  0  1  0            999 V2000
  -30.6750  -14.4718   20.6095 C   0  0  0  0  0  0
  -30.4395  -12.3201   19.4121 C   0  0  0  0  0  0
  -29.5009  -12.5267   18.2032 C   0  0  0  0  0  0
  -28.0204  -12.3803   18.6134 C   0  0  0  0  0  0
  -27.6694  -13.1998   19.8831 C   0  0  2  0  0  0
  -28.7094  -12.9371   20.9953 C   0  0  0  0  0  0
  -25.2629  -13.8147   20.5693 C   0  0  0  0  0  0
  -24.1861  -13.0444   20.9180 C   0  0  0  0  0  0
  -24.6393  -11.6905   20.8726 C   0  0  0  0  0  0
  -23.9044  -10.4301   21.0399 C   0  0  0  0  0  0
  -24.3600   -9.4219   21.9172 C   0  0  0  0  0  0
  -23.6292   -8.2247   22.0742 C   0  0  0  0  0  0
  -22.4269   -8.0282   21.3539 C   0  0  0  0  0  0
  -21.9905   -9.0247   20.4630 C   0  0  0  0  0  0
  -22.7221  -10.2134   20.3044 C   0  0  0  0  0  0
  -21.6849   -6.0735   22.5276 C   0  0  0  0  0  0
  -21.4002   -6.5632   23.8213 C   0  0  0  0  0  0
  -21.3668   -5.6780   24.9171 C   0  0  0  0  0  0
  -21.6056   -4.3046   24.7220 C   0  0  0  0  0  0
  -21.8820   -3.8140   23.4335 C   0  0  0  0  0  0
  -21.9194   -4.6964   22.3395 C   0  0  0  0  0  0
  -22.7884  -13.5259   21.1846 C   0  0  0  0  0  0
  -22.1663   -4.2147   21.0971 F   0  0  0  0  0  0
  -21.5643   -3.4532   25.7732 F   0  0  0  0  0  0
  -30.0476  -13.2711   20.4638 N   0  0  0  0  0  0
  -26.3057  -12.9300   20.3383 N   0  0  0  0  0  0
  -25.9317  -11.6467   20.5746 N   0  0  0  0  0  0
  -22.0496  -12.8261   22.0390 N   0  0  0  0  0  0
  -25.4400  -15.1858   20.4130 N   0  0  0  0  0  0
  -31.7433  -14.7548   20.0578 O   0  0  0  0  0  0
  -21.6638   -6.8876   21.4237 O   0  0  0  0  0  0
  -22.3582  -14.5579   20.6707 O   0  0  0  0  0  0
  -24.6177  -31.8666   23.2090 C   0  0  0  0  0  0
  -25.9063  -32.4809   23.8391 C   0  0  1  0  0  0
  -27.2359  -27.4072   20.0750 C   0  0  0  0  0  0
  -25.5915  -33.8606   24.2321 N   0  0  0  0  0  0
  -23.4060  -30.4922   21.5504 C   0  0  2  0  0  0
  -24.8494  -28.9581   20.1104 C   0  0  0  0  0  0
  -22.7421  -29.4669   22.4974 C   0  0  0  0  0  0
  -18.0276  -28.1383   22.8488 C   0  0  0  0  0  0
  -24.1488  -36.7314   23.2640 C   0  0  0  0  0  0
  -25.9386  -30.8197   21.3681 C   0  0  0  0  0  0
  -26.0124  -29.4538   20.7110 C   0  0  0  0  0  0
  -27.2015  -28.6826   20.6975 C   0  0  0  0  0  0
  -26.0404  -26.9319   19.4815 C   0  0  0  0  0  0
  -24.8601  -27.6964   19.4967 C   0  0  0  0  0  0
  -23.6126  -29.8274   20.1638 C   0  0  0  0  0  0
  -25.4116  -36.3105   24.0334 C   0  0  1  0  0  0
  -20.5868  -28.3682   23.1295 C   0  0  2  0  0  0
  -20.6771  -26.9414   22.5409 C   0  0  0  0  0  0
  -19.5752  -26.6388   21.5207 C   0  0  0  0  0  0
  -18.1928  -26.7933   22.1610 C   0  0  0  0  0  0
  -19.1524  -28.8848   23.2888 C   0  0  0  0  0  0
  -18.9452  -30.1454   23.8896 C   0  0  0  0  0  0
  -17.6454  -30.6582   24.0572 C   0  0  0  0  0  0
  -25.9044  -34.9470   23.5127 C   0  0  0  0  0  0
  -16.5345  -29.9088   23.6323 C   0  0  0  0  0  0
  -16.7268  -28.6506   23.0342 C   0  0  0  0  0  0
  -26.4475  -31.6588   25.0728 C   0  0  0  0  0  0
  -25.3727  -31.3699   26.1465 C   0  0  0  0  0  0
  -27.0307  -30.3023   24.6127 C   0  0  0  0  0  0
  -27.6058  -32.4298   25.7490 C   0  0  0  0  0  0
  -27.5578  -37.1821   24.8468 C   0  0  0  0  0  0
  -21.4145  -29.3049   22.3699 N   0  0  0  0  0  0
  -26.4302  -37.3788   23.9397 N   0  0  0  0  0  0
  -24.6729  -31.0740   22.1006 N   0  0  0  0  0  0
  -23.4181  -28.8213   23.3027 O   0  0  0  0  0  0
  -28.4129  -26.6683   20.1158 O   0  0  0  0  0  0
  -26.5603  -34.8922   22.4683 O   0  0  0  0  0  0
  -23.5357  -32.1445   23.7457 O   0  0  0  0  0  0
  -28.6666  -17.2704   21.9047 C   0  0  0  0  0  0
  -30.5032  -17.6190   20.3910 C   0  0  0  0  0  0
  -28.3112  -18.6212   21.7295 C   0  0  0  0  0  0
  -29.7698  -16.7355   21.2192 C   0  0  0  0  0  0
  -29.0913  -19.4244   20.8682 C   0  0  0  0  0  0
  -28.8944  -23.2062   20.3198 C   0  0  0  0  0  0
  -27.2183  -18.5605   24.9161 C   0  0  0  0  0  0
  -28.7084  -20.3673   24.0476 C   0  0  0  0  0  0
  -26.2373  -20.7484   24.1983 C   0  0  0  0  0  0
  -27.0726  -19.1383   22.4593 C   0  0  0  0  0  0
  -29.5900  -24.4593   19.7466 C   0  0  0  0  0  0
  -29.5963  -21.8304   20.1973 C   0  0  0  0  0  0
  -28.6403  -25.5699   19.2008 C   0  0  0  0  0  0
  -27.3235  -19.7026   23.8885 C   0  0  0  0  0  0
  -30.1729  -18.9307   20.2244 N   0  0  0  0  0  0
  -30.0202  -15.3372   21.4030 N   0  0  0  0  0  0
  -28.7023  -20.7514   20.6252 N   0  0  0  0  0  0
  -27.7941  -23.2888   20.8790 O   0  0  0  0  0  0
  -31.4812  -12.4487   19.1119 H   0  0  0  0  0  0
  -30.3627  -11.2982   19.7853 H   0  0  0  0  0  0
  -29.7446  -11.8122   17.4157 H   0  0  0  0  0  0
  -29.6649  -13.5171   17.7763 H   0  0  0  0  0  0
  -27.8306  -11.3218   18.7930 H   0  0  0  0  0  0
  -27.3699  -12.6684   17.7867 H   0  0  0  0  0  0
  -27.7272  -14.2549   19.6157 H   0  0  0  0  0  0
  -28.6856  -11.8858   21.2876 H   0  0  0  0  0  0
  -28.4510  -13.4819   21.9032 H   0  0  0  0  0  0
  -25.2747   -9.5712   22.4739 H   0  0  0  0  0  0
  -24.0011   -7.4641   22.7462 H   0  0  0  0  0  0
  -21.0834   -8.8757   19.8933 H   0  0  0  0  0  0
  -22.3674  -10.9667   19.6151 H   0  0  0  0  0  0
  -21.1974   -7.6136   23.9724 H   0  0  0  0  0  0
  -21.1497   -6.0497   25.9079 H   0  0  0  0  0  0
  -22.0593   -2.7602   23.2825 H   0  0  0  0  0  0
  -22.4084  -11.9921   22.4792 H   0  0  0  0  0  0
  -21.1109  -13.1296   22.2565 H   0  0  0  0  0  0
  -24.6787  -15.8457   20.5232 H   0  0  0  0  0  0
  -26.2951  -15.6165   20.0844 H   0  0  0  0  0  0
  -26.7128  -32.5500   23.1141 H   0  0  0  0  0  0
  -25.0068  -33.9771   25.0466 H   0  0  0  0  0  0
  -22.6968  -31.3111   21.4135 H   0  0  0  0  0  0
  -23.3738  -35.9658   23.3331 H   0  0  0  0  0  0
  -24.3571  -36.8901   22.2046 H   0  0  0  0  0  0
  -23.7252  -37.6537   23.6632 H   0  0  0  0  0  0
  -26.0568  -31.5856   20.6003 H   0  0  0  0  0  0
  -26.8245  -30.8691   21.9895 H   0  0  0  0  0  0
  -28.0969  -29.0626   21.1696 H   0  0  0  0  0  0
  -25.9615  -25.9634   19.0160 H   0  0  0  0  0  0
  -23.9629  -27.3041   19.0373 H   0  0  0  0  0  0
  -23.7171  -30.6045   19.4054 H   0  0  0  0  0  0
  -22.7348  -29.2483   19.8705 H   0  0  0  0  0  0
  -25.1291  -36.1981   25.0828 H   0  0  0  0  0  0
  -20.9963  -28.3252   24.1413 H   0  0  0  0  0  0
  -20.5665  -26.2295   23.3604 H   0  0  0  0  0  0
  -21.6640  -26.7453   22.1195 H   0  0  0  0  0  0
  -19.6911  -25.6298   21.1236 H   0  0  0  0  0  0
  -19.6691  -27.3191   20.6735 H   0  0  0  0  0  0
  -17.4203  -26.6688   21.4009 H   0  0  0  0  0  0
  -18.0324  -26.0065   22.8991 H   0  0  0  0  0  0
  -19.7935  -30.7273   24.2246 H   0  0  0  0  0  0
  -17.5015  -31.6259   24.5185 H   0  0  0  0  0  0
  -15.5347  -30.2994   23.7646 H   0  0  0  0  0  0
  -15.8671  -28.0835   22.7045 H   0  0  0  0  0  0
  -24.5899  -30.7055   25.7786 H   0  0  0  0  0  0
  -24.8918  -32.2853   26.4921 H   0  0  0  0  0  0
  -25.8060  -30.8849   27.0219 H   0  0  0  0  0  0
  -26.2858  -29.6777   24.1180 H   0  0  0  0  0  0
  -27.4065  -29.7265   25.4595 H   0  0  0  0  0  0
  -27.8697  -30.4327   23.9289 H   0  0  0  0  0  0
  -27.2694  -33.3594   26.2089 H   0  0  0  0  0  0
  -28.3859  -32.6858   25.0310 H   0  0  0  0  0  0
  -28.0732  -31.8405   26.5387 H   0  0  0  0  0  0
  -28.2620  -38.0096   24.7479 H   0  0  0  0  0  0
  -28.1052  -36.2626   24.6336 H   0  0  0  0  0  0
  -27.2290  -37.1515   25.8872 H   0  0  0  0  0  0
  -20.9305  -29.8775   21.6922 H   0  0  0  0  0  0
  -26.0197  -38.2873   24.1376 H   0  0  0  0  0  0
  -28.0675  -16.6378   22.5444 H   0  0  0  0  0  0
  -31.3654  -17.2828   19.8344 H   0  0  0  0  0  0
  -27.3624  -18.9250   25.9340 H   0  0  0  0  0  0
  -27.9730  -17.7943   24.7390 H   0  0  0  0  0  0
  -26.2426  -18.0740   24.8802 H   0  0  0  0  0  0
  -28.8397  -20.7693   25.0533 H   0  0  0  0  0  0
  -28.8394  -21.1986   23.3549 H   0  0  0  0  0  0
  -29.5237  -19.6624   23.8823 H   0  0  0  0  0  0
  -26.3256  -21.1353   25.2140 H   0  0  0  0  0  0
  -25.2373  -20.3240   24.0967 H   0  0  0  0  0  0
  -26.2985  -21.6013   23.5205 H   0  0  0  0  0  0
  -26.3296  -18.3396   22.4988 H   0  0  0  0  0  0
  -26.5984  -19.8959   21.8348 H   0  0  0  0  0  0
  -30.2190  -24.1087   18.9280 H   0  0  0  0  0  0
  -30.2685  -24.8697   20.4940 H   0  0  0  0  0  0
  -30.4958  -21.8335   20.8132 H   0  0  0  0  0  0
  -29.9040  -21.6693   19.1637 H   0  0  0  0  0  0
  -27.7432  -25.0792   18.8391 H   0  0  0  0  0  0
  -29.0966  -26.0037   18.3107 H   0  0  0  0  0  0
  -29.3220  -14.8692   21.9611 H   0  0  0  0  0  0
  -27.9029  -21.1025   21.1425 H   0  0  0  0  0  0
  1 25  1  0  0  0
  1 30  2  0  0  0
  1 86  1  0  0  0
  2  3  1  0  0  0
  2 25  1  0  0  0
  2 89  1  0  0  0
  2 90  1  0  0  0
  3  4  1  0  0  0
  3 91  1  0  0  0
  3 92  1  0  0  0
  4  5  1  0  0  0
  4 93  1  0  0  0
  4 94  1  0  0  0
  5  6  1  0  0  0
  5 26  1  0  0  0
  5 95  1  0  0  0
  6 25  1  0  0  0
  6 96  1  0  0  0
  6 97  1  0  0  0
  7  8  2  0  0  0
  7 26  1  0  0  0
  7 29  1  0  0  0
  8  9  1  0  0  0
  8 22  1  0  0  0
  9 10  1  0  0  0
  9 27  2  0  0  0
 10 11  2  0  0  0
 10 15  1  0  0  0
 11 12  1  0  0  0
 11 98  1  0  0  0
 12 13  2  0  0  0
 12 99  1  0  0  0
 13 14  1  0  0  0
 13 31  1  0  0  0
 14 15  2  0  0  0
 14100  1  0  0  0
 15101  1  0  0  0
 16 17  2  0  0  0
 16 21  1  0  0  0
 16 31  1  0  0  0
 17 18  1  0  0  0
 17102  1  0  0  0
 18 19  2  0  0  0
 18103  1  0  0  0
 19 20  1  0  0  0
 19 24  1  0  0  0
 20 21  2  0  0  0
 20104  1  0  0  0
 21 23  1  0  0  0
 22 28  1  0  0  0
 22 32  2  0  0  0
 26 27  1  0  0  0
 28105  1  0  0  0
 28106  1  0  0  0
 29107  1  0  0  0
 29108  1  0  0  0
 33 34  1  0  0  0
 33 66  1  0  0  0
 33 70  2  0  0  0
 34 36  1  0  0  0
 34 59  1  0  0  0
 34109  1  0  0  0
 35 44  2  0  0  0
 35 45  1  0  0  0
 35 68  1  0  0  0
 36 56  1  0  0  0
 36110  1  0  0  0
 37 39  1  0  0  0
 37 47  1  0  0  0
 37 66  1  0  0  0
 37111  1  0  0  0
 38 43  2  0  0  0
 38 46  1  0  0  0
 38 47  1  0  0  0
 39 64  1  0  0  0
 39 67  2  0  0  0
 40 52  1  0  0  0
 40 53  2  0  0  0
 40 58  1  0  0  0
 41112  1  0  0  0
 41113  1  0  0  0
 41114  1  0  0  0
 41 48  1  0  0  0
 42 43  1  0  0  0
 42 66  1  0  0  0
 42115  1  0  0  0
 42116  1  0  0  0
 43 44  1  0  0  0
 44117  1  0  0  0
 45 46  2  0  0  0
 45118  1  0  0  0
 46119  1  0  0  0
 47120  1  0  0  0
 47121  1  0  0  0
 48 56  1  0  0  0
 48 65  1  0  0  0
 48122  1  0  0  0
 49 50  1  0  0  0
 49 53  1  0  0  0
 49 64  1  0  0  0
 49123  1  0  0  0
 50 51  1  0  0  0
 50124  1  0  0  0
 50125  1  0  0  0
 51 52  1  0  0  0
 51126  1  0  0  0
 51127  1  0  0  0
 52128  1  0  0  0
 52129  1  0  0  0
 53 54  1  0  0  0
 54 55  2  0  0  0
 54130  1  0  0  0
 55 57  1  0  0  0
 55131  1  0  0  0
 56 69  2  0  0  0
 57 58  2  0  0  0
 57132  1  0  0  0
 58133  1  0  0  0
 59 60  1  0  0  0
 59 61  1  0  0  0
 59 62  1  0  0  0
 60134  1  0  0  0
 60135  1  0  0  0
 60136  1  0  0  0
 61137  1  0  0  0
 61138  1  0  0  0
 61139  1  0  0  0
 62140  1  0  0  0
 62141  1  0  0  0
 62142  1  0  0  0
 63 65  1  0  0  0
 63143  1  0  0  0
 63144  1  0  0  0
 63145  1  0  0  0
 64146  1  0  0  0
 65147  1  0  0  0
 68 83  1  0  0  0
 71 73  2  0  0  0
 71 74  1  0  0  0
 71148  1  0  0  0
 72 74  2  0  0  0
 72 85  1  0  0  0
 72149  1  0  0  0
 73 75  1  0  0  0
 73 80  1  0  0  0
 74 86  1  0  0  0
 75 85  2  0  0  0
 75 87  1  0  0  0
 76 81  1  0  0  0
 76 82  1  0  0  0
 76 88  2  0  0  0
 77150  1  0  0  0
 77151  1  0  0  0
 77152  1  0  0  0
 77 84  1  0  0  0
 78 84  1  0  0  0
 78153  1  0  0  0
 78154  1  0  0  0
 78155  1  0  0  0
 79 84  1  0  0  0
 79156  1  0  0  0
 79157  1  0  0  0
 79158  1  0  0  0
 80 84  1  0  0  0
 80159  1  0  0  0
 80160  1  0  0  0
 81 83  1  0  0  0
 81161  1  0  0  0
 81162  1  0  0  0
 82 87  1  0  0  0
 82163  1  0  0  0
 82164  1  0  0  0
 83165  1  0  0  0
 83166  1  0  0  0
 86167  1  0  0  0
 87168  1  0  0  0
M  ISO  4   1 100  68 101  83 101  86 100
M  END
> <chiral flag>
0

> <version>
0

> <s_m_source_file>
/data/baiqing/PycharmProjects/Reinvent-master-3.2/result/LINK_invent/BTK/process_docking_weight1_custom_product_contain_oxygen_bond_distance_aromatic_linkinvent_7_9_3/rearranged_h_0161.sdf

> <i_m_source_file_index>
45

> <r_mmod_Potential_Energy-OPLS-2005>
-398.155395507812

> <r_mmod_Stretch_Energy-OPLS-2005>
43.2481842041016

> <r_mmod_Bend_Energy-OPLS-2005>
137.845413208008

> <r_mmod_Torsional_Energy-OPLS-2005>
208.727630615234

> <r_mmod_Improper_Torsional_Energy-OPLS-2005>
6.06400012969971

> <r_mmod_Van_der_Waal_Energy-OPLS-2005>
157.619705200195

> <r_mmod_Electrostatic_Energy-OPLS-2005>
-734.183532714844

> <r_mmod_Solvation_Energy-OPLS-2005>
-232.319366455078

> <b_mmod_Minimization_Converged-OPLS-2005>
0

> <r_mmod_RMS_Derivative-OPLS-2005>
1.66043138504028

$$$$
45
                    3D
 Structure written by MMmdl.
154162  0  0  1  0            999 V2000
  -30.7820  -14.3721   20.6765 C   0  0  0  0  0  0
  -30.4113  -12.2943   19.3988 C   0  0  0  0  0  0
  -29.4815  -12.5231   18.1939 C   0  0  0  0  0  0
  -28.0076  -12.3760   18.6132 C   0  0  0  0  0  0
  -27.6640  -13.2066   19.8775 C   0  0  2  0  0  0
  -28.7033  -12.9689   20.9956 C   0  0  0  0  0  0
  -25.2593  -13.8167   20.5679 C   0  0  0  0  0  0
  -24.1839  -13.0444   20.9164 C   0  0  0  0  0  0
  -24.6392  -11.6910   20.8727 C   0  0  0  0  0  0
  -23.9058  -10.4295   21.0399 C   0  0  0  0  0  0
  -24.3612   -9.4213   21.9179 C   0  0  0  0  0  0
  -23.6289   -8.2247   22.0753 C   0  0  0  0  0  0
  -22.4271   -8.0284   21.3544 C   0  0  0  0  0  0
  -21.9904   -9.0256   20.4646 C   0  0  0  0  0  0
  -22.7231  -10.2135   20.3051 C   0  0  0  0  0  0
  -21.6853   -6.0737   22.5280 C   0  0  0  0  0  0
  -21.4014   -6.5640   23.8214 C   0  0  0  0  0  0
  -21.3659   -5.6792   24.9174 C   0  0  0  0  0  0
  -21.6043   -4.3055   24.7224 C   0  0  0  0  0  0
  -21.8819   -3.8147   23.4345 C   0  0  0  0  0  0
  -21.9193   -4.6965   22.3402 C   0  0  0  0  0  0
  -22.7862  -13.5243   21.1836 C   0  0  0  0  0  0
  -22.1660   -4.2151   21.0979 F   0  0  0  0  0  0
  -21.5629   -3.4537   25.7736 F   0  0  0  0  0  0
  -30.0453  -13.2521   20.4536 N   0  0  0  0  0  0
  -26.3035  -12.9339   20.3380 N   0  0  0  0  0  0
  -25.9320  -11.6496   20.5763 N   0  0  0  0  0  0
  -22.0504  -12.8235   22.0395 N   0  0  0  0  0  0
  -25.4329  -15.1885   20.4099 N   0  0  0  0  0  0
  -31.8068  -14.6381   20.0434 O   0  0  0  0  0  0
  -21.6638   -6.8880   21.4242 O   0  0  0  0  0  0
  -22.3547  -14.5553   20.6693 O   0  0  0  0  0  0
  -24.6127  -31.8695   23.2120 C   0  0  0  0  0  0
  -25.9028  -32.4833   23.8408 C   0  0  1  0  0  0
  -27.2335  -27.4617   20.0879 C   0  0  0  0  0  0
  -25.5894  -33.8631   24.2343 N   0  0  0  0  0  0
  -23.4001  -30.4935   21.5516 C   0  0  2  0  0  0
  -24.8482  -28.9664   20.1104 C   0  0  0  0  0  0
  -22.7404  -29.4663   22.4993 C   0  0  0  0  0  0
  -18.0270  -28.1373   22.8493 C   0  0  0  0  0  0
  -24.1488  -36.7320   23.2638 C   0  0  0  0  0  0
  -25.9271  -30.8439   21.3617 C   0  0  0  0  0  0
  -26.0076  -29.4818   20.7056 C   0  0  0  0  0  0
  -27.2074  -28.7359   20.6932 C   0  0  0  0  0  0
  -26.0621  -26.9571   19.4840 C   0  0  0  0  0  0
  -24.8689  -27.7020   19.4962 C   0  0  0  0  0  0
  -23.6074  -29.8278   20.1649 C   0  0  0  0  0  0
  -25.4107  -36.3120   24.0342 C   0  0  1  0  0  0
  -20.5861  -28.3658   23.1322 C   0  0  2  0  0  0
  -20.6764  -26.9396   22.5419 C   0  0  0  0  0  0
  -19.5743  -26.6384   21.5212 C   0  0  0  0  0  0
  -18.1920  -26.7922   22.1620 C   0  0  0  0  0  0
  -19.1520  -28.8831   23.2907 C   0  0  0  0  0  0
  -18.9449  -30.1439   23.8916 C   0  0  0  0  0  0
  -17.6452  -30.6582   24.0565 C   0  0  0  0  0  0
  -25.9030  -34.9483   23.5139 C   0  0  0  0  0  0
  -16.5342  -29.9086   23.6324 C   0  0  0  0  0  0
  -16.7260  -28.6502   23.0346 C   0  0  0  0  0  0
  -26.4466  -31.6599   25.0722 C   0  0  0  0  0  0
  -25.3745  -31.3695   26.1479 C   0  0  0  0  0  0
  -27.0286  -30.3045   24.6072 C   0  0  0  0  0  0
  -27.6052  -32.4308   25.7479 C   0  0  0  0  0  0
  -27.5584  -37.1815   24.8466 C   0  0  0  0  0  0
  -21.4132  -29.3030   22.3733 N   0  0  0  0  0  0
  -26.4299  -37.3799   23.9407 N   0  0  0  0  0  0
  -24.6647  -31.0818   22.1008 N   0  0  0  0  0  0
  -23.4186  -28.8205   23.3026 O   0  0  0  0  0  0
  -28.3634  -26.6817   20.1212 O   0  0  0  0  0  0
  -26.5587  -34.8929   22.4697 O   0  0  0  0  0  0
  -23.5325  -32.1433   23.7529 O   0  0  0  0  0  0
  -29.7287  -18.4565   22.1757 C   0  0  0  0  0  0
  -30.8013  -17.6202   21.7454 C   0  0  0  0  0  0
  -31.4787  -18.3568   20.8024 C   0  0  0  0  0  0
  -29.8736  -19.6366   21.5068 C   0  0  0  0  0  0
  -28.2067  -25.5118   20.8249 C   0  0  0  0  0  0
  -29.3372  -21.8525   21.1310 C   0  0  0  0  0  0
  -28.8717  -24.3696   20.5641 C   0  0  0  0  0  0
  -28.5759  -23.1457   21.3688 C   0  0  0  0  0  0
  -32.6932  -18.1012   19.9744 C   0  0  0  0  0  0
  -31.1426  -16.2421   22.2736 C   0  0  0  0  0  0
  -29.0929  -20.7451   21.7239 N   0  0  0  0  0  0
  -30.3689  -15.1500   21.6848 N   0  0  0  0  0  0
  -27.6975  -23.1625   22.2431 O   0  0  0  0  0  0
  -30.9232  -19.5943   20.6480 O   0  0  0  0  0  0
  -29.7831  -24.3171   19.5804 O   0  0  0  0  0  0
  -31.4551  -12.3849   19.0924 H   0  0  0  0  0  0
  -30.3042  -11.2754   19.7742 H   0  0  0  0  0  0
  -29.7151  -11.8152   17.3976 H   0  0  0  0  0  0
  -29.6503  -13.5185   17.7798 H   0  0  0  0  0  0
  -27.8197  -11.3183   18.8020 H   0  0  0  0  0  0
  -27.3517  -12.6579   17.7888 H   0  0  0  0  0  0
  -27.7169  -14.2582   19.5945 H   0  0  0  0  0  0
  -28.6655  -11.9319   21.3326 H   0  0  0  0  0  0
  -28.4517  -13.5662   21.8720 H   0  0  0  0  0  0
  -25.2759   -9.5691   22.4750 H   0  0  0  0  0  0
  -24.0001   -7.4640   22.7471 H   0  0  0  0  0  0
  -21.0835   -8.8773   19.8953 H   0  0  0  0  0  0
  -22.3690  -10.9672   19.6157 H   0  0  0  0  0  0
  -21.2005   -7.6148   23.9718 H   0  0  0  0  0  0
  -21.1480   -6.0521   25.9078 H   0  0  0  0  0  0
  -22.0597   -2.7610   23.2843 H   0  0  0  0  0  0
  -22.4116  -11.9892   22.4778 H   0  0  0  0  0  0
  -21.1126  -13.1268   22.2610 H   0  0  0  0  0  0
  -24.6725  -15.8498   20.5241 H   0  0  0  0  0  0
  -26.2979  -15.6262   20.1164 H   0  0  0  0  0  0
  -26.7102  -32.5556   23.1180 H   0  0  0  0  0  0
  -25.0068  -33.9799   25.0504 H   0  0  0  0  0  0
  -22.6876  -31.3096   21.4144 H   0  0  0  0  0  0
  -23.3745  -35.9661   23.3319 H   0  0  0  0  0  0
  -24.3584  -36.8908   22.2049 H   0  0  0  0  0  0
  -23.7247  -37.6537   23.6632 H   0  0  0  0  0  0
  -26.0360  -31.6130   20.5957 H   0  0  0  0  0  0
  -26.8161  -30.8967   21.9783 H   0  0  0  0  0  0
  -28.1018  -29.1220   21.1618 H   0  0  0  0  0  0
  -26.0727  -25.9819   19.0178 H   0  0  0  0  0  0
  -23.9778  -27.2990   19.0350 H   0  0  0  0  0  0
  -23.7107  -30.6041   19.4058 H   0  0  0  0  0  0
  -22.7330  -29.2444   19.8705 H   0  0  0  0  0  0
  -25.1286  -36.1993   25.0837 H   0  0  0  0  0  0
  -20.9952  -28.3219   24.1443 H   0  0  0  0  0  0
  -20.5665  -26.2265   23.3603 H   0  0  0  0  0  0
  -21.6636  -26.7442   22.1209 H   0  0  0  0  0  0
  -19.6907  -25.6299   21.1231 H   0  0  0  0  0  0
  -19.6689  -27.3206   20.6753 H   0  0  0  0  0  0
  -17.4194  -26.6674   21.4018 H   0  0  0  0  0  0
  -18.0318  -26.0056   22.9008 H   0  0  0  0  0  0
  -19.7926  -30.7249   24.2293 H   0  0  0  0  0  0
  -17.5009  -31.6265   24.5161 H   0  0  0  0  0  0
  -15.5344  -30.2995   23.7640 H   0  0  0  0  0  0
  -15.8658  -28.0830   22.7050 H   0  0  0  0  0  0
  -24.5921  -30.7034   25.7822 H   0  0  0  0  0  0
  -24.8931  -32.2845   26.4940 H   0  0  0  0  0  0
  -25.8111  -30.8861   27.0227 H   0  0  0  0  0  0
  -26.2817  -29.6817   24.1133 H   0  0  0  0  0  0
  -27.4076  -29.7266   25.4511 H   0  0  0  0  0  0
  -27.8645  -30.4371   23.9198 H   0  0  0  0  0  0
  -27.2680  -33.3595   26.2095 H   0  0  0  0  0  0
  -28.3842  -32.6886   25.0291 H   0  0  0  0  0  0
  -28.0742  -31.8407   26.5361 H   0  0  0  0  0  0
  -28.2614  -38.0100   24.7501 H   0  0  0  0  0  0
  -28.1066  -36.2632   24.6306 H   0  0  0  0  0  0
  -27.2301  -37.1482   25.8870 H   0  0  0  0  0  0
  -20.9286  -29.8760   21.6966 H   0  0  0  0  0  0
  -26.0193  -38.2882   24.1397 H   0  0  0  0  0  0
  -28.9790  -18.2356   22.9232 H   0  0  0  0  0  0
  -27.4708  -25.6004   21.6163 H   0  0  0  0  0  0
  -30.1489  -21.9137   20.4012 H   0  0  0  0  0  0
  -32.9050  -17.0359   19.8970 H   0  0  0  0  0  0
  -33.5668  -18.5839   20.4123 H   0  0  0  0  0  0
  -32.5657  -18.4889   18.9635 H   0  0  0  0  0  0
  -30.9614  -16.2371   23.3489 H   0  0  0  0  0  0
  -32.2143  -16.0672   22.1596 H   0  0  0  0  0  0
  -29.5257  -14.8706   22.1627 H   0  0  0  0  0  0
  -29.8160  -25.1838   19.1943 H   0  0  0  0  0  0
  1 25  1  0  0  0
  1 30  2  0  0  0
  1 82  1  0  0  0
  2  3  1  0  0  0
  2 25  1  0  0  0
  2 86  1  0  0  0
  2 87  1  0  0  0
  3  4  1  0  0  0
  3 88  1  0  0  0
  3 89  1  0  0  0
  4  5  1  0  0  0
  4 90  1  0  0  0
  4 91  1  0  0  0
  5  6  1  0  0  0
  5 26  1  0  0  0
  5 92  1  0  0  0
  6 25  1  0  0  0
  6 93  1  0  0  0
  6 94  1  0  0  0
  7  8  2  0  0  0
  7 26  1  0  0  0
  7 29  1  0  0  0
  8  9  1  0  0  0
  8 22  1  0  0  0
  9 10  1  0  0  0
  9 27  2  0  0  0
 10 11  2  0  0  0
 10 15  1  0  0  0
 11 12  1  0  0  0
 11 95  1  0  0  0
 12 13  2  0  0  0
 12 96  1  0  0  0
 13 14  1  0  0  0
 13 31  1  0  0  0
 14 15  2  0  0  0
 14 97  1  0  0  0
 15 98  1  0  0  0
 16 17  2  0  0  0
 16 21  1  0  0  0
 16 31  1  0  0  0
 17 18  1  0  0  0
 17 99  1  0  0  0
 18 19  2  0  0  0
 18100  1  0  0  0
 19 20  1  0  0  0
 19 24  1  0  0  0
 20 21  2  0  0  0
 20101  1  0  0  0
 21 23  1  0  0  0
 22 28  1  0  0  0
 22 32  2  0  0  0
 26 27  1  0  0  0
 28102  1  0  0  0
 28103  1  0  0  0
 29104  1  0  0  0
 29105  1  0  0  0
 33 34  1  0  0  0
 33 66  1  0  0  0
 33 70  2  0  0  0
 34 36  1  0  0  0
 34 59  1  0  0  0
 34106  1  0  0  0
 35 44  2  0  0  0
 35 45  1  0  0  0
 35 68  1  0  0  0
 36 56  1  0  0  0
 36107  1  0  0  0
 37 39  1  0  0  0
 37 47  1  0  0  0
 37 66  1  0  0  0
 37108  1  0  0  0
 38 43  2  0  0  0
 38 46  1  0  0  0
 38 47  1  0  0  0
 39 64  1  0  0  0
 39 67  2  0  0  0
 40 52  1  0  0  0
 40 53  2  0  0  0
 40 58  1  0  0  0
 41109  1  0  0  0
 41110  1  0  0  0
 41111  1  0  0  0
 41 48  1  0  0  0
 42 43  1  0  0  0
 42 66  1  0  0  0
 42112  1  0  0  0
 42113  1  0  0  0
 43 44  1  0  0  0
 44114  1  0  0  0
 45 46  2  0  0  0
 45115  1  0  0  0
 46116  1  0  0  0
 47117  1  0  0  0
 47118  1  0  0  0
 48 56  1  0  0  0
 48 65  1  0  0  0
 48119  1  0  0  0
 49 50  1  0  0  0
 49 53  1  0  0  0
 49 64  1  0  0  0
 49120  1  0  0  0
 50 51  1  0  0  0
 50121  1  0  0  0
 50122  1  0  0  0
 51 52  1  0  0  0
 51123  1  0  0  0
 51124  1  0  0  0
 52125  1  0  0  0
 52126  1  0  0  0
 53 54  1  0  0  0
 54 55  2  0  0  0
 54127  1  0  0  0
 55 57  1  0  0  0
 55128  1  0  0  0
 56 69  2  0  0  0
 57 58  2  0  0  0
 57129  1  0  0  0
 58130  1  0  0  0
 59 60  1  0  0  0
 59 61  1  0  0  0
 59 62  1  0  0  0
 60131  1  0  0  0
 60132  1  0  0  0
 60133  1  0  0  0
 61134  1  0  0  0
 61135  1  0  0  0
 61136  1  0  0  0
 62137  1  0  0  0
 62138  1  0  0  0
 62139  1  0  0  0
 63 65  1  0  0  0
 63140  1  0  0  0
 63141  1  0  0  0
 63142  1  0  0  0
 64143  1  0  0  0
 65144  1  0  0  0
 68 75  1  0  0  0
 71 72  1  0  0  0
 71 74  2  0  0  0
 71145  1  0  0  0
 72 73  2  0  0  0
 72 80  1  0  0  0
 73 79  1  0  0  0
 73 84  1  0  0  0
 74 81  1  0  0  0
 74 84  1  0  0  0
 75 77  2  0  0  0
 75146  1  0  0  0
 76 78  1  0  0  0
 76 81  2  0  0  0
 76147  1  0  0  0
 77 78  1  0  0  0
 77 85  1  0  0  0
 78 83  2  0  0  0
 79148  1  0  0  0
 79149  1  0  0  0
 79150  1  0  0  0
 80 82  1  0  0  0
 80151  1  0  0  0
 80152  1  0  0  0
 82153  1  0  0  0
 85154  1  0  0  0
M  ISO  4   1 100  68 101  75 101  82 100
M  END
> <chiral flag>
0

> <version>
0

> <s_m_source_file>
/data/baiqing/PycharmProjects/Reinvent-master-3.2/result/LINK_invent/BTK/process_docking_weight1_custom_product_contain_oxygen_bond_distance_aromatic_linkinvent_7_9_3/rearranged_h_0161.sdf

> <i_m_source_file_index>
46

> <r_mmod_Potential_Energy-OPLS-2005>
-138.823303222656

> <r_mmod_Stretch_Energy-OPLS-2005>
33.2264289855957

> <r_mmod_Bend_Energy-OPLS-2005>
98.4779281616211

> <r_mmod_Torsional_Energy-OPLS-2005>
191.238082885742

> <r_mmod_Improper_Torsional_Energy-OPLS-2005>
2.46108818054199

> <r_mmod_Van_der_Waal_Energy-OPLS-2005>
138.783599853516

> <r_mmod_Electrostatic_Energy-OPLS-2005>
-385.850341796875

> <r_mmod_Solvation_Energy-OPLS-2005>
-225.747955322266

> <b_mmod_Minimization_Converged-OPLS-2005>
0

> <r_mmod_RMS_Derivative-OPLS-2005>
0.241300210356712

$$$$
46
                    3D
 Structure written by MMmdl.
158166  0  0  1  0            999 V2000
  -30.7586  -14.4759   20.5750 C   0  0  0  0  0  0
  -30.4233  -12.3139   19.4410 C   0  0  0  0  0  0
  -29.5046  -12.5067   18.2189 C   0  0  0  0  0  0
  -28.0252  -12.3675   18.6283 C   0  0  0  0  0  0
  -27.6633  -13.2164   19.8772 C   0  0  2  0  0  0
  -28.7090  -13.0370   21.0041 C   0  0  0  0  0  0
  -25.2548  -13.8193   20.5690 C   0  0  0  0  0  0
  -24.1806  -13.0454   20.9165 C   0  0  0  0  0  0
  -24.6361  -11.6908   20.8691 C   0  0  0  0  0  0
  -23.9024  -10.4292   21.0344 C   0  0  0  0  0  0
  -24.3565   -9.4216   21.9136 C   0  0  0  0  0  0
  -23.6249   -8.2250   22.0725 C   0  0  0  0  0  0
  -22.4236   -8.0272   21.3527 C   0  0  0  0  0  0
  -21.9861   -9.0235   20.4627 C   0  0  0  0  0  0
  -22.7185  -10.2116   20.3012 C   0  0  0  0  0  0
  -21.6856   -6.0691   22.5261 C   0  0  0  0  0  0
  -21.4032   -6.5594   23.8196 C   0  0  0  0  0  0
  -21.3669   -5.6758   24.9158 C   0  0  0  0  0  0
  -21.6056   -4.3023   24.7229 C   0  0  0  0  0  0
  -21.8820   -3.8100   23.4351 C   0  0  0  0  0  0
  -21.9199   -4.6910   22.3394 C   0  0  0  0  0  0
  -22.7816  -13.5227   21.1814 C   0  0  0  0  0  0
  -22.1673   -4.2082   21.0978 F   0  0  0  0  0  0
  -21.5632   -3.4520   25.7750 F   0  0  0  0  0  0
  -30.0421  -13.3238   20.4438 N   0  0  0  0  0  0
  -26.3024  -12.9382   20.3391 N   0  0  0  0  0  0
  -25.9314  -11.6528   20.5772 N   0  0  0  0  0  0
  -22.0431  -12.8259   22.0378 N   0  0  0  0  0  0
  -25.4242  -15.1927   20.4084 N   0  0  0  0  0  0
  -31.8818  -14.6015   20.0872 O   0  0  0  0  0  0
  -21.6633   -6.8837   21.4226 O   0  0  0  0  0  0
  -22.3487  -14.5500   20.6607 O   0  0  0  0  0  0
  -24.6181  -31.8678   23.2094 C   0  0  0  0  0  0
  -25.9082  -32.4824   23.8356 C   0  0  1  0  0  0
  -27.2384  -27.4147   20.0963 C   0  0  0  0  0  0
  -25.5940  -33.8610   24.2314 N   0  0  0  0  0  0
  -23.4070  -30.4911   21.5509 C   0  0  2  0  0  0
  -24.8546  -28.9661   20.1106 C   0  0  0  0  0  0
  -22.7439  -29.4648   22.4962 C   0  0  0  0  0  0
  -18.0261  -28.1373   22.8439 C   0  0  0  0  0  0
  -24.1494  -36.7320   23.2626 C   0  0  0  0  0  0
  -25.9395  -30.8294   21.3652 C   0  0  0  0  0  0
  -26.0183  -29.4638   20.7097 C   0  0  0  0  0  0
  -27.2124  -28.6992   20.6978 C   0  0  0  0  0  0
  -26.0496  -26.9523   19.4744 C   0  0  0  0  0  0
  -24.8681  -27.7101   19.4866 C   0  0  0  0  0  0
  -23.6171  -29.8324   20.1624 C   0  0  0  0  0  0
  -25.4121  -36.3123   24.0326 C   0  0  1  0  0  0
  -20.5863  -28.3683   23.1298 C   0  0  2  0  0  0
  -20.6777  -26.9430   22.5374 C   0  0  0  0  0  0
  -19.5750  -26.6371   21.5178 C   0  0  0  0  0  0
  -18.1930  -26.7886   22.1621 C   0  0  0  0  0  0
  -19.1506  -28.8831   23.2861 C   0  0  0  0  0  0
  -18.9423  -30.1412   23.8911 C   0  0  0  0  0  0
  -17.6428  -30.6567   24.0554 C   0  0  0  0  0  0
  -25.9054  -34.9476   23.5127 C   0  0  0  0  0  0
  -16.5322  -29.9092   23.6284 C   0  0  0  0  0  0
  -16.7247  -28.6506   23.0312 C   0  0  0  0  0  0
  -26.4495  -31.6579   25.0681 C   0  0  0  0  0  0
  -25.3730  -31.3703   26.1410 C   0  0  0  0  0  0
  -27.0323  -30.3011   24.6058 C   0  0  0  0  0  0
  -27.6071  -32.4282   25.7447 C   0  0  0  0  0  0
  -27.5590  -37.1813   24.8460 C   0  0  0  0  0  0
  -21.4153  -29.3060   22.3731 N   0  0  0  0  0  0
  -26.4302  -37.3806   23.9407 N   0  0  0  0  0  0
  -24.6727  -31.0761   22.1006 N   0  0  0  0  0  0
  -23.4207  -28.8177   23.2984 O   0  0  0  0  0  0
  -28.3843  -26.6286   20.1431 O   0  0  0  0  0  0
  -26.5593  -34.8930   22.4678 O   0  0  0  0  0  0
  -23.5379  -32.1424   23.7495 O   0  0  0  0  0  0
  -29.8376  -18.0172   21.0321 C   0  0  0  0  0  0
  -32.0365  -17.1250   21.4579 C   0  0  0  0  0  0
  -31.7765  -19.4247   21.3215 C   0  0  0  0  0  0
  -30.6672  -16.8803   21.2024 C   0  0  0  0  0  0
  -30.3867  -19.3271   21.0845 C   0  0  0  0  0  0
  -29.2737  -24.2522   20.4265 C   0  0  0  0  0  0
  -28.2940  -22.8154   22.2383 C   0  0  0  0  0  0
  -27.7867  -22.2904   19.8098 C   0  0  0  0  0  0
  -28.1213  -25.2088   20.0298 C   0  0  0  0  0  0
  -30.0558  -21.7619   20.7722 C   0  0  0  0  0  0
  -28.8683  -22.7868   20.8037 C   0  0  0  0  0  0
  -32.5813  -18.3584   21.5111 N   0  0  0  0  0  0
  -30.1340  -15.5411   21.1279 N   0  0  0  0  0  0
  -30.4482  -24.6325   20.4505 O   0  0  0  0  0  0
  -29.5414  -20.4166   20.9195 O   0  0  0  0  0  0
  -31.4722  -12.3800   19.1452 H   0  0  0  0  0  0
  -30.3078  -11.3140   19.8603 H   0  0  0  0  0  0
  -29.7497  -11.7786   17.4440 H   0  0  0  0  0  0
  -29.6731  -13.4910   17.7777 H   0  0  0  0  0  0
  -27.8365  -11.3122   18.8277 H   0  0  0  0  0  0
  -27.3791  -12.6402   17.7930 H   0  0  0  0  0  0
  -27.7015  -14.2605   19.5670 H   0  0  0  0  0  0
  -28.6829  -12.0150   21.3849 H   0  0  0  0  0  0
  -28.4722  -13.6731   21.8588 H   0  0  0  0  0  0
  -25.2690   -9.5702   22.4733 H   0  0  0  0  0  0
  -23.9930   -7.4649   22.7462 H   0  0  0  0  0  0
  -21.0786   -8.8773   19.8946 H   0  0  0  0  0  0
  -22.3626  -10.9651   19.6128 H   0  0  0  0  0  0
  -21.2042   -7.6104   23.9684 H   0  0  0  0  0  0
  -21.1487   -6.0484   25.9063 H   0  0  0  0  0  0
  -22.0582   -2.7555   23.2883 H   0  0  0  0  0  0
  -22.4017  -11.9975   22.4901 H   0  0  0  0  0  0
  -21.1029  -13.1303   22.2498 H   0  0  0  0  0  0
  -24.6510  -15.8443   20.4959 H   0  0  0  0  0  0
  -26.2702  -15.6335   20.0721 H   0  0  0  0  0  0
  -26.7154  -32.5515   23.1121 H   0  0  0  0  0  0
  -25.0135  -33.9748   25.0497 H   0  0  0  0  0  0
  -22.6956  -31.3071   21.4165 H   0  0  0  0  0  0
  -23.3751  -35.9657   23.3304 H   0  0  0  0  0  0
  -24.3574  -36.8926   22.2035 H   0  0  0  0  0  0
  -23.7249  -37.6529   23.6631 H   0  0  0  0  0  0
  -26.0480  -31.5969   20.5973 H   0  0  0  0  0  0
  -26.8268  -30.8845   21.9831 H   0  0  0  0  0  0
  -28.1042  -29.0804   21.1743 H   0  0  0  0  0  0
  -25.9976  -25.9970   18.9755 H   0  0  0  0  0  0
  -23.9806  -27.3231   19.0075 H   0  0  0  0  0  0
  -23.7304  -30.6137   19.4112 H   0  0  0  0  0  0
  -22.7427  -29.2545   19.8582 H   0  0  0  0  0  0
  -25.1291  -36.1995   25.0810 H   0  0  0  0  0  0
  -20.9937  -28.3243   24.1429 H   0  0  0  0  0  0
  -20.5697  -26.2302   23.3555 H   0  0  0  0  0  0
  -21.6626  -26.7510   22.1134 H   0  0  0  0  0  0
  -19.6941  -25.6282   21.1176 H   0  0  0  0  0  0
  -19.6692  -27.3209   20.6726 H   0  0  0  0  0  0
  -17.4146  -26.6570   21.4076 H   0  0  0  0  0  0
  -18.0386  -26.0064   22.9061 H   0  0  0  0  0  0
  -19.7900  -30.7199   24.2338 H   0  0  0  0  0  0
  -17.4981  -31.6239   24.5176 H   0  0  0  0  0  0
  -15.5325  -30.2992   23.7590 H   0  0  0  0  0  0
  -15.8634  -28.0836   22.7049 H   0  0  0  0  0  0
  -24.5915  -30.7061   25.7721 H   0  0  0  0  0  0
  -24.8908  -32.2867   26.4810 H   0  0  0  0  0  0
  -25.8052  -30.8879   27.0190 H   0  0  0  0  0  0
  -26.2881  -29.6761   24.1123 H   0  0  0  0  0  0
  -27.4110  -29.7253   25.4510 H   0  0  0  0  0  0
  -27.8701  -30.4302   23.9205 H   0  0  0  0  0  0
  -27.2711  -33.3578   26.2049 H   0  0  0  0  0  0
  -28.3883  -32.6845   25.0277 H   0  0  0  0  0  0
  -28.0744  -31.8375   26.5344 H   0  0  0  0  0  0
  -28.2605  -38.0108   24.7501 H   0  0  0  0  0  0
  -28.1085  -36.2638   24.6305 H   0  0  0  0  0  0
  -27.2281  -37.1483   25.8849 H   0  0  0  0  0  0
  -20.9297  -29.8871   21.7054 H   0  0  0  0  0  0
  -26.0208  -38.2885   24.1424 H   0  0  0  0  0  0
  -28.7802  -17.8944   20.8414 H   0  0  0  0  0  0
  -32.7276  -16.3156   21.6500 H   0  0  0  0  0  0
  -32.2743  -20.3816   21.3748 H   0  0  0  0  0  0
  -27.4256  -23.4699   22.3331 H   0  0  0  0  0  0
  -29.0395  -23.1681   22.9521 H   0  0  0  0  0  0
  -27.9897  -21.8205   22.5631 H   0  0  0  0  0  0
  -26.8931  -22.9134   19.7976 H   0  0  0  0  0  0
  -27.4381  -21.2904   20.0639 H   0  0  0  0  0  0
  -28.1778  -22.2458   18.7926 H   0  0  0  0  0  0
  -27.2621  -24.9638   20.6544 H   0  0  0  0  0  0
  -27.8522  -24.9833   18.9992 H   0  0  0  0  0  0
  -30.7563  -21.9982   21.5745 H   0  0  0  0  0  0
  -30.6045  -21.8358   19.8309 H   0  0  0  0  0  0
  -29.1722  -15.4044   21.3968 H   0  0  0  0  0  0
  1 25  1  0  0  0
  1 30  2  0  0  0
  1 83  1  0  0  0
  2  3  1  0  0  0
  2 25  1  0  0  0
  2 86  1  0  0  0
  2 87  1  0  0  0
  3  4  1  0  0  0
  3 88  1  0  0  0
  3 89  1  0  0  0
  4  5  1  0  0  0
  4 90  1  0  0  0
  4 91  1  0  0  0
  5  6  1  0  0  0
  5 26  1  0  0  0
  5 92  1  0  0  0
  6 25  1  0  0  0
  6 93  1  0  0  0
  6 94  1  0  0  0
  7  8  2  0  0  0
  7 26  1  0  0  0
  7 29  1  0  0  0
  8  9  1  0  0  0
  8 22  1  0  0  0
  9 10  1  0  0  0
  9 27  2  0  0  0
 10 11  2  0  0  0
 10 15  1  0  0  0
 11 12  1  0  0  0
 11 95  1  0  0  0
 12 13  2  0  0  0
 12 96  1  0  0  0
 13 14  1  0  0  0
 13 31  1  0  0  0
 14 15  2  0  0  0
 14 97  1  0  0  0
 15 98  1  0  0  0
 16 17  2  0  0  0
 16 21  1  0  0  0
 16 31  1  0  0  0
 17 18  1  0  0  0
 17 99  1  0  0  0
 18 19  2  0  0  0
 18100  1  0  0  0
 19 20  1  0  0  0
 19 24  1  0  0  0
 20 21  2  0  0  0
 20101  1  0  0  0
 21 23  1  0  0  0
 22 28  1  0  0  0
 22 32  2  0  0  0
 26 27  1  0  0  0
 28102  1  0  0  0
 28103  1  0  0  0
 29104  1  0  0  0
 29105  1  0  0  0
 33 34  1  0  0  0
 33 66  1  0  0  0
 33 70  2  0  0  0
 34 36  1  0  0  0
 34 59  1  0  0  0
 34106  1  0  0  0
 35 44  2  0  0  0
 35 45  1  0  0  0
 35 68  1  0  0  0
 36 56  1  0  0  0
 36107  1  0  0  0
 37 39  1  0  0  0
 37 47  1  0  0  0
 37 66  1  0  0  0
 37108  1  0  0  0
 38 43  2  0  0  0
 38 46  1  0  0  0
 38 47  1  0  0  0
 39 64  1  0  0  0
 39 67  2  0  0  0
 40 52  1  0  0  0
 40 53  2  0  0  0
 40 58  1  0  0  0
 41109  1  0  0  0
 41110  1  0  0  0
 41111  1  0  0  0
 41 48  1  0  0  0
 42 43  1  0  0  0
 42 66  1  0  0  0
 42112  1  0  0  0
 42113  1  0  0  0
 43 44  1  0  0  0
 44114  1  0  0  0
 45 46  2  0  0  0
 45115  1  0  0  0
 46116  1  0  0  0
 47117  1  0  0  0
 47118  1  0  0  0
 48 56  1  0  0  0
 48 65  1  0  0  0
 48119  1  0  0  0
 49 50  1  0  0  0
 49 53  1  0  0  0
 49 64  1  0  0  0
 49120  1  0  0  0
 50 51  1  0  0  0
 50121  1  0  0  0
 50122  1  0  0  0
 51 52  1  0  0  0
 51123  1  0  0  0
 51124  1  0  0  0
 52125  1  0  0  0
 52126  1  0  0  0
 53 54  1  0  0  0
 54 55  2  0  0  0
 54127  1  0  0  0
 55 57  1  0  0  0
 55128  1  0  0  0
 56 69  2  0  0  0
 57 58  2  0  0  0
 57129  1  0  0  0
 58130  1  0  0  0
 59 60  1  0  0  0
 59 61  1  0  0  0
 59 62  1  0  0  0
 60131  1  0  0  0
 60132  1  0  0  0
 60133  1  0  0  0
 61134  1  0  0  0
 61135  1  0  0  0
 61136  1  0  0  0
 62137  1  0  0  0
 62138  1  0  0  0
 62139  1  0  0  0
 63 65  1  0  0  0
 63140  1  0  0  0
 63141  1  0  0  0
 63142  1  0  0  0
 64143  1  0  0  0
 65144  1  0  0  0
 68 79  1  0  0  0
 71 74  2  0  0  0
 71 75  1  0  0  0
 71145  1  0  0  0
 72 74  1  0  0  0
 72 82  2  0  0  0
 72146  1  0  0  0
 73 75  2  0  0  0
 73 82  1  0  0  0
 73147  1  0  0  0
 74 83  1  0  0  0
 75 85  1  0  0  0
 76 79  1  0  0  0
 76 81  1  0  0  0
 76 84  2  0  0  0
 77148  1  0  0  0
 77149  1  0  0  0
 77150  1  0  0  0
 77 81  1  0  0  0
 78 81  1  0  0  0
 78151  1  0  0  0
 78152  1  0  0  0
 78153  1  0  0  0
 79154  1  0  0  0
 79155  1  0  0  0
 80 81  1  0  0  0
 80 85  1  0  0  0
 80156  1  0  0  0
 80157  1  0  0  0
 83158  1  0  0  0
M  ISO  4   1 100  68 101  79 101  83 100
M  END
> <chiral flag>
0

> <version>
0

> <s_m_source_file>
/data/baiqing/PycharmProjects/Reinvent-master-3.2/result/LINK_invent/BTK/process_docking_weight1_custom_product_contain_oxygen_bond_distance_aromatic_linkinvent_7_9_3/rearranged_h_0161.sdf

> <i_m_source_file_index>
47

> <r_mmod_Potential_Energy-OPLS-2005>
-99.7383270263672

> <r_mmod_Stretch_Energy-OPLS-2005>
49.3590660095215

> <r_mmod_Bend_Energy-OPLS-2005>
115.063423156738

> <r_mmod_Torsional_Energy-OPLS-2005>
229.125030517578

> <r_mmod_Improper_Torsional_Energy-OPLS-2005>
3.4314968585968

> <r_mmod_Van_der_Waal_Energy-OPLS-2005>
175.081604003906

> <r_mmod_Electrostatic_Energy-OPLS-2005>
-452.393676757812

> <r_mmod_Solvation_Energy-OPLS-2005>
-237.334106445312

> <b_mmod_Minimization_Converged-OPLS-2005>
0

> <r_mmod_RMS_Derivative-OPLS-2005>
3.55388498306274

$$$$
47
                    3D
 Structure written by MMmdl.
149157  0  0  1  0            999 V2000
  -30.6655  -14.6115   20.4631 C   0  0  0  0  0  0
  -30.4204  -12.3660   19.4626 C   0  0  0  0  0  0
  -29.5034  -12.4944   18.2276 C   0  0  0  0  0  0
  -28.0263  -12.3425   18.6377 C   0  0  0  0  0  0
  -27.6495  -13.2234   19.8594 C   0  0  2  0  0  0
  -28.6927  -13.1072   20.9941 C   0  0  0  0  0  0
  -25.2538  -13.8190   20.5681 C   0  0  0  0  0  0
  -24.1813  -13.0446   20.9182 C   0  0  0  0  0  0
  -24.6391  -11.6918   20.8737 C   0  0  0  0  0  0
  -23.9066  -10.4295   21.0403 C   0  0  0  0  0  0
  -24.3618   -9.4208   21.9179 C   0  0  0  0  0  0
  -23.6290   -8.2246   22.0752 C   0  0  0  0  0  0
  -22.4273   -8.0284   21.3545 C   0  0  0  0  0  0
  -21.9905   -9.0256   20.4650 C   0  0  0  0  0  0
  -22.7235  -10.2135   20.3055 C   0  0  0  0  0  0
  -21.6857   -6.0733   22.5275 C   0  0  0  0  0  0
  -21.4018   -6.5636   23.8207 C   0  0  0  0  0  0
  -21.3661   -5.6788   24.9169 C   0  0  0  0  0  0
  -21.6045   -4.3051   24.7221 C   0  0  0  0  0  0
  -21.8820   -3.8143   23.4343 C   0  0  0  0  0  0
  -21.9193   -4.6959   22.3398 C   0  0  0  0  0  0
  -22.7835  -13.5235   21.1846 C   0  0  0  0  0  0
  -22.1662   -4.2143   21.0976 F   0  0  0  0  0  0
  -21.5626   -3.4535   25.7735 F   0  0  0  0  0  0
  -30.0120  -13.4101   20.4247 N   0  0  0  0  0  0
  -26.2971  -12.9386   20.3309 N   0  0  0  0  0  0
  -25.9323  -11.6534   20.5758 N   0  0  0  0  0  0
  -22.0481  -12.8232   22.0411 N   0  0  0  0  0  0
  -25.4244  -15.1911   20.4104 N   0  0  0  0  0  0
  -31.8502  -14.6930   20.1252 O   0  0  0  0  0  0
  -21.6643   -6.8879   21.4238 O   0  0  0  0  0  0
  -22.3522  -14.5539   20.6686 O   0  0  0  0  0  0
  -24.6220  -31.8624   23.2045 C   0  0  0  0  0  0
  -25.9080  -32.4796   23.8368 C   0  0  1  0  0  0
  -27.2268  -27.3612   20.1114 C   0  0  0  0  0  0
  -25.5909  -33.8595   24.2297 N   0  0  0  0  0  0
  -23.4160  -30.4841   21.5456 C   0  0  2  0  0  0
  -24.8667  -28.9461   20.1069 C   0  0  0  0  0  0
  -22.7467  -29.4619   22.4945 C   0  0  0  0  0  0
  -18.0285  -28.1379   22.8492 C   0  0  0  0  0  0
  -24.1489  -36.7302   23.2638 C   0  0  0  0  0  0
  -25.9529  -30.8056   21.3711 C   0  0  0  0  0  0
  -26.0318  -29.4363   20.7135 C   0  0  0  0  0  0
  -27.2192  -28.6519   20.7133 C   0  0  0  0  0  0
  -26.0490  -26.9097   19.4865 C   0  0  0  0  0  0
  -24.8744  -27.6859   19.4856 C   0  0  0  0  0  0
  -23.6300  -29.8191   20.1599 C   0  0  0  0  0  0
  -25.4112  -36.3097   24.0333 C   0  0  1  0  0  0
  -20.5883  -28.3675   23.1294 C   0  0  2  0  0  0
  -20.6770  -26.9400   22.5416 C   0  0  0  0  0  0
  -19.5745  -26.6378   21.5216 C   0  0  0  0  0  0
  -18.1927  -26.7925   22.1627 C   0  0  0  0  0  0
  -19.1537  -28.8847   23.2886 C   0  0  0  0  0  0
  -18.9460  -30.1452   23.8899 C   0  0  0  0  0  0
  -17.6459  -30.6582   24.0564 C   0  0  0  0  0  0
  -25.9044  -34.9462   23.5115 C   0  0  0  0  0  0
  -16.5350  -29.9081   23.6328 C   0  0  0  0  0  0
  -16.7273  -28.6498   23.0352 C   0  0  0  0  0  0
  -26.4481  -31.6595   25.0723 C   0  0  0  0  0  0
  -25.3728  -31.3728   26.1462 C   0  0  0  0  0  0
  -27.0313  -30.3023   24.6149 C   0  0  0  0  0  0
  -27.6052  -32.4323   25.7483 C   0  0  0  0  0  0
  -27.5584  -37.1802   24.8462 C   0  0  0  0  0  0
  -21.4183  -29.3030   22.3692 N   0  0  0  0  0  0
  -26.4297  -37.3785   23.9409 N   0  0  0  0  0  0
  -24.6817  -31.0663   22.0978 N   0  0  0  0  0  0
  -23.4207  -28.8165   23.3015 O   0  0  0  0  0  0
  -28.2945  -26.4720   20.1670 O   0  0  0  0  0  0
  -26.5613  -34.8923   22.4682 O   0  0  0  0  0  0
  -23.5390  -32.1403   23.7392 O   0  0  0  0  0  0
  -30.8420  -17.2597   18.9667 C   0  0  0  0  0  0
  -30.1206  -17.0693   20.1233 C   0  0  0  0  0  0
  -29.8554  -19.3688   19.8112 C   0  0  0  0  0  0
  -28.2691  -25.6296   21.2746 C   0  0  0  0  0  0
  -28.4939  -24.2825   21.4348 C   0  0  0  0  0  0
  -28.8702  -23.2171   20.4269 C   0  0  0  0  0  0
  -28.9104  -21.7032   20.8883 C   0  0  0  0  0  0
  -29.5513  -18.2990   20.5960 N   0  0  0  0  0  0
  -29.9216  -15.7404   20.6963 N   0  0  0  0  0  0
  -29.5057  -20.7365   19.9333 N   0  0  0  0  0  0
  -29.1537  -23.4724   19.2523 O   0  0  0  0  0  0
  -28.3615  -23.8058   22.6832 O   0  0  0  0  0  0
  -30.8532  -18.9192   18.4357 S   0  0  0  0  0  0
  -31.4667  -12.4541   19.1647 H   0  0  0  0  0  0
  -30.3228  -11.3778   19.9145 H   0  0  0  0  0  0
  -29.7627  -11.7405   17.4829 H   0  0  0  0  0  0
  -29.6563  -13.4631   17.7489 H   0  0  0  0  0  0
  -27.8595  -11.2914   18.8760 H   0  0  0  0  0  0
  -27.3745  -12.5686   17.7930 H   0  0  0  0  0  0
  -27.6621  -14.2539   19.5046 H   0  0  0  0  0  0
  -28.6899  -12.1029   21.4198 H   0  0  0  0  0  0
  -28.4501  -13.7842   21.8147 H   0  0  0  0  0  0
  -25.2766   -9.5676   22.4748 H   0  0  0  0  0  0
  -23.9997   -7.4638   22.7470 H   0  0  0  0  0  0
  -21.0831   -8.8778   19.8961 H   0  0  0  0  0  0
  -22.3695  -10.9671   19.6162 H   0  0  0  0  0  0
  -21.2016   -7.6145   23.9709 H   0  0  0  0  0  0
  -21.1482   -6.0519   25.9072 H   0  0  0  0  0  0
  -22.0599   -2.7603   23.2845 H   0  0  0  0  0  0
  -22.4110  -11.9910   22.4817 H   0  0  0  0  0  0
  -21.1099  -13.1261   22.2618 H   0  0  0  0  0  0
  -24.6559  -15.8442   20.5201 H   0  0  0  0  0  0
  -26.2744  -15.6334   20.0840 H   0  0  0  0  0  0
  -26.7153  -32.5488   23.1127 H   0  0  0  0  0  0
  -25.0055  -33.9747   25.0442 H   0  0  0  0  0  0
  -22.7068  -31.3023   21.4039 H   0  0  0  0  0  0
  -23.3749  -35.9636   23.3304 H   0  0  0  0  0  0
  -24.3586  -36.8915   22.2052 H   0  0  0  0  0  0
  -23.7242  -37.6507   23.6655 H   0  0  0  0  0  0
  -26.0786  -31.5718   20.6050 H   0  0  0  0  0  0
  -26.8350  -30.8556   21.9977 H   0  0  0  0  0  0
  -28.1127  -29.0138   21.2021 H   0  0  0  0  0  0
  -26.0338  -25.9312   19.0272 H   0  0  0  0  0  0
  -23.9805  -27.3028   19.0129 H   0  0  0  0  0  0
  -23.7410  -30.5958   19.4024 H   0  0  0  0  0  0
  -22.7525  -29.2433   19.8608 H   0  0  0  0  0  0
  -25.1289  -36.1957   25.0826 H   0  0  0  0  0  0
  -20.9976  -28.3248   24.1414 H   0  0  0  0  0  0
  -20.5666  -26.2285   23.3613 H   0  0  0  0  0  0
  -21.6640  -26.7427   22.1212 H   0  0  0  0  0  0
  -19.6902  -25.6291   21.1239 H   0  0  0  0  0  0
  -19.6683  -27.3193   20.6750 H   0  0  0  0  0  0
  -17.4197  -26.6679   21.4029 H   0  0  0  0  0  0
  -18.0320  -26.0065   22.9019 H   0  0  0  0  0  0
  -19.7934  -30.7270   24.2266 H   0  0  0  0  0  0
  -17.5010  -31.6262   24.5165 H   0  0  0  0  0  0
  -15.5350  -30.2979   23.7646 H   0  0  0  0  0  0
  -15.8675  -28.0814   22.7064 H   0  0  0  0  0  0
  -24.5896  -30.7082   25.7798 H   0  0  0  0  0  0
  -24.8925  -32.2891   26.4900 H   0  0  0  0  0  0
  -25.8060  -30.8899   27.0230 H   0  0  0  0  0  0
  -26.2874  -29.6788   24.1177 H   0  0  0  0  0  0
  -27.4028  -29.7265   25.4635 H   0  0  0  0  0  0
  -27.8736  -30.4318   23.9348 H   0  0  0  0  0  0
  -27.2672  -33.3614   26.2081 H   0  0  0  0  0  0
  -28.3844  -32.6900   25.0298 H   0  0  0  0  0  0
  -28.0742  -31.8441   26.5380 H   0  0  0  0  0  0
  -28.2600  -38.0103   24.7520 H   0  0  0  0  0  0
  -28.1083  -36.2636   24.6269 H   0  0  0  0  0  0
  -27.2308  -37.1429   25.8867 H   0  0  0  0  0  0
  -20.9359  -29.8759   21.6911 H   0  0  0  0  0  0
  -26.0181  -38.2861   24.1419 H   0  0  0  0  0  0
  -31.3660  -16.5244   18.3712 H   0  0  0  0  0  0
  -28.0081  -26.2148   22.1470 H   0  0  0  0  0  0
  -27.8909  -21.3934   21.1185 H   0  0  0  0  0  0
  -29.4702  -21.6436   21.8221 H   0  0  0  0  0  0
  -29.0375  -15.5902   21.1565 H   0  0  0  0  0  0
  -29.8224  -21.2624   19.1215 H   0  0  0  0  0  0
  -28.1278  -24.5324   23.2452 H   0  0  0  0  0  0
  1 25  1  0  0  0
  1 30  2  0  0  0
  1 79  1  0  0  0
  2  3  1  0  0  0
  2 25  1  0  0  0
  2 84  1  0  0  0
  2 85  1  0  0  0
  3  4  1  0  0  0
  3 86  1  0  0  0
  3 87  1  0  0  0
  4  5  1  0  0  0
  4 88  1  0  0  0
  4 89  1  0  0  0
  5  6  1  0  0  0
  5 26  1  0  0  0
  5 90  1  0  0  0
  6 25  1  0  0  0
  6 91  1  0  0  0
  6 92  1  0  0  0
  7  8  2  0  0  0
  7 26  1  0  0  0
  7 29  1  0  0  0
  8  9  1  0  0  0
  8 22  1  0  0  0
  9 10  1  0  0  0
  9 27  2  0  0  0
 10 11  2  0  0  0
 10 15  1  0  0  0
 11 12  1  0  0  0
 11 93  1  0  0  0
 12 13  2  0  0  0
 12 94  1  0  0  0
 13 14  1  0  0  0
 13 31  1  0  0  0
 14 15  2  0  0  0
 14 95  1  0  0  0
 15 96  1  0  0  0
 16 17  2  0  0  0
 16 21  1  0  0  0
 16 31  1  0  0  0
 17 18  1  0  0  0
 17 97  1  0  0  0
 18 19  2  0  0  0
 18 98  1  0  0  0
 19 20  1  0  0  0
 19 24  1  0  0  0
 20 21  2  0  0  0
 20 99  1  0  0  0
 21 23  1  0  0  0
 22 28  1  0  0  0
 22 32  2  0  0  0
 26 27  1  0  0  0
 28100  1  0  0  0
 28101  1  0  0  0
 29102  1  0  0  0
 29103  1  0  0  0
 33 34  1  0  0  0
 33 66  1  0  0  0
 33 70  2  0  0  0
 34 36  1  0  0  0
 34 59  1  0  0  0
 34104  1  0  0  0
 35 44  2  0  0  0
 35 45  1  0  0  0
 35 68  1  0  0  0
 36 56  1  0  0  0
 36105  1  0  0  0
 37 39  1  0  0  0
 37 47  1  0  0  0
 37 66  1  0  0  0
 37106  1  0  0  0
 38 43  2  0  0  0
 38 46  1  0  0  0
 38 47  1  0  0  0
 39 64  1  0  0  0
 39 67  2  0  0  0
 40 52  1  0  0  0
 40 53  2  0  0  0
 40 58  1  0  0  0
 41107  1  0  0  0
 41108  1  0  0  0
 41109  1  0  0  0
 41 48  1  0  0  0
 42 43  1  0  0  0
 42 66  1  0  0  0
 42110  1  0  0  0
 42111  1  0  0  0
 43 44  1  0  0  0
 44112  1  0  0  0
 45 46  2  0  0  0
 45113  1  0  0  0
 46114  1  0  0  0
 47115  1  0  0  0
 47116  1  0  0  0
 48 56  1  0  0  0
 48 65  1  0  0  0
 48117  1  0  0  0
 49 50  1  0  0  0
 49 53  1  0  0  0
 49 64  1  0  0  0
 49118  1  0  0  0
 50 51  1  0  0  0
 50119  1  0  0  0
 50120  1  0  0  0
 51 52  1  0  0  0
 51121  1  0  0  0
 51122  1  0  0  0
 52123  1  0  0  0
 52124  1  0  0  0
 53 54  1  0  0  0
 54 55  2  0  0  0
 54125  1  0  0  0
 55 57  1  0  0  0
 55126  1  0  0  0
 56 69  2  0  0  0
 57 58  2  0  0  0
 57127  1  0  0  0
 58128  1  0  0  0
 59 60  1  0  0  0
 59 61  1  0  0  0
 59 62  1  0  0  0
 60129  1  0  0  0
 60130  1  0  0  0
 60131  1  0  0  0
 61132  1  0  0  0
 61133  1  0  0  0
 61134  1  0  0  0
 62135  1  0  0  0
 62136  1  0  0  0
 62137  1  0  0  0
 63 65  1  0  0  0
 63138  1  0  0  0
 63139  1  0  0  0
 63140  1  0  0  0
 64141  1  0  0  0
 65142  1  0  0  0
 68 74  1  0  0  0
 71 72  2  0  0  0
 71 83  1  0  0  0
 71143  1  0  0  0
 72 78  1  0  0  0
 72 79  1  0  0  0
 73 78  2  0  0  0
 73 80  1  0  0  0
 73 83  1  0  0  0
 74 75  2  0  0  0
 74144  1  0  0  0
 75 76  1  0  0  0
 75 82  1  0  0  0
 76 77  1  0  0  0
 76 81  2  0  0  0
 77 80  1  0  0  0
 77145  1  0  0  0
 77146  1  0  0  0
 79147  1  0  0  0
 80148  1  0  0  0
 82149  1  0  0  0
M  ISO  4   1 100  68 101  74 101  79 100
M  END
> <chiral flag>
0

> <version>
0

> <s_m_source_file>
/data/baiqing/PycharmProjects/Reinvent-master-3.2/result/LINK_invent/BTK/process_docking_weight1_custom_product_contain_oxygen_bond_distance_aromatic_linkinvent_7_9_3/rearranged_h_0161.sdf

> <i_m_source_file_index>
48

> <r_mmod_Potential_Energy-OPLS-2005>
-18.341760635376

> <r_mmod_Stretch_Energy-OPLS-2005>
63.1443099975586

> <r_mmod_Bend_Energy-OPLS-2005>
146.221328735352

> <r_mmod_Torsional_Energy-OPLS-2005>
222.562866210938

> <r_mmod_Improper_Torsional_Energy-OPLS-2005>
5.22221565246582

> <r_mmod_Van_der_Waal_Energy-OPLS-2005>
122.928092956543

> <r_mmod_Electrostatic_Energy-OPLS-2005>
-382.120971679688

> <r_mmod_Solvation_Energy-OPLS-2005>
-240.112518310547

> <b_mmod_Minimization_Converged-OPLS-2005>
0

> <r_mmod_RMS_Derivative-OPLS-2005>
0.789948999881744

$$$$
48
                    3D
 Structure written by MMmdl.
164173  0  0  1  0            999 V2000
  -30.6812  -14.5011   20.5630 C   0  0  0  0  0  0
  -30.4199  -12.3243   19.4161 C   0  0  0  0  0  0
  -29.4916  -12.5201   18.2015 C   0  0  0  0  0  0
  -28.0086  -12.3825   18.6091 C   0  0  0  0  0  0
  -27.6551  -13.2109   19.8736 C   0  0  2  0  0  0
  -28.7026  -12.9907   20.9877 C   0  0  0  0  0  0
  -25.2529  -13.8147   20.5672 C   0  0  0  0  0  0
  -24.1797  -13.0417   20.9215 C   0  0  0  0  0  0
  -24.6361  -11.6890   20.8711 C   0  0  0  0  0  0
  -23.9033  -10.4275   21.0361 C   0  0  0  0  0  0
  -24.3584   -9.4199   21.9153 C   0  0  0  0  0  0
  -23.6269   -8.2231   22.0738 C   0  0  0  0  0  0
  -22.4245   -8.0259   21.3544 C   0  0  0  0  0  0
  -21.9873   -9.0224   20.4625 C   0  0  0  0  0  0
  -22.7190  -10.2117   20.3017 C   0  0  0  0  0  0
  -21.6844   -6.0711   22.5255 C   0  0  0  0  0  0
  -21.4020   -6.5624   23.8197 C   0  0  0  0  0  0
  -21.3667   -5.6785   24.9165 C   0  0  0  0  0  0
  -21.6062   -4.3049   24.7222 C   0  0  0  0  0  0
  -21.8817   -3.8134   23.4343 C   0  0  0  0  0  0
  -21.9193   -4.6947   22.3385 C   0  0  0  0  0  0
  -22.7828  -13.5223   21.1876 C   0  0  0  0  0  0
  -22.1652   -4.2127   21.0972 F   0  0  0  0  0  0
  -21.5644   -3.4533   25.7737 F   0  0  0  0  0  0
  -30.0244  -13.3153   20.4258 N   0  0  0  0  0  0
  -26.2973  -12.9322   20.3352 N   0  0  0  0  0  0
  -25.9302  -11.6483   20.5750 N   0  0  0  0  0  0
  -22.0461  -12.8213   22.0425 N   0  0  0  0  0  0
  -25.4253  -15.1861   20.4078 N   0  0  0  0  0  0
  -31.8365  -14.6708   20.1589 O   0  0  0  0  0  0
  -21.6640   -6.8838   21.4206 O   0  0  0  0  0  0
  -22.3508  -14.5531   20.6723 O   0  0  0  0  0  0
  -24.6194  -31.8609   23.2120 C   0  0  0  0  0  0
  -25.9067  -32.4804   23.8378 C   0  0  1  0  0  0
  -27.2241  -27.4025   20.1133 C   0  0  0  0  0  0
  -25.5908  -33.8599   24.2327 N   0  0  0  0  0  0
  -23.4083  -30.4937   21.5473 C   0  0  2  0  0  0
  -24.8531  -28.9550   20.1157 C   0  0  0  0  0  0
  -22.7420  -29.4656   22.4912 C   0  0  0  0  0  0
  -18.0265  -28.1399   22.8493 C   0  0  0  0  0  0
  -24.1468  -36.7305   23.2633 C   0  0  0  0  0  0
  -25.9390  -30.8266   21.3594 C   0  0  0  0  0  0
  -26.0153  -29.4582   20.7128 C   0  0  0  0  0  0
  -27.2064  -28.6893   20.7082 C   0  0  0  0  0  0
  -26.0401  -26.9232   19.5052 C   0  0  0  0  0  0
  -24.8603  -27.6882   19.5109 C   0  0  0  0  0  0
  -23.6202  -29.8316   20.1601 C   0  0  0  0  0  0
  -25.4087  -36.3095   24.0336 C   0  0  1  0  0  0
  -20.5857  -28.3691   23.1301 C   0  0  2  0  0  0
  -20.6768  -26.9408   22.5427 C   0  0  0  0  0  0
  -19.5743  -26.6386   21.5222 C   0  0  0  0  0  0
  -18.1908  -26.7948   22.1625 C   0  0  0  0  0  0
  -19.1513  -28.8852   23.2899 C   0  0  0  0  0  0
  -18.9461  -30.1450   23.8912 C   0  0  0  0  0  0
  -17.6468  -30.6593   24.0579 C   0  0  0  0  0  0
  -25.9022  -34.9466   23.5136 C   0  0  0  0  0  0
  -16.5354  -29.9116   23.6335 C   0  0  0  0  0  0
  -16.7263  -28.6539   23.0346 C   0  0  0  0  0  0
  -26.4492  -31.6596   25.0722 C   0  0  0  0  0  0
  -25.3790  -31.3710   26.1500 C   0  0  0  0  0  0
  -27.0321  -30.3046   24.6100 C   0  0  0  0  0  0
  -27.6061  -32.4299   25.7509 C   0  0  0  0  0  0
  -27.5559  -37.1798   24.8467 C   0  0  0  0  0  0
  -21.4140  -29.3060   22.3693 N   0  0  0  0  0  0
  -26.4267  -37.3788   23.9425 N   0  0  0  0  0  0
  -24.6758  -31.0737   22.0984 N   0  0  0  0  0  0
  -23.4201  -28.8131   23.2878 O   0  0  0  0  0  0
  -28.3705  -26.6224   20.1470 O   0  0  0  0  0  0
  -26.5553  -34.8919   22.4687 O   0  0  0  0  0  0
  -23.5382  -32.1318   23.7533 O   0  0  0  0  0  0
  -31.7032  -18.2244   22.8685 C   0  0  0  0  0  0
  -31.4690  -17.0082   22.2004 C   0  0  0  0  0  0
  -29.4897  -17.9812   21.1818 C   0  0  0  0  0  0
  -30.8007  -19.3097   22.7726 C   0  0  0  0  0  0
  -30.3125  -16.8436   21.4081 C   0  0  0  0  0  0
  -29.7386  -19.2276   21.8271 C   0  0  0  0  0  0
  -28.6369  -22.7287   20.8871 C   0  0  0  0  0  0
  -31.5439  -22.2338   24.7758 C   0  0  0  0  0  0
  -32.3015  -21.0277   24.2021 C   0  0  0  0  0  0
  -30.3892  -21.8481   23.8455 C   0  0  0  0  0  0
  -30.9416  -20.4083   23.8406 C   0  0  0  0  0  0
  -29.1494  -23.9925   20.1536 C   0  0  0  0  0  0
  -29.3993  -21.3851   20.7101 C   0  0  0  0  0  0
  -28.1415  -25.1932   20.1722 C   0  0  0  0  0  0
  -29.9106  -15.5415   20.9539 N   0  0  0  0  0  0
  -28.8737  -20.3114   21.5786 N   0  0  0  0  0  0
  -27.6701  -22.7891   21.6537 O   0  0  0  0  0  0
  -31.4646  -12.4249   19.1236 H   0  0  0  0  0  0
  -30.3214  -11.3138   19.8151 H   0  0  0  0  0  0
  -29.7340  -11.7991   17.4199 H   0  0  0  0  0  0
  -29.6640  -13.5065   17.7705 H   0  0  0  0  0  0
  -27.8112  -11.3236   18.7846 H   0  0  0  0  0  0
  -27.3630  -12.6758   17.7792 H   0  0  0  0  0  0
  -27.6947  -14.2592   19.5806 H   0  0  0  0  0  0
  -28.6826  -11.9492   21.3183 H   0  0  0  0  0  0
  -28.4804  -13.5827   21.8767 H   0  0  0  0  0  0
  -25.2716   -9.5724   22.4755 H   0  0  0  0  0  0
  -23.9989   -7.4638   22.7459 H   0  0  0  0  0  0
  -21.0817   -8.8734   19.8927 H   0  0  0  0  0  0
  -22.3609  -10.9668   19.6154 H   0  0  0  0  0  0
  -21.2007   -7.6134   23.9694 H   0  0  0  0  0  0
  -21.1495   -6.0515   25.9073 H   0  0  0  0  0  0
  -22.0586   -2.7588   23.2845 H   0  0  0  0  0  0
  -22.4066  -11.9881   22.4834 H   0  0  0  0  0  0
  -21.1059  -13.1232   22.2588 H   0  0  0  0  0  0
  -24.6606  -15.8409   20.5255 H   0  0  0  0  0  0
  -26.2729  -15.6255   20.0732 H   0  0  0  0  0  0
  -26.7133  -32.5500   23.1125 H   0  0  0  0  0  0
  -25.0205  -33.9752   25.0574 H   0  0  0  0  0  0
  -22.7015  -31.3135   21.4053 H   0  0  0  0  0  0
  -23.3729  -35.9644   23.3318 H   0  0  0  0  0  0
  -24.3555  -36.8899   22.2044 H   0  0  0  0  0  0
  -23.7231  -37.6525   23.6625 H   0  0  0  0  0  0
  -26.0419  -31.5874   20.5828 H   0  0  0  0  0  0
  -26.8325  -30.8906   21.9648 H   0  0  0  0  0  0
  -28.1005  -29.0700   21.1820 H   0  0  0  0  0  0
  -26.0124  -25.9544   19.0189 H   0  0  0  0  0  0
  -23.9632  -27.2954   19.0503 H   0  0  0  0  0  0
  -23.7415  -30.6088   19.4040 H   0  0  0  0  0  0
  -22.7439  -29.2595   19.8539 H   0  0  0  0  0  0
  -25.1261  -36.1961   25.0825 H   0  0  0  0  0  0
  -20.9980  -28.3251   24.1402 H   0  0  0  0  0  0
  -20.5672  -26.2262   23.3603 H   0  0  0  0  0  0
  -21.6639  -26.7420   22.1190 H   0  0  0  0  0  0
  -19.6914  -25.6293   21.1233 H   0  0  0  0  0  0
  -19.6723  -27.3226   20.6772 H   0  0  0  0  0  0
  -17.4185  -26.6684   21.4019 H   0  0  0  0  0  0
  -18.0293  -26.0086   22.9014 H   0  0  0  0  0  0
  -19.7938  -30.7245   24.2285 H   0  0  0  0  0  0
  -17.5040  -31.6280   24.5184 H   0  0  0  0  0  0
  -15.5374  -30.3053   23.7652 H   0  0  0  0  0  0
  -15.8632  -28.0895   22.7051 H   0  0  0  0  0  0
  -24.6007  -30.6971   25.7898 H   0  0  0  0  0  0
  -24.8939  -32.2878   26.4876 H   0  0  0  0  0  0
  -25.8198  -30.8992   27.0299 H   0  0  0  0  0  0
  -26.2869  -29.6815   24.1163 H   0  0  0  0  0  0
  -27.4119  -29.7252   25.4525 H   0  0  0  0  0  0
  -27.8675  -30.4364   23.9218 H   0  0  0  0  0  0
  -27.2689  -33.3610   26.2066 H   0  0  0  0  0  0
  -28.3918  -32.6844   25.0386 H   0  0  0  0  0  0
  -28.0689  -31.8442   26.5460 H   0  0  0  0  0  0
  -28.2570  -38.0089   24.7491 H   0  0  0  0  0  0
  -28.1037  -36.2628   24.6308 H   0  0  0  0  0  0
  -27.2258  -37.1459   25.8854 H   0  0  0  0  0  0
  -20.9247  -29.8858   21.7009 H   0  0  0  0  0  0
  -26.0161  -38.2846   24.1509 H   0  0  0  0  0  0
  -32.5436  -18.2777   23.5472 H   0  0  0  0  0  0
  -32.1444  -16.1837   22.3752 H   0  0  0  0  0  0
  -28.6230  -17.8875   20.5407 H   0  0  0  0  0  0
  -31.9941  -23.2048   24.5654 H   0  0  0  0  0  0
  -31.2992  -22.1347   25.8364 H   0  0  0  0  0  0
  -32.8774  -20.4507   24.9253 H   0  0  0  0  0  0
  -32.8985  -21.2818   23.3246 H   0  0  0  0  0  0
  -30.4892  -22.3828   22.9063 H   0  0  0  0  0  0
  -29.3906  -21.9494   24.2743 H   0  0  0  0  0  0
  -30.5488  -19.9353   24.7429 H   0  0  0  0  0  0
  -29.3823  -23.6929   19.1274 H   0  0  0  0  0  0
  -30.1035  -24.2808   20.5970 H   0  0  0  0  0  0
  -29.3481  -21.0754   19.6646 H   0  0  0  0  0  0
  -30.4543  -21.5581   20.9314 H   0  0  0  0  0  0
  -28.4563  -25.3998   21.1999 H   0  0  0  0  0  0
  -28.5486  -25.4268   19.1878 H   0  0  0  0  0  0
  -28.9231  -15.3407   21.0214 H   0  0  0  0  0  0
  -28.5555  -20.7554   22.4360 H   0  0  0  0  0  0
  1 25  1  0  0  0
  1 30  2  0  0  0
  1 85  1  0  0  0
  2  3  1  0  0  0
  2 25  1  0  0  0
  2 88  1  0  0  0
  2 89  1  0  0  0
  3  4  1  0  0  0
  3 90  1  0  0  0
  3 91  1  0  0  0
  4  5  1  0  0  0
  4 92  1  0  0  0
  4 93  1  0  0  0
  5  6  1  0  0  0
  5 26  1  0  0  0
  5 94  1  0  0  0
  6 25  1  0  0  0
  6 95  1  0  0  0
  6 96  1  0  0  0
  7  8  2  0  0  0
  7 26  1  0  0  0
  7 29  1  0  0  0
  8  9  1  0  0  0
  8 22  1  0  0  0
  9 10  1  0  0  0
  9 27  2  0  0  0
 10 11  2  0  0  0
 10 15  1  0  0  0
 11 12  1  0  0  0
 11 97  1  0  0  0
 12 13  2  0  0  0
 12 98  1  0  0  0
 13 14  1  0  0  0
 13 31  1  0  0  0
 14 15  2  0  0  0
 14 99  1  0  0  0
 15100  1  0  0  0
 16 17  2  0  0  0
 16 21  1  0  0  0
 16 31  1  0  0  0
 17 18  1  0  0  0
 17101  1  0  0  0
 18 19  2  0  0  0
 18102  1  0  0  0
 19 20  1  0  0  0
 19 24  1  0  0  0
 20 21  2  0  0  0
 20103  1  0  0  0
 21 23  1  0  0  0
 22 28  1  0  0  0
 22 32  2  0  0  0
 26 27  1  0  0  0
 28104  1  0  0  0
 28105  1  0  0  0
 29106  1  0  0  0
 29107  1  0  0  0
 33 34  1  0  0  0
 33 66  1  0  0  0
 33 70  2  0  0  0
 34 36  1  0  0  0
 34 59  1  0  0  0
 34108  1  0  0  0
 35 44  2  0  0  0
 35 45  1  0  0  0
 35 68  1  0  0  0
 36 56  1  0  0  0
 36109  1  0  0  0
 37 39  1  0  0  0
 37 47  1  0  0  0
 37 66  1  0  0  0
 37110  1  0  0  0
 38 43  2  0  0  0
 38 46  1  0  0  0
 38 47  1  0  0  0
 39 64  1  0  0  0
 39 67  2  0  0  0
 40 52  1  0  0  0
 40 53  2  0  0  0
 40 58  1  0  0  0
 41111  1  0  0  0
 41112  1  0  0  0
 41113  1  0  0  0
 41 48  1  0  0  0
 42 43  1  0  0  0
 42 66  1  0  0  0
 42114  1  0  0  0
 42115  1  0  0  0
 43 44  1  0  0  0
 44116  1  0  0  0
 45 46  2  0  0  0
 45117  1  0  0  0
 46118  1  0  0  0
 47119  1  0  0  0
 47120  1  0  0  0
 48 56  1  0  0  0
 48 65  1  0  0  0
 48121  1  0  0  0
 49 50  1  0  0  0
 49 53  1  0  0  0
 49 64  1  0  0  0
 49122  1  0  0  0
 50 51  1  0  0  0
 50123  1  0  0  0
 50124  1  0  0  0
 51 52  1  0  0  0
 51125  1  0  0  0
 51126  1  0  0  0
 52127  1  0  0  0
 52128  1  0  0  0
 53 54  1  0  0  0
 54 55  2  0  0  0
 54129  1  0  0  0
 55 57  1  0  0  0
 55130  1  0  0  0
 56 69  2  0  0  0
 57 58  2  0  0  0
 57131  1  0  0  0
 58132  1  0  0  0
 59 60  1  0  0  0
 59 61  1  0  0  0
 59 62  1  0  0  0
 60133  1  0  0  0
 60134  1  0  0  0
 60135  1  0  0  0
 61136  1  0  0  0
 61137  1  0  0  0
 61138  1  0  0  0
 62139  1  0  0  0
 62140  1  0  0  0
 62141  1  0  0  0
 63 65  1  0  0  0
 63142  1  0  0  0
 63143  1  0  0  0
 63144  1  0  0  0
 64145  1  0  0  0
 65146  1  0  0  0
 68 84  1  0  0  0
 71 72  2  0  0  0
 71 74  1  0  0  0
 71147  1  0  0  0
 72 75  1  0  0  0
 72148  1  0  0  0
 73 75  2  0  0  0
 73 76  1  0  0  0
 73149  1  0  0  0
 74 76  2  0  0  0
 74 81  1  0  0  0
 75 85  1  0  0  0
 76 86  1  0  0  0
 77 82  1  0  0  0
 77 83  1  0  0  0
 77 87  2  0  0  0
 78 79  1  0  0  0
 78 80  1  0  0  0
 78150  1  0  0  0
 78151  1  0  0  0
 79 81  1  0  0  0
 79152  1  0  0  0
 79153  1  0  0  0
 80 81  1  0  0  0
 80154  1  0  0  0
 80155  1  0  0  0
 81156  1  0  0  0
 82 84  1  0  0  0
 82157  1  0  0  0
 82158  1  0  0  0
 83 86  1  0  0  0
 83159  1  0  0  0
 83160  1  0  0  0
 84161  1  0  0  0
 84162  1  0  0  0
 85163  1  0  0  0
 86164  1  0  0  0
M  ISO  4   1 100  68 101  84 101  85 100
M  END
> <chiral flag>
0

> <version>
0

> <s_m_source_file>
/data/baiqing/PycharmProjects/Reinvent-master-3.2/result/LINK_invent/BTK/process_docking_weight1_custom_product_contain_oxygen_bond_distance_aromatic_linkinvent_7_9_3/rearranged_h_0161.sdf

> <i_m_source_file_index>
49

> <r_mmod_Potential_Energy-OPLS-2005>
272.118530273438

> <r_mmod_Stretch_Energy-OPLS-2005>
46.9569053649902

> <r_mmod_Bend_Energy-OPLS-2005>
341.882720947266

> <r_mmod_Torsional_Energy-OPLS-2005>
279.343292236328

> <r_mmod_Improper_Torsional_Energy-OPLS-2005>
12.7706184387207

> <r_mmod_Van_der_Waal_Energy-OPLS-2005>
159.334182739258

> <r_mmod_Electrostatic_Energy-OPLS-2005>
-359.736389160156

> <r_mmod_Solvation_Energy-OPLS-2005>
-227.50764465332

> <b_mmod_Minimization_Converged-OPLS-2005>
0

> <r_mmod_RMS_Derivative-OPLS-2005>
4.54399824142456

$$$$
49
                    3D
 Structure written by MMmdl.
156164  0  0  1  0            999 V2000
  -30.6425  -14.5414   20.5570 C   0  0  0  0  0  0
  -30.4182  -12.3434   19.4379 C   0  0  0  0  0  0
  -29.4972  -12.5005   18.2103 C   0  0  0  0  0  0
  -28.0181  -12.3504   18.6167 C   0  0  0  0  0  0
  -27.6463  -13.2032   19.8576 C   0  0  2  0  0  0
  -28.6795  -13.0298   20.9902 C   0  0  0  0  0  0
  -25.2571  -13.8146   20.5695 C   0  0  0  0  0  0
  -24.1836  -13.0424   20.9209 C   0  0  0  0  0  0
  -24.6354  -11.6890   20.8687 C   0  0  0  0  0  0
  -23.9021  -10.4295   21.0400 C   0  0  0  0  0  0
  -24.3586   -9.4223   21.9185 C   0  0  0  0  0  0
  -23.6277   -8.2247   22.0739 C   0  0  0  0  0  0
  -22.4266   -8.0271   21.3517 C   0  0  0  0  0  0
  -21.9878   -9.0264   20.4635 C   0  0  0  0  0  0
  -22.7194  -10.2152   20.3069 C   0  0  0  0  0  0
  -21.6856   -6.0747   22.5276 C   0  0  0  0  0  0
  -21.4005   -6.5642   23.8212 C   0  0  0  0  0  0
  -21.3662   -5.6784   24.9167 C   0  0  0  0  0  0
  -21.6068   -4.3049   24.7220 C   0  0  0  0  0  0
  -21.8821   -3.8147   23.4333 C   0  0  0  0  0  0
  -21.9200   -4.6969   22.3392 C   0  0  0  0  0  0
  -22.7870  -13.5240   21.1867 C   0  0  0  0  0  0
  -22.1656   -4.2170   21.0970 F   0  0  0  0  0  0
  -21.5638   -3.4540   25.7729 F   0  0  0  0  0  0
  -30.0052  -13.3406   20.4373 N   0  0  0  0  0  0
  -26.2921  -12.9294   20.3225 N   0  0  0  0  0  0
  -25.9255  -11.6478   20.5653 N   0  0  0  0  0  0
  -22.0475  -12.8273   22.0431 N   0  0  0  0  0  0
  -25.4357  -15.1877   20.4155 N   0  0  0  0  0  0
  -31.7941  -14.7212   20.1484 O   0  0  0  0  0  0
  -21.6618   -6.8894   21.4233 O   0  0  0  0  0  0
  -22.3593  -14.5566   20.6706 O   0  0  0  0  0  0
  -24.6275  -31.8688   23.2124 C   0  0  0  0  0  0
  -25.9156  -32.4843   23.8421 C   0  0  1  0  0  0
  -27.1961  -27.3554   20.1069 C   0  0  0  0  0  0
  -25.5987  -33.8648   24.2371 N   0  0  0  0  0  0
  -23.4114  -30.5080   21.5554 C   0  0  2  0  0  0
  -24.8396  -28.9619   20.1207 C   0  0  0  0  0  0
  -22.7448  -29.4750   22.4970 C   0  0  0  0  0  0
  -18.0330  -28.1416   22.8549 C   0  0  0  0  0  0
  -24.1475  -36.7310   23.2624 C   0  0  0  0  0  0
  -25.9502  -30.8163   21.3656 C   0  0  0  0  0  0
  -26.0185  -29.4489   20.7002 C   0  0  0  0  0  0
  -27.2046  -28.6589   20.6746 C   0  0  0  0  0  0
  -25.9665  -26.8811   19.5892 C   0  0  0  0  0  0
  -24.8095  -27.6746   19.5696 C   0  0  0  0  0  0
  -23.6176  -29.8600   20.1647 C   0  0  0  0  0  0
  -25.4099  -36.3141   24.0327 C   0  0  1  0  0  0
  -20.5921  -28.3751   23.1303 C   0  0  2  0  0  0
  -20.6817  -26.9478   22.5424 C   0  0  0  0  0  0
  -19.5779  -26.6430   21.5237 C   0  0  0  0  0  0
  -18.1963  -26.7979   22.1665 C   0  0  0  0  0  0
  -19.1576  -28.8881   23.2928 C   0  0  0  0  0  0
  -18.9489  -30.1483   23.8913 C   0  0  0  0  0  0
  -17.6489  -30.6608   24.0583 C   0  0  0  0  0  0
  -25.9041  -34.9490   23.5118 C   0  0  0  0  0  0
  -16.5388  -29.9116   23.6330 C   0  0  0  0  0  0
  -16.7331  -28.6516   23.0373 C   0  0  0  0  0  0
  -26.4515  -31.6638   25.0771 C   0  0  0  0  0  0
  -25.3746  -31.3765   26.1492 C   0  0  0  0  0  0
  -27.0336  -30.3073   24.6172 C   0  0  0  0  0  0
  -27.6115  -32.4335   25.7553 C   0  0  0  0  0  0
  -27.5584  -37.1821   24.8472 C   0  0  0  0  0  0
  -21.4173  -29.3140   22.3690 N   0  0  0  0  0  0
  -26.4306  -37.3800   23.9403 N   0  0  0  0  0  0
  -24.6833  -31.0761   22.1051 N   0  0  0  0  0  0
  -23.4168  -28.8248   23.3005 O   0  0  0  0  0  0
  -28.3341  -26.5451   20.1096 O   0  0  0  0  0  0
  -26.5573  -34.8951   22.4667 O   0  0  0  0  0  0
  -23.5478  -32.1471   23.7514 O   0  0  0  0  0  0
  -29.3300  -19.4108   21.2104 C   0  0  0  0  0  0
  -29.5027  -18.1018   20.6081 C   0  0  0  0  0  0
  -28.9660  -18.0796   19.3391 C   0  0  0  0  0  0
  -28.7856  -20.3963   20.4000 C   0  0  0  0  0  0
  -28.3291  -24.1328   20.3963 C   0  0  0  0  0  0
  -28.2826  -25.2487   19.5892 C   0  0  0  0  0  0
  -28.1607  -22.7465   19.8769 C   0  0  0  0  0  0
  -28.8954  -16.9817   18.3273 C   0  0  0  0  0  0
  -28.1909  -25.2612   18.0600 C   0  0  0  0  0  0
  -30.2680  -16.9578   21.2966 C   0  0  0  0  0  0
  -28.6529  -21.7479   20.6730 N   0  0  0  0  0  0
  -29.8720  -15.5600   21.0144 N   0  0  0  0  0  0
  -27.5569  -22.4970   18.8324 O   0  0  0  0  0  0
  -28.5067  -24.3032   21.7158 O   0  0  0  0  0  0
  -28.3393  -19.6447   18.8795 S   0  0  0  0  0  0
  -31.4631  -12.4522   19.1483 H   0  0  0  0  0  0
  -30.3263  -11.3375   19.8506 H   0  0  0  0  0  0
  -29.7433  -11.7575   17.4515 H   0  0  0  0  0  0
  -29.6623  -13.4771   17.7481 H   0  0  0  0  0  0
  -27.8402  -11.2965   18.8353 H   0  0  0  0  0  0
  -27.3686  -12.5966   17.7781 H   0  0  0  0  0  0
  -27.6635  -14.2405   19.5334 H   0  0  0  0  0  0
  -28.6572  -12.0138   21.3788 H   0  0  0  0  0  0
  -28.4210  -13.6684   21.8350 H   0  0  0  0  0  0
  -25.2736   -9.5745   22.4753 H   0  0  0  0  0  0
  -24.0006   -7.4661   22.7468 H   0  0  0  0  0  0
  -21.0790   -8.8809   19.8952 H   0  0  0  0  0  0
  -22.3631  -10.9717   19.6188 H   0  0  0  0  0  0
  -21.1957   -7.6136   23.9743 H   0  0  0  0  0  0
  -21.1461   -6.0486   25.9083 H   0  0  0  0  0  0
  -22.0577   -2.7615   23.2814 H   0  0  0  0  0  0
  -22.4000  -11.9899   22.4863 H   0  0  0  0  0  0
  -21.1147  -13.1446   22.2687 H   0  0  0  0  0  0
  -24.6732  -15.8479   20.5272 H   0  0  0  0  0  0
  -26.2841  -15.6217   20.0779 H   0  0  0  0  0  0
  -26.7223  -32.5541   23.1184 H   0  0  0  0  0  0
  -25.0213  -33.9800   25.0582 H   0  0  0  0  0  0
  -22.7069  -31.3339   21.4337 H   0  0  0  0  0  0
  -23.3753  -35.9627   23.3306 H   0  0  0  0  0  0
  -24.3567  -36.8909   22.2039 H   0  0  0  0  0  0
  -23.7219  -37.6508   23.6626 H   0  0  0  0  0  0
  -26.0760  -31.5915   20.6054 H   0  0  0  0  0  0
  -26.8349  -30.8598   21.9913 H   0  0  0  0  0  0
  -28.1185  -29.0352   21.1127 H   0  0  0  0  0  0
  -25.8501  -25.8655   19.2461 H   0  0  0  0  0  0
  -23.8926  -27.2654   19.1686 H   0  0  0  0  0  0
  -23.7649  -30.6585   19.4349 H   0  0  0  0  0  0
  -22.7212  -29.3273   19.8405 H   0  0  0  0  0  0
  -25.1274  -36.1994   25.0815 H   0  0  0  0  0  0
  -21.0114  -28.3339   24.1358 H   0  0  0  0  0  0
  -20.5806  -26.2376   23.3639 H   0  0  0  0  0  0
  -21.6681  -26.7567   22.1182 H   0  0  0  0  0  0
  -19.6736  -27.3182   20.6719 H   0  0  0  0  0  0
  -19.6917  -25.6325   21.1314 H   0  0  0  0  0  0
  -17.4229  -26.6800   21.4064 H   0  0  0  0  0  0
  -18.0357  -26.0114   22.9050 H   0  0  0  0  0  0
  -19.7969  -30.7324   24.2243 H   0  0  0  0  0  0
  -17.5042  -31.6302   24.5197 H   0  0  0  0  0  0
  -15.5383  -30.3014   23.7578 H   0  0  0  0  0  0
  -15.8755  -28.0855   22.7018 H   0  0  0  0  0  0
  -24.5929  -30.7101   25.7817 H   0  0  0  0  0  0
  -24.8907  -32.2917   26.4913 H   0  0  0  0  0  0
  -25.8049  -30.8957   27.0276 H   0  0  0  0  0  0
  -26.2880  -29.6863   24.1180 H   0  0  0  0  0  0
  -27.4032  -29.7299   25.4649 H   0  0  0  0  0  0
  -27.8748  -30.4376   23.9362 H   0  0  0  0  0  0
  -27.2756  -33.3623   26.2159 H   0  0  0  0  0  0
  -28.3911  -32.6895   25.0380 H   0  0  0  0  0  0
  -28.0768  -31.8427   26.5441 H   0  0  0  0  0  0
  -28.2622  -38.0104   24.7511 H   0  0  0  0  0  0
  -28.1057  -36.2633   24.6305 H   0  0  0  0  0  0
  -27.2288  -37.1489   25.8874 H   0  0  0  0  0  0
  -20.9337  -29.8869   21.6912 H   0  0  0  0  0  0
  -26.0196  -38.2870   24.1426 H   0  0  0  0  0  0
  -29.6693  -19.5892   22.2222 H   0  0  0  0  0  0
  -29.8871  -16.6903   17.9847 H   0  0  0  0  0  0
  -28.3288  -17.2972   17.4510 H   0  0  0  0  0  0
  -28.3979  -16.1046   18.7277 H   0  0  0  0  0  0
  -28.5826  -26.1989   17.6584 H   0  0  0  0  0  0
  -27.1606  -25.1452   17.7220 H   0  0  0  0  0  0
  -28.7622  -24.4478   17.6108 H   0  0  0  0  0  0
  -30.1904  -17.0756   22.3779 H   0  0  0  0  0  0
  -31.3307  -17.0871   21.0878 H   0  0  0  0  0  0
  -29.0811  -22.0550   21.5348 H   0  0  0  0  0  0
  -28.9265  -15.3145   21.2656 H   0  0  0  0  0  0
  -28.4164  -23.4581   22.1362 H   0  0  0  0  0  0
  1 25  1  0  0  0
  1 30  2  0  0  0
  1 82  1  0  0  0
  2  3  1  0  0  0
  2 25  1  0  0  0
  2 86  1  0  0  0
  2 87  1  0  0  0
  3  4  1  0  0  0
  3 88  1  0  0  0
  3 89  1  0  0  0
  4  5  1  0  0  0
  4 90  1  0  0  0
  4 91  1  0  0  0
  5  6  1  0  0  0
  5 26  1  0  0  0
  5 92  1  0  0  0
  6 25  1  0  0  0
  6 93  1  0  0  0
  6 94  1  0  0  0
  7  8  2  0  0  0
  7 26  1  0  0  0
  7 29  1  0  0  0
  8  9  1  0  0  0
  8 22  1  0  0  0
  9 10  1  0  0  0
  9 27  2  0  0  0
 10 11  2  0  0  0
 10 15  1  0  0  0
 11 12  1  0  0  0
 11 95  1  0  0  0
 12 13  2  0  0  0
 12 96  1  0  0  0
 13 14  1  0  0  0
 13 31  1  0  0  0
 14 15  2  0  0  0
 14 97  1  0  0  0
 15 98  1  0  0  0
 16 17  2  0  0  0
 16 21  1  0  0  0
 16 31  1  0  0  0
 17 18  1  0  0  0
 17 99  1  0  0  0
 18 19  2  0  0  0
 18100  1  0  0  0
 19 20  1  0  0  0
 19 24  1  0  0  0
 20 21  2  0  0  0
 20101  1  0  0  0
 21 23  1  0  0  0
 22 28  1  0  0  0
 22 32  2  0  0  0
 26 27  1  0  0  0
 28102  1  0  0  0
 28103  1  0  0  0
 29104  1  0  0  0
 29105  1  0  0  0
 33 34  1  0  0  0
 33 66  1  0  0  0
 33 70  2  0  0  0
 34 36  1  0  0  0
 34 59  1  0  0  0
 34106  1  0  0  0
 35 44  2  0  0  0
 35 45  1  0  0  0
 35 68  1  0  0  0
 36 56  1  0  0  0
 36107  1  0  0  0
 37 39  1  0  0  0
 37 47  1  0  0  0
 37 66  1  0  0  0
 37108  1  0  0  0
 38 43  2  0  0  0
 38 46  1  0  0  0
 38 47  1  0  0  0
 39 64  1  0  0  0
 39 67  2  0  0  0
 40 52  1  0  0  0
 40 53  2  0  0  0
 40 58  1  0  0  0
 41109  1  0  0  0
 41110  1  0  0  0
 41111  1  0  0  0
 41 48  1  0  0  0
 42 43  1  0  0  0
 42 66  1  0  0  0
 42112  1  0  0  0
 42113  1  0  0  0
 43 44  1  0  0  0
 44114  1  0  0  0
 45 46  2  0  0  0
 45115  1  0  0  0
 46116  1  0  0  0
 47117  1  0  0  0
 47118  1  0  0  0
 48 56  1  0  0  0
 48 65  1  0  0  0
 48119  1  0  0  0
 49 50  1  0  0  0
 49 53  1  0  0  0
 49 64  1  0  0  0
 49120  1  0  0  0
 50 51  1  0  0  0
 50121  1  0  0  0
 50122  1  0  0  0
 51 52  1  0  0  0
 51123  1  0  0  0
 51124  1  0  0  0
 52125  1  0  0  0
 52126  1  0  0  0
 53 54  1  0  0  0
 54 55  2  0  0  0
 54127  1  0  0  0
 55 57  1  0  0  0
 55128  1  0  0  0
 56 69  2  0  0  0
 57 58  2  0  0  0
 57129  1  0  0  0
 58130  1  0  0  0
 59 60  1  0  0  0
 59 61  1  0  0  0
 59 62  1  0  0  0
 60131  1  0  0  0
 60132  1  0  0  0
 60133  1  0  0  0
 61134  1  0  0  0
 61135  1  0  0  0
 61136  1  0  0  0
 62137  1  0  0  0
 62138  1  0  0  0
 62139  1  0  0  0
 63 65  1  0  0  0
 63140  1  0  0  0
 63141  1  0  0  0
 63142  1  0  0  0
 64143  1  0  0  0
 65144  1  0  0  0
 68 76  1  0  0  0
 71 72  1  0  0  0
 71 74  2  0  0  0
 71145  1  0  0  0
 72 73  2  0  0  0
 72 80  1  0  0  0
 73 78  1  0  0  0
 73 85  1  0  0  0
 74 81  1  0  0  0
 74 85  1  0  0  0
 75 76  2  0  0  0
 75 77  1  0  0  0
 75 84  1  0  0  0
 76 79  1  0  0  0
 77 81  1  0  0  0
 77 83  2  0  0  0
 78146  1  0  0  0
 78147  1  0  0  0
 78148  1  0  0  0
 79149  1  0  0  0
 79150  1  0  0  0
 79151  1  0  0  0
 80 82  1  0  0  0
 80152  1  0  0  0
 80153  1  0  0  0
 81154  1  0  0  0
 82155  1  0  0  0
 84156  1  0  0  0
M  ISO  4   1 100  68 101  76 101  82 100
M  END
> <chiral flag>
0

> <version>
0

> <s_m_source_file>
/data/baiqing/PycharmProjects/Reinvent-master-3.2/result/LINK_invent/BTK/process_docking_weight1_custom_product_contain_oxygen_bond_distance_aromatic_linkinvent_7_9_3/rearranged_h_0161.sdf

> <i_m_source_file_index>
50

> <r_mmod_Potential_Energy-OPLS-2005>
-94.1128540039062

> <r_mmod_Stretch_Energy-OPLS-2005>
55.576057434082

> <r_mmod_Bend_Energy-OPLS-2005>
117.825988769531

> <r_mmod_Torsional_Energy-OPLS-2005>
214.528137207031

> <r_mmod_Improper_Torsional_Energy-OPLS-2005>
4.62414026260376

> <r_mmod_Van_der_Waal_Energy-OPLS-2005>
144.9287109375

> <r_mmod_Electrostatic_Energy-OPLS-2005>
-420.168212890625

> <r_mmod_Solvation_Energy-OPLS-2005>
-242.957733154297

> <b_mmod_Minimization_Converged-OPLS-2005>
0

> <r_mmod_RMS_Derivative-OPLS-2005>
6.8105297088623

$$$$
50
                    3D
 Structure written by MMmdl.
171180  0  0  1  0            999 V2000
  -30.7016  -14.5315   20.5881 C   0  0  0  0  0  0
  -30.4188  -12.3554   19.4191 C   0  0  0  0  0  0
  -29.5010  -12.5415   18.1952 C   0  0  0  0  0  0
  -28.0116  -12.4157   18.5857 C   0  0  0  0  0  0
  -27.6496  -13.2348   19.8565 C   0  0  2  0  0  0
  -28.6936  -13.0333   20.9770 C   0  0  0  0  0  0
  -25.2515  -13.8219   20.5667 C   0  0  0  0  0  0
  -24.1829  -13.0436   20.9168 C   0  0  0  0  0  0
  -24.6437  -11.6913   20.8678 C   0  0  0  0  0  0
  -23.9120  -10.4287   21.0344 C   0  0  0  0  0  0
  -24.3669   -9.4208   21.9119 C   0  0  0  0  0  0
  -23.6340   -8.2249   22.0706 C   0  0  0  0  0  0
  -22.4308   -8.0277   21.3520 C   0  0  0  0  0  0
  -21.9951   -9.0238   20.4613 C   0  0  0  0  0  0
  -22.7292  -10.2108   20.2988 C   0  0  0  0  0  0
  -21.6865   -6.0734   22.5277 C   0  0  0  0  0  0
  -21.4017   -6.5637   23.8214 C   0  0  0  0  0  0
  -21.3674   -5.6793   24.9181 C   0  0  0  0  0  0
  -21.6056   -4.3057   24.7238 C   0  0  0  0  0  0
  -21.8828   -3.8136   23.4366 C   0  0  0  0  0  0
  -21.9200   -4.6952   22.3406 C   0  0  0  0  0  0
  -22.7841  -13.5152   21.1861 C   0  0  0  0  0  0
  -22.1661   -4.2143   21.0985 F   0  0  0  0  0  0
  -21.5631   -3.4536   25.7757 F   0  0  0  0  0  0
  -30.0205  -13.3559   20.4266 N   0  0  0  0  0  0
  -26.2968  -12.9455   20.3247 N   0  0  0  0  0  0
  -25.9366  -11.6585   20.5658 N   0  0  0  0  0  0
  -22.0510  -12.8134   22.0423 N   0  0  0  0  0  0
  -25.4200  -15.1952   20.4119 N   0  0  0  0  0  0
  -31.8508  -14.6781   20.1582 O   0  0  0  0  0  0
  -21.6665   -6.8872   21.4233 O   0  0  0  0  0  0
  -22.3504  -14.5420   20.6660 O   0  0  0  0  0  0
  -24.6175  -31.8645   23.2038 C   0  0  0  0  0  0
  -25.9056  -32.4804   23.8365 C   0  0  1  0  0  0
  -27.2432  -27.3831   20.1176 C   0  0  0  0  0  0
  -25.5837  -33.8588   24.2295 N   0  0  0  0  0  0
  -23.4134  -30.4888   21.5393 C   0  0  2  0  0  0
  -24.8629  -28.9451   20.1165 C   0  0  0  0  0  0
  -22.7451  -29.4657   22.4889 C   0  0  0  0  0  0
  -18.0274  -28.1428   22.8492 C   0  0  0  0  0  0
  -24.1478  -36.7321   23.2647 C   0  0  0  0  0  0
  -25.9476  -30.8150   21.3699 C   0  0  0  0  0  0
  -26.0224  -29.4425   20.7230 C   0  0  0  0  0  0
  -27.2078  -28.6677   20.7218 C   0  0  0  0  0  0
  -26.0591  -26.9128   19.5015 C   0  0  0  0  0  0
  -24.8763  -27.6804   19.5033 C   0  0  0  0  0  0
  -23.6324  -29.8210   20.1554 C   0  0  0  0  0  0
  -25.4104  -36.3112   24.0352 C   0  0  1  0  0  0
  -20.5874  -28.3757   23.1267 C   0  0  2  0  0  0
  -20.6760  -26.9466   22.5440 C   0  0  0  0  0  0
  -19.5730  -26.6414   21.5245 C   0  0  0  0  0  0
  -18.1911  -26.7967   22.1645 C   0  0  0  0  0  0
  -19.1530  -28.8901   23.2878 C   0  0  0  0  0  0
  -18.9455  -30.1481   23.8929 C   0  0  0  0  0  0
  -17.6461  -30.6616   24.0607 C   0  0  0  0  0  0
  -25.9034  -34.9473   23.5139 C   0  0  0  0  0  0
  -16.5348  -29.9158   23.6304 C   0  0  0  0  0  0
  -16.7261  -28.6565   23.0335 C   0  0  0  0  0  0
  -26.4465  -31.6592   25.0712 C   0  0  0  0  0  0
  -25.3684  -31.3753   26.1417 C   0  0  0  0  0  0
  -27.0307  -30.2987   24.6181 C   0  0  0  0  0  0
  -27.5996  -32.4343   25.7510 C   0  0  0  0  0  0
  -27.5603  -37.1811   24.8460 C   0  0  0  0  0  0
  -21.4167  -29.3091   22.3635 N   0  0  0  0  0  0
  -26.4299  -37.3798   23.9426 N   0  0  0  0  0  0
  -24.6775  -31.0735   22.0954 N   0  0  0  0  0  0
  -23.4179  -28.8201   23.2978 O   0  0  0  0  0  0
  -28.4223  -26.6422   20.1663 O   0  0  0  0  0  0
  -26.5630  -34.8932   22.4736 O   0  0  0  0  0  0
  -23.5347  -32.1427   23.7379 O   0  0  0  0  0  0
  -31.5481  -17.0834   22.2338 C   0  0  0  0  0  0
  -31.1460  -19.4731   22.2634 C   0  0  0  0  0  0
  -31.9180  -18.3704   22.6876 C   0  0  0  0  0  0
  -30.4109  -16.9152   21.4071 C   0  0  0  0  0  0
  -30.0384  -19.2678   21.4230 C   0  0  0  0  0  0
  -28.8139  -22.7902   20.3200 C   0  0  0  0  0  0
  -35.2351  -17.9044   24.8022 C   0  0  0  0  0  0
  -34.6004  -18.2703   26.1549 C   0  0  0  0  0  0
  -34.1518  -17.5228   23.7712 C   0  0  0  0  0  0
  -33.5075  -19.3413   25.9894 C   0  0  0  0  0  0
  -33.0661  -18.6259   23.6722 C   0  0  2  0  0  0
  -29.1771  -25.3172   18.4328 C   0  0  0  0  0  0
  -29.5953  -21.7769   21.2054 C   0  0  0  0  0  0
  -28.8820  -24.3262   20.6355 C   0  0  0  0  0  0
  -29.6768  -18.0130   21.0361 N   0  0  0  0  0  0
  -29.9829  -15.5805   21.0722 N   0  0  0  0  0  0
  -29.2661  -20.3510   20.9458 N   0  0  0  0  0  0
  -28.3359  -25.2748   19.6245 N   0  0  0  0  0  0
  -32.4973  -18.9012   25.0064 N   0  3  0  0  0  0
  -28.1249  -22.3619   19.3857 O   0  0  0  0  0  0
  -31.4628  -12.4573   19.1219 H   0  0  0  0  0  0
  -30.3135  -11.3484   19.8255 H   0  0  0  0  0  0
  -29.7564  -11.8158   17.4228 H   0  0  0  0  0  0
  -29.6888  -13.5248   17.7589 H   0  0  0  0  0  0
  -27.7871  -11.3598   18.7351 H   0  0  0  0  0  0
  -27.3904  -12.7392   17.7491 H   0  0  0  0  0  0
  -27.6776  -14.2861   19.5671 H   0  0  0  0  0  0
  -28.6807  -11.9971   21.3159 H   0  0  0  0  0  0
  -28.4465  -13.6375   21.8500 H   0  0  0  0  0  0
  -25.2832   -9.5685   22.4685 H   0  0  0  0  0  0
  -24.0061   -7.4648   22.7415 H   0  0  0  0  0  0
  -21.0882   -8.8741   19.8939 H   0  0  0  0  0  0
  -22.3737  -10.9617   19.6075 H   0  0  0  0  0  0
  -21.1991   -7.6147   23.9713 H   0  0  0  0  0  0
  -21.1488   -6.0523   25.9089 H   0  0  0  0  0  0
  -22.0591   -2.7598   23.2873 H   0  0  0  0  0  0
  -22.4209  -11.9891   22.4924 H   0  0  0  0  0  0
  -21.1037  -13.0990   22.2456 H   0  0  0  0  0  0
  -24.6550  -15.8469   20.5406 H   0  0  0  0  0  0
  -26.2685  -15.6404   20.0873 H   0  0  0  0  0  0
  -26.7141  -32.5519   23.1138 H   0  0  0  0  0  0
  -24.9822  -33.9751   25.0315 H   0  0  0  0  0  0
  -22.7037  -31.3041   21.3868 H   0  0  0  0  0  0
  -23.3741  -35.9650   23.3295 H   0  0  0  0  0  0
  -24.3557  -36.8957   22.2061 H   0  0  0  0  0  0
  -23.7224  -37.6520   23.6674 H   0  0  0  0  0  0
  -26.0640  -31.5720   20.5933 H   0  0  0  0  0  0
  -26.8340  -30.8709   21.9906 H   0  0  0  0  0  0
  -28.0967  -29.0446   21.2068 H   0  0  0  0  0  0
  -26.0266  -25.9463   19.0216 H   0  0  0  0  0  0
  -23.9858  -27.2868   19.0302 H   0  0  0  0  0  0
  -23.7638  -30.5906   19.3941 H   0  0  0  0  0  0
  -22.7601  -29.2437   19.8464 H   0  0  0  0  0  0
  -25.1277  -36.1985   25.0846 H   0  0  0  0  0  0
  -20.9958  -28.3386   24.1387 H   0  0  0  0  0  0
  -20.5636  -26.2407   23.3682 H   0  0  0  0  0  0
  -21.6633  -26.7475   22.1248 H   0  0  0  0  0  0
  -19.6887  -25.6319   21.1294 H   0  0  0  0  0  0
  -19.6665  -27.3217   20.6769 H   0  0  0  0  0  0
  -17.4187  -26.6719   21.4051 H   0  0  0  0  0  0
  -18.0272  -26.0135   22.9048 H   0  0  0  0  0  0
  -19.7935  -30.7280   24.2328 H   0  0  0  0  0  0
  -17.5026  -31.6280   24.5240 H   0  0  0  0  0  0
  -15.5346  -30.3101   23.7586 H   0  0  0  0  0  0
  -15.8647  -28.0905   22.7033 H   0  0  0  0  0  0
  -24.5790  -30.7206   25.7721 H   0  0  0  0  0  0
  -24.8962  -32.2948   26.4866 H   0  0  0  0  0  0
  -25.7933  -30.8859   27.0178 H   0  0  0  0  0  0
  -26.2904  -29.6740   24.1147 H   0  0  0  0  0  0
  -27.3918  -29.7225   25.4721 H   0  0  0  0  0  0
  -27.8815  -30.4234   23.9465 H   0  0  0  0  0  0
  -27.2518  -33.3585   26.2130 H   0  0  0  0  0  0
  -28.3769  -32.6997   25.0340 H   0  0  0  0  0  0
  -28.0695  -31.8456   26.5397 H   0  0  0  0  0  0
  -28.2579  -38.0145   24.7508 H   0  0  0  0  0  0
  -28.1129  -36.2660   24.6248 H   0  0  0  0  0  0
  -27.2317  -37.1416   25.8862 H   0  0  0  0  0  0
  -20.9331  -29.8845   21.6873 H   0  0  0  0  0  0
  -26.0188  -38.2883   24.1410 H   0  0  0  0  0  0
  -32.1180  -16.2179   22.5367 H   0  0  0  0  0  0
  -31.4185  -20.4669   22.5899 H   0  0  0  0  0  0
  -35.9445  -17.0858   24.9294 H   0  0  0  0  0  0
  -35.8179  -18.7483   24.4313 H   0  0  0  0  0  0
  -35.3652  -18.6177   26.8514 H   0  0  0  0  0  0
  -34.1682  -17.3778   26.6098 H   0  0  0  0  0  0
  -33.7162  -16.5674   24.0612 H   0  0  0  0  0  0
  -34.6171  -17.3643   22.7973 H   0  0  0  0  0  0
  -33.9489  -20.2846   25.6667 H   0  0  0  0  0  0
  -33.0214  -19.5413   26.9454 H   0  0  0  0  0  0
  -33.5669  -19.5369   23.3390 H   0  0  0  0  0  0
  -28.7869  -26.0372   17.7121 H   0  0  0  0  0  0
  -29.2248  -24.3476   17.9367 H   0  0  0  0  0  0
  -30.1957  -25.6220   18.6798 H   0  0  0  0  0  0
  -29.4145  -22.0133   22.2566 H   0  0  0  0  0  0
  -30.6596  -21.9323   21.0239 H   0  0  0  0  0  0
  -29.9174  -24.5816   20.8574 H   0  0  0  0  0  0
  -28.3310  -24.4790   21.5640 H   0  0  0  0  0  0
  -28.9935  -15.4139   21.1500 H   0  0  0  0  0  0
  -28.5016  -20.1800   20.3021 H   0  0  0  0  0  0
  -31.7972  -19.6173   24.9115 H   0  0  0  0  0  0
  -32.0390  -18.0727   25.3437 H   0  0  0  0  0  0
  1 25  1  0  0  0
  1 30  2  0  0  0
  1 86  1  0  0  0
  2  3  1  0  0  0
  2 25  1  0  0  0
  2 91  1  0  0  0
  2 92  1  0  0  0
  3  4  1  0  0  0
  3 93  1  0  0  0
  3 94  1  0  0  0
  4  5  1  0  0  0
  4 95  1  0  0  0
  4 96  1  0  0  0
  5  6  1  0  0  0
  5 26  1  0  0  0
  5 97  1  0  0  0
  6 25  1  0  0  0
  6 98  1  0  0  0
  6 99  1  0  0  0
  7  8  2  0  0  0
  7 26  1  0  0  0
  7 29  1  0  0  0
  8  9  1  0  0  0
  8 22  1  0  0  0
  9 10  1  0  0  0
  9 27  2  0  0  0
 10 11  2  0  0  0
 10 15  1  0  0  0
 11 12  1  0  0  0
 11100  1  0  0  0
 12 13  2  0  0  0
 12101  1  0  0  0
 13 14  1  0  0  0
 13 31  1  0  0  0
 14 15  2  0  0  0
 14102  1  0  0  0
 15103  1  0  0  0
 16 17  2  0  0  0
 16 21  1  0  0  0
 16 31  1  0  0  0
 17 18  1  0  0  0
 17104  1  0  0  0
 18 19  2  0  0  0
 18105  1  0  0  0
 19 20  1  0  0  0
 19 24  1  0  0  0
 20 21  2  0  0  0
 20106  1  0  0  0
 21 23  1  0  0  0
 22 28  1  0  0  0
 22 32  2  0  0  0
 26 27  1  0  0  0
 28107  1  0  0  0
 28108  1  0  0  0
 29109  1  0  0  0
 29110  1  0  0  0
 33 34  1  0  0  0
 33 66  1  0  0  0
 33 70  2  0  0  0
 34 36  1  0  0  0
 34 59  1  0  0  0
 34111  1  0  0  0
 35 44  2  0  0  0
 35 45  1  0  0  0
 35 68  1  0  0  0
 36 56  1  0  0  0
 36112  1  0  0  0
 37 39  1  0  0  0
 37 47  1  0  0  0
 37 66  1  0  0  0
 37113  1  0  0  0
 38 43  2  0  0  0
 38 46  1  0  0  0
 38 47  1  0  0  0
 39 64  1  0  0  0
 39 67  2  0  0  0
 40 52  1  0  0  0
 40 53  2  0  0  0
 40 58  1  0  0  0
 41114  1  0  0  0
 41115  1  0  0  0
 41116  1  0  0  0
 41 48  1  0  0  0
 42 43  1  0  0  0
 42 66  1  0  0  0
 42117  1  0  0  0
 42118  1  0  0  0
 43 44  1  0  0  0
 44119  1  0  0  0
 45 46  2  0  0  0
 45120  1  0  0  0
 46121  1  0  0  0
 47122  1  0  0  0
 47123  1  0  0  0
 48 56  1  0  0  0
 48 65  1  0  0  0
 48124  1  0  0  0
 49 50  1  0  0  0
 49 53  1  0  0  0
 49 64  1  0  0  0
 49125  1  0  0  0
 50 51  1  0  0  0
 50126  1  0  0  0
 50127  1  0  0  0
 51 52  1  0  0  0
 51128  1  0  0  0
 51129  1  0  0  0
 52130  1  0  0  0
 52131  1  0  0  0
 53 54  1  0  0  0
 54 55  2  0  0  0
 54132  1  0  0  0
 55 57  1  0  0  0
 55133  1  0  0  0
 56 69  2  0  0  0
 57 58  2  0  0  0
 57134  1  0  0  0
 58135  1  0  0  0
 59 60  1  0  0  0
 59 61  1  0  0  0
 59 62  1  0  0  0
 60136  1  0  0  0
 60137  1  0  0  0
 60138  1  0  0  0
 61139  1  0  0  0
 61140  1  0  0  0
 61141  1  0  0  0
 62142  1  0  0  0
 62143  1  0  0  0
 62144  1  0  0  0
 63 65  1  0  0  0
 63145  1  0  0  0
 63146  1  0  0  0
 63147  1  0  0  0
 64148  1  0  0  0
 65149  1  0  0  0
 68 88  1  0  0  0
 71 73  2  0  0  0
 71 74  1  0  0  0
 71150  1  0  0  0
 72 73  1  0  0  0
 72 75  2  0  0  0
 72151  1  0  0  0
 73 81  1  0  0  0
 74 85  2  0  0  0
 74 86  1  0  0  0
 75 85  1  0  0  0
 75 87  1  0  0  0
 76 83  1  0  0  0
 76 84  1  0  0  0
 76 90  2  0  0  0
 77 78  1  0  0  0
 77 79  1  0  0  0
 77152  1  0  0  0
 77153  1  0  0  0
 78 80  1  0  0  0
 78154  1  0  0  0
 78155  1  0  0  0
 79 81  1  0  0  0
 79156  1  0  0  0
 79157  1  0  0  0
 80 89  1  0  0  0
 80158  1  0  0  0
 80159  1  0  0  0
 81 89  1  0  0  0
 81160  1  0  0  0
 82 88  1  0  0  0
 82161  1  0  0  0
 82162  1  0  0  0
 82163  1  0  0  0
 83 87  1  0  0  0
 83164  1  0  0  0
 83165  1  0  0  0
 84 88  1  0  0  0
 84166  1  0  0  0
 84167  1  0  0  0
 86168  1  0  0  0
 87169  1  0  0  0
 89170  1  0  0  0
 89171  1  0  0  0
M  CHG  1  89   1
M  ISO  4   1 100  68 101  86 100  88 101
M  END
> <chiral flag>
0

> <version>
0

> <s_m_source_file>
/data/baiqing/PycharmProjects/Reinvent-master-3.2/result/LINK_invent/BTK/process_docking_weight1_custom_product_contain_oxygen_bond_distance_aromatic_linkinvent_7_9_3/rearranged_h_0161.sdf

> <i_m_source_file_index>
51

> <r_mmod_Potential_Energy-OPLS-2005>
-479.893341064453

> <r_mmod_Stretch_Energy-OPLS-2005>
56.6316184997559

> <r_mmod_Bend_Energy-OPLS-2005>
128.919830322266

> <r_mmod_Torsional_Energy-OPLS-2005>
233.946640014648

> <r_mmod_Improper_Torsional_Energy-OPLS-2005>
4.46529626846313

> <r_mmod_Van_der_Waal_Energy-OPLS-2005>
159.258499145508

> <r_mmod_Electrostatic_Energy-OPLS-2005>
-563.988891601562

> <r_mmod_Solvation_Energy-OPLS-2005>
-522.519165039062

> <b_mmod_Minimization_Converged-OPLS-2005>
0

> <r_mmod_RMS_Derivative-OPLS-2005>
5.65277147293091

$$$$
51
                    3D
 Structure written by MMmdl.
152160  0  0  1  0            999 V2000
  -30.7148  -14.4255   20.6117 C   0  0  0  0  0  0
  -30.4210  -12.2925   19.4094 C   0  0  0  0  0  0
  -29.4874  -12.5055   18.2000 C   0  0  0  0  0  0
  -28.0101  -12.3674   18.6156 C   0  0  0  0  0  0
  -27.6636  -13.2004   19.8778 C   0  0  2  0  0  0
  -28.7026  -12.9550   20.9950 C   0  0  0  0  0  0
  -25.2602  -13.8155   20.5676 C   0  0  0  0  0  0
  -24.1844  -13.0439   20.9176 C   0  0  0  0  0  0
  -24.6388  -11.6900   20.8737 C   0  0  0  0  0  0
  -23.9053  -10.4289   21.0408 C   0  0  0  0  0  0
  -24.3609   -9.4203   21.9185 C   0  0  0  0  0  0
  -23.6290   -8.2237   22.0752 C   0  0  0  0  0  0
  -22.4272   -8.0279   21.3544 C   0  0  0  0  0  0
  -21.9904   -9.0252   20.4646 C   0  0  0  0  0  0
  -22.7229  -10.2131   20.3057 C   0  0  0  0  0  0
  -21.6854   -6.0733   22.5279 C   0  0  0  0  0  0
  -21.4011   -6.5636   23.8210 C   0  0  0  0  0  0
  -21.3657   -5.6793   24.9177 C   0  0  0  0  0  0
  -21.6044   -4.3055   24.7228 C   0  0  0  0  0  0
  -21.8822   -3.8145   23.4350 C   0  0  0  0  0  0
  -21.9193   -4.6962   22.3407 C   0  0  0  0  0  0
  -22.7868  -13.5244   21.1847 C   0  0  0  0  0  0
  -22.1665   -4.2144   21.0983 F   0  0  0  0  0  0
  -21.5628   -3.4541   25.7743 F   0  0  0  0  0  0
  -30.0389  -13.2575   20.4513 N   0  0  0  0  0  0
  -26.3030  -12.9310   20.3378 N   0  0  0  0  0  0
  -25.9310  -11.6475   20.5771 N   0  0  0  0  0  0
  -22.0514  -12.8229   22.0404 N   0  0  0  0  0  0
  -25.4358  -15.1868   20.4077 N   0  0  0  0  0  0
  -31.8146  -14.6381   20.0903 O   0  0  0  0  0  0
  -21.6639   -6.8873   21.4240 O   0  0  0  0  0  0
  -22.3551  -14.5556   20.6710 O   0  0  0  0  0  0
  -24.6105  -31.8701   23.2114 C   0  0  0  0  0  0
  -25.9014  -32.4828   23.8401 C   0  0  1  0  0  0
  -27.2370  -27.4637   20.0969 C   0  0  0  0  0  0
  -25.5894  -33.8622   24.2340 N   0  0  0  0  0  0
  -23.3977  -30.4918   21.5493 C   0  0  2  0  0  0
  -24.8470  -28.9570   20.1177 C   0  0  0  0  0  0
  -22.7393  -29.4660   22.4992 C   0  0  0  0  0  0
  -18.0271  -28.1379   22.8491 C   0  0  0  0  0  0
  -24.1491  -36.7317   23.2639 C   0  0  0  0  0  0
  -25.9214  -30.8436   21.3604 C   0  0  0  0  0  0
  -26.0016  -29.4762   20.7176 C   0  0  0  0  0  0
  -27.2004  -28.7315   20.7147 C   0  0  0  0  0  0
  -26.0744  -26.9520   19.4897 C   0  0  0  0  0  0
  -24.8755  -27.6908   19.5047 C   0  0  0  0  0  0
  -23.6072  -29.8204   20.1646 C   0  0  0  0  0  0
  -25.4107  -36.3107   24.0346 C   0  0  1  0  0  0
  -20.5857  -28.3649   23.1335 C   0  0  2  0  0  0
  -20.6757  -26.9391   22.5418 C   0  0  0  0  0  0
  -19.5740  -26.6383   21.5214 C   0  0  0  0  0  0
  -18.1916  -26.7922   22.1620 C   0  0  0  0  0  0
  -19.1522  -28.8829   23.2907 C   0  0  0  0  0  0
  -18.9451  -30.1433   23.8920 C   0  0  0  0  0  0
  -17.6460  -30.6580   24.0563 C   0  0  0  0  0  0
  -25.9036  -34.9474   23.5138 C   0  0  0  0  0  0
  -16.5349  -29.9084   23.6328 C   0  0  0  0  0  0
  -16.7262  -28.6503   23.0342 C   0  0  0  0  0  0
  -26.4458  -31.6591   25.0705 C   0  0  0  0  0  0
  -25.3749  -31.3698   26.1474 C   0  0  0  0  0  0
  -27.0278  -30.3044   24.6031 C   0  0  0  0  0  0
  -27.6043  -32.4297   25.7466 C   0  0  0  0  0  0
  -27.5580  -37.1803   24.8465 C   0  0  0  0  0  0
  -21.4123  -29.3019   22.3738 N   0  0  0  0  0  0
  -26.4292  -37.3788   23.9417 N   0  0  0  0  0  0
  -24.6607  -31.0834   22.0995 N   0  0  0  0  0  0
  -23.4178  -28.8211   23.3031 O   0  0  0  0  0  0
  -28.3934  -26.7292   20.0478 O   0  0  0  0  0  0
  -26.5583  -34.8924   22.4685 O   0  0  0  0  0  0
  -23.5305  -32.1432   23.7534 O   0  0  0  0  0  0
  -31.4541  -17.4374   20.9917 C   0  0  0  0  0  0
  -30.3499  -16.6969   21.3502 C   0  0  0  0  0  0
  -29.9361  -18.8043   21.6962 C   0  0  0  0  0  0
  -28.5543  -24.5597   21.1559 C   0  0  0  0  0  0
  -29.4855  -21.2506   21.8795 C   0  0  0  0  0  0
  -28.8986  -23.7268   22.3968 C   0  0  0  0  0  0
  -28.7261  -26.0822   21.2780 C   0  0  0  0  0  0
  -28.4190  -22.2515   22.3456 C   0  0  0  0  0  0
  -31.1810  -18.7812   21.2169 N   0  0  0  0  0  0
  -30.0560  -15.3709   21.3058 N   0  0  0  0  0  0
  -29.1846  -19.9508   22.0520 N   0  0  0  0  0  0
  -28.1728  -24.0301   20.1068 O   0  0  0  0  0  0
  -30.5360  -21.6637   21.3792 O   0  0  0  0  0  0
  -29.3883  -17.5616   21.8192 O   0  0  0  0  0  0
  -31.4640  -12.3954   19.1033 H   0  0  0  0  0  0
  -30.3247  -11.2751   19.7919 H   0  0  0  0  0  0
  -29.7195  -11.7847   17.4148 H   0  0  0  0  0  0
  -29.6574  -13.4930   17.7683 H   0  0  0  0  0  0
  -27.8179  -11.3113   18.8072 H   0  0  0  0  0  0
  -27.3565  -12.6481   17.7889 H   0  0  0  0  0  0
  -27.7165  -14.2514   19.5933 H   0  0  0  0  0  0
  -28.6717  -11.9121   21.3144 H   0  0  0  0  0  0
  -28.4577  -13.5317   21.8880 H   0  0  0  0  0  0
  -25.2758   -9.5678   22.4759 H   0  0  0  0  0  0
  -24.0005   -7.4623   22.7463 H   0  0  0  0  0  0
  -21.0840   -8.8767   19.8948 H   0  0  0  0  0  0
  -22.3694  -10.9670   19.6164 H   0  0  0  0  0  0
  -21.2002   -7.6146   23.9713 H   0  0  0  0  0  0
  -21.1476   -6.0524   25.9077 H   0  0  0  0  0  0
  -22.0603   -2.7608   23.2856 H   0  0  0  0  0  0
  -22.4134  -11.9880   22.4774 H   0  0  0  0  0  0
  -21.1134  -13.1244   22.2625 H   0  0  0  0  0  0
  -24.6736  -15.8481   20.5111 H   0  0  0  0  0  0
  -26.2946  -15.6196   20.0911 H   0  0  0  0  0  0
  -26.7082  -32.5574   23.1177 H   0  0  0  0  0  0
  -25.0057  -33.9787   25.0488 H   0  0  0  0  0  0
  -22.6845  -31.3063   21.4086 H   0  0  0  0  0  0
  -23.3743  -35.9658   23.3310 H   0  0  0  0  0  0
  -24.3598  -36.8914   22.2054 H   0  0  0  0  0  0
  -23.7256  -37.6531   23.6640 H   0  0  0  0  0  0
  -26.0240  -31.6059   20.5867 H   0  0  0  0  0  0
  -26.8135  -30.9053   21.9725 H   0  0  0  0  0  0
  -28.0944  -29.1308   21.1720 H   0  0  0  0  0  0
  -26.0997  -25.9834   19.0098 H   0  0  0  0  0  0
  -23.9877  -27.2855   19.0393 H   0  0  0  0  0  0
  -23.7118  -30.5929   19.4016 H   0  0  0  0  0  0
  -22.7331  -29.2356   19.8708 H   0  0  0  0  0  0
  -25.1278  -36.1967   25.0840 H   0  0  0  0  0  0
  -20.9945  -28.3202   24.1462 H   0  0  0  0  0  0
  -20.5668  -26.2250   23.3591 H   0  0  0  0  0  0
  -21.6626  -26.7436   22.1212 H   0  0  0  0  0  0
  -19.6906  -25.6306   21.1219 H   0  0  0  0  0  0
  -19.6697  -27.3208   20.6758 H   0  0  0  0  0  0
  -17.4188  -26.6675   21.4020 H   0  0  0  0  0  0
  -18.0316  -26.0061   22.9014 H   0  0  0  0  0  0
  -19.7932  -30.7226   24.2302 H   0  0  0  0  0  0
  -17.5024  -31.6271   24.5140 H   0  0  0  0  0  0
  -15.5350  -30.2991   23.7651 H   0  0  0  0  0  0
  -15.8661  -28.0833   22.7046 H   0  0  0  0  0  0
  -24.5901  -30.7065   25.7821 H   0  0  0  0  0  0
  -24.8974  -32.2862   26.4949 H   0  0  0  0  0  0
  -25.8123  -30.8845   27.0209 H   0  0  0  0  0  0
  -26.2791  -29.6821   24.1112 H   0  0  0  0  0  0
  -27.4105  -29.7256   25.4445 H   0  0  0  0  0  0
  -27.8602  -30.4386   23.9120 H   0  0  0  0  0  0
  -27.2657  -33.3576   26.2083 H   0  0  0  0  0  0
  -28.3833  -32.6885   25.0283 H   0  0  0  0  0  0
  -28.0725  -31.8396   26.5354 H   0  0  0  0  0  0
  -28.2581  -38.0110   24.7505 H   0  0  0  0  0  0
  -28.1084  -36.2641   24.6279 H   0  0  0  0  0  0
  -27.2305  -37.1439   25.8866 H   0  0  0  0  0  0
  -20.9267  -29.8746   21.6979 H   0  0  0  0  0  0
  -26.0185  -38.2863   24.1420 H   0  0  0  0  0  0
  -32.4027  -17.1166   20.5827 H   0  0  0  0  0  0
  -28.4265  -24.2182   23.2480 H   0  0  0  0  0  0
  -29.9714  -23.7883   22.5793 H   0  0  0  0  0  0
  -29.7642  -26.3031   21.5262 H   0  0  0  0  0  0
  -28.1116  -26.4446   22.1037 H   0  0  0  0  0  0
  -28.1205  -21.9648   23.3545 H   0  0  0  0  0  0
  -27.5242  -22.1399   21.7315 H   0  0  0  0  0  0
  -29.1700  -15.0869   21.6942 H   0  0  0  0  0  0
  -28.2843  -19.7536   22.4624 H   0  0  0  0  0  0
  1 25  1  0  0  0
  1 30  2  0  0  0
  1 80  1  0  0  0
  2  3  1  0  0  0
  2 25  1  0  0  0
  2 85  1  0  0  0
  2 86  1  0  0  0
  3  4  1  0  0  0
  3 87  1  0  0  0
  3 88  1  0  0  0
  4  5  1  0  0  0
  4 89  1  0  0  0
  4 90  1  0  0  0
  5  6  1  0  0  0
  5 26  1  0  0  0
  5 91  1  0  0  0
  6 25  1  0  0  0
  6 92  1  0  0  0
  6 93  1  0  0  0
  7  8  2  0  0  0
  7 26  1  0  0  0
  7 29  1  0  0  0
  8  9  1  0  0  0
  8 22  1  0  0  0
  9 10  1  0  0  0
  9 27  2  0  0  0
 10 11  2  0  0  0
 10 15  1  0  0  0
 11 12  1  0  0  0
 11 94  1  0  0  0
 12 13  2  0  0  0
 12 95  1  0  0  0
 13 14  1  0  0  0
 13 31  1  0  0  0
 14 15  2  0  0  0
 14 96  1  0  0  0
 15 97  1  0  0  0
 16 17  2  0  0  0
 16 21  1  0  0  0
 16 31  1  0  0  0
 17 18  1  0  0  0
 17 98  1  0  0  0
 18 19  2  0  0  0
 18 99  1  0  0  0
 19 20  1  0  0  0
 19 24  1  0  0  0
 20 21  2  0  0  0
 20100  1  0  0  0
 21 23  1  0  0  0
 22 28  1  0  0  0
 22 32  2  0  0  0
 26 27  1  0  0  0
 28101  1  0  0  0
 28102  1  0  0  0
 29103  1  0  0  0
 29104  1  0  0  0
 33 34  1  0  0  0
 33 66  1  0  0  0
 33 70  2  0  0  0
 34 36  1  0  0  0
 34 59  1  0  0  0
 34105  1  0  0  0
 35 44  2  0  0  0
 35 45  1  0  0  0
 35 68  1  0  0  0
 36 56  1  0  0  0
 36106  1  0  0  0
 37 39  1  0  0  0
 37 47  1  0  0  0
 37 66  1  0  0  0
 37107  1  0  0  0
 38 43  2  0  0  0
 38 46  1  0  0  0
 38 47  1  0  0  0
 39 64  1  0  0  0
 39 67  2  0  0  0
 40 52  1  0  0  0
 40 53  2  0  0  0
 40 58  1  0  0  0
 41108  1  0  0  0
 41109  1  0  0  0
 41110  1  0  0  0
 41 48  1  0  0  0
 42 43  1  0  0  0
 42 66  1  0  0  0
 42111  1  0  0  0
 42112  1  0  0  0
 43 44  1  0  0  0
 44113  1  0  0  0
 45 46  2  0  0  0
 45114  1  0  0  0
 46115  1  0  0  0
 47116  1  0  0  0
 47117  1  0  0  0
 48 56  1  0  0  0
 48 65  1  0  0  0
 48118  1  0  0  0
 49 50  1  0  0  0
 49 53  1  0  0  0
 49 64  1  0  0  0
 49119  1  0  0  0
 50 51  1  0  0  0
 50120  1  0  0  0
 50121  1  0  0  0
 51 52  1  0  0  0
 51122  1  0  0  0
 51123  1  0  0  0
 52124  1  0  0  0
 52125  1  0  0  0
 53 54  1  0  0  0
 54 55  2  0  0  0
 54126  1  0  0  0
 55 57  1  0  0  0
 55127  1  0  0  0
 56 69  2  0  0  0
 57 58  2  0  0  0
 57128  1  0  0  0
 58129  1  0  0  0
 59 60  1  0  0  0
 59 61  1  0  0  0
 59 62  1  0  0  0
 60130  1  0  0  0
 60131  1  0  0  0
 60132  1  0  0  0
 61133  1  0  0  0
 61134  1  0  0  0
 61135  1  0  0  0
 62136  1  0  0  0
 62137  1  0  0  0
 62138  1  0  0  0
 63 65  1  0  0  0
 63139  1  0  0  0
 63140  1  0  0  0
 63141  1  0  0  0
 64142  1  0  0  0
 65143  1  0  0  0
 68 77  1  0  0  0
 71 72  2  0  0  0
 71 79  1  0  0  0
 71144  1  0  0  0
 72 80  1  0  0  0
 72 84  1  0  0  0
 73 79  2  0  0  0
 73 81  1  0  0  0
 73 84  1  0  0  0
 74 76  1  0  0  0
 74 77  1  0  0  0
 74 82  2  0  0  0
 75 78  1  0  0  0
 75 81  1  0  0  0
 75 83  2  0  0  0
 76 78  1  0  0  0
 76145  1  0  0  0
 76146  1  0  0  0
 77147  1  0  0  0
 77148  1  0  0  0
 78149  1  0  0  0
 78150  1  0  0  0
 80151  1  0  0  0
 81152  1  0  0  0
M  ISO  4   1 100  68 101  77 101  80 100
M  END
> <chiral flag>
0

> <version>
0

> <s_m_source_file>
/data/baiqing/PycharmProjects/Reinvent-master-3.2/result/LINK_invent/BTK/process_docking_weight1_custom_product_contain_oxygen_bond_distance_aromatic_linkinvent_7_9_3/rearranged_h_0161.sdf

> <i_m_source_file_index>
52

> <r_mmod_Potential_Energy-OPLS-2005>
-241.962799072266

> <r_mmod_Stretch_Energy-OPLS-2005>
31.8234539031982

> <r_mmod_Bend_Energy-OPLS-2005>
98.3982543945312

> <r_mmod_Torsional_Energy-OPLS-2005>
224.522491455078

> <r_mmod_Improper_Torsional_Energy-OPLS-2005>
2.78338837623596

> <r_mmod_Van_der_Waal_Energy-OPLS-2005>
138.600357055664

> <r_mmod_Electrostatic_Energy-OPLS-2005>
-471.9462890625

> <r_mmod_Solvation_Energy-OPLS-2005>
-274.028839111328

> <b_mmod_Minimization_Converged-OPLS-2005>
0

> <r_mmod_RMS_Derivative-OPLS-2005>
1.27658236026764

$$$$
52
                    3D
 Structure written by MMmdl.
158166  0  0  1  0            999 V2000
  -30.5736  -14.6830   20.4904 C   0  0  0  0  0  0
  -30.4490  -12.4181   19.4502 C   0  0  0  0  0  0
  -29.5127  -12.5087   18.2240 C   0  0  0  0  0  0
  -28.0342  -12.3404   18.6327 C   0  0  0  0  0  0
  -27.6505  -13.2118   19.8571 C   0  0  2  0  0  0
  -28.6952  -13.0692   20.9868 C   0  0  0  0  0  0
  -25.2557  -13.8160   20.5652 C   0  0  0  0  0  0
  -24.1830  -13.0436   20.9197 C   0  0  0  0  0  0
  -24.6391  -11.6904   20.8751 C   0  0  0  0  0  0
  -23.9056  -10.4291   21.0416 C   0  0  0  0  0  0
  -24.3611   -9.4211   21.9192 C   0  0  0  0  0  0
  -23.6294   -8.2245   22.0753 C   0  0  0  0  0  0
  -22.4281   -8.0276   21.3537 C   0  0  0  0  0  0
  -21.9909   -9.0252   20.4644 C   0  0  0  0  0  0
  -22.7234  -10.2135   20.3056 C   0  0  0  0  0  0
  -21.6849   -6.0740   22.5282 C   0  0  0  0  0  0
  -21.4018   -6.5641   23.8219 C   0  0  0  0  0  0
  -21.3660   -5.6790   24.9178 C   0  0  0  0  0  0
  -21.6040   -4.3056   24.7225 C   0  0  0  0  0  0
  -21.8818   -3.8151   23.4346 C   0  0  0  0  0  0
  -21.9195   -4.6968   22.3403 C   0  0  0  0  0  0
  -22.7853  -13.5232   21.1872 C   0  0  0  0  0  0
  -22.1663   -4.2155   21.0983 F   0  0  0  0  0  0
  -21.5626   -3.4537   25.7738 F   0  0  0  0  0  0
  -30.0055  -13.4355   20.4235 N   0  0  0  0  0  0
  -26.2970  -12.9321   20.3265 N   0  0  0  0  0  0
  -25.9311  -11.6483   20.5732 N   0  0  0  0  0  0
  -22.0487  -12.8212   22.0418 N   0  0  0  0  0  0
  -25.4251  -15.1884   20.4053 N   0  0  0  0  0  0
  -31.7471  -14.8738   20.1543 O   0  0  0  0  0  0
  -21.6637   -6.8879   21.4240 O   0  0  0  0  0  0
  -22.3545  -14.5547   20.6721 O   0  0  0  0  0  0
  -24.6234  -31.8601   23.1981 C   0  0  0  0  0  0
  -25.9074  -32.4793   23.8331 C   0  0  1  0  0  0
  -27.2349  -27.3049   20.1420 C   0  0  0  0  0  0
  -25.5887  -33.8583   24.2260 N   0  0  0  0  0  0
  -23.4199  -30.4785   21.5394 C   0  0  2  0  0  0
  -24.8681  -28.9118   20.1285 C   0  0  0  0  0  0
  -22.7459  -29.4630   22.4928 C   0  0  0  0  0  0
  -18.0296  -28.1407   22.8516 C   0  0  0  0  0  0
  -24.1478  -36.7297   23.2639 C   0  0  0  0  0  0
  -25.9572  -30.7888   21.3647 C   0  0  0  0  0  0
  -26.0339  -29.4037   20.7277 C   0  0  0  0  0  0
  -27.2215  -28.6148   20.7162 C   0  0  0  0  0  0
  -26.0444  -26.8507   19.5401 C   0  0  0  0  0  0
  -24.8734  -27.6403   19.5283 C   0  0  0  0  0  0
  -23.6385  -29.7987   20.1611 C   0  0  0  0  0  0
  -25.4106  -36.3088   24.0329 C   0  0  1  0  0  0
  -20.5895  -28.3707   23.1300 C   0  0  2  0  0  0
  -20.6773  -26.9425   22.5425 C   0  0  0  0  0  0
  -19.5740  -26.6412   21.5221 C   0  0  0  0  0  0
  -18.1928  -26.7955   22.1644 C   0  0  0  0  0  0
  -19.1552  -28.8870   23.2912 C   0  0  0  0  0  0
  -18.9476  -30.1475   23.8928 C   0  0  0  0  0  0
  -17.6480  -30.6613   24.0586 C   0  0  0  0  0  0
  -25.9047  -34.9462   23.5105 C   0  0  0  0  0  0
  -16.5370  -29.9120   23.6335 C   0  0  0  0  0  0
  -16.7284  -28.6529   23.0367 C   0  0  0  0  0  0
  -26.4456  -31.6594   25.0696 C   0  0  0  0  0  0
  -25.3685  -31.3745   26.1430 C   0  0  0  0  0  0
  -27.0299  -30.3022   24.6113 C   0  0  0  0  0  0
  -27.6024  -32.4306   25.7477 C   0  0  0  0  0  0
  -27.5572  -37.1804   24.8469 C   0  0  0  0  0  0
  -21.4175  -29.3061   22.3669 N   0  0  0  0  0  0
  -26.4277  -37.3783   23.9413 N   0  0  0  0  0  0
  -24.6855  -31.0617   22.0916 N   0  0  0  0  0  0
  -23.4170  -28.8184   23.3029 O   0  0  0  0  0  0
  -28.4114  -26.5534   20.0166 O   0  0  0  0  0  0
  -26.5638  -34.8933   22.4684 O   0  0  0  0  0  0
  -23.5394  -32.1389   23.7316 O   0  0  0  0  0  0
  -30.3696  -19.4582   21.2875 C   0  0  0  0  0  0
  -30.6094  -18.0439   21.2330 C   0  0  0  0  0  0
  -28.3639  -19.1888   19.9932 C   0  0  0  0  0  0
  -29.2262  -20.0721   20.6922 C   0  0  0  0  0  0
  -29.6901  -17.1562   20.6109 C   0  0  0  0  0  0
  -28.5748  -17.7755   19.9801 C   0  0  0  0  0  0
  -28.8350  -21.5173   20.9659 C   0  0  0  0  0  0
  -28.8191  -25.2940   22.0784 C   0  0  0  0  0  0
  -30.2340  -25.2635   22.6401 C   0  0  0  0  0  0
  -27.8560  -23.8677   20.1385 C   0  0  0  0  0  0
  -28.6658  -25.1857   20.5557 C   0  0  1  0  0  0
  -28.6979  -21.8527   22.2452 N   0  0  0  0  0  0
  -29.6876  -15.6957   20.7582 N   0  0  0  0  0  0
  -28.5565  -22.4946   20.0433 N   0  3  0  0  0  0
  -27.8428  -25.3699   22.8317 O   0  0  0  0  0  0
  -27.6439  -16.9818   19.3946 F   0  0  0  0  0  0
  -31.4864  -12.5693   19.1461 H   0  0  0  0  0  0
  -30.4085  -11.4236   19.8972 H   0  0  0  0  0  0
  -29.7855  -11.7538   17.4854 H   0  0  0  0  0  0
  -29.6466  -13.4757   17.7346 H   0  0  0  0  0  0
  -27.8733  -11.2870   18.8654 H   0  0  0  0  0  0
  -27.3810  -12.5670   17.7892 H   0  0  0  0  0  0
  -27.6623  -14.2441   19.5082 H   0  0  0  0  0  0
  -28.7178  -12.0438   21.3620 H   0  0  0  0  0  0
  -28.4335  -13.6926   21.8435 H   0  0  0  0  0  0
  -25.2760   -9.5689   22.4761 H   0  0  0  0  0  0
  -24.0009   -7.4631   22.7468 H   0  0  0  0  0  0
  -21.0841   -8.8772   19.8942 H   0  0  0  0  0  0
  -22.3702  -10.9672   19.6161 H   0  0  0  0  0  0
  -21.2011   -7.6150   23.9722 H   0  0  0  0  0  0
  -21.1479   -6.0523   25.9082 H   0  0  0  0  0  0
  -22.0595   -2.7613   23.2846 H   0  0  0  0  0  0
  -22.4107  -11.9867   22.4794 H   0  0  0  0  0  0
  -21.1107  -13.1241   22.2613 H   0  0  0  0  0  0
  -24.6451  -15.8284   20.5040 H   0  0  0  0  0  0
  -26.2435  -15.6337   20.0053 H   0  0  0  0  0  0
  -26.7137  -32.5476   23.1091 H   0  0  0  0  0  0
  -24.9967  -33.9730   25.0359 H   0  0  0  0  0  0
  -22.7154  -31.2992   21.3880 H   0  0  0  0  0  0
  -23.3749  -35.9622   23.3317 H   0  0  0  0  0  0
  -24.3561  -36.8904   22.2050 H   0  0  0  0  0  0
  -23.7228  -37.6490   23.6667 H   0  0  0  0  0  0
  -26.0743  -31.5392   20.5833 H   0  0  0  0  0  0
  -26.8424  -30.8567   21.9857 H   0  0  0  0  0  0
  -28.1259  -29.0077   21.1564 H   0  0  0  0  0  0
  -26.0198  -25.8891   19.0510 H   0  0  0  0  0  0
  -23.9784  -27.2615   19.0548 H   0  0  0  0  0  0
  -23.7673  -30.5667   19.3971 H   0  0  0  0  0  0
  -22.7586  -29.2281   19.8584 H   0  0  0  0  0  0
  -25.1290  -36.1925   25.0817 H   0  0  0  0  0  0
  -21.0020  -28.3284   24.1402 H   0  0  0  0  0  0
  -20.5669  -26.2312   23.3625 H   0  0  0  0  0  0
  -21.6642  -26.7447   22.1213 H   0  0  0  0  0  0
  -19.6885  -25.6321   21.1243 H   0  0  0  0  0  0
  -19.6672  -27.3237   20.6760 H   0  0  0  0  0  0
  -17.4194  -26.6737   21.4044 H   0  0  0  0  0  0
  -18.0319  -26.0090   22.9038 H   0  0  0  0  0  0
  -19.7954  -30.7296   24.2291 H   0  0  0  0  0  0
  -17.5040  -31.6293   24.5200 H   0  0  0  0  0  0
  -15.5372  -30.3044   23.7640 H   0  0  0  0  0  0
  -15.8688  -28.0866   22.7057 H   0  0  0  0  0  0
  -24.5860  -30.7086   25.7776 H   0  0  0  0  0  0
  -24.8881  -32.2921   26.4825 H   0  0  0  0  0  0
  -25.8008  -30.8948   27.0221 H   0  0  0  0  0  0
  -26.2867  -29.6790   24.1124 H   0  0  0  0  0  0
  -27.4003  -29.7249   25.4596 H   0  0  0  0  0  0
  -27.8730  -30.4342   23.9328 H   0  0  0  0  0  0
  -27.2643  -33.3610   26.2050 H   0  0  0  0  0  0
  -28.3844  -32.6840   25.0311 H   0  0  0  0  0  0
  -28.0671  -31.8415   26.5388 H   0  0  0  0  0  0
  -28.2604  -38.0092   24.7520 H   0  0  0  0  0  0
  -28.1054  -36.2628   24.6297 H   0  0  0  0  0  0
  -27.2303  -37.1456   25.8875 H   0  0  0  0  0  0
  -20.9335  -29.8782   21.6898 H   0  0  0  0  0  0
  -26.0165  -38.2847   24.1431 H   0  0  0  0  0  0
  -31.0578  -20.0749   21.8502 H   0  0  0  0  0  0
  -31.4653  -17.6381   21.7513 H   0  0  0  0  0  0
  -27.4630  -19.5794   19.5431 H   0  0  0  0  0  0
  -30.8589  -24.5852   22.0597 H   0  0  0  0  0  0
  -30.2284  -24.9240   23.6749 H   0  0  0  0  0  0
  -30.6758  -26.2588   22.5997 H   0  0  0  0  0  0
  -27.4442  -24.0511   19.1458 H   0  0  0  0  0  0
  -26.9824  -23.7640   20.7825 H   0  0  0  0  0  0
  -29.6739  -24.9883   20.1914 H   0  0  0  0  0  0
  -28.8642  -21.1425   22.9441 H   0  0  0  0  0  0
  -28.3014  -22.7239   22.5478 H   0  0  0  0  0  0
  -28.7591  -15.3269   20.8905 H   0  0  0  0  0  0
  -28.7857  -22.2273   19.0919 H   0  0  0  0  0  0
  1 25  1  0  0  0
  1 30  2  0  0  0
  1 83  1  0  0  0
  2  3  1  0  0  0
  2 25  1  0  0  0
  2 87  1  0  0  0
  2 88  1  0  0  0
  3  4  1  0  0  0
  3 89  1  0  0  0
  3 90  1  0  0  0
  4  5  1  0  0  0
  4 91  1  0  0  0
  4 92  1  0  0  0
  5  6  1  0  0  0
  5 26  1  0  0  0
  5 93  1  0  0  0
  6 25  1  0  0  0
  6 94  1  0  0  0
  6 95  1  0  0  0
  7  8  2  0  0  0
  7 26  1  0  0  0
  7 29  1  0  0  0
  8  9  1  0  0  0
  8 22  1  0  0  0
  9 10  1  0  0  0
  9 27  2  0  0  0
 10 11  2  0  0  0
 10 15  1  0  0  0
 11 12  1  0  0  0
 11 96  1  0  0  0
 12 13  2  0  0  0
 12 97  1  0  0  0
 13 14  1  0  0  0
 13 31  1  0  0  0
 14 15  2  0  0  0
 14 98  1  0  0  0
 15 99  1  0  0  0
 16 17  2  0  0  0
 16 21  1  0  0  0
 16 31  1  0  0  0
 17 18  1  0  0  0
 17100  1  0  0  0
 18 19  2  0  0  0
 18101  1  0  0  0
 19 20  1  0  0  0
 19 24  1  0  0  0
 20 21  2  0  0  0
 20102  1  0  0  0
 21 23  1  0  0  0
 22 28  1  0  0  0
 22 32  2  0  0  0
 26 27  1  0  0  0
 28103  1  0  0  0
 28104  1  0  0  0
 29105  1  0  0  0
 29106  1  0  0  0
 33 34  1  0  0  0
 33 66  1  0  0  0
 33 70  2  0  0  0
 34 36  1  0  0  0
 34 59  1  0  0  0
 34107  1  0  0  0
 35 44  2  0  0  0
 35 45  1  0  0  0
 35 68  1  0  0  0
 36 56  1  0  0  0
 36108  1  0  0  0
 37 39  1  0  0  0
 37 47  1  0  0  0
 37 66  1  0  0  0
 37109  1  0  0  0
 38 43  2  0  0  0
 38 46  1  0  0  0
 38 47  1  0  0  0
 39 64  1  0  0  0
 39 67  2  0  0  0
 40 52  1  0  0  0
 40 53  2  0  0  0
 40 58  1  0  0  0
 41110  1  0  0  0
 41111  1  0  0  0
 41112  1  0  0  0
 41 48  1  0  0  0
 42 43  1  0  0  0
 42 66  1  0  0  0
 42113  1  0  0  0
 42114  1  0  0  0
 43 44  1  0  0  0
 44115  1  0  0  0
 45 46  2  0  0  0
 45116  1  0  0  0
 46117  1  0  0  0
 47118  1  0  0  0
 47119  1  0  0  0
 48 56  1  0  0  0
 48 65  1  0  0  0
 48120  1  0  0  0
 49 50  1  0  0  0
 49 53  1  0  0  0
 49 64  1  0  0  0
 49121  1  0  0  0
 50 51  1  0  0  0
 50122  1  0  0  0
 50123  1  0  0  0
 51 52  1  0  0  0
 51124  1  0  0  0
 51125  1  0  0  0
 52126  1  0  0  0
 52127  1  0  0  0
 53 54  1  0  0  0
 54 55  2  0  0  0
 54128  1  0  0  0
 55 57  1  0  0  0
 55129  1  0  0  0
 56 69  2  0  0  0
 57 58  2  0  0  0
 57130  1  0  0  0
 58131  1  0  0  0
 59 60  1  0  0  0
 59 61  1  0  0  0
 59 62  1  0  0  0
 60132  1  0  0  0
 60133  1  0  0  0
 60134  1  0  0  0
 61135  1  0  0  0
 61136  1  0  0  0
 61137  1  0  0  0
 62138  1  0  0  0
 62139  1  0  0  0
 62140  1  0  0  0
 63 65  1  0  0  0
 63141  1  0  0  0
 63142  1  0  0  0
 63143  1  0  0  0
 64144  1  0  0  0
 65145  1  0  0  0
 68 81  1  0  0  0
 71 72  2  0  0  0
 71 74  1  0  0  0
 71146  1  0  0  0
 72 75  1  0  0  0
 72147  1  0  0  0
 73 74  2  0  0  0
 73 76  1  0  0  0
 73148  1  0  0  0
 74 77  1  0  0  0
 75 76  2  0  0  0
 75 83  1  0  0  0
 76 86  1  0  0  0
 77 82  1  0  0  0
 77 84  2  0  0  0
 78 79  1  0  0  0
 78 81  1  0  0  0
 78 85  2  0  0  0
 79149  1  0  0  0
 79150  1  0  0  0
 79151  1  0  0  0
 80 84  1  0  0  0
 80152  1  0  0  0
 80153  1  0  0  0
 80 81  1  0  0  0
 81154  1  0  0  0
 82155  1  0  0  0
 82156  1  0  0  0
 83157  1  0  0  0
 84158  1  0  0  0
M  CHG  1  84   1
M  ISO  4   1 100  68 101  81 101  83 100
M  END
> <chiral flag>
0

> <version>
0

> <s_m_source_file>
/data/baiqing/PycharmProjects/Reinvent-master-3.2/result/LINK_invent/BTK/process_docking_weight1_custom_product_contain_oxygen_bond_distance_aromatic_linkinvent_7_9_3/rearranged_h_0161.sdf

> <i_m_source_file_index>
53

> <r_mmod_Potential_Energy-OPLS-2005>
-152.480819702148

> <r_mmod_Stretch_Energy-OPLS-2005>
89.0310287475586

> <r_mmod_Bend_Energy-OPLS-2005>
186.037261962891

> <r_mmod_Torsional_Energy-OPLS-2005>
266.302185058594

> <r_mmod_Improper_Torsional_Energy-OPLS-2005>
9.22030353546143

> <r_mmod_Van_der_Waal_Energy-OPLS-2005>
123.484031677246

> <r_mmod_Electrostatic_Energy-OPLS-2005>
-441.241577148438

> <r_mmod_Solvation_Energy-OPLS-2005>
-439.132049560547

> <b_mmod_Minimization_Converged-OPLS-2005>
0

> <r_mmod_RMS_Derivative-OPLS-2005>
2.42485475540161

$$$$
53
                    3D
 Structure written by MMmdl.
153161  0  0  1  0            999 V2000
  -30.5941  -14.7197   20.4831 C   0  0  0  0  0  0
  -30.4425  -12.4389   19.4712 C   0  0  0  0  0  0
  -29.5140  -12.5124   18.2372 C   0  0  0  0  0  0
  -28.0382  -12.3394   18.6475 C   0  0  0  0  0  0
  -27.6505  -13.2237   19.8623 C   0  0  2  0  0  0
  -28.6939  -13.1130   20.9969 C   0  0  0  0  0  0
  -25.2547  -13.8184   20.5696 C   0  0  0  0  0  0
  -24.1822  -13.0438   20.9195 C   0  0  0  0  0  0
  -24.6400  -11.6909   20.8743 C   0  0  0  0  0  0
  -23.9072  -10.4289   21.0403 C   0  0  0  0  0  0
  -24.3619   -9.4205   21.9184 C   0  0  0  0  0  0
  -23.6290   -8.2244   22.0757 C   0  0  0  0  0  0
  -22.4274   -8.0281   21.3544 C   0  0  0  0  0  0
  -21.9908   -9.0256   20.4649 C   0  0  0  0  0  0
  -22.7241  -10.2135   20.3054 C   0  0  0  0  0  0
  -21.6853   -6.0735   22.5274 C   0  0  0  0  0  0
  -21.4014   -6.5638   23.8208 C   0  0  0  0  0  0
  -21.3659   -5.6790   24.9172 C   0  0  0  0  0  0
  -21.6043   -4.3054   24.7220 C   0  0  0  0  0  0
  -21.8821   -3.8144   23.4343 C   0  0  0  0  0  0
  -21.9193   -4.6961   22.3399 C   0  0  0  0  0  0
  -22.7843  -13.5225   21.1855 C   0  0  0  0  0  0
  -22.1660   -4.2147   21.0976 F   0  0  0  0  0  0
  -21.5630   -3.4538   25.7734 F   0  0  0  0  0  0
  -30.0028  -13.4763   20.4331 N   0  0  0  0  0  0
  -26.2977  -12.9374   20.3317 N   0  0  0  0  0  0
  -25.9331  -11.6523   20.5758 N   0  0  0  0  0  0
  -22.0489  -12.8220   22.0412 N   0  0  0  0  0  0
  -25.4258  -15.1908   20.4118 N   0  0  0  0  0  0
  -31.7545  -14.8665   20.0832 O   0  0  0  0  0  0
  -21.6637   -6.8876   21.4236 O   0  0  0  0  0  0
  -22.3527  -14.5531   20.6700 O   0  0  0  0  0  0
  -24.6301  -31.8557   23.1995 C   0  0  0  0  0  0
  -25.9129  -32.4757   23.8337 C   0  0  1  0  0  0
  -27.2161  -27.2648   20.1249 C   0  0  0  0  0  0
  -25.5930  -33.8560   24.2256 N   0  0  0  0  0  0
  -23.4264  -30.4798   21.5419 C   0  0  2  0  0  0
  -24.8727  -28.9306   20.1070 C   0  0  0  0  0  0
  -22.7496  -29.4606   22.4903 C   0  0  0  0  0  0
  -18.0295  -28.1393   22.8488 C   0  0  0  0  0  0
  -24.1487  -36.7279   23.2641 C   0  0  0  0  0  0
  -25.9727  -30.7670   21.3833 C   0  0  0  0  0  0
  -26.0419  -29.3910   20.7243 C   0  0  0  0  0  0
  -27.2122  -28.5677   20.7275 C   0  0  0  0  0  0
  -26.0298  -26.8848   19.4559 C   0  0  0  0  0  0
  -24.8718  -27.6858   19.4626 C   0  0  0  0  0  0
  -23.6435  -29.8163   20.1569 C   0  0  0  0  0  0
  -25.4113  -36.3070   24.0328 C   0  0  1  0  0  0
  -20.5898  -28.3697   23.1271 C   0  0  2  0  0  0
  -20.6782  -26.9416   22.5410 C   0  0  0  0  0  0
  -19.5754  -26.6382   21.5221 C   0  0  0  0  0  0
  -18.1933  -26.7937   22.1626 C   0  0  0  0  0  0
  -19.1550  -28.8860   23.2877 C   0  0  0  0  0  0
  -18.9473  -30.1461   23.8895 C   0  0  0  0  0  0
  -17.6470  -30.6594   24.0563 C   0  0  0  0  0  0
  -25.9054  -34.9442   23.5098 C   0  0  0  0  0  0
  -16.5359  -29.9091   23.6334 C   0  0  0  0  0  0
  -16.7280  -28.6505   23.0357 C   0  0  0  0  0  0
  -26.4499  -31.6589   25.0729 C   0  0  0  0  0  0
  -25.3715  -31.3749   26.1447 C   0  0  0  0  0  0
  -27.0359  -30.3006   24.6229 C   0  0  0  0  0  0
  -27.6046  -32.4339   25.7502 C   0  0  0  0  0  0
  -27.5577  -37.1795   24.8466 C   0  0  0  0  0  0
  -21.4204  -29.3049   22.3658 N   0  0  0  0  0  0
  -26.4288  -37.3771   23.9410 N   0  0  0  0  0  0
  -24.6950  -31.0528   22.0974 N   0  0  0  0  0  0
  -23.4206  -28.8146   23.2996 O   0  0  0  0  0  0
  -28.3197  -26.3832   20.2153 O   0  0  0  0  0  0
  -26.5630  -34.8919   22.4667 O   0  0  0  0  0  0
  -23.5450  -32.1383   23.7286 O   0  0  0  0  0  0
  -30.2293  -19.2748   19.5834 C   0  0  0  0  0  0
  -29.4570  -19.8286   20.5965 C   0  0  0  0  0  0
  -29.8467  -17.2403   20.6640 C   0  0  0  0  0  0
  -29.1502  -22.3176   20.1110 C   0  0  0  0  0  0
  -30.3539  -24.3073   21.0889 C   0  0  0  0  0  0
  -28.1421  -23.6494   22.0771 C   0  0  0  0  0  0
  -28.2159  -24.9206   19.8630 C   0  0  0  0  0  0
  -28.9420  -23.7830   20.7627 C   0  0  0  0  0  0
  -30.4458  -17.8616   19.6328 N   0  0  0  0  0  0
  -29.1203  -21.1648   20.8774 N   0  0  0  0  0  0
  -29.8058  -15.7788   20.8908 N   0  0  0  0  0  0
  -29.3661  -22.2458   18.8995 O   0  0  0  0  0  0
  -28.9609  -18.4641   21.6425 S   0  0  0  0  0  0
  -31.4817  -12.5730   19.1666 H   0  0  0  0  0  0
  -30.3946  -11.4509   19.9320 H   0  0  0  0  0  0
  -29.7918  -11.7470   17.5114 H   0  0  0  0  0  0
  -29.6446  -13.4721   17.7345 H   0  0  0  0  0  0
  -27.8872  -11.2877   18.8946 H   0  0  0  0  0  0
  -27.3825  -12.5495   17.8018 H   0  0  0  0  0  0
  -27.6583  -14.2535   19.5044 H   0  0  0  0  0  0
  -28.7231  -12.0975   21.3947 H   0  0  0  0  0  0
  -28.4247  -13.7539   21.8374 H   0  0  0  0  0  0
  -25.2769   -9.5679   22.4753 H   0  0  0  0  0  0
  -23.9997   -7.4636   22.7478 H   0  0  0  0  0  0
  -21.0840   -8.8775   19.8954 H   0  0  0  0  0  0
  -22.3702  -10.9672   19.6159 H   0  0  0  0  0  0
  -21.2006   -7.6146   23.9709 H   0  0  0  0  0  0
  -21.1480   -6.0523   25.9073 H   0  0  0  0  0  0
  -22.0601   -2.7605   23.2842 H   0  0  0  0  0  0
  -22.4099  -11.9876   22.4796 H   0  0  0  0  0  0
  -21.1109  -13.1252   22.2626 H   0  0  0  0  0  0
  -24.6575  -15.8440   20.5206 H   0  0  0  0  0  0
  -26.2676  -15.6284   20.0598 H   0  0  0  0  0  0
  -26.7189  -32.5406   23.1072 H   0  0  0  0  0  0
  -25.0090  -33.9702   25.0408 H   0  0  0  0  0  0
  -22.7232  -31.3024   21.3971 H   0  0  0  0  0  0
  -23.3761  -35.9603   23.3304 H   0  0  0  0  0  0
  -24.3574  -36.8899   22.2055 H   0  0  0  0  0  0
  -23.7232  -37.6475   23.6664 H   0  0  0  0  0  0
  -26.1165  -31.5280   20.6153 H   0  0  0  0  0  0
  -26.8490  -30.8117   22.0181 H   0  0  0  0  0  0
  -28.1033  -28.9114   21.2335 H   0  0  0  0  0  0
  -25.9552  -25.9540   18.9172 H   0  0  0  0  0  0
  -23.9811  -27.3352   18.9599 H   0  0  0  0  0  0
  -23.7662  -30.5936   19.4022 H   0  0  0  0  0  0
  -22.7619  -29.2494   19.8517 H   0  0  0  0  0  0
  -25.1298  -36.1914   25.0821 H   0  0  0  0  0  0
  -20.9991  -28.3278   24.1389 H   0  0  0  0  0  0
  -20.5689  -26.2313   23.3617 H   0  0  0  0  0  0
  -21.6647  -26.7445   22.1194 H   0  0  0  0  0  0
  -19.6918  -25.6291   21.1254 H   0  0  0  0  0  0
  -19.6688  -27.3186   20.6747 H   0  0  0  0  0  0
  -17.4203  -26.6692   21.4024 H   0  0  0  0  0  0
  -18.0320  -26.0082   22.9022 H   0  0  0  0  0  0
  -19.7951  -30.7280   24.2255 H   0  0  0  0  0  0
  -17.5029  -31.6274   24.5166 H   0  0  0  0  0  0
  -15.5362  -30.2997   23.7665 H   0  0  0  0  0  0
  -15.8679  -28.0825   22.7079 H   0  0  0  0  0  0
  -24.5891  -30.7098   25.7778 H   0  0  0  0  0  0
  -24.8907  -32.2926   26.4844 H   0  0  0  0  0  0
  -25.8024  -30.8945   27.0242 H   0  0  0  0  0  0
  -26.2955  -29.6744   24.1239 H   0  0  0  0  0  0
  -27.4035  -29.7272   25.4750 H   0  0  0  0  0  0
  -27.8834  -30.4290   23.9492 H   0  0  0  0  0  0
  -27.2645  -33.3647   26.2053 H   0  0  0  0  0  0
  -28.3872  -32.6885   25.0342 H   0  0  0  0  0  0
  -28.0703  -31.8484   26.5440 H   0  0  0  0  0  0
  -28.2596  -38.0092   24.7516 H   0  0  0  0  0  0
  -28.1078  -36.2625   24.6296 H   0  0  0  0  0  0
  -27.2298  -37.1441   25.8871 H   0  0  0  0  0  0
  -20.9383  -29.8775   21.6870 H   0  0  0  0  0  0
  -26.0172  -38.2847   24.1413 H   0  0  0  0  0  0
  -30.6988  -19.8229   18.7783 H   0  0  0  0  0  0
  -30.9179  -23.5994   21.6982 H   0  0  0  0  0  0
  -30.3100  -25.2463   21.6420 H   0  0  0  0  0  0
  -30.9272  -24.4907   20.1792 H   0  0  0  0  0  0
  -28.6532  -23.0282   22.8127 H   0  0  0  0  0  0
  -27.1562  -23.2167   21.9009 H   0  0  0  0  0  0
  -27.9860  -24.6244   22.5394 H   0  0  0  0  0  0
  -27.1770  -24.6030   19.8282 H   0  0  0  0  0  0
  -28.5741  -24.8359   18.8367 H   0  0  0  0  0  0
  -28.8230  -21.3318   21.8295 H   0  0  0  0  0  0
  -28.9738  -15.4743   21.3713 H   0  0  0  0  0  0
  1 25  1  0  0  0
  1 30  2  0  0  0
  1 81  1  0  0  0
  2  3  1  0  0  0
  2 25  1  0  0  0
  2 84  1  0  0  0
  2 85  1  0  0  0
  3  4  1  0  0  0
  3 86  1  0  0  0
  3 87  1  0  0  0
  4  5  1  0  0  0
  4 88  1  0  0  0
  4 89  1  0  0  0
  5  6  1  0  0  0
  5 26  1  0  0  0
  5 90  1  0  0  0
  6 25  1  0  0  0
  6 91  1  0  0  0
  6 92  1  0  0  0
  7  8  2  0  0  0
  7 26  1  0  0  0
  7 29  1  0  0  0
  8  9  1  0  0  0
  8 22  1  0  0  0
  9 10  1  0  0  0
  9 27  2  0  0  0
 10 11  2  0  0  0
 10 15  1  0  0  0
 11 12  1  0  0  0
 11 93  1  0  0  0
 12 13  2  0  0  0
 12 94  1  0  0  0
 13 14  1  0  0  0
 13 31  1  0  0  0
 14 15  2  0  0  0
 14 95  1  0  0  0
 15 96  1  0  0  0
 16 17  2  0  0  0
 16 21  1  0  0  0
 16 31  1  0  0  0
 17 18  1  0  0  0
 17 97  1  0  0  0
 18 19  2  0  0  0
 18 98  1  0  0  0
 19 20  1  0  0  0
 19 24  1  0  0  0
 20 21  2  0  0  0
 20 99  1  0  0  0
 21 23  1  0  0  0
 22 28  1  0  0  0
 22 32  2  0  0  0
 26 27  1  0  0  0
 28100  1  0  0  0
 28101  1  0  0  0
 29102  1  0  0  0
 29103  1  0  0  0
 33 34  1  0  0  0
 33 66  1  0  0  0
 33 70  2  0  0  0
 34 36  1  0  0  0
 34 59  1  0  0  0
 34104  1  0  0  0
 35 44  2  0  0  0
 35 45  1  0  0  0
 35 68  1  0  0  0
 36 56  1  0  0  0
 36105  1  0  0  0
 37 39  1  0  0  0
 37 47  1  0  0  0
 37 66  1  0  0  0
 37106  1  0  0  0
 38 43  2  0  0  0
 38 46  1  0  0  0
 38 47  1  0  0  0
 39 64  1  0  0  0
 39 67  2  0  0  0
 40 52  1  0  0  0
 40 53  2  0  0  0
 40 58  1  0  0  0
 41107  1  0  0  0
 41108  1  0  0  0
 41109  1  0  0  0
 41 48  1  0  0  0
 42 43  1  0  0  0
 42 66  1  0  0  0
 42110  1  0  0  0
 42111  1  0  0  0
 43 44  1  0  0  0
 44112  1  0  0  0
 45 46  2  0  0  0
 45113  1  0  0  0
 46114  1  0  0  0
 47115  1  0  0  0
 47116  1  0  0  0
 48 56  1  0  0  0
 48 65  1  0  0  0
 48117  1  0  0  0
 49 50  1  0  0  0
 49 53  1  0  0  0
 49 64  1  0  0  0
 49118  1  0  0  0
 50 51  1  0  0  0
 50119  1  0  0  0
 50120  1  0  0  0
 51 52  1  0  0  0
 51121  1  0  0  0
 51122  1  0  0  0
 52123  1  0  0  0
 52124  1  0  0  0
 53 54  1  0  0  0
 54 55  2  0  0  0
 54125  1  0  0  0
 55 57  1  0  0  0
 55126  1  0  0  0
 56 69  2  0  0  0
 57 58  2  0  0  0
 57127  1  0  0  0
 58128  1  0  0  0
 59 60  1  0  0  0
 59 61  1  0  0  0
 59 62  1  0  0  0
 60129  1  0  0  0
 60130  1  0  0  0
 60131  1  0  0  0
 61132  1  0  0  0
 61133  1  0  0  0
 61134  1  0  0  0
 62135  1  0  0  0
 62136  1  0  0  0
 62137  1  0  0  0
 63 65  1  0  0  0
 63138  1  0  0  0
 63139  1  0  0  0
 63140  1  0  0  0
 64141  1  0  0  0
 65142  1  0  0  0
 68 77  1  0  0  0
 71 72  2  0  0  0
 71 79  1  0  0  0
 71143  1  0  0  0
 72 80  1  0  0  0
 72 83  1  0  0  0
 73 79  2  0  0  0
 73 81  1  0  0  0
 73 83  1  0  0  0
 74 78  1  0  0  0
 74 80  1  0  0  0
 74 82  2  0  0  0
 75144  1  0  0  0
 75145  1  0  0  0
 75146  1  0  0  0
 75 78  1  0  0  0
 76 78  1  0  0  0
 76147  1  0  0  0
 76148  1  0  0  0
 76149  1  0  0  0
 77 78  1  0  0  0
 77150  1  0  0  0
 77151  1  0  0  0
 80152  1  0  0  0
 81153  1  0  0  0
M  ISO  4   1 100  68 101  77 101  81 100
M  END
> <chiral flag>
0

> <version>
0

> <s_m_source_file>
/data/baiqing/PycharmProjects/Reinvent-master-3.2/result/LINK_invent/BTK/process_docking_weight1_custom_product_contain_oxygen_bond_distance_aromatic_linkinvent_7_9_3/rearranged_h_0161.sdf

> <i_m_source_file_index>
54

> <r_mmod_Potential_Energy-OPLS-2005>
63.3382415771484

> <r_mmod_Stretch_Energy-OPLS-2005>
110.10083770752

> <r_mmod_Bend_Energy-OPLS-2005>
171.358734130859

> <r_mmod_Torsional_Energy-OPLS-2005>
240.73616027832

> <r_mmod_Improper_Torsional_Energy-OPLS-2005>
3.3473002910614

> <r_mmod_Van_der_Waal_Energy-OPLS-2005>
123.200302124023

> <r_mmod_Electrostatic_Energy-OPLS-2005>
-419.325653076172

> <r_mmod_Solvation_Energy-OPLS-2005>
-243.591705322266

> <b_mmod_Minimization_Converged-OPLS-2005>
0

> <r_mmod_RMS_Derivative-OPLS-2005>
0.746455073356628

$$$$
54
                    3D
 Structure written by MMmdl.
168177  0  0  1  0            999 V2000
  -30.6498  -14.6434   20.4754 C   0  0  0  0  0  0
  -30.4253  -12.3801   19.4815 C   0  0  0  0  0  0
  -29.5178  -12.4936   18.2369 C   0  0  0  0  0  0
  -28.0340  -12.3602   18.6291 C   0  0  0  0  0  0
  -27.6499  -13.2316   19.8544 C   0  0  2  0  0  0
  -28.6864  -13.1207   20.9943 C   0  0  0  0  0  0
  -25.2556  -13.8169   20.5717 C   0  0  0  0  0  0
  -24.1828  -13.0415   20.9200 C   0  0  0  0  0  0
  -24.6415  -11.6888   20.8724 C   0  0  0  0  0  0
  -23.9103  -10.4256   21.0422 C   0  0  0  0  0  0
  -24.3636   -9.4172   21.9190 C   0  0  0  0  0  0
  -23.6290   -8.2219   22.0758 C   0  0  0  0  0  0
  -22.4260   -8.0265   21.3563 C   0  0  0  0  0  0
  -21.9910   -9.0252   20.4663 C   0  0  0  0  0  0
  -22.7281  -10.2113   20.3075 C   0  0  0  0  0  0
  -21.6839   -6.0722   22.5290 C   0  0  0  0  0  0
  -21.3994   -6.5615   23.8215 C   0  0  0  0  0  0
  -21.3663   -5.6771   24.9180 C   0  0  0  0  0  0
  -21.6056   -4.3044   24.7227 C   0  0  0  0  0  0
  -21.8825   -3.8139   23.4346 C   0  0  0  0  0  0
  -21.9190   -4.6949   22.3409 C   0  0  0  0  0  0
  -22.7853  -13.5204   21.1872 C   0  0  0  0  0  0
  -22.1653   -4.2144   21.0985 F   0  0  0  0  0  0
  -21.5660   -3.4529   25.7741 F   0  0  0  0  0  0
  -30.0126  -13.4288   20.4390 N   0  0  0  0  0  0
  -26.2961  -12.9396   20.3218 N   0  0  0  0  0  0
  -25.9326  -11.6526   20.5661 N   0  0  0  0  0  0
  -22.0475  -12.8194   22.0417 N   0  0  0  0  0  0
  -25.4324  -15.1905   20.4337 N   0  0  0  0  0  0
  -31.8008  -14.7702   20.0461 O   0  0  0  0  0  0
  -21.6629   -6.8863   21.4240 O   0  0  0  0  0  0
  -22.3583  -14.5538   20.6761 O   0  0  0  0  0  0
  -24.6268  -31.8581   23.2041 C   0  0  0  0  0  0
  -25.9108  -32.4761   23.8375 C   0  0  1  0  0  0
  -27.2142  -27.3069   20.1153 C   0  0  0  0  0  0
  -25.5919  -33.8561   24.2295 N   0  0  0  0  0  0
  -23.4212  -30.4858   21.5446 C   0  0  2  0  0  0
  -24.8673  -28.9450   20.1078 C   0  0  0  0  0  0
  -22.7480  -29.4610   22.4892 C   0  0  0  0  0  0
  -18.0290  -28.1375   22.8467 C   0  0  0  0  0  0
  -24.1471  -36.7258   23.2643 C   0  0  0  0  0  0
  -25.9651  -30.7865   21.3778 C   0  0  0  0  0  0
  -26.0385  -29.4146   20.7158 C   0  0  0  0  0  0
  -27.2163  -28.6069   20.7104 C   0  0  0  0  0  0
  -26.0229  -26.9003   19.4703 C   0  0  0  0  0  0
  -24.8627  -27.6931   19.4756 C   0  0  0  0  0  0
  -23.6393  -29.8307   20.1560 C   0  0  0  0  0  0
  -25.4089  -36.3055   24.0341 C   0  0  1  0  0  0
  -20.5893  -28.3677   23.1255 C   0  0  2  0  0  0
  -20.6774  -26.9393   22.5399 C   0  0  0  0  0  0
  -19.5751  -26.6385   21.5191 C   0  0  0  0  0  0
  -18.1935  -26.7919   22.1610 C   0  0  0  0  0  0
  -19.1549  -28.8837   23.2871 C   0  0  0  0  0  0
  -18.9475  -30.1438   23.8905 C   0  0  0  0  0  0
  -17.6477  -30.6568   24.0572 C   0  0  0  0  0  0
  -25.9043  -34.9434   23.5120 C   0  0  0  0  0  0
  -16.5369  -29.9080   23.6328 C   0  0  0  0  0  0
  -16.7282  -28.6502   23.0337 C   0  0  0  0  0  0
  -26.4514  -31.6560   25.0730 C   0  0  0  0  0  0
  -25.3778  -31.3662   26.1472 C   0  0  0  0  0  0
  -27.0367  -30.2989   24.6165 C   0  0  0  0  0  0
  -27.6071  -32.4301   25.7498 C   0  0  0  0  0  0
  -27.5555  -37.1777   24.8468 C   0  0  0  0  0  0
  -21.4185  -29.3034   22.3633 N   0  0  0  0  0  0
  -26.4249  -37.3764   23.9438 N   0  0  0  0  0  0
  -24.6897  -31.0606   22.0983 N   0  0  0  0  0  0
  -23.4205  -28.8136   23.2958 O   0  0  0  0  0  0
  -28.3082  -26.4260   20.1825 O   0  0  0  0  0  0
  -26.5613  -34.8904   22.4688 O   0  0  0  0  0  0
  -23.5430  -32.1374   23.7366 O   0  0  0  0  0  0
  -29.6559  -18.3092   20.6787 C   0  0  0  0  0  0
  -28.8360  -19.2364   18.5839 C   0  0  0  0  0  0
  -29.3173  -16.8433   18.7571 C   0  0  0  0  0  0
  -29.2714  -19.4770   19.9114 C   0  0  0  0  0  0
  -29.6889  -16.9762   20.1149 C   0  0  0  0  0  0
  -28.8664  -17.9462   18.0058 C   0  0  0  0  0  0
  -30.1276  -23.2746   20.1245 C   0  0  0  0  0  0
  -28.2610  -22.7328   21.6925 C   0  0  0  0  0  0
  -29.8855  -21.8530   19.4901 C   0  0  0  0  0  0
  -28.0551  -21.3945   20.9050 C   0  0  0  0  0  0
  -28.9725  -23.9335   20.9541 C   0  0  0  0  0  0
  -27.0199  -18.0364   16.4806 C   0  0  0  0  0  0
  -28.8717  -25.2950   22.9964 C   0  0  0  0  0  0
  -28.0184  -24.9621   20.1758 C   0  0  0  0  0  0
  -29.3190  -20.8365   20.4080 N   0  0  0  0  0  0
  -29.9321  -15.7425   20.8772 N   0  0  0  0  0  0
  -28.4307  -17.7310   16.6903 N   0  0  0  0  0  0
  -29.6521  -24.7323   21.9379 O   0  0  0  0  0  0
  -31.4754  -12.4606   19.1943 H   0  0  0  0  0  0
  -30.3196  -11.3959   19.9405 H   0  0  0  0  0  0
  -29.7762  -11.7234   17.5096 H   0  0  0  0  0  0
  -29.6921  -13.4505   17.7413 H   0  0  0  0  0  0
  -27.8434  -11.3086   18.8469 H   0  0  0  0  0  0
  -27.4026  -12.6143   17.7756 H   0  0  0  0  0  0
  -27.6610  -14.2624   19.5010 H   0  0  0  0  0  0
  -28.6758  -12.1174   21.4191 H   0  0  0  0  0  0
  -28.4244  -13.7939   21.8137 H   0  0  0  0  0  0
  -25.2785   -9.5622   22.4775 H   0  0  0  0  0  0
  -23.9996   -7.4589   22.7453 H   0  0  0  0  0  0
  -21.0855   -8.8804   19.8958 H   0  0  0  0  0  0
  -22.3767  -10.9665   19.6199 H   0  0  0  0  0  0
  -21.1951   -7.6115   23.9721 H   0  0  0  0  0  0
  -21.1490   -6.0497   25.9089 H   0  0  0  0  0  0
  -22.0600   -2.7592   23.2865 H   0  0  0  0  0  0
  -22.4033  -11.9835   22.4814 H   0  0  0  0  0  0
  -21.1122  -13.1291   22.2650 H   0  0  0  0  0  0
  -24.6994  -15.8589   20.6445 H   0  0  0  0  0  0
  -26.2916  -15.6307   20.1330 H   0  0  0  0  0  0
  -26.7165  -32.5439   23.1118 H   0  0  0  0  0  0
  -25.0050  -33.9711   25.0426 H   0  0  0  0  0  0
  -22.7160  -31.3073   21.4050 H   0  0  0  0  0  0
  -23.3741  -35.9582   23.3296 H   0  0  0  0  0  0
  -24.3568  -36.8887   22.2060 H   0  0  0  0  0  0
  -23.7220  -37.6453   23.6674 H   0  0  0  0  0  0
  -26.1024  -31.5521   20.6125 H   0  0  0  0  0  0
  -26.8427  -30.8318   22.0105 H   0  0  0  0  0  0
  -28.1121  -28.9576   21.2042 H   0  0  0  0  0  0
  -25.9636  -25.9468   18.9681 H   0  0  0  0  0  0
  -23.9656  -27.3303   18.9936 H   0  0  0  0  0  0
  -23.7716  -30.6151   19.4085 H   0  0  0  0  0  0
  -22.7564  -29.2720   19.8402 H   0  0  0  0  0  0
  -25.1264  -36.1891   25.0831 H   0  0  0  0  0  0
  -21.0012  -28.3265   24.1365 H   0  0  0  0  0  0
  -20.5628  -26.2294   23.3604 H   0  0  0  0  0  0
  -21.6650  -26.7387   22.1228 H   0  0  0  0  0  0
  -19.6913  -25.6307   21.1203 H   0  0  0  0  0  0
  -19.6680  -27.3207   20.6730 H   0  0  0  0  0  0
  -17.4191  -26.6640   21.4029 H   0  0  0  0  0  0
  -18.0355  -26.0070   22.9018 H   0  0  0  0  0  0
  -19.7957  -30.7235   24.2293 H   0  0  0  0  0  0
  -17.5037  -31.6244   24.5194 H   0  0  0  0  0  0
  -15.5369  -30.2984   23.7645 H   0  0  0  0  0  0
  -15.8686  -28.0828   22.7039 H   0  0  0  0  0  0
  -24.5948  -30.7014   25.7803 H   0  0  0  0  0  0
  -24.8987  -32.2814   26.4957 H   0  0  0  0  0  0
  -25.8144  -30.8801   27.0206 H   0  0  0  0  0  0
  -26.2924  -29.6712   24.1244 H   0  0  0  0  0  0
  -27.4141  -29.7263   25.4648 H   0  0  0  0  0  0
  -27.8771  -30.4284   23.9338 H   0  0  0  0  0  0
  -27.2672  -33.3595   26.2077 H   0  0  0  0  0  0
  -28.3877  -32.6863   25.0322 H   0  0  0  0  0  0
  -28.0741  -31.8426   26.5413 H   0  0  0  0  0  0
  -28.2560  -38.0083   24.7534 H   0  0  0  0  0  0
  -28.1060  -36.2624   24.6253 H   0  0  0  0  0  0
  -27.2294  -37.1387   25.8874 H   0  0  0  0  0  0
  -20.9342  -29.8763   21.6859 H   0  0  0  0  0  0
  -26.0115  -38.2816   24.1499 H   0  0  0  0  0  0
  -29.9330  -18.4399   21.7153 H   0  0  0  0  0  0
  -28.4802  -20.0558   17.9791 H   0  0  0  0  0  0
  -29.3102  -15.8660   18.2941 H   0  0  0  0  0  0
  -30.4531  -23.9665   19.3470 H   0  0  0  0  0  0
  -30.9937  -23.1713   20.7800 H   0  0  0  0  0  0
  -28.8641  -22.4672   22.5632 H   0  0  0  0  0  0
  -27.3048  -23.0534   22.1048 H   0  0  0  0  0  0
  -30.8308  -21.4777   19.0936 H   0  0  0  0  0  0
  -29.2243  -21.9756   18.6316 H   0  0  0  0  0  0
  -27.3835  -21.5748   20.0626 H   0  0  0  0  0  0
  -27.5560  -20.6635   21.5438 H   0  0  0  0  0  0
  -26.6684  -17.5870   15.5502 H   0  0  0  0  0  0
  -26.8411  -19.1120   16.4267 H   0  0  0  0  0  0
  -26.4053  -17.6276   17.2847 H   0  0  0  0  0  0
  -29.5001  -25.9611   23.5862 H   0  0  0  0  0  0
  -28.4913  -24.5328   23.6755 H   0  0  0  0  0  0
  -28.0283  -25.8865   22.6421 H   0  0  0  0  0  0
  -27.0448  -24.8349   20.6503 H   0  0  0  0  0  0
  -27.8834  -24.6217   19.1497 H   0  0  0  0  0  0
  -29.1904  -15.5126   21.5217 H   0  0  0  0  0  0
  -28.7082  -16.8340   16.2926 H   0  0  0  0  0  0
  1 25  1  0  0  0
  1 30  2  0  0  0
  1 86  1  0  0  0
  2  3  1  0  0  0
  2 25  1  0  0  0
  2 89  1  0  0  0
  2 90  1  0  0  0
  3  4  1  0  0  0
  3 91  1  0  0  0
  3 92  1  0  0  0
  4  5  1  0  0  0
  4 93  1  0  0  0
  4 94  1  0  0  0
  5  6  1  0  0  0
  5 26  1  0  0  0
  5 95  1  0  0  0
  6 25  1  0  0  0
  6 96  1  0  0  0
  6 97  1  0  0  0
  7  8  2  0  0  0
  7 26  1  0  0  0
  7 29  1  0  0  0
  8  9  1  0  0  0
  8 22  1  0  0  0
  9 10  1  0  0  0
  9 27  2  0  0  0
 10 11  2  0  0  0
 10 15  1  0  0  0
 11 12  1  0  0  0
 11 98  1  0  0  0
 12 13  2  0  0  0
 12 99  1  0  0  0
 13 14  1  0  0  0
 13 31  1  0  0  0
 14 15  2  0  0  0
 14100  1  0  0  0
 15101  1  0  0  0
 16 17  2  0  0  0
 16 21  1  0  0  0
 16 31  1  0  0  0
 17 18  1  0  0  0
 17102  1  0  0  0
 18 19  2  0  0  0
 18103  1  0  0  0
 19 20  1  0  0  0
 19 24  1  0  0  0
 20 21  2  0  0  0
 20104  1  0  0  0
 21 23  1  0  0  0
 22 28  1  0  0  0
 22 32  2  0  0  0
 26 27  1  0  0  0
 28105  1  0  0  0
 28106  1  0  0  0
 29107  1  0  0  0
 29108  1  0  0  0
 33 34  1  0  0  0
 33 66  1  0  0  0
 33 70  2  0  0  0
 34 36  1  0  0  0
 34 59  1  0  0  0
 34109  1  0  0  0
 35 44  2  0  0  0
 35 45  1  0  0  0
 35 68  1  0  0  0
 36 56  1  0  0  0
 36110  1  0  0  0
 37 39  1  0  0  0
 37 47  1  0  0  0
 37 66  1  0  0  0
 37111  1  0  0  0
 38 43  2  0  0  0
 38 46  1  0  0  0
 38 47  1  0  0  0
 39 64  1  0  0  0
 39 67  2  0  0  0
 40 52  1  0  0  0
 40 53  2  0  0  0
 40 58  1  0  0  0
 41112  1  0  0  0
 41113  1  0  0  0
 41114  1  0  0  0
 41 48  1  0  0  0
 42 43  1  0  0  0
 42 66  1  0  0  0
 42115  1  0  0  0
 42116  1  0  0  0
 43 44  1  0  0  0
 44117  1  0  0  0
 45 46  2  0  0  0
 45118  1  0  0  0
 46119  1  0  0  0
 47120  1  0  0  0
 47121  1  0  0  0
 48 56  1  0  0  0
 48 65  1  0  0  0
 48122  1  0  0  0
 49 50  1  0  0  0
 49 53  1  0  0  0
 49 64  1  0  0  0
 49123  1  0  0  0
 50 51  1  0  0  0
 50124  1  0  0  0
 50125  1  0  0  0
 51 52  1  0  0  0
 51126  1  0  0  0
 51127  1  0  0  0
 52128  1  0  0  0
 52129  1  0  0  0
 53 54  1  0  0  0
 54 55  2  0  0  0
 54130  1  0  0  0
 55 57  1  0  0  0
 55131  1  0  0  0
 56 69  2  0  0  0
 57 58  2  0  0  0
 57132  1  0  0  0
 58133  1  0  0  0
 59 60  1  0  0  0
 59 61  1  0  0  0
 59 62  1  0  0  0
 60134  1  0  0  0
 60135  1  0  0  0
 60136  1  0  0  0
 61137  1  0  0  0
 61138  1  0  0  0
 61139  1  0  0  0
 62140  1  0  0  0
 62141  1  0  0  0
 62142  1  0  0  0
 63 65  1  0  0  0
 63143  1  0  0  0
 63144  1  0  0  0
 63145  1  0  0  0
 64146  1  0  0  0
 65147  1  0  0  0
 68 84  1  0  0  0
 71 74  2  0  0  0
 71 75  1  0  0  0
 71148  1  0  0  0
 72 74  1  0  0  0
 72 76  2  0  0  0
 72149  1  0  0  0
 73 75  2  0  0  0
 73 76  1  0  0  0
 73150  1  0  0  0
 74 85  1  0  0  0
 75 86  1  0  0  0
 76 87  1  0  0  0
 77 79  1  0  0  0
 77 81  1  0  0  0
 77151  1  0  0  0
 77152  1  0  0  0
 78 80  1  0  0  0
 78 81  1  0  0  0
 78153  1  0  0  0
 78154  1  0  0  0
 79 85  1  0  0  0
 79155  1  0  0  0
 79156  1  0  0  0
 80 85  1  0  0  0
 80157  1  0  0  0
 80158  1  0  0  0
 81 84  1  0  0  0
 81 88  1  0  0  0
 82 87  1  0  0  0
 82159  1  0  0  0
 82160  1  0  0  0
 82161  1  0  0  0
 83 88  1  0  0  0
 83162  1  0  0  0
 83163  1  0  0  0
 83164  1  0  0  0
 84165  1  0  0  0
 84166  1  0  0  0
 86167  1  0  0  0
 87168  1  0  0  0
M  ISO  4   1 100  68 101  84 101  86 100
M  END
> <chiral flag>
0

> <version>
0

> <s_m_source_file>
/data/baiqing/PycharmProjects/Reinvent-master-3.2/result/LINK_invent/BTK/process_docking_weight1_custom_product_contain_oxygen_bond_distance_aromatic_linkinvent_7_9_3/rearranged_h_0161.sdf

> <i_m_source_file_index>
55

> <r_mmod_Potential_Energy-OPLS-2005>
266.218444824219

> <r_mmod_Stretch_Energy-OPLS-2005>
93.3009262084961

> <r_mmod_Bend_Energy-OPLS-2005>
152.853424072266

> <r_mmod_Torsional_Energy-OPLS-2005>
337.099884033203

> <r_mmod_Improper_Torsional_Energy-OPLS-2005>
15.7323169708252

> <r_mmod_Van_der_Waal_Energy-OPLS-2005>
151.322616577148

> <r_mmod_Electrostatic_Energy-OPLS-2005>
-282.70556640625

> <r_mmod_Solvation_Energy-OPLS-2005>
-256.852020263672

> <b_mmod_Minimization_Converged-OPLS-2005>
0

> <r_mmod_RMS_Derivative-OPLS-2005>
3.78657913208008

$$$$
55
                    3D
 Structure written by MMmdl.
159167  0  0  1  0            999 V2000
  -30.6741  -14.5418   20.5554 C   0  0  0  0  0  0
  -30.4299  -12.3481   19.4353 C   0  0  0  0  0  0
  -29.5044  -12.4840   18.2077 C   0  0  0  0  0  0
  -28.0215  -12.3445   18.6162 C   0  0  0  0  0  0
  -27.6480  -13.2075   19.8510 C   0  0  2  0  0  0
  -28.6913  -13.0479   20.9796 C   0  0  0  0  0  0
  -25.2540  -13.8141   20.5648 C   0  0  0  0  0  0
  -24.1822  -13.0421   20.9216 C   0  0  0  0  0  0
  -24.6372  -11.6895   20.8739 C   0  0  0  0  0  0
  -23.9037  -10.4287   21.0405 C   0  0  0  0  0  0
  -24.3604   -9.4209   21.9178 C   0  0  0  0  0  0
  -23.6294   -8.2231   22.0748 C   0  0  0  0  0  0
  -22.4269   -8.0265   21.3546 C   0  0  0  0  0  0
  -21.9891   -9.0225   20.4651 C   0  0  0  0  0  0
  -22.7205  -10.2113   20.3057 C   0  0  0  0  0  0
  -21.6849   -6.0731   22.5284 C   0  0  0  0  0  0
  -21.4007   -6.5633   23.8217 C   0  0  0  0  0  0
  -21.3667   -5.6790   24.9180 C   0  0  0  0  0  0
  -21.6040   -4.3053   24.7229 C   0  0  0  0  0  0
  -21.8824   -3.8147   23.4352 C   0  0  0  0  0  0
  -21.9190   -4.6963   22.3411 C   0  0  0  0  0  0
  -22.7854  -13.5229   21.1880 C   0  0  0  0  0  0
  -22.1661   -4.2150   21.0988 F   0  0  0  0  0  0
  -21.5635   -3.4538   25.7740 F   0  0  0  0  0  0
  -30.0094  -13.3612   20.4139 N   0  0  0  0  0  0
  -26.2947  -12.9311   20.3220 N   0  0  0  0  0  0
  -25.9288  -11.6484   20.5707 N   0  0  0  0  0  0
  -22.0471  -12.8238   22.0436 N   0  0  0  0  0  0
  -25.4209  -15.1857   20.4011 N   0  0  0  0  0  0
  -31.8563  -14.7015   20.2304 O   0  0  0  0  0  0
  -21.6642   -6.8859   21.4233 O   0  0  0  0  0  0
  -22.3546  -14.5524   20.6700 O   0  0  0  0  0  0
  -24.6193  -31.8631   23.2072 C   0  0  0  0  0  0
  -25.9065  -32.4801   23.8380 C   0  0  1  0  0  0
  -27.2283  -27.3828   20.1205 C   0  0  0  0  0  0
  -25.5915  -33.8601   24.2321 N   0  0  0  0  0  0
  -23.4111  -30.4860   21.5488 C   0  0  2  0  0  0
  -24.8583  -28.9463   20.1141 C   0  0  0  0  0  0
  -22.7443  -29.4617   22.4976 C   0  0  0  0  0  0
  -18.0284  -28.1364   22.8492 C   0  0  0  0  0  0
  -24.1484  -36.7305   23.2629 C   0  0  0  0  0  0
  -25.9444  -30.8159   21.3666 C   0  0  0  0  0  0
  -26.0216  -29.4473   20.7124 C   0  0  0  0  0  0
  -27.2136  -28.6761   20.7060 C   0  0  0  0  0  0
  -26.0500  -26.9139   19.5024 C   0  0  0  0  0  0
  -24.8702  -27.6823   19.5008 C   0  0  0  0  0  0
  -23.6219  -29.8179   20.1632 C   0  0  0  0  0  0
  -25.4099  -36.3092   24.0340 C   0  0  1  0  0  0
  -20.5876  -28.3646   23.1324 C   0  0  2  0  0  0
  -20.6766  -26.9379   22.5441 C   0  0  0  0  0  0
  -19.5756  -26.6358   21.5228 C   0  0  0  0  0  0
  -18.1924  -26.7909   22.1619 C   0  0  0  0  0  0
  -19.1535  -28.8828   23.2899 C   0  0  0  0  0  0
  -18.9448  -30.1436   23.8907 C   0  0  0  0  0  0
  -17.6447  -30.6570   24.0555 C   0  0  0  0  0  0
  -25.9045  -34.9459   23.5125 C   0  0  0  0  0  0
  -16.5341  -29.9063   23.6324 C   0  0  0  0  0  0
  -16.7273  -28.6479   23.0347 C   0  0  0  0  0  0
  -26.4478  -31.6590   25.0723 C   0  0  0  0  0  0
  -25.3738  -31.3719   26.1478 C   0  0  0  0  0  0
  -27.0285  -30.3012   24.6121 C   0  0  0  0  0  0
  -27.6100  -32.4268   25.7455 C   0  0  0  0  0  0
  -27.5615  -37.1753   24.8422 C   0  0  0  0  0  0
  -21.4169  -29.3003   22.3726 N   0  0  0  0  0  0
  -26.4265  -37.3808   23.9454 N   0  0  0  0  0  0
  -24.6767  -31.0697   22.0991 N   0  0  0  0  0  0
  -23.4198  -28.8156   23.3024 O   0  0  0  0  0  0
  -28.3593  -26.5821   20.1357 O   0  0  0  0  0  0
  -26.5609  -34.8926   22.4689 O   0  0  0  0  0  0
  -23.5379  -32.1400   23.7445 O   0  0  0  0  0  0
  -30.1871  -18.0897   20.1671 C   0  0  0  0  0  0
  -30.4120  -18.0153   18.8104 C   0  0  0  0  0  0
  -29.7561  -20.2758   19.6398 C   0  0  0  0  0  0
  -30.3979  -16.9558   21.1092 C   0  0  0  0  0  0
  -28.8840  -24.1027   19.9771 C   0  0  0  0  0  0
  -31.8894  -17.0248   24.5978 C   0  0  0  0  0  0
  -28.9503  -22.6819   20.6254 C   0  0  0  0  0  0
  -28.1879  -25.2655   20.7470 C   0  0  0  0  0  0
  -31.3497  -16.2804   23.3693 C   0  0  0  0  0  0
  -29.8346  -19.3814   20.6498 N   0  0  0  0  0  0
  -30.8559  -16.9486   18.0291 N   0  0  0  0  0  0
  -29.4299  -21.6444   19.6904 N   0  0  0  0  0  0
  -29.8811  -15.7198   20.8435 N   0  0  0  0  0  0
  -31.0907  -17.2003   22.2467 N   0  3  0  0  0  0
  -29.3705  -24.2819   18.8525 O   0  0  0  0  0  0
  -30.1280  -19.5665   18.0624 S   0  0  0  0  0  0
  -31.4750  -12.4632   19.1425 H   0  0  0  0  0  0
  -30.3506  -11.3496   19.8669 H   0  0  0  0  0  0
  -29.7611  -11.7257   17.4664 H   0  0  0  0  0  0
  -29.6675  -13.4487   17.7257 H   0  0  0  0  0  0
  -27.8368  -11.2917   18.8303 H   0  0  0  0  0  0
  -27.3758  -12.5947   17.7740 H   0  0  0  0  0  0
  -27.6684  -14.2441   19.5158 H   0  0  0  0  0  0
  -28.6810  -12.0270   21.3643 H   0  0  0  0  0  0
  -28.4485  -13.6835   21.8321 H   0  0  0  0  0  0
  -25.2744   -9.5706   22.4751 H   0  0  0  0  0  0
  -24.0030   -7.4620   22.7452 H   0  0  0  0  0  0
  -21.0830   -8.8720   19.8952 H   0  0  0  0  0  0
  -22.3638  -10.9651   19.6181 H   0  0  0  0  0  0
  -21.1985   -7.6141   23.9721 H   0  0  0  0  0  0
  -21.1491   -6.0519   25.9081 H   0  0  0  0  0  0
  -22.0596   -2.7609   23.2849 H   0  0  0  0  0  0
  -22.4059  -11.9919   22.4887 H   0  0  0  0  0  0
  -21.1079  -13.1278   22.2599 H   0  0  0  0  0  0
  -24.6233  -15.8099   20.4687 H   0  0  0  0  0  0
  -26.1983  -15.6029   19.9079 H   0  0  0  0  0  0
  -26.7143  -32.5493   23.1152 H   0  0  0  0  0  0
  -25.0056  -33.9747   25.0459 H   0  0  0  0  0  0
  -22.7026  -31.3040   21.4090 H   0  0  0  0  0  0
  -23.3781  -35.9593   23.3182 H   0  0  0  0  0  0
  -24.3627  -36.9033   22.2070 H   0  0  0  0  0  0
  -23.7168  -37.6449   23.6716 H   0  0  0  0  0  0
  -26.0630  -31.5812   20.5980 H   0  0  0  0  0  0
  -26.8308  -30.8697   21.9866 H   0  0  0  0  0  0
  -28.1094  -29.0574   21.1755 H   0  0  0  0  0  0
  -26.0386  -25.9445   19.0238 H   0  0  0  0  0  0
  -23.9775  -27.2937   19.0301 H   0  0  0  0  0  0
  -23.7349  -30.5942   19.4058 H   0  0  0  0  0  0
  -22.7448  -29.2398   19.8650 H   0  0  0  0  0  0
  -25.1255  -36.1936   25.0829 H   0  0  0  0  0  0
  -20.9973  -28.3198   24.1442 H   0  0  0  0  0  0
  -20.5649  -26.2244   23.3622 H   0  0  0  0  0  0
  -21.6639  -26.7389   22.1247 H   0  0  0  0  0  0
  -19.6905  -25.6271   21.1253 H   0  0  0  0  0  0
  -19.6712  -27.3178   20.6769 H   0  0  0  0  0  0
  -17.4207  -26.6687   21.3998 H   0  0  0  0  0  0
  -18.0294  -26.0044   22.9004 H   0  0  0  0  0  0
  -19.7921  -30.7256   24.2269 H   0  0  0  0  0  0
  -17.4991  -31.6256   24.5137 H   0  0  0  0  0  0
  -15.5334  -30.2956   23.7636 H   0  0  0  0  0  0
  -15.8676  -28.0796   22.7051 H   0  0  0  0  0  0
  -24.5918  -30.7052   25.7825 H   0  0  0  0  0  0
  -24.8919  -32.2880   26.4905 H   0  0  0  0  0  0
  -25.8085  -30.8907   27.0250 H   0  0  0  0  0  0
  -26.2821  -29.6773   24.1191 H   0  0  0  0  0  0
  -27.4050  -29.7255   25.4589 H   0  0  0  0  0  0
  -27.8673  -30.4307   23.9275 H   0  0  0  0  0  0
  -27.2795  -33.3586   26.2057 H   0  0  0  0  0  0
  -28.3898  -32.6776   25.0249 H   0  0  0  0  0  0
  -28.0780  -31.8348   26.5335 H   0  0  0  0  0  0
  -28.2491  -38.0189   24.7705 H   0  0  0  0  0  0
  -28.1251  -36.2752   24.5928 H   0  0  0  0  0  0
  -27.2394  -37.1012   25.8822 H   0  0  0  0  0  0
  -20.9325  -29.8728   21.6957 H   0  0  0  0  0  0
  -26.0141  -38.2843   24.1616 H   0  0  0  0  0  0
  -31.9955  -16.3452   25.4436 H   0  0  0  0  0  0
  -31.2206  -17.8293   24.9074 H   0  0  0  0  0  0
  -32.8705  -17.4584   24.4017 H   0  0  0  0  0  0
  -27.9554  -22.4153   20.9841 H   0  0  0  0  0  0
  -29.6073  -22.7179   21.4954 H   0  0  0  0  0  0
  -28.5985  -25.2996   21.7563 H   0  0  0  0  0  0
  -27.1349  -25.0080   20.8609 H   0  0  0  0  0  0
  -30.4196  -15.7757   23.6373 H   0  0  0  0  0  0
  -32.0531  -15.5043   23.0623 H   0  0  0  0  0  0
  -31.4811  -16.2545   18.4305 H   0  0  0  0  0  0
  -31.1185  -17.1350   17.0650 H   0  0  0  0  0  0
  -29.5353  -22.0814   18.7759 H   0  0  0  0  0  0
  -28.8789  -15.7068   20.7933 H   0  0  0  0  0  0
  -31.4537  -18.1386   22.3491 H   0  0  0  0  0  0
  1 25  1  0  0  0
  1 30  2  0  0  0
  1 83  1  0  0  0
  2  3  1  0  0  0
  2 25  1  0  0  0
  2 87  1  0  0  0
  2 88  1  0  0  0
  3  4  1  0  0  0
  3 89  1  0  0  0
  3 90  1  0  0  0
  4  5  1  0  0  0
  4 91  1  0  0  0
  4 92  1  0  0  0
  5  6  1  0  0  0
  5 26  1  0  0  0
  5 93  1  0  0  0
  6 25  1  0  0  0
  6 94  1  0  0  0
  6 95  1  0  0  0
  7  8  2  0  0  0
  7 26  1  0  0  0
  7 29  1  0  0  0
  8  9  1  0  0  0
  8 22  1  0  0  0
  9 10  1  0  0  0
  9 27  2  0  0  0
 10 11  2  0  0  0
 10 15  1  0  0  0
 11 12  1  0  0  0
 11 96  1  0  0  0
 12 13  2  0  0  0
 12 97  1  0  0  0
 13 14  1  0  0  0
 13 31  1  0  0  0
 14 15  2  0  0  0
 14 98  1  0  0  0
 15 99  1  0  0  0
 16 17  2  0  0  0
 16 21  1  0  0  0
 16 31  1  0  0  0
 17 18  1  0  0  0
 17100  1  0  0  0
 18 19  2  0  0  0
 18101  1  0  0  0
 19 20  1  0  0  0
 19 24  1  0  0  0
 20 21  2  0  0  0
 20102  1  0  0  0
 21 23  1  0  0  0
 22 28  1  0  0  0
 22 32  2  0  0  0
 26 27  1  0  0  0
 28103  1  0  0  0
 28104  1  0  0  0
 29105  1  0  0  0
 29106  1  0  0  0
 33 34  1  0  0  0
 33 66  1  0  0  0
 33 70  2  0  0  0
 34 36  1  0  0  0
 34 59  1  0  0  0
 34107  1  0  0  0
 35 44  2  0  0  0
 35 45  1  0  0  0
 35 68  1  0  0  0
 36 56  1  0  0  0
 36108  1  0  0  0
 37 39  1  0  0  0
 37 47  1  0  0  0
 37 66  1  0  0  0
 37109  1  0  0  0
 38 43  2  0  0  0
 38 46  1  0  0  0
 38 47  1  0  0  0
 39 64  1  0  0  0
 39 67  2  0  0  0
 40 52  1  0  0  0
 40 53  2  0  0  0
 40 58  1  0  0  0
 41110  1  0  0  0
 41111  1  0  0  0
 41112  1  0  0  0
 41 48  1  0  0  0
 42 43  1  0  0  0
 42 66  1  0  0  0
 42113  1  0  0  0
 42114  1  0  0  0
 43 44  1  0  0  0
 44115  1  0  0  0
 45 46  2  0  0  0
 45116  1  0  0  0
 46117  1  0  0  0
 47118  1  0  0  0
 47119  1  0  0  0
 48 56  1  0  0  0
 48 65  1  0  0  0
 48120  1  0  0  0
 49 50  1  0  0  0
 49 53  1  0  0  0
 49 64  1  0  0  0
 49121  1  0  0  0
 50 51  1  0  0  0
 50122  1  0  0  0
 50123  1  0  0  0
 51 52  1  0  0  0
 51124  1  0  0  0
 51125  1  0  0  0
 52126  1  0  0  0
 52127  1  0  0  0
 53 54  1  0  0  0
 54 55  2  0  0  0
 54128  1  0  0  0
 55 57  1  0  0  0
 55129  1  0  0  0
 56 69  2  0  0  0
 57 58  2  0  0  0
 57130  1  0  0  0
 58131  1  0  0  0
 59 60  1  0  0  0
 59 61  1  0  0  0
 59 62  1  0  0  0
 60132  1  0  0  0
 60133  1  0  0  0
 60134  1  0  0  0
 61135  1  0  0  0
 61136  1  0  0  0
 61137  1  0  0  0
 62138  1  0  0  0
 62139  1  0  0  0
 62140  1  0  0  0
 63 65  1  0  0  0
 63141  1  0  0  0
 63142  1  0  0  0
 63143  1  0  0  0
 64144  1  0  0  0
 65145  1  0  0  0
 68 78  1  0  0  0
 71 72  2  0  0  0
 71 74  1  0  0  0
 71 80  1  0  0  0
 72 81  1  0  0  0
 72 86  1  0  0  0
 73 80  2  0  0  0
 73 82  1  0  0  0
 73 86  1  0  0  0
 74 83  1  0  0  0
 74 84  2  0  0  0
 75 77  1  0  0  0
 75 78  1  0  0  0
 75 85  2  0  0  0
 76 79  1  0  0  0
 76146  1  0  0  0
 76147  1  0  0  0
 76148  1  0  0  0
 77 82  1  0  0  0
 77149  1  0  0  0
 77150  1  0  0  0
 78151  1  0  0  0
 78152  1  0  0  0
 79 84  1  0  0  0
 79153  1  0  0  0
 79154  1  0  0  0
 81155  1  0  0  0
 81156  1  0  0  0
 82157  1  0  0  0
 83158  1  0  0  0
 84159  1  0  0  0
M  CHG  1  84   1
M  ISO  4   1 100  68 101  78 101  83 100
M  END
> <chiral flag>
0

> <version>
0

> <s_m_source_file>
/data/baiqing/PycharmProjects/Reinvent-master-3.2/result/LINK_invent/BTK/process_docking_weight1_custom_product_contain_oxygen_bond_distance_aromatic_linkinvent_7_9_3/rearranged_h_0161.sdf

> <i_m_source_file_index>
56

> <r_mmod_Potential_Energy-OPLS-2005>
-96.93701171875

> <r_mmod_Stretch_Energy-OPLS-2005>
48.8165969848633

> <r_mmod_Bend_Energy-OPLS-2005>
119.88907623291

> <r_mmod_Torsional_Energy-OPLS-2005>
299.047393798828

> <r_mmod_Improper_Torsional_Energy-OPLS-2005>
10.7156734466553

> <r_mmod_Van_der_Waal_Energy-OPLS-2005>
112.509071350098

> <r_mmod_Electrostatic_Energy-OPLS-2005>
-264.808929443359

> <r_mmod_Solvation_Energy-OPLS-2005>
-451.507659912109

> <b_mmod_Minimization_Converged-OPLS-2005>
0

> <r_mmod_RMS_Derivative-OPLS-2005>
2.4589900970459

$$$$
56
                    3D
 Structure written by MMmdl.
149157  0  0  1  0            999 V2000
  -30.4810  -15.0704   20.3943 C   0  0  0  0  0  0
  -30.4417  -12.6629   19.5268 C   0  0  0  0  0  0
  -29.5324  -12.5578   18.2775 C   0  0  0  0  0  0
  -28.0679  -12.3220   18.6876 C   0  0  0  0  0  0
  -27.6270  -13.2592   19.8408 C   0  0  2  0  0  0
  -28.6624  -13.3246   20.9849 C   0  0  0  0  0  0
  -25.2444  -13.8230   20.5716 C   0  0  0  0  0  0
  -24.1768  -13.0437   20.9219 C   0  0  0  0  0  0
  -24.6396  -11.6927   20.8738 C   0  0  0  0  0  0
  -23.9083  -10.4293   21.0394 C   0  0  0  0  0  0
  -24.3630   -9.4210   21.9174 C   0  0  0  0  0  0
  -23.6306   -8.2243   22.0748 C   0  0  0  0  0  0
  -22.4287   -8.0279   21.3540 C   0  0  0  0  0  0
  -21.9926   -9.0251   20.4640 C   0  0  0  0  0  0
  -22.7252  -10.2131   20.3047 C   0  0  0  0  0  0
  -21.6860   -6.0734   22.5277 C   0  0  0  0  0  0
  -21.4019   -6.5636   23.8211 C   0  0  0  0  0  0
  -21.3666   -5.6790   24.9174 C   0  0  0  0  0  0
  -21.6047   -4.3052   24.7225 C   0  0  0  0  0  0
  -21.8821   -3.8144   23.4346 C   0  0  0  0  0  0
  -21.9197   -4.6962   22.3401 C   0  0  0  0  0  0
  -22.7791  -13.5200   21.1886 C   0  0  0  0  0  0
  -22.1665   -4.2144   21.0981 F   0  0  0  0  0  0
  -21.5633   -3.4536   25.7739 F   0  0  0  0  0  0
  -29.9312  -13.7746   20.3947 N   0  0  0  0  0  0
  -26.2874  -12.9479   20.3244 N   0  0  0  0  0  0
  -25.9333  -11.6595   20.5719 N   0  0  0  0  0  0
  -22.0450  -12.8175   22.0441 N   0  0  0  0  0  0
  -25.4112  -15.1964   20.4162 N   0  0  0  0  0  0
  -31.6681  -15.1391   20.0500 O   0  0  0  0  0  0
  -21.6649   -6.8877   21.4239 O   0  0  0  0  0  0
  -22.3468  -14.5505   20.6741 O   0  0  0  0  0  0
  -24.6506  -31.8353   23.1792 C   0  0  0  0  0  0
  -25.9241  -32.4648   23.8217 C   0  0  1  0  0  0
  -27.2238  -27.0521   20.1593 C   0  0  0  0  0  0
  -25.5956  -33.8459   24.2131 N   0  0  0  0  0  0
  -23.4593  -30.4496   21.5258 C   0  0  2  0  0  0
  -24.9116  -28.8601   20.1036 C   0  0  0  0  0  0
  -22.7607  -29.4495   22.4819 C   0  0  0  0  0  0
  -18.0313  -28.1403   22.8476 C   0  0  0  0  0  0
  -24.1492  -36.7236   23.2643 C   0  0  0  0  0  0
  -26.0190  -30.6802   21.3915 C   0  0  0  0  0  0
  -26.0876  -29.2832   20.7330 C   0  0  0  0  0  0
  -27.2360  -28.3941   20.7459 C   0  0  0  0  0  0
  -26.0215  -26.7497   19.4818 C   0  0  0  0  0  0
  -24.8964  -27.6107   19.4618 C   0  0  0  0  0  0
  -23.6908  -29.7716   20.1470 C   0  0  0  0  0  0
  -25.4129  -36.3008   24.0305 C   0  0  1  0  0  0
  -20.5930  -28.3737   23.1220 C   0  0  2  0  0  0
  -20.6794  -26.9430   22.5410 C   0  0  0  0  0  0
  -19.5767  -26.6379   21.5220 C   0  0  0  0  0  0
  -18.1947  -26.7938   22.1627 C   0  0  0  0  0  0
  -19.1572  -28.8889   23.2838 C   0  0  0  0  0  0
  -18.9485  -30.1482   23.8867 C   0  0  0  0  0  0
  -17.6479  -30.6598   24.0559 C   0  0  0  0  0  0
  -25.9088  -34.9384   23.5037 C   0  0  0  0  0  0
  -16.5369  -29.9088   23.6337 C   0  0  0  0  0  0
  -16.7296  -28.6507   23.0359 C   0  0  0  0  0  0
  -26.4534  -31.6552   25.0700 C   0  0  0  0  0  0
  -25.3691  -31.3771   26.1378 C   0  0  0  0  0  0
  -27.0408  -30.2931   24.6349 C   0  0  0  0  0  0
  -27.6047  -32.4336   25.7498 C   0  0  0  0  0  0
  -27.5575  -37.1776   24.8464 C   0  0  0  0  0  0
  -21.4291  -29.3043   22.3575 N   0  0  0  0  0  0
  -26.4287  -37.3731   23.9405 N   0  0  0  0  0  0
  -24.7297  -31.0128   22.0866 N   0  0  0  0  0  0
  -23.4210  -28.8063   23.3017 O   0  0  0  0  0  0
  -28.2629  -26.0333   20.3123 O   0  0  0  0  0  0
  -26.5694  -34.8900   22.4630 O   0  0  0  0  0  0
  -23.5605  -32.1269   23.6965 O   0  0  0  0  0  0
  -29.9009  -18.2986   18.9986 C   0  0  0  0  0  0
  -29.6941  -17.7754   20.3136 C   0  0  0  0  0  0
  -29.7315  -24.6685   18.9367 C   0  0  0  0  0  0
  -28.2307  -22.9241   20.2317 C   0  0  0  0  0  0
  -29.3683  -21.6491   20.5080 C   0  0  0  0  0  0
  -28.3987  -24.5737   19.6854 C   0  0  1  0  0  0
  -29.6897  -19.6169   18.9074 N   0  0  0  0  0  0
  -29.3399  -18.8970   21.0283 N   0  0  0  0  0  0
  -29.3319  -20.0592   20.1570 N   0  0  0  0  0  0
  -29.6984  -16.2513   20.6856 N   0  0  0  0  0  0
  -31.4740  -12.8304   19.2168 H   0  0  0  0  0  0
  -30.4517  -11.7199   20.0759 H   0  0  0  0  0  0
  -29.8737  -11.7540   17.6233 H   0  0  0  0  0  0
  -29.6058  -13.4780   17.6961 H   0  0  0  0  0  0
  -27.9776  -11.2826   19.0048 H   0  0  0  0  0  0
  -27.4073  -12.4374   17.8271 H   0  0  0  0  0  0
  -27.5781  -14.2544   19.3979 H   0  0  0  0  0  0
  -28.7716  -12.3554   21.4742 H   0  0  0  0  0  0
  -28.3344  -14.0230   21.7557 H   0  0  0  0  0  0
  -25.2773   -9.5690   22.4752 H   0  0  0  0  0  0
  -24.0016   -7.4638   22.7472 H   0  0  0  0  0  0
  -21.0858   -8.8768   19.8945 H   0  0  0  0  0  0
  -22.3707  -10.9668   19.6157 H   0  0  0  0  0  0
  -21.2006   -7.6144   23.9711 H   0  0  0  0  0  0
  -21.1491   -6.0520   25.9077 H   0  0  0  0  0  0
  -22.0595   -2.7605   23.2848 H   0  0  0  0  0  0
  -22.4090  -11.9846   22.4826 H   0  0  0  0  0  0
  -21.1059  -13.1176   22.2647 H   0  0  0  0  0  0
  -24.6420  -15.8483   20.5264 H   0  0  0  0  0  0
  -26.2555  -15.6369   20.0747 H   0  0  0  0  0  0
  -26.7307  -32.5224   23.0938 H   0  0  0  0  0  0
  -25.0052  -33.9558   25.0244 H   0  0  0  0  0  0
  -22.7658  -31.2774   21.3643 H   0  0  0  0  0  0
  -23.3767  -35.9556   23.3286 H   0  0  0  0  0  0
  -24.3568  -36.8897   22.2061 H   0  0  0  0  0  0
  -23.7236  -37.6416   23.6705 H   0  0  0  0  0  0
  -26.1863  -31.4299   20.6169 H   0  0  0  0  0  0
  -26.8846  -30.7320   22.0401 H   0  0  0  0  0  0
  -28.1248  -28.7095   21.2743 H   0  0  0  0  0  0
  -25.9012  -25.7889   19.0058 H   0  0  0  0  0  0
  -23.9977  -27.2803   18.9591 H   0  0  0  0  0  0
  -23.8320  -30.5438   19.3899 H   0  0  0  0  0  0
  -22.8037  -29.2171   19.8356 H   0  0  0  0  0  0
  -25.1324  -36.1822   25.0797 H   0  0  0  0  0  0
  -21.0021  -28.3337   24.1342 H   0  0  0  0  0  0
  -20.5685  -26.2353   23.3640 H   0  0  0  0  0  0
  -21.6658  -26.7424   22.1209 H   0  0  0  0  0  0
  -19.6928  -25.6281   21.1273 H   0  0  0  0  0  0
  -19.6704  -27.3171   20.6735 H   0  0  0  0  0  0
  -17.4218  -26.6685   21.4030 H   0  0  0  0  0  0
  -18.0340  -26.0087   22.9030 H   0  0  0  0  0  0
  -19.7957  -30.7308   24.2222 H   0  0  0  0  0  0
  -17.5030  -31.6272   24.5168 H   0  0  0  0  0  0
  -15.5370  -30.2981   23.7674 H   0  0  0  0  0  0
  -15.8697  -28.0815   22.7090 H   0  0  0  0  0  0
  -24.5881  -30.7112   25.7692 H   0  0  0  0  0  0
  -24.8871  -32.2965   26.4713 H   0  0  0  0  0  0
  -25.7948  -30.8998   27.0214 H   0  0  0  0  0  0
  -26.3039  -29.6636   24.1347 H   0  0  0  0  0  0
  -27.3972  -29.7258   25.4958 H   0  0  0  0  0  0
  -27.8971  -30.4138   23.9711 H   0  0  0  0  0  0
  -27.2625  -33.3665   26.1991 H   0  0  0  0  0  0
  -28.3904  -32.6850   25.0362 H   0  0  0  0  0  0
  -28.0664  -31.8518   26.5485 H   0  0  0  0  0  0
  -28.2581  -38.0083   24.7515 H   0  0  0  0  0  0
  -28.1085  -36.2612   24.6292 H   0  0  0  0  0  0
  -27.2291  -37.1421   25.8866 H   0  0  0  0  0  0
  -20.9520  -29.8735   21.6724 H   0  0  0  0  0  0
  -26.0147  -38.2796   24.1408 H   0  0  0  0  0  0
  -30.1642  -17.7375   18.1123 H   0  0  0  0  0  0
  -29.7815  -25.5762   18.3346 H   0  0  0  0  0  0
  -29.8676  -23.8229   18.2622 H   0  0  0  0  0  0
  -30.5717  -24.6824   19.6316 H   0  0  0  0  0  0
  -27.5674  -22.9473   21.0961 H   0  0  0  0  0  0
  -27.5975  -22.4822   19.4618 H   0  0  0  0  0  0
  -29.6120  -21.6998   21.5688 H   0  0  0  0  0  0
  -30.2843  -21.9963   20.0315 H   0  0  0  0  0  0
  -27.6562  -24.6068   18.8911 H   0  0  0  0  0  0
  -28.8605  -15.9912   21.1829 H   0  0  0  0  0  0
  1 25  1  0  0  0
  1 30  2  0  0  0
  1 80  1  0  0  0
  2  3  1  0  0  0
  2 25  1  0  0  0
  2 81  1  0  0  0
  2 82  1  0  0  0
  3  4  1  0  0  0
  3 83  1  0  0  0
  3 84  1  0  0  0
  4  5  1  0  0  0
  4 85  1  0  0  0
  4 86  1  0  0  0
  5  6  1  0  0  0
  5 26  1  0  0  0
  5 87  1  0  0  0
  6 25  1  0  0  0
  6 88  1  0  0  0
  6 89  1  0  0  0
  7  8  2  0  0  0
  7 26  1  0  0  0
  7 29  1  0  0  0
  8  9  1  0  0  0
  8 22  1  0  0  0
  9 10  1  0  0  0
  9 27  2  0  0  0
 10 11  2  0  0  0
 10 15  1  0  0  0
 11 12  1  0  0  0
 11 90  1  0  0  0
 12 13  2  0  0  0
 12 91  1  0  0  0
 13 14  1  0  0  0
 13 31  1  0  0  0
 14 15  2  0  0  0
 14 92  1  0  0  0
 15 93  1  0  0  0
 16 17  2  0  0  0
 16 21  1  0  0  0
 16 31  1  0  0  0
 17 18  1  0  0  0
 17 94  1  0  0  0
 18 19  2  0  0  0
 18 95  1  0  0  0
 19 20  1  0  0  0
 19 24  1  0  0  0
 20 21  2  0  0  0
 20 96  1  0  0  0
 21 23  1  0  0  0
 22 28  1  0  0  0
 22 32  2  0  0  0
 26 27  1  0  0  0
 28 97  1  0  0  0
 28 98  1  0  0  0
 29 99  1  0  0  0
 29100  1  0  0  0
 33 34  1  0  0  0
 33 66  1  0  0  0
 33 70  2  0  0  0
 34 36  1  0  0  0
 34 59  1  0  0  0
 34101  1  0  0  0
 35 44  2  0  0  0
 35 45  1  0  0  0
 35 68  1  0  0  0
 36 56  1  0  0  0
 36102  1  0  0  0
 37 39  1  0  0  0
 37 47  1  0  0  0
 37 66  1  0  0  0
 37103  1  0  0  0
 38 43  2  0  0  0
 38 46  1  0  0  0
 38 47  1  0  0  0
 39 64  1  0  0  0
 39 67  2  0  0  0
 40 52  1  0  0  0
 40 53  2  0  0  0
 40 58  1  0  0  0
 41104  1  0  0  0
 41105  1  0  0  0
 41106  1  0  0  0
 41 48  1  0  0  0
 42 43  1  0  0  0
 42 66  1  0  0  0
 42107  1  0  0  0
 42108  1  0  0  0
 43 44  1  0  0  0
 44109  1  0  0  0
 45 46  2  0  0  0
 45110  1  0  0  0
 46111  1  0  0  0
 47112  1  0  0  0
 47113  1  0  0  0
 48 56  1  0  0  0
 48 65  1  0  0  0
 48114  1  0  0  0
 49 50  1  0  0  0
 49 53  1  0  0  0
 49 64  1  0  0  0
 49115  1  0  0  0
 50 51  1  0  0  0
 50116  1  0  0  0
 50117  1  0  0  0
 51 52  1  0  0  0
 51118  1  0  0  0
 51119  1  0  0  0
 52120  1  0  0  0
 52121  1  0  0  0
 53 54  1  0  0  0
 54 55  2  0  0  0
 54122  1  0  0  0
 55 57  1  0  0  0
 55123  1  0  0  0
 56 69  2  0  0  0
 57 58  2  0  0  0
 57124  1  0  0  0
 58125  1  0  0  0
 59 60  1  0  0  0
 59 61  1  0  0  0
 59 62  1  0  0  0
 60126  1  0  0  0
 60127  1  0  0  0
 60128  1  0  0  0
 61129  1  0  0  0
 61130  1  0  0  0
 61131  1  0  0  0
 62132  1  0  0  0
 62133  1  0  0  0
 62134  1  0  0  0
 63 65  1  0  0  0
 63135  1  0  0  0
 63136  1  0  0  0
 63137  1  0  0  0
 64138  1  0  0  0
 65139  1  0  0  0
 68 76  1  0  0  0
 71 72  1  0  0  0
 71 77  2  0  0  0
 71140  1  0  0  0
 72 78  2  0  0  0
 72 80  1  0  0  0
 73141  1  0  0  0
 73142  1  0  0  0
 73143  1  0  0  0
 73 76  1  0  0  0
 74 75  1  0  0  0
 74 76  1  0  0  0
 74144  1  0  0  0
 74145  1  0  0  0
 75 79  1  0  0  0
 75146  1  0  0  0
 75147  1  0  0  0
 76148  1  0  0  0
 77 79  1  0  0  0
 78 79  1  0  0  0
 80149  1  0  0  0
M  ISO  4   1 100  68 101  76 101  80 100
M  END
> <chiral flag>
0

> <version>
0

> <s_m_source_file>
/data/baiqing/PycharmProjects/Reinvent-master-3.2/result/LINK_invent/BTK/process_docking_weight1_custom_product_contain_oxygen_bond_distance_aromatic_linkinvent_7_9_3/rearranged_h_0161.sdf

> <i_m_source_file_index>
57

> <r_mmod_Potential_Energy-OPLS-2005>
777.853881835938

> <r_mmod_Stretch_Energy-OPLS-2005>
367.114532470703

> <r_mmod_Bend_Energy-OPLS-2005>
391.041137695312

> <r_mmod_Torsional_Energy-OPLS-2005>
261.525146484375

> <r_mmod_Improper_Torsional_Energy-OPLS-2005>
6.901930809021

> <r_mmod_Van_der_Waal_Energy-OPLS-2005>
107.021507263184

> <r_mmod_Electrostatic_Energy-OPLS-2005>
-416.835052490234

> <r_mmod_Solvation_Energy-OPLS-2005>
-222.825286865234

> <b_mmod_Minimization_Converged-OPLS-2005>
0

> <r_mmod_RMS_Derivative-OPLS-2005>
0.654014527797699

$$$$
57
                    3D
 Structure written by MMmdl.
159167  0  0  1  0            999 V2000
  -30.5643  -14.8050   20.4438 C   0  0  0  0  0  0
  -30.4430  -12.4929   19.4599 C   0  0  0  0  0  0
  -29.5106  -12.5072   18.2286 C   0  0  0  0  0  0
  -28.0381  -12.3219   18.6509 C   0  0  0  0  0  0
  -27.6371  -13.2288   19.8459 C   0  0  2  0  0  0
  -28.6888  -13.1792   20.9741 C   0  0  0  0  0  0
  -25.2492  -13.8178   20.5693 C   0  0  0  0  0  0
  -24.1794  -13.0425   20.9218 C   0  0  0  0  0  0
  -24.6395  -11.6906   20.8775 C   0  0  0  0  0  0
  -23.9072  -10.4284   21.0424 C   0  0  0  0  0  0
  -24.3619   -9.4200   21.9199 C   0  0  0  0  0  0
  -23.6292   -8.2238   22.0767 C   0  0  0  0  0  0
  -22.4275   -8.0279   21.3552 C   0  0  0  0  0  0
  -21.9907   -9.0258   20.4654 C   0  0  0  0  0  0
  -22.7242  -10.2134   20.3072 C   0  0  0  0  0  0
  -21.6849   -6.0733   22.5277 C   0  0  0  0  0  0
  -21.4009   -6.5637   23.8208 C   0  0  0  0  0  0
  -21.3662   -5.6792   24.9169 C   0  0  0  0  0  0
  -21.6041   -4.3050   24.7220 C   0  0  0  0  0  0
  -21.8818   -3.8143   23.4337 C   0  0  0  0  0  0
  -21.9193   -4.6961   22.3399 C   0  0  0  0  0  0
  -22.7813  -13.5215   21.1873 C   0  0  0  0  0  0
  -22.1657   -4.2150   21.0974 F   0  0  0  0  0  0
  -21.5637   -3.4534   25.7733 F   0  0  0  0  0  0
  -29.9745  -13.5581   20.3742 N   0  0  0  0  0  0
  -26.2917  -12.9374   20.3276 N   0  0  0  0  0  0
  -25.9323  -11.6530   20.5773 N   0  0  0  0  0  0
  -22.0458  -12.8222   22.0432 N   0  0  0  0  0  0
  -25.4116  -15.1902   20.4040 N   0  0  0  0  0  0
  -31.7778  -14.9130   20.2309 O   0  0  0  0  0  0
  -21.6632   -6.8882   21.4241 O   0  0  0  0  0  0
  -22.3514  -14.5538   20.6724 O   0  0  0  0  0  0
  -24.6389  -31.8515   23.1923 C   0  0  0  0  0  0
  -25.9195  -32.4736   23.8283 C   0  0  1  0  0  0
  -27.2224  -27.2166   20.1167 C   0  0  0  0  0  0
  -25.5975  -33.8536   24.2231 N   0  0  0  0  0  0
  -23.4329  -30.4789   21.5388 C   0  0  2  0  0  0
  -24.8738  -28.9152   20.1109 C   0  0  0  0  0  0
  -22.7527  -29.4618   22.4884 C   0  0  0  0  0  0
  -18.0303  -28.1427   22.8476 C   0  0  0  0  0  0
  -24.1489  -36.7247   23.2642 C   0  0  0  0  0  0
  -25.9827  -30.7534   21.3712 C   0  0  0  0  0  0
  -26.0514  -29.3734   20.7098 C   0  0  0  0  0  0
  -27.2225  -28.5421   20.6917 C   0  0  0  0  0  0
  -25.9921  -26.8209   19.5439 C   0  0  0  0  0  0
  -24.8529  -27.6475   19.5142 C   0  0  0  0  0  0
  -23.6491  -29.8111   20.1569 C   0  0  0  0  0  0
  -25.4119  -36.3049   24.0324 C   0  0  1  0  0  0
  -20.5910  -28.3739   23.1248 C   0  0  2  0  0  0
  -20.6809  -26.9461   22.5396 C   0  0  0  0  0  0
  -19.5786  -26.6398   21.5216 C   0  0  0  0  0  0
  -18.1962  -26.7954   22.1625 C   0  0  0  0  0  0
  -19.1566  -28.8895   23.2859 C   0  0  0  0  0  0
  -18.9507  -30.1495   23.8875 C   0  0  0  0  0  0
  -17.6524  -30.6619   24.0589 C   0  0  0  0  0  0
  -25.9073  -34.9432   23.5080 C   0  0  0  0  0  0
  -16.5405  -29.9133   23.6366 C   0  0  0  0  0  0
  -16.7305  -28.6562   23.0348 C   0  0  0  0  0  0
  -26.4503  -31.6575   25.0710 C   0  0  0  0  0  0
  -25.3680  -31.3792   26.1406 C   0  0  0  0  0  0
  -27.0363  -30.2986   24.6208 C   0  0  0  0  0  0
  -27.6047  -32.4322   25.7501 C   0  0  0  0  0  0
  -27.5575  -37.1769   24.8473 C   0  0  0  0  0  0
  -21.4227  -29.3088   22.3635 N   0  0  0  0  0  0
  -26.4276  -37.3771   23.9439 N   0  0  0  0  0  0
  -24.7058  -31.0452   22.0902 N   0  0  0  0  0  0
  -23.4217  -28.8150   23.2974 O   0  0  0  0  0  0
  -28.3597  -26.3524   20.1898 O   0  0  0  0  0  0
  -26.5648  -34.8914   22.4649 O   0  0  0  0  0  0
  -23.5546  -32.1355   23.7221 O   0  0  0  0  0  0
  -29.3921  -18.5861   22.9840 C   0  0  0  0  0  0
  -29.6132  -17.3580   22.3300 C   0  0  0  0  0  0
  -29.3012  -19.7848   22.2509 C   0  0  0  0  0  0
  -29.7439  -17.2968   20.9289 C   0  0  0  0  0  0
  -29.4407  -19.7537   20.8487 C   0  0  0  0  0  0
  -28.8139  -23.6935   20.5442 C   0  0  0  0  0  0
  -28.4892  -23.7970   17.1745 C   0  0  0  0  0  0
  -30.0760  -25.3081   19.0925 C   0  0  0  0  0  0
  -28.4404  -22.1460   20.2089 C   0  0  0  0  0  0
  -27.8128  -24.6561   18.2660 C   0  0  0  0  0  0
  -28.6355  -24.9804   19.5495 C   0  0  2  0  0  0
  -29.6465  -18.5122   20.2174 N   0  0  0  0  0  0
  -29.7079  -15.9075   20.3923 N   0  0  0  0  0  0
  -29.4834  -21.0235   20.1379 N   0  0  0  0  0  0
  -29.3128  -23.9041   21.6523 O   0  0  0  0  0  0
  -29.1203  -20.9567   22.9083 F   0  0  0  0  0  0
  -31.4778  -12.6463   19.1500 H   0  0  0  0  0  0
  -30.4162  -11.5231   19.9572 H   0  0  0  0  0  0
  -29.8005  -11.7230   17.5290 H   0  0  0  0  0  0
  -29.6235  -13.4511   17.6925 H   0  0  0  0  0  0
  -27.9091  -11.2742   18.9280 H   0  0  0  0  0  0
  -27.3755  -12.4949   17.8018 H   0  0  0  0  0  0
  -27.6199  -14.2453   19.4542 H   0  0  0  0  0  0
  -28.7465  -12.1813   21.4109 H   0  0  0  0  0  0
  -28.4214  -13.8576   21.7857 H   0  0  0  0  0  0
  -25.2756   -9.5673   22.4777 H   0  0  0  0  0  0
  -23.9988   -7.4628   22.7494 H   0  0  0  0  0  0
  -21.0838   -8.8782   19.8967 H   0  0  0  0  0  0
  -22.3697  -10.9683   19.6186 H   0  0  0  0  0  0
  -21.1991   -7.6141   23.9715 H   0  0  0  0  0  0
  -21.1493   -6.0514   25.9075 H   0  0  0  0  0  0
  -22.0599   -2.7608   23.2834 H   0  0  0  0  0  0
  -22.4044  -11.9854   22.4796 H   0  0  0  0  0  0
  -21.1104  -13.1299   22.2689 H   0  0  0  0  0  0
  -24.6269  -15.8270   20.4957 H   0  0  0  0  0  0
  -26.2255  -15.6318   19.9981 H   0  0  0  0  0  0
  -26.7272  -32.5344   23.1029 H   0  0  0  0  0  0
  -25.0141  -33.9659   25.0391 H   0  0  0  0  0  0
  -22.7331  -31.3052   21.3930 H   0  0  0  0  0  0
  -23.3770  -35.9560   23.3315 H   0  0  0  0  0  0
  -24.3565  -36.8858   22.2055 H   0  0  0  0  0  0
  -23.7205  -37.6433   23.6652 H   0  0  0  0  0  0
  -26.1227  -31.5133   20.6012 H   0  0  0  0  0  0
  -26.8617  -30.8009   22.0020 H   0  0  0  0  0  0
  -28.1261  -28.9046   21.1600 H   0  0  0  0  0  0
  -25.8392  -25.8339   19.1535 H   0  0  0  0  0  0
  -23.9394  -27.2793   19.0697 H   0  0  0  0  0  0
  -23.7820  -30.5888   19.4048 H   0  0  0  0  0  0
  -22.7627  -29.2541   19.8472 H   0  0  0  0  0  0
  -25.1300  -36.1881   25.0814 H   0  0  0  0  0  0
  -21.0030  -28.3332   24.1354 H   0  0  0  0  0  0
  -20.5744  -26.2365   23.3608 H   0  0  0  0  0  0
  -21.6677  -26.7498   22.1179 H   0  0  0  0  0  0
  -19.6986  -25.6302   21.1265 H   0  0  0  0  0  0
  -19.6732  -27.3189   20.6735 H   0  0  0  0  0  0
  -17.4236  -26.6709   21.4021 H   0  0  0  0  0  0
  -18.0373  -26.0093   22.9025 H   0  0  0  0  0  0
  -19.8007  -30.7311   24.2210 H   0  0  0  0  0  0
  -17.5112  -31.6296   24.5217 H   0  0  0  0  0  0
  -15.5427  -30.3066   23.7708 H   0  0  0  0  0  0
  -15.8685  -28.0912   22.7051 H   0  0  0  0  0  0
  -24.5883  -30.7109   25.7735 H   0  0  0  0  0  0
  -24.8837  -32.3003   26.4668 H   0  0  0  0  0  0
  -25.7934  -30.9079   27.0275 H   0  0  0  0  0  0
  -26.2967  -29.6723   24.1199 H   0  0  0  0  0  0
  -27.4056  -29.7235   25.4708 H   0  0  0  0  0  0
  -27.8818  -30.4285   23.9441 H   0  0  0  0  0  0
  -27.2649  -33.3666   26.1976 H   0  0  0  0  0  0
  -28.3887  -32.6822   25.0347 H   0  0  0  0  0  0
  -28.0654  -31.8504   26.5497 H   0  0  0  0  0  0
  -28.2574  -38.0085   24.7561 H   0  0  0  0  0  0
  -28.1092  -36.2622   24.6253 H   0  0  0  0  0  0
  -27.2290  -37.1335   25.8870 H   0  0  0  0  0  0
  -20.9427  -29.8834   21.6842 H   0  0  0  0  0  0
  -26.0152  -38.2829   24.1505 H   0  0  0  0  0  0
  -29.2841  -18.6111   24.0593 H   0  0  0  0  0  0
  -29.6309  -16.4540   22.9219 H   0  0  0  0  0  0
  -27.7553  -23.4762   16.4358 H   0  0  0  0  0  0
  -28.9706  -22.9032   17.5700 H   0  0  0  0  0  0
  -29.2486  -24.3633   16.6339 H   0  0  0  0  0  0
  -30.5834  -24.4461   18.6579 H   0  0  0  0  0  0
  -30.6956  -25.6387   19.9284 H   0  0  0  0  0  0
  -30.0853  -26.1053   18.3492 H   0  0  0  0  0  0
  -27.8645  -22.1173   19.2855 H   0  0  0  0  0  0
  -27.7217  -21.8534   20.9755 H   0  0  0  0  0  0
  -26.8890  -24.1522   18.5471 H   0  0  0  0  0  0
  -27.5369  -25.5906   17.7777 H   0  0  0  0  0  0
  -28.7645  -15.6017   20.2293 H   0  0  0  0  0  0
  -30.4154  -21.4227   20.1738 H   0  0  0  0  0  0
  1 25  1  0  0  0
  1 30  2  0  0  0
  1 83  1  0  0  0
  2  3  1  0  0  0
  2 25  1  0  0  0
  2 87  1  0  0  0
  2 88  1  0  0  0
  3  4  1  0  0  0
  3 89  1  0  0  0
  3 90  1  0  0  0
  4  5  1  0  0  0
  4 91  1  0  0  0
  4 92  1  0  0  0
  5  6  1  0  0  0
  5 26  1  0  0  0
  5 93  1  0  0  0
  6 25  1  0  0  0
  6 94  1  0  0  0
  6 95  1  0  0  0
  7  8  2  0  0  0
  7 26  1  0  0  0
  7 29  1  0  0  0
  8  9  1  0  0  0
  8 22  1  0  0  0
  9 10  1  0  0  0
  9 27  2  0  0  0
 10 11  2  0  0  0
 10 15  1  0  0  0
 11 12  1  0  0  0
 11 96  1  0  0  0
 12 13  2  0  0  0
 12 97  1  0  0  0
 13 14  1  0  0  0
 13 31  1  0  0  0
 14 15  2  0  0  0
 14 98  1  0  0  0
 15 99  1  0  0  0
 16 17  2  0  0  0
 16 21  1  0  0  0
 16 31  1  0  0  0
 17 18  1  0  0  0
 17100  1  0  0  0
 18 19  2  0  0  0
 18101  1  0  0  0
 19 20  1  0  0  0
 19 24  1  0  0  0
 20 21  2  0  0  0
 20102  1  0  0  0
 21 23  1  0  0  0
 22 28  1  0  0  0
 22 32  2  0  0  0
 26 27  1  0  0  0
 28103  1  0  0  0
 28104  1  0  0  0
 29105  1  0  0  0
 29106  1  0  0  0
 33 34  1  0  0  0
 33 66  1  0  0  0
 33 70  2  0  0  0
 34 36  1  0  0  0
 34 59  1  0  0  0
 34107  1  0  0  0
 35 44  2  0  0  0
 35 45  1  0  0  0
 35 68  1  0  0  0
 36 56  1  0  0  0
 36108  1  0  0  0
 37 39  1  0  0  0
 37 47  1  0  0  0
 37 66  1  0  0  0
 37109  1  0  0  0
 38 43  2  0  0  0
 38 46  1  0  0  0
 38 47  1  0  0  0
 39 64  1  0  0  0
 39 67  2  0  0  0
 40 52  1  0  0  0
 40 53  2  0  0  0
 40 58  1  0  0  0
 41110  1  0  0  0
 41111  1  0  0  0
 41112  1  0  0  0
 41 48  1  0  0  0
 42 43  1  0  0  0
 42 66  1  0  0  0
 42113  1  0  0  0
 42114  1  0  0  0
 43 44  1  0  0  0
 44115  1  0  0  0
 45 46  2  0  0  0
 45116  1  0  0  0
 46117  1  0  0  0
 47118  1  0  0  0
 47119  1  0  0  0
 48 56  1  0  0  0
 48 65  1  0  0  0
 48120  1  0  0  0
 49 50  1  0  0  0
 49 53  1  0  0  0
 49 64  1  0  0  0
 49121  1  0  0  0
 50 51  1  0  0  0
 50122  1  0  0  0
 50123  1  0  0  0
 51 52  1  0  0  0
 51124  1  0  0  0
 51125  1  0  0  0
 52126  1  0  0  0
 52127  1  0  0  0
 53 54  1  0  0  0
 54 55  2  0  0  0
 54128  1  0  0  0
 55 57  1  0  0  0
 55129  1  0  0  0
 56 69  2  0  0  0
 57 58  2  0  0  0
 57130  1  0  0  0
 58131  1  0  0  0
 59 60  1  0  0  0
 59 61  1  0  0  0
 59 62  1  0  0  0
 60132  1  0  0  0
 60133  1  0  0  0
 60134  1  0  0  0
 61135  1  0  0  0
 61136  1  0  0  0
 61137  1  0  0  0
 62138  1  0  0  0
 62139  1  0  0  0
 62140  1  0  0  0
 63 65  1  0  0  0
 63141  1  0  0  0
 63142  1  0  0  0
 63143  1  0  0  0
 64144  1  0  0  0
 65145  1  0  0  0
 68 81  1  0  0  0
 71 72  2  0  0  0
 71 73  1  0  0  0
 71146  1  0  0  0
 72 74  1  0  0  0
 72147  1  0  0  0
 73 75  2  0  0  0
 73 86  1  0  0  0
 74 82  2  0  0  0
 74 83  1  0  0  0
 75 82  1  0  0  0
 75 84  1  0  0  0
 76 79  1  0  0  0
 76 85  2  0  0  0
 76 81  1  0  0  0
 77 80  1  0  0  0
 77148  1  0  0  0
 77149  1  0  0  0
 77150  1  0  0  0
 78151  1  0  0  0
 78152  1  0  0  0
 78153  1  0  0  0
 78 81  1  0  0  0
 79 84  1  0  0  0
 79154  1  0  0  0
 79155  1  0  0  0
 80 81  1  0  0  0
 80156  1  0  0  0
 80157  1  0  0  0
 83158  1  0  0  0
 84159  1  0  0  0
M  ISO  4   1 100  68 101  81 101  83 100
M  END
> <chiral flag>
0

> <version>
0

> <s_m_source_file>
/data/baiqing/PycharmProjects/Reinvent-master-3.2/result/LINK_invent/BTK/process_docking_weight1_custom_product_contain_oxygen_bond_distance_aromatic_linkinvent_7_9_3/rearranged_h_0161.sdf

> <i_m_source_file_index>
58

> <r_mmod_Potential_Energy-OPLS-2005>
263.763641357422

> <r_mmod_Stretch_Energy-OPLS-2005>
164.817092895508

> <r_mmod_Bend_Energy-OPLS-2005>
250.055114746094

> <r_mmod_Torsional_Energy-OPLS-2005>
295.581451416016

> <r_mmod_Improper_Torsional_Energy-OPLS-2005>
17.4000835418701

> <r_mmod_Van_der_Waal_Energy-OPLS-2005>
141.073135375977

> <r_mmod_Electrostatic_Energy-OPLS-2005>
-465.130065917969

> <r_mmod_Solvation_Energy-OPLS-2005>
-251.696731567383

> <b_mmod_Minimization_Converged-OPLS-2005>
0

> <r_mmod_RMS_Derivative-OPLS-2005>
3.02034497261047

$$$$
58
                    3D
 Structure written by MMmdl.
163172  0  0  1  0            999 V2000
  -30.6727  -14.6401   20.4613 C   0  0  0  0  0  0
  -30.4200  -12.3804   19.4844 C   0  0  0  0  0  0
  -29.5128  -12.4887   18.2404 C   0  0  0  0  0  0
  -28.0328  -12.3374   18.6434 C   0  0  0  0  0  0
  -27.6481  -13.2286   19.8553 C   0  0  2  0  0  0
  -28.6888  -13.1417   20.9942 C   0  0  0  0  0  0
  -25.2538  -13.8196   20.5688 C   0  0  0  0  0  0
  -24.1822  -13.0454   20.9207 C   0  0  0  0  0  0
  -24.6398  -11.6930   20.8744 C   0  0  0  0  0  0
  -23.9074  -10.4309   21.0402 C   0  0  0  0  0  0
  -24.3625   -9.4224   21.9182 C   0  0  0  0  0  0
  -23.6304   -8.2254   22.0748 C   0  0  0  0  0  0
  -22.4282   -8.0294   21.3543 C   0  0  0  0  0  0
  -21.9922   -9.0267   20.4646 C   0  0  0  0  0  0
  -22.7248  -10.2144   20.3049 C   0  0  0  0  0  0
  -21.6857   -6.0750   22.5284 C   0  0  0  0  0  0
  -21.4019   -6.5648   23.8222 C   0  0  0  0  0  0
  -21.3657   -5.6799   24.9184 C   0  0  0  0  0  0
  -21.6041   -4.3061   24.7227 C   0  0  0  0  0  0
  -21.8817   -3.8158   23.4347 C   0  0  0  0  0  0
  -21.9195   -4.6979   22.3411 C   0  0  0  0  0  0
  -22.7841  -13.5233   21.1878 C   0  0  0  0  0  0
  -22.1649   -4.2170   21.0988 F   0  0  0  0  0  0
  -21.5641   -3.4539   25.7732 F   0  0  0  0  0  0
  -30.0069  -13.4428   20.4242 N   0  0  0  0  0  0
  -26.2971  -12.9405   20.3294 N   0  0  0  0  0  0
  -25.9328  -11.6553   20.5761 N   0  0  0  0  0  0
  -22.0474  -12.8224   22.0414 N   0  0  0  0  0  0
  -25.4253  -15.1914   20.4100 N   0  0  0  0  0  0
  -31.8667  -14.7019   20.1571 O   0  0  0  0  0  0
  -21.6640   -6.8890   21.4241 O   0  0  0  0  0  0
  -22.3532  -14.5544   20.6724 O   0  0  0  0  0  0
  -24.6255  -31.8639   23.2081 C   0  0  0  0  0  0
  -25.9109  -32.4796   23.8401 C   0  0  1  0  0  0
  -27.2072  -27.3294   20.1102 C   0  0  0  0  0  0
  -25.5930  -33.8597   24.2323 N   0  0  0  0  0  0
  -23.4171  -30.4931   21.5497 C   0  0  2  0  0  0
  -24.8611  -28.9605   20.1078 C   0  0  0  0  0  0
  -22.7466  -29.4653   22.4936 C   0  0  0  0  0  0
  -18.0287  -28.1393   22.8484 C   0  0  0  0  0  0
  -24.1486  -36.7294   23.2634 C   0  0  0  0  0  0
  -25.9610  -30.7972   21.3808 C   0  0  0  0  0  0
  -26.0323  -29.4285   20.7176 C   0  0  0  0  0  0
  -27.2112  -28.6242   20.7127 C   0  0  0  0  0  0
  -26.0149  -26.9308   19.4558 C   0  0  0  0  0  0
  -24.8538  -27.7159   19.4689 C   0  0  0  0  0  0
  -23.6301  -29.8382   20.1615 C   0  0  0  0  0  0
  -25.4113  -36.3098   24.0334 C   0  0  1  0  0  0
  -20.5886  -28.3699   23.1283 C   0  0  2  0  0  0
  -20.6769  -26.9428   22.5402 C   0  0  0  0  0  0
  -19.5742  -26.6393   21.5206 C   0  0  0  0  0  0
  -18.1928  -26.7935   22.1626 C   0  0  0  0  0  0
  -19.1537  -28.8862   23.2877 C   0  0  0  0  0  0
  -18.9460  -30.1454   23.8914 C   0  0  0  0  0  0
  -17.6463  -30.6598   24.0559 C   0  0  0  0  0  0
  -25.9050  -34.9461   23.5126 C   0  0  0  0  0  0
  -16.5353  -29.9102   23.6323 C   0  0  0  0  0  0
  -16.7271  -28.6509   23.0359 C   0  0  0  0  0  0
  -26.4491  -31.6595   25.0761 C   0  0  0  0  0  0
  -25.3727  -31.3717   26.1485 C   0  0  0  0  0  0
  -27.0332  -30.3021   24.6219 C   0  0  0  0  0  0
  -27.6070  -32.4318   25.7520 C   0  0  0  0  0  0
  -27.5589  -37.1795   24.8462 C   0  0  0  0  0  0
  -21.4178  -29.3054   22.3669 N   0  0  0  0  0  0
  -26.4293  -37.3790   23.9419 N   0  0  0  0  0  0
  -24.6865  -31.0680   22.1024 N   0  0  0  0  0  0
  -23.4198  -28.8174   23.2992 O   0  0  0  0  0  0
  -28.2919  -26.4395   20.1892 O   0  0  0  0  0  0
  -26.5613  -34.8918   22.4692 O   0  0  0  0  0  0
  -23.5424  -32.1429   23.7415 O   0  0  0  0  0  0
  -30.6955  -16.9232   18.5895 C   0  0  0  0  0  0
  -29.9191  -19.4060   19.4460 C   0  0  0  0  0  0
  -30.1380  -17.0533   19.8901 C   0  0  0  0  0  0
  -30.4724  -19.1632   18.1509 C   0  0  0  0  0  0
  -30.5421  -21.9964   19.7639 C   0  0  0  0  0  0
  -29.9200  -23.4156   19.5682 C   0  0  0  0  0  0
  -27.9245  -22.5223   20.8708 C   0  0  0  0  0  0
  -29.4475  -20.8873   19.7608 C   0  0  2  0  0  0
  -28.8456  -23.7980   20.6282 C   0  0  1  0  0  0
  -29.5187  -24.2276   21.9461 C   0  0  0  0  0  0
  -27.9279  -25.0042   20.1297 C   0  0  0  0  0  0
  -30.8609  -17.9496   17.7358 N   0  0  0  0  0  0
  -29.7423  -18.3281   20.3091 N   0  0  0  0  0  0
  -30.6274  -20.1282   17.1612 N   0  0  0  0  0  0
  -29.9447  -15.7972   20.6245 N   0  0  0  0  0  0
  -28.5943  -21.1700   20.9376 N   0  3  0  0  0  0
  -31.4697  -12.4602   19.1977 H   0  0  0  0  0  0
  -30.3133  -11.4004   19.9540 H   0  0  0  0  0  0
  -29.7831  -11.7216   17.5138 H   0  0  0  0  0  0
  -29.6695  -13.4495   17.7468 H   0  0  0  0  0  0
  -27.8672  -11.2890   18.8898 H   0  0  0  0  0  0
  -27.3826  -12.5528   17.7945 H   0  0  0  0  0  0
  -27.6520  -14.2544   19.4871 H   0  0  0  0  0  0
  -28.6892  -12.1480   21.4451 H   0  0  0  0  0  0
  -28.4403  -13.8397   21.7952 H   0  0  0  0  0  0
  -25.2760   -9.5701   22.4774 H   0  0  0  0  0  0
  -24.0023   -7.4634   22.7452 H   0  0  0  0  0  0
  -21.0865   -8.8774   19.8945 H   0  0  0  0  0  0
  -22.3702  -10.9682   19.6161 H   0  0  0  0  0  0
  -21.1999   -7.6154   23.9738 H   0  0  0  0  0  0
  -21.1480   -6.0521   25.9091 H   0  0  0  0  0  0
  -22.0595   -2.7620   23.2841 H   0  0  0  0  0  0
  -22.4056  -11.9862   22.4791 H   0  0  0  0  0  0
  -21.1096  -13.1260   22.2616 H   0  0  0  0  0  0
  -24.6591  -15.8464   20.5233 H   0  0  0  0  0  0
  -26.2771  -15.6301   20.0851 H   0  0  0  0  0  0
  -26.7173  -32.5463   23.1145 H   0  0  0  0  0  0
  -25.0032  -33.9752   25.0441 H   0  0  0  0  0  0
  -22.7094  -31.3141   21.4126 H   0  0  0  0  0  0
  -23.3760  -35.9609   23.3269 H   0  0  0  0  0  0
  -24.3588  -36.8943   22.2056 H   0  0  0  0  0  0
  -23.7222  -37.6480   23.6671 H   0  0  0  0  0  0
  -26.1022  -31.5651   20.6179 H   0  0  0  0  0  0
  -26.8379  -30.8358   22.0152 H   0  0  0  0  0  0
  -28.1064  -28.9749   21.2082 H   0  0  0  0  0  0
  -25.9335  -25.9889   18.9369 H   0  0  0  0  0  0
  -23.9571  -27.3555   18.9831 H   0  0  0  0  0  0
  -23.7507  -30.6196   19.4103 H   0  0  0  0  0  0
  -22.7491  -29.2696   19.8569 H   0  0  0  0  0  0
  -25.1292  -36.1944   25.0824 H   0  0  0  0  0  0
  -20.9991  -28.3276   24.1400 H   0  0  0  0  0  0
  -20.5675  -26.2322   23.3606 H   0  0  0  0  0  0
  -21.6640  -26.7468   22.1194 H   0  0  0  0  0  0
  -19.6906  -25.6305   21.1238 H   0  0  0  0  0  0
  -19.6680  -27.3192   20.6728 H   0  0  0  0  0  0
  -17.4199  -26.6676   21.4029 H   0  0  0  0  0  0
  -18.0343  -26.0086   22.9037 H   0  0  0  0  0  0
  -19.7926  -30.7248   24.2323 H   0  0  0  0  0  0
  -17.5018  -31.6288   24.5146 H   0  0  0  0  0  0
  -15.5349  -30.3015   23.7644 H   0  0  0  0  0  0
  -15.8659  -28.0822   22.7107 H   0  0  0  0  0  0
  -24.5895  -30.7086   25.7791 H   0  0  0  0  0  0
  -24.8926  -32.2878   26.4940 H   0  0  0  0  0  0
  -25.8050  -30.8857   27.0243 H   0  0  0  0  0  0
  -26.2910  -29.6768   24.1238 H   0  0  0  0  0  0
  -27.4015  -29.7286   25.4738 H   0  0  0  0  0  0
  -27.8795  -30.4303   23.9463 H   0  0  0  0  0  0
  -27.2697  -33.3606   26.2127 H   0  0  0  0  0  0
  -28.3856  -32.6889   25.0327 H   0  0  0  0  0  0
  -28.0756  -31.8416   26.5405 H   0  0  0  0  0  0
  -28.2578  -38.0115   24.7555 H   0  0  0  0  0  0
  -28.1109  -36.2659   24.6226 H   0  0  0  0  0  0
  -27.2312  -37.1369   25.8858 H   0  0  0  0  0  0
  -20.9357  -29.8796   21.6896 H   0  0  0  0  0  0
  -26.0168  -38.2856   24.1442 H   0  0  0  0  0  0
  -30.9770  -15.9689   18.1717 H   0  0  0  0  0  0
  -31.1247  -21.9529   20.6843 H   0  0  0  0  0  0
  -31.2653  -21.8436   18.9666 H   0  0  0  0  0  0
  -29.4689  -23.4504   18.5748 H   0  0  0  0  0  0
  -30.7084  -24.1683   19.5488 H   0  0  0  0  0  0
  -27.1870  -22.4701   20.0682 H   0  0  0  0  0  0
  -27.3383  -22.6615   21.7813 H   0  0  0  0  0  0
  -28.7947  -21.0934   18.9102 H   0  0  0  0  0  0
  -30.1275  -23.4346   22.3797 H   0  0  0  0  0  0
  -28.7779  -24.5250   22.6911 H   0  0  0  0  0  0
  -30.1711  -25.0886   21.7882 H   0  0  0  0  0  0
  -27.0073  -24.8985   20.7077 H   0  0  0  0  0  0
  -27.6622  -24.7790   19.0955 H   0  0  0  0  0  0
  -30.6117  -21.1167   17.3810 H   0  0  0  0  0  0
  -31.1821  -19.9013   16.3444 H   0  0  0  0  0  0
  -29.0555  -15.6970   21.0861 H   0  0  0  0  0  0
  -27.8877  -20.4537   20.9966 H   0  0  0  0  0  0
  -29.1556  -21.1025   21.7700 H   0  0  0  0  0  0
  1 25  1  0  0  0
  1 30  2  0  0  0
  1 85  1  0  0  0
  2  3  1  0  0  0
  2 25  1  0  0  0
  2 87  1  0  0  0
  2 88  1  0  0  0
  3  4  1  0  0  0
  3 89  1  0  0  0
  3 90  1  0  0  0
  4  5  1  0  0  0
  4 91  1  0  0  0
  4 92  1  0  0  0
  5  6  1  0  0  0
  5 26  1  0  0  0
  5 93  1  0  0  0
  6 25  1  0  0  0
  6 94  1  0  0  0
  6 95  1  0  0  0
  7  8  2  0  0  0
  7 26  1  0  0  0
  7 29  1  0  0  0
  8  9  1  0  0  0
  8 22  1  0  0  0
  9 10  1  0  0  0
  9 27  2  0  0  0
 10 11  2  0  0  0
 10 15  1  0  0  0
 11 12  1  0  0  0
 11 96  1  0  0  0
 12 13  2  0  0  0
 12 97  1  0  0  0
 13 14  1  0  0  0
 13 31  1  0  0  0
 14 15  2  0  0  0
 14 98  1  0  0  0
 15 99  1  0  0  0
 16 17  2  0  0  0
 16 21  1  0  0  0
 16 31  1  0  0  0
 17 18  1  0  0  0
 17100  1  0  0  0
 18 19  2  0  0  0
 18101  1  0  0  0
 19 20  1  0  0  0
 19 24  1  0  0  0
 20 21  2  0  0  0
 20102  1  0  0  0
 21 23  1  0  0  0
 22 28  1  0  0  0
 22 32  2  0  0  0
 26 27  1  0  0  0
 28103  1  0  0  0
 28104  1  0  0  0
 29105  1  0  0  0
 29106  1  0  0  0
 33 34  1  0  0  0
 33 66  1  0  0  0
 33 70  2  0  0  0
 34 36  1  0  0  0
 34 59  1  0  0  0
 34107  1  0  0  0
 35 44  2  0  0  0
 35 45  1  0  0  0
 35 68  1  0  0  0
 36 56  1  0  0  0
 36108  1  0  0  0
 37 39  1  0  0  0
 37 47  1  0  0  0
 37 66  1  0  0  0
 37109  1  0  0  0
 38 43  2  0  0  0
 38 46  1  0  0  0
 38 47  1  0  0  0
 39 64  1  0  0  0
 39 67  2  0  0  0
 40 52  1  0  0  0
 40 53  2  0  0  0
 40 58  1  0  0  0
 41110  1  0  0  0
 41111  1  0  0  0
 41112  1  0  0  0
 41 48  1  0  0  0
 42 43  1  0  0  0
 42 66  1  0  0  0
 42113  1  0  0  0
 42114  1  0  0  0
 43 44  1  0  0  0
 44115  1  0  0  0
 45 46  2  0  0  0
 45116  1  0  0  0
 46117  1  0  0  0
 47118  1  0  0  0
 47119  1  0  0  0
 48 56  1  0  0  0
 48 65  1  0  0  0
 48120  1  0  0  0
 49 50  1  0  0  0
 49 53  1  0  0  0
 49 64  1  0  0  0
 49121  1  0  0  0
 50 51  1  0  0  0
 50122  1  0  0  0
 50123  1  0  0  0
 51 52  1  0  0  0
 51124  1  0  0  0
 51125  1  0  0  0
 52126  1  0  0  0
 52127  1  0  0  0
 53 54  1  0  0  0
 54 55  2  0  0  0
 54128  1  0  0  0
 55 57  1  0  0  0
 55129  1  0  0  0
 56 69  2  0  0  0
 57 58  2  0  0  0
 57130  1  0  0  0
 58131  1  0  0  0
 59 60  1  0  0  0
 59 61  1  0  0  0
 59 62  1  0  0  0
 60132  1  0  0  0
 60133  1  0  0  0
 60134  1  0  0  0
 61135  1  0  0  0
 61136  1  0  0  0
 61137  1  0  0  0
 62138  1  0  0  0
 62139  1  0  0  0
 62140  1  0  0  0
 63 65  1  0  0  0
 63141  1  0  0  0
 63142  1  0  0  0
 63143  1  0  0  0
 64144  1  0  0  0
 65145  1  0  0  0
 68 81  1  0  0  0
 71 73  2  0  0  0
 71 82  1  0  0  0
 71146  1  0  0  0
 72 74  1  0  0  0
 72 83  2  0  0  0
 72 78  1  0  0  0
 73 83  1  0  0  0
 73 85  1  0  0  0
 74 82  2  0  0  0
 74 84  1  0  0  0
 75 76  1  0  0  0
 75 78  1  0  0  0
 75147  1  0  0  0
 75148  1  0  0  0
 76 79  1  0  0  0
 76149  1  0  0  0
 76150  1  0  0  0
 77 79  1  0  0  0
 77 86  1  0  0  0
 77151  1  0  0  0
 77152  1  0  0  0
 78 86  1  0  0  0
 78153  1  0  0  0
 79 80  1  0  0  0
 79 81  1  0  0  0
 80154  1  0  0  0
 80155  1  0  0  0
 80156  1  0  0  0
 81157  1  0  0  0
 81158  1  0  0  0
 84159  1  0  0  0
 84160  1  0  0  0
 85161  1  0  0  0
 86162  1  0  0  0
 86163  1  0  0  0
M  CHG  1  86   1
M  ISO  4   1 100  68 101  81 101  85 100
M  END
> <chiral flag>
0

> <version>
0

> <s_m_source_file>
/data/baiqing/PycharmProjects/Reinvent-master-3.2/result/LINK_invent/BTK/process_docking_weight1_custom_product_contain_oxygen_bond_distance_aromatic_linkinvent_7_9_3/rearranged_h_0161.sdf

> <i_m_source_file_index>
59

> <r_mmod_Potential_Energy-OPLS-2005>
-85.189453125

> <r_mmod_Stretch_Energy-OPLS-2005>
92.2624740600586

> <r_mmod_Bend_Energy-OPLS-2005>
168.804458618164

> <r_mmod_Torsional_Energy-OPLS-2005>
288.401428222656

> <r_mmod_Improper_Torsional_Energy-OPLS-2005>
8.28404712677002

> <r_mmod_Van_der_Waal_Energy-OPLS-2005>
171.779739379883

> <r_mmod_Electrostatic_Energy-OPLS-2005>
-380.411895751953

> <r_mmod_Solvation_Energy-OPLS-2005>
-490.093414306641

> <b_mmod_Minimization_Converged-OPLS-2005>
0

> <r_mmod_RMS_Derivative-OPLS-2005>
2.09119248390198

$$$$
59
                    3D
 Structure written by MMmdl.
150158  0  0  1  0            999 V2000
  -30.6482  -14.8256   20.4861 C   0  0  0  0  0  0
  -30.4364  -12.5243   19.5049 C   0  0  0  0  0  0
  -29.5104  -12.4530   18.2717 C   0  0  0  0  0  0
  -28.0719  -12.1839   18.7388 C   0  0  0  0  0  0
  -27.6323  -13.1889   19.8320 C   0  0  2  0  0  0
  -28.6646  -13.2856   20.9768 C   0  0  0  0  0  0
  -25.2645  -13.8120   20.5739 C   0  0  0  0  0  0
  -24.1870  -13.0483   20.9230 C   0  0  0  0  0  0
  -24.6386  -11.6908   20.8860 C   0  0  0  0  0  0
  -23.9046  -10.4312   21.0493 C   0  0  0  0  0  0
  -24.3602   -9.4214   21.9242 C   0  0  0  0  0  0
  -23.6279   -8.2245   22.0779 C   0  0  0  0  0  0
  -22.4258   -8.0312   21.3570 C   0  0  0  0  0  0
  -21.9886   -9.0299   20.4694 C   0  0  0  0  0  0
  -22.7212  -10.2172   20.3129 C   0  0  0  0  0  0
  -21.6827   -6.0746   22.5294 C   0  0  0  0  0  0
  -21.3988   -6.5639   23.8217 C   0  0  0  0  0  0
  -21.3653   -5.6793   24.9180 C   0  0  0  0  0  0
  -21.6016   -4.3066   24.7235 C   0  0  0  0  0  0
  -21.8811   -3.8156   23.4358 C   0  0  0  0  0  0
  -21.9197   -4.6972   22.3414 C   0  0  0  0  0  0
  -22.7910  -13.5307   21.1859 C   0  0  0  0  0  0
  -22.1671   -4.2153   21.0995 F   0  0  0  0  0  0
  -21.5649   -3.4572   25.7762 F   0  0  0  0  0  0
  -29.9651  -13.6269   20.3833 N   0  0  0  0  0  0
  -26.2927  -12.9182   20.3287 N   0  0  0  0  0  0
  -25.9280  -11.6396   20.5850 N   0  0  0  0  0  0
  -22.0514  -12.8325   22.0407 N   0  0  0  0  0  0
  -25.4644  -15.1852   20.4221 N   0  0  0  0  0  0
  -31.8225  -14.8561   20.1076 O   0  0  0  0  0  0
  -21.6619   -6.8898   21.4263 O   0  0  0  0  0  0
  -22.3671  -14.5669   20.6726 O   0  0  0  0  0  0
  -24.6309  -31.8556   23.2012 C   0  0  0  0  0  0
  -25.9123  -32.4751   23.8354 C   0  0  1  0  0  0
  -27.2121  -27.2625   20.0969 C   0  0  0  0  0  0
  -25.5916  -33.8560   24.2265 N   0  0  0  0  0  0
  -23.4258  -30.4802   21.5458 C   0  0  2  0  0  0
  -24.8710  -28.9365   20.1034 C   0  0  0  0  0  0
  -22.7482  -29.4628   22.4931 C   0  0  0  0  0  0
  -18.0291  -28.1392   22.8456 C   0  0  0  0  0  0
  -24.1488  -36.7286   23.2644 C   0  0  0  0  0  0
  -25.9723  -30.7657   21.3791 C   0  0  0  0  0  0
  -26.0426  -29.3864   20.7233 C   0  0  0  0  0  0
  -27.2108  -28.5588   20.7217 C   0  0  0  0  0  0
  -26.0246  -26.9054   19.4152 C   0  0  0  0  0  0
  -24.8695  -27.7045   19.4392 C   0  0  0  0  0  0
  -23.6400  -29.8204   20.1600 C   0  0  0  0  0  0
  -25.4107  -36.3069   24.0333 C   0  0  1  0  0  0
  -20.5897  -28.3732   23.1316 C   0  0  2  0  0  0
  -20.6807  -26.9414   22.5501 C   0  0  0  0  0  0
  -19.5815  -26.6338   21.5256 C   0  0  0  0  0  0
  -18.1951  -26.7910   22.1626 C   0  0  0  0  0  0
  -19.1530  -28.8878   23.2855 C   0  0  0  0  0  0
  -18.9419  -30.1493   23.8844 C   0  0  0  0  0  0
  -17.6430  -30.6619   24.0511 C   0  0  0  0  0  0
  -25.9057  -34.9426   23.5115 C   0  0  0  0  0  0
  -16.5328  -29.9084   23.6275 C   0  0  0  0  0  0
  -16.7275  -28.6502   23.0328 C   0  0  0  0  0  0
  -26.4512  -31.6577   25.0741 C   0  0  0  0  0  0
  -25.3764  -31.3716   26.1482 C   0  0  0  0  0  0
  -27.0346  -30.3002   24.6207 C   0  0  0  0  0  0
  -27.6080  -32.4305   25.7510 C   0  0  0  0  0  0
  -27.5573  -37.1806   24.8474 C   0  0  0  0  0  0
  -21.4178  -29.3105   22.3692 N   0  0  0  0  0  0
  -26.4275  -37.3783   23.9424 N   0  0  0  0  0  0
  -24.6962  -31.0521   22.0992 N   0  0  0  0  0  0
  -23.4183  -28.8120   23.2971 O   0  0  0  0  0  0
  -28.2924  -26.3468   20.1697 O   0  0  0  0  0  0
  -26.5633  -34.8904   22.4686 O   0  0  0  0  0  0
  -23.5460  -32.1360   23.7311 O   0  0  0  0  0  0
  -27.7515  -18.0692   18.8730 C   0  0  0  0  0  0
  -28.5193  -16.9973   19.3692 C   0  0  0  0  0  0
  -27.9825  -19.3789   19.3317 C   0  0  0  0  0  0
  -29.4658  -17.1968   20.3942 C   0  0  0  0  0  0
  -28.9840  -19.6209   20.2819 C   0  0  0  0  0  0
  -28.8770  -23.7167   20.4209 C   0  0  0  0  0  0
  -28.6107  -22.2017   19.9603 C   0  0  0  0  0  0
  -28.0804  -24.9223   19.7175 C   0  0  0  0  0  0
  -29.6688  -18.5258   20.8220 N   0  0  0  0  0  0
  -30.0712  -15.9814   21.0124 N   0  0  0  0  0  0
  -29.2430  -20.9976   20.6583 N   0  0  0  0  0  0
  -29.6960  -23.9427   21.3176 O   0  0  0  0  0  0
  -31.4637  -12.6632   19.1705 H   0  0  0  0  0  0
  -30.4397  -11.5907   20.0707 H   0  0  0  0  0  0
  -29.8453  -11.6568   17.6047 H   0  0  0  0  0  0
  -29.5460  -13.3790   17.6974 H   0  0  0  0  0  0
  -28.0679  -11.1757   19.1627 H   0  0  0  0  0  0
  -27.3748  -12.1567   17.9008 H   0  0  0  0  0  0
  -27.5761  -14.1488   19.3343 H   0  0  0  0  0  0
  -28.7302  -12.3536   21.5420 H   0  0  0  0  0  0
  -28.3450  -14.0584   21.6803 H   0  0  0  0  0  0
  -25.2742   -9.5642   22.4835 H   0  0  0  0  0  0
  -24.0009   -7.4611   22.7446 H   0  0  0  0  0  0
  -21.0814   -8.8814   19.8986 H   0  0  0  0  0  0
  -22.3684  -10.9757   19.6282 H   0  0  0  0  0  0
  -21.1956   -7.6142   23.9726 H   0  0  0  0  0  0
  -21.1477   -6.0537   25.9077 H   0  0  0  0  0  0
  -22.0595   -2.7629   23.2879 H   0  0  0  0  0  0
  -22.4123  -11.9992   22.4825 H   0  0  0  0  0  0
  -21.1217  -13.1493   22.2757 H   0  0  0  0  0  0
  -24.7317  -15.8659   20.5762 H   0  0  0  0  0  0
  -26.3627  -15.6139   20.2471 H   0  0  0  0  0  0
  -26.7218  -32.5413   23.1109 H   0  0  0  0  0  0
  -25.0011  -33.9741   25.0366 H   0  0  0  0  0  0
  -22.7221  -31.3015   21.4059 H   0  0  0  0  0  0
  -23.3734  -35.9643   23.3318 H   0  0  0  0  0  0
  -24.3581  -36.8916   22.2068 H   0  0  0  0  0  0
  -23.7264  -37.6510   23.6650 H   0  0  0  0  0  0
  -26.1075  -31.5246   20.6062 H   0  0  0  0  0  0
  -26.8508  -30.8223   22.0086 H   0  0  0  0  0  0
  -28.1037  -28.8970   21.2297 H   0  0  0  0  0  0
  -25.9382  -25.9919   18.8455 H   0  0  0  0  0  0
  -23.9849  -27.3730   18.9143 H   0  0  0  0  0  0
  -23.7468  -30.6010   19.4038 H   0  0  0  0  0  0
  -22.7571  -29.2547   19.8621 H   0  0  0  0  0  0
  -25.1286  -36.1932   25.0831 H   0  0  0  0  0  0
  -20.9994  -28.3390   24.1447 H   0  0  0  0  0  0
  -20.5568  -26.2360   23.3712 H   0  0  0  0  0  0
  -21.6743  -26.7395   22.1440 H   0  0  0  0  0  0
  -19.7045  -25.6203   21.1369 H   0  0  0  0  0  0
  -19.6762  -27.3084   20.6720 H   0  0  0  0  0  0
  -17.4267  -26.6593   21.4007 H   0  0  0  0  0  0
  -18.0260  -26.0064   22.9057 H   0  0  0  0  0  0
  -19.7913  -30.7286   24.2252 H   0  0  0  0  0  0
  -17.4984  -31.6306   24.5117 H   0  0  0  0  0  0
  -15.5272  -30.2933   23.7616 H   0  0  0  0  0  0
  -15.8736  -28.0707   22.7120 H   0  0  0  0  0  0
  -24.5917  -30.7083   25.7826 H   0  0  0  0  0  0
  -24.8951  -32.2876   26.4930 H   0  0  0  0  0  0
  -25.8100  -30.8896   27.0246 H   0  0  0  0  0  0
  -26.2907  -29.6775   24.1232 H   0  0  0  0  0  0
  -27.4057  -29.7267   25.4710 H   0  0  0  0  0  0
  -27.8784  -30.4309   23.9423 H   0  0  0  0  0  0
  -27.2699  -33.3584   26.2121 H   0  0  0  0  0  0
  -28.3870  -32.6903   25.0331 H   0  0  0  0  0  0
  -28.0758  -31.8400   26.5420 H   0  0  0  0  0  0
  -28.2616  -38.0073   24.7457 H   0  0  0  0  0  0
  -28.1034  -36.2607   24.6333 H   0  0  0  0  0  0
  -27.2286  -37.1493   25.8876 H   0  0  0  0  0  0
  -20.9329  -29.8919   21.6986 H   0  0  0  0  0  0
  -26.0151  -38.2876   24.1378 H   0  0  0  0  0  0
  -26.9797  -17.8867   18.1368 H   0  0  0  0  0  0
  -28.3297  -16.0229   18.9528 H   0  0  0  0  0  0
  -27.3773  -20.1827   18.9350 H   0  0  0  0  0  0
  -28.8941  -22.1585   18.9042 H   0  0  0  0  0  0
  -27.5270  -22.0689   19.9890 H   0  0  0  0  0  0
  -28.2919  -24.8802   18.6445 H   0  0  0  0  0  0
  -27.0346  -24.6454   19.8392 H   0  0  0  0  0  0
  -30.6644  -16.2870   21.7672 H   0  0  0  0  0  0
  -29.9180  -21.2039   21.3874 H   0  0  0  0  0  0
  1 25  1  0  0  0
  1 30  2  0  0  0
  1 80  1  0  0  0
  2  3  1  0  0  0
  2 25  1  0  0  0
  2 83  1  0  0  0
  2 84  1  0  0  0
  3  4  1  0  0  0
  3 85  1  0  0  0
  3 86  1  0  0  0
  4  5  1  0  0  0
  4 87  1  0  0  0
  4 88  1  0  0  0
  5  6  1  0  0  0
  5 26  1  0  0  0
  5 89  1  0  0  0
  6 25  1  0  0  0
  6 90  1  0  0  0
  6 91  1  0  0  0
  7  8  2  0  0  0
  7 26  1  0  0  0
  7 29  1  0  0  0
  8  9  1  0  0  0
  8 22  1  0  0  0
  9 10  1  0  0  0
  9 27  2  0  0  0
 10 11  2  0  0  0
 10 15  1  0  0  0
 11 12  1  0  0  0
 11 92  1  0  0  0
 12 13  2  0  0  0
 12 93  1  0  0  0
 13 14  1  0  0  0
 13 31  1  0  0  0
 14 15  2  0  0  0
 14 94  1  0  0  0
 15 95  1  0  0  0
 16 17  2  0  0  0
 16 21  1  0  0  0
 16 31  1  0  0  0
 17 18  1  0  0  0
 17 96  1  0  0  0
 18 19  2  0  0  0
 18 97  1  0  0  0
 19 20  1  0  0  0
 19 24  1  0  0  0
 20 21  2  0  0  0
 20 98  1  0  0  0
 21 23  1  0  0  0
 22 28  1  0  0  0
 22 32  2  0  0  0
 26 27  1  0  0  0
 28 99  1  0  0  0
 28100  1  0  0  0
 29101  1  0  0  0
 29102  1  0  0  0
 33 34  1  0  0  0
 33 66  1  0  0  0
 33 70  2  0  0  0
 34 36  1  0  0  0
 34 59  1  0  0  0
 34103  1  0  0  0
 35 44  2  0  0  0
 35 45  1  0  0  0
 35 68  1  0  0  0
 36 56  1  0  0  0
 36104  1  0  0  0
 37 39  1  0  0  0
 37 47  1  0  0  0
 37 66  1  0  0  0
 37105  1  0  0  0
 38 43  2  0  0  0
 38 46  1  0  0  0
 38 47  1  0  0  0
 39 64  1  0  0  0
 39 67  2  0  0  0
 40 52  1  0  0  0
 40 53  2  0  0  0
 40 58  1  0  0  0
 41106  1  0  0  0
 41107  1  0  0  0
 41108  1  0  0  0
 41 48  1  0  0  0
 42 43  1  0  0  0
 42 66  1  0  0  0
 42109  1  0  0  0
 42110  1  0  0  0
 43 44  1  0  0  0
 44111  1  0  0  0
 45 46  2  0  0  0
 45112  1  0  0  0
 46113  1  0  0  0
 47114  1  0  0  0
 47115  1  0  0  0
 48 56  1  0  0  0
 48 65  1  0  0  0
 48116  1  0  0  0
 49 50  1  0  0  0
 49 53  1  0  0  0
 49 64  1  0  0  0
 49117  1  0  0  0
 50 51  1  0  0  0
 50118  1  0  0  0
 50119  1  0  0  0
 51 52  1  0  0  0
 51120  1  0  0  0
 51121  1  0  0  0
 52122  1  0  0  0
 52123  1  0  0  0
 53 54  1  0  0  0
 54 55  2  0  0  0
 54124  1  0  0  0
 55 57  1  0  0  0
 55125  1  0  0  0
 56 69  2  0  0  0
 57 58  2  0  0  0
 57126  1  0  0  0
 58127  1  0  0  0
 59 60  1  0  0  0
 59 61  1  0  0  0
 59 62  1  0  0  0
 60128  1  0  0  0
 60129  1  0  0  0
 60130  1  0  0  0
 61131  1  0  0  0
 61132  1  0  0  0
 61133  1  0  0  0
 62134  1  0  0  0
 62135  1  0  0  0
 62136  1  0  0  0
 63 65  1  0  0  0
 63137  1  0  0  0
 63138  1  0  0  0
 63139  1  0  0  0
 64140  1  0  0  0
 65141  1  0  0  0
 68 78  1  0  0  0
 71 72  2  0  0  0
 71 73  1  0  0  0
 71142  1  0  0  0
 72 74  1  0  0  0
 72143  1  0  0  0
 73 75  2  0  0  0
 73144  1  0  0  0
 74 79  2  0  0  0
 74 80  1  0  0  0
 75 79  1  0  0  0
 75 81  1  0  0  0
 76 77  1  0  0  0
 76 78  1  0  0  0
 76 82  2  0  0  0
 77 81  1  0  0  0
 77145  1  0  0  0
 77146  1  0  0  0
 78147  1  0  0  0
 78148  1  0  0  0
 80149  1  0  0  0
 81150  1  0  0  0
M  ISO  4   1 100  68 101  78 101  80 100
M  END
> <chiral flag>
0

> <version>
0

> <s_m_source_file>
/data/baiqing/PycharmProjects/Reinvent-master-3.2/result/LINK_invent/BTK/process_docking_weight1_custom_product_contain_oxygen_bond_distance_aromatic_linkinvent_7_9_3/rearranged_h_0161.sdf

> <i_m_source_file_index>
60

> <r_mmod_Potential_Energy-OPLS-2005>
12.9118328094482

> <r_mmod_Stretch_Energy-OPLS-2005>
131.854461669922

> <r_mmod_Bend_Energy-OPLS-2005>
197.938842773438

> <r_mmod_Torsional_Energy-OPLS-2005>
247.652786254883

> <r_mmod_Improper_Torsional_Energy-OPLS-2005>
5.85845708847046

> <r_mmod_Van_der_Waal_Energy-OPLS-2005>
144.393676757812

> <r_mmod_Electrostatic_Energy-OPLS-2005>
-580.594543457031

> <r_mmod_Solvation_Energy-OPLS-2005>
-253.978530883789

> <b_mmod_Minimization_Converged-OPLS-2005>
0

> <r_mmod_RMS_Derivative-OPLS-2005>
6.53633213043213

$$$$
60
                    3D
 Structure written by MMmdl.
158166  0  0  1  0            999 V2000
  -30.7158  -14.4020   20.6285 C   0  0  0  0  0  0
  -30.4255  -12.2819   19.4056 C   0  0  0  0  0  0
  -29.4918  -12.5050   18.1985 C   0  0  0  0  0  0
  -28.0130  -12.3673   18.6112 C   0  0  0  0  0  0
  -27.6665  -13.1947   19.8776 C   0  0  2  0  0  0
  -28.7020  -12.9295   20.9927 C   0  0  0  0  0  0
  -25.2614  -13.8139   20.5650 C   0  0  0  0  0  0
  -24.1845  -13.0437   20.9140 C   0  0  0  0  0  0
  -24.6379  -11.6897   20.8713 C   0  0  0  0  0  0
  -23.9043  -10.4293   21.0396 C   0  0  0  0  0  0
  -24.3598   -9.4215   21.9177 C   0  0  0  0  0  0
  -23.6281   -8.2246   22.0762 C   0  0  0  0  0  0
  -22.4268   -8.0273   21.3540 C   0  0  0  0  0  0
  -21.9892   -9.0240   20.4641 C   0  0  0  0  0  0
  -22.7215  -10.2124   20.3043 C   0  0  0  0  0  0
  -21.6851   -6.0727   22.5272 C   0  0  0  0  0  0
  -21.4015   -6.5635   23.8203 C   0  0  0  0  0  0
  -21.3660   -5.6791   24.9168 C   0  0  0  0  0  0
  -21.6046   -4.3055   24.7218 C   0  0  0  0  0  0
  -21.8819   -3.8140   23.4343 C   0  0  0  0  0  0
  -21.9196   -4.6955   22.3398 C   0  0  0  0  0  0
  -22.7874  -13.5244   21.1812 C   0  0  0  0  0  0
  -22.1663   -4.2144   21.0974 F   0  0  0  0  0  0
  -21.5629   -3.4540   25.7734 F   0  0  0  0  0  0
  -30.0442  -13.2336   20.4581 N   0  0  0  0  0  0
  -26.3041  -12.9283   20.3346 N   0  0  0  0  0  0
  -25.9298  -11.6454   20.5738 N   0  0  0  0  0  0
  -22.0506  -12.8240   22.0368 N   0  0  0  0  0  0
  -25.4377  -15.1847   20.4067 N   0  0  0  0  0  0
  -31.7938  -14.6485   20.0772 O   0  0  0  0  0  0
  -21.6640   -6.8864   21.4236 O   0  0  0  0  0  0
  -22.3570  -14.5561   20.6674 O   0  0  0  0  0  0
  -24.6092  -31.8701   23.2087 C   0  0  0  0  0  0
  -25.8999  -32.4836   23.8381 C   0  0  1  0  0  0
  -27.2421  -27.4683   20.1073 C   0  0  0  0  0  0
  -25.5851  -33.8624   24.2322 N   0  0  0  0  0  0
  -23.3970  -30.4920   21.5462 C   0  0  2  0  0  0
  -24.8490  -28.9557   20.1186 C   0  0  0  0  0  0
  -22.7398  -29.4682   22.4977 C   0  0  0  0  0  0
  -18.0276  -28.1404   22.8493 C   0  0  0  0  0  0
  -24.1485  -36.7327   23.2634 C   0  0  0  0  0  0
  -25.9180  -30.8489   21.3526 C   0  0  0  0  0  0
  -26.0018  -29.4781   20.7198 C   0  0  0  0  0  0
  -27.2016  -28.7380   20.7229 C   0  0  0  0  0  0
  -26.0820  -26.9536   19.4964 C   0  0  0  0  0  0
  -24.8804  -27.6882   19.5080 C   0  0  0  0  0  0
  -23.6066  -29.8155   20.1633 C   0  0  0  0  0  0
  -25.4090  -36.3112   24.0349 C   0  0  1  0  0  0
  -20.5870  -28.3672   23.1326 C   0  0  2  0  0  0
  -20.6773  -26.9408   22.5413 C   0  0  0  0  0  0
  -19.5746  -26.6408   21.5219 C   0  0  0  0  0  0
  -18.1927  -26.7959   22.1626 C   0  0  0  0  0  0
  -19.1529  -28.8849   23.2921 C   0  0  0  0  0  0
  -18.9463  -30.1456   23.8925 C   0  0  0  0  0  0
  -17.6467  -30.6601   24.0578 C   0  0  0  0  0  0
  -25.9004  -34.9480   23.5135 C   0  0  0  0  0  0
  -16.5350  -29.9113   23.6329 C   0  0  0  0  0  0
  -16.7269  -28.6541   23.0329 C   0  0  0  0  0  0
  -26.4437  -31.6592   25.0686 C   0  0  0  0  0  0
  -25.3712  -31.3705   26.1448 C   0  0  0  0  0  0
  -27.0235  -30.3044   24.5986 C   0  0  0  0  0  0
  -27.6011  -32.4291   25.7468 C   0  0  0  0  0  0
  -27.5595  -37.1789   24.8444 C   0  0  0  0  0  0
  -21.4123  -29.3049   22.3734 N   0  0  0  0  0  0
  -26.4270  -37.3802   23.9441 N   0  0  0  0  0  0
  -24.6599  -31.0841   22.0960 N   0  0  0  0  0  0
  -23.4194  -28.8223   23.3004 O   0  0  0  0  0  0
  -28.3964  -26.7316   20.0471 O   0  0  0  0  0  0
  -26.5591  -34.8937   22.4710 O   0  0  0  0  0  0
  -23.5300  -32.1415   23.7512 O   0  0  0  0  0  0
  -30.9677  -18.8395   21.1750 C   0  0  0  0  0  0
  -31.2384  -17.4478   21.0210 C   0  0  0  0  0  0
  -29.7231  -19.0930   21.6934 C   0  0  0  0  0  0
  -30.2036  -16.6362   21.4263 C   0  0  0  0  0  0
  -29.2691  -22.6041   22.6022 C   0  0  0  0  0  0
  -29.5029  -21.5943   21.7316 C   0  0  0  0  0  0
  -28.6324  -24.8433   21.5516 C   0  0  0  0  0  0
  -28.5681  -22.4101   23.9424 C   0  0  0  0  0  0
  -30.2084  -21.8100   20.3983 C   0  0  0  0  0  0
  -29.6888  -24.0462   22.3312 C   0  0  0  0  0  0
  -28.9311  -26.3281   21.3093 C   0  0  0  0  0  0
  -29.0840  -20.2964   21.9964 N   0  0  0  0  0  0
  -30.0846  -15.2848   21.4179 N   0  0  0  0  0  0
  -27.5928  -24.3208   21.1329 O   0  0  0  0  0  0
  -28.8817  -17.6053   22.0276 S   0  0  0  0  0  0
  -31.4687  -12.3904   19.1030 H   0  0  0  0  0  0
  -30.3321  -11.2614   19.7793 H   0  0  0  0  0  0
  -29.7258  -11.7892   17.4091 H   0  0  0  0  0  0
  -29.6646  -13.4950   17.7738 H   0  0  0  0  0  0
  -27.8186  -11.3100   18.7966 H   0  0  0  0  0  0
  -27.3627  -12.6522   17.7838 H   0  0  0  0  0  0
  -27.7266  -14.2482   19.6026 H   0  0  0  0  0  0
  -28.6660  -11.8818   21.2952 H   0  0  0  0  0  0
  -28.4472  -13.4879   21.8937 H   0  0  0  0  0  0
  -25.2744   -9.5700   22.4747 H   0  0  0  0  0  0
  -23.9991   -7.4647   22.7485 H   0  0  0  0  0  0
  -21.0826   -8.8743   19.8943 H   0  0  0  0  0  0
  -22.3670  -10.9651   19.6142 H   0  0  0  0  0  0
  -21.2007   -7.6148   23.9701 H   0  0  0  0  0  0
  -21.1481   -6.0526   25.9068 H   0  0  0  0  0  0
  -22.0601   -2.7604   23.2842 H   0  0  0  0  0  0
  -22.4113  -11.9883   22.4733 H   0  0  0  0  0  0
  -21.1121  -13.1262   22.2555 H   0  0  0  0  0  0
  -24.6760  -15.8456   20.5140 H   0  0  0  0  0  0
  -26.2964  -15.6197   20.0930 H   0  0  0  0  0  0
  -26.7081  -32.5589   23.1168 H   0  0  0  0  0  0
  -24.9952  -33.9774   25.0434 H   0  0  0  0  0  0
  -22.6838  -31.3061   21.4011 H   0  0  0  0  0  0
  -23.3748  -35.9659   23.3237 H   0  0  0  0  0  0
  -24.3601  -36.8987   22.2061 H   0  0  0  0  0  0
  -23.7221  -37.6516   23.6660 H   0  0  0  0  0  0
  -26.0037  -31.6018   20.5678 H   0  0  0  0  0  0
  -26.8172  -30.9272   21.9522 H   0  0  0  0  0  0
  -28.0926  -29.1432   21.1819 H   0  0  0  0  0  0
  -26.1133  -25.9800   19.0271 H   0  0  0  0  0  0
  -23.9942  -27.2780   19.0429 H   0  0  0  0  0  0
  -23.7069  -30.5818   19.3936 H   0  0  0  0  0  0
  -22.7361  -29.2235   19.8748 H   0  0  0  0  0  0
  -25.1255  -36.1963   25.0840 H   0  0  0  0  0  0
  -20.9965  -28.3239   24.1445 H   0  0  0  0  0  0
  -20.5681  -26.2276   23.3597 H   0  0  0  0  0  0
  -21.6638  -26.7466   22.1185 H   0  0  0  0  0  0
  -19.6899  -25.6328   21.1215 H   0  0  0  0  0  0
  -19.6694  -27.3251   20.6778 H   0  0  0  0  0  0
  -17.4190  -26.6713   21.4033 H   0  0  0  0  0  0
  -18.0316  -26.0115   22.9031 H   0  0  0  0  0  0
  -19.7936  -30.7273   24.2304 H   0  0  0  0  0  0
  -17.5021  -31.6284   24.5178 H   0  0  0  0  0  0
  -15.5350  -30.3024   23.7653 H   0  0  0  0  0  0
  -15.8671  -28.0881   22.7002 H   0  0  0  0  0  0
  -24.5879  -30.7053   25.7791 H   0  0  0  0  0  0
  -24.8916  -32.2876   26.4879 H   0  0  0  0  0  0
  -25.8080  -30.8881   27.0204 H   0  0  0  0  0  0
  -26.2753  -29.6863   24.1001 H   0  0  0  0  0  0
  -27.4006  -29.7203   25.4394 H   0  0  0  0  0  0
  -27.8587  -30.4386   23.9104 H   0  0  0  0  0  0
  -27.2610  -33.3567   26.2080 H   0  0  0  0  0  0
  -28.3823  -32.6874   25.0304 H   0  0  0  0  0  0
  -28.0666  -31.8381   26.5368 H   0  0  0  0  0  0
  -28.2508  -38.0184   24.7599 H   0  0  0  0  0  0
  -28.1191  -36.2719   24.6097 H   0  0  0  0  0  0
  -27.2344  -37.1230   25.8848 H   0  0  0  0  0  0
  -20.9267  -29.8757   21.6952 H   0  0  0  0  0  0
  -26.0160  -38.2865   24.1511 H   0  0  0  0  0  0
  -31.6980  -19.5867   20.9031 H   0  0  0  0  0  0
  -32.1823  -17.1070   20.6207 H   0  0  0  0  0  0
  -28.3217  -21.3717   24.1614 H   0  0  0  0  0  0
  -27.6404  -22.9821   23.9694 H   0  0  0  0  0  0
  -29.2073  -22.7658   24.7511 H   0  0  0  0  0  0
  -29.8546  -22.7156   19.9066 H   0  0  0  0  0  0
  -30.0278  -20.9935   19.6987 H   0  0  0  0  0  0
  -31.2838  -21.9092   20.5482 H   0  0  0  0  0  0
  -30.6101  -24.0509   21.7482 H   0  0  0  0  0  0
  -29.9150  -24.5506   23.2701 H   0  0  0  0  0  0
  -30.0094  -26.4873   21.3157 H   0  0  0  0  0  0
  -28.5170  -26.9098   22.1343 H   0  0  0  0  0  0
  -28.3948  -20.2049   22.7354 H   0  0  0  0  0  0
  -29.2525  -14.9182   21.8558 H   0  0  0  0  0  0
  1 25  1  0  0  0
  1 30  2  0  0  0
  1 83  1  0  0  0
  2  3  1  0  0  0
  2 25  1  0  0  0
  2 86  1  0  0  0
  2 87  1  0  0  0
  3  4  1  0  0  0
  3 88  1  0  0  0
  3 89  1  0  0  0
  4  5  1  0  0  0
  4 90  1  0  0  0
  4 91  1  0  0  0
  5  6  1  0  0  0
  5 26  1  0  0  0
  5 92  1  0  0  0
  6 25  1  0  0  0
  6 93  1  0  0  0
  6 94  1  0  0  0
  7  8  2  0  0  0
  7 26  1  0  0  0
  7 29  1  0  0  0
  8  9  1  0  0  0
  8 22  1  0  0  0
  9 10  1  0  0  0
  9 27  2  0  0  0
 10 11  2  0  0  0
 10 15  1  0  0  0
 11 12  1  0  0  0
 11 95  1  0  0  0
 12 13  2  0  0  0
 12 96  1  0  0  0
 13 14  1  0  0  0
 13 31  1  0  0  0
 14 15  2  0  0  0
 14 97  1  0  0  0
 15 98  1  0  0  0
 16 17  2  0  0  0
 16 21  1  0  0  0
 16 31  1  0  0  0
 17 18  1  0  0  0
 17 99  1  0  0  0
 18 19  2  0  0  0
 18100  1  0  0  0
 19 20  1  0  0  0
 19 24  1  0  0  0
 20 21  2  0  0  0
 20101  1  0  0  0
 21 23  1  0  0  0
 22 28  1  0  0  0
 22 32  2  0  0  0
 26 27  1  0  0  0
 28102  1  0  0  0
 28103  1  0  0  0
 29104  1  0  0  0
 29105  1  0  0  0
 33 34  1  0  0  0
 33 66  1  0  0  0
 33 70  2  0  0  0
 34 36  1  0  0  0
 34 59  1  0  0  0
 34106  1  0  0  0
 35 44  2  0  0  0
 35 45  1  0  0  0
 35 68  1  0  0  0
 36 56  1  0  0  0
 36107  1  0  0  0
 37 39  1  0  0  0
 37 47  1  0  0  0
 37 66  1  0  0  0
 37108  1  0  0  0
 38 43  2  0  0  0
 38 46  1  0  0  0
 38 47  1  0  0  0
 39 64  1  0  0  0
 39 67  2  0  0  0
 40 52  1  0  0  0
 40 53  2  0  0  0
 40 58  1  0  0  0
 41109  1  0  0  0
 41110  1  0  0  0
 41111  1  0  0  0
 41 48  1  0  0  0
 42 43  1  0  0  0
 42 66  1  0  0  0
 42112  1  0  0  0
 42113  1  0  0  0
 43 44  1  0  0  0
 44114  1  0  0  0
 45 46  2  0  0  0
 45115  1  0  0  0
 46116  1  0  0  0
 47117  1  0  0  0
 47118  1  0  0  0
 48 56  1  0  0  0
 48 65  1  0  0  0
 48119  1  0  0  0
 49 50  1  0  0  0
 49 53  1  0  0  0
 49 64  1  0  0  0
 49120  1  0  0  0
 50 51  1  0  0  0
 50121  1  0  0  0
 50122  1  0  0  0
 51 52  1  0  0  0
 51123  1  0  0  0
 51124  1  0  0  0
 52125  1  0  0  0
 52126  1  0  0  0
 53 54  1  0  0  0
 54 55  2  0  0  0
 54127  1  0  0  0
 55 57  1  0  0  0
 55128  1  0  0  0
 56 69  2  0  0  0
 57 58  2  0  0  0
 57129  1  0  0  0
 58130  1  0  0  0
 59 60  1  0  0  0
 59 61  1  0  0  0
 59 62  1  0  0  0
 60131  1  0  0  0
 60132  1  0  0  0
 60133  1  0  0  0
 61134  1  0  0  0
 61135  1  0  0  0
 61136  1  0  0  0
 62137  1  0  0  0
 62138  1  0  0  0
 62139  1  0  0  0
 63 65  1  0  0  0
 63140  1  0  0  0
 63141  1  0  0  0
 63142  1  0  0  0
 64143  1  0  0  0
 65144  1  0  0  0
 68 81  1  0  0  0
 71 72  1  0  0  0
 71 73  2  0  0  0
 71145  1  0  0  0
 72 74  2  0  0  0
 72146  1  0  0  0
 73 82  1  0  0  0
 73 85  1  0  0  0
 74 83  1  0  0  0
 74 85  1  0  0  0
 75 76  2  0  0  0
 75 78  1  0  0  0
 75 80  1  0  0  0
 76 79  1  0  0  0
 76 82  1  0  0  0
 77 80  1  0  0  0
 77 81  1  0  0  0
 77 84  2  0  0  0
 78147  1  0  0  0
 78148  1  0  0  0
 78149  1  0  0  0
 79150  1  0  0  0
 79151  1  0  0  0
 79152  1  0  0  0
 80153  1  0  0  0
 80154  1  0  0  0
 81155  1  0  0  0
 81156  1  0  0  0
 82157  1  0  0  0
 83158  1  0  0  0
M  ISO  4   1 100  68 101  81 101  83 100
M  END
> <chiral flag>
0

> <version>
0

> <s_m_source_file>
/data/baiqing/PycharmProjects/Reinvent-master-3.2/result/LINK_invent/BTK/process_docking_weight1_custom_product_contain_oxygen_bond_distance_aromatic_linkinvent_7_9_3/rearranged_h_0161.sdf

> <i_m_source_file_index>
61

> <r_mmod_Potential_Energy-OPLS-2005>
-89.9493637084961

> <r_mmod_Stretch_Energy-OPLS-2005>
31.5855960845947

> <r_mmod_Bend_Energy-OPLS-2005>
101.067512512207

> <r_mmod_Torsional_Energy-OPLS-2005>
230.58576965332

> <r_mmod_Improper_Torsional_Energy-OPLS-2005>
4.07148838043213

> <r_mmod_Van_der_Waal_Energy-OPLS-2005>
138.882720947266

> <r_mmod_Electrostatic_Energy-OPLS-2005>
-383.174438476562

> <r_mmod_Solvation_Energy-OPLS-2005>
-219.772232055664

> <b_mmod_Minimization_Converged-OPLS-2005>
0

> <r_mmod_RMS_Derivative-OPLS-2005>
1.72181618213654

$$$$
61
                    3D
 Structure written by MMmdl.
164172  0  0  1  0            999 V2000
  -30.6725  -14.5929   20.5072 C   0  0  0  0  0  0
  -30.4264  -12.3575   19.4550 C   0  0  0  0  0  0
  -29.5009  -12.4485   18.2221 C   0  0  0  0  0  0
  -28.0171  -12.3205   18.6293 C   0  0  0  0  0  0
  -27.6386  -13.1927   19.8559 C   0  0  2  0  0  0
  -28.6885  -13.0863   20.9809 C   0  0  0  0  0  0
  -25.2540  -13.8094   20.5746 C   0  0  0  0  0  0
  -24.1780  -13.0400   20.9215 C   0  0  0  0  0  0
  -24.6325  -11.6856   20.8787 C   0  0  0  0  0  0
  -23.9008  -10.4248   21.0441 C   0  0  0  0  0  0
  -24.3569   -9.4161   21.9208 C   0  0  0  0  0  0
  -23.6244   -8.2202   22.0780 C   0  0  0  0  0  0
  -22.4231   -8.0244   21.3579 C   0  0  0  0  0  0
  -21.9863   -9.0216   20.4683 C   0  0  0  0  0  0
  -22.7192  -10.2094   20.3079 C   0  0  0  0  0  0
  -21.6823   -6.0706   22.5305 C   0  0  0  0  0  0
  -21.3998   -6.5615   23.8241 C   0  0  0  0  0  0
  -21.3653   -5.6775   24.9205 C   0  0  0  0  0  0
  -21.6043   -4.3038   24.7258 C   0  0  0  0  0  0
  -21.8817   -3.8130   23.4377 C   0  0  0  0  0  0
  -21.9186   -4.6940   22.3429 C   0  0  0  0  0  0
  -22.7814  -13.5240   21.1840 C   0  0  0  0  0  0
  -22.1653   -4.2125   21.1004 F   0  0  0  0  0  0
  -21.5634   -3.4518   25.7770 F   0  0  0  0  0  0
  -30.0069  -13.3991   20.4115 N   0  0  0  0  0  0
  -26.2904  -12.9197   20.3347 N   0  0  0  0  0  0
  -25.9240  -11.6393   20.5828 N   0  0  0  0  0  0
  -22.0420  -12.8293   22.0399 N   0  0  0  0  0  0
  -25.4303  -15.1813   20.4230 N   0  0  0  0  0  0
  -31.8615  -14.6924   20.1905 O   0  0  0  0  0  0
  -21.6605   -6.8838   21.4274 O   0  0  0  0  0  0
  -22.3537  -14.5539   20.6651 O   0  0  0  0  0  0
  -24.6181  -31.8640   23.2067 C   0  0  0  0  0  0
  -25.9043  -32.4808   23.8393 C   0  0  1  0  0  0
  -27.2347  -27.3960   20.1164 C   0  0  0  0  0  0
  -25.5877  -33.8603   24.2319 N   0  0  0  0  0  0
  -23.4107  -30.4833   21.5476 C   0  0  2  0  0  0
  -24.8621  -28.9445   20.1146 C   0  0  0  0  0  0
  -22.7441  -29.4615   22.4980 C   0  0  0  0  0  0
  -18.0266  -28.1356   22.8495 C   0  0  0  0  0  0
  -24.1480  -36.7302   23.2642 C   0  0  0  0  0  0
  -25.9435  -30.8202   21.3646 C   0  0  0  0  0  0
  -26.0246  -29.4524   20.7107 C   0  0  0  0  0  0
  -27.2203  -28.6893   20.7003 C   0  0  0  0  0  0
  -26.0597  -26.9134   19.5075 C   0  0  0  0  0  0
  -24.8775  -27.6781   19.5046 C   0  0  0  0  0  0
  -23.6230  -29.8109   20.1641 C   0  0  0  0  0  0
  -25.4104  -36.3111   24.0347 C   0  0  1  0  0  0
  -20.5865  -28.3646   23.1307 C   0  0  2  0  0  0
  -20.6740  -26.9372   22.5409 C   0  0  0  0  0  0
  -19.5721  -26.6370   21.5200 C   0  0  0  0  0  0
  -18.1908  -26.7904   22.1623 C   0  0  0  0  0  0
  -19.1519  -28.8820   23.2895 C   0  0  0  0  0  0
  -18.9444  -30.1430   23.8904 C   0  0  0  0  0  0
  -17.6443  -30.6567   24.0556 C   0  0  0  0  0  0
  -25.9031  -34.9470   23.5140 C   0  0  0  0  0  0
  -16.5335  -29.9066   23.6318 C   0  0  0  0  0  0
  -16.7254  -28.6477   23.0354 C   0  0  0  0  0  0
  -26.4463  -31.6600   25.0730 C   0  0  0  0  0  0
  -25.3744  -31.3697   26.1495 C   0  0  0  0  0  0
  -27.0284  -30.3044   24.6110 C   0  0  0  0  0  0
  -27.6046  -32.4334   25.7470 C   0  0  0  0  0  0
  -27.5583  -37.1798   24.8469 C   0  0  0  0  0  0
  -21.4162  -29.3024   22.3731 N   0  0  0  0  0  0
  -26.4292  -37.3799   23.9422 N   0  0  0  0  0  0
  -24.6758  -31.0710   22.0975 N   0  0  0  0  0  0
  -23.4197  -28.8163   23.3035 O   0  0  0  0  0  0
  -28.3582  -26.5905   20.1321 O   0  0  0  0  0  0
  -26.5601  -34.8930   22.4706 O   0  0  0  0  0  0
  -23.5354  -32.1396   23.7431 O   0  0  0  0  0  0
  -30.5385  -19.0868   23.2364 C   0  0  0  0  0  0
  -30.0324  -18.2074   21.0464 C   0  0  0  0  0  0
  -30.3562  -16.6517   22.9183 C   0  0  0  0  0  0
  -30.2613  -19.3324   21.8833 C   0  0  0  0  0  0
  -30.5793  -17.7779   23.7621 C   0  0  0  0  0  0
  -30.1099  -16.8440   21.5170 C   0  0  0  0  0  0
  -29.1402  -22.8914   21.2575 C   0  0  0  0  0  0
  -28.6324  -24.0694   20.3282 C   0  0  0  0  0  0
  -30.3790  -15.2539   23.5441 C   0  0  0  0  0  0
  -31.9309  -18.3999   25.6980 C   0  0  0  0  0  0
  -29.3632  -16.1194   19.2597 C   0  0  0  0  0  0
  -29.2869  -21.4253   20.7277 C   0  0  0  0  0  0
  -28.2446  -25.4230   20.9979 C   0  0  0  0  0  0
  -30.8482  -17.6044   25.1307 N   0  0  0  0  0  0
  -30.3504  -20.6770   21.4391 N   0  0  0  0  0  0
  -29.9009  -15.7295   20.5765 N   0  0  0  0  0  0
  -29.4739  -23.1276   22.4266 O   0  0  0  0  0  0
  -28.5459  -23.9199   19.1024 O   0  0  0  0  0  0
  -31.4677  -12.4683   19.1482 H   0  0  0  0  0  0
  -30.3566  -11.3718   19.9178 H   0  0  0  0  0  0
  -29.7511  -11.6638   17.5074 H   0  0  0  0  0  0
  -29.6720  -13.3848   17.6940 H   0  0  0  0  0  0
  -27.8339  -11.2701   18.8568 H   0  0  0  0  0  0
  -27.3740  -12.5646   17.7825 H   0  0  0  0  0  0
  -27.6192  -14.2168   19.5053 H   0  0  0  0  0  0
  -28.6986  -12.0897   21.4244 H   0  0  0  0  0  0
  -28.4155  -13.7717   21.7779 H   0  0  0  0  0  0
  -25.2719   -9.5615   22.4788 H   0  0  0  0  0  0
  -23.9961   -7.4573   22.7481 H   0  0  0  0  0  0
  -21.0812   -8.8727   19.8978 H   0  0  0  0  0  0
  -22.3670  -10.9626   19.6176 H   0  0  0  0  0  0
  -21.1971   -7.6117   23.9742 H   0  0  0  0  0  0
  -21.1481   -6.0507   25.9111 H   0  0  0  0  0  0
  -22.0598   -2.7597   23.2905 H   0  0  0  0  0  0
  -22.3993  -11.9965   22.4835 H   0  0  0  0  0  0
  -21.1044  -13.1396   22.2548 H   0  0  0  0  0  0
  -24.6747  -15.8435   20.5607 H   0  0  0  0  0  0
  -26.2980  -15.6243   20.1502 H   0  0  0  0  0  0
  -26.7111  -32.5517   23.1156 H   0  0  0  0  0  0
  -25.0040  -33.9769   25.0474 H   0  0  0  0  0  0
  -22.7015  -31.3009   21.4018 H   0  0  0  0  0  0
  -23.3756  -35.9620   23.3311 H   0  0  0  0  0  0
  -24.3578  -36.8905   22.2055 H   0  0  0  0  0  0
  -23.7207  -37.6501   23.6645 H   0  0  0  0  0  0
  -26.0620  -31.5862   20.5971 H   0  0  0  0  0  0
  -26.8281  -30.8733   21.9873 H   0  0  0  0  0  0
  -28.1204  -29.0776   21.1578 H   0  0  0  0  0  0
  -26.0599  -25.9361   19.0440 H   0  0  0  0  0  0
  -23.9868  -27.2819   19.0374 H   0  0  0  0  0  0
  -23.7298  -30.5809   19.3997 H   0  0  0  0  0  0
  -22.7499  -29.2252   19.8720 H   0  0  0  0  0  0
  -25.1275  -36.1985   25.0839 H   0  0  0  0  0  0
  -20.9948  -28.3192   24.1434 H   0  0  0  0  0  0
  -20.5600  -26.2255   23.3604 H   0  0  0  0  0  0
  -21.6612  -26.7384   22.1226 H   0  0  0  0  0  0
  -19.6873  -25.6288   21.1215 H   0  0  0  0  0  0
  -19.6654  -27.3196   20.6745 H   0  0  0  0  0  0
  -17.4171  -26.6655   21.4031 H   0  0  0  0  0  0
  -18.0310  -26.0035   22.9009 H   0  0  0  0  0  0
  -19.7921  -30.7230   24.2291 H   0  0  0  0  0  0
  -17.4999  -31.6253   24.5144 H   0  0  0  0  0  0
  -15.5337  -30.2967   23.7633 H   0  0  0  0  0  0
  -15.8658  -28.0792   22.7077 H   0  0  0  0  0  0
  -24.5908  -30.7048   25.7845 H   0  0  0  0  0  0
  -24.8942  -32.2838   26.4999 H   0  0  0  0  0  0
  -25.8120  -30.8838   27.0228 H   0  0  0  0  0  0
  -26.2811  -29.6815   24.1179 H   0  0  0  0  0  0
  -27.4061  -29.7277   25.4564 H   0  0  0  0  0  0
  -27.8653  -30.4365   23.9251 H   0  0  0  0  0  0
  -27.2666  -33.3627   26.2081 H   0  0  0  0  0  0
  -28.3815  -32.6921   25.0259 H   0  0  0  0  0  0
  -28.0765  -31.8448   26.5353 H   0  0  0  0  0  0
  -28.2609  -38.0090   24.7535 H   0  0  0  0  0  0
  -28.1069  -36.2625   24.6272 H   0  0  0  0  0  0
  -27.2305  -37.1422   25.8874 H   0  0  0  0  0  0
  -20.9330  -29.8780   21.6981 H   0  0  0  0  0  0
  -26.0186  -38.2878   24.1438 H   0  0  0  0  0  0
  -30.7239  -19.9280   23.8892 H   0  0  0  0  0  0
  -29.8485  -18.4369   20.0097 H   0  0  0  0  0  0
  -30.3819  -15.2476   24.6316 H   0  0  0  0  0  0
  -31.2583  -14.6959   23.2251 H   0  0  0  0  0  0
  -29.4845  -14.7044   23.2795 H   0  0  0  0  0  0
  -32.3453  -17.8980   26.5739 H   0  0  0  0  0  0
  -31.5745  -19.3816   26.0140 H   0  0  0  0  0  0
  -32.7444  -18.5355   24.9830 H   0  0  0  0  0  0
  -29.1923  -15.2925   18.5757 H   0  0  0  0  0  0
  -30.0571  -16.7703   18.7284 H   0  0  0  0  0  0
  -28.4092  -16.6349   19.3749 H   0  0  0  0  0  0
  -29.5143  -21.4574   19.6619 H   0  0  0  0  0  0
  -28.3274  -20.9182   20.8381 H   0  0  0  0  0  0
  -28.8727  -25.5849   21.8745 H   0  0  0  0  0  0
  -27.2237  -25.3237   21.3712 H   0  0  0  0  0  0
  -30.8106  -16.6445   25.4624 H   0  0  0  0  0  0
  -30.7591  -21.2989   22.1347 H   0  0  0  0  0  0
  1 25  1  0  0  0
  1 30  2  0  0  0
  1 86  1  0  0  0
  2  3  1  0  0  0
  2 25  1  0  0  0
  2 89  1  0  0  0
  2 90  1  0  0  0
  3  4  1  0  0  0
  3 91  1  0  0  0
  3 92  1  0  0  0
  4  5  1  0  0  0
  4 93  1  0  0  0
  4 94  1  0  0  0
  5  6  1  0  0  0
  5 26  1  0  0  0
  5 95  1  0  0  0
  6 25  1  0  0  0
  6 96  1  0  0  0
  6 97  1  0  0  0
  7  8  2  0  0  0
  7 26  1  0  0  0
  7 29  1  0  0  0
  8  9  1  0  0  0
  8 22  1  0  0  0
  9 10  1  0  0  0
  9 27  2  0  0  0
 10 11  2  0  0  0
 10 15  1  0  0  0
 11 12  1  0  0  0
 11 98  1  0  0  0
 12 13  2  0  0  0
 12 99  1  0  0  0
 13 14  1  0  0  0
 13 31  1  0  0  0
 14 15  2  0  0  0
 14100  1  0  0  0
 15101  1  0  0  0
 16 17  2  0  0  0
 16 21  1  0  0  0
 16 31  1  0  0  0
 17 18  1  0  0  0
 17102  1  0  0  0
 18 19  2  0  0  0
 18103  1  0  0  0
 19 20  1  0  0  0
 19 24  1  0  0  0
 20 21  2  0  0  0
 20104  1  0  0  0
 21 23  1  0  0  0
 22 28  1  0  0  0
 22 32  2  0  0  0
 26 27  1  0  0  0
 28105  1  0  0  0
 28106  1  0  0  0
 29107  1  0  0  0
 29108  1  0  0  0
 33 34  1  0  0  0
 33 66  1  0  0  0
 33 70  2  0  0  0
 34 36  1  0  0  0
 34 59  1  0  0  0
 34109  1  0  0  0
 35 44  2  0  0  0
 35 45  1  0  0  0
 35 68  1  0  0  0
 36 56  1  0  0  0
 36110  1  0  0  0
 37 39  1  0  0  0
 37 47  1  0  0  0
 37 66  1  0  0  0
 37111  1  0  0  0
 38 43  2  0  0  0
 38 46  1  0  0  0
 38 47  1  0  0  0
 39 64  1  0  0  0
 39 67  2  0  0  0
 40 52  1  0  0  0
 40 53  2  0  0  0
 40 58  1  0  0  0
 41112  1  0  0  0
 41113  1  0  0  0
 41114  1  0  0  0
 41 48  1  0  0  0
 42 43  1  0  0  0
 42 66  1  0  0  0
 42115  1  0  0  0
 42116  1  0  0  0
 43 44  1  0  0  0
 44117  1  0  0  0
 45 46  2  0  0  0
 45118  1  0  0  0
 46119  1  0  0  0
 47120  1  0  0  0
 47121  1  0  0  0
 48 56  1  0  0  0
 48 65  1  0  0  0
 48122  1  0  0  0
 49 50  1  0  0  0
 49 53  1  0  0  0
 49 64  1  0  0  0
 49123  1  0  0  0
 50 51  1  0  0  0
 50124  1  0  0  0
 50125  1  0  0  0
 51 52  1  0  0  0
 51126  1  0  0  0
 51127  1  0  0  0
 52128  1  0  0  0
 52129  1  0  0  0
 53 54  1  0  0  0
 54 55  2  0  0  0
 54130  1  0  0  0
 55 57  1  0  0  0
 55131  1  0  0  0
 56 69  2  0  0  0
 57 58  2  0  0  0
 57132  1  0  0  0
 58133  1  0  0  0
 59 60  1  0  0  0
 59 61  1  0  0  0
 59 62  1  0  0  0
 60134  1  0  0  0
 60135  1  0  0  0
 60136  1  0  0  0
 61137  1  0  0  0
 61138  1  0  0  0
 61139  1  0  0  0
 62140  1  0  0  0
 62141  1  0  0  0
 62142  1  0  0  0
 63 65  1  0  0  0
 63143  1  0  0  0
 63144  1  0  0  0
 63145  1  0  0  0
 64146  1  0  0  0
 65147  1  0  0  0
 68 83  1  0  0  0
 71 74  2  0  0  0
 71 75  1  0  0  0
 71148  1  0  0  0
 72 74  1  0  0  0
 72 76  2  0  0  0
 72149  1  0  0  0
 73 75  2  0  0  0
 73 76  1  0  0  0
 73 79  1  0  0  0
 74 85  1  0  0  0
 75 84  1  0  0  0
 76 86  1  0  0  0
 77 78  1  0  0  0
 77 82  1  0  0  0
 77 87  2  0  0  0
 78 83  1  0  0  0
 78 88  2  0  0  0
 79150  1  0  0  0
 79151  1  0  0  0
 79152  1  0  0  0
 80 84  1  0  0  0
 80153  1  0  0  0
 80154  1  0  0  0
 80155  1  0  0  0
 81 86  1  0  0  0
 81156  1  0  0  0
 81157  1  0  0  0
 81158  1  0  0  0
 82 85  1  0  0  0
 82159  1  0  0  0
 82160  1  0  0  0
 83161  1  0  0  0
 83162  1  0  0  0
 84163  1  0  0  0
 85164  1  0  0  0
M  ISO  4   1 100  68 101  83 101  86 100
M  END
> <chiral flag>
0

> <version>
0

> <s_m_source_file>
/data/baiqing/PycharmProjects/Reinvent-master-3.2/result/LINK_invent/BTK/process_docking_weight1_custom_product_contain_oxygen_bond_distance_aromatic_linkinvent_7_9_3/rearranged_h_0161.sdf

> <i_m_source_file_index>
62

> <r_mmod_Potential_Energy-OPLS-2005>
356.900787353516

> <r_mmod_Stretch_Energy-OPLS-2005>
68.5546569824219

> <r_mmod_Bend_Energy-OPLS-2005>
134.881240844727

> <r_mmod_Torsional_Energy-OPLS-2005>
324.780059814453

> <r_mmod_Improper_Torsional_Energy-OPLS-2005>
20.9323844909668

> <r_mmod_Van_der_Waal_Energy-OPLS-2005>
166.615600585938

> <r_mmod_Electrostatic_Energy-OPLS-2005>
-152.341094970703

> <r_mmod_Solvation_Energy-OPLS-2005>
-239.614105224609

> <b_mmod_Minimization_Converged-OPLS-2005>
0

> <r_mmod_RMS_Derivative-OPLS-2005>
2.43054842948914

$$$$
62
                    3D
 Structure written by MMmdl.
156164  0  0  1  0            999 V2000
  -30.6274  -14.5415   20.4411 C   0  0  0  0  0  0
  -30.4236  -12.3080   19.4288 C   0  0  0  0  0  0
  -29.5007  -12.4830   18.2041 C   0  0  0  0  0  0
  -28.0194  -12.3494   18.6165 C   0  0  0  0  0  0
  -27.6593  -13.1997   19.8663 C   0  0  2  0  0  0
  -28.7048  -13.0040   20.9884 C   0  0  0  0  0  0
  -25.2595  -13.8114   20.5647 C   0  0  0  0  0  0
  -24.1856  -13.0403   20.9189 C   0  0  0  0  0  0
  -24.6394  -11.6874   20.8755 C   0  0  0  0  0  0
  -23.9039  -10.4265   21.0413 C   0  0  0  0  0  0
  -24.3601   -9.4194   21.9195 C   0  0  0  0  0  0
  -23.6281   -8.2230   22.0757 C   0  0  0  0  0  0
  -22.4267   -8.0270   21.3557 C   0  0  0  0  0  0
  -21.9904   -9.0240   20.4661 C   0  0  0  0  0  0
  -22.7210  -10.2120   20.3062 C   0  0  0  0  0  0
  -21.6849   -6.0731   22.5278 C   0  0  0  0  0  0
  -21.4010   -6.5633   23.8210 C   0  0  0  0  0  0
  -21.3649   -5.6785   24.9180 C   0  0  0  0  0  0
  -21.6033   -4.3048   24.7229 C   0  0  0  0  0  0
  -21.8822   -3.8144   23.4357 C   0  0  0  0  0  0
  -21.9204   -4.6960   22.3408 C   0  0  0  0  0  0
  -22.7892  -13.5250   21.1849 C   0  0  0  0  0  0
  -22.1672   -4.2148   21.0989 F   0  0  0  0  0  0
  -21.5623   -3.4529   25.7744 F   0  0  0  0  0  0
  -30.0253  -13.3185   20.4241 N   0  0  0  0  0  0
  -26.3022  -12.9267   20.3320 N   0  0  0  0  0  0
  -25.9314  -11.6441   20.5751 N   0  0  0  0  0  0
  -22.0510  -12.8255   22.0386 N   0  0  0  0  0  0
  -25.4323  -15.1826   20.3988 N   0  0  0  0  0  0
  -31.7994  -14.7050   20.0880 O   0  0  0  0  0  0
  -21.6637   -6.8874   21.4240 O   0  0  0  0  0  0
  -22.3606  -14.5566   20.6687 O   0  0  0  0  0  0
  -24.6234  -31.8628   23.2033 C   0  0  0  0  0  0
  -25.9109  -32.4768   23.8379 C   0  0  1  0  0  0
  -27.2313  -27.3651   20.0865 C   0  0  0  0  0  0
  -25.5932  -33.8568   24.2300 N   0  0  0  0  0  0
  -23.4160  -30.4902   21.5424 C   0  0  2  0  0  0
  -24.8676  -28.9468   20.1026 C   0  0  0  0  0  0
  -22.7449  -29.4695   22.4912 C   0  0  0  0  0  0
  -18.0319  -28.1376   22.8530 C   0  0  0  0  0  0
  -24.1464  -36.7279   23.2652 C   0  0  0  0  0  0
  -25.9558  -30.7985   21.3760 C   0  0  0  0  0  0
  -26.0337  -29.4334   20.7108 C   0  0  0  0  0  0
  -27.2234  -28.6483   20.7007 C   0  0  0  0  0  0
  -26.0503  -26.9208   19.4608 C   0  0  0  0  0  0
  -24.8756  -27.6954   19.4671 C   0  0  0  0  0  0
  -23.6337  -29.8266   20.1559 C   0  0  0  0  0  0
  -25.4091  -36.3079   24.0345 C   0  0  1  0  0  0
  -20.5913  -28.3700   23.1258 C   0  0  2  0  0  0
  -20.6783  -26.9428   22.5403 C   0  0  0  0  0  0
  -19.5738  -26.6416   21.5218 C   0  0  0  0  0  0
  -18.1943  -26.7950   22.1652 C   0  0  0  0  0  0
  -19.1563  -28.8867   23.2908 C   0  0  0  0  0  0
  -18.9480  -30.1481   23.8911 C   0  0  0  0  0  0
  -17.6474  -30.6582   24.0593 C   0  0  0  0  0  0
  -25.9036  -34.9438   23.5096 C   0  0  0  0  0  0
  -16.5372  -29.9082   23.6334 C   0  0  0  0  0  0
  -16.7317  -28.6492   23.0373 C   0  0  0  0  0  0
  -26.4481  -31.6566   25.0705 C   0  0  0  0  0  0
  -25.3765  -31.3727   26.1474 C   0  0  0  0  0  0
  -27.0316  -30.2993   24.6137 C   0  0  0  0  0  0
  -27.6059  -32.4296   25.7470 C   0  0  0  0  0  0
  -27.5564  -37.1782   24.8462 C   0  0  0  0  0  0
  -21.4182  -29.3057   22.3632 N   0  0  0  0  0  0
  -26.4259  -37.3788   23.9419 N   0  0  0  0  0  0
  -24.6834  -31.0687   22.0972 N   0  0  0  0  0  0
  -23.4186  -28.8263   23.2988 O   0  0  0  0  0  0
  -28.2747  -26.4425   20.1803 O   0  0  0  0  0  0
  -26.5628  -34.8883   22.4656 O   0  0  0  0  0  0
  -23.5382  -32.1418   23.7376 O   0  0  0  0  0  0
  -29.8576  -18.2208   17.9498 C   0  0  0  0  0  0
  -29.5751  -19.4014   18.6768 C   0  0  0  0  0  0
  -29.9765  -16.9766   18.6069 C   0  0  0  0  0  0
  -29.4793  -18.0748   20.7165 C   0  0  0  0  0  0
  -29.4033  -19.3630   20.0847 C   0  0  0  0  0  0
  -29.7853  -16.8760   20.0071 C   0  0  0  0  0  0
  -27.9677  -25.4238   21.0830 C   0  0  0  0  0  0
  -28.1416  -24.0597   21.1341 C   0  0  0  0  0  0
  -28.8957  -23.1335   20.2476 C   0  0  0  0  0  0
  -28.7029  -20.4143   22.3418 C   0  0  0  0  0  0
  -29.2645  -20.6844   20.9227 C   0  0  2  0  0  0
  -29.8053  -15.5972   20.6859 N   0  0  0  0  0  0
  -28.4864  -21.8335   20.3652 N   0  0  0  0  0  0
  -29.8792  -23.4355   19.5696 O   0  0  0  0  0  0
  -27.5600  -23.4811   22.1978 O   0  0  0  0  0  0
  -31.4712  -12.4014   19.1361 H   0  0  0  0  0  0
  -30.3199  -11.3030   19.8393 H   0  0  0  0  0  0
  -29.7416  -11.7425   17.4402 H   0  0  0  0  0  0
  -29.6754  -13.4581   17.7445 H   0  0  0  0  0  0
  -27.8271  -11.2964   18.8259 H   0  0  0  0  0  0
  -27.3708  -12.6134   17.7802 H   0  0  0  0  0  0
  -27.6945  -14.2409   19.5486 H   0  0  0  0  0  0
  -28.6896  -11.9737   21.3464 H   0  0  0  0  0  0
  -28.4796  -13.6217   21.8592 H   0  0  0  0  0  0
  -25.2753   -9.5681   22.4773 H   0  0  0  0  0  0
  -23.9988   -7.4637   22.7486 H   0  0  0  0  0  0
  -21.0822   -8.8755   19.8991 H   0  0  0  0  0  0
  -22.3654  -10.9663   19.6173 H   0  0  0  0  0  0
  -21.1985   -7.6140   23.9715 H   0  0  0  0  0  0
  -21.1461   -6.0516   25.9081 H   0  0  0  0  0  0
  -22.0612   -2.7606   23.2856 H   0  0  0  0  0  0
  -22.4075  -11.9880   22.4738 H   0  0  0  0  0  0
  -21.1161  -13.1353   22.2609 H   0  0  0  0  0  0
  -24.6548  -15.8281   20.4811 H   0  0  0  0  0  0
  -26.2646  -15.6128   20.0159 H   0  0  0  0  0  0
  -26.7184  -32.5445   23.1173 H   0  0  0  0  0  0
  -25.0149  -33.9715   25.0481 H   0  0  0  0  0  0
  -22.7136  -31.3166   21.4046 H   0  0  0  0  0  0
  -23.3720  -35.9619   23.3301 H   0  0  0  0  0  0
  -24.3633  -36.8867   22.2089 H   0  0  0  0  0  0
  -23.7151  -37.6448   23.6655 H   0  0  0  0  0  0
  -26.0919  -31.5672   20.6138 H   0  0  0  0  0  0
  -26.8373  -30.8460   22.0044 H   0  0  0  0  0  0
  -28.1094  -29.0093   21.2067 H   0  0  0  0  0  0
  -26.0326  -25.9451   18.9954 H   0  0  0  0  0  0
  -23.9817  -27.3188   18.9907 H   0  0  0  0  0  0
  -23.7598  -30.6040   19.4034 H   0  0  0  0  0  0
  -22.7543  -29.2624   19.8417 H   0  0  0  0  0  0
  -25.1250  -36.1998   25.0856 H   0  0  0  0  0  0
  -21.0044  -28.3277   24.1356 H   0  0  0  0  0  0
  -20.5678  -26.2340   23.3609 H   0  0  0  0  0  0
  -21.6667  -26.7452   22.1222 H   0  0  0  0  0  0
  -19.6858  -25.6320   21.1255 H   0  0  0  0  0  0
  -19.6633  -27.3232   20.6742 H   0  0  0  0  0  0
  -17.4231  -26.6772   21.4033 H   0  0  0  0  0  0
  -18.0313  -26.0046   22.9001 H   0  0  0  0  0  0
  -19.7950  -30.7329   24.2221 H   0  0  0  0  0  0
  -17.5034  -31.6245   24.5224 H   0  0  0  0  0  0
  -15.5370  -30.2996   23.7606 H   0  0  0  0  0  0
  -15.8733  -28.0805   22.7052 H   0  0  0  0  0  0
  -24.5921  -30.7077   25.7840 H   0  0  0  0  0  0
  -24.8987  -32.2917   26.4896 H   0  0  0  0  0  0
  -25.8159  -30.8934   27.0239 H   0  0  0  0  0  0
  -26.2849  -29.6762   24.1185 H   0  0  0  0  0  0
  -27.4055  -29.7231   25.4610 H   0  0  0  0  0  0
  -27.8721  -30.4281   23.9311 H   0  0  0  0  0  0
  -27.2710  -33.3669   26.1960 H   0  0  0  0  0  0
  -28.3931  -32.6730   25.0318 H   0  0  0  0  0  0
  -28.0667  -31.8467   26.5466 H   0  0  0  0  0  0
  -28.2560  -38.0094   24.7581 H   0  0  0  0  0  0
  -28.1071  -36.2636   24.6216 H   0  0  0  0  0  0
  -27.2349  -37.1369   25.8878 H   0  0  0  0  0  0
  -20.9351  -29.8829   21.6868 H   0  0  0  0  0  0
  -26.0130  -38.2834   24.1489 H   0  0  0  0  0  0
  -30.0052  -18.2628   16.8761 H   0  0  0  0  0  0
  -29.5191  -20.3381   18.1387 H   0  0  0  0  0  0
  -30.1907  -16.0998   18.0095 H   0  0  0  0  0  0
  -29.3286  -17.9744   21.7795 H   0  0  0  0  0  0
  -27.4343  -25.8698   21.9102 H   0  0  0  0  0  0
  -29.3312  -19.7435   22.9303 H   0  0  0  0  0  0
  -27.7019  -19.9815   22.3078 H   0  0  0  0  0  0
  -28.6451  -21.3228   22.9369 H   0  0  0  0  0  0
  -30.2873  -21.0396   21.0569 H   0  0  0  0  0  0
  -28.9576  -15.3608   21.1835 H   0  0  0  0  0  0
  -27.5333  -21.8099   20.6966 H   0  0  0  0  0  0
  -27.1866  -24.1689   22.7305 H   0  0  0  0  0  0
  1 25  1  0  0  0
  1 30  2  0  0  0
  1 82  1  0  0  0
  2  3  1  0  0  0
  2 25  1  0  0  0
  2 86  1  0  0  0
  2 87  1  0  0  0
  3  4  1  0  0  0
  3 88  1  0  0  0
  3 89  1  0  0  0
  4  5  1  0  0  0
  4 90  1  0  0  0
  4 91  1  0  0  0
  5  6  1  0  0  0
  5 26  1  0  0  0
  5 92  1  0  0  0
  6 25  1  0  0  0
  6 93  1  0  0  0
  6 94  1  0  0  0
  7  8  2  0  0  0
  7 26  1  0  0  0
  7 29  1  0  0  0
  8  9  1  0  0  0
  8 22  1  0  0  0
  9 10  1  0  0  0
  9 27  2  0  0  0
 10 11  2  0  0  0
 10 15  1  0  0  0
 11 12  1  0  0  0
 11 95  1  0  0  0
 12 13  2  0  0  0
 12 96  1  0  0  0
 13 14  1  0  0  0
 13 31  1  0  0  0
 14 15  2  0  0  0
 14 97  1  0  0  0
 15 98  1  0  0  0
 16 17  2  0  0  0
 16 21  1  0  0  0
 16 31  1  0  0  0
 17 18  1  0  0  0
 17 99  1  0  0  0
 18 19  2  0  0  0
 18100  1  0  0  0
 19 20  1  0  0  0
 19 24  1  0  0  0
 20 21  2  0  0  0
 20101  1  0  0  0
 21 23  1  0  0  0
 22 28  1  0  0  0
 22 32  2  0  0  0
 26 27  1  0  0  0
 28102  1  0  0  0
 28103  1  0  0  0
 29104  1  0  0  0
 29105  1  0  0  0
 33 34  1  0  0  0
 33 66  1  0  0  0
 33 70  2  0  0  0
 34 36  1  0  0  0
 34 59  1  0  0  0
 34106  1  0  0  0
 35 44  2  0  0  0
 35 45  1  0  0  0
 35 68  1  0  0  0
 36 56  1  0  0  0
 36107  1  0  0  0
 37 39  1  0  0  0
 37 47  1  0  0  0
 37 66  1  0  0  0
 37108  1  0  0  0
 38 43  2  0  0  0
 38 46  1  0  0  0
 38 47  1  0  0  0
 39 64  1  0  0  0
 39 67  2  0  0  0
 40 52  1  0  0  0
 40 53  2  0  0  0
 40 58  1  0  0  0
 41109  1  0  0  0
 41110  1  0  0  0
 41111  1  0  0  0
 41 48  1  0  0  0
 42 43  1  0  0  0
 42 66  1  0  0  0
 42112  1  0  0  0
 42113  1  0  0  0
 43 44  1  0  0  0
 44114  1  0  0  0
 45 46  2  0  0  0
 45115  1  0  0  0
 46116  1  0  0  0
 47117  1  0  0  0
 47118  1  0  0  0
 48 56  1  0  0  0
 48 65  1  0  0  0
 48119  1  0  0  0
 49 50  1  0  0  0
 49 53  1  0  0  0
 49 64  1  0  0  0
 49120  1  0  0  0
 50 51  1  0  0  0
 50121  1  0  0  0
 50122  1  0  0  0
 51 52  1  0  0  0
 51123  1  0  0  0
 51124  1  0  0  0
 52125  1  0  0  0
 52126  1  0  0  0
 53 54  1  0  0  0
 54 55  2  0  0  0
 54127  1  0  0  0
 55 57  1  0  0  0
 55128  1  0  0  0
 56 69  2  0  0  0
 57 58  2  0  0  0
 57129  1  0  0  0
 58130  1  0  0  0
 59 60  1  0  0  0
 59 61  1  0  0  0
 59 62  1  0  0  0
 60131  1  0  0  0
 60132  1  0  0  0
 60133  1  0  0  0
 61134  1  0  0  0
 61135  1  0  0  0
 61136  1  0  0  0
 62137  1  0  0  0
 62138  1  0  0  0
 62139  1  0  0  0
 63 65  1  0  0  0
 63140  1  0  0  0
 63141  1  0  0  0
 63142  1  0  0  0
 64143  1  0  0  0
 65144  1  0  0  0
 68 77  1  0  0  0
 71 72  2  0  0  0
 71 73  1  0  0  0
 71145  1  0  0  0
 72 75  1  0  0  0
 72146  1  0  0  0
 73 76  2  0  0  0
 73147  1  0  0  0
 74 75  2  0  0  0
 74 76  1  0  0  0
 74148  1  0  0  0
 75 81  1  0  0  0
 76 82  1  0  0  0
 77 78  2  0  0  0
 77149  1  0  0  0
 78 79  1  0  0  0
 78 85  1  0  0  0
 79 83  1  0  0  0
 79 84  2  0  0  0
 80150  1  0  0  0
 80151  1  0  0  0
 80152  1  0  0  0
 80 81  1  0  0  0
 81 83  1  0  0  0
 81153  1  0  0  0
 82154  1  0  0  0
 83155  1  0  0  0
 85156  1  0  0  0
M  ISO  4   1 100  68 101  77 101  82 100
M  END
> <chiral flag>
0

> <version>
0

> <s_m_source_file>
/data/baiqing/PycharmProjects/Reinvent-master-3.2/result/LINK_invent/BTK/process_docking_weight1_custom_product_contain_oxygen_bond_distance_aromatic_linkinvent_7_9_3/rearranged_h_0161.sdf

> <i_m_source_file_index>
63

> <r_mmod_Potential_Energy-OPLS-2005>
25.8585987091064

> <r_mmod_Stretch_Energy-OPLS-2005>
63.0789833068848

> <r_mmod_Bend_Energy-OPLS-2005>
159.182052612305

> <r_mmod_Torsional_Energy-OPLS-2005>
289.889739990234

> <r_mmod_Improper_Torsional_Energy-OPLS-2005>
12.280348777771

> <r_mmod_Van_der_Waal_Energy-OPLS-2005>
152.408477783203

> <r_mmod_Electrostatic_Energy-OPLS-2005>
-448.766998291016

> <r_mmod_Solvation_Energy-OPLS-2005>
-240.807540893555

> <b_mmod_Minimization_Converged-OPLS-2005>
0

> <r_mmod_RMS_Derivative-OPLS-2005>
6.5639796257019

$$$$
63
                    3D
 Structure written by MMmdl.
165173  0  0  1  0            999 V2000
  -30.5679  -14.7878   20.4451 C   0  0  0  0  0  0
  -30.4382  -12.4695   19.4947 C   0  0  0  0  0  0
  -29.5304  -12.5061   18.2467 C   0  0  0  0  0  0
  -28.0451  -12.3520   18.6385 C   0  0  0  0  0  0
  -27.6456  -13.2374   19.8512 C   0  0  2  0  0  0
  -28.6815  -13.1680   20.9925 C   0  0  0  0  0  0
  -25.2534  -13.8225   20.5650 C   0  0  0  0  0  0
  -24.1820  -13.0468   20.9161 C   0  0  0  0  0  0
  -24.6422  -11.6938   20.8725 C   0  0  0  0  0  0
  -23.9112  -10.4305   21.0409 C   0  0  0  0  0  0
  -24.3658   -9.4214   21.9182 C   0  0  0  0  0  0
  -23.6322   -8.2254   22.0763 C   0  0  0  0  0  0
  -22.4296   -8.0311   21.3558 C   0  0  0  0  0  0
  -21.9943   -9.0280   20.4657 C   0  0  0  0  0  0
  -22.7302  -10.2140   20.3055 C   0  0  0  0  0  0
  -21.6859   -6.0761   22.5282 C   0  0  0  0  0  0
  -21.4035   -6.5663   23.8226 C   0  0  0  0  0  0
  -21.3645   -5.6799   24.9179 C   0  0  0  0  0  0
  -21.6044   -4.3068   24.7225 C   0  0  0  0  0  0
  -21.8810   -3.8157   23.4338 C   0  0  0  0  0  0
  -21.9191   -4.6977   22.3399 C   0  0  0  0  0  0
  -22.7837  -13.5245   21.1817 C   0  0  0  0  0  0
  -22.1657   -4.2170   21.0969 F   0  0  0  0  0  0
  -21.5614   -3.4543   25.7719 F   0  0  0  0  0  0
  -29.9849  -13.5322   20.4264 N   0  0  0  0  0  0
  -26.2950  -12.9431   20.3224 N   0  0  0  0  0  0
  -25.9341  -11.6564   20.5669 N   0  0  0  0  0  0
  -22.0465  -12.8229   22.0358 N   0  0  0  0  0  0
  -25.4286  -15.1944   20.4077 N   0  0  0  0  0  0
  -31.7312  -14.9096   20.0529 O   0  0  0  0  0  0
  -21.6663   -6.8901   21.4241 O   0  0  0  0  0  0
  -22.3525  -14.5554   20.6656 O   0  0  0  0  0  0
  -24.6314  -31.8492   23.1941 C   0  0  0  0  0  0
  -25.9135  -32.4709   23.8276 C   0  0  1  0  0  0
  -27.2309  -27.2414   20.1486 C   0  0  0  0  0  0
  -25.5923  -33.8515   24.2211 N   0  0  0  0  0  0
  -23.4306  -30.4681   21.5357 C   0  0  2  0  0  0
  -24.8840  -28.8996   20.1178 C   0  0  0  0  0  0
  -22.7506  -29.4551   22.4887 C   0  0  0  0  0  0
  -18.0283  -28.1379   22.8454 C   0  0  0  0  0  0
  -24.1497  -36.7289   23.2647 C   0  0  0  0  0  0
  -25.9759  -30.7609   21.3703 C   0  0  0  0  0  0
  -26.0545  -29.3761   20.7226 C   0  0  0  0  0  0
  -27.2348  -28.5627   20.7165 C   0  0  0  0  0  0
  -26.0370  -26.8256   19.5275 C   0  0  0  0  0  0
  -24.8809  -27.6345   19.5067 C   0  0  0  0  0  0
  -23.6546  -29.7894   20.1563 C   0  0  0  0  0  0
  -25.4116  -36.3045   24.0317 C   0  0  1  0  0  0
  -20.5887  -28.3674   23.1259 C   0  0  2  0  0  0
  -20.6749  -26.9380   22.5409 C   0  0  0  0  0  0
  -19.5745  -26.6367   21.5183 C   0  0  0  0  0  0
  -18.1924  -26.7908   22.1604 C   0  0  0  0  0  0
  -19.1536  -28.8842   23.2852 C   0  0  0  0  0  0
  -18.9462  -30.1440   23.8867 C   0  0  0  0  0  0
  -17.6461  -30.6571   24.0544 C   0  0  0  0  0  0
  -25.9052  -34.9413   23.5072 C   0  0  0  0  0  0
  -16.5353  -29.9067   23.6320 C   0  0  0  0  0  0
  -16.7267  -28.6498   23.0317 C   0  0  0  0  0  0
  -26.4485  -31.6537   25.0680 C   0  0  0  0  0  0
  -25.3712  -31.3704   26.1414 C   0  0  0  0  0  0
  -27.0340  -30.2951   24.6184 C   0  0  0  0  0  0
  -27.6031  -32.4265   25.7474 C   0  0  0  0  0  0
  -27.5576  -37.1786   24.8455 C   0  0  0  0  0  0
  -21.4202  -29.3038   22.3673 N   0  0  0  0  0  0
  -26.4281  -37.3748   23.9405 N   0  0  0  0  0  0
  -24.6988  -31.0450   22.0902 N   0  0  0  0  0  0
  -23.4211  -28.8095   23.2976 O   0  0  0  0  0  0
  -28.3426  -26.3702   20.0964 O   0  0  0  0  0  0
  -26.5651  -34.8892   22.4662 O   0  0  0  0  0  0
  -23.5471  -32.1303   23.7231 O   0  0  0  0  0  0
  -29.5442  -17.5761   18.9377 C   0  0  0  0  0  0
  -29.7231  -17.2939   20.2827 C   0  0  0  0  0  0
  -29.3859  -19.6820   20.3132 C   0  0  0  0  0  0
  -28.3651  -23.6406   20.0788 C   0  0  0  0  0  0
  -28.4304  -15.3273   15.3586 C   0  0  0  0  0  0
  -30.8608  -15.0635   14.8367 C   0  0  0  0  0  0
  -29.6491  -17.1714   14.1921 C   0  0  0  0  0  0
  -29.2497  -16.6522   17.7992 C   0  0  0  0  0  0
  -29.4438  -22.4722   20.3614 C   0  0  0  0  0  0
  -28.3603  -25.0591   20.8486 C   0  0  0  0  0  0
  -30.2437  -16.7316   16.6192 C   0  0  0  0  0  0
  -29.7847  -16.0756   15.2742 C   0  0  0  0  0  0
  -29.5373  -18.5219   21.0448 N   0  0  0  0  0  0
  -29.7865  -15.8914   20.8033 N   0  0  0  0  0  0
  -29.0944  -21.0338   20.7576 N   0  0  0  0  0  0
  -27.4910  -23.4225   19.2347 O   0  0  0  0  0  0
  -29.4556  -19.3098   18.6039 S   0  0  0  0  0  0
  -31.4838  -12.5841   19.2066 H   0  0  0  0  0  0
  -30.3834  -11.4925   19.9753 H   0  0  0  0  0  0
  -29.8187  -11.7167   17.5508 H   0  0  0  0  0  0
  -29.6910  -13.4425   17.7120 H   0  0  0  0  0  0
  -27.8679  -11.3008   18.8714 H   0  0  0  0  0  0
  -27.4080  -12.5806   17.7834 H   0  0  0  0  0  0
  -27.6388  -14.2633   19.4813 H   0  0  0  0  0  0
  -28.7100  -12.1698   21.4333 H   0  0  0  0  0  0
  -28.4039  -13.8468   21.8001 H   0  0  0  0  0  0
  -25.2792   -9.5707   22.4760 H   0  0  0  0  0  0
  -24.0025   -7.4662   22.7492 H   0  0  0  0  0  0
  -21.0875   -8.8822   19.8965 H   0  0  0  0  0  0
  -22.3781  -10.9679   19.6151 H   0  0  0  0  0  0
  -21.2062   -7.6180   23.9749 H   0  0  0  0  0  0
  -21.1468   -6.0520   25.9086 H   0  0  0  0  0  0
  -22.0603   -2.7623   23.2824 H   0  0  0  0  0  0
  -22.4031  -11.9909   22.4811 H   0  0  0  0  0  0
  -21.1094  -13.1299   22.2543 H   0  0  0  0  0  0
  -24.6691  -15.8578   20.5271 H   0  0  0  0  0  0
  -26.2807  -15.6281   20.0758 H   0  0  0  0  0  0
  -26.7210  -32.5349   23.1020 H   0  0  0  0  0  0
  -25.0000  -33.9614   25.0313 H   0  0  0  0  0  0
  -22.7268  -31.2894   21.3806 H   0  0  0  0  0  0
  -23.3725  -35.9654   23.3278 H   0  0  0  0  0  0
  -24.3604  -36.8958   22.2074 H   0  0  0  0  0  0
  -23.7269  -37.6487   23.6692 H   0  0  0  0  0  0
  -26.1095  -31.5133   20.5914 H   0  0  0  0  0  0
  -26.8566  -30.8223   21.9978 H   0  0  0  0  0  0
  -28.1400  -28.9333   21.1757 H   0  0  0  0  0  0
  -25.9986  -25.8542   19.0552 H   0  0  0  0  0  0
  -23.9855  -27.2637   19.0279 H   0  0  0  0  0  0
  -23.7865  -30.5584   19.3946 H   0  0  0  0  0  0
  -22.7715  -29.2250   19.8492 H   0  0  0  0  0  0
  -25.1288  -36.1872   25.0802 H   0  0  0  0  0  0
  -20.9976  -28.3247   24.1381 H   0  0  0  0  0  0
  -20.5599  -26.2274   23.3622 H   0  0  0  0  0  0
  -21.6614  -26.7384   22.1223 H   0  0  0  0  0  0
  -19.6899  -25.6273   21.1209 H   0  0  0  0  0  0
  -19.6682  -27.3178   20.6709 H   0  0  0  0  0  0
  -17.4184  -26.6645   21.4019 H   0  0  0  0  0  0
  -18.0348  -26.0064   22.9027 H   0  0  0  0  0  0
  -19.7937  -30.7267   24.2231 H   0  0  0  0  0  0
  -17.5010  -31.6234   24.5179 H   0  0  0  0  0  0
  -15.5345  -30.2968   23.7647 H   0  0  0  0  0  0
  -15.8666  -28.0830   22.7010 H   0  0  0  0  0  0
  -24.5869  -30.7074   25.7749 H   0  0  0  0  0  0
  -24.8919  -32.2892   26.4804 H   0  0  0  0  0  0
  -25.8034  -30.8891   27.0205 H   0  0  0  0  0  0
  -26.2941  -29.6672   24.1219 H   0  0  0  0  0  0
  -27.4044  -29.7228   25.4701 H   0  0  0  0  0  0
  -27.8787  -30.4212   23.9408 H   0  0  0  0  0  0
  -27.2630  -33.3573   26.2025 H   0  0  0  0  0  0
  -28.3864  -32.6818   25.0320 H   0  0  0  0  0  0
  -28.0668  -31.8392   26.5418 H   0  0  0  0  0  0
  -28.2549  -38.0119   24.7502 H   0  0  0  0  0  0
  -28.1101  -36.2641   24.6244 H   0  0  0  0  0  0
  -27.2307  -37.1399   25.8861 H   0  0  0  0  0  0
  -20.9399  -29.8830   21.6933 H   0  0  0  0  0  0
  -26.0143  -38.2814   24.1393 H   0  0  0  0  0  0
  -28.1858  -14.8363   14.4153 H   0  0  0  0  0  0
  -27.5971  -15.9972   15.5724 H   0  0  0  0  0  0
  -28.4311  -14.5546   16.1263 H   0  0  0  0  0  0
  -30.6149  -14.5948   13.8831 H   0  0  0  0  0  0
  -30.9728  -14.2629   15.5708 H   0  0  0  0  0  0
  -31.8349  -15.5413   14.7247 H   0  0  0  0  0  0
  -29.3211  -16.7615   13.2360 H   0  0  0  0  0  0
  -30.5938  -17.6870   14.0137 H   0  0  0  0  0  0
  -28.9168  -17.9285   14.4815 H   0  0  0  0  0  0
  -28.2492  -16.9174   17.4559 H   0  0  0  0  0  0
  -29.1711  -15.6270   18.1495 H   0  0  0  0  0  0
  -30.1442  -22.8573   21.1047 H   0  0  0  0  0  0
  -30.0342  -22.3982   19.4473 H   0  0  0  0  0  0
  -29.2358  -25.0699   21.4981 H   0  0  0  0  0  0
  -27.5005  -25.0419   21.5173 H   0  0  0  0  0  0
  -31.1964  -16.3109   16.9519 H   0  0  0  0  0  0
  -30.4741  -17.7813   16.4295 H   0  0  0  0  0  0
  -28.9941  -15.6362   21.3732 H   0  0  0  0  0  0
  -28.7210  -21.0170   21.6998 H   0  0  0  0  0  0
  1 25  1  0  0  0
  1 30  2  0  0  0
  1 84  1  0  0  0
  2  3  1  0  0  0
  2 25  1  0  0  0
  2 88  1  0  0  0
  2 89  1  0  0  0
  3  4  1  0  0  0
  3 90  1  0  0  0
  3 91  1  0  0  0
  4  5  1  0  0  0
  4 92  1  0  0  0
  4 93  1  0  0  0
  5  6  1  0  0  0
  5 26  1  0  0  0
  5 94  1  0  0  0
  6 25  1  0  0  0
  6 95  1  0  0  0
  6 96  1  0  0  0
  7  8  2  0  0  0
  7 26  1  0  0  0
  7 29  1  0  0  0
  8  9  1  0  0  0
  8 22  1  0  0  0
  9 10  1  0  0  0
  9 27  2  0  0  0
 10 11  2  0  0  0
 10 15  1  0  0  0
 11 12  1  0  0  0
 11 97  1  0  0  0
 12 13  2  0  0  0
 12 98  1  0  0  0
 13 14  1  0  0  0
 13 31  1  0  0  0
 14 15  2  0  0  0
 14 99  1  0  0  0
 15100  1  0  0  0
 16 17  2  0  0  0
 16 21  1  0  0  0
 16 31  1  0  0  0
 17 18  1  0  0  0
 17101  1  0  0  0
 18 19  2  0  0  0
 18102  1  0  0  0
 19 20  1  0  0  0
 19 24  1  0  0  0
 20 21  2  0  0  0
 20103  1  0  0  0
 21 23  1  0  0  0
 22 28  1  0  0  0
 22 32  2  0  0  0
 26 27  1  0  0  0
 28104  1  0  0  0
 28105  1  0  0  0
 29106  1  0  0  0
 29107  1  0  0  0
 33 34  1  0  0  0
 33 66  1  0  0  0
 33 70  2  0  0  0
 34 36  1  0  0  0
 34 59  1  0  0  0
 34108  1  0  0  0
 35 44  2  0  0  0
 35 45  1  0  0  0
 35 68  1  0  0  0
 36 56  1  0  0  0
 36109  1  0  0  0
 37 39  1  0  0  0
 37 47  1  0  0  0
 37 66  1  0  0  0
 37110  1  0  0  0
 38 43  2  0  0  0
 38 46  1  0  0  0
 38 47  1  0  0  0
 39 64  1  0  0  0
 39 67  2  0  0  0
 40 52  1  0  0  0
 40 53  2  0  0  0
 40 58  1  0  0  0
 41111  1  0  0  0
 41112  1  0  0  0
 41113  1  0  0  0
 41 48  1  0  0  0
 42 43  1  0  0  0
 42 66  1  0  0  0
 42114  1  0  0  0
 42115  1  0  0  0
 43 44  1  0  0  0
 44116  1  0  0  0
 45 46  2  0  0  0
 45117  1  0  0  0
 46118  1  0  0  0
 47119  1  0  0  0
 47120  1  0  0  0
 48 56  1  0  0  0
 48 65  1  0  0  0
 48121  1  0  0  0
 49 50  1  0  0  0
 49 53  1  0  0  0
 49 64  1  0  0  0
 49122  1  0  0  0
 50 51  1  0  0  0
 50123  1  0  0  0
 50124  1  0  0  0
 51 52  1  0  0  0
 51125  1  0  0  0
 51126  1  0  0  0
 52127  1  0  0  0
 52128  1  0  0  0
 53 54  1  0  0  0
 54 55  2  0  0  0
 54129  1  0  0  0
 55 57  1  0  0  0
 55130  1  0  0  0
 56 69  2  0  0  0
 57 58  2  0  0  0
 57131  1  0  0  0
 58132  1  0  0  0
 59 60  1  0  0  0
 59 61  1  0  0  0
 59 62  1  0  0  0
 60133  1  0  0  0
 60134  1  0  0  0
 60135  1  0  0  0
 61136  1  0  0  0
 61137  1  0  0  0
 61138  1  0  0  0
 62139  1  0  0  0
 62140  1  0  0  0
 62141  1  0  0  0
 63 65  1  0  0  0
 63142  1  0  0  0
 63143  1  0  0  0
 63144  1  0  0  0
 64145  1  0  0  0
 65146  1  0  0  0
 68 80  1  0  0  0
 71 72  2  0  0  0
 71 78  1  0  0  0
 71 87  1  0  0  0
 72 83  1  0  0  0
 72 84  1  0  0  0
 73 83  2  0  0  0
 73 85  1  0  0  0
 73 87  1  0  0  0
 74 79  1  0  0  0
 74 80  1  0  0  0
 74 86  2  0  0  0
 75147  1  0  0  0
 75148  1  0  0  0
 75149  1  0  0  0
 75 82  1  0  0  0
 76 82  1  0  0  0
 76150  1  0  0  0
 76151  1  0  0  0
 76152  1  0  0  0
 77 82  1  0  0  0
 77153  1  0  0  0
 77154  1  0  0  0
 77155  1  0  0  0
 78 81  1  0  0  0
 78156  1  0  0  0
 78157  1  0  0  0
 79 85  1  0  0  0
 79158  1  0  0  0
 79159  1  0  0  0
 80160  1  0  0  0
 80161  1  0  0  0
 81 82  1  0  0  0
 81162  1  0  0  0
 81163  1  0  0  0
 84164  1  0  0  0
 85165  1  0  0  0
M  ISO  4   1 100  68 101  80 101  84 100
M  END
> <chiral flag>
0

> <version>
0

> <s_m_source_file>
/data/baiqing/PycharmProjects/Reinvent-master-3.2/result/LINK_invent/BTK/process_docking_weight1_custom_product_contain_oxygen_bond_distance_aromatic_linkinvent_7_9_3/rearranged_h_0161.sdf

> <i_m_source_file_index>
64

> <r_mmod_Potential_Energy-OPLS-2005>
212.602081298828

> <r_mmod_Stretch_Energy-OPLS-2005>
138.033767700195

> <r_mmod_Bend_Energy-OPLS-2005>
197.772033691406

> <r_mmod_Torsional_Energy-OPLS-2005>
287.409271240234

> <r_mmod_Improper_Torsional_Energy-OPLS-2005>
7.07635545730591

> <r_mmod_Van_der_Waal_Energy-OPLS-2005>
101.694564819336

> <r_mmod_Electrostatic_Energy-OPLS-2005>
-375.695190429688

> <r_mmod_Solvation_Energy-OPLS-2005>
-239.589126586914

> <b_mmod_Minimization_Converged-OPLS-2005>
0

> <r_mmod_RMS_Derivative-OPLS-2005>
4.0607967376709

$$$$
64
                    3D
 Structure written by MMmdl.
180189  0  0  1  0            999 V2000
  -30.6491  -14.4747   20.6303 C   0  0  0  0  0  0
  -30.4460  -12.3267   19.4042 C   0  0  0  0  0  0
  -29.5035  -12.5324   18.1990 C   0  0  0  0  0  0
  -28.0234  -12.3723   18.6115 C   0  0  0  0  0  0
  -27.6673  -13.1916   19.8799 C   0  0  2  0  0  0
  -28.7081  -12.9104   20.9855 C   0  0  0  0  0  0
  -25.2618  -13.8105   20.5681 C   0  0  0  0  0  0
  -24.1844  -13.0403   20.9140 C   0  0  0  0  0  0
  -24.6382  -11.6868   20.8697 C   0  0  0  0  0  0
  -23.9026  -10.4271   21.0379 C   0  0  0  0  0  0
  -24.3581   -9.4201   21.9170 C   0  0  0  0  0  0
  -23.6266   -8.2235   22.0751 C   0  0  0  0  0  0
  -22.4254   -8.0260   21.3541 C   0  0  0  0  0  0
  -21.9874   -9.0221   20.4642 C   0  0  0  0  0  0
  -22.7191  -10.2106   20.3038 C   0  0  0  0  0  0
  -21.6844   -6.0716   22.5278 C   0  0  0  0  0  0
  -21.4007   -6.5628   23.8207 C   0  0  0  0  0  0
  -21.3664   -5.6788   24.9174 C   0  0  0  0  0  0
  -21.6043   -4.3051   24.7236 C   0  0  0  0  0  0
  -21.8815   -3.8136   23.4360 C   0  0  0  0  0  0
  -21.9196   -4.6945   22.3410 C   0  0  0  0  0  0
  -22.7873  -13.5224   21.1826 C   0  0  0  0  0  0
  -22.1665   -4.2124   21.0990 F   0  0  0  0  0  0
  -21.5631   -3.4542   25.7755 F   0  0  0  0  0  0
  -30.0387  -13.2697   20.4516 N   0  0  0  0  0  0
  -26.3047  -12.9249   20.3364 N   0  0  0  0  0  0
  -25.9301  -11.6413   20.5711 N   0  0  0  0  0  0
  -22.0503  -12.8221   22.0384 N   0  0  0  0  0  0
  -25.4340  -15.1824   20.4191 N   0  0  0  0  0  0
  -31.7550  -14.7556   20.1528 O   0  0  0  0  0  0
  -21.6628   -6.8855   21.4238 O   0  0  0  0  0  0
  -22.3562  -14.5541   20.6695 O   0  0  0  0  0  0
  -24.6093  -31.8680   23.2138 C   0  0  0  0  0  0
  -25.8998  -32.4822   23.8425 C   0  0  1  0  0  0
  -27.2353  -27.4687   20.0975 C   0  0  0  0  0  0
  -25.5899  -33.8614   24.2362 N   0  0  0  0  0  0
  -23.3980  -30.4936   21.5496 C   0  0  2  0  0  0
  -24.8455  -28.9622   20.1154 C   0  0  0  0  0  0
  -22.7409  -29.4653   22.5002 C   0  0  0  0  0  0
  -18.0281  -28.1442   22.8511 C   0  0  0  0  0  0
  -24.1466  -36.7256   23.2642 C   0  0  0  0  0  0
  -25.9220  -30.8482   21.3619 C   0  0  0  0  0  0
  -26.0016  -29.4833   20.7139 C   0  0  0  0  0  0
  -27.2007  -28.7414   20.7062 C   0  0  0  0  0  0
  -26.0706  -26.9562   19.4925 C   0  0  0  0  0  0
  -24.8762  -27.6968   19.5021 C   0  0  0  0  0  0
  -23.6064  -29.8246   20.1641 C   0  0  0  0  0  0
  -25.4096  -36.3108   24.0359 C   0  0  1  0  0  0
  -20.5879  -28.3686   23.1346 C   0  0  2  0  0  0
  -20.6777  -26.9420   22.5452 C   0  0  0  0  0  0
  -19.5735  -26.6433   21.5252 C   0  0  0  0  0  0
  -18.1906  -26.7984   22.1664 C   0  0  0  0  0  0
  -19.1530  -28.8875   23.2928 C   0  0  0  0  0  0
  -18.9478  -30.1514   23.8921 C   0  0  0  0  0  0
  -17.6485  -30.6619   24.0598 C   0  0  0  0  0  0
  -25.9030  -34.9459   23.5160 C   0  0  0  0  0  0
  -16.5377  -29.9138   23.6365 C   0  0  0  0  0  0
  -16.7279  -28.6558   23.0357 C   0  0  0  0  0  0
  -26.4456  -31.6581   25.0730 C   0  0  0  0  0  0
  -25.3764  -31.3657   26.1532 C   0  0  0  0  0  0
  -27.0279  -30.3037   24.6042 C   0  0  0  0  0  0
  -27.6054  -32.4295   25.7468 C   0  0  0  0  0  0
  -27.5563  -37.1798   24.8487 C   0  0  0  0  0  0
  -21.4137  -29.3003   22.3716 N   0  0  0  0  0  0
  -26.4257  -37.3814   23.9445 N   0  0  0  0  0  0
  -24.6603  -31.0877   22.0984 N   0  0  0  0  0  0
  -23.4188  -28.8208   23.3018 O   0  0  0  0  0  0
  -28.3833  -26.7189   20.0504 O   0  0  0  0  0  0
  -26.5576  -34.8906   22.4718 O   0  0  0  0  0  0
  -23.5296  -32.1386   23.7576 O   0  0  0  0  0  0
  -29.7749  -19.4454   22.3569 C   0  0  0  0  0  0
  -30.8504  -17.6559   21.0959 C   0  0  0  0  0  0
  -28.8591  -18.5311   22.9059 C   0  0  0  0  0  0
  -28.9701  -17.1566   22.5852 C   0  0  0  0  0  0
  -30.7834  -19.0219   21.4668 C   0  0  0  0  0  0
  -29.9480  -16.7176   21.6561 C   0  0  0  0  0  0
  -29.0061  -24.8403   21.4269 C   0  0  0  0  0  0
  -27.7456  -19.0582   23.8071 C   0  0  0  0  0  0
  -27.3409  -16.6295   24.3260 C   0  0  0  0  0  0
  -26.6617  -17.9991   24.1269 C   0  0  0  0  0  0
  -25.6347  -17.9319   22.9732 C   0  0  0  0  0  0
  -25.9125  -18.3581   25.4239 C   0  0  0  0  0  0
  -32.8955  -23.3290   22.2825 C   0  0  0  0  0  0
  -32.2857  -22.6779   19.9339 C   0  0  0  0  0  0
  -28.9376  -26.3712   21.3199 C   0  0  0  0  0  0
  -32.2502  -20.9669   21.8236 C   0  0  0  0  0  0
  -30.4833  -22.8517   21.7105 C   0  0  0  0  0  0
  -31.9587  -22.4498   21.4254 C   0  0  0  0  0  0
  -28.1024  -16.2106   23.1589 N   0  0  0  0  0  0
  -29.8653  -15.3395   21.2997 N   0  0  0  0  0  0
  -31.6947  -19.9452   20.9281 N   0  0  0  0  0  0
  -30.2207  -24.2790   21.4865 N   0  0  0  0  0  0
  -27.9659  -24.1744   21.4549 O   0  0  0  0  0  0
  -31.4882  -12.4630   19.1078 H   0  0  0  0  0  0
  -30.3720  -11.3046   19.7769 H   0  0  0  0  0  0
  -29.7520  -11.8296   17.4032 H   0  0  0  0  0  0
  -29.6579  -13.5296   17.7851 H   0  0  0  0  0  0
  -27.8453  -11.3126   18.7988 H   0  0  0  0  0  0
  -27.3681  -12.6497   17.7854 H   0  0  0  0  0  0
  -27.7241  -14.2461   19.6099 H   0  0  0  0  0  0
  -28.6997  -11.8517   21.2460 H   0  0  0  0  0  0
  -28.4509  -13.4203   21.9133 H   0  0  0  0  0  0
  -25.2725   -9.5693   22.4743 H   0  0  0  0  0  0
  -23.9979   -7.4634   22.7481 H   0  0  0  0  0  0
  -21.0798   -8.8725   19.8959 H   0  0  0  0  0  0
  -22.3631  -10.9635   19.6145 H   0  0  0  0  0  0
  -21.1989   -7.6135   23.9698 H   0  0  0  0  0  0
  -21.1491   -6.0527   25.9076 H   0  0  0  0  0  0
  -22.0595   -2.7594   23.2872 H   0  0  0  0  0  0
  -22.4083  -11.9870   22.4779 H   0  0  0  0  0  0
  -21.1124  -13.1263   22.2573 H   0  0  0  0  0  0
  -24.6866  -15.8363   20.6258 H   0  0  0  0  0  0
  -26.3274  -15.6352   20.2751 H   0  0  0  0  0  0
  -26.7038  -32.5591   23.1172 H   0  0  0  0  0  0
  -25.0106  -33.9768   25.0557 H   0  0  0  0  0  0
  -22.6816  -31.3079   21.4148 H   0  0  0  0  0  0
  -23.3745  -35.9577   23.3344 H   0  0  0  0  0  0
  -24.3535  -36.8825   22.2047 H   0  0  0  0  0  0
  -23.7182  -37.6462   23.6597 H   0  0  0  0  0  0
  -26.0393  -31.6157   20.5986 H   0  0  0  0  0  0
  -26.8058  -30.9017   21.9824 H   0  0  0  0  0  0
  -28.0968  -29.1505   21.1515 H   0  0  0  0  0  0
  -26.0885  -25.9831   19.0177 H   0  0  0  0  0  0
  -23.9869  -27.2973   19.0297 H   0  0  0  0  0  0
  -23.7098  -30.5951   19.3992 H   0  0  0  0  0  0
  -22.7292  -29.2434   19.8689 H   0  0  0  0  0  0
  -25.1273  -36.1957   25.0845 H   0  0  0  0  0  0
  -21.0028  -28.3250   24.1452 H   0  0  0  0  0  0
  -20.5744  -26.2266   23.3622 H   0  0  0  0  0  0
  -21.6627  -26.7494   22.1206 H   0  0  0  0  0  0
  -19.6854  -25.6352   21.1231 H   0  0  0  0  0  0
  -19.6664  -27.3282   20.6792 H   0  0  0  0  0  0
  -17.4209  -26.6776   21.4037 H   0  0  0  0  0  0
  -18.0269  -26.0133   22.9052 H   0  0  0  0  0  0
  -19.7949  -30.7326   24.2267 H   0  0  0  0  0  0
  -17.5042  -31.6302   24.5201 H   0  0  0  0  0  0
  -15.5374  -30.3048   23.7686 H   0  0  0  0  0  0
  -15.8683  -28.0903   22.7058 H   0  0  0  0  0  0
  -24.5959  -30.6945   25.7918 H   0  0  0  0  0  0
  -24.8931  -32.2793   26.4996 H   0  0  0  0  0  0
  -25.8239  -30.8860   27.0245 H   0  0  0  0  0  0
  -26.2778  -29.6812   24.1137 H   0  0  0  0  0  0
  -27.4120  -29.7275   25.4465 H   0  0  0  0  0  0
  -27.8593  -30.4413   23.9122 H   0  0  0  0  0  0
  -27.2685  -33.3593   26.2061 H   0  0  0  0  0  0
  -28.3854  -32.6845   25.0276 H   0  0  0  0  0  0
  -28.0689  -31.8368   26.5370 H   0  0  0  0  0  0
  -28.2649  -38.0032   24.7560 H   0  0  0  0  0  0
  -28.1004  -36.2596   24.6317 H   0  0  0  0  0  0
  -27.2288  -37.1484   25.8887 H   0  0  0  0  0  0
  -20.9308  -29.8662   21.6878 H   0  0  0  0  0  0
  -26.0145  -38.2877   24.1498 H   0  0  0  0  0  0
  -29.6745  -20.4850   22.6186 H   0  0  0  0  0  0
  -31.5835  -17.3375   20.3723 H   0  0  0  0  0  0
  -27.2933  -19.9380   23.3452 H   0  0  0  0  0  0
  -28.2214  -19.4101   24.7246 H   0  0  0  0  0  0
  -26.5906  -15.8701   24.5495 H   0  0  0  0  0  0
  -28.0125  -16.6560   25.1879 H   0  0  0  0  0  0
  -26.1106  -17.6888   22.0222 H   0  0  0  0  0  0
  -25.1186  -18.8832   22.8371 H   0  0  0  0  0  0
  -24.8795  -17.1674   23.1598 H   0  0  0  0  0  0
  -26.5772  -18.3658   26.2889 H   0  0  0  0  0  0
  -25.1282  -17.6270   25.6307 H   0  0  0  0  0  0
  -25.4414  -19.3392   25.3586 H   0  0  0  0  0  0
  -33.9306  -22.9899   22.2109 H   0  0  0  0  0  0
  -32.6218  -23.3005   23.3385 H   0  0  0  0  0  0
  -32.8833  -24.3737   21.9724 H   0  0  0  0  0  0
  -33.3042  -22.3744   19.6920 H   0  0  0  0  0  0
  -32.1862  -23.7261   19.6518 H   0  0  0  0  0  0
  -31.6078  -22.1094   19.2971 H   0  0  0  0  0  0
  -29.9291  -26.8164   21.4129 H   0  0  0  0  0  0
  -28.3484  -26.7443   22.1610 H   0  0  0  0  0  0
  -31.9710  -20.7899   22.8631 H   0  0  0  0  0  0
  -33.3296  -20.8090   21.8037 H   0  0  0  0  0  0
  -30.2354  -22.6383   22.7507 H   0  0  0  0  0  0
  -29.8079  -22.2565   21.0910 H   0  0  0  0  0  0
  -28.4436  -15.2574   23.2016 H   0  0  0  0  0  0
  -28.9843  -14.9325   21.5732 H   0  0  0  0  0  0
  -32.3966  -19.5322   20.3209 H   0  0  0  0  0  0
  -31.0216  -24.8948   21.4363 H   0  0  0  0  0  0
  1 25  1  0  0  0
  1 30  2  0  0  0
  1 90  1  0  0  0
  2  3  1  0  0  0
  2 25  1  0  0  0
  2 94  1  0  0  0
  2 95  1  0  0  0
  3  4  1  0  0  0
  3 96  1  0  0  0
  3 97  1  0  0  0
  4  5  1  0  0  0
  4 98  1  0  0  0
  4 99  1  0  0  0
  5  6  1  0  0  0
  5 26  1  0  0  0
  5100  1  0  0  0
  6 25  1  0  0  0
  6101  1  0  0  0
  6102  1  0  0  0
  7  8  2  0  0  0
  7 26  1  0  0  0
  7 29  1  0  0  0
  8  9  1  0  0  0
  8 22  1  0  0  0
  9 10  1  0  0  0
  9 27  2  0  0  0
 10 11  2  0  0  0
 10 15  1  0  0  0
 11 12  1  0  0  0
 11103  1  0  0  0
 12 13  2  0  0  0
 12104  1  0  0  0
 13 14  1  0  0  0
 13 31  1  0  0  0
 14 15  2  0  0  0
 14105  1  0  0  0
 15106  1  0  0  0
 16 17  2  0  0  0
 16 21  1  0  0  0
 16 31  1  0  0  0
 17 18  1  0  0  0
 17107  1  0  0  0
 18 19  2  0  0  0
 18108  1  0  0  0
 19 20  1  0  0  0
 19 24  1  0  0  0
 20 21  2  0  0  0
 20109  1  0  0  0
 21 23  1  0  0  0
 22 28  1  0  0  0
 22 32  2  0  0  0
 26 27  1  0  0  0
 28110  1  0  0  0
 28111  1  0  0  0
 29112  1  0  0  0
 29113  1  0  0  0
 33 34  1  0  0  0
 33 66  1  0  0  0
 33 70  2  0  0  0
 34 36  1  0  0  0
 34 59  1  0  0  0
 34114  1  0  0  0
 35 44  2  0  0  0
 35 45  1  0  0  0
 35 68  1  0  0  0
 36 56  1  0  0  0
 36115  1  0  0  0
 37 39  1  0  0  0
 37 47  1  0  0  0
 37 66  1  0  0  0
 37116  1  0  0  0
 38 43  2  0  0  0
 38 46  1  0  0  0
 38 47  1  0  0  0
 39 64  1  0  0  0
 39 67  2  0  0  0
 40 52  1  0  0  0
 40 53  2  0  0  0
 40 58  1  0  0  0
 41117  1  0  0  0
 41118  1  0  0  0
 41119  1  0  0  0
 41 48  1  0  0  0
 42 43  1  0  0  0
 42 66  1  0  0  0
 42120  1  0  0  0
 42121  1  0  0  0
 43 44  1  0  0  0
 44122  1  0  0  0
 45 46  2  0  0  0
 45123  1  0  0  0
 46124  1  0  0  0
 47125  1  0  0  0
 47126  1  0  0  0
 48 56  1  0  0  0
 48 65  1  0  0  0
 48127  1  0  0  0
 49 50  1  0  0  0
 49 53  1  0  0  0
 49 64  1  0  0  0
 49128  1  0  0  0
 50 51  1  0  0  0
 50129  1  0  0  0
 50130  1  0  0  0
 51 52  1  0  0  0
 51131  1  0  0  0
 51132  1  0  0  0
 52133  1  0  0  0
 52134  1  0  0  0
 53 54  1  0  0  0
 54 55  2  0  0  0
 54135  1  0  0  0
 55 57  1  0  0  0
 55136  1  0  0  0
 56 69  2  0  0  0
 57 58  2  0  0  0
 57137  1  0  0  0
 58138  1  0  0  0
 59 60  1  0  0  0
 59 61  1  0  0  0
 59 62  1  0  0  0
 60139  1  0  0  0
 60140  1  0  0  0
 60141  1  0  0  0
 61142  1  0  0  0
 61143  1  0  0  0
 61144  1  0  0  0
 62145  1  0  0  0
 62146  1  0  0  0
 62147  1  0  0  0
 63 65  1  0  0  0
 63148  1  0  0  0
 63149  1  0  0  0
 63150  1  0  0  0
 64151  1  0  0  0
 65152  1  0  0  0
 68 85  1  0  0  0
 71 73  2  0  0  0
 71 75  1  0  0  0
 71153  1  0  0  0
 72 75  2  0  0  0
 72 76  1  0  0  0
 72154  1  0  0  0
 73 74  1  0  0  0
 73 78  1  0  0  0
 74 76  2  0  0  0
 74 89  1  0  0  0
 75 91  1  0  0  0
 76 90  1  0  0  0
 77 85  1  0  0  0
 77 92  1  0  0  0
 77 93  2  0  0  0
 78 80  1  0  0  0
 78155  1  0  0  0
 78156  1  0  0  0
 79 80  1  0  0  0
 79 89  1  0  0  0
 79157  1  0  0  0
 79158  1  0  0  0
 80 81  1  0  0  0
 80 82  1  0  0  0
 81159  1  0  0  0
 81160  1  0  0  0
 81161  1  0  0  0
 82162  1  0  0  0
 82163  1  0  0  0
 82164  1  0  0  0
 83165  1  0  0  0
 83166  1  0  0  0
 83167  1  0  0  0
 83 88  1  0  0  0
 84 88  1  0  0  0
 84168  1  0  0  0
 84169  1  0  0  0
 84170  1  0  0  0
 85171  1  0  0  0
 85172  1  0  0  0
 86 88  1  0  0  0
 86 91  1  0  0  0
 86173  1  0  0  0
 86174  1  0  0  0
 87 88  1  0  0  0
 87 92  1  0  0  0
 87175  1  0  0  0
 87176  1  0  0  0
 89177  1  0  0  0
 90178  1  0  0  0
 91179  1  0  0  0
 92180  1  0  0  0
M  ISO  4   1 100  68 101  85 101  90 100
M  END
> <chiral flag>
0

> <version>
0

> <s_m_source_file>
/data/baiqing/PycharmProjects/Reinvent-master-3.2/result/LINK_invent/BTK/process_docking_weight1_custom_product_contain_oxygen_bond_distance_aromatic_linkinvent_7_9_3/rearranged_h_0161.sdf

> <i_m_source_file_index>
65

> <r_mmod_Potential_Energy-OPLS-2005>
-182.024597167969

> <r_mmod_Stretch_Energy-OPLS-2005>
39.4501571655273

> <r_mmod_Bend_Energy-OPLS-2005>
129.39567565918

> <r_mmod_Torsional_Energy-OPLS-2005>
268.384674072266

> <r_mmod_Improper_Torsional_Energy-OPLS-2005>
10.5546293258667

> <r_mmod_Van_der_Waal_Energy-OPLS-2005>
167.623306274414

> <r_mmod_Electrostatic_Energy-OPLS-2005>
-573.607055664062

> <r_mmod_Solvation_Energy-OPLS-2005>
-236.097244262695

> <b_mmod_Minimization_Converged-OPLS-2005>
0

> <r_mmod_RMS_Derivative-OPLS-2005>
5.0722222328186

$$$$
65
                    3D
 Structure written by MMmdl.
153161  0  0  1  0            999 V2000
  -30.6260  -14.6406   20.5013 C   0  0  0  0  0  0
  -30.4379  -12.3913   19.4556 C   0  0  0  0  0  0
  -29.5084  -12.5062   18.2265 C   0  0  0  0  0  0
  -28.0312  -12.3446   18.6375 C   0  0  0  0  0  0
  -27.6539  -13.2161   19.8645 C   0  0  2  0  0  0
  -28.6982  -13.0714   20.9951 C   0  0  0  0  0  0
  -25.2567  -13.8171   20.5692 C   0  0  0  0  0  0
  -24.1832  -13.0439   20.9194 C   0  0  0  0  0  0
  -24.6394  -11.6909   20.8738 C   0  0  0  0  0  0
  -23.9061  -10.4294   21.0403 C   0  0  0  0  0  0
  -24.3613   -9.4209   21.9180 C   0  0  0  0  0  0
  -23.6288   -8.2245   22.0751 C   0  0  0  0  0  0
  -22.4270   -8.0283   21.3544 C   0  0  0  0  0  0
  -21.9903   -9.0257   20.4648 C   0  0  0  0  0  0
  -22.7231  -10.2136   20.3055 C   0  0  0  0  0  0
  -21.6855   -6.0731   22.5276 C   0  0  0  0  0  0
  -21.4017   -6.5635   23.8209 C   0  0  0  0  0  0
  -21.3659   -5.6789   24.9172 C   0  0  0  0  0  0
  -21.6043   -4.3052   24.7224 C   0  0  0  0  0  0
  -21.8820   -3.8144   23.4346 C   0  0  0  0  0  0
  -21.9194   -4.6959   22.3399 C   0  0  0  0  0  0
  -22.7853  -13.5235   21.1854 C   0  0  0  0  0  0
  -22.1662   -4.2145   21.0976 F   0  0  0  0  0  0
  -21.5627   -3.4536   25.7739 F   0  0  0  0  0  0
  -30.0154  -13.4135   20.4344 N   0  0  0  0  0  0
  -26.2991  -12.9348   20.3321 N   0  0  0  0  0  0
  -25.9324  -11.6504   20.5755 N   0  0  0  0  0  0
  -22.0492  -12.8236   22.0412 N   0  0  0  0  0  0
  -25.4291  -15.1892   20.4116 N   0  0  0  0  0  0
  -31.7893  -14.7862   20.1087 O   0  0  0  0  0  0
  -21.6638   -6.8876   21.4240 O   0  0  0  0  0  0
  -22.3543  -14.5541   20.6697 O   0  0  0  0  0  0
  -24.6252  -31.8604   23.2036 C   0  0  0  0  0  0
  -25.9101  -32.4783   23.8362 C   0  0  1  0  0  0
  -27.2249  -27.3275   20.1199 C   0  0  0  0  0  0
  -25.5919  -33.8582   24.2288 N   0  0  0  0  0  0
  -23.4191  -30.4838   21.5458 C   0  0  2  0  0  0
  -24.8674  -28.9408   20.1118 C   0  0  0  0  0  0
  -22.7471  -29.4622   22.4940 C   0  0  0  0  0  0
  -18.0286  -28.1384   22.8485 C   0  0  0  0  0  0
  -24.1490  -36.7299   23.2640 C   0  0  0  0  0  0
  -25.9599  -30.7940   21.3744 C   0  0  0  0  0  0
  -26.0359  -29.4219   20.7171 C   0  0  0  0  0  0
  -27.2202  -28.6272   20.7110 C   0  0  0  0  0  0
  -26.0393  -26.9034   19.4792 C   0  0  0  0  0  0
  -24.8707  -27.6868   19.4827 C   0  0  0  0  0  0
  -23.6340  -29.8188   20.1612 C   0  0  0  0  0  0
  -25.4114  -36.3087   24.0330 C   0  0  1  0  0  0
  -20.5885  -28.3684   23.1286 C   0  0  2  0  0  0
  -20.6777  -26.9407   22.5411 C   0  0  0  0  0  0
  -19.5753  -26.6382   21.5213 C   0  0  0  0  0  0
  -18.1933  -26.7925   22.1623 C   0  0  0  0  0  0
  -19.1537  -28.8851   23.2882 C   0  0  0  0  0  0
  -18.9459  -30.1452   23.8900 C   0  0  0  0  0  0
  -17.6460  -30.6584   24.0563 C   0  0  0  0  0  0
  -25.9045  -34.9454   23.5110 C   0  0  0  0  0  0
  -16.5351  -29.9084   23.6327 C   0  0  0  0  0  0
  -16.7274  -28.6501   23.0349 C   0  0  0  0  0  0
  -26.4490  -31.6589   25.0727 C   0  0  0  0  0  0
  -25.3727  -31.3730   26.1458 C   0  0  0  0  0  0
  -27.0326  -30.3012   24.6176 C   0  0  0  0  0  0
  -27.6058  -32.4319   25.7489 C   0  0  0  0  0  0
  -27.5575  -37.1811   24.8468 C   0  0  0  0  0  0
  -21.4185  -29.3037   22.3680 N   0  0  0  0  0  0
  -26.4299  -37.3773   23.9395 N   0  0  0  0  0  0
  -24.6867  -31.0620   22.0984 N   0  0  0  0  0  0
  -23.4197  -28.8161   23.3016 O   0  0  0  0  0  0
  -28.3300  -26.4676   20.1525 O   0  0  0  0  0  0
  -26.5614  -34.8918   22.4676 O   0  0  0  0  0  0
  -23.5417  -32.1396   23.7368 O   0  0  0  0  0  0
  -28.7579  -19.3126   21.0619 C   0  0  0  0  0  0
  -28.8164  -17.8984   21.2195 C   0  0  0  0  0  0
  -29.7880  -20.0063   20.3783 C   0  0  0  0  0  0
  -30.8358  -19.1607   19.9011 C   0  0  0  0  0  0
  -29.8945  -17.1307   20.7071 C   0  0  0  0  0  0
  -29.0842  -23.9588   20.1881 C   0  0  0  0  0  0
  -32.0171  -19.7499   19.1530 C   0  0  0  0  0  0
  -28.8003  -22.4489   20.5857 C   0  0  0  0  0  0
  -28.0456  -25.0771   20.5879 C   0  0  0  0  0  0
  -30.8828  -17.8022   20.0592 N   0  0  0  0  0  0
  -29.8153  -21.4296   20.1619 N   0  0  0  0  0  0
  -29.8265  -15.6836   20.8938 N   0  0  0  0  0  0
  -30.1162  -24.2431   19.5686 O   0  0  0  0  0  0
  -31.4795  -12.5126   19.1531 H   0  0  0  0  0  0
  -30.3713  -11.3960   19.8978 H   0  0  0  0  0  0
  -29.7725  -11.7534   17.4827 H   0  0  0  0  0  0
  -29.6516  -13.4749   17.7452 H   0  0  0  0  0  0
  -27.8682  -11.2917   18.8698 H   0  0  0  0  0  0
  -27.3774  -12.5742   17.7953 H   0  0  0  0  0  0
  -27.6722  -14.2508   19.5223 H   0  0  0  0  0  0
  -28.7094  -12.0492   21.3767 H   0  0  0  0  0  0
  -28.4414  -13.7011   21.8481 H   0  0  0  0  0  0
  -25.2756   -9.5685   22.4754 H   0  0  0  0  0  0
  -23.9998   -7.4636   22.7469 H   0  0  0  0  0  0
  -21.0830   -8.8777   19.8956 H   0  0  0  0  0  0
  -22.3685  -10.9677   19.6168 H   0  0  0  0  0  0
  -21.2010   -7.6143   23.9710 H   0  0  0  0  0  0
  -21.1479   -6.0520   25.9074 H   0  0  0  0  0  0
  -22.0599   -2.7607   23.2848 H   0  0  0  0  0  0
  -22.4106  -11.9901   22.4809 H   0  0  0  0  0  0
  -21.1112  -13.1272   22.2614 H   0  0  0  0  0  0
  -24.6601  -15.8418   20.5177 H   0  0  0  0  0  0
  -26.2691  -15.6266   20.0550 H   0  0  0  0  0  0
  -26.7168  -32.5460   23.1112 H   0  0  0  0  0  0
  -25.0066  -33.9729   25.0432 H   0  0  0  0  0  0
  -22.7123  -31.3040   21.4031 H   0  0  0  0  0  0
  -23.3738  -35.9649   23.3334 H   0  0  0  0  0  0
  -24.3575  -36.8885   22.2047 H   0  0  0  0  0  0
  -23.7268  -37.6523   23.6639 H   0  0  0  0  0  0
  -26.0900  -31.5580   20.6068 H   0  0  0  0  0  0
  -26.8406  -30.8432   22.0030 H   0  0  0  0  0  0
  -28.1167  -28.9907   21.1936 H   0  0  0  0  0  0
  -26.0002  -25.9533   18.9668 H   0  0  0  0  0  0
  -23.9787  -27.3170   18.9957 H   0  0  0  0  0  0
  -23.7511  -30.5951   19.4043 H   0  0  0  0  0  0
  -22.7549  -29.2462   19.8597 H   0  0  0  0  0  0
  -25.1298  -36.1949   25.0826 H   0  0  0  0  0  0
  -20.9976  -28.3260   24.1407 H   0  0  0  0  0  0
  -20.5677  -26.2292   23.3610 H   0  0  0  0  0  0
  -21.6648  -26.7442   22.1206 H   0  0  0  0  0  0
  -19.6917  -25.6293   21.1241 H   0  0  0  0  0  0
  -19.6692  -27.3191   20.6742 H   0  0  0  0  0  0
  -17.4201  -26.6667   21.4029 H   0  0  0  0  0  0
  -18.0337  -26.0070   22.9023 H   0  0  0  0  0  0
  -19.7935  -30.7268   24.2272 H   0  0  0  0  0  0
  -17.5013  -31.6265   24.5163 H   0  0  0  0  0  0
  -15.5351  -30.2986   23.7650 H   0  0  0  0  0  0
  -15.8673  -28.0821   22.7064 H   0  0  0  0  0  0
  -24.5900  -30.7078   25.7791 H   0  0  0  0  0  0
  -24.8919  -32.2898   26.4881 H   0  0  0  0  0  0
  -25.8055  -30.8911   27.0233 H   0  0  0  0  0  0
  -26.2895  -29.6767   24.1203 H   0  0  0  0  0  0
  -27.4026  -29.7266   25.4677 H   0  0  0  0  0  0
  -27.8766  -30.4296   23.9395 H   0  0  0  0  0  0
  -27.2678  -33.3618   26.2072 H   0  0  0  0  0  0
  -28.3861  -32.6877   25.0308 H   0  0  0  0  0  0
  -28.0732  -31.8438   26.5397 H   0  0  0  0  0  0
  -28.2625  -38.0075   24.7470 H   0  0  0  0  0  0
  -28.1041  -36.2607   24.6355 H   0  0  0  0  0  0
  -27.2287  -37.1538   25.8872 H   0  0  0  0  0  0
  -20.9361  -29.8759   21.6892 H   0  0  0  0  0  0
  -26.0187  -38.2858   24.1365 H   0  0  0  0  0  0
  -27.9154  -19.8538   21.4668 H   0  0  0  0  0  0
  -28.0055  -17.4109   21.7422 H   0  0  0  0  0  0
  -32.6061  -20.3804   19.8186 H   0  0  0  0  0  0
  -31.6744  -20.3572   18.3156 H   0  0  0  0  0  0
  -32.6714  -18.9740   18.7546 H   0  0  0  0  0  0
  -27.8295  -22.1763   20.1703 H   0  0  0  0  0  0
  -28.6926  -22.4100   21.6703 H   0  0  0  0  0  0
  -27.9747  -25.0821   21.6755 H   0  0  0  0  0  0
  -27.0777  -24.7305   20.2330 H   0  0  0  0  0  0
  -30.6049  -21.8260   19.6546 H   0  0  0  0  0  0
  -28.9510  -15.3654   21.2752 H   0  0  0  0  0  0
  1 25  1  0  0  0
  1 30  2  0  0  0
  1 82  1  0  0  0
  2  3  1  0  0  0
  2 25  1  0  0  0
  2 84  1  0  0  0
  2 85  1  0  0  0
  3  4  1  0  0  0
  3 86  1  0  0  0
  3 87  1  0  0  0
  4  5  1  0  0  0
  4 88  1  0  0  0
  4 89  1  0  0  0
  5  6  1  0  0  0
  5 26  1  0  0  0
  5 90  1  0  0  0
  6 25  1  0  0  0
  6 91  1  0  0  0
  6 92  1  0  0  0
  7  8  2  0  0  0
  7 26  1  0  0  0
  7 29  1  0  0  0
  8  9  1  0  0  0
  8 22  1  0  0  0
  9 10  1  0  0  0
  9 27  2  0  0  0
 10 11  2  0  0  0
 10 15  1  0  0  0
 11 12  1  0  0  0
 11 93  1  0  0  0
 12 13  2  0  0  0
 12 94  1  0  0  0
 13 14  1  0  0  0
 13 31  1  0  0  0
 14 15  2  0  0  0
 14 95  1  0  0  0
 15 96  1  0  0  0
 16 17  2  0  0  0
 16 21  1  0  0  0
 16 31  1  0  0  0
 17 18  1  0  0  0
 17 97  1  0  0  0
 18 19  2  0  0  0
 18 98  1  0  0  0
 19 20  1  0  0  0
 19 24  1  0  0  0
 20 21  2  0  0  0
 20 99  1  0  0  0
 21 23  1  0  0  0
 22 28  1  0  0  0
 22 32  2  0  0  0
 26 27  1  0  0  0
 28100  1  0  0  0
 28101  1  0  0  0
 29102  1  0  0  0
 29103  1  0  0  0
 33 34  1  0  0  0
 33 66  1  0  0  0
 33 70  2  0  0  0
 34 36  1  0  0  0
 34 59  1  0  0  0
 34104  1  0  0  0
 35 44  2  0  0  0
 35 45  1  0  0  0
 35 68  1  0  0  0
 36 56  1  0  0  0
 36105  1  0  0  0
 37 39  1  0  0  0
 37 47  1  0  0  0
 37 66  1  0  0  0
 37106  1  0  0  0
 38 43  2  0  0  0
 38 46  1  0  0  0
 38 47  1  0  0  0
 39 64  1  0  0  0
 39 67  2  0  0  0
 40 52  1  0  0  0
 40 53  2  0  0  0
 40 58  1  0  0  0
 41107  1  0  0  0
 41108  1  0  0  0
 41109  1  0  0  0
 41 48  1  0  0  0
 42 43  1  0  0  0
 42 66  1  0  0  0
 42110  1  0  0  0
 42111  1  0  0  0
 43 44  1  0  0  0
 44112  1  0  0  0
 45 46  2  0  0  0
 45113  1  0  0  0
 46114  1  0  0  0
 47115  1  0  0  0
 47116  1  0  0  0
 48 56  1  0  0  0
 48 65  1  0  0  0
 48117  1  0  0  0
 49 50  1  0  0  0
 49 53  1  0  0  0
 49 64  1  0  0  0
 49118  1  0  0  0
 50 51  1  0  0  0
 50119  1  0  0  0
 50120  1  0  0  0
 51 52  1  0  0  0
 51121  1  0  0  0
 51122  1  0  0  0
 52123  1  0  0  0
 52124  1  0  0  0
 53 54  1  0  0  0
 54 55  2  0  0  0
 54125  1  0  0  0
 55 57  1  0  0  0
 55126  1  0  0  0
 56 69  2  0  0  0
 57 58  2  0  0  0
 57127  1  0  0  0
 58128  1  0  0  0
 59 60  1  0  0  0
 59 61  1  0  0  0
 59 62  1  0  0  0
 60129  1  0  0  0
 60130  1  0  0  0
 60131  1  0  0  0
 61132  1  0  0  0
 61133  1  0  0  0
 61134  1  0  0  0
 62135  1  0  0  0
 62136  1  0  0  0
 62137  1  0  0  0
 63 65  1  0  0  0
 63138  1  0  0  0
 63139  1  0  0  0
 63140  1  0  0  0
 64141  1  0  0  0
 65142  1  0  0  0
 68 79  1  0  0  0
 71 72  2  0  0  0
 71 73  1  0  0  0
 71143  1  0  0  0
 72 75  1  0  0  0
 72144  1  0  0  0
 73 74  2  0  0  0
 73 81  1  0  0  0
 74 77  1  0  0  0
 74 80  1  0  0  0
 75 80  2  0  0  0
 75 82  1  0  0  0
 76 78  1  0  0  0
 76 79  1  0  0  0
 76 83  2  0  0  0
 77145  1  0  0  0
 77146  1  0  0  0
 77147  1  0  0  0
 78 81  1  0  0  0
 78148  1  0  0  0
 78149  1  0  0  0
 79150  1  0  0  0
 79151  1  0  0  0
 81152  1  0  0  0
 82153  1  0  0  0
M  ISO  4   1 100  68 101  79 101  82 100
M  END
> <chiral flag>
0

> <version>
0

> <s_m_source_file>
/data/baiqing/PycharmProjects/Reinvent-master-3.2/result/LINK_invent/BTK/process_docking_weight1_custom_product_contain_oxygen_bond_distance_aromatic_linkinvent_7_9_3/rearranged_h_0161.sdf

> <i_m_source_file_index>
66

> <r_mmod_Potential_Energy-OPLS-2005>
-46.5251312255859

> <r_mmod_Stretch_Energy-OPLS-2005>
77.2575912475586

> <r_mmod_Bend_Energy-OPLS-2005>
146.389862060547

> <r_mmod_Torsional_Energy-OPLS-2005>
204.828216552734

> <r_mmod_Improper_Torsional_Energy-OPLS-2005>
3.53358936309814

> <r_mmod_Van_der_Waal_Energy-OPLS-2005>
144.83854675293

> <r_mmod_Electrostatic_Energy-OPLS-2005>
-405.926055908203

> <r_mmod_Solvation_Energy-OPLS-2005>
-264.479064941406

> <b_mmod_Minimization_Converged-OPLS-2005>
0

> <r_mmod_RMS_Derivative-OPLS-2005>
0.498754620552063

$$$$
66
                    3D
 Structure written by MMmdl.
153161  0  0  1  0            999 V2000
  -30.5655  -14.7352   20.4746 C   0  0  0  0  0  0
  -30.4475  -12.4518   19.4599 C   0  0  0  0  0  0
  -29.5182  -12.5202   18.2265 C   0  0  0  0  0  0
  -28.0405  -12.3376   18.6344 C   0  0  0  0  0  0
  -27.6444  -13.2185   19.8487 C   0  0  2  0  0  0
  -28.6877  -13.1089   20.9821 C   0  0  0  0  0  0
  -25.2518  -13.8160   20.5646 C   0  0  0  0  0  0
  -24.1812  -13.0431   20.9221 C   0  0  0  0  0  0
  -24.6383  -11.6901   20.8745 C   0  0  0  0  0  0
  -23.9061  -10.4287   21.0418 C   0  0  0  0  0  0
  -24.3615   -9.4197   21.9188 C   0  0  0  0  0  0
  -23.6287   -8.2235   22.0750 C   0  0  0  0  0  0
  -22.4262   -8.0281   21.3548 C   0  0  0  0  0  0
  -21.9906   -9.0255   20.4645 C   0  0  0  0  0  0
  -22.7241  -10.2134   20.3056 C   0  0  0  0  0  0
  -21.6844   -6.0735   22.5281 C   0  0  0  0  0  0
  -21.4013   -6.5637   23.8219 C   0  0  0  0  0  0
  -21.3659   -5.6787   24.9180 C   0  0  0  0  0  0
  -21.6039   -4.3049   24.7225 C   0  0  0  0  0  0
  -21.8820   -3.8148   23.4346 C   0  0  0  0  0  0
  -21.9191   -4.6967   22.3404 C   0  0  0  0  0  0
  -22.7834  -13.5225   21.1877 C   0  0  0  0  0  0
  -22.1656   -4.2159   21.0981 F   0  0  0  0  0  0
  -21.5633   -3.4525   25.7739 F   0  0  0  0  0  0
  -29.9922  -13.4844   20.4155 N   0  0  0  0  0  0
  -26.2930  -12.9337   20.3210 N   0  0  0  0  0  0
  -25.9298  -11.6500   20.5691 N   0  0  0  0  0  0
  -22.0456  -12.8234   22.0421 N   0  0  0  0  0  0
  -25.4215  -15.1880   20.3972 N   0  0  0  0  0  0
  -31.7509  -14.8904   20.1606 O   0  0  0  0  0  0
  -21.6628   -6.8876   21.4240 O   0  0  0  0  0  0
  -22.3538  -14.5534   20.6714 O   0  0  0  0  0  0
  -24.6309  -31.8545   23.1975 C   0  0  0  0  0  0
  -25.9142  -32.4744   23.8320 C   0  0  1  0  0  0
  -27.2280  -27.2716   20.1174 C   0  0  0  0  0  0
  -25.5930  -33.8544   24.2245 N   0  0  0  0  0  0
  -23.4265  -30.4762   21.5404 C   0  0  2  0  0  0
  -24.8717  -28.9198   20.1131 C   0  0  0  0  0  0
  -22.7501  -29.4598   22.4915 C   0  0  0  0  0  0
  -18.0297  -28.1389   22.8485 C   0  0  0  0  0  0
  -24.1484  -36.7275   23.2639 C   0  0  0  0  0  0
  -25.9712  -30.7692   21.3756 C   0  0  0  0  0  0
  -26.0427  -29.3913   20.7191 C   0  0  0  0  0  0
  -27.2191  -28.5792   20.7109 C   0  0  0  0  0  0
  -26.0219  -26.8546   19.5084 C   0  0  0  0  0  0
  -24.8655  -27.6583   19.4987 C   0  0  0  0  0  0
  -23.6430  -29.8052   20.1581 C   0  0  0  0  0  0
  -25.4110  -36.3059   24.0324 C   0  0  1  0  0  0
  -20.5899  -28.3687   23.1280 C   0  0  2  0  0  0
  -20.6778  -26.9407   22.5410 C   0  0  0  0  0  0
  -19.5752  -26.6385   21.5210 C   0  0  0  0  0  0
  -18.1936  -26.7931   22.1627 C   0  0  0  0  0  0
  -19.1550  -28.8857   23.2878 C   0  0  0  0  0  0
  -18.9468  -30.1460   23.8892 C   0  0  0  0  0  0
  -17.6467  -30.6588   24.0560 C   0  0  0  0  0  0
  -25.9051  -34.9430   23.5089 C   0  0  0  0  0  0
  -16.5361  -29.9084   23.6329 C   0  0  0  0  0  0
  -16.7283  -28.6505   23.0347 C   0  0  0  0  0  0
  -26.4508  -31.6579   25.0717 C   0  0  0  0  0  0
  -25.3726  -31.3744   26.1438 C   0  0  0  0  0  0
  -27.0349  -30.2994   24.6202 C   0  0  0  0  0  0
  -27.6053  -32.4326   25.7500 C   0  0  0  0  0  0
  -27.5574  -37.1790   24.8462 C   0  0  0  0  0  0
  -21.4206  -29.3039   22.3672 N   0  0  0  0  0  0
  -26.4281  -37.3759   23.9413 N   0  0  0  0  0  0
  -24.6951  -31.0523   22.0938 N   0  0  0  0  0  0
  -23.4218  -28.8144   23.3006 O   0  0  0  0  0  0
  -28.3624  -26.4256   20.1623 O   0  0  0  0  0  0
  -26.5626  -34.8910   22.4661 O   0  0  0  0  0  0
  -23.5460  -32.1361   23.7275 O   0  0  0  0  0  0
  -30.7312  -19.4114   20.8709 C   0  0  0  0  0  0
  -28.5221  -17.9827   20.4678 C   0  0  0  0  0  0
  -29.4919  -20.1220   20.7461 C   0  0  0  0  0  0
  -29.7542  -17.2631   20.6289 C   0  0  0  0  0  0
  -29.3648  -21.6030   21.2295 C   0  0  0  0  0  0
  -28.3774  -25.0445   19.7836 C   0  0  0  0  0  0
  -28.2341  -24.7536   18.4592 C   0  0  0  0  0  0
  -28.6307  -23.9741   20.8291 C   0  0  0  0  0  0
  -28.1687  -23.4002   17.7595 C   0  0  0  0  0  0
  -28.3837  -19.3543   20.5214 N   0  0  0  0  0  0
  -30.8681  -18.0376   20.7995 N   0  0  0  0  0  0
  -29.6851  -15.7849   20.6726 N   0  0  0  0  0  0
  -28.8664  -22.6470   20.4595 N   0  0  0  0  0  0
  -29.7761  -21.8001   22.3793 O   0  0  0  0  0  0
  -28.6395  -24.3078   22.0195 O   0  0  0  0  0  0
  -28.1317  -25.7193   17.5314 O   0  0  0  0  0  0
  -31.4858  -12.6054   19.1602 H   0  0  0  0  0  0
  -30.4110  -11.4627   19.9186 H   0  0  0  0  0  0
  -29.8044  -11.7632   17.4955 H   0  0  0  0  0  0
  -29.6448  -13.4832   17.7287 H   0  0  0  0  0  0
  -27.8912  -11.2853   18.8792 H   0  0  0  0  0  0
  -27.3879  -12.5491   17.7867 H   0  0  0  0  0  0
  -27.6477  -14.2453   19.4853 H   0  0  0  0  0  0
  -28.7201  -12.0908   21.3731 H   0  0  0  0  0  0
  -28.4181  -13.7448   21.8272 H   0  0  0  0  0  0
  -25.2770   -9.5670   22.4749 H   0  0  0  0  0  0
  -24.0004   -7.4616   22.7457 H   0  0  0  0  0  0
  -21.0847   -8.8779   19.8937 H   0  0  0  0  0  0
  -22.3718  -10.9670   19.6150 H   0  0  0  0  0  0
  -21.2003   -7.6142   23.9733 H   0  0  0  0  0  0
  -21.1476   -6.0508   25.9087 H   0  0  0  0  0  0
  -22.0599   -2.7610   23.2841 H   0  0  0  0  0  0
  -22.4048  -11.9910   22.4857 H   0  0  0  0  0  0
  -21.1061  -13.1261   22.2574 H   0  0  0  0  0  0
  -24.6335  -15.8227   20.4715 H   0  0  0  0  0  0
  -26.2094  -15.5973   19.9147 H   0  0  0  0  0  0
  -26.7213  -32.5385   23.1060 H   0  0  0  0  0  0
  -25.0057  -33.9671   25.0381 H   0  0  0  0  0  0
  -22.7225  -31.2975   21.3918 H   0  0  0  0  0  0
  -23.3736  -35.9615   23.3292 H   0  0  0  0  0  0
  -24.3573  -36.8905   22.2055 H   0  0  0  0  0  0
  -23.7251  -37.6477   23.6674 H   0  0  0  0  0  0
  -26.1116  -31.5290   20.6054 H   0  0  0  0  0  0
  -26.8509  -30.8176   22.0069 H   0  0  0  0  0  0
  -28.1178  -28.9370   21.1927 H   0  0  0  0  0  0
  -25.9448  -25.8843   19.0424 H   0  0  0  0  0  0
  -23.9669  -27.2876   19.0253 H   0  0  0  0  0  0
  -23.7661  -30.5762   19.3970 H   0  0  0  0  0  0
  -22.7624  -29.2352   19.8558 H   0  0  0  0  0  0
  -25.1297  -36.1887   25.0814 H   0  0  0  0  0  0
  -20.9994  -28.3257   24.1400 H   0  0  0  0  0  0
  -20.5659  -26.2297   23.3613 H   0  0  0  0  0  0
  -21.6646  -26.7418   22.1215 H   0  0  0  0  0  0
  -19.6904  -25.6294   21.1239 H   0  0  0  0  0  0
  -19.6686  -27.3188   20.6735 H   0  0  0  0  0  0
  -17.4201  -26.6669   21.4037 H   0  0  0  0  0  0
  -18.0339  -26.0088   22.9038 H   0  0  0  0  0  0
  -19.7941  -30.7277   24.2262 H   0  0  0  0  0  0
  -17.5019  -31.6264   24.5158 H   0  0  0  0  0  0
  -15.5359  -30.2981   23.7652 H   0  0  0  0  0  0
  -15.8686  -28.0818   22.7065 H   0  0  0  0  0  0
  -24.5899  -30.7086   25.7784 H   0  0  0  0  0  0
  -24.8911  -32.2915   26.4841 H   0  0  0  0  0  0
  -25.8043  -30.8948   27.0230 H   0  0  0  0  0  0
  -26.2928  -29.6748   24.1208 H   0  0  0  0  0  0
  -27.4011  -29.7256   25.4727 H   0  0  0  0  0  0
  -27.8822  -30.4265   23.9456 H   0  0  0  0  0  0
  -27.2652  -33.3633   26.2055 H   0  0  0  0  0  0
  -28.3888  -32.6872   25.0350 H   0  0  0  0  0  0
  -28.0694  -31.8460   26.5437 H   0  0  0  0  0  0
  -28.2585  -38.0092   24.7516 H   0  0  0  0  0  0
  -28.1080  -36.2625   24.6280 H   0  0  0  0  0  0
  -27.2298  -37.1433   25.8866 H   0  0  0  0  0  0
  -20.9394  -29.8772   21.6885 H   0  0  0  0  0  0
  -26.0148  -38.2825   24.1418 H   0  0  0  0  0  0
  -31.6335  -19.9552   21.1107 H   0  0  0  0  0  0
  -27.5995  -17.4398   20.3237 H   0  0  0  0  0  0
  -27.3850  -22.7831   18.2016 H   0  0  0  0  0  0
  -29.1219  -22.8748   17.8273 H   0  0  0  0  0  0
  -27.9275  -23.4886   16.6985 H   0  0  0  0  0  0
  -28.7483  -15.4449   20.8149 H   0  0  0  0  0  0
  -28.6821  -22.4206   19.4943 H   0  0  0  0  0  0
  -28.0989  -25.3019   16.6798 H   0  0  0  0  0  0
  1 25  1  0  0  0
  1 30  2  0  0  0
  1 82  1  0  0  0
  2  3  1  0  0  0
  2 25  1  0  0  0
  2 87  1  0  0  0
  2 88  1  0  0  0
  3  4  1  0  0  0
  3 89  1  0  0  0
  3 90  1  0  0  0
  4  5  1  0  0  0
  4 91  1  0  0  0
  4 92  1  0  0  0
  5  6  1  0  0  0
  5 26  1  0  0  0
  5 93  1  0  0  0
  6 25  1  0  0  0
  6 94  1  0  0  0
  6 95  1  0  0  0
  7  8  2  0  0  0
  7 26  1  0  0  0
  7 29  1  0  0  0
  8  9  1  0  0  0
  8 22  1  0  0  0
  9 10  1  0  0  0
  9 27  2  0  0  0
 10 11  2  0  0  0
 10 15  1  0  0  0
 11 12  1  0  0  0
 11 96  1  0  0  0
 12 13  2  0  0  0
 12 97  1  0  0  0
 13 14  1  0  0  0
 13 31  1  0  0  0
 14 15  2  0  0  0
 14 98  1  0  0  0
 15 99  1  0  0  0
 16 17  2  0  0  0
 16 21  1  0  0  0
 16 31  1  0  0  0
 17 18  1  0  0  0
 17100  1  0  0  0
 18 19  2  0  0  0
 18101  1  0  0  0
 19 20  1  0  0  0
 19 24  1  0  0  0
 20 21  2  0  0  0
 20102  1  0  0  0
 21 23  1  0  0  0
 22 28  1  0  0  0
 22 32  2  0  0  0
 26 27  1  0  0  0
 28103  1  0  0  0
 28104  1  0  0  0
 29105  1  0  0  0
 29106  1  0  0  0
 33 34  1  0  0  0
 33 66  1  0  0  0
 33 70  2  0  0  0
 34 36  1  0  0  0
 34 59  1  0  0  0
 34107  1  0  0  0
 35 44  2  0  0  0
 35 45  1  0  0  0
 35 68  1  0  0  0
 36 56  1  0  0  0
 36108  1  0  0  0
 37 39  1  0  0  0
 37 47  1  0  0  0
 37 66  1  0  0  0
 37109  1  0  0  0
 38 43  2  0  0  0
 38 46  1  0  0  0
 38 47  1  0  0  0
 39 64  1  0  0  0
 39 67  2  0  0  0
 40 52  1  0  0  0
 40 53  2  0  0  0
 40 58  1  0  0  0
 41110  1  0  0  0
 41111  1  0  0  0
 41112  1  0  0  0
 41 48  1  0  0  0
 42 43  1  0  0  0
 42 66  1  0  0  0
 42113  1  0  0  0
 42114  1  0  0  0
 43 44  1  0  0  0
 44115  1  0  0  0
 45 46  2  0  0  0
 45116  1  0  0  0
 46117  1  0  0  0
 47118  1  0  0  0
 47119  1  0  0  0
 48 56  1  0  0  0
 48 65  1  0  0  0
 48120  1  0  0  0
 49 50  1  0  0  0
 49 53  1  0  0  0
 49 64  1  0  0  0
 49121  1  0  0  0
 50 51  1  0  0  0
 50122  1  0  0  0
 50123  1  0  0  0
 51 52  1  0  0  0
 51124  1  0  0  0
 51125  1  0  0  0
 52126  1  0  0  0
 52127  1  0  0  0
 53 54  1  0  0  0
 54 55  2  0  0  0
 54128  1  0  0  0
 55 57  1  0  0  0
 55129  1  0  0  0
 56 69  2  0  0  0
 57 58  2  0  0  0
 57130  1  0  0  0
 58131  1  0  0  0
 59 60  1  0  0  0
 59 61  1  0  0  0
 59 62  1  0  0  0
 60132  1  0  0  0
 60133  1  0  0  0
 60134  1  0  0  0
 61135  1  0  0  0
 61136  1  0  0  0
 61137  1  0  0  0
 62138  1  0  0  0
 62139  1  0  0  0
 62140  1  0  0  0
 63 65  1  0  0  0
 63141  1  0  0  0
 63142  1  0  0  0
 63143  1  0  0  0
 64144  1  0  0  0
 65145  1  0  0  0
 68 76  1  0  0  0
 71 73  2  0  0  0
 71 81  1  0  0  0
 71146  1  0  0  0
 72 74  1  0  0  0
 72 80  2  0  0  0
 72147  1  0  0  0
 73 75  1  0  0  0
 73 80  1  0  0  0
 74 81  2  0  0  0
 74 82  1  0  0  0
 75 83  1  0  0  0
 75 84  2  0  0  0
 76 77  2  0  0  0
 76 78  1  0  0  0
 77 79  1  0  0  0
 77 86  1  0  0  0
 78 83  1  0  0  0
 78 85  2  0  0  0
 79148  1  0  0  0
 79149  1  0  0  0
 79150  1  0  0  0
 82151  1  0  0  0
 83152  1  0  0  0
 86153  1  0  0  0
M  ISO  4   1 100  68 101  76 101  82 100
M  END
> <chiral flag>
0

> <version>
0

> <s_m_source_file>
/data/baiqing/PycharmProjects/Reinvent-master-3.2/result/LINK_invent/BTK/process_docking_weight1_custom_product_contain_oxygen_bond_distance_aromatic_linkinvent_7_9_3/rearranged_h_0161.sdf

> <i_m_source_file_index>
67

> <r_mmod_Potential_Energy-OPLS-2005>
175.974197387695

> <r_mmod_Stretch_Energy-OPLS-2005>
115.445182800293

> <r_mmod_Bend_Energy-OPLS-2005>
174.966094970703

> <r_mmod_Torsional_Energy-OPLS-2005>
255.910736083984

> <r_mmod_Improper_Torsional_Energy-OPLS-2005>
9.80662155151367

> <r_mmod_Van_der_Waal_Energy-OPLS-2005>
158.881927490234

> <r_mmod_Electrostatic_Energy-OPLS-2005>
-311.759979248047

> <r_mmod_Solvation_Energy-OPLS-2005>
-304.578460693359

> <b_mmod_Minimization_Converged-OPLS-2005>
0

> <r_mmod_RMS_Derivative-OPLS-2005>
1.78238677978516

$$$$
67
                    3D
 Structure written by MMmdl.
153161  0  0  1  0            999 V2000
  -30.6198  -14.7106   20.4513 C   0  0  0  0  0  0
  -30.4255  -12.4212   19.4890 C   0  0  0  0  0  0
  -29.5171  -12.5059   18.2428 C   0  0  0  0  0  0
  -28.0362  -12.3448   18.6401 C   0  0  0  0  0  0
  -27.6434  -13.2325   19.8527 C   0  0  2  0  0  0
  -28.6812  -13.1399   20.9899 C   0  0  0  0  0  0
  -25.2515  -13.8205   20.5683 C   0  0  0  0  0  0
  -24.1798  -13.0447   20.9178 C   0  0  0  0  0  0
  -24.6385  -11.6923   20.8705 C   0  0  0  0  0  0
  -23.9054  -10.4299   21.0373 C   0  0  0  0  0  0
  -24.3609   -9.4228   21.9159 C   0  0  0  0  0  0
  -23.6298   -8.2257   22.0745 C   0  0  0  0  0  0
  -22.4278   -8.0277   21.3543 C   0  0  0  0  0  0
  -21.9894   -9.0237   20.4641 C   0  0  0  0  0  0
  -22.7212  -10.2125   20.3046 C   0  0  0  0  0  0
  -21.6867   -6.0724   22.5275 C   0  0  0  0  0  0
  -21.4020   -6.5629   23.8206 C   0  0  0  0  0  0
  -21.3669   -5.6785   24.9168 C   0  0  0  0  0  0
  -21.6055   -4.3051   24.7223 C   0  0  0  0  0  0
  -21.8824   -3.8139   23.4347 C   0  0  0  0  0  0
  -21.9199   -4.6950   22.3400 C   0  0  0  0  0  0
  -22.7824  -13.5219   21.1857 C   0  0  0  0  0  0
  -22.1667   -4.2139   21.0978 F   0  0  0  0  0  0
  -21.5630   -3.4536   25.7736 F   0  0  0  0  0  0
  -29.9926  -13.4841   20.4272 N   0  0  0  0  0  0
  -26.2939  -12.9410   20.3257 N   0  0  0  0  0  0
  -25.9319  -11.6549   20.5704 N   0  0  0  0  0  0
  -22.0485  -12.8206   22.0426 N   0  0  0  0  0  0
  -25.4234  -15.1933   20.4151 N   0  0  0  0  0  0
  -31.8033  -14.7757   20.1039 O   0  0  0  0  0  0
  -21.6665   -6.8864   21.4236 O   0  0  0  0  0  0
  -22.3499  -14.5517   20.6704 O   0  0  0  0  0  0
  -24.6282  -31.8551   23.1973 C   0  0  0  0  0  0
  -25.9115  -32.4747   23.8318 C   0  0  1  0  0  0
  -27.2302  -27.2817   20.1113 C   0  0  0  0  0  0
  -25.5916  -33.8554   24.2244 N   0  0  0  0  0  0
  -23.4241  -30.4764   21.5402 C   0  0  2  0  0  0
  -24.8682  -28.9179   20.1105 C   0  0  0  0  0  0
  -22.7485  -29.4604   22.4922 C   0  0  0  0  0  0
  -18.0284  -28.1384   22.8487 C   0  0  0  0  0  0
  -24.1491  -36.7286   23.2637 C   0  0  0  0  0  0
  -25.9676  -30.7719   21.3741 C   0  0  0  0  0  0
  -26.0374  -29.3970   20.7119 C   0  0  0  0  0  0
  -27.2147  -28.5902   20.6984 C   0  0  0  0  0  0
  -26.0239  -26.8431   19.5253 C   0  0  0  0  0  0
  -24.8646  -27.6474   19.5104 C   0  0  0  0  0  0
  -23.6397  -29.8043   20.1575 C   0  0  0  0  0  0
  -25.4116  -36.3070   24.0319 C   0  0  1  0  0  0
  -20.5887  -28.3693   23.1277 C   0  0  2  0  0  0
  -20.6776  -26.9415   22.5406 C   0  0  0  0  0  0
  -19.5749  -26.6381   21.5217 C   0  0  0  0  0  0
  -18.1932  -26.7928   22.1636 C   0  0  0  0  0  0
  -19.1541  -28.8859   23.2880 C   0  0  0  0  0  0
  -18.9460  -30.1462   23.8894 C   0  0  0  0  0  0
  -17.6460  -30.6588   24.0561 C   0  0  0  0  0  0
  -25.9052  -34.9437   23.5090 C   0  0  0  0  0  0
  -16.5352  -29.9084   23.6333 C   0  0  0  0  0  0
  -16.7271  -28.6505   23.0353 C   0  0  0  0  0  0
  -26.4464  -31.6574   25.0723 C   0  0  0  0  0  0
  -25.3662  -31.3760   26.1430 C   0  0  0  0  0  0
  -27.0297  -30.2970   24.6241 C   0  0  0  0  0  0
  -27.6009  -32.4314   25.7518 C   0  0  0  0  0  0
  -27.5589  -37.1798   24.8447 C   0  0  0  0  0  0
  -21.4199  -29.3036   22.3660 N   0  0  0  0  0  0
  -26.4287  -37.3775   23.9408 N   0  0  0  0  0  0
  -24.6924  -31.0527   22.0935 N   0  0  0  0  0  0
  -23.4194  -28.8150   23.3018 O   0  0  0  0  0  0
  -28.3910  -26.4831   20.1823 O   0  0  0  0  0  0
  -26.5646  -34.8913   22.4673 O   0  0  0  0  0  0
  -23.5439  -32.1364   23.7280 O   0  0  0  0  0  0
  -28.3453  -20.4389   21.0727 C   0  0  0  0  0  0
  -29.0983  -21.1539   20.1531 C   0  0  0  0  0  0
  -29.6299  -18.6095   20.3755 C   0  0  0  0  0  0
  -30.2028  -17.2020   20.2464 C   0  0  0  0  0  0
  -29.8180  -15.9595   20.7213 C   0  0  0  0  0  0
  -30.2337  -25.3158   19.5197 C   0  0  0  0  0  0
  -28.2405  -25.1047   18.0729 C   0  0  0  0  0  0
  -28.3955  -23.7452   20.2922 C   0  0  0  0  0  0
  -28.6996  -25.1588   19.5459 C   0  0  0  0  0  0
  -28.6310  -19.0387   21.1703 N   0  0  0  0  0  0
  -29.1041  -22.5378   19.7159 N   0  0  0  0  0  0
  -30.2315  -19.9999   19.4089 S   0  0  0  0  0  0
  -31.4733  -12.5165   19.2002 H   0  0  0  0  0  0
  -30.3396  -11.4404   19.9591 H   0  0  0  0  0  0
  -29.7964  -11.7381   17.5207 H   0  0  0  0  0  0
  -29.6665  -13.4652   17.7446 H   0  0  0  0  0  0
  -27.8736  -11.2931   18.8800 H   0  0  0  0  0  0
  -27.3922  -12.5621   17.7876 H   0  0  0  0  0  0
  -27.6453  -14.2601   19.4900 H   0  0  0  0  0  0
  -28.7018  -12.1312   21.4062 H   0  0  0  0  0  0
  -28.4163  -13.7954   21.8186 H   0  0  0  0  0  0
  -25.2753   -9.5720   22.4727 H   0  0  0  0  0  0
  -24.0023   -7.4656   22.7464 H   0  0  0  0  0  0
  -21.0829   -8.8732   19.8950 H   0  0  0  0  0  0
  -22.3646  -10.9648   19.6159 H   0  0  0  0  0  0
  -21.2013   -7.6137   23.9700 H   0  0  0  0  0  0
  -21.1492   -6.0519   25.9068 H   0  0  0  0  0  0
  -22.0599   -2.7601   23.2852 H   0  0  0  0  0  0
  -22.4115  -11.9880   22.4819 H   0  0  0  0  0  0
  -21.1097  -13.1226   22.2629 H   0  0  0  0  0  0
  -24.6622  -15.8515   20.5403 H   0  0  0  0  0  0
  -26.2860  -15.6364   20.1233 H   0  0  0  0  0  0
  -26.7185  -32.5389   23.1061 H   0  0  0  0  0  0
  -25.0011  -33.9694   25.0353 H   0  0  0  0  0  0
  -22.7192  -31.2974   21.3929 H   0  0  0  0  0  0
  -23.3762  -35.9606   23.3259 H   0  0  0  0  0  0
  -24.3585  -36.8956   22.2059 H   0  0  0  0  0  0
  -23.7225  -37.6466   23.6688 H   0  0  0  0  0  0
  -26.1106  -31.5366   20.6098 H   0  0  0  0  0  0
  -26.8422  -30.8132   22.0119 H   0  0  0  0  0  0
  -28.1151  -28.9559   21.1717 H   0  0  0  0  0  0
  -25.9356  -25.8536   19.1128 H   0  0  0  0  0  0
  -23.9600  -27.2643   19.0587 H   0  0  0  0  0  0
  -23.7629  -30.5772   19.3982 H   0  0  0  0  0  0
  -22.7572  -29.2370   19.8562 H   0  0  0  0  0  0
  -25.1302  -36.1910   25.0812 H   0  0  0  0  0  0
  -20.9993  -28.3264   24.1394 H   0  0  0  0  0  0
  -20.5692  -26.2306   23.3607 H   0  0  0  0  0  0
  -21.6640  -26.7445   22.1189 H   0  0  0  0  0  0
  -19.6912  -25.6292   21.1251 H   0  0  0  0  0  0
  -19.6679  -27.3189   20.6742 H   0  0  0  0  0  0
  -17.4203  -26.6674   21.4036 H   0  0  0  0  0  0
  -18.0328  -26.0068   22.9033 H   0  0  0  0  0  0
  -19.7932  -30.7287   24.2259 H   0  0  0  0  0  0
  -17.5005  -31.6270   24.5158 H   0  0  0  0  0  0
  -15.5351  -30.2987   23.7649 H   0  0  0  0  0  0
  -15.8674  -28.0821   22.7066 H   0  0  0  0  0  0
  -24.5822  -30.7132   25.7748 H   0  0  0  0  0  0
  -24.8872  -32.2954   26.4812 H   0  0  0  0  0  0
  -25.7942  -30.8949   27.0232 H   0  0  0  0  0  0
  -26.2901  -29.6751   24.1187 H   0  0  0  0  0  0
  -27.3842  -29.7210   25.4798 H   0  0  0  0  0  0
  -27.8836  -30.4199   23.9577 H   0  0  0  0  0  0
  -27.2583  -33.3582   26.2128 H   0  0  0  0  0  0
  -28.3816  -32.6924   25.0365 H   0  0  0  0  0  0
  -28.0675  -31.8421   26.5420 H   0  0  0  0  0  0
  -28.2560  -38.0141   24.7549 H   0  0  0  0  0  0
  -28.1135  -36.2675   24.6199 H   0  0  0  0  0  0
  -27.2318  -37.1357   25.8851 H   0  0  0  0  0  0
  -20.9383  -29.8739   21.6851 H   0  0  0  0  0  0
  -26.0161  -38.2841   24.1430 H   0  0  0  0  0  0
  -27.5613  -20.8415   21.6992 H   0  0  0  0  0  0
  -31.1097  -17.2030   19.6575 H   0  0  0  0  0  0
  -28.9147  -15.8967   21.3081 H   0  0  0  0  0  0
  -30.5307  -26.2542   19.0488 H   0  0  0  0  0  0
  -30.7295  -24.5193   18.9642 H   0  0  0  0  0  0
  -30.6457  -25.3124   20.5290 H   0  0  0  0  0  0
  -28.2969  -26.0834   17.5962 H   0  0  0  0  0  0
  -27.2279  -24.7220   17.9625 H   0  0  0  0  0  0
  -28.8661  -24.4278   17.4898 H   0  0  0  0  0  0
  -27.3208  -23.5604   20.2956 H   0  0  0  0  0  0
  -28.6895  -23.8334   21.3397 H   0  0  0  0  0  0
  -29.7471  -22.7741   18.9651 H   0  0  0  0  0  0
  1 25  1  0  0  0
  1 30  2  0  0  0
  1 75  1  0  0  0
  2  3  1  0  0  0
  2 25  1  0  0  0
  2 83  1  0  0  0
  2 84  1  0  0  0
  3  4  1  0  0  0
  3 85  1  0  0  0
  3 86  1  0  0  0
  4  5  1  0  0  0
  4 87  1  0  0  0
  4 88  1  0  0  0
  5  6  1  0  0  0
  5 26  1  0  0  0
  5 89  1  0  0  0
  6 25  1  0  0  0
  6 90  1  0  0  0
  6 91  1  0  0  0
  7  8  2  0  0  0
  7 26  1  0  0  0
  7 29  1  0  0  0
  8  9  1  0  0  0
  8 22  1  0  0  0
  9 10  1  0  0  0
  9 27  2  0  0  0
 10 11  2  0  0  0
 10 15  1  0  0  0
 11 12  1  0  0  0
 11 92  1  0  0  0
 12 13  2  0  0  0
 12 93  1  0  0  0
 13 14  1  0  0  0
 13 31  1  0  0  0
 14 15  2  0  0  0
 14 94  1  0  0  0
 15 95  1  0  0  0
 16 17  2  0  0  0
 16 21  1  0  0  0
 16 31  1  0  0  0
 17 18  1  0  0  0
 17 96  1  0  0  0
 18 19  2  0  0  0
 18 97  1  0  0  0
 19 20  1  0  0  0
 19 24  1  0  0  0
 20 21  2  0  0  0
 20 98  1  0  0  0
 21 23  1  0  0  0
 22 28  1  0  0  0
 22 32  2  0  0  0
 26 27  1  0  0  0
 28 99  1  0  0  0
 28100  1  0  0  0
 29101  1  0  0  0
 29102  1  0  0  0
 33 34  1  0  0  0
 33 66  1  0  0  0
 33 70  2  0  0  0
 34 36  1  0  0  0
 34 59  1  0  0  0
 34103  1  0  0  0
 35 44  2  0  0  0
 35 45  1  0  0  0
 35 68  1  0  0  0
 36 56  1  0  0  0
 36104  1  0  0  0
 37 39  1  0  0  0
 37 47  1  0  0  0
 37 66  1  0  0  0
 37105  1  0  0  0
 38 43  2  0  0  0
 38 46  1  0  0  0
 38 47  1  0  0  0
 39 64  1  0  0  0
 39 67  2  0  0  0
 40 52  1  0  0  0
 40 53  2  0  0  0
 40 58  1  0  0  0
 41106  1  0  0  0
 41107  1  0  0  0
 41108  1  0  0  0
 41 48  1  0  0  0
 42 43  1  0  0  0
 42 66  1  0  0  0
 42109  1  0  0  0
 42110  1  0  0  0
 43 44  1  0  0  0
 44111  1  0  0  0
 45 46  2  0  0  0
 45112  1  0  0  0
 46113  1  0  0  0
 47114  1  0  0  0
 47115  1  0  0  0
 48 56  1  0  0  0
 48 65  1  0  0  0
 48116  1  0  0  0
 49 50  1  0  0  0
 49 53  1  0  0  0
 49 64  1  0  0  0
 49117  1  0  0  0
 50 51  1  0  0  0
 50118  1  0  0  0
 50119  1  0  0  0
 51 52  1  0  0  0
 51120  1  0  0  0
 51121  1  0  0  0
 52122  1  0  0  0
 52123  1  0  0  0
 53 54  1  0  0  0
 54 55  2  0  0  0
 54124  1  0  0  0
 55 57  1  0  0  0
 55125  1  0  0  0
 56 69  2  0  0  0
 57 58  2  0  0  0
 57126  1  0  0  0
 58127  1  0  0  0
 59 60  1  0  0  0
 59 61  1  0  0  0
 59 62  1  0  0  0
 60128  1  0  0  0
 60129  1  0  0  0
 60130  1  0  0  0
 61131  1  0  0  0
 61132  1  0  0  0
 61133  1  0  0  0
 62134  1  0  0  0
 62135  1  0  0  0
 62136  1  0  0  0
 63 65  1  0  0  0
 63137  1  0  0  0
 63138  1  0  0  0
 63139  1  0  0  0
 64140  1  0  0  0
 65141  1  0  0  0
 68 79  1  0  0  0
 71 72  2  0  0  0
 71 80  1  0  0  0
 71142  1  0  0  0
 72 81  1  0  0  0
 72 82  1  0  0  0
 73 74  1  0  0  0
 73 80  2  0  0  0
 73 82  1  0  0  0
 74 75  2  0  0  0
 74143  1  0  0  0
 75144  1  0  0  0
 76145  1  0  0  0
 76146  1  0  0  0
 76147  1  0  0  0
 76 79  1  0  0  0
 77 79  1  0  0  0
 77148  1  0  0  0
 77149  1  0  0  0
 77150  1  0  0  0
 78 79  1  0  0  0
 78 81  1  0  0  0
 78151  1  0  0  0
 78152  1  0  0  0
 81153  1  0  0  0
M  ISO  4   1 100  68 101  75 100  79 101
M  END
> <chiral flag>
0

> <version>
0

> <s_m_source_file>
/data/baiqing/PycharmProjects/Reinvent-master-3.2/result/LINK_invent/BTK/process_docking_weight1_custom_product_contain_oxygen_bond_distance_aromatic_linkinvent_7_9_3/rearranged_h_0161.sdf

> <i_m_source_file_index>
68

> <r_mmod_Potential_Energy-OPLS-2005>
133.749176025391

> <r_mmod_Stretch_Energy-OPLS-2005>
103.70783996582

> <r_mmod_Bend_Energy-OPLS-2005>
210.388076782227

> <r_mmod_Torsional_Energy-OPLS-2005>
190.085662841797

> <r_mmod_Improper_Torsional_Energy-OPLS-2005>
3.85993099212646

> <r_mmod_Van_der_Waal_Energy-OPLS-2005>
122.74486541748

> <r_mmod_Electrostatic_Energy-OPLS-2005>
-363.183959960938

> <r_mmod_Solvation_Energy-OPLS-2005>
-200.652908325195

> <b_mmod_Minimization_Converged-OPLS-2005>
0

> <r_mmod_RMS_Derivative-OPLS-2005>
1.6049040555954

$$$$
68
                    3D
 Structure written by MMmdl.
161169  0  0  1  0            999 V2000
  -30.6679  -14.4980   20.5705 C   0  0  0  0  0  0
  -30.4247  -12.3261   19.4183 C   0  0  0  0  0  0
  -29.4922  -12.5065   18.2027 C   0  0  0  0  0  0
  -28.0142  -12.3602   18.6178 C   0  0  0  0  0  0
  -27.6555  -13.2042   19.8698 C   0  0  2  0  0  0
  -28.6955  -12.9919   20.9899 C   0  0  0  0  0  0
  -25.2570  -13.8156   20.5669 C   0  0  0  0  0  0
  -24.1822  -13.0436   20.9159 C   0  0  0  0  0  0
  -24.6373  -11.6899   20.8730 C   0  0  0  0  0  0
  -23.9044  -10.4291   21.0405 C   0  0  0  0  0  0
  -24.3607   -9.4207   21.9183 C   0  0  0  0  0  0
  -23.6281   -8.2247   22.0762 C   0  0  0  0  0  0
  -22.4266   -8.0276   21.3541 C   0  0  0  0  0  0
  -21.9893   -9.0250   20.4650 C   0  0  0  0  0  0
  -22.7221  -10.2130   20.3054 C   0  0  0  0  0  0
  -21.6844   -6.0731   22.5280 C   0  0  0  0  0  0
  -21.4013   -6.5639   23.8212 C   0  0  0  0  0  0
  -21.3661   -5.6791   24.9173 C   0  0  0  0  0  0
  -21.6043   -4.3050   24.7227 C   0  0  0  0  0  0
  -21.8818   -3.8139   23.4345 C   0  0  0  0  0  0
  -21.9196   -4.6959   22.3405 C   0  0  0  0  0  0
  -22.7847  -13.5238   21.1837 C   0  0  0  0  0  0
  -22.1661   -4.2139   21.0982 F   0  0  0  0  0  0
  -21.5634   -3.4539   25.7740 F   0  0  0  0  0  0
  -30.0184  -13.3114   20.4324 N   0  0  0  0  0  0
  -26.2984  -12.9313   20.3327 N   0  0  0  0  0  0
  -25.9293  -11.6478   20.5748 N   0  0  0  0  0  0
  -22.0496  -12.8236   22.0404 N   0  0  0  0  0  0
  -25.4293  -15.1870   20.4087 N   0  0  0  0  0  0
  -31.8241  -14.6701   20.1762 O   0  0  0  0  0  0
  -21.6634   -6.8868   21.4235 O   0  0  0  0  0  0
  -22.3542  -14.5547   20.6689 O   0  0  0  0  0  0
  -24.6154  -31.8654   23.2107 C   0  0  0  0  0  0
  -25.9047  -32.4807   23.8405 C   0  0  1  0  0  0
  -27.2393  -27.4137   20.0949 C   0  0  0  0  0  0
  -25.5883  -33.8601   24.2328 N   0  0  0  0  0  0
  -23.4058  -30.4903   21.5480 C   0  0  2  0  0  0
  -24.8535  -28.9523   20.1132 C   0  0  0  0  0  0
  -22.7416  -29.4654   22.4964 C   0  0  0  0  0  0
  -18.0265  -28.1372   22.8503 C   0  0  0  0  0  0
  -24.1474  -36.7316   23.2649 C   0  0  0  0  0  0
  -25.9362  -30.8251   21.3672 C   0  0  0  0  0  0
  -26.0130  -29.4578   20.7125 C   0  0  0  0  0  0
  -27.2027  -28.6933   20.7045 C   0  0  0  0  0  0
  -26.0548  -26.9230   19.4960 C   0  0  0  0  0  0
  -24.8705  -27.6861   19.5023 C   0  0  0  0  0  0
  -23.6169  -29.8211   20.1620 C   0  0  0  0  0  0
  -25.4102  -36.3098   24.0339 C   0  0  1  0  0  0
  -20.5867  -28.3666   23.1301 C   0  0  2  0  0  0
  -20.6748  -26.9398   22.5407 C   0  0  0  0  0  0
  -19.5722  -26.6384   21.5204 C   0  0  0  0  0  0
  -18.1910  -26.7920   22.1625 C   0  0  0  0  0  0
  -19.1519  -28.8829   23.2907 C   0  0  0  0  0  0
  -18.9449  -30.1435   23.8921 C   0  0  0  0  0  0
  -17.6454  -30.6587   24.0560 C   0  0  0  0  0  0
  -25.9027  -34.9461   23.5138 C   0  0  0  0  0  0
  -16.5344  -29.9090   23.6324 C   0  0  0  0  0  0
  -16.7252  -28.6493   23.0371 C   0  0  0  0  0  0
  -26.4489  -31.6599   25.0740 C   0  0  0  0  0  0
  -25.3759  -31.3675   26.1484 C   0  0  0  0  0  0
  -27.0364  -30.3052   24.6141 C   0  0  0  0  0  0
  -27.6048  -32.4344   25.7493 C   0  0  0  0  0  0
  -27.5589  -37.1800   24.8466 C   0  0  0  0  0  0
  -21.4144  -29.3040   22.3696 N   0  0  0  0  0  0
  -26.4291  -37.3784   23.9421 N   0  0  0  0  0  0
  -24.6707  -31.0742   22.1011 N   0  0  0  0  0  0
  -23.4181  -28.8185   23.3007 O   0  0  0  0  0  0
  -28.4235  -26.6961   20.1286 O   0  0  0  0  0  0
  -26.5593  -34.8906   22.4703 O   0  0  0  0  0  0
  -23.5337  -32.1398   23.7488 O   0  0  0  0  0  0
  -29.6646  -20.1917   18.7025 C   0  0  0  0  0  0
  -29.2154  -19.2411   20.8886 C   0  0  0  0  0  0
  -29.9266  -18.0674   20.4499 C   0  0  0  0  0  0
  -29.1194  -20.3690   19.9944 C   0  0  0  0  0  0
  -30.4168  -18.0621   19.1311 C   0  0  0  0  0  0
  -28.5279  -19.2234   22.2230 C   0  0  0  0  0  0
  -28.3490  -24.1814   20.1856 C   0  0  0  0  0  0
  -28.2815  -20.2012   24.6020 C   0  0  0  0  0  0
  -30.3484  -16.8903   21.3794 C   0  0  0  0  0  0
  -28.6885  -20.4481   23.1374 C   0  0  0  0  0  0
  -28.8512  -22.8508   19.5620 C   0  0  0  0  0  0
  -28.5828  -25.4782   19.3650 C   0  0  0  0  0  0
  -30.2753  -19.0802   18.2723 N   0  0  0  0  0  0
  -28.5113  -21.6192   20.3118 N   0  0  0  0  0  0
  -29.9119  -15.5185   21.0398 N   0  0  0  0  0  0
  -27.8680  -18.2548   22.6182 O   0  0  0  0  0  0
  -27.7993  -24.1898   21.2931 O   0  0  0  0  0  0
  -31.0984  -16.9903   18.6728 F   0  0  0  0  0  0
  -31.4665  -12.4446   19.1140 H   0  0  0  0  0  0
  -30.3436  -11.3146   19.8208 H   0  0  0  0  0  0
  -29.7365  -11.7789   17.4271 H   0  0  0  0  0  0
  -29.6524  -13.4909   17.7598 H   0  0  0  0  0  0
  -27.8293  -11.3044   18.8192 H   0  0  0  0  0  0
  -27.3616  -12.6282   17.7863 H   0  0  0  0  0  0
  -27.6981  -14.2502   19.5669 H   0  0  0  0  0  0
  -28.6806  -11.9560   21.3330 H   0  0  0  0  0  0
  -28.4557  -13.5920   21.8690 H   0  0  0  0  0  0
  -25.2751   -9.5688   22.4753 H   0  0  0  0  0  0
  -23.9988   -7.4639   22.7487 H   0  0  0  0  0  0
  -21.0820   -8.8762   19.8953 H   0  0  0  0  0  0
  -22.3669  -10.9670   19.6165 H   0  0  0  0  0  0
  -21.1998   -7.6148   23.9703 H   0  0  0  0  0  0
  -21.1489   -6.0528   25.9074 H   0  0  0  0  0  0
  -22.0599   -2.7602   23.2852 H   0  0  0  0  0  0
  -22.4117  -11.9891   22.4780 H   0  0  0  0  0  0
  -21.1121  -13.1277   22.2634 H   0  0  0  0  0  0
  -24.6628  -15.8412   20.5182 H   0  0  0  0  0  0
  -26.2840  -15.6292   20.0965 H   0  0  0  0  0  0
  -26.7119  -32.5518   23.1169 H   0  0  0  0  0  0
  -24.9984  -33.9744   25.0439 H   0  0  0  0  0  0
  -22.6946  -31.3079   21.4086 H   0  0  0  0  0  0
  -23.3729  -35.9660   23.3290 H   0  0  0  0  0  0
  -24.3568  -36.8960   22.2072 H   0  0  0  0  0  0
  -23.7229  -37.6510   23.6683 H   0  0  0  0  0  0
  -26.0525  -31.5926   20.6003 H   0  0  0  0  0  0
  -26.8229  -30.8755   21.9888 H   0  0  0  0  0  0
  -28.0959  -29.0824   21.1726 H   0  0  0  0  0  0
  -26.0149  -25.9471   19.0367 H   0  0  0  0  0  0
  -23.9757  -27.2912   19.0403 H   0  0  0  0  0  0
  -23.7273  -30.5945   19.4012 H   0  0  0  0  0  0
  -22.7406  -29.2415   19.8686 H   0  0  0  0  0  0
  -25.1284  -36.1957   25.0830 H   0  0  0  0  0  0
  -20.9976  -28.3238   24.1414 H   0  0  0  0  0  0
  -20.5626  -26.2279   23.3606 H   0  0  0  0  0  0
  -21.6622  -26.7421   22.1215 H   0  0  0  0  0  0
  -19.6869  -25.6296   21.1221 H   0  0  0  0  0  0
  -19.6646  -27.3198   20.6736 H   0  0  0  0  0  0
  -17.4182  -26.6675   21.4028 H   0  0  0  0  0  0
  -18.0294  -26.0063   22.9015 H   0  0  0  0  0  0
  -19.7933  -30.7237   24.2307 H   0  0  0  0  0  0
  -17.5018  -31.6261   24.5164 H   0  0  0  0  0  0
  -15.5345  -30.3002   23.7628 H   0  0  0  0  0  0
  -15.8653  -28.0804   22.7102 H   0  0  0  0  0  0
  -24.5937  -30.7026   25.7797 H   0  0  0  0  0  0
  -24.8942  -32.2813   26.4966 H   0  0  0  0  0  0
  -25.8125  -30.8811   27.0218 H   0  0  0  0  0  0
  -26.2923  -29.6734   24.1278 H   0  0  0  0  0  0
  -27.4232  -29.7362   25.4607 H   0  0  0  0  0  0
  -27.8697  -30.4387   23.9244 H   0  0  0  0  0  0
  -27.2673  -33.3654   26.2048 H   0  0  0  0  0  0
  -28.3849  -32.6884   25.0312 H   0  0  0  0  0  0
  -28.0721  -31.8495   26.5420 H   0  0  0  0  0  0
  -28.2571  -38.0131   24.7563 H   0  0  0  0  0  0
  -28.1112  -36.2663   24.6232 H   0  0  0  0  0  0
  -27.2302  -37.1375   25.8862 H   0  0  0  0  0  0
  -20.9291  -29.8780   21.6946 H   0  0  0  0  0  0
  -26.0171  -38.2846   24.1459 H   0  0  0  0  0  0
  -29.6067  -20.9721   17.9581 H   0  0  0  0  0  0
  -28.4089  -21.1079   25.1933 H   0  0  0  0  0  0
  -28.8861  -19.4211   25.0639 H   0  0  0  0  0  0
  -27.2337  -19.9073   24.6800 H   0  0  0  0  0  0
  -30.0711  -17.0595   22.4174 H   0  0  0  0  0  0
  -31.4394  -16.9072   21.4107 H   0  0  0  0  0  0
  -28.0712  -21.2574   22.7545 H   0  0  0  0  0  0
  -29.7247  -20.7814   23.0882 H   0  0  0  0  0  0
  -29.9365  -22.9239   19.4701 H   0  0  0  0  0  0
  -28.4505  -22.7926   18.5491 H   0  0  0  0  0  0
  -27.9774  -25.4779   18.4599 H   0  0  0  0  0  0
  -29.6161  -25.4520   19.0199 H   0  0  0  0  0  0
  -28.1155  -21.7956   21.2317 H   0  0  0  0  0  0
  -28.9701  -15.2705   21.3040 H   0  0  0  0  0  0
  1 25  1  0  0  0
  1 30  2  0  0  0
  1 85  1  0  0  0
  2  3  1  0  0  0
  2 25  1  0  0  0
  2 89  1  0  0  0
  2 90  1  0  0  0
  3  4  1  0  0  0
  3 91  1  0  0  0
  3 92  1  0  0  0
  4  5  1  0  0  0
  4 93  1  0  0  0
  4 94  1  0  0  0
  5  6  1  0  0  0
  5 26  1  0  0  0
  5 95  1  0  0  0
  6 25  1  0  0  0
  6 96  1  0  0  0
  6 97  1  0  0  0
  7  8  2  0  0  0
  7 26  1  0  0  0
  7 29  1  0  0  0
  8  9  1  0  0  0
  8 22  1  0  0  0
  9 10  1  0  0  0
  9 27  2  0  0  0
 10 11  2  0  0  0
 10 15  1  0  0  0
 11 12  1  0  0  0
 11 98  1  0  0  0
 12 13  2  0  0  0
 12 99  1  0  0  0
 13 14  1  0  0  0
 13 31  1  0  0  0
 14 15  2  0  0  0
 14100  1  0  0  0
 15101  1  0  0  0
 16 17  2  0  0  0
 16 21  1  0  0  0
 16 31  1  0  0  0
 17 18  1  0  0  0
 17102  1  0  0  0
 18 19  2  0  0  0
 18103  1  0  0  0
 19 20  1  0  0  0
 19 24  1  0  0  0
 20 21  2  0  0  0
 20104  1  0  0  0
 21 23  1  0  0  0
 22 28  1  0  0  0
 22 32  2  0  0  0
 26 27  1  0  0  0
 28105  1  0  0  0
 28106  1  0  0  0
 29107  1  0  0  0
 29108  1  0  0  0
 33 34  1  0  0  0
 33 66  1  0  0  0
 33 70  2  0  0  0
 34 36  1  0  0  0
 34 59  1  0  0  0
 34109  1  0  0  0
 35 44  2  0  0  0
 35 45  1  0  0  0
 35 68  1  0  0  0
 36 56  1  0  0  0
 36110  1  0  0  0
 37 39  1  0  0  0
 37 47  1  0  0  0
 37 66  1  0  0  0
 37111  1  0  0  0
 38 43  2  0  0  0
 38 46  1  0  0  0
 38 47  1  0  0  0
 39 64  1  0  0  0
 39 67  2  0  0  0
 40 52  1  0  0  0
 40 53  2  0  0  0
 40 58  1  0  0  0
 41112  1  0  0  0
 41113  1  0  0  0
 41114  1  0  0  0
 41 48  1  0  0  0
 42 43  1  0  0  0
 42 66  1  0  0  0
 42115  1  0  0  0
 42116  1  0  0  0
 43 44  1  0  0  0
 44117  1  0  0  0
 45 46  2  0  0  0
 45118  1  0  0  0
 46119  1  0  0  0
 47120  1  0  0  0
 47121  1  0  0  0
 48 56  1  0  0  0
 48 65  1  0  0  0
 48122  1  0  0  0
 49 50  1  0  0  0
 49 53  1  0  0  0
 49 64  1  0  0  0
 49123  1  0  0  0
 50 51  1  0  0  0
 50124  1  0  0  0
 50125  1  0  0  0
 51 52  1  0  0  0
 51126  1  0  0  0
 51127  1  0  0  0
 52128  1  0  0  0
 52129  1  0  0  0
 53 54  1  0  0  0
 54 55  2  0  0  0
 54130  1  0  0  0
 55 57  1  0  0  0
 55131  1  0  0  0
 56 69  2  0  0  0
 57 58  2  0  0  0
 57132  1  0  0  0
 58133  1  0  0  0
 59 60  1  0  0  0
 59 61  1  0  0  0
 59 62  1  0  0  0
 60134  1  0  0  0
 60135  1  0  0  0
 60136  1  0  0  0
 61137  1  0  0  0
 61138  1  0  0  0
 61139  1  0  0  0
 62140  1  0  0  0
 62141  1  0  0  0
 62142  1  0  0  0
 63 65  1  0  0  0
 63143  1  0  0  0
 63144  1  0  0  0
 63145  1  0  0  0
 64146  1  0  0  0
 65147  1  0  0  0
 68 82  1  0  0  0
 71 74  2  0  0  0
 71 83  1  0  0  0
 71148  1  0  0  0
 72 73  2  0  0  0
 72 74  1  0  0  0
 72 76  1  0  0  0
 73 75  1  0  0  0
 73 79  1  0  0  0
 74 84  1  0  0  0
 75 83  2  0  0  0
 75 88  1  0  0  0
 76 80  1  0  0  0
 76 86  2  0  0  0
 77 81  1  0  0  0
 77 82  1  0  0  0
 77 87  2  0  0  0
 78 80  1  0  0  0
 78149  1  0  0  0
 78150  1  0  0  0
 78151  1  0  0  0
 79 85  1  0  0  0
 79152  1  0  0  0
 79153  1  0  0  0
 80154  1  0  0  0
 80155  1  0  0  0
 81 84  1  0  0  0
 81156  1  0  0  0
 81157  1  0  0  0
 82158  1  0  0  0
 82159  1  0  0  0
 84160  1  0  0  0
 85161  1  0  0  0
M  ISO  4   1 100  68 101  82 101  85 100
M  END
> <chiral flag>
0

> <version>
0

> <s_m_source_file>
/data/baiqing/PycharmProjects/Reinvent-master-3.2/result/LINK_invent/BTK/process_docking_weight1_custom_product_contain_oxygen_bond_distance_aromatic_linkinvent_7_9_3/rearranged_h_0161.sdf

> <i_m_source_file_index>
69

> <r_mmod_Potential_Energy-OPLS-2005>
-7.54980230331421

> <r_mmod_Stretch_Energy-OPLS-2005>
53.1343612670898

> <r_mmod_Bend_Energy-OPLS-2005>
126.552658081055

> <r_mmod_Torsional_Energy-OPLS-2005>
227.386306762695

> <r_mmod_Improper_Torsional_Energy-OPLS-2005>
5.42992496490479

> <r_mmod_Van_der_Waal_Energy-OPLS-2005>
162.221633911133

> <r_mmod_Electrostatic_Energy-OPLS-2005>
-350.731658935547

> <r_mmod_Solvation_Energy-OPLS-2005>
-248.692535400391

> <b_mmod_Minimization_Converged-OPLS-2005>
0

> <r_mmod_RMS_Derivative-OPLS-2005>
2.18515777587891

$$$$
69
                    3D
 Structure written by MMmdl.
160168  0  0  1  0            999 V2000
  -30.6539  -14.5656   20.4455 C   0  0  0  0  0  0
  -30.4404  -12.3126   19.4679 C   0  0  0  0  0  0
  -29.5142  -12.3698   18.2338 C   0  0  0  0  0  0
  -28.0219  -12.3153   18.6316 C   0  0  0  0  0  0
  -27.6552  -13.2000   19.8561 C   0  0  2  0  0  0
  -28.6985  -13.0611   20.9856 C   0  0  0  0  0  0
  -25.2594  -13.8142   20.5654 C   0  0  0  0  0  0
  -24.1830  -13.0437   20.9170 C   0  0  0  0  0  0
  -24.6367  -11.6895   20.8737 C   0  0  0  0  0  0
  -23.9037  -10.4290   21.0411 C   0  0  0  0  0  0
  -24.3594   -9.4200   21.9187 C   0  0  0  0  0  0
  -23.6270   -8.2229   22.0753 C   0  0  0  0  0  0
  -22.4241   -8.0279   21.3554 C   0  0  0  0  0  0
  -21.9882   -9.0249   20.4650 C   0  0  0  0  0  0
  -22.7214  -10.2123   20.3063 C   0  0  0  0  0  0
  -21.6843   -6.0723   22.5280 C   0  0  0  0  0  0
  -21.4018   -6.5623   23.8213 C   0  0  0  0  0  0
  -21.3659   -5.6778   24.9174 C   0  0  0  0  0  0
  -21.6038   -4.3044   24.7224 C   0  0  0  0  0  0
  -21.8825   -3.8141   23.4349 C   0  0  0  0  0  0
  -21.9193   -4.6958   22.3404 C   0  0  0  0  0  0
  -22.7855  -13.5258   21.1826 C   0  0  0  0  0  0
  -22.1655   -4.2147   21.0978 F   0  0  0  0  0  0
  -21.5630   -3.4526   25.7737 F   0  0  0  0  0  0
  -30.0205  -13.3594   20.4144 N   0  0  0  0  0  0
  -26.3001  -12.9286   20.3309 N   0  0  0  0  0  0
  -25.9288  -11.6463   20.5771 N   0  0  0  0  0  0
  -22.0469  -12.8273   22.0376 N   0  0  0  0  0  0
  -25.4371  -15.1849   20.4027 N   0  0  0  0  0  0
  -31.8395  -14.6983   20.1293 O   0  0  0  0  0  0
  -21.6627   -6.8865   21.4236 O   0  0  0  0  0  0
  -22.3576  -14.5575   20.6683 O   0  0  0  0  0  0
  -24.6169  -31.8671   23.2100 C   0  0  0  0  0  0
  -25.9058  -32.4810   23.8402 C   0  0  1  0  0  0
  -27.2335  -27.4132   20.1089 C   0  0  0  0  0  0
  -25.5906  -33.8608   24.2330 N   0  0  0  0  0  0
  -23.4062  -30.4909   21.5504 C   0  0  2  0  0  0
  -24.8558  -28.9575   20.1140 C   0  0  0  0  0  0
  -22.7419  -29.4653   22.4979 C   0  0  0  0  0  0
  -18.0275  -28.1363   22.8500 C   0  0  0  0  0  0
  -24.1483  -36.7306   23.2635 C   0  0  0  0  0  0
  -25.9391  -30.8272   21.3684 C   0  0  0  0  0  0
  -26.0183  -29.4623   20.7109 C   0  0  0  0  0  0
  -27.2122  -28.6996   20.7019 C   0  0  0  0  0  0
  -26.0565  -26.9376   19.4875 C   0  0  0  0  0  0
  -24.8720  -27.6966   19.4954 C   0  0  0  0  0  0
  -23.6169  -29.8244   20.1652 C   0  0  0  0  0  0
  -25.4099  -36.3101   24.0340 C   0  0  1  0  0  0
  -20.5867  -28.3657   23.1313 C   0  0  2  0  0  0
  -20.6763  -26.9389   22.5419 C   0  0  0  0  0  0
  -19.5741  -26.6374   21.5214 C   0  0  0  0  0  0
  -18.1916  -26.7913   22.1623 C   0  0  0  0  0  0
  -19.1524  -28.8829   23.2908 C   0  0  0  0  0  0
  -18.9448  -30.1434   23.8916 C   0  0  0  0  0  0
  -17.6452  -30.6576   24.0551 C   0  0  0  0  0  0
  -25.9034  -34.9467   23.5132 C   0  0  0  0  0  0
  -16.5340  -29.9072   23.6325 C   0  0  0  0  0  0
  -16.7260  -28.6479   23.0360 C   0  0  0  0  0  0
  -26.4476  -31.6587   25.0733 C   0  0  0  0  0  0
  -25.3724  -31.3702   26.1468 C   0  0  0  0  0  0
  -27.0308  -30.3021   24.6130 C   0  0  0  0  0  0
  -27.6055  -32.4300   25.7494 C   0  0  0  0  0  0
  -27.5580  -37.1800   24.8456 C   0  0  0  0  0  0
  -21.4142  -29.3035   22.3728 N   0  0  0  0  0  0
  -26.4282  -37.3790   23.9414 N   0  0  0  0  0  0
  -24.6720  -31.0748   22.1013 N   0  0  0  0  0  0
  -23.4179  -28.8189   23.3024 O   0  0  0  0  0  0
  -28.3730  -26.6293   20.1402 O   0  0  0  0  0  0
  -26.5596  -34.8920   22.4695 O   0  0  0  0  0  0
  -23.5353  -32.1432   23.7482 O   0  0  0  0  0  0
  -30.0176  -19.5047   18.7365 C   0  0  0  0  0  0
  -29.8697  -18.1390   20.7412 C   0  0  0  0  0  0
  -30.0016  -17.0663   18.5467 C   0  0  0  0  0  0
  -29.8741  -19.4371   20.1460 C   0  0  0  0  0  0
  -30.0759  -18.3467   17.9462 C   0  0  0  0  0  0
  -29.9533  -16.9409   19.9691 C   0  0  0  0  0  0
  -29.6612  -21.7947   20.5032 C   0  0  0  0  0  0
  -29.3801  -24.3618   20.5155 C   0  0  0  0  0  0
  -29.8828  -15.8440   17.6521 C   0  0  0  0  0  0
  -30.3670  -23.1666   22.5289 C   0  0  0  0  0  0
  -28.1484  -25.2867   20.6431 C   0  0  0  0  0  0
  -29.3808  -23.0494   21.3506 C   0  0  2  0  0  0
  -29.6984  -20.5885   20.9644 N   0  0  0  0  0  0
  -30.1693  -18.5074   16.5600 N   0  0  0  0  0  0
  -29.8497  -15.6473   20.6202 N   0  0  0  0  0  0
  -30.3407  -24.6720   19.8014 O   0  0  0  0  0  0
  -31.4825  -12.4223   19.1604 H   0  0  0  0  0  0
  -30.3760  -11.3366   19.9495 H   0  0  0  0  0  0
  -29.7405  -11.5295   17.5773 H   0  0  0  0  0  0
  -29.7252  -13.2439   17.6316 H   0  0  0  0  0  0
  -27.7992  -11.2705   18.8546 H   0  0  0  0  0  0
  -27.3939  -12.5753   17.7787 H   0  0  0  0  0  0
  -27.6708  -14.2315   19.5100 H   0  0  0  0  0  0
  -28.6883  -12.0481   21.3905 H   0  0  0  0  0  0
  -28.4604  -13.7242   21.8187 H   0  0  0  0  0  0
  -25.2729   -9.5676   22.4768 H   0  0  0  0  0  0
  -23.9986   -7.4615   22.7455 H   0  0  0  0  0  0
  -21.0826   -8.8764   19.8945 H   0  0  0  0  0  0
  -22.3676  -10.9661   19.6176 H   0  0  0  0  0  0
  -21.2014   -7.6128   23.9719 H   0  0  0  0  0  0
  -21.1471   -6.0502   25.9079 H   0  0  0  0  0  0
  -22.0610   -2.7607   23.2843 H   0  0  0  0  0  0
  -22.4057  -11.9931   22.4782 H   0  0  0  0  0  0
  -21.1107  -13.1367   22.2584 H   0  0  0  0  0  0
  -24.6750  -15.8464   20.5031 H   0  0  0  0  0  0
  -26.2943  -15.6162   20.0813 H   0  0  0  0  0  0
  -26.7132  -32.5521   23.1168 H   0  0  0  0  0  0
  -25.0064  -33.9765   25.0481 H   0  0  0  0  0  0
  -22.6956  -31.3085   21.4110 H   0  0  0  0  0  0
  -23.3745  -35.9637   23.3295 H   0  0  0  0  0  0
  -24.3591  -36.8922   22.2053 H   0  0  0  0  0  0
  -23.7233  -37.6509   23.6651 H   0  0  0  0  0  0
  -26.0596  -31.5967   20.6048 H   0  0  0  0  0  0
  -26.8231  -30.8754   21.9924 H   0  0  0  0  0  0
  -28.1074  -29.0830   21.1716 H   0  0  0  0  0  0
  -26.0434  -25.9804   18.9864 H   0  0  0  0  0  0
  -23.9808  -27.3048   19.0245 H   0  0  0  0  0  0
  -23.7244  -30.6002   19.4062 H   0  0  0  0  0  0
  -22.7411  -29.2437   19.8703 H   0  0  0  0  0  0
  -25.1272  -36.1965   25.0829 H   0  0  0  0  0  0
  -20.9964  -28.3223   24.1429 H   0  0  0  0  0  0
  -20.5667  -26.2257   23.3607 H   0  0  0  0  0  0
  -21.6635  -26.7429   22.1211 H   0  0  0  0  0  0
  -19.6897  -25.6285   21.1244 H   0  0  0  0  0  0
  -19.6676  -27.3187   20.6744 H   0  0  0  0  0  0
  -17.4188  -26.6683   21.4017 H   0  0  0  0  0  0
  -18.0300  -26.0042   22.9006 H   0  0  0  0  0  0
  -19.7926  -30.7251   24.2298 H   0  0  0  0  0  0
  -17.5001  -31.6269   24.5128 H   0  0  0  0  0  0
  -15.5339  -30.2974   23.7635 H   0  0  0  0  0  0
  -15.8662  -28.0794   22.7079 H   0  0  0  0  0  0
  -24.5889  -30.7061   25.7805 H   0  0  0  0  0  0
  -24.8912  -32.2851   26.4924 H   0  0  0  0  0  0
  -25.8051  -30.8862   27.0226 H   0  0  0  0  0  0
  -26.2870  -29.6790   24.1143 H   0  0  0  0  0  0
  -27.4028  -29.7254   25.4611 H   0  0  0  0  0  0
  -27.8730  -30.4341   23.9331 H   0  0  0  0  0  0
  -27.2684  -33.3594   26.2097 H   0  0  0  0  0  0
  -28.3843  -32.6861   25.0298 H   0  0  0  0  0  0
  -28.0738  -31.8397   26.5379 H   0  0  0  0  0  0
  -28.2581  -38.0117   24.7530 H   0  0  0  0  0  0
  -28.1092  -36.2647   24.6234 H   0  0  0  0  0  0
  -27.2312  -37.1402   25.8864 H   0  0  0  0  0  0
  -20.9294  -29.8758   21.6961 H   0  0  0  0  0  0
  -26.0171  -38.2867   24.1415 H   0  0  0  0  0  0
  -30.0455  -20.4456   18.2107 H   0  0  0  0  0  0
  -29.7737  -18.0597   21.8157 H   0  0  0  0  0  0
  -29.8200  -22.0324   19.4501 H   0  0  0  0  0  0
  -29.6187  -16.0727   16.6227 H   0  0  0  0  0  0
  -29.0709  -15.2265   18.0244 H   0  0  0  0  0  0
  -30.8130  -15.2765   17.6400 H   0  0  0  0  0  0
  -30.2686  -22.3216   23.2109 H   0  0  0  0  0  0
  -30.1882  -24.0724   23.1087 H   0  0  0  0  0  0
  -31.3998  -23.1952   22.1800 H   0  0  0  0  0  0
  -27.8653  -25.3471   21.6943 H   0  0  0  0  0  0
  -27.3306  -24.7923   20.1227 H   0  0  0  0  0  0
  -28.3758  -22.9389   21.7572 H   0  0  0  0  0  0
  -29.8872  -19.3915   16.1477 H   0  0  0  0  0  0
  -29.9832  -17.7152   15.9548 H   0  0  0  0  0  0
  -28.9450  -15.4359   21.0159 H   0  0  0  0  0  0
  1 25  1  0  0  0
  1 30  2  0  0  0
  1 85  1  0  0  0
  2  3  1  0  0  0
  2 25  1  0  0  0
  2 87  1  0  0  0
  2 88  1  0  0  0
  3  4  1  0  0  0
  3 89  1  0  0  0
  3 90  1  0  0  0
  4  5  1  0  0  0
  4 91  1  0  0  0
  4 92  1  0  0  0
  5  6  1  0  0  0
  5 26  1  0  0  0
  5 93  1  0  0  0
  6 25  1  0  0  0
  6 94  1  0  0  0
  6 95  1  0  0  0
  7  8  2  0  0  0
  7 26  1  0  0  0
  7 29  1  0  0  0
  8  9  1  0  0  0
  8 22  1  0  0  0
  9 10  1  0  0  0
  9 27  2  0  0  0
 10 11  2  0  0  0
 10 15  1  0  0  0
 11 12  1  0  0  0
 11 96  1  0  0  0
 12 13  2  0  0  0
 12 97  1  0  0  0
 13 14  1  0  0  0
 13 31  1  0  0  0
 14 15  2  0  0  0
 14 98  1  0  0  0
 15 99  1  0  0  0
 16 17  2  0  0  0
 16 21  1  0  0  0
 16 31  1  0  0  0
 17 18  1  0  0  0
 17100  1  0  0  0
 18 19  2  0  0  0
 18101  1  0  0  0
 19 20  1  0  0  0
 19 24  1  0  0  0
 20 21  2  0  0  0
 20102  1  0  0  0
 21 23  1  0  0  0
 22 28  1  0  0  0
 22 32  2  0  0  0
 26 27  1  0  0  0
 28103  1  0  0  0
 28104  1  0  0  0
 29105  1  0  0  0
 29106  1  0  0  0
 33 34  1  0  0  0
 33 66  1  0  0  0
 33 70  2  0  0  0
 34 36  1  0  0  0
 34 59  1  0  0  0
 34107  1  0  0  0
 35 44  2  0  0  0
 35 45  1  0  0  0
 35 68  1  0  0  0
 36 56  1  0  0  0
 36108  1  0  0  0
 37 39  1  0  0  0
 37 47  1  0  0  0
 37 66  1  0  0  0
 37109  1  0  0  0
 38 43  2  0  0  0
 38 46  1  0  0  0
 38 47  1  0  0  0
 39 64  1  0  0  0
 39 67  2  0  0  0
 40 52  1  0  0  0
 40 53  2  0  0  0
 40 58  1  0  0  0
 41110  1  0  0  0
 41111  1  0  0  0
 41112  1  0  0  0
 41 48  1  0  0  0
 42 43  1  0  0  0
 42 66  1  0  0  0
 42113  1  0  0  0
 42114  1  0  0  0
 43 44  1  0  0  0
 44115  1  0  0  0
 45 46  2  0  0  0
 45116  1  0  0  0
 46117  1  0  0  0
 47118  1  0  0  0
 47119  1  0  0  0
 48 56  1  0  0  0
 48 65  1  0  0  0
 48120  1  0  0  0
 49 50  1  0  0  0
 49 53  1  0  0  0
 49 64  1  0  0  0
 49121  1  0  0  0
 50 51  1  0  0  0
 50122  1  0  0  0
 50123  1  0  0  0
 51 52  1  0  0  0
 51124  1  0  0  0
 51125  1  0  0  0
 52126  1  0  0  0
 52127  1  0  0  0
 53 54  1  0  0  0
 54 55  2  0  0  0
 54128  1  0  0  0
 55 57  1  0  0  0
 55129  1  0  0  0
 56 69  2  0  0  0
 57 58  2  0  0  0
 57130  1  0  0  0
 58131  1  0  0  0
 59 60  1  0  0  0
 59 61  1  0  0  0
 59 62  1  0  0  0
 60132  1  0  0  0
 60133  1  0  0  0
 60134  1  0  0  0
 61135  1  0  0  0
 61136  1  0  0  0
 61137  1  0  0  0
 62138  1  0  0  0
 62139  1  0  0  0
 62140  1  0  0  0
 63 65  1  0  0  0
 63141  1  0  0  0
 63142  1  0  0  0
 63143  1  0  0  0
 64144  1  0  0  0
 65145  1  0  0  0
 68 81  1  0  0  0
 71 74  2  0  0  0
 71 75  1  0  0  0
 71146  1  0  0  0
 72 74  1  0  0  0
 72 76  2  0  0  0
 72147  1  0  0  0
 73 75  2  0  0  0
 73 76  1  0  0  0
 73 79  1  0  0  0
 74 83  1  0  0  0
 75 84  1  0  0  0
 76 85  1  0  0  0
 77 82  1  0  0  0
 77 83  2  0  0  0
 77148  1  0  0  0
 78 81  1  0  0  0
 78 82  1  0  0  0
 78 86  2  0  0  0
 79149  1  0  0  0
 79150  1  0  0  0
 79151  1  0  0  0
 80152  1  0  0  0
 80153  1  0  0  0
 80154  1  0  0  0
 80 82  1  0  0  0
 81155  1  0  0  0
 81156  1  0  0  0
 82157  1  0  0  0
 84158  1  0  0  0
 84159  1  0  0  0
 85160  1  0  0  0
M  ISO  4   1 100  68 101  81 101  85 100
M  END
> <chiral flag>
0

> <version>
0

> <s_m_source_file>
/data/baiqing/PycharmProjects/Reinvent-master-3.2/result/LINK_invent/BTK/process_docking_weight1_custom_product_contain_oxygen_bond_distance_aromatic_linkinvent_7_9_3/rearranged_h_0161.sdf

> <i_m_source_file_index>
70

> <r_mmod_Potential_Energy-OPLS-2005>
45.2302513122559

> <r_mmod_Stretch_Energy-OPLS-2005>
52.1587181091309

> <r_mmod_Bend_Energy-OPLS-2005>
107.537216186523

> <r_mmod_Torsional_Energy-OPLS-2005>
274.658905029297

> <r_mmod_Improper_Torsional_Energy-OPLS-2005>
9.61353874206543

> <r_mmod_Van_der_Waal_Energy-OPLS-2005>
167.478988647461

> <r_mmod_Electrostatic_Energy-OPLS-2005>
-350.714263916016

> <r_mmod_Solvation_Energy-OPLS-2005>
-246.056549072266

> <b_mmod_Minimization_Converged-OPLS-2005>
0

> <r_mmod_RMS_Derivative-OPLS-2005>
2.16911029815674

$$$$
70
                    3D
 Structure written by MMmdl.
161169  0  0  1  0            999 V2000
  -30.6603  -14.5446   20.4921 C   0  0  0  0  0  0
  -30.4286  -12.3325   19.4324 C   0  0  0  0  0  0
  -29.5000  -12.4917   18.2090 C   0  0  0  0  0  0
  -28.0154  -12.3698   18.6121 C   0  0  0  0  0  0
  -27.6567  -13.2118   19.8681 C   0  0  2  0  0  0
  -28.7035  -13.0234   20.9896 C   0  0  0  0  0  0
  -25.2585  -13.8170   20.5656 C   0  0  0  0  0  0
  -24.1836  -13.0452   20.9166 C   0  0  0  0  0  0
  -24.6396  -11.6916   20.8727 C   0  0  0  0  0  0
  -23.9066  -10.4312   21.0392 C   0  0  0  0  0  0
  -24.3632   -9.4227   21.9165 C   0  0  0  0  0  0
  -23.6313   -8.2264   22.0740 C   0  0  0  0  0  0
  -22.4297   -8.0298   21.3536 C   0  0  0  0  0  0
  -21.9922   -9.0259   20.4642 C   0  0  0  0  0  0
  -22.7234  -10.2140   20.3043 C   0  0  0  0  0  0
  -21.6861   -6.0743   22.5277 C   0  0  0  0  0  0
  -21.4024   -6.5644   23.8210 C   0  0  0  0  0  0
  -21.3672   -5.6788   24.9167 C   0  0  0  0  0  0
  -21.6062   -4.3054   24.7210 C   0  0  0  0  0  0
  -21.8832   -3.8154   23.4329 C   0  0  0  0  0  0
  -21.9203   -4.6975   22.3389 C   0  0  0  0  0  0
  -22.7856  -13.5259   21.1816 C   0  0  0  0  0  0
  -22.1651   -4.2162   21.0960 F   0  0  0  0  0  0
  -21.5633   -3.4528   25.7719 F   0  0  0  0  0  0
  -30.0265  -13.3383   20.4307 N   0  0  0  0  0  0
  -26.3012  -12.9342   20.3341 N   0  0  0  0  0  0
  -25.9328  -11.6507   20.5778 N   0  0  0  0  0  0
  -22.0478  -12.8268   22.0381 N   0  0  0  0  0  0
  -25.4353  -15.1877   20.4031 N   0  0  0  0  0  0
  -31.8247  -14.6982   20.1122 O   0  0  0  0  0  0
  -21.6660   -6.8884   21.4240 O   0  0  0  0  0  0
  -22.3550  -14.5553   20.6637 O   0  0  0  0  0  0
  -24.6195  -31.8668   23.2087 C   0  0  0  0  0  0
  -25.9064  -32.4829   23.8406 C   0  0  1  0  0  0
  -27.2214  -27.3784   20.0983 C   0  0  0  0  0  0
  -25.5910  -33.8625   24.2332 N   0  0  0  0  0  0
  -23.4084  -30.4934   21.5516 C   0  0  2  0  0  0
  -24.8513  -28.9618   20.1133 C   0  0  0  0  0  0
  -22.7439  -29.4653   22.4966 C   0  0  0  0  0  0
  -18.0277  -28.1375   22.8494 C   0  0  0  0  0  0
  -24.1478  -36.7315   23.2637 C   0  0  0  0  0  0
  -25.9445  -30.8153   21.3717 C   0  0  0  0  0  0
  -26.0165  -29.4460   20.7183 C   0  0  0  0  0  0
  -27.1990  -28.6602   20.7138 C   0  0  0  0  0  0
  -26.0318  -26.9414   19.4614 C   0  0  0  0  0  0
  -24.8572  -27.7103   19.4846 C   0  0  0  0  0  0
  -23.6180  -29.8351   20.1642 C   0  0  0  0  0  0
  -25.4099  -36.3114   24.0338 C   0  0  1  0  0  0
  -20.5875  -28.3672   23.1301 C   0  0  2  0  0  0
  -20.6761  -26.9402   22.5407 C   0  0  0  0  0  0
  -19.5741  -26.6376   21.5210 C   0  0  0  0  0  0
  -18.1919  -26.7922   22.1622 C   0  0  0  0  0  0
  -19.1528  -28.8842   23.2891 C   0  0  0  0  0  0
  -18.9458  -30.1449   23.8907 C   0  0  0  0  0  0
  -17.6456  -30.6581   24.0565 C   0  0  0  0  0  0
  -25.9036  -34.9480   23.5126 C   0  0  0  0  0  0
  -16.5347  -29.9083   23.6324 C   0  0  0  0  0  0
  -16.7262  -28.6496   23.0350 C   0  0  0  0  0  0
  -26.4473  -31.6626   25.0751 C   0  0  0  0  0  0
  -25.3724  -31.3742   26.1493 C   0  0  0  0  0  0
  -27.0313  -30.3071   24.6157 C   0  0  0  0  0  0
  -27.6042  -32.4356   25.7515 C   0  0  0  0  0  0
  -27.5580  -37.1809   24.8463 C   0  0  0  0  0  0
  -21.4158  -29.3036   22.3703 N   0  0  0  0  0  0
  -26.4287  -37.3804   23.9412 N   0  0  0  0  0  0
  -24.6767  -31.0729   22.1020 N   0  0  0  0  0  0
  -23.4199  -28.8177   23.3000 O   0  0  0  0  0  0
  -28.3757  -26.5972   20.1594 O   0  0  0  0  0  0
  -26.5589  -34.8922   22.4689 O   0  0  0  0  0  0
  -23.5373  -32.1449   23.7455 O   0  0  0  0  0  0
  -30.0513  -18.1251   20.4293 C   0  0  0  0  0  0
  -29.5033  -16.6367   18.5890 C   0  0  0  0  0  0
  -29.8205  -19.0344   18.1508 C   0  0  0  0  0  0
  -29.8250  -16.7987   19.9513 C   0  0  0  0  0  0
  -30.0740  -19.2525   19.5443 C   0  0  0  0  0  0
  -29.5098  -17.7255   17.7034 C   0  0  0  0  0  0
  -29.9938  -20.1057   17.1137 C   0  0  0  0  0  0
  -29.1409  -22.7164   19.8513 C   0  0  0  0  0  0
  -29.0363  -24.1580   20.4867 C   0  0  0  0  0  0
  -28.8477  -21.5916   15.3338 C   0  0  0  0  0  0
  -28.9481  -20.2008   15.9892 C   0  0  0  0  0  0
  -29.5222  -21.4583   20.6918 C   0  0  0  0  0  0
  -28.3627  -25.2459   19.6071 C   0  0  0  0  0  0
  -29.8824  -15.6187   20.7821 N   0  0  0  0  0  0
  -30.4722  -20.5304   20.0254 N   0  0  0  0  0  0
  -30.9328  -20.9115   17.1357 O   0  0  0  0  0  0
  -28.9101  -22.5783   18.6476 O   0  0  0  0  0  0
  -29.4649  -24.4045   21.6221 O   0  0  0  0  0  0
  -29.2701  -17.4651   16.3948 F   0  0  0  0  0  0
  -31.4698  -12.4461   19.1244 H   0  0  0  0  0  0
  -30.3448  -11.3283   19.8505 H   0  0  0  0  0  0
  -29.7396  -11.7375   17.4592 H   0  0  0  0  0  0
  -29.6780  -13.4559   17.7310 H   0  0  0  0  0  0
  -27.8087  -11.3160   18.7982 H   0  0  0  0  0  0
  -27.3797  -12.6561   17.7718 H   0  0  0  0  0  0
  -27.6878  -14.2544   19.5577 H   0  0  0  0  0  0
  -28.6907  -11.9931   21.3465 H   0  0  0  0  0  0
  -28.4719  -13.6406   21.8593 H   0  0  0  0  0  0
  -25.2784   -9.5696   22.4737 H   0  0  0  0  0  0
  -24.0032   -7.4662   22.7453 H   0  0  0  0  0  0
  -21.0848   -8.8760   19.8965 H   0  0  0  0  0  0
  -22.3672  -10.9674   19.6152 H   0  0  0  0  0  0
  -21.2005   -7.6149   23.9708 H   0  0  0  0  0  0
  -21.1476   -6.0509   25.9069 H   0  0  0  0  0  0
  -22.0598   -2.7620   23.2805 H   0  0  0  0  0  0
  -22.4096  -11.9961   22.4823 H   0  0  0  0  0  0
  -21.1086  -13.1278   22.2538 H   0  0  0  0  0  0
  -24.6754  -15.8503   20.5120 H   0  0  0  0  0  0
  -26.2900  -15.6223   20.0796 H   0  0  0  0  0  0
  -26.7132  -32.5518   23.1157 H   0  0  0  0  0  0
  -25.0072  -33.9810   25.0488 H   0  0  0  0  0  0
  -22.6999  -31.3129   21.4147 H   0  0  0  0  0  0
  -23.3745  -35.9645   23.3297 H   0  0  0  0  0  0
  -24.3579  -36.8936   22.2055 H   0  0  0  0  0  0
  -23.7220  -37.6509   23.6664 H   0  0  0  0  0  0
  -26.0614  -31.5774   20.6004 H   0  0  0  0  0  0
  -26.8315  -30.8701   21.9912 H   0  0  0  0  0  0
  -28.0922  -29.0273   21.2017 H   0  0  0  0  0  0
  -25.9488  -26.0086   18.9285 H   0  0  0  0  0  0
  -23.9639  -27.3360   19.0027 H   0  0  0  0  0  0
  -23.7295  -30.6133   19.4081 H   0  0  0  0  0  0
  -22.7399  -29.2606   19.8644 H   0  0  0  0  0  0
  -25.1267  -36.1976   25.0833 H   0  0  0  0  0  0
  -20.9972  -28.3219   24.1423 H   0  0  0  0  0  0
  -20.5653  -26.2280   23.3598 H   0  0  0  0  0  0
  -21.6631  -26.7423   22.1214 H   0  0  0  0  0  0
  -19.6890  -25.6284   21.1250 H   0  0  0  0  0  0
  -19.6677  -27.3175   20.6735 H   0  0  0  0  0  0
  -17.4189  -26.6681   21.4018 H   0  0  0  0  0  0
  -18.0312  -26.0059   22.9016 H   0  0  0  0  0  0
  -19.7931  -30.7258   24.2286 H   0  0  0  0  0  0
  -17.5011  -31.6273   24.5146 H   0  0  0  0  0  0
  -15.5350  -30.2987   23.7645 H   0  0  0  0  0  0
  -15.8665  -28.0816   22.7068 H   0  0  0  0  0  0
  -24.5879  -30.7116   25.7819 H   0  0  0  0  0  0
  -24.8940  -32.2905   26.4966 H   0  0  0  0  0  0
  -25.8060  -30.8882   27.0244 H   0  0  0  0  0  0
  -26.2878  -29.6832   24.1188 H   0  0  0  0  0  0
  -27.4045  -29.7311   25.4631 H   0  0  0  0  0  0
  -27.8727  -30.4387   23.9350 H   0  0  0  0  0  0
  -27.2662  -33.3650   26.2113 H   0  0  0  0  0  0
  -28.3844  -32.6937   25.0340 H   0  0  0  0  0  0
  -28.0731  -31.8479   26.5417 H   0  0  0  0  0  0
  -28.2588  -38.0116   24.7522 H   0  0  0  0  0  0
  -28.1083  -36.2647   24.6263 H   0  0  0  0  0  0
  -27.2311  -37.1428   25.8870 H   0  0  0  0  0  0
  -20.9315  -29.8799   21.6964 H   0  0  0  0  0  0
  -26.0168  -38.2879   24.1425 H   0  0  0  0  0  0
  -30.2837  -18.2694   21.4752 H   0  0  0  0  0  0
  -29.2886  -15.6589   18.1862 H   0  0  0  0  0  0
  -28.1406  -21.5760   14.5048 H   0  0  0  0  0  0
  -29.8084  -21.9204   14.9372 H   0  0  0  0  0  0
  -28.5026  -22.3429   16.0444 H   0  0  0  0  0  0
  -27.9757  -19.9056   16.3833 H   0  0  0  0  0  0
  -29.2109  -19.4774   15.2187 H   0  0  0  0  0  0
  -28.6008  -20.9321   20.9447 H   0  0  0  0  0  0
  -29.9575  -21.7918   21.6337 H   0  0  0  0  0  0
  -27.3667  -24.8441   19.4603 H   0  0  0  0  0  0
  -28.8482  -25.2659   18.6323 H   0  0  0  0  0  0
  -29.0156  -15.3834   21.2426 H   0  0  0  0  0  0
  -30.9705  -21.0506   19.3014 H   0  0  0  0  0  0
  1 25  1  0  0  0
  1 30  2  0  0  0
  1 84  1  0  0  0
  2  3  1  0  0  0
  2 25  1  0  0  0
  2 90  1  0  0  0
  2 91  1  0  0  0
  3  4  1  0  0  0
  3 92  1  0  0  0
  3 93  1  0  0  0
  4  5  1  0  0  0
  4 94  1  0  0  0
  4 95  1  0  0  0
  5  6  1  0  0  0
  5 26  1  0  0  0
  5 96  1  0  0  0
  6 25  1  0  0  0
  6 97  1  0  0  0
  6 98  1  0  0  0
  7  8  2  0  0  0
  7 26  1  0  0  0
  7 29  1  0  0  0
  8  9  1  0  0  0
  8 22  1  0  0  0
  9 10  1  0  0  0
  9 27  2  0  0  0
 10 11  2  0  0  0
 10 15  1  0  0  0
 11 12  1  0  0  0
 11 99  1  0  0  0
 12 13  2  0  0  0
 12100  1  0  0  0
 13 14  1  0  0  0
 13 31  1  0  0  0
 14 15  2  0  0  0
 14101  1  0  0  0
 15102  1  0  0  0
 16 17  2  0  0  0
 16 21  1  0  0  0
 16 31  1  0  0  0
 17 18  1  0  0  0
 17103  1  0  0  0
 18 19  2  0  0  0
 18104  1  0  0  0
 19 20  1  0  0  0
 19 24  1  0  0  0
 20 21  2  0  0  0
 20105  1  0  0  0
 21 23  1  0  0  0
 22 28  1  0  0  0
 22 32  2  0  0  0
 26 27  1  0  0  0
 28106  1  0  0  0
 28107  1  0  0  0
 29108  1  0  0  0
 29109  1  0  0  0
 33 34  1  0  0  0
 33 66  1  0  0  0
 33 70  2  0  0  0
 34 36  1  0  0  0
 34 59  1  0  0  0
 34110  1  0  0  0
 35 44  2  0  0  0
 35 45  1  0  0  0
 35 68  1  0  0  0
 36 56  1  0  0  0
 36111  1  0  0  0
 37 39  1  0  0  0
 37 47  1  0  0  0
 37 66  1  0  0  0
 37112  1  0  0  0
 38 43  2  0  0  0
 38 46  1  0  0  0
 38 47  1  0  0  0
 39 64  1  0  0  0
 39 67  2  0  0  0
 40 52  1  0  0  0
 40 53  2  0  0  0
 40 58  1  0  0  0
 41113  1  0  0  0
 41114  1  0  0  0
 41115  1  0  0  0
 41 48  1  0  0  0
 42 43  1  0  0  0
 42 66  1  0  0  0
 42116  1  0  0  0
 42117  1  0  0  0
 43 44  1  0  0  0
 44118  1  0  0  0
 45 46  2  0  0  0
 45119  1  0  0  0
 46120  1  0  0  0
 47121  1  0  0  0
 47122  1  0  0  0
 48 56  1  0  0  0
 48 65  1  0  0  0
 48123  1  0  0  0
 49 50  1  0  0  0
 49 53  1  0  0  0
 49 64  1  0  0  0
 49124  1  0  0  0
 50 51  1  0  0  0
 50125  1  0  0  0
 50126  1  0  0  0
 51 52  1  0  0  0
 51127  1  0  0  0
 51128  1  0  0  0
 52129  1  0  0  0
 52130  1  0  0  0
 53 54  1  0  0  0
 54 55  2  0  0  0
 54131  1  0  0  0
 55 57  1  0  0  0
 55132  1  0  0  0
 56 69  2  0  0  0
 57 58  2  0  0  0
 57133  1  0  0  0
 58134  1  0  0  0
 59 60  1  0  0  0
 59 61  1  0  0  0
 59 62  1  0  0  0
 60135  1  0  0  0
 60136  1  0  0  0
 60137  1  0  0  0
 61138  1  0  0  0
 61139  1  0  0  0
 61140  1  0  0  0
 62141  1  0  0  0
 62142  1  0  0  0
 62143  1  0  0  0
 63 65  1  0  0  0
 63144  1  0  0  0
 63145  1  0  0  0
 63146  1  0  0  0
 64147  1  0  0  0
 65148  1  0  0  0
 68 83  1  0  0  0
 71 74  2  0  0  0
 71 75  1  0  0  0
 71149  1  0  0  0
 72 74  1  0  0  0
 72 76  2  0  0  0
 72150  1  0  0  0
 73 75  2  0  0  0
 73 76  1  0  0  0
 73 77  1  0  0  0
 74 84  1  0  0  0
 75 85  1  0  0  0
 76 89  1  0  0  0
 77 81  1  0  0  0
 77 86  2  0  0  0
 78 79  1  0  0  0
 78 82  1  0  0  0
 78 87  2  0  0  0
 79 83  1  0  0  0
 79 88  2  0  0  0
 80 81  1  0  0  0
 80151  1  0  0  0
 80152  1  0  0  0
 80153  1  0  0  0
 81154  1  0  0  0
 81155  1  0  0  0
 82 85  1  0  0  0
 82156  1  0  0  0
 82157  1  0  0  0
 83158  1  0  0  0
 83159  1  0  0  0
 84160  1  0  0  0
 85161  1  0  0  0
M  ISO  4   1 100  68 101  83 101  84 100
M  END
> <chiral flag>
0

> <version>
0

> <s_m_source_file>
/data/baiqing/PycharmProjects/Reinvent-master-3.2/result/LINK_invent/BTK/process_docking_weight1_custom_product_contain_oxygen_bond_distance_aromatic_linkinvent_7_9_3/rearranged_h_0161.sdf

> <i_m_source_file_index>
71

> <r_mmod_Potential_Energy-OPLS-2005>
291.407806396484

> <r_mmod_Stretch_Energy-OPLS-2005>
59.4103393554688

> <r_mmod_Bend_Energy-OPLS-2005>
123.508155822754

> <r_mmod_Torsional_Energy-OPLS-2005>
303.385864257812

> <r_mmod_Improper_Torsional_Energy-OPLS-2005>
13.4648265838623

> <r_mmod_Van_der_Waal_Energy-OPLS-2005>
152.776351928711

> <r_mmod_Electrostatic_Energy-OPLS-2005>
-137.906341552734

> <r_mmod_Solvation_Energy-OPLS-2005>
-249.518966674805

> <b_mmod_Minimization_Converged-OPLS-2005>
0

> <r_mmod_RMS_Derivative-OPLS-2005>
2.62188601493835

$$$$
71
                    3D
 Structure written by MMmdl.
156164  0  0  1  0            999 V2000
  -30.6182  -14.7315   20.4434 C   0  0  0  0  0  0
  -30.4307  -12.4412   19.4842 C   0  0  0  0  0  0
  -29.5124  -12.4938   18.2438 C   0  0  0  0  0  0
  -28.0379  -12.3202   18.6531 C   0  0  0  0  0  0
  -27.6418  -13.2273   19.8467 C   0  0  2  0  0  0
  -28.6836  -13.1640   20.9866 C   0  0  0  0  0  0
  -25.2507  -13.8195   20.5683 C   0  0  0  0  0  0
  -24.1795  -13.0447   20.9200 C   0  0  0  0  0  0
  -24.6370  -11.6909   20.8740 C   0  0  0  0  0  0
  -23.9041  -10.4294   21.0396 C   0  0  0  0  0  0
  -24.3594   -9.4208   21.9176 C   0  0  0  0  0  0
  -23.6263   -8.2241   22.0750 C   0  0  0  0  0  0
  -22.4261   -8.0265   21.3529 C   0  0  0  0  0  0
  -21.9901   -9.0232   20.4641 C   0  0  0  0  0  0
  -22.7216  -10.2115   20.3039 C   0  0  0  0  0  0
  -21.6873   -6.0709   22.5278 C   0  0  0  0  0  0
  -21.4008   -6.5617   23.8201 C   0  0  0  0  0  0
  -21.3652   -5.6782   24.9169 C   0  0  0  0  0  0
  -21.6071   -4.3052   24.7250 C   0  0  0  0  0  0
  -21.8808   -3.8121   23.4376 C   0  0  0  0  0  0
  -21.9187   -4.6930   22.3416 C   0  0  0  0  0  0
  -22.7819  -13.5227   21.1858 C   0  0  0  0  0  0
  -22.1665   -4.2117   21.0993 F   0  0  0  0  0  0
  -21.5628   -3.4535   25.7763 F   0  0  0  0  0  0
  -29.9926  -13.5054   20.4157 N   0  0  0  0  0  0
  -26.2928  -12.9384   20.3248 N   0  0  0  0  0  0
  -25.9301  -11.6536   20.5728 N   0  0  0  0  0  0
  -22.0473  -12.8191   22.0416 N   0  0  0  0  0  0
  -25.4202  -15.1926   20.4128 N   0  0  0  0  0  0
  -31.8015  -14.8174   20.1012 O   0  0  0  0  0  0
  -21.6627   -6.8853   21.4235 O   0  0  0  0  0  0
  -22.3512  -14.5560   20.6741 O   0  0  0  0  0  0
  -24.6303  -31.8499   23.2007 C   0  0  0  0  0  0
  -25.9139  -32.4714   23.8327 C   0  0  1  0  0  0
  -27.2151  -27.2629   20.1274 C   0  0  0  0  0  0
  -25.5944  -33.8515   24.2207 N   0  0  0  0  0  0
  -23.4293  -30.4690   21.5488 C   0  0  2  0  0  0
  -24.8778  -28.9360   20.0971 C   0  0  0  0  0  0
  -22.7539  -29.4471   22.4959 C   0  0  0  0  0  0
  -18.0275  -28.1373   22.8438 C   0  0  0  0  0  0
  -24.1498  -36.7263   23.2641 C   0  0  0  0  0  0
  -25.9757  -30.7649   21.3862 C   0  0  0  0  0  0
  -26.0462  -29.3947   20.7165 C   0  0  0  0  0  0
  -27.2139  -28.5678   20.7316 C   0  0  0  0  0  0
  -26.0496  -26.9091   19.4129 C   0  0  0  0  0  0
  -24.8860  -27.7000   19.4320 C   0  0  0  0  0  0
  -23.6449  -29.8122   20.1606 C   0  0  0  0  0  0
  -25.4109  -36.3046   24.0333 C   0  0  1  0  0  0
  -20.5892  -28.3617   23.1320 C   0  0  2  0  0  0
  -20.6772  -26.9341   22.5428 C   0  0  0  0  0  0
  -19.5745  -26.6339   21.5233 C   0  0  0  0  0  0
  -18.1906  -26.7877   22.1621 C   0  0  0  0  0  0
  -19.1529  -28.8810   23.2860 C   0  0  0  0  0  0
  -18.9465  -30.1421   23.8838 C   0  0  0  0  0  0
  -17.6462  -30.6554   24.0519 C   0  0  0  0  0  0
  -25.9068  -34.9421   23.5071 C   0  0  0  0  0  0
  -16.5340  -29.9012   23.6362 C   0  0  0  0  0  0
  -16.7268  -28.6470   23.0307 C   0  0  0  0  0  0
  -26.4539  -31.6530   25.0710 C   0  0  0  0  0  0
  -25.3751  -31.3714   26.1438 C   0  0  0  0  0  0
  -27.0393  -30.2940   24.6170 C   0  0  0  0  0  0
  -27.6052  -32.4332   25.7488 C   0  0  0  0  0  0
  -27.5577  -37.1757   24.8472 C   0  0  0  0  0  0
  -21.4238  -29.2960   22.3743 N   0  0  0  0  0  0
  -26.4286  -37.3749   23.9438 N   0  0  0  0  0  0
  -24.6983  -31.0447   22.1009 N   0  0  0  0  0  0
  -23.4245  -28.7972   23.3020 O   0  0  0  0  0  0
  -28.2805  -26.3430   20.2692 O   0  0  0  0  0  0
  -26.5625  -34.8923   22.4640 O   0  0  0  0  0  0
  -23.5461  -32.1334   23.7271 O   0  0  0  0  0  0
  -30.6813  -17.4098   18.8936 C   0  0  0  0  0  0
  -30.8790  -18.6785   18.3187 C   0  0  0  0  0  0
  -29.6148  -18.4861   20.7995 C   0  0  0  0  0  0
  -29.8207  -19.8187   20.2295 C   0  0  0  0  0  0
  -30.0628  -17.2528   20.1571 C   0  0  0  0  0  0
  -30.4700  -19.8577   18.9715 C   0  0  0  0  0  0
  -29.4881  -21.1586   20.9118 C   0  0  0  0  0  0
  -26.7906  -24.4078   20.9732 C   0  0  0  0  0  0
  -29.2167  -23.8405   20.7243 C   0  0  0  0  0  0
  -28.0580  -24.8433   20.1993 C   0  0  2  0  0  0
  -29.5260  -21.1990   22.2453 N   0  0  0  0  0  0
  -29.8648  -15.8738   20.6824 N   0  0  0  0  0  0
  -29.2075  -22.3600   20.2713 N   0  3  0  0  0  0
  -30.7336  -21.0424   18.3646 F   0  0  0  0  0  0
  -31.4734  -12.5575   19.1841 H   0  0  0  0  0  0
  -30.3711  -11.4678   19.9706 H   0  0  0  0  0  0
  -29.7962  -11.7172   17.5317 H   0  0  0  0  0  0
  -29.6378  -13.4439   17.7260 H   0  0  0  0  0  0
  -27.8985  -11.2764   18.9261 H   0  0  0  0  0  0
  -27.3821  -12.4953   17.8020 H   0  0  0  0  0  0
  -27.6359  -14.2451   19.4600 H   0  0  0  0  0  0
  -28.7081  -12.1671   21.4272 H   0  0  0  0  0  0
  -28.4155  -13.8440   21.7938 H   0  0  0  0  0  0
  -25.2738   -9.5714   22.4760 H   0  0  0  0  0  0
  -23.9991   -7.4648   22.7486 H   0  0  0  0  0  0
  -21.0831   -8.8755   19.8944 H   0  0  0  0  0  0
  -22.3682  -10.9647   19.6149 H   0  0  0  0  0  0
  -21.1990   -7.6128   23.9712 H   0  0  0  0  0  0
  -21.1491   -6.0507   25.9079 H   0  0  0  0  0  0
  -22.0594   -2.7584   23.2892 H   0  0  0  0  0  0
  -22.4070  -11.9816   22.4765 H   0  0  0  0  0  0
  -21.1087  -13.1210   22.2633 H   0  0  0  0  0  0
  -24.6478  -15.8425   20.5082 H   0  0  0  0  0  0
  -26.2656  -15.6324   20.0725 H   0  0  0  0  0  0
  -26.7159  -32.5356   23.1042 H   0  0  0  0  0  0
  -25.0201  -33.9650   25.0423 H   0  0  0  0  0  0
  -22.7262  -31.2897   21.4011 H   0  0  0  0  0  0
  -23.3796  -35.9586   23.3301 H   0  0  0  0  0  0
  -24.3596  -36.8887   22.2071 H   0  0  0  0  0  0
  -23.7249  -37.6456   23.6665 H   0  0  0  0  0  0
  -26.1184  -31.5333   20.6257 H   0  0  0  0  0  0
  -26.8485  -30.8036   22.0230 H   0  0  0  0  0  0
  -28.0972  -28.8933   21.2639 H   0  0  0  0  0  0
  -26.0091  -25.9837   18.8520 H   0  0  0  0  0  0
  -24.0002  -27.3541   18.9189 H   0  0  0  0  0  0
  -23.7617  -30.5932   19.4074 H   0  0  0  0  0  0
  -22.7640  -29.2386   19.8608 H   0  0  0  0  0  0
  -25.1299  -36.1894   25.0830 H   0  0  0  0  0  0
  -20.9920  -28.3145   24.1472 H   0  0  0  0  0  0
  -20.5739  -26.2182   23.3623 H   0  0  0  0  0  0
  -21.6611  -26.7396   22.1144 H   0  0  0  0  0  0
  -19.6958  -25.6271   21.1201 H   0  0  0  0  0  0
  -19.6698  -27.3200   20.6824 H   0  0  0  0  0  0
  -17.4199  -26.6663   21.3997 H   0  0  0  0  0  0
  -18.0214  -26.0030   22.9024 H   0  0  0  0  0  0
  -19.7963  -30.7233   24.2156 H   0  0  0  0  0  0
  -17.5025  -31.6239   24.5114 H   0  0  0  0  0  0
  -15.5323  -30.2874   23.7764 H   0  0  0  0  0  0
  -15.8680  -28.0800   22.7000 H   0  0  0  0  0  0
  -24.5983  -30.6988   25.7785 H   0  0  0  0  0  0
  -24.8910  -32.2898   26.4742 H   0  0  0  0  0  0
  -25.8084  -30.8997   27.0253 H   0  0  0  0  0  0
  -26.2955  -29.6684   24.1215 H   0  0  0  0  0  0
  -27.4137  -29.7222   25.4668 H   0  0  0  0  0  0
  -27.8821  -30.4255   23.9384 H   0  0  0  0  0  0
  -27.2615  -33.3687   26.1930 H   0  0  0  0  0  0
  -28.3933  -32.6779   25.0341 H   0  0  0  0  0  0
  -28.0640  -31.8546   26.5523 H   0  0  0  0  0  0
  -28.2538  -38.0084   24.7507 H   0  0  0  0  0  0
  -28.1107  -36.2607   24.6296 H   0  0  0  0  0  0
  -27.2288  -37.1403   25.8864 H   0  0  0  0  0  0
  -20.9457  -29.8670   21.6926 H   0  0  0  0  0  0
  -26.0184  -38.2843   24.1412 H   0  0  0  0  0  0
  -31.0243  -16.5527   18.3311 H   0  0  0  0  0  0
  -31.3742  -18.7515   17.3611 H   0  0  0  0  0  0
  -29.1347  -18.4182   21.7650 H   0  0  0  0  0  0
  -26.8153  -23.3427   21.1970 H   0  0  0  0  0  0
  -25.8700  -24.5510   20.4093 H   0  0  0  0  0  0
  -26.7008  -24.9357   21.9214 H   0  0  0  0  0  0
  -29.2448  -23.8755   21.8147 H   0  0  0  0  0  0
  -30.1781  -24.2493   20.4112 H   0  0  0  0  0  0
  -27.9131  -24.6187   19.1411 H   0  0  0  0  0  0
  -29.8781  -20.3985   22.7493 H   0  0  0  0  0  0
  -29.1679  -21.9739   22.7788 H   0  0  0  0  0  0
  -28.9776  -15.7076   21.1332 H   0  0  0  0  0  0
  -29.2500  -22.2691   19.2615 H   0  0  0  0  0  0
  1 25  1  0  0  0
  1 30  2  0  0  0
  1 82  1  0  0  0
  2  3  1  0  0  0
  2 25  1  0  0  0
  2 85  1  0  0  0
  2 86  1  0  0  0
  3  4  1  0  0  0
  3 87  1  0  0  0
  3 88  1  0  0  0
  4  5  1  0  0  0
  4 89  1  0  0  0
  4 90  1  0  0  0
  5  6  1  0  0  0
  5 26  1  0  0  0
  5 91  1  0  0  0
  6 25  1  0  0  0
  6 92  1  0  0  0
  6 93  1  0  0  0
  7  8  2  0  0  0
  7 26  1  0  0  0
  7 29  1  0  0  0
  8  9  1  0  0  0
  8 22  1  0  0  0
  9 10  1  0  0  0
  9 27  2  0  0  0
 10 11  2  0  0  0
 10 15  1  0  0  0
 11 12  1  0  0  0
 11 94  1  0  0  0
 12 13  2  0  0  0
 12 95  1  0  0  0
 13 14  1  0  0  0
 13 31  1  0  0  0
 14 15  2  0  0  0
 14 96  1  0  0  0
 15 97  1  0  0  0
 16 17  2  0  0  0
 16 21  1  0  0  0
 16 31  1  0  0  0
 17 18  1  0  0  0
 17 98  1  0  0  0
 18 19  2  0  0  0
 18 99  1  0  0  0
 19 20  1  0  0  0
 19 24  1  0  0  0
 20 21  2  0  0  0
 20100  1  0  0  0
 21 23  1  0  0  0
 22 28  1  0  0  0
 22 32  2  0  0  0
 26 27  1  0  0  0
 28101  1  0  0  0
 28102  1  0  0  0
 29103  1  0  0  0
 29104  1  0  0  0
 33 34  1  0  0  0
 33 66  1  0  0  0
 33 70  2  0  0  0
 34 36  1  0  0  0
 34 59  1  0  0  0
 34105  1  0  0  0
 35 44  2  0  0  0
 35 45  1  0  0  0
 35 68  1  0  0  0
 36 56  1  0  0  0
 36106  1  0  0  0
 37 39  1  0  0  0
 37 47  1  0  0  0
 37 66  1  0  0  0
 37107  1  0  0  0
 38 43  2  0  0  0
 38 46  1  0  0  0
 38 47  1  0  0  0
 39 64  1  0  0  0
 39 67  2  0  0  0
 40 52  1  0  0  0
 40 53  2  0  0  0
 40 58  1  0  0  0
 41108  1  0  0  0
 41109  1  0  0  0
 41110  1  0  0  0
 41 48  1  0  0  0
 42 43  1  0  0  0
 42 66  1  0  0  0
 42111  1  0  0  0
 42112  1  0  0  0
 43 44  1  0  0  0
 44113  1  0  0  0
 45 46  2  0  0  0
 45114  1  0  0  0
 46115  1  0  0  0
 47116  1  0  0  0
 47117  1  0  0  0
 48 56  1  0  0  0
 48 65  1  0  0  0
 48118  1  0  0  0
 49 50  1  0  0  0
 49 53  1  0  0  0
 49 64  1  0  0  0
 49119  1  0  0  0
 50 51  1  0  0  0
 50120  1  0  0  0
 50121  1  0  0  0
 51 52  1  0  0  0
 51122  1  0  0  0
 51123  1  0  0  0
 52124  1  0  0  0
 52125  1  0  0  0
 53 54  1  0  0  0
 54 55  2  0  0  0
 54126  1  0  0  0
 55 57  1  0  0  0
 55127  1  0  0  0
 56 69  2  0  0  0
 57 58  2  0  0  0
 57128  1  0  0  0
 58129  1  0  0  0
 59 60  1  0  0  0
 59 61  1  0  0  0
 59 62  1  0  0  0
 60130  1  0  0  0
 60131  1  0  0  0
 60132  1  0  0  0
 61133  1  0  0  0
 61134  1  0  0  0
 61135  1  0  0  0
 62136  1  0  0  0
 62137  1  0  0  0
 62138  1  0  0  0
 63 65  1  0  0  0
 63139  1  0  0  0
 63140  1  0  0  0
 63141  1  0  0  0
 64142  1  0  0  0
 65143  1  0  0  0
 68 80  1  0  0  0
 71 72  2  0  0  0
 71 75  1  0  0  0
 71144  1  0  0  0
 72 76  1  0  0  0
 72145  1  0  0  0
 73 74  1  0  0  0
 73 75  2  0  0  0
 73146  1  0  0  0
 74 76  2  0  0  0
 74 77  1  0  0  0
 75 82  1  0  0  0
 76 84  1  0  0  0
 77 81  1  0  0  0
 77 83  2  0  0  0
 78147  1  0  0  0
 78148  1  0  0  0
 78149  1  0  0  0
 78 80  1  0  0  0
 79 80  1  0  0  0
 79 83  1  0  0  0
 79150  1  0  0  0
 79151  1  0  0  0
 80152  1  0  0  0
 81153  1  0  0  0
 81154  1  0  0  0
 82155  1  0  0  0
 83156  1  0  0  0
M  CHG  1  83   1
M  ISO  4   1 100  68 101  80 101  82 100
M  END
> <chiral flag>
0

> <version>
0

> <s_m_source_file>
/data/baiqing/PycharmProjects/Reinvent-master-3.2/result/LINK_invent/BTK/process_docking_weight1_custom_product_contain_oxygen_bond_distance_aromatic_linkinvent_7_9_3/rearranged_h_0161.sdf

> <i_m_source_file_index>
72

> <r_mmod_Potential_Energy-OPLS-2005>
-70.3593826293945

> <r_mmod_Stretch_Energy-OPLS-2005>
127.151428222656

> <r_mmod_Bend_Energy-OPLS-2005>
157.958160400391

> <r_mmod_Torsional_Energy-OPLS-2005>
243.244659423828

> <r_mmod_Improper_Torsional_Energy-OPLS-2005>
5.67808723449707

> <r_mmod_Van_der_Waal_Energy-OPLS-2005>
151.67854309082

> <r_mmod_Electrostatic_Energy-OPLS-2005>
-426.890625

> <r_mmod_Solvation_Energy-OPLS-2005>
-418.748382568359

> <b_mmod_Minimization_Converged-OPLS-2005>
0

> <r_mmod_RMS_Derivative-OPLS-2005>
5.69037771224976

$$$$
72
                    3D
 Structure written by MMmdl.
165174  0  0  1  0            999 V2000
  -30.6914  -14.5783   20.5361 C   0  0  0  0  0  0
  -30.4244  -12.3613   19.4572 C   0  0  0  0  0  0
  -29.5029  -12.5184   18.2287 C   0  0  0  0  0  0
  -28.0286  -12.3545   18.6413 C   0  0  0  0  0  0
  -27.6592  -13.2203   19.8756 C   0  0  2  0  0  0
  -28.7033  -13.0711   21.0078 C   0  0  0  0  0  0
  -25.2565  -13.8183   20.5689 C   0  0  0  0  0  0
  -24.1826  -13.0436   20.9166 C   0  0  0  0  0  0
  -24.6411  -11.6918   20.8729 C   0  0  0  0  0  0
  -23.9072  -10.4294   21.0394 C   0  0  0  0  0  0
  -24.3615   -9.4211   21.9178 C   0  0  0  0  0  0
  -23.6282   -8.2252   22.0762 C   0  0  0  0  0  0
  -22.4267   -8.0283   21.3549 C   0  0  0  0  0  0
  -21.9906   -9.0254   20.4649 C   0  0  0  0  0  0
  -22.7237  -10.2133   20.3050 C   0  0  0  0  0  0
  -21.6851   -6.0723   22.5271 C   0  0  0  0  0  0
  -21.4018   -6.5627   23.8204 C   0  0  0  0  0  0
  -21.3661   -5.6783   24.9167 C   0  0  0  0  0  0
  -21.6048   -4.3049   24.7222 C   0  0  0  0  0  0
  -21.8819   -3.8140   23.4345 C   0  0  0  0  0  0
  -21.9194   -4.6952   22.3398 C   0  0  0  0  0  0
  -22.7847  -13.5234   21.1824 C   0  0  0  0  0  0
  -22.1654   -4.2134   21.0976 F   0  0  0  0  0  0
  -21.5637   -3.4536   25.7742 F   0  0  0  0  0  0
  -30.0302  -13.3814   20.4516 N   0  0  0  0  0  0
  -26.3024  -12.9385   20.3403 N   0  0  0  0  0  0
  -25.9351  -11.6534   20.5794 N   0  0  0  0  0  0
  -22.0491  -12.8224   22.0383 N   0  0  0  0  0  0
  -25.4256  -15.1905   20.4110 N   0  0  0  0  0  0
  -31.8240  -14.7140   20.0632 O   0  0  0  0  0  0
  -21.6637   -6.8870   21.4236 O   0  0  0  0  0  0
  -22.3534  -14.5544   20.6684 O   0  0  0  0  0  0
  -24.6250  -31.8613   23.2069 C   0  0  0  0  0  0
  -25.9114  -32.4781   23.8389 C   0  0  1  0  0  0
  -27.2251  -27.3415   20.1044 C   0  0  0  0  0  0
  -25.5935  -33.8577   24.2309 N   0  0  0  0  0  0
  -23.4162  -30.4855   21.5530 C   0  0  2  0  0  0
  -24.8598  -28.9503   20.1125 C   0  0  0  0  0  0
  -22.7476  -29.4614   22.4999 C   0  0  0  0  0  0
  -18.0270  -28.1357   22.8470 C   0  0  0  0  0  0
  -24.1475  -36.7293   23.2635 C   0  0  0  0  0  0
  -25.9571  -30.7967   21.3787 C   0  0  0  0  0  0
  -26.0286  -29.4265   20.7212 C   0  0  0  0  0  0
  -27.2087  -28.6287   20.7196 C   0  0  0  0  0  0
  -26.0307  -26.9217   19.4875 C   0  0  0  0  0  0
  -24.8597  -27.6955   19.4920 C   0  0  0  0  0  0
  -23.6274  -29.8267   20.1649 C   0  0  0  0  0  0
  -25.4104  -36.3080   24.0324 C   0  0  1  0  0  0
  -20.5869  -28.3658   23.1286 C   0  0  2  0  0  0
  -20.6774  -26.9389   22.5398 C   0  0  0  0  0  0
  -19.5754  -26.6369   21.5197 C   0  0  0  0  0  0
  -18.1922  -26.7900   22.1601 C   0  0  0  0  0  0
  -19.1524  -28.8833   23.2855 C   0  0  0  0  0  0
  -18.9454  -30.1437   23.8864 C   0  0  0  0  0  0
  -17.6456  -30.6562   24.0555 C   0  0  0  0  0  0
  -25.9051  -34.9448   23.5115 C   0  0  0  0  0  0
  -16.5344  -29.9066   23.6325 C   0  0  0  0  0  0
  -16.7256  -28.6486   23.0335 C   0  0  0  0  0  0
  -26.4494  -31.6583   25.0756 C   0  0  0  0  0  0
  -25.3732  -31.3716   26.1491 C   0  0  0  0  0  0
  -27.0371  -30.3017   24.6217 C   0  0  0  0  0  0
  -27.6036  -32.4342   25.7538 C   0  0  0  0  0  0
  -27.5563  -37.1803   24.8461 C   0  0  0  0  0  0
  -21.4195  -29.3005   22.3713 N   0  0  0  0  0  0
  -26.4277  -37.3784   23.9410 N   0  0  0  0  0  0
  -24.6849  -31.0636   22.1025 N   0  0  0  0  0  0
  -23.4198  -28.8154   23.3080 O   0  0  0  0  0  0
  -28.3466  -26.5035   20.1702 O   0  0  0  0  0  0
  -26.5618  -34.8906   22.4684 O   0  0  0  0  0  0
  -23.5423  -32.1428   23.7404 O   0  0  0  0  0  0
  -29.7948  -18.0370   21.5967 C   0  0  0  0  0  0
  -30.2388  -19.2194   20.8978 C   0  0  0  0  0  0
  -30.2248  -16.9706   20.8316 C   0  0  0  0  0  0
  -27.2151  -23.1751   19.0796 C   0  0  0  0  0  0
  -28.2532  -23.8887   19.6053 C   0  0  0  0  0  0
  -26.2303  -23.6987   18.1114 C   0  0  0  0  0  0
  -27.0310  -21.6839   19.3124 C   0  0  0  0  0  0
  -29.3453  -23.0954   20.4106 C   0  0  0  0  0  0
  -28.3553  -20.9672   19.5459 C   0  0  0  0  0  0
  -24.7561  -23.5587   18.4717 C   0  0  0  0  0  0
  -31.5888  -21.3492   21.2497 C   0  0  0  0  0  0
  -28.5643  -25.3964   19.2243 C   0  0  0  0  0  0
  -30.1700  -20.7342   21.2894 C   0  0  1  0  0  0
  -30.8200  -18.8495   19.7549 N   0  0  0  0  0  0
  -30.0231  -15.6314   21.0817 N   0  0  0  0  0  0
  -29.0852  -21.6063   20.6590 N   0  3  1  0  0  0
  -26.5381  -24.2011   17.0304 O   0  0  0  0  0  0
  -30.8382  -17.4425   19.7130 O   0  0  0  0  0  0
  -31.4698  -12.4494   19.1586 H   0  0  0  0  0  0
  -30.3219  -11.3625   19.8845 H   0  0  0  0  0  0
  -29.7610  -11.7856   17.4627 H   0  0  0  0  0  0
  -29.6501  -13.5001   17.7763 H   0  0  0  0  0  0
  -27.8642  -11.3005   18.8663 H   0  0  0  0  0  0
  -27.3706  -12.5915   17.8037 H   0  0  0  0  0  0
  -27.6831  -14.2581   19.5437 H   0  0  0  0  0  0
  -28.6972  -12.0556   21.4068 H   0  0  0  0  0  0
  -28.4532  -13.7174   21.8500 H   0  0  0  0  0  0
  -25.2766   -9.5682   22.4746 H   0  0  0  0  0  0
  -23.9978   -7.4656   22.7505 H   0  0  0  0  0  0
  -21.0828   -8.8784   19.8958 H   0  0  0  0  0  0
  -22.3701  -10.9671   19.6153 H   0  0  0  0  0  0
  -21.2006   -7.6139   23.9700 H   0  0  0  0  0  0
  -21.1482   -6.0518   25.9069 H   0  0  0  0  0  0
  -22.0600   -2.7597   23.2855 H   0  0  0  0  0  0
  -22.4095  -11.9861   22.4738 H   0  0  0  0  0  0
  -21.1131  -13.1283   22.2630 H   0  0  0  0  0  0
  -24.6540  -15.8411   20.5096 H   0  0  0  0  0  0
  -26.2805  -15.6367   20.1011 H   0  0  0  0  0  0
  -26.7199  -32.5457   23.1155 H   0  0  0  0  0  0
  -25.0064  -33.9732   25.0443 H   0  0  0  0  0  0
  -22.7063  -31.3030   21.4145 H   0  0  0  0  0  0
  -23.3726  -35.9625   23.3301 H   0  0  0  0  0  0
  -24.3570  -36.8941   22.2048 H   0  0  0  0  0  0
  -23.7241  -37.6497   23.6678 H   0  0  0  0  0  0
  -26.0861  -31.5634   20.6137 H   0  0  0  0  0  0
  -26.8378  -30.8424   22.0077 H   0  0  0  0  0  0
  -28.1036  -28.9903   21.2060 H   0  0  0  0  0  0
  -25.9660  -25.9698   19.0190 H   0  0  0  0  0  0
  -23.9637  -27.3155   19.0204 H   0  0  0  0  0  0
  -23.7443  -30.6085   19.4131 H   0  0  0  0  0  0
  -22.7485  -29.2537   19.8623 H   0  0  0  0  0  0
  -25.1285  -36.1939   25.0814 H   0  0  0  0  0  0
  -20.9892  -28.3217   24.1438 H   0  0  0  0  0  0
  -20.5689  -26.2263   23.3585 H   0  0  0  0  0  0
  -21.6647  -26.7430   22.1184 H   0  0  0  0  0  0
  -19.6928  -25.6282   21.1230 H   0  0  0  0  0  0
  -19.6705  -27.3187   20.6727 H   0  0  0  0  0  0
  -17.4193  -26.6624   21.4003 H   0  0  0  0  0  0
  -18.0321  -26.0040   22.8994 H   0  0  0  0  0  0
  -19.7938  -30.7248   24.2219 H   0  0  0  0  0  0
  -17.5022  -31.6241   24.5157 H   0  0  0  0  0  0
  -15.5356  -30.2960   23.7675 H   0  0  0  0  0  0
  -15.8649  -28.0819   22.7042 H   0  0  0  0  0  0
  -24.5870  -30.7102   25.7835 H   0  0  0  0  0  0
  -24.8935  -32.2870   26.4943 H   0  0  0  0  0  0
  -25.8031  -30.8871   27.0262 H   0  0  0  0  0  0
  -26.2971  -29.6762   24.1207 H   0  0  0  0  0  0
  -27.4065  -29.7266   25.4718 H   0  0  0  0  0  0
  -27.8826  -30.4327   23.9461 H   0  0  0  0  0  0
  -27.2621  -33.3657   26.2060 H   0  0  0  0  0  0
  -28.3858  -32.6896   25.0381 H   0  0  0  0  0  0
  -28.0686  -31.8520   26.5510 H   0  0  0  0  0  0
  -28.2563  -38.0108   24.7512 H   0  0  0  0  0  0
  -28.1073  -36.2641   24.6280 H   0  0  0  0  0  0
  -27.2280  -37.1454   25.8862 H   0  0  0  0  0  0
  -20.9390  -29.8748   21.6930 H   0  0  0  0  0  0
  -26.0150  -38.2848   24.1432 H   0  0  0  0  0  0
  -29.2725  -17.9894   22.5411 H   0  0  0  0  0  0
  -26.5406  -21.2093   18.4587 H   0  0  0  0  0  0
  -26.3608  -21.5450   20.1621 H   0  0  0  0  0  0
  -29.5205  -23.6054   21.3586 H   0  0  0  0  0  0
  -30.2631  -23.1882   19.8287 H   0  0  0  0  0  0
  -28.9727  -20.9714   18.6462 H   0  0  0  0  0  0
  -28.1116  -19.9279   19.7638 H   0  0  0  0  0  0
  -24.4060  -22.5486   18.2637 H   0  0  0  0  0  0
  -24.1491  -24.2586   17.8984 H   0  0  0  0  0  0
  -24.6044  -23.7650   19.5316 H   0  0  0  0  0  0
  -32.2858  -20.7388   21.8247 H   0  0  0  0  0  0
  -31.6215  -22.3473   21.6843 H   0  0  0  0  0  0
  -31.9732  -21.4024   20.2310 H   0  0  0  0  0  0
  -28.1185  -25.6723   18.2711 H   0  0  0  0  0  0
  -29.6317  -25.4201   19.0039 H   0  0  0  0  0  0
  -29.9019  -20.7517   22.3458 H   0  0  0  0  0  0
  -29.1974  -15.4030   21.6105 H   0  0  0  0  0  0
  -28.3989  -21.6074   21.3973 H   0  0  0  0  0  0
  1 25  1  0  0  0
  1 30  2  0  0  0
  1 85  1  0  0  0
  2  3  1  0  0  0
  2 25  1  0  0  0
  2 89  1  0  0  0
  2 90  1  0  0  0
  3  4  1  0  0  0
  3 91  1  0  0  0
  3 92  1  0  0  0
  4  5  1  0  0  0
  4 93  1  0  0  0
  4 94  1  0  0  0
  5  6  1  0  0  0
  5 26  1  0  0  0
  5 95  1  0  0  0
  6 25  1  0  0  0
  6 96  1  0  0  0
  6 97  1  0  0  0
  7  8  2  0  0  0
  7 26  1  0  0  0
  7 29  1  0  0  0
  8  9  1  0  0  0
  8 22  1  0  0  0
  9 10  1  0  0  0
  9 27  2  0  0  0
 10 11  2  0  0  0
 10 15  1  0  0  0
 11 12  1  0  0  0
 11 98  1  0  0  0
 12 13  2  0  0  0
 12 99  1  0  0  0
 13 14  1  0  0  0
 13 31  1  0  0  0
 14 15  2  0  0  0
 14100  1  0  0  0
 15101  1  0  0  0
 16 17  2  0  0  0
 16 21  1  0  0  0
 16 31  1  0  0  0
 17 18  1  0  0  0
 17102  1  0  0  0
 18 19  2  0  0  0
 18103  1  0  0  0
 19 20  1  0  0  0
 19 24  1  0  0  0
 20 21  2  0  0  0
 20104  1  0  0  0
 21 23  1  0  0  0
 22 28  1  0  0  0
 22 32  2  0  0  0
 26 27  1  0  0  0
 28105  1  0  0  0
 28106  1  0  0  0
 29107  1  0  0  0
 29108  1  0  0  0
 33 34  1  0  0  0
 33 66  1  0  0  0
 33 70  2  0  0  0
 34 36  1  0  0  0
 34 59  1  0  0  0
 34109  1  0  0  0
 35 44  2  0  0  0
 35 45  1  0  0  0
 35 68  1  0  0  0
 36 56  1  0  0  0
 36110  1  0  0  0
 37 39  1  0  0  0
 37 47  1  0  0  0
 37 66  1  0  0  0
 37111  1  0  0  0
 38 43  2  0  0  0
 38 46  1  0  0  0
 38 47  1  0  0  0
 39 64  1  0  0  0
 39 67  2  0  0  0
 40 52  1  0  0  0
 40 53  2  0  0  0
 40 58  1  0  0  0
 41112  1  0  0  0
 41113  1  0  0  0
 41114  1  0  0  0
 41 48  1  0  0  0
 42 43  1  0  0  0
 42 66  1  0  0  0
 42115  1  0  0  0
 42116  1  0  0  0
 43 44  1  0  0  0
 44117  1  0  0  0
 45 46  2  0  0  0
 45118  1  0  0  0
 46119  1  0  0  0
 47120  1  0  0  0
 47121  1  0  0  0
 48 56  1  0  0  0
 48 65  1  0  0  0
 48122  1  0  0  0
 49 50  1  0  0  0
 49 53  1  0  0  0
 49 64  1  0  0  0
 49123  1  0  0  0
 50 51  1  0  0  0
 50124  1  0  0  0
 50125  1  0  0  0
 51 52  1  0  0  0
 51126  1  0  0  0
 51127  1  0  0  0
 52128  1  0  0  0
 52129  1  0  0  0
 53 54  1  0  0  0
 54 55  2  0  0  0
 54130  1  0  0  0
 55 57  1  0  0  0
 55131  1  0  0  0
 56 69  2  0  0  0
 57 58  2  0  0  0
 57132  1  0  0  0
 58133  1  0  0  0
 59 60  1  0  0  0
 59 61  1  0  0  0
 59 62  1  0  0  0
 60134  1  0  0  0
 60135  1  0  0  0
 60136  1  0  0  0
 61137  1  0  0  0
 61138  1  0  0  0
 61139  1  0  0  0
 62140  1  0  0  0
 62141  1  0  0  0
 62142  1  0  0  0
 63 65  1  0  0  0
 63143  1  0  0  0
 63144  1  0  0  0
 63145  1  0  0  0
 64146  1  0  0  0
 65147  1  0  0  0
 68 82  1  0  0  0
 71 72  1  0  0  0
 71 73  2  0  0  0
 71148  1  0  0  0
 72 83  1  0  0  0
 72 84  2  0  0  0
 73 85  1  0  0  0
 73 88  1  0  0  0
 74 75  2  0  0  0
 74 76  1  0  0  0
 74 77  1  0  0  0
 75 78  1  0  0  0
 75 82  1  0  0  0
 76 80  1  0  0  0
 76 87  2  0  0  0
 77 79  1  0  0  0
 77149  1  0  0  0
 77150  1  0  0  0
 78151  1  0  0  0
 78152  1  0  0  0
 78 86  1  0  0  0
 79 86  1  0  0  0
 79153  1  0  0  0
 79154  1  0  0  0
 80155  1  0  0  0
 80156  1  0  0  0
 80157  1  0  0  0
 81158  1  0  0  0
 81159  1  0  0  0
 81160  1  0  0  0
 81 83  1  0  0  0
 82161  1  0  0  0
 82162  1  0  0  0
 83 86  1  0  0  0
 83163  1  0  0  0
 84 88  1  0  0  0
 85164  1  0  0  0
 86165  1  0  0  0
M  CHG  1  86   1
M  ISO  4   1 100  68 101  82 101  85 100
M  END
> <chiral flag>
0

> <version>
0

> <s_m_source_file>
/data/baiqing/PycharmProjects/Reinvent-master-3.2/result/LINK_invent/BTK/process_docking_weight1_custom_product_contain_oxygen_bond_distance_aromatic_linkinvent_7_9_3/rearranged_h_0161.sdf

> <i_m_source_file_index>
73

> <r_mmod_Potential_Energy-OPLS-2005>
-242.361770629883

> <r_mmod_Stretch_Energy-OPLS-2005>
78.3381423950195

> <r_mmod_Bend_Energy-OPLS-2005>
169.936309814453

> <r_mmod_Torsional_Energy-OPLS-2005>
229.098403930664

> <r_mmod_Improper_Torsional_Energy-OPLS-2005>
3.55986738204956

> <r_mmod_Van_der_Waal_Energy-OPLS-2005>
144.563171386719

> <r_mmod_Electrostatic_Energy-OPLS-2005>
-405.983734130859

> <r_mmod_Solvation_Energy-OPLS-2005>
-497.242614746094

> <b_mmod_Minimization_Converged-OPLS-2005>
0

> <r_mmod_RMS_Derivative-OPLS-2005>
2.3633451461792

$$$$
73
                    3D
 Structure written by MMmdl.
162171  0  0  1  0            999 V2000
  -30.5570  -14.8355   20.4366 C   0  0  0  0  0  0
  -30.4468  -12.5134   19.4678 C   0  0  0  0  0  0
  -29.5176  -12.5138   18.2330 C   0  0  0  0  0  0
  -28.0453  -12.3192   18.6509 C   0  0  0  0  0  0
  -27.6363  -13.2304   19.8393 C   0  0  2  0  0  0
  -28.6849  -13.1963   20.9707 C   0  0  0  0  0  0
  -25.2505  -13.8184   20.5682 C   0  0  0  0  0  0
  -24.1804  -13.0431   20.9208 C   0  0  0  0  0  0
  -24.6387  -11.6905   20.8730 C   0  0  0  0  0  0
  -23.9062  -10.4289   21.0398 C   0  0  0  0  0  0
  -24.3616   -9.4207   21.9179 C   0  0  0  0  0  0
  -23.6288   -8.2244   22.0755 C   0  0  0  0  0  0
  -22.4270   -8.0277   21.3545 C   0  0  0  0  0  0
  -21.9905   -9.0253   20.4645 C   0  0  0  0  0  0
  -22.7232  -10.2133   20.3051 C   0  0  0  0  0  0
  -21.6865   -6.0724   22.5274 C   0  0  0  0  0  0
  -21.4022   -6.5631   23.8204 C   0  0  0  0  0  0
  -21.3661   -5.6787   24.9169 C   0  0  0  0  0  0
  -21.6045   -4.3048   24.7220 C   0  0  0  0  0  0
  -21.8824   -3.8136   23.4344 C   0  0  0  0  0  0
  -21.9203   -4.6951   22.3399 C   0  0  0  0  0  0
  -22.7828  -13.5212   21.1874 C   0  0  0  0  0  0
  -22.1667   -4.2139   21.0974 F   0  0  0  0  0  0
  -21.5633   -3.4529   25.7734 F   0  0  0  0  0  0
  -29.9700  -13.5846   20.3746 N   0  0  0  0  0  0
  -26.2913  -12.9380   20.3233 N   0  0  0  0  0  0
  -25.9314  -11.6526   20.5707 N   0  0  0  0  0  0
  -22.0473  -12.8207   22.0426 N   0  0  0  0  0  0
  -25.4182  -15.1915   20.4093 N   0  0  0  0  0  0
  -31.7687  -14.9377   20.2159 O   0  0  0  0  0  0
  -21.6645   -6.8869   21.4234 O   0  0  0  0  0  0
  -22.3502  -14.5518   20.6713 O   0  0  0  0  0  0
  -24.6361  -31.8504   23.1925 C   0  0  0  0  0  0
  -25.9163  -32.4725   23.8301 C   0  0  1  0  0  0
  -27.2264  -27.2150   20.1520 C   0  0  0  0  0  0
  -25.5935  -33.8528   24.2222 N   0  0  0  0  0  0
  -23.4364  -30.4680   21.5375 C   0  0  2  0  0  0
  -24.8870  -28.8993   20.1189 C   0  0  0  0  0  0
  -22.7527  -29.4569   22.4906 C   0  0  0  0  0  0
  -18.0291  -28.1390   22.8479 C   0  0  0  0  0  0
  -24.1488  -36.7277   23.2641 C   0  0  0  0  0  0
  -25.9849  -30.7498   21.3773 C   0  0  0  0  0  0
  -26.0602  -29.3644   20.7280 C   0  0  0  0  0  0
  -27.2363  -28.5380   20.7246 C   0  0  0  0  0  0
  -26.0294  -26.8201   19.5220 C   0  0  0  0  0  0
  -24.8785  -27.6363   19.5036 C   0  0  0  0  0  0
  -23.6592  -29.7927   20.1579 C   0  0  0  0  0  0
  -25.4116  -36.3054   24.0320 C   0  0  1  0  0  0
  -20.5898  -28.3704   23.1264 C   0  0  2  0  0  0
  -20.6775  -26.9416   22.5410 C   0  0  0  0  0  0
  -19.5749  -26.6383   21.5214 C   0  0  0  0  0  0
  -18.1931  -26.7929   22.1626 C   0  0  0  0  0  0
  -19.1545  -28.8865   23.2862 C   0  0  0  0  0  0
  -18.9463  -30.1467   23.8879 C   0  0  0  0  0  0
  -17.6462  -30.6589   24.0559 C   0  0  0  0  0  0
  -25.9064  -34.9424   23.5082 C   0  0  0  0  0  0
  -16.5355  -29.9082   23.6336 C   0  0  0  0  0  0
  -16.7278  -28.6503   23.0352 C   0  0  0  0  0  0
  -26.4511  -31.6567   25.0712 C   0  0  0  0  0  0
  -25.3716  -31.3726   26.1419 C   0  0  0  0  0  0
  -27.0369  -30.2978   24.6229 C   0  0  0  0  0  0
  -27.6050  -32.4320   25.7495 C   0  0  0  0  0  0
  -27.5574  -37.1793   24.8464 C   0  0  0  0  0  0
  -21.4229  -29.3043   22.3651 N   0  0  0  0  0  0
  -26.4289  -37.3755   23.9406 N   0  0  0  0  0  0
  -24.7056  -31.0420   22.0925 N   0  0  0  0  0  0
  -23.4203  -28.8120   23.3034 O   0  0  0  0  0  0
  -28.3177  -26.3042   20.1157 O   0  0  0  0  0  0
  -26.5649  -34.8910   22.4658 O   0  0  0  0  0  0
  -23.5497  -32.1351   23.7190 O   0  0  0  0  0  0
  -30.2350  -17.9745   21.8546 C   0  0  0  0  0  0
  -29.8685  -17.4294   20.6445 C   0  0  0  0  0  0
  -29.5274  -19.8163   20.2404 C   0  0  0  0  0  0
  -29.5301  -22.0391   16.9855 C   0  0  0  0  0  0
  -29.8171  -23.4559   17.5646 C   0  0  0  0  0  0
  -28.8073  -21.0695   17.9651 C   0  0  0  0  0  0
  -30.3565  -23.4431   19.0181 C   0  0  0  0  0  0
  -29.5276  -21.1246   19.3178 C   0  0  1  0  0  0
  -29.3407  -25.0992   21.9726 C   0  0  0  0  0  0
  -28.1952  -23.4264   20.3062 C   0  0  0  0  0  0
  -28.2768  -24.9857   20.8732 C   0  0  2  0  0  0
  -29.4477  -18.5089   19.7695 N   0  0  0  0  0  0
  -29.7056  -15.9512   20.4411 N   0  0  0  0  0  0
  -29.4159  -22.6131   19.8022 N   0  3  1  0  0  0
  -30.0889  -19.7486   21.9139 S   0  0  0  0  0  0
  -31.4823  -12.6727   19.1599 H   0  0  0  0  0  0
  -30.4242  -11.5445   19.9692 H   0  0  0  0  0  0
  -29.8152  -11.7301   17.5342 H   0  0  0  0  0  0
  -29.6241  -13.4580   17.6969 H   0  0  0  0  0  0
  -27.9188  -11.2725   18.9281 H   0  0  0  0  0  0
  -27.3866  -12.4887   17.7985 H   0  0  0  0  0  0
  -27.6146  -14.2432   19.4376 H   0  0  0  0  0  0
  -28.7484  -12.2015   21.4138 H   0  0  0  0  0  0
  -28.4071  -13.8770   21.7782 H   0  0  0  0  0  0
  -25.2769   -9.5687   22.4738 H   0  0  0  0  0  0
  -24.0008   -7.4639   22.7473 H   0  0  0  0  0  0
  -21.0849   -8.8760   19.8943 H   0  0  0  0  0  0
  -22.3693  -10.9666   19.6147 H   0  0  0  0  0  0
  -21.2008   -7.6137   23.9701 H   0  0  0  0  0  0
  -21.1481   -6.0517   25.9075 H   0  0  0  0  0  0
  -22.0602   -2.7595   23.2846 H   0  0  0  0  0  0
  -22.4096  -11.9872   22.4822 H   0  0  0  0  0  0
  -21.1078  -13.1215   22.2609 H   0  0  0  0  0  0
  -24.6433  -15.8380   20.5165 H   0  0  0  0  0  0
  -26.2513  -15.6362   20.0484 H   0  0  0  0  0  0
  -26.7230  -32.5366   23.1042 H   0  0  0  0  0  0
  -25.0048  -33.9656   25.0344 H   0  0  0  0  0  0
  -22.7351  -31.2911   21.3842 H   0  0  0  0  0  0
  -23.3755  -35.9608   23.3295 H   0  0  0  0  0  0
  -24.3580  -36.8917   22.2061 H   0  0  0  0  0  0
  -23.7248  -37.6471   23.6683 H   0  0  0  0  0  0
  -26.1240  -31.5036   20.6012 H   0  0  0  0  0  0
  -26.8617  -30.8069   22.0103 H   0  0  0  0  0  0
  -28.1414  -28.8962   21.1948 H   0  0  0  0  0  0
  -25.9807  -25.8514   19.0449 H   0  0  0  0  0  0
  -23.9816  -27.2742   19.0201 H   0  0  0  0  0  0
  -23.7880  -30.5649   19.3985 H   0  0  0  0  0  0
  -22.7770  -29.2262   19.8531 H   0  0  0  0  0  0
  -25.1304  -36.1891   25.0815 H   0  0  0  0  0  0
  -20.9983  -28.3283   24.1387 H   0  0  0  0  0  0
  -20.5672  -26.2312   23.3620 H   0  0  0  0  0  0
  -21.6642  -26.7430   22.1207 H   0  0  0  0  0  0
  -19.6910  -25.6291   21.1252 H   0  0  0  0  0  0
  -19.6692  -27.3185   20.6738 H   0  0  0  0  0  0
  -17.4202  -26.6679   21.4029 H   0  0  0  0  0  0
  -18.0330  -26.0077   22.9026 H   0  0  0  0  0  0
  -19.7938  -30.7287   24.2244 H   0  0  0  0  0  0
  -17.5013  -31.6266   24.5165 H   0  0  0  0  0  0
  -15.5354  -30.2977   23.7665 H   0  0  0  0  0  0
  -15.8681  -28.0819   22.7074 H   0  0  0  0  0  0
  -24.5894  -30.7077   25.7735 H   0  0  0  0  0  0
  -24.8906  -32.2897   26.4829 H   0  0  0  0  0  0
  -25.8017  -30.8907   27.0208 H   0  0  0  0  0  0
  -26.2965  -29.6710   24.1241 H   0  0  0  0  0  0
  -27.4022  -29.7257   25.4769 H   0  0  0  0  0  0
  -27.8853  -30.4241   23.9499 H   0  0  0  0  0  0
  -27.2646  -33.3624   26.2051 H   0  0  0  0  0  0
  -28.3872  -32.6876   25.0334 H   0  0  0  0  0  0
  -28.0708  -31.8464   26.5430 H   0  0  0  0  0  0
  -28.2583  -38.0094   24.7511 H   0  0  0  0  0  0
  -28.1078  -36.2630   24.6291 H   0  0  0  0  0  0
  -27.2297  -37.1438   25.8865 H   0  0  0  0  0  0
  -20.9431  -29.8758   21.6837 H   0  0  0  0  0  0
  -26.0165  -38.2826   24.1405 H   0  0  0  0  0  0
  -30.5496  -17.4455   22.7449 H   0  0  0  0  0  0
  -30.4825  -21.5930   16.6926 H   0  0  0  0  0  0
  -28.9585  -22.1256   16.0605 H   0  0  0  0  0  0
  -28.9011  -24.0491   17.5258 H   0  0  0  0  0  0
  -30.5241  -23.9790   16.9188 H   0  0  0  0  0  0
  -28.8534  -20.0612   17.5529 H   0  0  0  0  0  0
  -27.7497  -21.3124   18.0739 H   0  0  0  0  0  0
  -30.4287  -24.4611   19.3952 H   0  0  0  0  0  0
  -31.3713  -23.0434   19.0628 H   0  0  0  0  0  0
  -30.5769  -21.0435   19.0305 H   0  0  0  0  0  0
  -29.2635  -24.2733   22.6799 H   0  0  0  0  0  0
  -29.2237  -26.0252   22.5363 H   0  0  0  0  0  0
  -30.3491  -25.0910   21.5629 H   0  0  0  0  0  0
  -27.4405  -23.4039   19.5199 H   0  0  0  0  0  0
  -27.7724  -22.8210   21.1094 H   0  0  0  0  0  0
  -27.3330  -25.0646   21.4148 H   0  0  0  0  0  0
  -28.7438  -15.6761   20.3298 H   0  0  0  0  0  0
  -28.8534  -22.6178   18.9625 H   0  0  0  0  0  0
  1 25  1  0  0  0
  1 30  2  0  0  0
  1 83  1  0  0  0
  2  3  1  0  0  0
  2 25  1  0  0  0
  2 86  1  0  0  0
  2 87  1  0  0  0
  3  4  1  0  0  0
  3 88  1  0  0  0
  3 89  1  0  0  0
  4  5  1  0  0  0
  4 90  1  0  0  0
  4 91  1  0  0  0
  5  6  1  0  0  0
  5 26  1  0  0  0
  5 92  1  0  0  0
  6 25  1  0  0  0
  6 93  1  0  0  0
  6 94  1  0  0  0
  7  8  2  0  0  0
  7 26  1  0  0  0
  7 29  1  0  0  0
  8  9  1  0  0  0
  8 22  1  0  0  0
  9 10  1  0  0  0
  9 27  2  0  0  0
 10 11  2  0  0  0
 10 15  1  0  0  0
 11 12  1  0  0  0
 11 95  1  0  0  0
 12 13  2  0  0  0
 12 96  1  0  0  0
 13 14  1  0  0  0
 13 31  1  0  0  0
 14 15  2  0  0  0
 14 97  1  0  0  0
 15 98  1  0  0  0
 16 17  2  0  0  0
 16 21  1  0  0  0
 16 31  1  0  0  0
 17 18  1  0  0  0
 17 99  1  0  0  0
 18 19  2  0  0  0
 18100  1  0  0  0
 19 20  1  0  0  0
 19 24  1  0  0  0
 20 21  2  0  0  0
 20101  1  0  0  0
 21 23  1  0  0  0
 22 28  1  0  0  0
 22 32  2  0  0  0
 26 27  1  0  0  0
 28102  1  0  0  0
 28103  1  0  0  0
 29104  1  0  0  0
 29105  1  0  0  0
 33 34  1  0  0  0
 33 66  1  0  0  0
 33 70  2  0  0  0
 34 36  1  0  0  0
 34 59  1  0  0  0
 34106  1  0  0  0
 35 44  2  0  0  0
 35 45  1  0  0  0
 35 68  1  0  0  0
 36 56  1  0  0  0
 36107  1  0  0  0
 37 39  1  0  0  0
 37 47  1  0  0  0
 37 66  1  0  0  0
 37108  1  0  0  0
 38 43  2  0  0  0
 38 46  1  0  0  0
 38 47  1  0  0  0
 39 64  1  0  0  0
 39 67  2  0  0  0
 40 52  1  0  0  0
 40 53  2  0  0  0
 40 58  1  0  0  0
 41109  1  0  0  0
 41110  1  0  0  0
 41111  1  0  0  0
 41 48  1  0  0  0
 42 43  1  0  0  0
 42 66  1  0  0  0
 42112  1  0  0  0
 42113  1  0  0  0
 43 44  1  0  0  0
 44114  1  0  0  0
 45 46  2  0  0  0
 45115  1  0  0  0
 46116  1  0  0  0
 47117  1  0  0  0
 47118  1  0  0  0
 48 56  1  0  0  0
 48 65  1  0  0  0
 48119  1  0  0  0
 49 50  1  0  0  0
 49 53  1  0  0  0
 49 64  1  0  0  0
 49120  1  0  0  0
 50 51  1  0  0  0
 50121  1  0  0  0
 50122  1  0  0  0
 51 52  1  0  0  0
 51123  1  0  0  0
 51124  1  0  0  0
 52125  1  0  0  0
 52126  1  0  0  0
 53 54  1  0  0  0
 54 55  2  0  0  0
 54127  1  0  0  0
 55 57  1  0  0  0
 55128  1  0  0  0
 56 69  2  0  0  0
 57 58  2  0  0  0
 57129  1  0  0  0
 58130  1  0  0  0
 59 60  1  0  0  0
 59 61  1  0  0  0
 59 62  1  0  0  0
 60131  1  0  0  0
 60132  1  0  0  0
 60133  1  0  0  0
 61134  1  0  0  0
 61135  1  0  0  0
 61136  1  0  0  0
 62137  1  0  0  0
 62138  1  0  0  0
 62139  1  0  0  0
 63 65  1  0  0  0
 63140  1  0  0  0
 63141  1  0  0  0
 63142  1  0  0  0
 64143  1  0  0  0
 65144  1  0  0  0
 68 81  1  0  0  0
 71 72  2  0  0  0
 71 85  1  0  0  0
 71145  1  0  0  0
 72 82  1  0  0  0
 72 83  1  0  0  0
 73 82  2  0  0  0
 73 85  1  0  0  0
 73 78  1  0  0  0
 74 75  1  0  0  0
 74 76  1  0  0  0
 74146  1  0  0  0
 74147  1  0  0  0
 75 77  1  0  0  0
 75148  1  0  0  0
 75149  1  0  0  0
 76 78  1  0  0  0
 76150  1  0  0  0
 76151  1  0  0  0
 77 84  1  0  0  0
 77152  1  0  0  0
 77153  1  0  0  0
 78 84  1  0  0  0
 78154  1  0  0  0
 79155  1  0  0  0
 79156  1  0  0  0
 79157  1  0  0  0
 79 81  1  0  0  0
 80 81  1  0  0  0
 80158  1  0  0  0
 80159  1  0  0  0
 80 84  1  0  0  0
 81160  1  0  0  0
 83161  1  0  0  0
 84162  1  0  0  0
M  CHG  1  84   1
M  ISO  4   1 100  68 101  81 101  83 100
M  END
> <chiral flag>
0

> <version>
0

> <s_m_source_file>
/data/baiqing/PycharmProjects/Reinvent-master-3.2/result/LINK_invent/BTK/process_docking_weight1_custom_product_contain_oxygen_bond_distance_aromatic_linkinvent_7_9_3/rearranged_h_0161.sdf

> <i_m_source_file_index>
74

> <r_mmod_Potential_Energy-OPLS-2005>
464.716461181641

> <r_mmod_Stretch_Energy-OPLS-2005>
164.625610351562

> <r_mmod_Bend_Energy-OPLS-2005>
439.849060058594

> <r_mmod_Torsional_Energy-OPLS-2005>
338.800262451172

> <r_mmod_Improper_Torsional_Energy-OPLS-2005>
12.7939300537109

> <r_mmod_Van_der_Waal_Energy-OPLS-2005>
112.372718811035

> <r_mmod_Electrostatic_Energy-OPLS-2005>
-291.984100341797

> <r_mmod_Solvation_Energy-OPLS-2005>
-434.402648925781

> <b_mmod_Minimization_Converged-OPLS-2005>
0

> <r_mmod_RMS_Derivative-OPLS-2005>
1.28292143344879

$$$$
74
                    3D
 Structure written by MMmdl.
159167  0  0  1  0            999 V2000
  -30.6107  -14.6527   20.4856 C   0  0  0  0  0  0
  -30.4410  -12.3952   19.4580 C   0  0  0  0  0  0
  -29.5123  -12.4974   18.2269 C   0  0  0  0  0  0
  -28.0327  -12.3442   18.6352 C   0  0  0  0  0  0
  -27.6526  -13.2156   19.8618 C   0  0  2  0  0  0
  -28.6965  -13.0754   20.9924 C   0  0  0  0  0  0
  -25.2563  -13.8163   20.5683 C   0  0  0  0  0  0
  -24.1829  -13.0432   20.9188 C   0  0  0  0  0  0
  -24.6393  -11.6903   20.8733 C   0  0  0  0  0  0
  -23.9060  -10.4288   21.0399 C   0  0  0  0  0  0
  -24.3608   -9.4206   21.9180 C   0  0  0  0  0  0
  -23.6288   -8.2240   22.0749 C   0  0  0  0  0  0
  -22.4270   -8.0278   21.3541 C   0  0  0  0  0  0
  -21.9905   -9.0251   20.4644 C   0  0  0  0  0  0
  -22.7230  -10.2132   20.3053 C   0  0  0  0  0  0
  -21.6852   -6.0737   22.5280 C   0  0  0  0  0  0
  -21.4016   -6.5638   23.8214 C   0  0  0  0  0  0
  -21.3659   -5.6789   24.9174 C   0  0  0  0  0  0
  -21.6042   -4.3051   24.7225 C   0  0  0  0  0  0
  -21.8819   -3.8147   23.4344 C   0  0  0  0  0  0
  -21.9193   -4.6966   22.3403 C   0  0  0  0  0  0
  -22.7852  -13.5234   21.1850 C   0  0  0  0  0  0
  -22.1661   -4.2155   21.0979 F   0  0  0  0  0  0
  -21.5628   -3.4534   25.7736 F   0  0  0  0  0  0
  -30.0116  -13.4199   20.4309 N   0  0  0  0  0  0
  -26.2986  -12.9340   20.3303 N   0  0  0  0  0  0
  -25.9320  -11.6498   20.5746 N   0  0  0  0  0  0
  -22.0486  -12.8239   22.0404 N   0  0  0  0  0  0
  -25.4272  -15.1887   20.4113 N   0  0  0  0  0  0
  -31.7830  -14.8034   20.1273 O   0  0  0  0  0  0
  -21.6634   -6.8876   21.4240 O   0  0  0  0  0  0
  -22.3546  -14.5547   20.6700 O   0  0  0  0  0  0
  -24.6248  -31.8599   23.2019 C   0  0  0  0  0  0
  -25.9098  -32.4781   23.8352 C   0  0  1  0  0  0
  -27.2296  -27.3302   20.1275 C   0  0  0  0  0  0
  -25.5916  -33.8580   24.2283 N   0  0  0  0  0  0
  -23.4189  -30.4812   21.5440 C   0  0  2  0  0  0
  -24.8682  -28.9326   20.1148 C   0  0  0  0  0  0
  -22.7469  -29.4619   22.4943 C   0  0  0  0  0  0
  -18.0285  -28.1382   22.8487 C   0  0  0  0  0  0
  -24.1488  -36.7297   23.2639 C   0  0  0  0  0  0
  -25.9576  -30.7958   21.3696 C   0  0  0  0  0  0
  -26.0354  -29.4217   20.7161 C   0  0  0  0  0  0
  -27.2225  -28.6331   20.7092 C   0  0  0  0  0  0
  -26.0439  -26.8853   19.5061 C   0  0  0  0  0  0
  -24.8732  -27.6693   19.5003 C   0  0  0  0  0  0
  -23.6345  -29.8113   20.1607 C   0  0  0  0  0  0
  -25.4111  -36.3086   24.0331 C   0  0  1  0  0  0
  -20.5884  -28.3682   23.1289 C   0  0  2  0  0  0
  -20.6772  -26.9406   22.5412 C   0  0  0  0  0  0
  -19.5749  -26.6382   21.5211 C   0  0  0  0  0  0
  -18.1929  -26.7925   22.1625 C   0  0  0  0  0  0
  -19.1537  -28.8848   23.2884 C   0  0  0  0  0  0
  -18.9460  -30.1452   23.8898 C   0  0  0  0  0  0
  -17.6460  -30.6585   24.0561 C   0  0  0  0  0  0
  -25.9046  -34.9454   23.5109 C   0  0  0  0  0  0
  -16.5351  -29.9083   23.6327 C   0  0  0  0  0  0
  -16.7272  -28.6500   23.0350 C   0  0  0  0  0  0
  -26.4490  -31.6586   25.0717 C   0  0  0  0  0  0
  -25.3731  -31.3720   26.1451 C   0  0  0  0  0  0
  -27.0330  -30.3014   24.6155 C   0  0  0  0  0  0
  -27.6056  -32.4315   25.7486 C   0  0  0  0  0  0
  -27.5580  -37.1802   24.8465 C   0  0  0  0  0  0
  -21.4183  -29.3038   22.3687 N   0  0  0  0  0  0
  -26.4291  -37.3778   23.9409 N   0  0  0  0  0  0
  -24.6859  -31.0619   22.0962 N   0  0  0  0  0  0
  -23.4197  -28.8161   23.3021 O   0  0  0  0  0  0
  -28.3459  -26.4894   20.1376 O   0  0  0  0  0  0
  -26.5616  -34.8920   22.4676 O   0  0  0  0  0  0
  -23.5413  -32.1390   23.7355 O   0  0  0  0  0  0
  -29.6341  -19.3787   21.2855 C   0  0  0  0  0  0
  -29.5443  -19.0394   18.9216 C   0  0  0  0  0  0
  -29.6675  -17.6251   19.1624 C   0  0  0  0  0  0
  -29.5040  -19.9694   20.0022 C   0  0  0  0  0  0
  -29.8223  -17.1333   20.4986 C   0  0  0  0  0  0
  -28.8385  -23.9333   19.9644 C   0  0  0  0  0  0
  -29.4043  -19.6008   17.5050 C   0  0  0  0  0  0
  -30.8642  -16.4288   17.2293 C   0  0  0  0  0  0
  -29.5462  -16.6448   17.9896 C   0  0  0  0  0  0
  -28.9019  -22.4908   20.6293 C   0  0  0  0  0  0
  -28.1542  -25.1398   20.7197 C   0  0  0  0  0  0
  -29.7865  -18.0391   21.5147 N   0  0  0  0  0  0
  -29.3563  -21.3786   19.7323 N   0  0  0  0  0  0
  -29.7876  -15.7032   20.8103 N   0  0  0  0  0  0
  -29.3154  -24.0958   18.8347 O   0  0  0  0  0  0
  -31.4817  -12.5240   19.1556 H   0  0  0  0  0  0
  -30.3809  -11.4020   19.9056 H   0  0  0  0  0  0
  -29.7759  -11.7345   17.4931 H   0  0  0  0  0  0
  -29.6620  -13.4563   17.7301 H   0  0  0  0  0  0
  -27.8646  -11.2918   18.8671 H   0  0  0  0  0  0
  -27.3829  -12.5764   17.7907 H   0  0  0  0  0  0
  -27.6661  -14.2495   19.5188 H   0  0  0  0  0  0
  -28.7095  -12.0548   21.3776 H   0  0  0  0  0  0
  -28.4398  -13.7092   21.8425 H   0  0  0  0  0  0
  -25.2748   -9.5688   22.4758 H   0  0  0  0  0  0
  -23.9999   -7.4631   22.7466 H   0  0  0  0  0  0
  -21.0836   -8.8770   19.8950 H   0  0  0  0  0  0
  -22.3682  -10.9673   19.6166 H   0  0  0  0  0  0
  -21.2010   -7.6145   23.9723 H   0  0  0  0  0  0
  -21.1479   -6.0514   25.9078 H   0  0  0  0  0  0
  -22.0600   -2.7612   23.2842 H   0  0  0  0  0  0
  -22.4085  -11.9901   22.4806 H   0  0  0  0  0  0
  -21.1107  -13.1284   22.2599 H   0  0  0  0  0  0
  -24.6567  -15.8390   20.5209 H   0  0  0  0  0  0
  -26.2712  -15.6326   20.0742 H   0  0  0  0  0  0
  -26.7167  -32.5461   23.1106 H   0  0  0  0  0  0
  -25.0063  -33.9725   25.0427 H   0  0  0  0  0  0
  -22.7120  -31.3007   21.3986 H   0  0  0  0  0  0
  -23.3749  -35.9632   23.3303 H   0  0  0  0  0  0
  -24.3581  -36.8915   22.2054 H   0  0  0  0  0  0
  -23.7244  -37.6501   23.6659 H   0  0  0  0  0  0
  -26.0834  -31.5578   20.5991 H   0  0  0  0  0  0
  -26.8397  -30.8493   21.9960 H   0  0  0  0  0  0
  -28.1212  -29.0058   21.1806 H   0  0  0  0  0  0
  -26.0185  -25.9162   19.0280 H   0  0  0  0  0  0
  -23.9791  -27.2886   19.0261 H   0  0  0  0  0  0
  -23.7527  -30.5853   19.4014 H   0  0  0  0  0  0
  -22.7556  -29.2381   19.8603 H   0  0  0  0  0  0
  -25.1291  -36.1940   25.0824 H   0  0  0  0  0  0
  -20.9975  -28.3253   24.1410 H   0  0  0  0  0  0
  -20.5668  -26.2290   23.3609 H   0  0  0  0  0  0
  -21.6641  -26.7434   22.1208 H   0  0  0  0  0  0
  -19.6909  -25.6294   21.1239 H   0  0  0  0  0  0
  -19.6686  -27.3194   20.6742 H   0  0  0  0  0  0
  -17.4198  -26.6671   21.4029 H   0  0  0  0  0  0
  -18.0332  -26.0067   22.9022 H   0  0  0  0  0  0
  -19.7936  -30.7267   24.2268 H   0  0  0  0  0  0
  -17.5015  -31.6266   24.5161 H   0  0  0  0  0  0
  -15.5351  -30.2985   23.7651 H   0  0  0  0  0  0
  -15.8673  -28.0819   22.7064 H   0  0  0  0  0  0
  -24.5898  -30.7078   25.7782 H   0  0  0  0  0  0
  -24.8933  -32.2886   26.4893 H   0  0  0  0  0  0
  -25.8061  -30.8885   27.0216 H   0  0  0  0  0  0
  -26.2897  -29.6766   24.1189 H   0  0  0  0  0  0
  -27.4049  -29.7267   25.4648 H   0  0  0  0  0  0
  -27.8756  -30.4309   23.9359 H   0  0  0  0  0  0
  -27.2673  -33.3613   26.2071 H   0  0  0  0  0  0
  -28.3863  -32.6875   25.0312 H   0  0  0  0  0  0
  -28.0726  -31.8433   26.5396 H   0  0  0  0  0  0
  -28.2598  -38.0098   24.7510 H   0  0  0  0  0  0
  -28.1075  -36.2630   24.6290 H   0  0  0  0  0  0
  -27.2299  -37.1453   25.8869 H   0  0  0  0  0  0
  -20.9360  -29.8763   21.6900 H   0  0  0  0  0  0
  -26.0176  -38.2854   24.1406 H   0  0  0  0  0  0
  -29.6211  -20.0012   22.1681 H   0  0  0  0  0  0
  -29.6199  -18.8954   16.7083 H   0  0  0  0  0  0
  -30.0926  -20.4328   17.3563 H   0  0  0  0  0  0
  -28.3899  -19.9689   17.3512 H   0  0  0  0  0  0
  -30.7218  -15.7267   16.4072 H   0  0  0  0  0  0
  -31.6414  -16.0215   17.8734 H   0  0  0  0  0  0
  -31.2523  -17.3537   16.8045 H   0  0  0  0  0  0
  -28.7708  -16.9858   17.3038 H   0  0  0  0  0  0
  -29.1624  -15.6854   18.3269 H   0  0  0  0  0  0
  -27.9091  -22.2555   21.0149 H   0  0  0  0  0  0
  -29.5653  -22.5507   21.4929 H   0  0  0  0  0  0
  -28.5508  -25.1594   21.7347 H   0  0  0  0  0  0
  -27.0944  -24.9071   20.8205 H   0  0  0  0  0  0
  -29.3659  -21.6608   18.7546 H   0  0  0  0  0  0
  -28.9280  -15.4056   21.2421 H   0  0  0  0  0  0
  1 25  1  0  0  0
  1 30  2  0  0  0
  1 84  1  0  0  0
  2  3  1  0  0  0
  2 25  1  0  0  0
  2 86  1  0  0  0
  2 87  1  0  0  0
  3  4  1  0  0  0
  3 88  1  0  0  0
  3 89  1  0  0  0
  4  5  1  0  0  0
  4 90  1  0  0  0
  4 91  1  0  0  0
  5  6  1  0  0  0
  5 26  1  0  0  0
  5 92  1  0  0  0
  6 25  1  0  0  0
  6 93  1  0  0  0
  6 94  1  0  0  0
  7  8  2  0  0  0
  7 26  1  0  0  0
  7 29  1  0  0  0
  8  9  1  0  0  0
  8 22  1  0  0  0
  9 10  1  0  0  0
  9 27  2  0  0  0
 10 11  2  0  0  0
 10 15  1  0  0  0
 11 12  1  0  0  0
 11 95  1  0  0  0
 12 13  2  0  0  0
 12 96  1  0  0  0
 13 14  1  0  0  0
 13 31  1  0  0  0
 14 15  2  0  0  0
 14 97  1  0  0  0
 15 98  1  0  0  0
 16 17  2  0  0  0
 16 21  1  0  0  0
 16 31  1  0  0  0
 17 18  1  0  0  0
 17 99  1  0  0  0
 18 19  2  0  0  0
 18100  1  0  0  0
 19 20  1  0  0  0
 19 24  1  0  0  0
 20 21  2  0  0  0
 20101  1  0  0  0
 21 23  1  0  0  0
 22 28  1  0  0  0
 22 32  2  0  0  0
 26 27  1  0  0  0
 28102  1  0  0  0
 28103  1  0  0  0
 29104  1  0  0  0
 29105  1  0  0  0
 33 34  1  0  0  0
 33 66  1  0  0  0
 33 70  2  0  0  0
 34 36  1  0  0  0
 34 59  1  0  0  0
 34106  1  0  0  0
 35 44  2  0  0  0
 35 45  1  0  0  0
 35 68  1  0  0  0
 36 56  1  0  0  0
 36107  1  0  0  0
 37 39  1  0  0  0
 37 47  1  0  0  0
 37 66  1  0  0  0
 37108  1  0  0  0
 38 43  2  0  0  0
 38 46  1  0  0  0
 38 47  1  0  0  0
 39 64  1  0  0  0
 39 67  2  0  0  0
 40 52  1  0  0  0
 40 53  2  0  0  0
 40 58  1  0  0  0
 41109  1  0  0  0
 41110  1  0  0  0
 41111  1  0  0  0
 41 48  1  0  0  0
 42 43  1  0  0  0
 42 66  1  0  0  0
 42112  1  0  0  0
 42113  1  0  0  0
 43 44  1  0  0  0
 44114  1  0  0  0
 45 46  2  0  0  0
 45115  1  0  0  0
 46116  1  0  0  0
 47117  1  0  0  0
 47118  1  0  0  0
 48 56  1  0  0  0
 48 65  1  0  0  0
 48119  1  0  0  0
 49 50  1  0  0  0
 49 53  1  0  0  0
 49 64  1  0  0  0
 49120  1  0  0  0
 50 51  1  0  0  0
 50121  1  0  0  0
 50122  1  0  0  0
 51 52  1  0  0  0
 51123  1  0  0  0
 51124  1  0  0  0
 52125  1  0  0  0
 52126  1  0  0  0
 53 54  1  0  0  0
 54 55  2  0  0  0
 54127  1  0  0  0
 55 57  1  0  0  0
 55128  1  0  0  0
 56 69  2  0  0  0
 57 58  2  0  0  0
 57129  1  0  0  0
 58130  1  0  0  0
 59 60  1  0  0  0
 59 61  1  0  0  0
 59 62  1  0  0  0
 60131  1  0  0  0
 60132  1  0  0  0
 60133  1  0  0  0
 61134  1  0  0  0
 61135  1  0  0  0
 61136  1  0  0  0
 62137  1  0  0  0
 62138  1  0  0  0
 62139  1  0  0  0
 63 65  1  0  0  0
 63140  1  0  0  0
 63141  1  0  0  0
 63142  1  0  0  0
 64143  1  0  0  0
 65144  1  0  0  0
 68 81  1  0  0  0
 71 74  2  0  0  0
 71 82  1  0  0  0
 71145  1  0  0  0
 72 73  2  0  0  0
 72 74  1  0  0  0
 72 77  1  0  0  0
 73 75  1  0  0  0
 73 79  1  0  0  0
 74 83  1  0  0  0
 75 82  2  0  0  0
 75 84  1  0  0  0
 76 80  1  0  0  0
 76 81  1  0  0  0
 76 85  2  0  0  0
 77146  1  0  0  0
 77147  1  0  0  0
 77148  1  0  0  0
 78 79  1  0  0  0
 78149  1  0  0  0
 78150  1  0  0  0
 78151  1  0  0  0
 79152  1  0  0  0
 79153  1  0  0  0
 80 83  1  0  0  0
 80154  1  0  0  0
 80155  1  0  0  0
 81156  1  0  0  0
 81157  1  0  0  0
 83158  1  0  0  0
 84159  1  0  0  0
M  ISO  4   1 100  68 101  81 101  84 100
M  END
> <chiral flag>
0

> <version>
0

> <s_m_source_file>
/data/baiqing/PycharmProjects/Reinvent-master-3.2/result/LINK_invent/BTK/process_docking_weight1_custom_product_contain_oxygen_bond_distance_aromatic_linkinvent_7_9_3/rearranged_h_0161.sdf

> <i_m_source_file_index>
75

> <r_mmod_Potential_Energy-OPLS-2005>
38.7096939086914

> <r_mmod_Stretch_Energy-OPLS-2005>
82.6780700683594

> <r_mmod_Bend_Energy-OPLS-2005>
151.845565795898

> <r_mmod_Torsional_Energy-OPLS-2005>
250.51416015625

> <r_mmod_Improper_Torsional_Energy-OPLS-2005>
5.64586734771729

> <r_mmod_Van_der_Waal_Energy-OPLS-2005>
142.901443481445

> <r_mmod_Electrostatic_Energy-OPLS-2005>
-393.791076660156

> <r_mmod_Solvation_Energy-OPLS-2005>
-249.123199462891

> <b_mmod_Minimization_Converged-OPLS-2005>
0

> <r_mmod_RMS_Derivative-OPLS-2005>
0.464611798524857

$$$$
75
                    3D
 Structure written by MMmdl.
161170  0  0  1  0            999 V2000
  -30.4902  -15.0657   20.3995 C   0  0  0  0  0  0
  -30.4455  -12.6662   19.5113 C   0  0  0  0  0  0
  -29.5294  -12.5459   18.2693 C   0  0  0  0  0  0
  -28.0668  -12.3091   18.6893 C   0  0  0  0  0  0
  -27.6249  -13.2558   19.8346 C   0  0  2  0  0  0
  -28.6650  -13.3294   20.9728 C   0  0  0  0  0  0
  -25.2444  -13.8222   20.5716 C   0  0  0  0  0  0
  -24.1772  -13.0435   20.9240 C   0  0  0  0  0  0
  -24.6398  -11.6925   20.8760 C   0  0  0  0  0  0
  -23.9084  -10.4291   21.0409 C   0  0  0  0  0  0
  -24.3632   -9.4206   21.9187 C   0  0  0  0  0  0
  -23.6302   -8.2244   22.0757 C   0  0  0  0  0  0
  -22.4283   -8.0284   21.3547 C   0  0  0  0  0  0
  -21.9922   -9.0257   20.4648 C   0  0  0  0  0  0
  -22.7256  -10.2134   20.3058 C   0  0  0  0  0  0
  -21.6854   -6.0737   22.5279 C   0  0  0  0  0  0
  -21.4014   -6.5641   23.8212 C   0  0  0  0  0  0
  -21.3659   -5.6795   24.9174 C   0  0  0  0  0  0
  -21.6045   -4.3057   24.7225 C   0  0  0  0  0  0
  -21.8818   -3.8148   23.4345 C   0  0  0  0  0  0
  -21.9193   -4.6964   22.3402 C   0  0  0  0  0  0
  -22.7791  -13.5202   21.1886 C   0  0  0  0  0  0
  -22.1660   -4.2149   21.0979 F   0  0  0  0  0  0
  -21.5629   -3.4541   25.7737 F   0  0  0  0  0  0
  -29.9268  -13.7790   20.3682 N   0  0  0  0  0  0
  -26.2867  -12.9463   20.3233 N   0  0  0  0  0  0
  -25.9332  -11.6586   20.5736 N   0  0  0  0  0  0
  -22.0441  -12.8186   22.0438 N   0  0  0  0  0  0
  -25.4085  -15.1954   20.4123 N   0  0  0  0  0  0
  -31.6986  -15.1260   20.1376 O   0  0  0  0  0  0
  -21.6645   -6.8882   21.4242 O   0  0  0  0  0  0
  -22.3477  -14.5507   20.6732 O   0  0  0  0  0  0
  -24.6518  -31.8363   23.1815 C   0  0  0  0  0  0
  -25.9252  -32.4655   23.8236 C   0  0  1  0  0  0
  -27.2160  -27.0514   20.1650 C   0  0  0  0  0  0
  -25.5966  -33.8465   24.2145 N   0  0  0  0  0  0
  -23.4601  -30.4533   21.5291 C   0  0  2  0  0  0
  -24.9116  -28.8661   20.1119 C   0  0  0  0  0  0
  -22.7613  -29.4509   22.4831 C   0  0  0  0  0  0
  -18.0315  -28.1409   22.8476 C   0  0  0  0  0  0
  -24.1494  -36.7237   23.2644 C   0  0  0  0  0  0
  -26.0228  -30.6829   21.3938 C   0  0  0  0  0  0
  -26.0930  -29.2858   20.7362 C   0  0  0  0  0  0
  -27.2453  -28.3973   20.7418 C   0  0  0  0  0  0
  -26.0063  -26.7574   19.4954 C   0  0  0  0  0  0
  -24.8862  -27.6184   19.4733 C   0  0  0  0  0  0
  -23.6925  -29.7789   20.1512 C   0  0  0  0  0  0
  -25.4130  -36.3006   24.0307 C   0  0  1  0  0  0
  -20.5933  -28.3744   23.1221 C   0  0  2  0  0  0
  -20.6796  -26.9439   22.5405 C   0  0  0  0  0  0
  -19.5769  -26.6393   21.5215 C   0  0  0  0  0  0
  -18.1951  -26.7946   22.1625 C   0  0  0  0  0  0
  -19.1573  -28.8896   23.2839 C   0  0  0  0  0  0
  -18.9485  -30.1488   23.8870 C   0  0  0  0  0  0
  -17.6480  -30.6602   24.0564 C   0  0  0  0  0  0
  -25.9085  -34.9385   23.5038 C   0  0  0  0  0  0
  -16.5372  -29.9090   23.6346 C   0  0  0  0  0  0
  -16.7299  -28.6512   23.0363 C   0  0  0  0  0  0
  -26.4543  -31.6554   25.0714 C   0  0  0  0  0  0
  -25.3701  -31.3770   26.1390 C   0  0  0  0  0  0
  -27.0425  -30.2938   24.6360 C   0  0  0  0  0  0
  -27.6055  -32.4338   25.7509 C   0  0  0  0  0  0
  -27.5573  -37.1776   24.8466 C   0  0  0  0  0  0
  -21.4295  -29.3049   22.3579 N   0  0  0  0  0  0
  -26.4286  -37.3728   23.9405 N   0  0  0  0  0  0
  -24.7321  -31.0139   22.0894 N   0  0  0  0  0  0
  -23.4217  -28.8063   23.3018 O   0  0  0  0  0  0
  -28.2330  -26.0005   20.2362 O   0  0  0  0  0  0
  -26.5681  -34.8897   22.4625 O   0  0  0  0  0  0
  -23.5615  -32.1278   23.6979 O   0  0  0  0  0  0
  -30.9538  -18.5161   20.1361 C   0  0  0  0  0  0
  -29.8679  -17.6999   20.4070 C   0  0  0  0  0  0
  -29.3065  -20.0904   20.3654 C   0  0  0  0  0  0
  -28.8611  -23.0966   20.3031 C   0  0  0  0  0  0
  -27.5717  -21.3929   21.7655 C   0  0  0  0  0  0
  -27.3101  -21.2762   19.2381 C   0  0  0  0  0  0
  -26.3499  -20.4492   21.7393 C   0  0  0  0  0  0
  -25.8424  -21.6355   19.5826 C   0  0  1  0  0  0
  -28.3278  -21.4710   20.4053 C   0  0  2  0  0  0
  -24.9186  -21.4711   18.3651 C   0  0  0  0  0  0
  -27.8480  -24.4557   20.1414 C   0  0  0  0  0  0
  -30.6142  -19.9098   20.1033 N   0  0  0  0  0  0
  -29.6761  -16.2535   20.5330 N   0  0  0  0  0  0
  -25.3351  -20.8543   20.7387 N   0  3  0  0  0  0
  -30.0746  -23.3137   20.3669 O   0  0  0  0  0  0
  -28.8313  -18.7396   20.5408 O   0  0  0  0  0  0
  -31.4734  -12.8466   19.1933 H   0  0  0  0  0  0
  -30.4693  -11.7285   20.0688 H   0  0  0  0  0  0
  -29.8704  -11.7364   17.6227 H   0  0  0  0  0  0
  -29.5961  -13.4604   17.6776 H   0  0  0  0  0  0
  -27.9841  -11.2727   19.0188 H   0  0  0  0  0  0
  -27.4016  -12.4105   17.8309 H   0  0  0  0  0  0
  -27.5724  -14.2474   19.3839 H   0  0  0  0  0  0
  -28.7809  -12.3636   21.4670 H   0  0  0  0  0  0
  -28.3423  -14.0339   21.7411 H   0  0  0  0  0  0
  -25.2773   -9.5680   22.4769 H   0  0  0  0  0  0
  -24.0006   -7.4635   22.7480 H   0  0  0  0  0  0
  -21.0852   -8.8780   19.8954 H   0  0  0  0  0  0
  -22.3714  -10.9676   19.6172 H   0  0  0  0  0  0
  -21.2006   -7.6149   23.9713 H   0  0  0  0  0  0
  -21.1482   -6.0526   25.9077 H   0  0  0  0  0  0
  -22.0596   -2.7610   23.2846 H   0  0  0  0  0  0
  -22.4064  -11.9849   22.4824 H   0  0  0  0  0  0
  -21.1055  -13.1201   22.2642 H   0  0  0  0  0  0
  -24.6289  -15.8364   20.5093 H   0  0  0  0  0  0
  -26.2349  -15.6331   20.0277 H   0  0  0  0  0  0
  -26.7319  -32.5234   23.0960 H   0  0  0  0  0  0
  -25.0077  -33.9572   25.0268 H   0  0  0  0  0  0
  -22.7673  -31.2818   21.3683 H   0  0  0  0  0  0
  -23.3763  -35.9562   23.3288 H   0  0  0  0  0  0
  -24.3573  -36.8893   22.2061 H   0  0  0  0  0  0
  -23.7245  -37.6423   23.6702 H   0  0  0  0  0  0
  -26.1887  -31.4324   20.6188 H   0  0  0  0  0  0
  -26.8888  -30.7357   22.0418 H   0  0  0  0  0  0
  -28.1421  -28.7147   21.2549 H   0  0  0  0  0  0
  -25.8850  -25.8085   18.9967 H   0  0  0  0  0  0
  -23.9866  -27.2929   18.9690 H   0  0  0  0  0  0
  -23.8374  -30.5516   19.3953 H   0  0  0  0  0  0
  -22.8052  -29.2265   19.8369 H   0  0  0  0  0  0
  -25.1323  -36.1821   25.0799 H   0  0  0  0  0  0
  -21.0024  -28.3345   24.1344 H   0  0  0  0  0  0
  -20.5692  -26.2356   23.3630 H   0  0  0  0  0  0
  -21.6661  -26.7437   22.1204 H   0  0  0  0  0  0
  -19.6932  -25.6300   21.1252 H   0  0  0  0  0  0
  -19.6703  -27.3194   20.6737 H   0  0  0  0  0  0
  -17.4222  -26.6691   21.4026 H   0  0  0  0  0  0
  -18.0346  -26.0096   22.9027 H   0  0  0  0  0  0
  -19.7957  -30.7315   24.2228 H   0  0  0  0  0  0
  -17.5030  -31.6278   24.5174 H   0  0  0  0  0  0
  -15.5371  -30.2980   23.7688 H   0  0  0  0  0  0
  -15.8701  -28.0821   22.7094 H   0  0  0  0  0  0
  -24.5893  -30.7106   25.7705 H   0  0  0  0  0  0
  -24.8879  -32.2962   26.4727 H   0  0  0  0  0  0
  -25.7961  -30.8999   27.0224 H   0  0  0  0  0  0
  -26.3068  -29.6639   24.1347 H   0  0  0  0  0  0
  -27.3985  -29.7265   25.4969 H   0  0  0  0  0  0
  -27.8995  -30.4153   23.9733 H   0  0  0  0  0  0
  -27.2636  -33.3667   26.2004 H   0  0  0  0  0  0
  -28.3913  -32.6851   25.0374 H   0  0  0  0  0  0
  -28.0672  -31.8519   26.5497 H   0  0  0  0  0  0
  -28.2580  -38.0082   24.7507 H   0  0  0  0  0  0
  -28.1080  -36.2608   24.6301 H   0  0  0  0  0  0
  -27.2288  -37.1428   25.8869 H   0  0  0  0  0  0
  -20.9525  -29.8742   21.6728 H   0  0  0  0  0  0
  -26.0143  -38.2792   24.1405 H   0  0  0  0  0  0
  -31.9737  -18.2084   19.9498 H   0  0  0  0  0  0
  -28.2632  -21.0735   22.5467 H   0  0  0  0  0  0
  -27.2189  -22.3718   22.0909 H   0  0  0  0  0  0
  -27.6382  -21.8347   18.3601 H   0  0  0  0  0  0
  -27.3206  -20.2359   18.9097 H   0  0  0  0  0  0
  -25.8785  -20.4119   22.7223 H   0  0  0  0  0  0
  -26.6579  -19.4275   21.5228 H   0  0  0  0  0  0
  -25.7940  -22.6828   19.8760 H   0  0  0  0  0  0
  -24.8931  -20.4389   18.0144 H   0  0  0  0  0  0
  -25.2553  -22.0911   17.5335 H   0  0  0  0  0  0
  -23.8961  -21.7715   18.5966 H   0  0  0  0  0  0
  -27.0435  -24.3148   20.8621 H   0  0  0  0  0  0
  -27.3900  -24.3245   19.1621 H   0  0  0  0  0  0
  -28.7188  -16.0052   20.7277 H   0  0  0  0  0  0
  -24.6215  -21.3957   21.2040 H   0  0  0  0  0  0
  -24.8802  -20.0165   20.4101 H   0  0  0  0  0  0
  1 25  1  0  0  0
  1 30  2  0  0  0
  1 83  1  0  0  0
  2  3  1  0  0  0
  2 25  1  0  0  0
  2 87  1  0  0  0
  2 88  1  0  0  0
  3  4  1  0  0  0
  3 89  1  0  0  0
  3 90  1  0  0  0
  4  5  1  0  0  0
  4 91  1  0  0  0
  4 92  1  0  0  0
  5  6  1  0  0  0
  5 26  1  0  0  0
  5 93  1  0  0  0
  6 25  1  0  0  0
  6 94  1  0  0  0
  6 95  1  0  0  0
  7  8  2  0  0  0
  7 26  1  0  0  0
  7 29  1  0  0  0
  8  9  1  0  0  0
  8 22  1  0  0  0
  9 10  1  0  0  0
  9 27  2  0  0  0
 10 11  2  0  0  0
 10 15  1  0  0  0
 11 12  1  0  0  0
 11 96  1  0  0  0
 12 13  2  0  0  0
 12 97  1  0  0  0
 13 14  1  0  0  0
 13 31  1  0  0  0
 14 15  2  0  0  0
 14 98  1  0  0  0
 15 99  1  0  0  0
 16 17  2  0  0  0
 16 21  1  0  0  0
 16 31  1  0  0  0
 17 18  1  0  0  0
 17100  1  0  0  0
 18 19  2  0  0  0
 18101  1  0  0  0
 19 20  1  0  0  0
 19 24  1  0  0  0
 20 21  2  0  0  0
 20102  1  0  0  0
 21 23  1  0  0  0
 22 28  1  0  0  0
 22 32  2  0  0  0
 26 27  1  0  0  0
 28103  1  0  0  0
 28104  1  0  0  0
 29105  1  0  0  0
 29106  1  0  0  0
 33 34  1  0  0  0
 33 66  1  0  0  0
 33 70  2  0  0  0
 34 36  1  0  0  0
 34 59  1  0  0  0
 34107  1  0  0  0
 35 44  2  0  0  0
 35 45  1  0  0  0
 35 68  1  0  0  0
 36 56  1  0  0  0
 36108  1  0  0  0
 37 39  1  0  0  0
 37 47  1  0  0  0
 37 66  1  0  0  0
 37109  1  0  0  0
 38 43  2  0  0  0
 38 46  1  0  0  0
 38 47  1  0  0  0
 39 64  1  0  0  0
 39 67  2  0  0  0
 40 52  1  0  0  0
 40 53  2  0  0  0
 40 58  1  0  0  0
 41110  1  0  0  0
 41111  1  0  0  0
 41112  1  0  0  0
 41 48  1  0  0  0
 42 43  1  0  0  0
 42 66  1  0  0  0
 42113  1  0  0  0
 42114  1  0  0  0
 43 44  1  0  0  0
 44115  1  0  0  0
 45 46  2  0  0  0
 45116  1  0  0  0
 46117  1  0  0  0
 47118  1  0  0  0
 47119  1  0  0  0
 48 56  1  0  0  0
 48 65  1  0  0  0
 48120  1  0  0  0
 49 50  1  0  0  0
 49 53  1  0  0  0
 49 64  1  0  0  0
 49121  1  0  0  0
 50 51  1  0  0  0
 50122  1  0  0  0
 50123  1  0  0  0
 51 52  1  0  0  0
 51124  1  0  0  0
 51125  1  0  0  0
 52126  1  0  0  0
 52127  1  0  0  0
 53 54  1  0  0  0
 54 55  2  0  0  0
 54128  1  0  0  0
 55 57  1  0  0  0
 55129  1  0  0  0
 56 69  2  0  0  0
 57 58  2  0  0  0
 57130  1  0  0  0
 58131  1  0  0  0
 59 60  1  0  0  0
 59 61  1  0  0  0
 59 62  1  0  0  0
 60132  1  0  0  0
 60133  1  0  0  0
 60134  1  0  0  0
 61135  1  0  0  0
 61136  1  0  0  0
 61137  1  0  0  0
 62138  1  0  0  0
 62139  1  0  0  0
 62140  1  0  0  0
 63 65  1  0  0  0
 63141  1  0  0  0
 63142  1  0  0  0
 63143  1  0  0  0
 64144  1  0  0  0
 65145  1  0  0  0
 68 81  1  0  0  0
 71 72  2  0  0  0
 71 82  1  0  0  0
 71146  1  0  0  0
 72 83  1  0  0  0
 72 86  1  0  0  0
 73 79  1  0  0  0
 73 82  2  0  0  0
 73 86  1  0  0  0
 74 81  1  0  0  0
 74 85  2  0  0  0
 74 79  1  0  0  0
 75 77  1  0  0  0
 75 79  1  0  0  0
 75147  1  0  0  0
 75148  1  0  0  0
 76 78  1  0  0  0
 76 79  1  0  0  0
 76149  1  0  0  0
 76150  1  0  0  0
 77 84  1  0  0  0
 77151  1  0  0  0
 77152  1  0  0  0
 78 80  1  0  0  0
 78 84  1  0  0  0
 78153  1  0  0  0
 80154  1  0  0  0
 80155  1  0  0  0
 80156  1  0  0  0
 81157  1  0  0  0
 81158  1  0  0  0
 83159  1  0  0  0
 84160  1  0  0  0
 84161  1  0  0  0
M  CHG  1  84   1
M  ISO  4   1 100  68 101  81 101  83 100
M  END
> <chiral flag>
0

> <version>
0

> <s_m_source_file>
/data/baiqing/PycharmProjects/Reinvent-master-3.2/result/LINK_invent/BTK/process_docking_weight1_custom_product_contain_oxygen_bond_distance_aromatic_linkinvent_7_9_3/rearranged_h_0161.sdf

> <i_m_source_file_index>
76

> <r_mmod_Potential_Energy-OPLS-2005>
553.573486328125

> <r_mmod_Stretch_Energy-OPLS-2005>
362.424743652344

> <r_mmod_Bend_Energy-OPLS-2005>
321.496154785156

> <r_mmod_Torsional_Energy-OPLS-2005>
270.000701904297

> <r_mmod_Improper_Torsional_Energy-OPLS-2005>
4.31140995025635

> <r_mmod_Van_der_Waal_Energy-OPLS-2005>
116.775871276855

> <r_mmod_Electrostatic_Energy-OPLS-2005>
-240.688629150391

> <r_mmod_Solvation_Energy-OPLS-2005>
-564.32861328125

> <b_mmod_Minimization_Converged-OPLS-2005>
0

> <r_mmod_RMS_Derivative-OPLS-2005>
0.400250375270844

$$$$
76
                    3D
 Structure written by MMmdl.
150158  0  0  1  0            999 V2000
  -30.5829  -14.8057   20.4425 C   0  0  0  0  0  0
  -30.4411  -12.4933   19.4751 C   0  0  0  0  0  0
  -29.5132  -12.5064   18.2397 C   0  0  0  0  0  0
  -28.0437  -12.3131   18.6615 C   0  0  0  0  0  0
  -27.6392  -13.2300   19.8450 C   0  0  2  0  0  0
  -28.6859  -13.1937   20.9800 C   0  0  0  0  0  0
  -25.2501  -13.8185   20.5685 C   0  0  0  0  0  0
  -24.1804  -13.0430   20.9215 C   0  0  0  0  0  0
  -24.6395  -11.6905   20.8761 C   0  0  0  0  0  0
  -23.9069  -10.4291   21.0422 C   0  0  0  0  0  0
  -24.3621   -9.4200   21.9189 C   0  0  0  0  0  0
  -23.6295   -8.2237   22.0757 C   0  0  0  0  0  0
  -22.4272   -8.0282   21.3551 C   0  0  0  0  0  0
  -21.9914   -9.0250   20.4645 C   0  0  0  0  0  0
  -22.7245  -10.2129   20.3059 C   0  0  0  0  0  0
  -21.6848   -6.0734   22.5274 C   0  0  0  0  0  0
  -21.4015   -6.5638   23.8207 C   0  0  0  0  0  0
  -21.3662   -5.6791   24.9170 C   0  0  0  0  0  0
  -21.6045   -4.3053   24.7222 C   0  0  0  0  0  0
  -21.8819   -3.8146   23.4341 C   0  0  0  0  0  0
  -21.9193   -4.6965   22.3398 C   0  0  0  0  0  0
  -22.7827  -13.5215   21.1862 C   0  0  0  0  0  0
  -22.1659   -4.2150   21.0975 F   0  0  0  0  0  0
  -21.5631   -3.4537   25.7734 F   0  0  0  0  0  0
  -29.9798  -13.5636   20.3910 N   0  0  0  0  0  0
  -26.2927  -12.9382   20.3263 N   0  0  0  0  0  0
  -25.9328  -11.6529   20.5765 N   0  0  0  0  0  0
  -22.0477  -12.8209   22.0425 N   0  0  0  0  0  0
  -25.4168  -15.1908   20.4061 N   0  0  0  0  0  0
  -31.7839  -14.9016   20.1685 O   0  0  0  0  0  0
  -21.6637   -6.8876   21.4235 O   0  0  0  0  0  0
  -22.3514  -14.5524   20.6710 O   0  0  0  0  0  0
  -24.6342  -31.8525   23.1928 C   0  0  0  0  0  0
  -25.9154  -32.4737   23.8303 C   0  0  1  0  0  0
  -27.2320  -27.2346   20.1510 C   0  0  0  0  0  0
  -25.5932  -33.8535   24.2231 N   0  0  0  0  0  0
  -23.4343  -30.4702   21.5356 C   0  0  2  0  0  0
  -24.8851  -28.9023   20.1168 C   0  0  0  0  0  0
  -22.7535  -29.4573   22.4893 C   0  0  0  0  0  0
  -18.0305  -28.1382   22.8472 C   0  0  0  0  0  0
  -24.1493  -36.7264   23.2643 C   0  0  0  0  0  0
  -25.9796  -30.7592   21.3731 C   0  0  0  0  0  0
  -26.0559  -29.3748   20.7231 C   0  0  0  0  0  0
  -27.2331  -28.5562   20.7214 C   0  0  0  0  0  0
  -26.0379  -26.8258   19.5227 C   0  0  0  0  0  0
  -24.8811  -27.6366   19.5046 C   0  0  0  0  0  0
  -23.6579  -29.7959   20.1557 C   0  0  0  0  0  0
  -25.4124  -36.3049   24.0326 C   0  0  1  0  0  0
  -20.5915  -28.3688   23.1258 C   0  0  2  0  0  0
  -20.6795  -26.9405   22.5405 C   0  0  0  0  0  0
  -19.5766  -26.6380   21.5206 C   0  0  0  0  0  0
  -18.1943  -26.7921   22.1619 C   0  0  0  0  0  0
  -19.1564  -28.8852   23.2862 C   0  0  0  0  0  0
  -18.9488  -30.1451   23.8876 C   0  0  0  0  0  0
  -17.6489  -30.6574   24.0562 C   0  0  0  0  0  0
  -25.9067  -34.9423   23.5088 C   0  0  0  0  0  0
  -16.5375  -29.9079   23.6321 C   0  0  0  0  0  0
  -16.7295  -28.6502   23.0337 C   0  0  0  0  0  0
  -26.4512  -31.6570   25.0700 C   0  0  0  0  0  0
  -25.3711  -31.3735   26.1407 C   0  0  0  0  0  0
  -27.0358  -30.2990   24.6180 C   0  0  0  0  0  0
  -27.6070  -32.4316   25.7469 C   0  0  0  0  0  0
  -27.5582  -37.1789   24.8470 C   0  0  0  0  0  0
  -21.4238  -29.3029   22.3644 N   0  0  0  0  0  0
  -26.4290  -37.3752   23.9420 N   0  0  0  0  0  0
  -24.7014  -31.0471   22.0909 N   0  0  0  0  0  0
  -23.4211  -28.8129   23.3019 O   0  0  0  0  0  0
  -28.3500  -26.3609   20.1299 O   0  0  0  0  0  0
  -26.5639  -34.8904   22.4662 O   0  0  0  0  0  0
  -23.5477  -32.1349   23.7219 O   0  0  0  0  0  0
  -28.9739  -18.4459   20.2357 C   0  0  0  0  0  0
  -31.1977  -18.0296   20.7788 C   0  0  0  0  0  0
  -29.9940  -17.4146   20.5211 C   0  0  0  0  0  0
  -29.3879  -19.7989   20.2554 C   0  0  0  0  0  0
  -28.7048  -21.1301   19.7781 C   0  0  0  0  0  0
  -28.3717  -23.6476   19.8853 C   0  0  0  0  0  0
  -27.3482  -24.8801   21.9294 C   0  0  0  0  0  0
  -28.3811  -24.9864   20.7923 C   0  0  2  0  0  0
  -29.7611  -15.9320   20.5671 N   0  0  0  0  0  0
  -28.8657  -22.4062   20.3331 N   0  0  0  0  0  0
  -27.9258  -20.9618   18.8346 O   0  0  0  0  0  0
  -27.8883  -23.7812   18.7557 O   0  0  0  0  0  0
  -31.0952  -19.8017   20.6649 S   0  0  0  0  0  0
  -31.4779  -12.6366   19.1670 H   0  0  0  0  0  0
  -30.4058  -11.5254   19.9769 H   0  0  0  0  0  0
  -29.8079  -11.7232   17.5396 H   0  0  0  0  0  0
  -29.6206  -13.4524   17.7060 H   0  0  0  0  0  0
  -27.9240  -11.2691   18.9516 H   0  0  0  0  0  0
  -27.3784  -12.4690   17.8121 H   0  0  0  0  0  0
  -27.6224  -14.2425   19.4418 H   0  0  0  0  0  0
  -28.7393  -12.2027   21.4329 H   0  0  0  0  0  0
  -28.4106  -13.8820   21.7807 H   0  0  0  0  0  0
  -25.2767   -9.5670   22.4762 H   0  0  0  0  0  0
  -23.9995   -7.4633   22.7490 H   0  0  0  0  0  0
  -21.0841   -8.8777   19.8960 H   0  0  0  0  0  0
  -22.3710  -10.9668   19.6172 H   0  0  0  0  0  0
  -21.2006   -7.6148   23.9709 H   0  0  0  0  0  0
  -21.1486   -6.0523   25.9073 H   0  0  0  0  0  0
  -22.0600   -2.7608   23.2839 H   0  0  0  0  0  0
  -22.4091  -11.9856   22.4787 H   0  0  0  0  0  0
  -21.1111  -13.1245   22.2665 H   0  0  0  0  0  0
  -24.6365  -15.8331   20.4946 H   0  0  0  0  0  0
  -26.2443  -15.6270   20.0213 H   0  0  0  0  0  0
  -26.7228  -32.5390   23.1057 H   0  0  0  0  0  0
  -25.0036  -33.9663   25.0352 H   0  0  0  0  0  0
  -22.7319  -31.2933   21.3842 H   0  0  0  0  0  0
  -23.3748  -35.9600   23.3297 H   0  0  0  0  0  0
  -24.3584  -36.8897   22.2060 H   0  0  0  0  0  0
  -23.7251  -37.6463   23.6678 H   0  0  0  0  0  0
  -26.1166  -31.5155   20.5987 H   0  0  0  0  0  0
  -26.8577  -30.8168   22.0047 H   0  0  0  0  0  0
  -28.1371  -28.9214   21.1885 H   0  0  0  0  0  0
  -25.9954  -25.8540   19.0521 H   0  0  0  0  0  0
  -23.9838  -27.2699   19.0244 H   0  0  0  0  0  0
  -23.7927  -30.5684   19.3977 H   0  0  0  0  0  0
  -22.7757  -29.2320   19.8451 H   0  0  0  0  0  0
  -25.1305  -36.1886   25.0818 H   0  0  0  0  0  0
  -21.0023  -28.3273   24.1373 H   0  0  0  0  0  0
  -20.5702  -26.2296   23.3617 H   0  0  0  0  0  0
  -21.6659  -26.7415   22.1199 H   0  0  0  0  0  0
  -19.6926  -25.6292   21.1227 H   0  0  0  0  0  0
  -19.6706  -27.3199   20.6743 H   0  0  0  0  0  0
  -17.4226  -26.6677   21.4013 H   0  0  0  0  0  0
  -18.0332  -26.0057   22.9009 H   0  0  0  0  0  0
  -19.7967  -30.7261   24.2254 H   0  0  0  0  0  0
  -17.5040  -31.6257   24.5158 H   0  0  0  0  0  0
  -15.5374  -30.2976   23.7647 H   0  0  0  0  0  0
  -15.8697  -28.0826   22.7035 H   0  0  0  0  0  0
  -24.5927  -30.7040   25.7744 H   0  0  0  0  0  0
  -24.8848  -32.2895   26.4755 H   0  0  0  0  0  0
  -25.8011  -30.8976   27.0234 H   0  0  0  0  0  0
  -26.2918  -29.6742   24.1226 H   0  0  0  0  0  0
  -27.4063  -29.7263   25.4697 H   0  0  0  0  0  0
  -27.8794  -30.4269   23.9399 H   0  0  0  0  0  0
  -27.2704  -33.3670   26.1954 H   0  0  0  0  0  0
  -28.3924  -32.6794   25.0315 H   0  0  0  0  0  0
  -28.0680  -31.8484   26.5453 H   0  0  0  0  0  0
  -28.2586  -38.0102   24.7526 H   0  0  0  0  0  0
  -28.1097  -36.2628   24.6282 H   0  0  0  0  0  0
  -27.2302  -37.1409   25.8876 H   0  0  0  0  0  0
  -20.9444  -29.8754   21.6848 H   0  0  0  0  0  0
  -26.0159  -38.2815   24.1442 H   0  0  0  0  0  0
  -27.9629  -18.1626   19.9773 H   0  0  0  0  0  0
  -32.1478  -17.5685   21.0256 H   0  0  0  0  0  0
  -27.4307  -23.9286   22.4538 H   0  0  0  0  0  0
  -26.3278  -24.9534   21.5554 H   0  0  0  0  0  0
  -27.4976  -25.6689   22.6672 H   0  0  0  0  0  0
  -29.3583  -24.9617   21.2754 H   0  0  0  0  0  0
  -28.7899  -15.6780   20.6562 H   0  0  0  0  0  0
  -29.3837  -22.4316   21.1968 H   0  0  0  0  0  0
  1 25  1  0  0  0
  1 30  2  0  0  0
  1 79  1  0  0  0
  2  3  1  0  0  0
  2 25  1  0  0  0
  2 84  1  0  0  0
  2 85  1  0  0  0
  3  4  1  0  0  0
  3 86  1  0  0  0
  3 87  1  0  0  0
  4  5  1  0  0  0
  4 88  1  0  0  0
  4 89  1  0  0  0
  5  6  1  0  0  0
  5 26  1  0  0  0
  5 90  1  0  0  0
  6 25  1  0  0  0
  6 91  1  0  0  0
  6 92  1  0  0  0
  7  8  2  0  0  0
  7 26  1  0  0  0
  7 29  1  0  0  0
  8  9  1  0  0  0
  8 22  1  0  0  0
  9 10  1  0  0  0
  9 27  2  0  0  0
 10 11  2  0  0  0
 10 15  1  0  0  0
 11 12  1  0  0  0
 11 93  1  0  0  0
 12 13  2  0  0  0
 12 94  1  0  0  0
 13 14  1  0  0  0
 13 31  1  0  0  0
 14 15  2  0  0  0
 14 95  1  0  0  0
 15 96  1  0  0  0
 16 17  2  0  0  0
 16 21  1  0  0  0
 16 31  1  0  0  0
 17 18  1  0  0  0
 17 97  1  0  0  0
 18 19  2  0  0  0
 18 98  1  0  0  0
 19 20  1  0  0  0
 19 24  1  0  0  0
 20 21  2  0  0  0
 20 99  1  0  0  0
 21 23  1  0  0  0
 22 28  1  0  0  0
 22 32  2  0  0  0
 26 27  1  0  0  0
 28100  1  0  0  0
 28101  1  0  0  0
 29102  1  0  0  0
 29103  1  0  0  0
 33 34  1  0  0  0
 33 66  1  0  0  0
 33 70  2  0  0  0
 34 36  1  0  0  0
 34 59  1  0  0  0
 34104  1  0  0  0
 35 44  2  0  0  0
 35 45  1  0  0  0
 35 68  1  0  0  0
 36 56  1  0  0  0
 36105  1  0  0  0
 37 39  1  0  0  0
 37 47  1  0  0  0
 37 66  1  0  0  0
 37106  1  0  0  0
 38 43  2  0  0  0
 38 46  1  0  0  0
 38 47  1  0  0  0
 39 64  1  0  0  0
 39 67  2  0  0  0
 40 52  1  0  0  0
 40 53  2  0  0  0
 40 58  1  0  0  0
 41107  1  0  0  0
 41108  1  0  0  0
 41109  1  0  0  0
 41 48  1  0  0  0
 42 43  1  0  0  0
 42 66  1  0  0  0
 42110  1  0  0  0
 42111  1  0  0  0
 43 44  1  0  0  0
 44112  1  0  0  0
 45 46  2  0  0  0
 45113  1  0  0  0
 46114  1  0  0  0
 47115  1  0  0  0
 47116  1  0  0  0
 48 56  1  0  0  0
 48 65  1  0  0  0
 48117  1  0  0  0
 49 50  1  0  0  0
 49 53  1  0  0  0
 49 64  1  0  0  0
 49118  1  0  0  0
 50 51  1  0  0  0
 50119  1  0  0  0
 50120  1  0  0  0
 51 52  1  0  0  0
 51121  1  0  0  0
 51122  1  0  0  0
 52123  1  0  0  0
 52124  1  0  0  0
 53 54  1  0  0  0
 54 55  2  0  0  0
 54125  1  0  0  0
 55 57  1  0  0  0
 55126  1  0  0  0
 56 69  2  0  0  0
 57 58  2  0  0  0
 57127  1  0  0  0
 58128  1  0  0  0
 59 60  1  0  0  0
 59 61  1  0  0  0
 59 62  1  0  0  0
 60129  1  0  0  0
 60130  1  0  0  0
 60131  1  0  0  0
 61132  1  0  0  0
 61133  1  0  0  0
 61134  1  0  0  0
 62135  1  0  0  0
 62136  1  0  0  0
 62137  1  0  0  0
 63 65  1  0  0  0
 63138  1  0  0  0
 63139  1  0  0  0
 63140  1  0  0  0
 64141  1  0  0  0
 65142  1  0  0  0
 68 78  1  0  0  0
 71 73  1  0  0  0
 71 74  2  0  0  0
 71143  1  0  0  0
 72 73  2  0  0  0
 72 83  1  0  0  0
 72144  1  0  0  0
 73 79  1  0  0  0
 74 75  1  0  0  0
 74 83  1  0  0  0
 75 80  1  0  0  0
 75 81  2  0  0  0
 76 78  1  0  0  0
 76 80  1  0  0  0
 76 82  2  0  0  0
 77145  1  0  0  0
 77146  1  0  0  0
 77147  1  0  0  0
 77 78  1  0  0  0
 78148  1  0  0  0
 79149  1  0  0  0
 80150  1  0  0  0
M  ISO  4   1 100  68 101  78 101  79 100
M  END
> <chiral flag>
0

> <version>
0

> <s_m_source_file>
/data/baiqing/PycharmProjects/Reinvent-master-3.2/result/LINK_invent/BTK/process_docking_weight1_custom_product_contain_oxygen_bond_distance_aromatic_linkinvent_7_9_3/rearranged_h_0161.sdf

> <i_m_source_file_index>
77

> <r_mmod_Potential_Energy-OPLS-2005>
97.1454086303711

> <r_mmod_Stretch_Energy-OPLS-2005>
144.980682373047

> <r_mmod_Bend_Energy-OPLS-2005>
195.014038085938

> <r_mmod_Torsional_Energy-OPLS-2005>
269.842010498047

> <r_mmod_Improper_Torsional_Energy-OPLS-2005>
6.83008146286011

> <r_mmod_Van_der_Waal_Energy-OPLS-2005>
112.879325866699

> <r_mmod_Electrostatic_Energy-OPLS-2005>
-460.46484375

> <r_mmod_Solvation_Energy-OPLS-2005>
-276.80615234375

> <b_mmod_Minimization_Converged-OPLS-2005>
0

> <r_mmod_RMS_Derivative-OPLS-2005>
1.89468109607697

$$$$
77
                    3D
 Structure written by MMmdl.
157165  0  0  1  0            999 V2000
  -29.9361  -15.3876   20.4632 C   0  0  0  0  0  0
  -30.4002  -12.9328   19.6012 C   0  0  0  0  0  0
  -29.5460  -12.6283   18.3386 C   0  0  0  0  0  0
  -28.0927  -12.2833   18.7221 C   0  0  0  0  0  0
  -27.5688  -13.2332   19.8265 C   0  0  2  0  0  0
  -28.5340  -13.3329   21.0097 C   0  0  0  0  0  0
  -25.2171  -13.8110   20.5624 C   0  0  0  0  0  0
  -24.1558  -13.0350   20.9263 C   0  0  0  0  0  0
  -24.6176  -11.6835   20.8756 C   0  0  0  0  0  0
  -23.8920  -10.4228   21.0436 C   0  0  0  0  0  0
  -24.3532   -9.4165   21.9198 C   0  0  0  0  0  0
  -23.6244   -8.2184   22.0753 C   0  0  0  0  0  0
  -22.4227   -8.0216   21.3541 C   0  0  0  0  0  0
  -21.9829   -9.0173   20.4646 C   0  0  0  0  0  0
  -22.7114  -10.2068   20.3070 C   0  0  0  0  0  0
  -21.6831   -6.0694   22.5282 C   0  0  0  0  0  0
  -21.3996   -6.5613   23.8209 C   0  0  0  0  0  0
  -21.3660   -5.6776   24.9177 C   0  0  0  0  0  0
  -21.6054   -4.3039   24.7237 C   0  0  0  0  0  0
  -21.8818   -3.8120   23.4359 C   0  0  0  0  0  0
  -21.9184   -4.6927   22.3410 C   0  0  0  0  0  0
  -22.7623  -13.5160   21.1952 C   0  0  0  0  0  0
  -22.1656   -4.2115   21.0988 F   0  0  0  0  0  0
  -21.5640   -3.4530   25.7754 F   0  0  0  0  0  0
  -29.6976  -13.9833   20.4451 N   0  0  0  0  0  0
  -26.2417  -12.9248   20.2926 N   0  0  0  0  0  0
  -25.9033  -11.6418   20.5568 N   0  0  0  0  0  0
  -22.0288  -12.8172   22.0529 N   0  0  0  0  0  0
  -25.3878  -15.1851   20.4064 N   0  0  0  0  0  0
  -31.1358  -15.6058   20.1712 O   0  0  0  0  0  0
  -21.6604   -6.8816   21.4235 O   0  0  0  0  0  0
  -22.3350  -14.5477   20.6784 O   0  0  0  0  0  0
  -24.6793  -31.9231   23.1988 C   0  0  0  0  0  0
  -25.9609  -32.4995   23.8458 C   0  0  1  0  0  0
  -26.2564  -27.0712   20.4430 C   0  0  0  0  0  0
  -25.6390  -33.8739   24.2448 N   0  0  0  0  0  0
  -23.4895  -30.5856   21.5606 C   0  0  2  0  0  0
  -24.7777  -29.1486   19.9166 C   0  0  0  0  0  0
  -23.0925  -29.4920   22.5554 C   0  0  0  0  0  0
  -18.6013  -28.0997   22.1055 C   0  0  0  0  0  0
  -24.1516  -36.7316   23.2608 C   0  0  0  0  0  0
  -26.0039  -30.7720   21.3901 C   0  0  0  0  0  0
  -25.9153  -29.4182   20.6886 C   0  0  0  0  0  0
  -26.8005  -28.3331   20.8732 C   0  0  0  0  0  0
  -25.7641  -27.0579   19.1667 C   0  0  0  0  0  0
  -24.7467  -28.0170   19.0673 C   0  0  0  0  0  0
  -23.6063  -30.0608   20.1006 C   0  0  0  0  0  0
  -25.4142  -36.3148   24.0319 C   0  0  1  0  0  0
  -21.2921  -28.2849   23.5626 C   0  0  2  0  0  0
  -21.8960  -26.1128   23.5144 C   0  0  0  0  0  0
  -20.3905  -25.0538   22.0368 C   0  0  0  0  0  0
  -18.9248  -26.3974   21.3564 C   0  0  0  0  0  0
  -19.6526  -28.8954   22.9853 C   0  0  0  0  0  0
  -19.1688  -30.0225   23.7399 C   0  0  0  0  0  0
  -17.8126  -30.4016   23.8580 C   0  0  0  0  0  0
  -25.9174  -34.9562   23.5101 C   0  0  0  0  0  0
  -16.8358  -29.5983   23.2548 C   0  0  0  0  0  0
  -17.2251  -28.4882   22.4390 C   0  0  0  0  0  0
  -26.4641  -31.6627   25.0839 C   0  0  0  0  0  0
  -25.3714  -31.3804   26.1421 C   0  0  0  0  0  0
  -27.0426  -30.3015   24.6331 C   0  0  0  0  0  0
  -27.6176  -32.4240   25.7756 C   0  0  0  0  0  0
  -27.5602  -37.1855   24.8458 C   0  0  0  0  0  0
  -21.8357  -29.3499   22.7626 N   0  0  0  0  0  0
  -26.4287  -37.3865   23.9442 N   0  0  0  0  0  0
  -24.7473  -31.1625   22.0707 N   0  0  0  0  0  0
  -23.8758  -28.7981   23.1920 O   0  0  0  0  0  0
  -25.1647  -26.5755   21.2530 O   0  0  0  0  0  0
  -26.5570  -34.9008   22.4567 O   0  0  0  0  0  0
  -23.5936  -32.1926   23.7392 O   0  0  0  0  0  0
  -27.1612  -18.9476   20.9765 C   0  0  0  0  0  0
  -27.9626  -20.9562   20.0085 C   0  0  0  0  0  0
  -29.2537  -18.8978   19.8469 C   0  0  0  0  0  0
  -26.8522  -20.4798   20.7408 C   0  0  0  0  0  0
  -28.3864  -18.0400   20.5578 C   0  0  0  0  0  0
  -25.6057  -21.6313   21.1832 C   0  0  0  0  0  0
  -21.5408  -27.0138   21.4062 C   0  0  0  0  0  0
  -19.7551  -26.5847   23.5092 C   0  0  0  0  0  0
  -23.8739  -24.2067   21.3196 C   0  0  0  0  0  0
  -23.4534  -26.0392   21.0816 C   0  0  2  0  0  0
  -29.0557  -20.2311   19.5968 N   0  0  0  0  0  0
  -24.7933  -21.1056   22.1082 N   0  0  0  0  0  0
  -28.8298  -16.4254   20.7128 N   0  0  0  0  0  0
  -25.1453  -23.0746   20.8794 N   0  3  0  0  0  0
  -21.2137  -27.7789   20.4907 O   0  0  0  0  0  0
  -31.3907  -13.2788   19.3031 H   0  0  0  0  0  0
  -30.5737  -12.0240   20.1798 H   0  0  0  0  0  0
  -29.9954  -11.8211   17.7583 H   0  0  0  0  0  0
  -29.5481  -13.5089   17.6956 H   0  0  0  0  0  0
  -28.0819  -11.2573   19.0928 H   0  0  0  0  0  0
  -27.4457  -12.3026   17.8448 H   0  0  0  0  0  0
  -27.5001  -14.2117   19.3499 H   0  0  0  0  0  0
  -28.7566  -12.3546   21.4399 H   0  0  0  0  0  0
  -28.1119  -13.9385   21.8140 H   0  0  0  0  0  0
  -25.2674   -9.5664   22.4769 H   0  0  0  0  0  0
  -23.9964   -7.4567   22.7457 H   0  0  0  0  0  0
  -21.0765   -8.8656   19.8955 H   0  0  0  0  0  0
  -22.3545  -10.9603   19.6191 H   0  0  0  0  0  0
  -21.1976   -7.6121   23.9700 H   0  0  0  0  0  0
  -21.1497   -6.0513   25.9081 H   0  0  0  0  0  0
  -22.0603   -2.7582   23.2869 H   0  0  0  0  0  0
  -22.3904  -11.9832   22.4914 H   0  0  0  0  0  0
  -21.0925  -13.1217   22.2770 H   0  0  0  0  0  0
  -24.5777  -15.7922   20.4664 H   0  0  0  0  0  0
  -26.1349  -15.5885   19.8570 H   0  0  0  0  0  0
  -26.7728  -32.5466   23.1218 H   0  0  0  0  0  0
  -25.0668  -33.9856   25.0689 H   0  0  0  0  0  0
  -22.7156  -31.3572   21.5516 H   0  0  0  0  0  0
  -23.3818  -35.9603   23.3212 H   0  0  0  0  0  0
  -24.3637  -36.8997   22.2038 H   0  0  0  0  0  0
  -23.7211  -37.6477   23.6659 H   0  0  0  0  0  0
  -26.2405  -31.5307   20.6432 H   0  0  0  0  0  0
  -26.8619  -30.7231   22.0497 H   0  0  0  0  0  0
  -27.5592  -28.3905   21.6418 H   0  0  0  0  0  0
  -25.6036  -26.1307   18.6349 H   0  0  0  0  0  0
  -23.9281  -27.8698   18.3763 H   0  0  0  0  0  0
  -23.7435  -30.9093   19.4295 H   0  0  0  0  0  0
  -22.6854  -29.5859   19.7744 H   0  0  0  0  0  0
  -25.1297  -36.1979   25.0803 H   0  0  0  0  0  0
  -21.4271  -28.6118   24.5956 H   0  0  0  0  0  0
  -21.7959  -25.6882   24.5187 H   0  0  0  0  0  0
  -22.9656  -25.9592   23.3988 H   0  0  0  0  0  0
  -19.9081  -24.2152   22.5475 H   0  0  0  0  0  0
  -20.8713  -24.5457   21.1960 H   0  0  0  0  0  0
  -19.0449  -26.5435   20.2816 H   0  0  0  0  0  0
  -17.9736  -25.8654   21.4050 H   0  0  0  0  0  0
  -19.8796  -30.5698   24.3440 H   0  0  0  0  0  0
  -17.5284  -31.2441   24.4734 H   0  0  0  0  0  0
  -15.7870  -29.8200   23.4014 H   0  0  0  0  0  0
  -16.4313  -27.8822   22.0237 H   0  0  0  0  0  0
  -24.5887  -30.7228   25.7618 H   0  0  0  0  0  0
  -24.8937  -32.2996   26.4819 H   0  0  0  0  0  0
  -25.7893  -30.8918   27.0232 H   0  0  0  0  0  0
  -26.3039  -29.6858   24.1195 H   0  0  0  0  0  0
  -27.3896  -29.7192   25.4876 H   0  0  0  0  0  0
  -27.9031  -30.4250   23.9753 H   0  0  0  0  0  0
  -27.2811  -33.3544   26.2343 H   0  0  0  0  0  0
  -28.4086  -32.6768   25.0680 H   0  0  0  0  0  0
  -28.0712  -31.8297   26.5696 H   0  0  0  0  0  0
  -28.2543  -38.0226   24.7611 H   0  0  0  0  0  0
  -28.1184  -36.2769   24.6145 H   0  0  0  0  0  0
  -27.2351  -37.1330   25.8863 H   0  0  0  0  0  0
  -21.1754  -29.9320   22.2650 H   0  0  0  0  0  0
  -26.0148  -38.2912   24.1523 H   0  0  0  0  0  0
  -26.3954  -18.4288   21.5345 H   0  0  0  0  0  0
  -27.9868  -22.0009   19.7365 H   0  0  0  0  0  0
  -30.1651  -18.4930   19.4324 H   0  0  0  0  0  0
  -19.8452  -25.6436   24.0740 H   0  0  0  0  0  0
  -18.6823  -26.3668   23.4658 H   0  0  0  0  0  0
  -19.7394  -27.1443   24.4538 H   0  0  0  0  0  0
  -22.9740  -23.6866   20.9944 H   0  0  0  0  0  0
  -23.8587  -24.0920   22.4029 H   0  0  0  0  0  0
  -23.3580  -26.0583   19.9974 H   0  0  0  0  0  0
  -24.9441  -20.1734   22.4632 H   0  0  0  0  0  0
  -24.0465  -21.6332   22.5301 H   0  0  0  0  0  0
  -28.0436  -15.9005   21.0702 H   0  0  0  0  0  0
  -25.7316  -23.5076   20.1780 H   0  0  0  0  0  0
  1 25  1  0  0  0
  1 30  2  0  0  0
  1 83  1  0  0  0
  2  3  1  0  0  0
  2 25  1  0  0  0
  2 86  1  0  0  0
  2 87  1  0  0  0
  3  4  1  0  0  0
  3 88  1  0  0  0
  3 89  1  0  0  0
  4  5  1  0  0  0
  4 90  1  0  0  0
  4 91  1  0  0  0
  5  6  1  0  0  0
  5 26  1  0  0  0
  5 92  1  0  0  0
  6 25  1  0  0  0
  6 93  1  0  0  0
  6 94  1  0  0  0
  7  8  2  0  0  0
  7 26  1  0  0  0
  7 29  1  0  0  0
  8  9  1  0  0  0
  8 22  1  0  0  0
  9 10  1  0  0  0
  9 27  2  0  0  0
 10 11  2  0  0  0
 10 15  1  0  0  0
 11 12  1  0  0  0
 11 95  1  0  0  0
 12 13  2  0  0  0
 12 96  1  0  0  0
 13 14  1  0  0  0
 13 31  1  0  0  0
 14 15  2  0  0  0
 14 97  1  0  0  0
 15 98  1  0  0  0
 16 17  2  0  0  0
 16 21  1  0  0  0
 16 31  1  0  0  0
 17 18  1  0  0  0
 17 99  1  0  0  0
 18 19  2  0  0  0
 18100  1  0  0  0
 19 20  1  0  0  0
 19 24  1  0  0  0
 20 21  2  0  0  0
 20101  1  0  0  0
 21 23  1  0  0  0
 22 28  1  0  0  0
 22 32  2  0  0  0
 26 27  1  0  0  0
 28102  1  0  0  0
 28103  1  0  0  0
 29104  1  0  0  0
 29105  1  0  0  0
 33 34  1  0  0  0
 33 66  1  0  0  0
 33 70  2  0  0  0
 34 36  1  0  0  0
 34 59  1  0  0  0
 34106  1  0  0  0
 35 44  2  0  0  0
 35 45  1  0  0  0
 35 68  1  0  0  0
 36 56  1  0  0  0
 36107  1  0  0  0
 37 39  1  0  0  0
 37 47  1  0  0  0
 37 66  1  0  0  0
 37108  1  0  0  0
 38 43  2  0  0  0
 38 46  1  0  0  0
 38 47  1  0  0  0
 39 64  1  0  0  0
 39 67  2  0  0  0
 40 52  1  0  0  0
 40 53  2  0  0  0
 40 58  1  0  0  0
 41109  1  0  0  0
 41110  1  0  0  0
 41111  1  0  0  0
 41 48  1  0  0  0
 42 43  1  0  0  0
 42 66  1  0  0  0
 42112  1  0  0  0
 42113  1  0  0  0
 43 44  1  0  0  0
 44114  1  0  0  0
 45 46  2  0  0  0
 45115  1  0  0  0
 46116  1  0  0  0
 47117  1  0  0  0
 47118  1  0  0  0
 48 56  1  0  0  0
 48 65  1  0  0  0
 48119  1  0  0  0
 49 50  1  0  0  0
 49 53  1  0  0  0
 49 64  1  0  0  0
 49120  1  0  0  0
 50 51  1  0  0  0
 50121  1  0  0  0
 50122  1  0  0  0
 51 52  1  0  0  0
 51123  1  0  0  0
 51124  1  0  0  0
 52125  1  0  0  0
 52126  1  0  0  0
 53 54  1  0  0  0
 54 55  2  0  0  0
 54127  1  0  0  0
 55 57  1  0  0  0
 55128  1  0  0  0
 56 69  2  0  0  0
 57 58  2  0  0  0
 57129  1  0  0  0
 58130  1  0  0  0
 59 60  1  0  0  0
 59 61  1  0  0  0
 59 62  1  0  0  0
 60131  1  0  0  0
 60132  1  0  0  0
 60133  1  0  0  0
 61134  1  0  0  0
 61135  1  0  0  0
 61136  1  0  0  0
 62137  1  0  0  0
 62138  1  0  0  0
 62139  1  0  0  0
 63 65  1  0  0  0
 63140  1  0  0  0
 63141  1  0  0  0
 63142  1  0  0  0
 64143  1  0  0  0
 65144  1  0  0  0
 68 80  1  0  0  0
 71 74  2  0  0  0
 71 75  1  0  0  0
 71145  1  0  0  0
 72 74  1  0  0  0
 72 81  2  0  0  0
 72146  1  0  0  0
 73 75  2  0  0  0
 73 81  1  0  0  0
 73147  1  0  0  0
 74 76  1  0  0  0
 75 83  1  0  0  0
 76 82  1  0  0  0
 76 84  2  0  0  0
 77 78  1  0  0  0
 77 80  1  0  0  0
 77 85  2  0  0  0
 78148  1  0  0  0
 78149  1  0  0  0
 78150  1  0  0  0
 79 84  1  0  0  0
 79151  1  0  0  0
 79152  1  0  0  0
 79 80  1  0  0  0
 80153  1  0  0  0
 82154  1  0  0  0
 82155  1  0  0  0
 83156  1  0  0  0
 84157  1  0  0  0
M  CHG  1  84   1
M  ISO  4   1 100  68 101  80 101  83 100
M  END
> <chiral flag>
0

> <version>
0

> <s_m_source_file>
/data/baiqing/PycharmProjects/Reinvent-master-3.2/result/LINK_invent/BTK/process_docking_weight1_custom_product_contain_oxygen_bond_distance_aromatic_linkinvent_7_9_3/rearranged_h_0161.sdf

> <i_m_source_file_index>
78

> <r_mmod_Potential_Energy-OPLS-2005>
11708.087890625

> <r_mmod_Stretch_Energy-OPLS-2005>
5940.78369140625

> <r_mmod_Bend_Energy-OPLS-2005>
966.783264160156

> <r_mmod_Torsional_Energy-OPLS-2005>
495.417602539062

> <r_mmod_Improper_Torsional_Energy-OPLS-2005>
43.2353553771973

> <r_mmod_Van_der_Waal_Energy-OPLS-2005>
2048.2529296875

> <r_mmod_Electrostatic_Energy-OPLS-2005>
-394.914672851562

> <r_mmod_Solvation_Energy-OPLS-2005>
-492.806732177734

> <b_mmod_Minimization_Converged-OPLS-2005>
0

> <r_mmod_RMS_Derivative-OPLS-2005>
2.8247709274292

$$$$
78
                    3D
 Structure written by MMmdl.
154162  0  0  1  0            999 V2000
  -30.7077  -14.5019   20.5426 C   0  0  0  0  0  0
  -30.4295  -12.3198   19.4219 C   0  0  0  0  0  0
  -29.4963  -12.4815   18.2063 C   0  0  0  0  0  0
  -28.0224  -12.3357   18.6315 C   0  0  0  0  0  0
  -27.6623  -13.2034   19.8665 C   0  0  2  0  0  0
  -28.7091  -13.0233   20.9890 C   0  0  0  0  0  0
  -25.2616  -13.8155   20.5645 C   0  0  0  0  0  0
  -24.1861  -13.0446   20.9171 C   0  0  0  0  0  0
  -24.6418  -11.6910   20.8756 C   0  0  0  0  0  0
  -23.9076  -10.4294   21.0417 C   0  0  0  0  0  0
  -24.3620   -9.4205   21.9194 C   0  0  0  0  0  0
  -23.6296   -8.2242   22.0763 C   0  0  0  0  0  0
  -22.4285   -8.0277   21.3541 C   0  0  0  0  0  0
  -21.9919   -9.0256   20.4645 C   0  0  0  0  0  0
  -22.7251  -10.2135   20.3058 C   0  0  0  0  0  0
  -21.6849   -6.0726   22.5269 C   0  0  0  0  0  0
  -21.4015   -6.5634   23.8202 C   0  0  0  0  0  0
  -21.3657   -5.6790   24.9166 C   0  0  0  0  0  0
  -21.6045   -4.3055   24.7224 C   0  0  0  0  0  0
  -21.8821   -3.8144   23.4346 C   0  0  0  0  0  0
  -21.9202   -4.6956   22.3400 C   0  0  0  0  0  0
  -22.7885  -13.5239   21.1847 C   0  0  0  0  0  0
  -22.1664   -4.2151   21.0972 F   0  0  0  0  0  0
  -21.5633   -3.4536   25.7730 F   0  0  0  0  0  0
  -30.0335  -13.3250   20.4205 N   0  0  0  0  0  0
  -26.3050  -12.9316   20.3354 N   0  0  0  0  0  0
  -25.9347  -11.6490   20.5800 N   0  0  0  0  0  0
  -22.0525  -12.8209   22.0383 N   0  0  0  0  0  0
  -25.4377  -15.1850   20.3921 N   0  0  0  0  0  0
  -31.8524  -14.6620   20.1120 O   0  0  0  0  0  0
  -21.6635   -6.8877   21.4234 O   0  0  0  0  0  0
  -22.3581  -14.5552   20.6709 O   0  0  0  0  0  0
  -24.6166  -31.8670   23.2109 C   0  0  0  0  0  0
  -25.9036  -32.4845   23.8408 C   0  0  1  0  0  0
  -27.2336  -27.4061   20.0907 C   0  0  0  0  0  0
  -25.5869  -33.8648   24.2339 N   0  0  0  0  0  0
  -23.4050  -30.4913   21.5549 C   0  0  2  0  0  0
  -24.8527  -28.9601   20.1154 C   0  0  0  0  0  0
  -22.7436  -29.4637   22.5018 C   0  0  0  0  0  0
  -18.0264  -28.1313   22.8504 C   0  0  0  0  0  0
  -24.1478  -36.7320   23.2628 C   0  0  0  0  0  0
  -25.9377  -30.8203   21.3730 C   0  0  0  0  0  0
  -26.0159  -29.4549   20.7163 C   0  0  0  0  0  0
  -27.2069  -28.6861   20.7034 C   0  0  0  0  0  0
  -26.0455  -26.9465   19.4677 C   0  0  0  0  0  0
  -24.8626  -27.7058   19.4895 C   0  0  0  0  0  0
  -23.6129  -29.8241   20.1705 C   0  0  0  0  0  0
  -25.4091  -36.3136   24.0336 C   0  0  1  0  0  0
  -20.5863  -28.3604   23.1301 C   0  0  2  0  0  0
  -20.6761  -26.9348   22.5384 C   0  0  0  0  0  0
  -19.5735  -26.6354   21.5178 C   0  0  0  0  0  0
  -18.1906  -26.7885   22.1607 C   0  0  0  0  0  0
  -19.1517  -28.8783   23.2898 C   0  0  0  0  0  0
  -18.9465  -30.1395   23.8907 C   0  0  0  0  0  0
  -17.6473  -30.6554   24.0534 C   0  0  0  0  0  0
  -25.9013  -34.9496   23.5140 C   0  0  0  0  0  0
  -16.5351  -29.9040   23.6324 C   0  0  0  0  0  0
  -16.7261  -28.6429   23.0391 C   0  0  0  0  0  0
  -26.4452  -31.6638   25.0753 C   0  0  0  0  0  0
  -25.3706  -31.3737   26.1496 C   0  0  0  0  0  0
  -27.0272  -30.3097   24.6111 C   0  0  0  0  0  0
  -27.6049  -32.4344   25.7496 C   0  0  0  0  0  0
  -27.5601  -37.1774   24.8446 C   0  0  0  0  0  0
  -21.4161  -29.3002   22.3753 N   0  0  0  0  0  0
  -26.4287  -37.3803   23.9424 N   0  0  0  0  0  0
  -24.6709  -31.0732   22.1043 N   0  0  0  0  0  0
  -23.4214  -28.8178   23.3051 O   0  0  0  0  0  0
  -28.3957  -26.6437   20.1284 O   0  0  0  0  0  0
  -26.5616  -34.8962   22.4727 O   0  0  0  0  0  0
  -23.5350  -32.1449   23.7484 O   0  0  0  0  0  0
  -30.0771  -19.3793   20.8065 C   0  0  0  0  0  0
  -29.6810  -17.7660   19.0205 C   0  0  0  0  0  0
  -29.3193  -20.1533   18.6309 C   0  0  0  0  0  0
  -30.0596  -18.0313   20.3555 C   0  0  0  0  0  0
  -29.7062  -20.4568   19.9600 C   0  0  0  0  0  0
  -29.3175  -18.8231   18.1637 C   0  0  0  0  0  0
  -29.3570  -24.3185   20.2259 C   0  0  0  0  0  0
  -30.4938  -16.9040   21.3085 C   0  0  0  0  0  0
  -29.4422  -22.9266   19.5560 C   0  0  0  0  0  0
  -28.3060  -25.2848   19.6396 C   0  0  0  0  0  0
  -29.7323  -21.7861   20.4478 N   0  0  0  0  0  0
  -29.9985  -15.5411   21.0273 N   0  0  0  0  0  0
  -30.0737  -24.6200   21.1857 O   0  0  0  0  0  0
  -28.9626  -18.5642   16.8808 F   0  0  0  0  0  0
  -31.4732  -12.4218   19.1152 H   0  0  0  0  0  0
  -30.3422  -11.3184   19.8477 H   0  0  0  0  0  0
  -29.7397  -11.7349   17.4482 H   0  0  0  0  0  0
  -29.6544  -13.4564   17.7440 H   0  0  0  0  0  0
  -27.8524  -11.2829   18.8612 H   0  0  0  0  0  0
  -27.3607  -12.5709   17.7958 H   0  0  0  0  0  0
  -27.6979  -14.2426   19.5387 H   0  0  0  0  0  0
  -28.7001  -11.9999   21.3670 H   0  0  0  0  0  0
  -28.4751  -13.6533   21.8490 H   0  0  0  0  0  0
  -25.2758   -9.5669   22.4772 H   0  0  0  0  0  0
  -23.9996   -7.4629   22.7474 H   0  0  0  0  0  0
  -21.0859   -8.8776   19.8938 H   0  0  0  0  0  0
  -22.3723  -10.9671   19.6164 H   0  0  0  0  0  0
  -21.1998   -7.6143   23.9705 H   0  0  0  0  0  0
  -21.1476   -6.0515   25.9065 H   0  0  0  0  0  0
  -22.0611   -2.7610   23.2836 H   0  0  0  0  0  0
  -22.4133  -11.9818   22.4679 H   0  0  0  0  0  0
  -21.1156  -13.1235   22.2619 H   0  0  0  0  0  0
  -24.6710  -15.8452   20.4656 H   0  0  0  0  0  0
  -26.2836  -15.6016   20.0241 H   0  0  0  0  0  0
  -26.7127  -32.5559   23.1170 H   0  0  0  0  0  0
  -24.9997  -33.9810   25.0483 H   0  0  0  0  0  0
  -22.6902  -31.3045   21.4186 H   0  0  0  0  0  0
  -23.3782  -35.9608   23.3253 H   0  0  0  0  0  0
  -24.3591  -36.8974   22.2050 H   0  0  0  0  0  0
  -23.7178  -37.6478   23.6685 H   0  0  0  0  0  0
  -26.0467  -31.5872   20.6046 H   0  0  0  0  0  0
  -26.8218  -30.8745   21.9942 H   0  0  0  0  0  0
  -28.1023  -29.0602   21.1796 H   0  0  0  0  0  0
  -25.9919  -26.0006   18.9518 H   0  0  0  0  0  0
  -23.9695  -27.3194   19.0187 H   0  0  0  0  0  0
  -23.7122  -30.5933   19.4053 H   0  0  0  0  0  0
  -22.7360  -29.2359   19.8944 H   0  0  0  0  0  0
  -25.1266  -36.1985   25.0819 H   0  0  0  0  0  0
  -20.9920  -28.3151   24.1427 H   0  0  0  0  0  0
  -20.5612  -26.2216   23.3562 H   0  0  0  0  0  0
  -21.6635  -26.7364   22.1186 H   0  0  0  0  0  0
  -19.6891  -25.6267   21.1185 H   0  0  0  0  0  0
  -19.6683  -27.3198   20.6731 H   0  0  0  0  0  0
  -17.4177  -26.6649   21.3999 H   0  0  0  0  0  0
  -18.0290  -26.0004   22.8982 H   0  0  0  0  0  0
  -19.7958  -30.7169   24.2301 H   0  0  0  0  0  0
  -17.5041  -31.6252   24.5109 H   0  0  0  0  0  0
  -15.5337  -30.2933   23.7649 H   0  0  0  0  0  0
  -15.8665  -28.0712   22.7143 H   0  0  0  0  0  0
  -24.5859  -30.7117   25.7816 H   0  0  0  0  0  0
  -24.8914  -32.2891   26.4989 H   0  0  0  0  0  0
  -25.8028  -30.8864   27.0245 H   0  0  0  0  0  0
  -26.2815  -29.6856   24.1179 H   0  0  0  0  0  0
  -27.4077  -29.7325   25.4533 H   0  0  0  0  0  0
  -27.8638  -30.4434   23.9247 H   0  0  0  0  0  0
  -27.2734  -33.3690   26.2017 H   0  0  0  0  0  0
  -28.3873  -32.6800   25.0309 H   0  0  0  0  0  0
  -28.0697  -31.8496   26.5428 H   0  0  0  0  0  0
  -28.2532  -38.0161   24.7648 H   0  0  0  0  0  0
  -28.1189  -36.2707   24.6093 H   0  0  0  0  0  0
  -27.2352  -37.1184   25.8848 H   0  0  0  0  0  0
  -20.9315  -29.8777   21.7030 H   0  0  0  0  0  0
  -26.0202  -38.2869   24.1513 H   0  0  0  0  0  0
  -30.3872  -19.5843   21.8230 H   0  0  0  0  0  0
  -29.6776  -16.7564   18.6370 H   0  0  0  0  0  0
  -29.0252  -20.9267   17.9361 H   0  0  0  0  0  0
  -30.1463  -17.1627   22.3102 H   0  0  0  0  0  0
  -31.5841  -16.9102   21.3746 H   0  0  0  0  0  0
  -30.2160  -22.9761   18.7891 H   0  0  0  0  0  0
  -28.4934  -22.7536   19.0466 H   0  0  0  0  0  0
  -27.3544  -24.8338   19.9214 H   0  0  0  0  0  0
  -28.3802  -25.2851   18.5502 H   0  0  0  0  0  0
  -30.1814  -21.9991   21.3369 H   0  0  0  0  0  0
  -29.0451  -15.3456   21.2945 H   0  0  0  0  0  0
  1 25  1  0  0  0
  1 30  2  0  0  0
  1 82  1  0  0  0
  2  3  1  0  0  0
  2 25  1  0  0  0
  2 85  1  0  0  0
  2 86  1  0  0  0
  3  4  1  0  0  0
  3 87  1  0  0  0
  3 88  1  0  0  0
  4  5  1  0  0  0
  4 89  1  0  0  0
  4 90  1  0  0  0
  5  6  1  0  0  0
  5 26  1  0  0  0
  5 91  1  0  0  0
  6 25  1  0  0  0
  6 92  1  0  0  0
  6 93  1  0  0  0
  7  8  2  0  0  0
  7 26  1  0  0  0
  7 29  1  0  0  0
  8  9  1  0  0  0
  8 22  1  0  0  0
  9 10  1  0  0  0
  9 27  2  0  0  0
 10 11  2  0  0  0
 10 15  1  0  0  0
 11 12  1  0  0  0
 11 94  1  0  0  0
 12 13  2  0  0  0
 12 95  1  0  0  0
 13 14  1  0  0  0
 13 31  1  0  0  0
 14 15  2  0  0  0
 14 96  1  0  0  0
 15 97  1  0  0  0
 16 17  2  0  0  0
 16 21  1  0  0  0
 16 31  1  0  0  0
 17 18  1  0  0  0
 17 98  1  0  0  0
 18 19  2  0  0  0
 18 99  1  0  0  0
 19 20  1  0  0  0
 19 24  1  0  0  0
 20 21  2  0  0  0
 20100  1  0  0  0
 21 23  1  0  0  0
 22 28  1  0  0  0
 22 32  2  0  0  0
 26 27  1  0  0  0
 28101  1  0  0  0
 28102  1  0  0  0
 29103  1  0  0  0
 29104  1  0  0  0
 33 34  1  0  0  0
 33 66  1  0  0  0
 33 70  2  0  0  0
 34 36  1  0  0  0
 34 59  1  0  0  0
 34105  1  0  0  0
 35 44  2  0  0  0
 35 45  1  0  0  0
 35 68  1  0  0  0
 36 56  1  0  0  0
 36106  1  0  0  0
 37 39  1  0  0  0
 37 47  1  0  0  0
 37 66  1  0  0  0
 37107  1  0  0  0
 38 43  2  0  0  0
 38 46  1  0  0  0
 38 47  1  0  0  0
 39 64  1  0  0  0
 39 67  2  0  0  0
 40 52  1  0  0  0
 40 53  2  0  0  0
 40 58  1  0  0  0
 41108  1  0  0  0
 41109  1  0  0  0
 41110  1  0  0  0
 41 48  1  0  0  0
 42 43  1  0  0  0
 42 66  1  0  0  0
 42111  1  0  0  0
 42112  1  0  0  0
 43 44  1  0  0  0
 44113  1  0  0  0
 45 46  2  0  0  0
 45114  1  0  0  0
 46115  1  0  0  0
 47116  1  0  0  0
 47117  1  0  0  0
 48 56  1  0  0  0
 48 65  1  0  0  0
 48118  1  0  0  0
 49 50  1  0  0  0
 49 53  1  0  0  0
 49 64  1  0  0  0
 49119  1  0  0  0
 50 51  1  0  0  0
 50120  1  0  0  0
 50121  1  0  0  0
 51 52  1  0  0  0
 51122  1  0  0  0
 51123  1  0  0  0
 52124  1  0  0  0
 52125  1  0  0  0
 53 54  1  0  0  0
 54 55  2  0  0  0
 54126  1  0  0  0
 55 57  1  0  0  0
 55127  1  0  0  0
 56 69  2  0  0  0
 57 58  2  0  0  0
 57128  1  0  0  0
 58129  1  0  0  0
 59 60  1  0  0  0
 59 61  1  0  0  0
 59 62  1  0  0  0
 60130  1  0  0  0
 60131  1  0  0  0
 60132  1  0  0  0
 61133  1  0  0  0
 61134  1  0  0  0
 61135  1  0  0  0
 62136  1  0  0  0
 62137  1  0  0  0
 62138  1  0  0  0
 63 65  1  0  0  0
 63139  1  0  0  0
 63140  1  0  0  0
 63141  1  0  0  0
 64142  1  0  0  0
 65143  1  0  0  0
 68 80  1  0  0  0
 71 74  2  0  0  0
 71 75  1  0  0  0
 71144  1  0  0  0
 72 74  1  0  0  0
 72 76  2  0  0  0
 72145  1  0  0  0
 73 75  2  0  0  0
 73 76  1  0  0  0
 73146  1  0  0  0
 74 78  1  0  0  0
 75 81  1  0  0  0
 76 84  1  0  0  0
 77 79  1  0  0  0
 77 80  1  0  0  0
 77 83  2  0  0  0
 78 82  1  0  0  0
 78147  1  0  0  0
 78148  1  0  0  0
 79 81  1  0  0  0
 79149  1  0  0  0
 79150  1  0  0  0
 80151  1  0  0  0
 80152  1  0  0  0
 81153  1  0  0  0
 82154  1  0  0  0
M  ISO  4   1 100  68 101  80 101  82 100
M  END
> <chiral flag>
0

> <version>
0

> <s_m_source_file>
/data/baiqing/PycharmProjects/Reinvent-master-3.2/result/LINK_invent/BTK/process_docking_weight1_custom_product_contain_oxygen_bond_distance_aromatic_linkinvent_7_9_3/rearranged_h_0161.sdf

> <i_m_source_file_index>
79

> <r_mmod_Potential_Energy-OPLS-2005>
-86.2713394165039

> <r_mmod_Stretch_Energy-OPLS-2005>
42.6130065917969

> <r_mmod_Bend_Energy-OPLS-2005>
109.404266357422

> <r_mmod_Torsional_Energy-OPLS-2005>
180.285064697266

> <r_mmod_Improper_Torsional_Energy-OPLS-2005>
4.14972066879272

> <r_mmod_Van_der_Waal_Energy-OPLS-2005>
156.153259277344

> <r_mmod_Electrostatic_Energy-OPLS-2005>
-354.310516357422

> <r_mmod_Solvation_Energy-OPLS-2005>
-243.585739135742

> <b_mmod_Minimization_Converged-OPLS-2005>
0

> <r_mmod_RMS_Derivative-OPLS-2005>
3.94154214859009

$$$$
79
                    3D
 Structure written by MMmdl.
158166  0  0  1  0            999 V2000
  -30.7000  -14.4562   20.5091 C   0  0  0  0  0  0
  -30.4178  -12.2800   19.4286 C   0  0  0  0  0  0
  -29.4934  -12.4852   18.2089 C   0  0  0  0  0  0
  -28.0133  -12.3505   18.6204 C   0  0  0  0  0  0
  -27.6570  -13.2037   19.8664 C   0  0  2  0  0  0
  -28.6992  -13.0021   20.9918 C   0  0  0  0  0  0
  -25.2564  -13.8161   20.5654 C   0  0  0  0  0  0
  -24.1811  -13.0439   20.9175 C   0  0  0  0  0  0
  -24.6372  -11.6904   20.8721 C   0  0  0  0  0  0
  -23.9034  -10.4290   21.0404 C   0  0  0  0  0  0
  -24.3597   -9.4209   21.9180 C   0  0  0  0  0  0
  -23.6288   -8.2232   22.0746 C   0  0  0  0  0  0
  -22.4266   -8.0266   21.3538 C   0  0  0  0  0  0
  -21.9885   -9.0240   20.4646 C   0  0  0  0  0  0
  -22.7200  -10.2130   20.3061 C   0  0  0  0  0  0
  -21.6850   -6.0730   22.5264 C   0  0  0  0  0  0
  -21.4015   -6.5630   23.8201 C   0  0  0  0  0  0
  -21.3663   -5.6784   24.9163 C   0  0  0  0  0  0
  -21.6050   -4.3051   24.7218 C   0  0  0  0  0  0
  -21.8815   -3.8142   23.4336 C   0  0  0  0  0  0
  -21.9186   -4.6959   22.3390 C   0  0  0  0  0  0
  -22.7821  -13.5244   21.1828 C   0  0  0  0  0  0
  -22.1651   -4.2138   21.0974 F   0  0  0  0  0  0
  -21.5639   -3.4539   25.7739 F   0  0  0  0  0  0
  -30.0342  -13.2753   20.4378 N   0  0  0  0  0  0
  -26.2989  -12.9324   20.3315 N   0  0  0  0  0  0
  -25.9303  -11.6493   20.5756 N   0  0  0  0  0  0
  -22.0451  -12.8280   22.0410 N   0  0  0  0  0  0
  -25.4324  -15.1878   20.4055 N   0  0  0  0  0  0
  -31.8844  -14.5722   20.1781 O   0  0  0  0  0  0
  -21.6631   -6.8864   21.4226 O   0  0  0  0  0  0
  -22.3508  -14.5548   20.6671 O   0  0  0  0  0  0
  -24.6103  -31.8706   23.2118 C   0  0  0  0  0  0
  -25.9006  -32.4831   23.8409 C   0  0  1  0  0  0
  -27.2302  -27.4607   20.0969 C   0  0  0  0  0  0
  -25.5876  -33.8626   24.2352 N   0  0  0  0  0  0
  -23.3980  -30.4940   21.5513 C   0  0  2  0  0  0
  -24.8461  -28.9632   20.1138 C   0  0  0  0  0  0
  -22.7394  -29.4661   22.4988 C   0  0  0  0  0  0
  -18.0266  -28.1387   22.8487 C   0  0  0  0  0  0
  -24.1485  -36.7323   23.2645 C   0  0  0  0  0  0
  -25.9214  -30.8458   21.3574 C   0  0  0  0  0  0
  -26.0020  -29.4787   20.7144 C   0  0  0  0  0  0
  -27.1989  -28.7317   20.7112 C   0  0  0  0  0  0
  -26.0676  -26.9580   19.4800 C   0  0  0  0  0  0
  -24.8712  -27.7004   19.4965 C   0  0  0  0  0  0
  -23.6059  -29.8265   20.1653 C   0  0  0  0  0  0
  -25.4102  -36.3111   24.0349 C   0  0  1  0  0  0
  -20.5859  -28.3659   23.1327 C   0  0  2  0  0  0
  -20.6750  -26.9392   22.5429 C   0  0  0  0  0  0
  -19.5732  -26.6396   21.5212 C   0  0  0  0  0  0
  -18.1912  -26.7939   22.1618 C   0  0  0  0  0  0
  -19.1525  -28.8838   23.2908 C   0  0  0  0  0  0
  -18.9448  -30.1452   23.8918 C   0  0  0  0  0  0
  -17.6456  -30.6586   24.0574 C   0  0  0  0  0  0
  -25.9018  -34.9472   23.5142 C   0  0  0  0  0  0
  -16.5345  -29.9098   23.6330 C   0  0  0  0  0  0
  -16.7264  -28.6519   23.0340 C   0  0  0  0  0  0
  -26.4473  -31.6597   25.0710 C   0  0  0  0  0  0
  -25.3780  -31.3682   26.1493 C   0  0  0  0  0  0
  -27.0290  -30.3054   24.6017 C   0  0  0  0  0  0
  -27.6071  -32.4311   25.7443 C   0  0  0  0  0  0
  -27.5579  -37.1809   24.8475 C   0  0  0  0  0  0
  -21.4123  -29.3028   22.3730 N   0  0  0  0  0  0
  -26.4294  -37.3787   23.9404 N   0  0  0  0  0  0
  -24.6622  -31.0836   22.0999 N   0  0  0  0  0  0
  -23.4175  -28.8214   23.3029 O   0  0  0  0  0  0
  -28.3705  -26.6947   20.0712 O   0  0  0  0  0  0
  -26.5579  -34.8923   22.4697 O   0  0  0  0  0  0
  -23.5299  -32.1438   23.7536 O   0  0  0  0  0  0
  -30.6697  -18.1799   18.2007 C   0  0  0  0  0  0
  -29.9389  -19.2416   18.7440 C   0  0  0  0  0  0
  -30.6744  -16.9527   18.8818 C   0  0  0  0  0  0
  -29.2493  -19.0198   19.9462 C   0  0  0  0  0  0
  -29.9685  -16.7957   20.1016 C   0  0  0  0  0  0
  -28.4050  -20.0672   20.5418 C   0  0  0  0  0  0
  -27.9879  -24.8784   21.7076 C   0  0  0  0  0  0
  -28.6839  -23.5498   21.4128 C   0  0  0  0  0  0
  -28.7599  -26.1518   21.3374 C   0  0  0  0  0  0
  -27.8315  -22.5609   20.5891 C   0  0  0  0  0  0
  -29.2534  -17.8298   20.6097 N   0  0  0  0  0  0
  -26.8491  -24.9364   22.2621 N   0  0  0  0  0  0
  -27.4490  -19.6850   21.3960 N   0  0  0  0  0  0
  -29.9263  -15.5289   20.7599 N   0  0  0  0  0  0
  -28.5966  -21.3596   20.2026 N   0  3  0  0  0  0
  -31.4649  -12.3648   19.1302 H   0  0  0  0  0  0
  -30.3055  -11.2730   19.8354 H   0  0  0  0  0  0
  -29.7350  -11.7580   17.4323 H   0  0  0  0  0  0
  -29.6629  -13.4709   17.7713 H   0  0  0  0  0  0
  -27.8240  -11.2975   18.8328 H   0  0  0  0  0  0
  -27.3614  -12.6102   17.7852 H   0  0  0  0  0  0
  -27.6959  -14.2462   19.5525 H   0  0  0  0  0  0
  -28.6570  -11.9765   21.3647 H   0  0  0  0  0  0
  -28.4770  -13.6378   21.8496 H   0  0  0  0  0  0
  -25.2742   -9.5714   22.4742 H   0  0  0  0  0  0
  -24.0007   -7.4636   22.7476 H   0  0  0  0  0  0
  -21.0798   -8.8758   19.8963 H   0  0  0  0  0  0
  -22.3635  -10.9674   19.6178 H   0  0  0  0  0  0
  -21.1998   -7.6138   23.9714 H   0  0  0  0  0  0
  -21.1494   -6.0506   25.9074 H   0  0  0  0  0  0
  -22.0595   -2.7605   23.2834 H   0  0  0  0  0  0
  -22.4046  -11.9970   22.4872 H   0  0  0  0  0  0
  -21.1068  -13.1339   22.2584 H   0  0  0  0  0  0
  -24.6713  -15.8497   20.5136 H   0  0  0  0  0  0
  -26.2869  -15.6192   20.0784 H   0  0  0  0  0  0
  -26.7062  -32.5585   23.1171 H   0  0  0  0  0  0
  -25.0028  -33.9791   25.0497 H   0  0  0  0  0  0
  -22.6844  -31.3099   21.4135 H   0  0  0  0  0  0
  -23.3724  -35.9682   23.3350 H   0  0  0  0  0  0
  -24.3583  -36.8887   22.2053 H   0  0  0  0  0  0
  -23.7271  -37.6555   23.6626 H   0  0  0  0  0  0
  -26.0210  -31.6064   20.5819 H   0  0  0  0  0  0
  -26.8145  -30.9107   21.9666 H   0  0  0  0  0  0
  -28.0917  -29.1312   21.1709 H   0  0  0  0  0  0
  -26.0870  -25.9886   19.0031 H   0  0  0  0  0  0
  -23.9805  -27.3019   19.0318 H   0  0  0  0  0  0
  -23.7126  -30.6022   19.4054 H   0  0  0  0  0  0
  -22.7307  -29.2447   19.8706 H   0  0  0  0  0  0
  -25.1272  -36.1979   25.0843 H   0  0  0  0  0  0
  -20.9966  -28.3226   24.1446 H   0  0  0  0  0  0
  -20.5645  -26.2262   23.3615 H   0  0  0  0  0  0
  -21.6617  -26.7431   22.1229 H   0  0  0  0  0  0
  -19.6889  -25.6316   21.1223 H   0  0  0  0  0  0
  -19.6685  -27.3223   20.6756 H   0  0  0  0  0  0
  -17.4187  -26.6714   21.4010 H   0  0  0  0  0  0
  -18.0296  -26.0082   22.9010 H   0  0  0  0  0  0
  -19.7930  -30.7258   24.2304 H   0  0  0  0  0  0
  -17.5013  -31.6270   24.5178 H   0  0  0  0  0  0
  -15.5349  -30.3002   23.7649 H   0  0  0  0  0  0
  -15.8665  -28.0851   22.7029 H   0  0  0  0  0  0
  -24.5944  -30.7023   25.7858 H   0  0  0  0  0  0
  -24.8982  -32.2829   26.4982 H   0  0  0  0  0  0
  -25.8192  -30.8847   27.0217 H   0  0  0  0  0  0
  -26.2784  -29.6796   24.1173 H   0  0  0  0  0  0
  -27.4204  -29.7296   25.4412 H   0  0  0  0  0  0
  -27.8555  -30.4402   23.9039 H   0  0  0  0  0  0
  -27.2700  -33.3583   26.2085 H   0  0  0  0  0  0
  -28.3829  -32.6922   25.0234 H   0  0  0  0  0  0
  -28.0800  -31.8404   26.5295 H   0  0  0  0  0  0
  -28.2626  -38.0071   24.7454 H   0  0  0  0  0  0
  -28.1034  -36.2599   24.6366 H   0  0  0  0  0  0
  -27.2296  -37.1547   25.8880 H   0  0  0  0  0  0
  -20.9280  -29.8771   21.6974 H   0  0  0  0  0  0
  -26.0192  -38.2867   24.1385 H   0  0  0  0  0  0
  -31.2063  -18.2940   17.2697 H   0  0  0  0  0  0
  -29.8987  -20.1879   18.2248 H   0  0  0  0  0  0
  -31.2228  -16.1393   18.4296 H   0  0  0  0  0  0
  -28.9492  -23.0873   22.3639 H   0  0  0  0  0  0
  -29.6247  -23.7389   20.8952 H   0  0  0  0  0  0
  -29.8274  -25.9354   21.3020 H   0  0  0  0  0  0
  -28.6428  -26.8861   22.1372 H   0  0  0  0  0  0
  -27.4934  -23.0491   19.6739 H   0  0  0  0  0  0
  -26.9286  -22.2781   21.1290 H   0  0  0  0  0  0
  -26.4587  -24.0262   22.4775 H   0  0  0  0  0  0
  -27.4682  -18.6954   21.6101 H   0  0  0  0  0  0
  -26.8111  -20.2923   21.8765 H   0  0  0  0  0  0
  -29.0642  -15.3291   21.2399 H   0  0  0  0  0  0
  -29.3391  -21.5040   19.5318 H   0  0  0  0  0  0
  1 25  1  0  0  0
  1 30  2  0  0  0
  1 84  1  0  0  0
  2  3  1  0  0  0
  2 25  1  0  0  0
  2 86  1  0  0  0
  2 87  1  0  0  0
  3  4  1  0  0  0
  3 88  1  0  0  0
  3 89  1  0  0  0
  4  5  1  0  0  0
  4 90  1  0  0  0
  4 91  1  0  0  0
  5  6  1  0  0  0
  5 26  1  0  0  0
  5 92  1  0  0  0
  6 25  1  0  0  0
  6 93  1  0  0  0
  6 94  1  0  0  0
  7  8  2  0  0  0
  7 26  1  0  0  0
  7 29  1  0  0  0
  8  9  1  0  0  0
  8 22  1  0  0  0
  9 10  1  0  0  0
  9 27  2  0  0  0
 10 11  2  0  0  0
 10 15  1  0  0  0
 11 12  1  0  0  0
 11 95  1  0  0  0
 12 13  2  0  0  0
 12 96  1  0  0  0
 13 14  1  0  0  0
 13 31  1  0  0  0
 14 15  2  0  0  0
 14 97  1  0  0  0
 15 98  1  0  0  0
 16 17  2  0  0  0
 16 21  1  0  0  0
 16 31  1  0  0  0
 17 18  1  0  0  0
 17 99  1  0  0  0
 18 19  2  0  0  0
 18100  1  0  0  0
 19 20  1  0  0  0
 19 24  1  0  0  0
 20 21  2  0  0  0
 20101  1  0  0  0
 21 23  1  0  0  0
 22 28  1  0  0  0
 22 32  2  0  0  0
 26 27  1  0  0  0
 28102  1  0  0  0
 28103  1  0  0  0
 29104  1  0  0  0
 29105  1  0  0  0
 33 34  1  0  0  0
 33 66  1  0  0  0
 33 70  2  0  0  0
 34 36  1  0  0  0
 34 59  1  0  0  0
 34106  1  0  0  0
 35 44  2  0  0  0
 35 45  1  0  0  0
 35 68  1  0  0  0
 36 56  1  0  0  0
 36107  1  0  0  0
 37 39  1  0  0  0
 37 47  1  0  0  0
 37 66  1  0  0  0
 37108  1  0  0  0
 38 43  2  0  0  0
 38 46  1  0  0  0
 38 47  1  0  0  0
 39 64  1  0  0  0
 39 67  2  0  0  0
 40 52  1  0  0  0
 40 53  2  0  0  0
 40 58  1  0  0  0
 41109  1  0  0  0
 41110  1  0  0  0
 41111  1  0  0  0
 41 48  1  0  0  0
 42 43  1  0  0  0
 42 66  1  0  0  0
 42112  1  0  0  0
 42113  1  0  0  0
 43 44  1  0  0  0
 44114  1  0  0  0
 45 46  2  0  0  0
 45115  1  0  0  0
 46116  1  0  0  0
 47117  1  0  0  0
 47118  1  0  0  0
 48 56  1  0  0  0
 48 65  1  0  0  0
 48119  1  0  0  0
 49 50  1  0  0  0
 49 53  1  0  0  0
 49 64  1  0  0  0
 49120  1  0  0  0
 50 51  1  0  0  0
 50121  1  0  0  0
 50122  1  0  0  0
 51 52  1  0  0  0
 51123  1  0  0  0
 51124  1  0  0  0
 52125  1  0  0  0
 52126  1  0  0  0
 53 54  1  0  0  0
 54 55  2  0  0  0
 54127  1  0  0  0
 55 57  1  0  0  0
 55128  1  0  0  0
 56 69  2  0  0  0
 57 58  2  0  0  0
 57129  1  0  0  0
 58130  1  0  0  0
 59 60  1  0  0  0
 59 61  1  0  0  0
 59 62  1  0  0  0
 60131  1  0  0  0
 60132  1  0  0  0
 60133  1  0  0  0
 61134  1  0  0  0
 61135  1  0  0  0
 61136  1  0  0  0
 62137  1  0  0  0
 62138  1  0  0  0
 62139  1  0  0  0
 63 65  1  0  0  0
 63140  1  0  0  0
 63141  1  0  0  0
 63142  1  0  0  0
 64143  1  0  0  0
 65144  1  0  0  0
 68 79  1  0  0  0
 71 72  2  0  0  0
 71 73  1  0  0  0
 71145  1  0  0  0
 72 74  1  0  0  0
 72146  1  0  0  0
 73 75  2  0  0  0
 73147  1  0  0  0
 74 76  1  0  0  0
 74 81  2  0  0  0
 75 81  1  0  0  0
 75 84  1  0  0  0
 76 83  1  0  0  0
 76 85  2  0  0  0
 77 78  1  0  0  0
 77 79  1  0  0  0
 77 82  2  0  0  0
 78 80  1  0  0  0
 78148  1  0  0  0
 78149  1  0  0  0
 79150  1  0  0  0
 79151  1  0  0  0
 80 85  1  0  0  0
 80152  1  0  0  0
 80153  1  0  0  0
 82154  1  0  0  0
 83155  1  0  0  0
 83156  1  0  0  0
 84157  1  0  0  0
 85158  1  0  0  0
M  CHG  1  85   1
M  ISO  4   1 100  68 101  79 101  84 100
M  END
> <chiral flag>
0

> <version>
0

> <s_m_source_file>
/data/baiqing/PycharmProjects/Reinvent-master-3.2/result/LINK_invent/BTK/process_docking_weight1_custom_product_contain_oxygen_bond_distance_aromatic_linkinvent_7_9_3/rearranged_h_0161.sdf

> <i_m_source_file_index>
80

> <r_mmod_Potential_Energy-OPLS-2005>
-438.467651367188

> <r_mmod_Stretch_Energy-OPLS-2005>
35.2053565979004

> <r_mmod_Bend_Energy-OPLS-2005>
99.8408126831055

> <r_mmod_Torsional_Energy-OPLS-2005>
258.22705078125

> <r_mmod_Improper_Torsional_Energy-OPLS-2005>
6.42256164550781

> <r_mmod_Van_der_Waal_Energy-OPLS-2005>
165.940200805664

> <r_mmod_Electrostatic_Energy-OPLS-2005>
-534.006652832031

> <r_mmod_Solvation_Energy-OPLS-2005>
-485.583190917969

> <b_mmod_Minimization_Converged-OPLS-2005>
0

> <r_mmod_RMS_Derivative-OPLS-2005>
2.5018093585968

$$$$
80
                    3D
 Structure written by MMmdl.
170179  0  0  1  0            999 V2000
  -30.1988  -15.0360   20.5314 C   0  0  0  0  0  0
  -30.4711  -12.6622   19.5430 C   0  0  0  0  0  0
  -29.5488  -12.5250   18.3053 C   0  0  0  0  0  0
  -28.0895  -12.2500   18.7294 C   0  0  0  0  0  0
  -27.6170  -13.1898   19.8495 C   0  0  2  0  0  0
  -28.6146  -13.1408   21.0080 C   0  0  0  0  0  0
  -25.2470  -13.8010   20.5545 C   0  0  0  0  0  0
  -24.1792  -13.0353   20.9269 C   0  0  0  0  0  0
  -24.6288  -11.6771   20.8815 C   0  0  0  0  0  0
  -23.8962  -10.4295   21.0461 C   0  0  0  0  0  0
  -24.3569   -9.4132   21.9175 C   0  0  0  0  0  0
  -23.6225   -8.2113   22.0705 C   0  0  0  0  0  0
  -22.4145   -8.0291   21.3610 C   0  0  0  0  0  0
  -21.9873   -9.0165   20.4617 C   0  0  0  0  0  0
  -22.7160  -10.2084   20.3026 C   0  0  0  0  0  0
  -21.6861   -6.0677   22.5246 C   0  0  0  0  0  0
  -21.4004   -6.5618   23.8148 C   0  0  0  0  0  0
  -21.3652   -5.6790   24.9173 C   0  0  0  0  0  0
  -21.5992   -4.3029   24.7250 C   0  0  0  0  0  0
  -21.8816   -3.8115   23.4407 C   0  0  0  0  0  0
  -21.9183   -4.6905   22.3437 C   0  0  0  0  0  0
  -22.7783  -13.5172   21.1943 C   0  0  0  0  0  0
  -22.1649   -4.2147   21.0988 F   0  0  0  0  0  0
  -21.5646   -3.4525   25.7727 F   0  0  0  0  0  0
  -29.8560  -13.6796   20.4612 N   0  0  0  0  0  0
  -26.2713  -12.9101   20.2979 N   0  0  0  0  0  0
  -25.9076  -11.6227   20.5628 N   0  0  0  0  0  0
  -22.0409  -12.8271   22.0582 N   0  0  0  0  0  0
  -25.4013  -15.1700   20.3821 N   0  0  0  0  0  0
  -31.3601  -15.3067   20.2492 O   0  0  0  0  0  0
  -21.6633   -6.8846   21.4211 O   0  0  0  0  0  0
  -22.3438  -14.5380   20.6757 O   0  0  0  0  0  0
  -24.6420  -31.8463   23.1841 C   0  0  0  0  0  0
  -25.9139  -32.4713   23.8335 C   0  0  1  0  0  0
  -27.0925  -27.1214   20.2320 C   0  0  0  0  0  0
  -25.5832  -33.8512   24.2163 N   0  0  0  0  0  0
  -23.4577  -30.4655   21.5273 C   0  0  2  0  0  0
  -24.8820  -28.9148   20.0932 C   0  0  0  0  0  0
  -22.7821  -29.4303   22.4765 C   0  0  0  0  0  0
  -18.0900  -28.0977   22.8394 C   0  0  0  0  0  0
  -24.1493  -36.7241   23.2661 C   0  0  0  0  0  0
  -26.0025  -30.7204   21.3911 C   0  0  0  0  0  0
  -26.0497  -29.3282   20.7460 C   0  0  0  0  0  0
  -27.1837  -28.4414   20.8038 C   0  0  0  0  0  0
  -26.0011  -26.8907   19.4017 C   0  0  0  0  0  0
  -24.8709  -27.7144   19.3852 C   0  0  0  0  0  0
  -23.6754  -29.8320   20.1374 C   0  0  0  0  0  0
  -25.4121  -36.3032   24.0342 C   0  0  1  0  0  0
  -20.6303  -28.3140   23.1137 C   0  0  2  0  0  0
  -20.6857  -26.8727   22.5589 C   0  0  0  0  0  0
  -19.6695  -26.6715   21.4299 C   0  0  0  0  0  0
  -18.2708  -26.7704   22.0668 C   0  0  0  0  0  0
  -19.2218  -28.8507   23.2553 C   0  0  0  0  0  0
  -19.0899  -30.1273   23.7960 C   0  0  0  0  0  0
  -17.8159  -30.6536   24.0244 C   0  0  0  0  0  0
  -25.9061  -34.9432   23.5084 C   0  0  0  0  0  0
  -16.6771  -29.9025   23.6844 C   0  0  0  0  0  0
  -16.8121  -28.6423   23.0676 C   0  0  0  0  0  0
  -26.4469  -31.6556   25.0776 C   0  0  0  0  0  0
  -25.3701  -31.3720   26.1511 C   0  0  0  0  0  0
  -27.0292  -30.2936   24.6341 C   0  0  0  0  0  0
  -27.5982  -32.4371   25.7420 C   0  0  0  0  0  0
  -27.5572  -37.1738   24.8453 C   0  0  0  0  0  0
  -21.4617  -29.2409   22.3379 N   0  0  0  0  0  0
  -26.4284  -37.3715   23.9412 N   0  0  0  0  0  0
  -24.7274  -31.0454   22.0894 N   0  0  0  0  0  0
  -23.4638  -28.7980   23.2936 O   0  0  0  0  0  0
  -27.9278  -25.9944   20.4236 O   0  0  0  0  0  0
  -26.5704  -34.8897   22.4693 O   0  0  0  0  0  0
  -23.5452  -32.1296   23.7107 O   0  0  0  0  0  0
  -26.7960  -19.2728   20.1957 C   0  0  0  0  0  0
  -27.4815  -17.9684   20.0488 C   0  0  0  0  0  0
  -28.7758  -18.4092   21.9215 C   0  0  0  0  0  0
  -27.1110  -20.3021   21.1711 C   0  0  0  0  0  0
  -28.0637  -19.7077   22.0940 C   0  0  0  0  0  0
  -28.5702  -17.4663   20.8537 C   0  0  0  0  0  0
  -24.0561  -23.1896   21.8406 C   0  0  0  0  0  0
  -24.7479  -21.8081   21.6275 C   0  0  0  0  0  0
  -25.3686  -23.5794   19.6785 C   0  0  0  0  0  0
  -26.3458  -21.8277   21.3767 C   0  0  2  0  0  0
  -24.2755  -24.1091   20.6732 C   0  0  1  0  0  0
  -26.7148  -23.2575   20.4816 C   0  0  2  0  0  0
  -28.2907  -20.4674   23.3866 C   0  0  0  0  0  0
  -22.9051  -24.5280   20.0676 C   0  0  0  0  0  0
  -21.6109  -23.2776   24.3065 C   0  0  0  0  0  0
  -27.3418  -24.7269   21.1199 C   0  0  0  0  0  0
  -23.3676  -23.6174   22.8176 N   0  0  0  0  0  0
  -29.0907  -15.9578   20.8115 N   0  0  0  0  0  0
  -22.7484  -22.6538   23.6563 O   0  0  0  0  0  0
  -31.4644  -13.0022   19.2106 H   0  0  0  0  0  0
  -30.6243  -11.7080   20.0596 H   0  0  0  0  0  0
  -29.9252  -11.7377   17.6455 H   0  0  0  0  0  0
  -29.5731  -13.4340   17.7191 H   0  0  0  0  0  0
  -28.0654  -11.2259   19.0756 H   0  0  0  0  0  0
  -27.4293  -12.2590   17.8649 H   0  0  0  0  0  0
  -27.6075  -14.1704   19.3832 H   0  0  0  0  0  0
  -28.7574  -12.1536   21.4007 H   0  0  0  0  0  0
  -28.2749  -13.7456   21.8306 H   0  0  0  0  0  0
  -25.2731   -9.5607   22.4819 H   0  0  0  0  0  0
  -23.9931   -7.4563   22.7471 H   0  0  0  0  0  0
  -21.0778   -8.8632   19.9029 H   0  0  0  0  0  0
  -22.3545  -10.9599   19.6177 H   0  0  0  0  0  0
  -21.1984   -7.6141   23.9729 H   0  0  0  0  0  0
  -21.1475   -6.0521   25.9113 H   0  0  0  0  0  0
  -22.0627   -2.7597   23.2857 H   0  0  0  0  0  0
  -22.3907  -11.9808   22.4820 H   0  0  0  0  0  0
  -21.1047  -13.1246   22.2710 H   0  0  0  0  0  0
  -24.5313  -15.7244   20.4160 H   0  0  0  0  0  0
  -26.0042  -15.4814   19.6231 H   0  0  0  0  0  0
  -26.7290  -32.5339   23.1108 H   0  0  0  0  0  0
  -24.9779  -33.9607   25.0177 H   0  0  0  0  0  0
  -22.7433  -31.2751   21.3996 H   0  0  0  0  0  0
  -23.3747  -35.9575   23.3301 H   0  0  0  0  0  0
  -24.3590  -36.8869   22.2075 H   0  0  0  0  0  0
  -23.7230  -37.6430   23.6684 H   0  0  0  0  0  0
  -26.1908  -31.4770   20.6277 H   0  0  0  0  0  0
  -26.8749  -30.7761   22.0356 H   0  0  0  0  0  0
  -28.0332  -28.7330   21.4004 H   0  0  0  0  0  0
  -26.0017  -26.0452   18.7776 H   0  0  0  0  0  0
  -24.0171  -27.4202   18.7930 H   0  0  0  0  0  0
  -23.8261  -30.6258   19.4056 H   0  0  0  0  0  0
  -22.7925  -29.2759   19.8099 H   0  0  0  0  0  0
  -25.1292  -36.1885   25.0832 H   0  0  0  0  0  0
  -21.0318  -28.3303   24.1340 H   0  0  0  0  0  0
  -20.4193  -26.1831   23.3590 H   0  0  0  0  0  0
  -21.7115  -26.6157   22.3292 H   0  0  0  0  0  0
  -19.8226  -25.7518   20.8775 H   0  0  0  0  0  0
  -19.7219  -27.4799   20.7031 H   0  0  0  0  0  0
  -17.4800  -26.7262   21.3179 H   0  0  0  0  0  0
  -18.1451  -25.9035   22.7384 H   0  0  0  0  0  0
  -19.9935  -30.7178   24.0270 H   0  0  0  0  0  0
  -17.7578  -31.6396   24.4306 H   0  0  0  0  0  0
  -15.7085  -30.3061   23.8877 H   0  0  0  0  0  0
  -15.9389  -28.0777   22.7483 H   0  0  0  0  0  0
  -24.5909  -30.6965   25.7952 H   0  0  0  0  0  0
  -24.8851  -32.2843   26.4946 H   0  0  0  0  0  0
  -25.8139  -30.8992   27.0263 H   0  0  0  0  0  0
  -26.2853  -29.6603   24.1464 H   0  0  0  0  0  0
  -27.3958  -29.7311   25.4927 H   0  0  0  0  0  0
  -27.8758  -30.4116   23.9586 H   0  0  0  0  0  0
  -27.2547  -33.3677   26.1886 H   0  0  0  0  0  0
  -28.3703  -32.6899   25.0172 H   0  0  0  0  0  0
  -28.0685  -31.8610   26.5340 H   0  0  0  0  0  0
  -28.2574  -38.0048   24.7525 H   0  0  0  0  0  0
  -28.1087  -36.2575   24.6257 H   0  0  0  0  0  0
  -27.2289  -37.1342   25.8853 H   0  0  0  0  0  0
  -20.9699  -29.7927   21.6405 H   0  0  0  0  0  0
  -26.0180  -38.2809   24.1338 H   0  0  0  0  0  0
  -25.9799  -19.4706   19.5127 H   0  0  0  0  0  0
  -27.1129  -17.3260   19.2583 H   0  0  0  0  0  0
  -29.4788  -18.1506   22.6993 H   0  0  0  0  0  0
  -24.1850  -21.2981   20.8426 H   0  0  0  0  0  0
  -24.5093  -21.2627   22.5439 H   0  0  0  0  0  0
  -25.5392  -24.2479   18.8508 H   0  0  0  0  0  0
  -25.0323  -22.6638   19.1501 H   0  0  0  0  0  0
  -26.6548  -22.1232   22.3706 H   0  0  0  0  0  0
  -24.6314  -24.9950   21.1997 H   0  0  0  0  0  0
  -27.4824  -22.8964   19.7916 H   0  0  0  0  0  0
  -29.0016  -19.9584   24.0441 H   0  0  0  0  0  0
  -27.3313  -20.5569   23.9005 H   0  0  0  0  0  0
  -28.6675  -21.4505   23.1572 H   0  0  0  0  0  0
  -22.1185  -23.7415   20.0747 H   0  0  0  0  0  0
  -23.0173  -24.8250   19.0338 H   0  0  0  0  0  0
  -22.4667  -25.3889   20.5403 H   0  0  0  0  0  0
  -20.7649  -23.4137   23.6238 H   0  0  0  0  0  0
  -21.9692  -24.2602   24.6368 H   0  0  0  0  0  0
  -21.3267  -22.7756   25.2703 H   0  0  0  0  0  0
  -28.2091  -24.4337   21.7705 H   0  0  0  0  0  0
  -26.6280  -25.1622   21.8312 H   0  0  0  0  0  0
  -28.2803  -15.3503   20.9666 H   0  0  0  0  0  0
  1 25  1  0  0  0
  1 30  2  0  0  0
  1 88  1  0  0  0
  2  3  1  0  0  0
  2 25  1  0  0  0
  2 90  1  0  0  0
  2 91  1  0  0  0
  3  4  1  0  0  0
  3 92  1  0  0  0
  3 93  1  0  0  0
  4  5  1  0  0  0
  4 94  1  0  0  0
  4 95  1  0  0  0
  5  6  1  0  0  0
  5 26  1  0  0  0
  5 96  1  0  0  0
  6 25  1  0  0  0
  6 97  1  0  0  0
  6 98  1  0  0  0
  7  8  2  0  0  0
  7 26  1  0  0  0
  7 29  1  0  0  0
  8  9  1  0  0  0
  8 22  1  0  0  0
  9 10  1  0  0  0
  9 27  2  0  0  0
 10 11  2  0  0  0
 10 15  1  0  0  0
 11 12  1  0  0  0
 11 99  1  0  0  0
 12 13  2  0  0  0
 12100  1  0  0  0
 13 14  1  0  0  0
 13 31  1  0  0  0
 14 15  2  0  0  0
 14101  1  0  0  0
 15102  1  0  0  0
 16 17  2  0  0  0
 16 21  1  0  0  0
 16 31  1  0  0  0
 17 18  1  0  0  0
 17103  1  0  0  0
 18 19  2  0  0  0
 18104  1  0  0  0
 19 20  1  0  0  0
 19 24  1  0  0  0
 20 21  2  0  0  0
 20105  1  0  0  0
 21 23  1  0  0  0
 22 28  1  0  0  0
 22 32  2  0  0  0
 26 27  1  0  0  0
 28106  1  0  0  0
 28107  1  0  0  0
 29108  1  0  0  0
 29109  1  0  0  0
 33 34  1  0  0  0
 33 66  1  0  0  0
 33 70  2  0  0  0
 34 36  1  0  0  0
 34 59  1  0  0  0
 34110  1  0  0  0
 35 44  2  0  0  0
 35 45  1  0  0  0
 35 68  1  0  0  0
 36 56  1  0  0  0
 36111  1  0  0  0
 37 39  1  0  0  0
 37 47  1  0  0  0
 37 66  1  0  0  0
 37112  1  0  0  0
 38 43  2  0  0  0
 38 46  1  0  0  0
 38 47  1  0  0  0
 39 64  1  0  0  0
 39 67  2  0  0  0
 40 52  1  0  0  0
 40 53  2  0  0  0
 40 58  1  0  0  0
 41113  1  0  0  0
 41114  1  0  0  0
 41115  1  0  0  0
 41 48  1  0  0  0
 42 43  1  0  0  0
 42 66  1  0  0  0
 42116  1  0  0  0
 42117  1  0  0  0
 43 44  1  0  0  0
 44118  1  0  0  0
 45 46  2  0  0  0
 45119  1  0  0  0
 46120  1  0  0  0
 47121  1  0  0  0
 47122  1  0  0  0
 48 56  1  0  0  0
 48 65  1  0  0  0
 48123  1  0  0  0
 49 50  1  0  0  0
 49 53  1  0  0  0
 49 64  1  0  0  0
 49124  1  0  0  0
 50 51  1  0  0  0
 50125  1  0  0  0
 50126  1  0  0  0
 51 52  1  0  0  0
 51127  1  0  0  0
 51128  1  0  0  0
 52129  1  0  0  0
 52130  1  0  0  0
 53 54  1  0  0  0
 54 55  2  0  0  0
 54131  1  0  0  0
 55 57  1  0  0  0
 55132  1  0  0  0
 56 69  2  0  0  0
 57 58  2  0  0  0
 57133  1  0  0  0
 58134  1  0  0  0
 59 60  1  0  0  0
 59 61  1  0  0  0
 59 62  1  0  0  0
 60135  1  0  0  0
 60136  1  0  0  0
 60137  1  0  0  0
 61138  1  0  0  0
 61139  1  0  0  0
 61140  1  0  0  0
 62141  1  0  0  0
 62142  1  0  0  0
 62143  1  0  0  0
 63 65  1  0  0  0
 63144  1  0  0  0
 63145  1  0  0  0
 63146  1  0  0  0
 64147  1  0  0  0
 65148  1  0  0  0
 68 86  1  0  0  0
 71 72  2  0  0  0
 71 74  1  0  0  0
 71149  1  0  0  0
 72 76  1  0  0  0
 72150  1  0  0  0
 73 75  1  0  0  0
 73 76  2  0  0  0
 73151  1  0  0  0
 74 75  2  0  0  0
 74 80  1  0  0  0
 75 83  1  0  0  0
 76 88  1  0  0  0
 77 78  1  0  0  0
 77 81  1  0  0  0
 77 87  2  0  0  0
 78 80  1  0  0  0
 78152  1  0  0  0
 78153  1  0  0  0
 79 81  1  0  0  0
 79 82  1  0  0  0
 79154  1  0  0  0
 79155  1  0  0  0
 80 82  1  0  0  0
 80156  1  0  0  0
 81 84  1  0  0  0
 81157  1  0  0  0
 82 86  1  0  0  0
 82158  1  0  0  0
 83159  1  0  0  0
 83160  1  0  0  0
 83161  1  0  0  0
 84162  1  0  0  0
 84163  1  0  0  0
 84164  1  0  0  0
 85 89  1  0  0  0
 85165  1  0  0  0
 85166  1  0  0  0
 85167  1  0  0  0
 86168  1  0  0  0
 86169  1  0  0  0
 87 89  1  0  0  0
 88170  1  0  0  0
M  ISO  4   1 100  68 101  86 101  88 100
M  END
> <chiral flag>
0

> <version>
0

> <s_m_source_file>
/data/baiqing/PycharmProjects/Reinvent-master-3.2/result/LINK_invent/BTK/process_docking_weight1_custom_product_contain_oxygen_bond_distance_aromatic_linkinvent_7_9_3/rearranged_h_0161.sdf

> <i_m_source_file_index>
81

> <r_mmod_Potential_Energy-OPLS-2005>
1079.99780273438

> <r_mmod_Stretch_Energy-OPLS-2005>
401.214050292969

> <r_mmod_Bend_Energy-OPLS-2005>
389.203125

> <r_mmod_Torsional_Energy-OPLS-2005>
356.902191162109

> <r_mmod_Improper_Torsional_Energy-OPLS-2005>
13.919638633728

> <r_mmod_Van_der_Waal_Energy-OPLS-2005>
153.922973632812

> <r_mmod_Electrostatic_Energy-OPLS-2005>
-380.585815429688

> <r_mmod_Solvation_Energy-OPLS-2005>
-215.851837158203

> <b_mmod_Minimization_Converged-OPLS-2005>
0

> <r_mmod_RMS_Derivative-OPLS-2005>
52.0199661254883

$$$$
81
                    3D
 Structure written by MMmdl.
147155  0  0  1  0            999 V2000
  -30.5848  -14.7198   20.4713 C   0  0  0  0  0  0
  -30.4453  -12.4381   19.4607 C   0  0  0  0  0  0
  -29.5121  -12.5047   18.2298 C   0  0  0  0  0  0
  -28.0369  -12.3281   18.6443 C   0  0  0  0  0  0
  -27.6466  -13.2181   19.8536 C   0  0  2  0  0  0
  -28.6927  -13.1147   20.9861 C   0  0  0  0  0  0
  -25.2537  -13.8166   20.5678 C   0  0  0  0  0  0
  -24.1818  -13.0431   20.9214 C   0  0  0  0  0  0
  -24.6390  -11.6903   20.8752 C   0  0  0  0  0  0
  -23.9064  -10.4287   21.0413 C   0  0  0  0  0  0
  -24.3614   -9.4200   21.9188 C   0  0  0  0  0  0
  -23.6290   -8.2236   22.0753 C   0  0  0  0  0  0
  -22.4274   -8.0277   21.3543 C   0  0  0  0  0  0
  -21.9909   -9.0252   20.4646 C   0  0  0  0  0  0
  -22.7238  -10.2132   20.3058 C   0  0  0  0  0  0
  -21.6852   -6.0735   22.5279 C   0  0  0  0  0  0
  -21.4011   -6.5638   23.8213 C   0  0  0  0  0  0
  -21.3659   -5.6791   24.9174 C   0  0  0  0  0  0
  -21.6045   -4.3054   24.7225 C   0  0  0  0  0  0
  -21.8820   -3.8146   23.4347 C   0  0  0  0  0  0
  -21.9191   -4.6963   22.3402 C   0  0  0  0  0  0
  -22.7840  -13.5223   21.1875 C   0  0  0  0  0  0
  -22.1661   -4.2147   21.0981 F   0  0  0  0  0  0
  -21.5630   -3.4538   25.7740 F   0  0  0  0  0  0
  -29.9987  -13.4762   20.4142 N   0  0  0  0  0  0
  -26.2956  -12.9345   20.3276 N   0  0  0  0  0  0
  -25.9315  -11.6504   20.5745 N   0  0  0  0  0  0
  -22.0482  -12.8212   22.0429 N   0  0  0  0  0  0
  -25.4229  -15.1890   20.4067 N   0  0  0  0  0  0
  -31.7699  -14.8670   20.1523 O   0  0  0  0  0  0
  -21.6637   -6.8877   21.4241 O   0  0  0  0  0  0
  -22.3529  -14.5531   20.6723 O   0  0  0  0  0  0
  -24.6282  -31.8566   23.1984 C   0  0  0  0  0  0
  -25.9117  -32.4765   23.8329 C   0  0  1  0  0  0
  -27.2305  -27.2902   20.1354 C   0  0  0  0  0  0
  -25.5923  -33.8565   24.2259 N   0  0  0  0  0  0
  -23.4253  -30.4765   21.5408 C   0  0  2  0  0  0
  -24.8749  -28.9191   20.1169 C   0  0  0  0  0  0
  -22.7488  -29.4607   22.4923 C   0  0  0  0  0  0
  -18.0291  -28.1392   22.8492 C   0  0  0  0  0  0
  -24.1488  -36.7285   23.2640 C   0  0  0  0  0  0
  -25.9672  -30.7796   21.3716 C   0  0  0  0  0  0
  -26.0445  -29.4015   20.7194 C   0  0  0  0  0  0
  -27.2287  -28.6016   20.7118 C   0  0  0  0  0  0
  -26.0393  -26.8590   19.5167 C   0  0  0  0  0  0
  -24.8755  -27.6547   19.5044 C   0  0  0  0  0  0
  -23.6439  -29.8043   20.1594 C   0  0  0  0  0  0
  -25.4114  -36.3075   24.0329 C   0  0  1  0  0  0
  -20.5894  -28.3696   23.1281 C   0  0  2  0  0  0
  -20.6778  -26.9416   22.5412 C   0  0  0  0  0  0
  -19.5748  -26.6390   21.5216 C   0  0  0  0  0  0
  -18.1931  -26.7934   22.1632 C   0  0  0  0  0  0
  -19.1544  -28.8859   23.2883 C   0  0  0  0  0  0
  -18.9466  -30.1465   23.8897 C   0  0  0  0  0  0
  -17.6465  -30.6593   24.0568 C   0  0  0  0  0  0
  -25.9053  -34.9445   23.5096 C   0  0  0  0  0  0
  -16.5356  -29.9090   23.6338 C   0  0  0  0  0  0
  -16.7278  -28.6510   23.0356 C   0  0  0  0  0  0
  -26.4492  -31.6582   25.0707 C   0  0  0  0  0  0
  -25.3721  -31.3741   26.1435 C   0  0  0  0  0  0
  -27.0331  -30.2999   24.6173 C   0  0  0  0  0  0
  -27.6052  -32.4313   25.7480 C   0  0  0  0  0  0
  -27.5580  -37.1798   24.8466 C   0  0  0  0  0  0
  -21.4197  -29.3041   22.3667 N   0  0  0  0  0  0
  -26.4289  -37.3772   23.9410 N   0  0  0  0  0  0
  -24.6927  -31.0553   22.0942 N   0  0  0  0  0  0
  -23.4193  -28.8157   23.3029 O   0  0  0  0  0  0
  -28.3406  -26.4284   20.1266 O   0  0  0  0  0  0
  -26.5627  -34.8915   22.4665 O   0  0  0  0  0  0
  -23.5438  -32.1370   23.7291 O   0  0  0  0  0  0
  -30.6226  -19.4193   20.8019 C   0  0  0  0  0  0
  -29.3758  -19.8028   20.3250 C   0  0  0  0  0  0
  -29.8125  -17.2444   20.5513 C   0  0  0  0  0  0
  -28.6376  -23.7863   19.9453 C   0  0  0  0  0  0
  -29.0731  -22.4272   20.6817 C   0  0  0  0  0  0
  -28.1965  -25.0833   20.7669 C   0  0  0  0  0  0
  -30.8579  -18.0114   20.9119 N   0  0  0  0  0  0
  -28.8061  -21.1003   20.0001 N   0  0  0  0  0  0
  -29.7203  -15.7767   20.6776 N   0  0  0  0  0  0
  -28.6224  -23.8132   18.7102 O   0  0  0  0  0  0
  -28.4509  -18.3036   20.0414 S   0  0  0  0  0  0
  -31.4826  -12.5830   19.1537 H   0  0  0  0  0  0
  -30.4048  -11.4517   19.9257 H   0  0  0  0  0  0
  -29.7895  -11.7383   17.5047 H   0  0  0  0  0  0
  -29.6383  -13.4630   17.7238 H   0  0  0  0  0  0
  -27.8912  -11.2780   18.8999 H   0  0  0  0  0  0
  -27.3787  -12.5280   17.7978 H   0  0  0  0  0  0
  -27.6486  -14.2432   19.4843 H   0  0  0  0  0  0
  -28.7234  -12.1024   21.3923 H   0  0  0  0  0  0
  -28.4288  -13.7646   21.8223 H   0  0  0  0  0  0
  -25.2761   -9.5675   22.4761 H   0  0  0  0  0  0
  -24.0003   -7.4624   22.7465 H   0  0  0  0  0  0
  -21.0843   -8.8770   19.8948 H   0  0  0  0  0  0
  -22.3699  -10.9670   19.6166 H   0  0  0  0  0  0
  -21.2003   -7.6144   23.9715 H   0  0  0  0  0  0
  -21.1481   -6.0521   25.9077 H   0  0  0  0  0  0
  -22.0599   -2.7608   23.2847 H   0  0  0  0  0  0
  -22.4094  -11.9869   22.4812 H   0  0  0  0  0  0
  -21.1098  -13.1233   22.2634 H   0  0  0  0  0  0
  -24.6466  -15.8342   20.5065 H   0  0  0  0  0  0
  -26.2475  -15.6263   20.0179 H   0  0  0  0  0  0
  -26.7185  -32.5425   23.1077 H   0  0  0  0  0  0
  -25.0069  -33.9705   25.0405 H   0  0  0  0  0  0
  -22.7217  -31.2981   21.3926 H   0  0  0  0  0  0
  -23.3752  -35.9614   23.3299 H   0  0  0  0  0  0
  -24.3584  -36.8907   22.2055 H   0  0  0  0  0  0
  -23.7231  -37.6482   23.6662 H   0  0  0  0  0  0
  -26.0991  -31.5395   20.6003 H   0  0  0  0  0  0
  -26.8472  -30.8332   22.0012 H   0  0  0  0  0  0
  -28.1301  -28.9721   21.1799 H   0  0  0  0  0  0
  -26.0076  -25.8877   19.0434 H   0  0  0  0  0  0
  -23.9797  -27.2810   19.0273 H   0  0  0  0  0  0
  -23.7674  -30.5770   19.3997 H   0  0  0  0  0  0
  -22.7632  -29.2345   19.8571 H   0  0  0  0  0  0
  -25.1295  -36.1925   25.0821 H   0  0  0  0  0  0
  -20.9995  -28.3268   24.1397 H   0  0  0  0  0  0
  -20.5683  -26.2303   23.3613 H   0  0  0  0  0  0
  -21.6646  -26.7443   22.1206 H   0  0  0  0  0  0
  -19.6910  -25.6300   21.1248 H   0  0  0  0  0  0
  -19.6689  -27.3200   20.6747 H   0  0  0  0  0  0
  -17.4205  -26.6689   21.4029 H   0  0  0  0  0  0
  -18.0332  -26.0072   22.9027 H   0  0  0  0  0  0
  -19.7938  -30.7289   24.2256 H   0  0  0  0  0  0
  -17.5018  -31.6271   24.5172 H   0  0  0  0  0  0
  -15.5358  -30.2995   23.7654 H   0  0  0  0  0  0
  -15.8681  -28.0831   22.7064 H   0  0  0  0  0  0
  -24.5886  -30.7096   25.7771 H   0  0  0  0  0  0
  -24.8923  -32.2917   26.4847 H   0  0  0  0  0  0
  -25.8040  -30.8927   27.0216 H   0  0  0  0  0  0
  -26.2903  -29.6751   24.1195 H   0  0  0  0  0  0
  -27.4019  -29.7257   25.4684 H   0  0  0  0  0  0
  -27.8779  -30.4281   23.9402 H   0  0  0  0  0  0
  -27.2672  -33.3625   26.2039 H   0  0  0  0  0  0
  -28.3874  -32.6850   25.0314 H   0  0  0  0  0  0
  -28.0700  -31.8441   26.5409 H   0  0  0  0  0  0
  -28.2601  -38.0094   24.7520 H   0  0  0  0  0  0
  -28.1075  -36.2627   24.6285 H   0  0  0  0  0  0
  -27.2304  -37.1440   25.8872 H   0  0  0  0  0  0
  -20.9375  -29.8762   21.6873 H   0  0  0  0  0  0
  -26.0170  -38.2845   24.1416 H   0  0  0  0  0  0
  -31.4329  -20.0856   21.0623 H   0  0  0  0  0  0
  -28.5803  -22.4157   21.6545 H   0  0  0  0  0  0
  -30.1410  -22.5026   20.8891 H   0  0  0  0  0  0
  -28.7782  -25.0967   21.6885 H   0  0  0  0  0  0
  -27.1613  -24.9365   21.0754 H   0  0  0  0  0  0
  -27.9171  -21.0892   19.5036 H   0  0  0  0  0  0
  -28.7775  -15.4536   20.8188 H   0  0  0  0  0  0
  1 25  1  0  0  0
  1 30  2  0  0  0
  1 79  1  0  0  0
  2  3  1  0  0  0
  2 25  1  0  0  0
  2 82  1  0  0  0
  2 83  1  0  0  0
  3  4  1  0  0  0
  3 84  1  0  0  0
  3 85  1  0  0  0
  4  5  1  0  0  0
  4 86  1  0  0  0
  4 87  1  0  0  0
  5  6  1  0  0  0
  5 26  1  0  0  0
  5 88  1  0  0  0
  6 25  1  0  0  0
  6 89  1  0  0  0
  6 90  1  0  0  0
  7  8  2  0  0  0
  7 26  1  0  0  0
  7 29  1  0  0  0
  8  9  1  0  0  0
  8 22  1  0  0  0
  9 10  1  0  0  0
  9 27  2  0  0  0
 10 11  2  0  0  0
 10 15  1  0  0  0
 11 12  1  0  0  0
 11 91  1  0  0  0
 12 13  2  0  0  0
 12 92  1  0  0  0
 13 14  1  0  0  0
 13 31  1  0  0  0
 14 15  2  0  0  0
 14 93  1  0  0  0
 15 94  1  0  0  0
 16 17  2  0  0  0
 16 21  1  0  0  0
 16 31  1  0  0  0
 17 18  1  0  0  0
 17 95  1  0  0  0
 18 19  2  0  0  0
 18 96  1  0  0  0
 19 20  1  0  0  0
 19 24  1  0  0  0
 20 21  2  0  0  0
 20 97  1  0  0  0
 21 23  1  0  0  0
 22 28  1  0  0  0
 22 32  2  0  0  0
 26 27  1  0  0  0
 28 98  1  0  0  0
 28 99  1  0  0  0
 29100  1  0  0  0
 29101  1  0  0  0
 33 34  1  0  0  0
 33 66  1  0  0  0
 33 70  2  0  0  0
 34 36  1  0  0  0
 34 59  1  0  0  0
 34102  1  0  0  0
 35 44  2  0  0  0
 35 45  1  0  0  0
 35 68  1  0  0  0
 36 56  1  0  0  0
 36103  1  0  0  0
 37 39  1  0  0  0
 37 47  1  0  0  0
 37 66  1  0  0  0
 37104  1  0  0  0
 38 43  2  0  0  0
 38 46  1  0  0  0
 38 47  1  0  0  0
 39 64  1  0  0  0
 39 67  2  0  0  0
 40 52  1  0  0  0
 40 53  2  0  0  0
 40 58  1  0  0  0
 41105  1  0  0  0
 41106  1  0  0  0
 41107  1  0  0  0
 41 48  1  0  0  0
 42 43  1  0  0  0
 42 66  1  0  0  0
 42108  1  0  0  0
 42109  1  0  0  0
 43 44  1  0  0  0
 44110  1  0  0  0
 45 46  2  0  0  0
 45111  1  0  0  0
 46112  1  0  0  0
 47113  1  0  0  0
 47114  1  0  0  0
 48 56  1  0  0  0
 48 65  1  0  0  0
 48115  1  0  0  0
 49 50  1  0  0  0
 49 53  1  0  0  0
 49 64  1  0  0  0
 49116  1  0  0  0
 50 51  1  0  0  0
 50117  1  0  0  0
 50118  1  0  0  0
 51 52  1  0  0  0
 51119  1  0  0  0
 51120  1  0  0  0
 52121  1  0  0  0
 52122  1  0  0  0
 53 54  1  0  0  0
 54 55  2  0  0  0
 54123  1  0  0  0
 55 57  1  0  0  0
 55124  1  0  0  0
 56 69  2  0  0  0
 57 58  2  0  0  0
 57125  1  0  0  0
 58126  1  0  0  0
 59 60  1  0  0  0
 59 61  1  0  0  0
 59 62  1  0  0  0
 60127  1  0  0  0
 60128  1  0  0  0
 60129  1  0  0  0
 61130  1  0  0  0
 61131  1  0  0  0
 61132  1  0  0  0
 62133  1  0  0  0
 62134  1  0  0  0
 62135  1  0  0  0
 63 65  1  0  0  0
 63136  1  0  0  0
 63137  1  0  0  0
 63138  1  0  0  0
 64139  1  0  0  0
 65140  1  0  0  0
 68 76  1  0  0  0
 71 72  2  0  0  0
 71 77  1  0  0  0
 71141  1  0  0  0
 72 78  1  0  0  0
 72 81  1  0  0  0
 73 77  2  0  0  0
 73 79  1  0  0  0
 73 81  1  0  0  0
 74 75  1  0  0  0
 74 76  1  0  0  0
 74 80  2  0  0  0
 75 78  1  0  0  0
 75142  1  0  0  0
 75143  1  0  0  0
 76144  1  0  0  0
 76145  1  0  0  0
 78146  1  0  0  0
 79147  1  0  0  0
M  ISO  4   1 100  68 101  76 101  79 100
M  END
> <chiral flag>
0

> <version>
0

> <s_m_source_file>
/data/baiqing/PycharmProjects/Reinvent-master-3.2/result/LINK_invent/BTK/process_docking_weight1_custom_product_contain_oxygen_bond_distance_aromatic_linkinvent_7_9_3/rearranged_h_0161.sdf

> <i_m_source_file_index>
82

> <r_mmod_Potential_Energy-OPLS-2005>
157.300384521484

> <r_mmod_Stretch_Energy-OPLS-2005>
100.637008666992

> <r_mmod_Bend_Energy-OPLS-2005>
158.832153320312

> <r_mmod_Torsional_Energy-OPLS-2005>
237.253631591797

> <r_mmod_Improper_Torsional_Energy-OPLS-2005>
7.34930038452148

> <r_mmod_Van_der_Waal_Energy-OPLS-2005>
110.440734863281

> <r_mmod_Electrostatic_Energy-OPLS-2005>
-260.347930908203

> <r_mmod_Solvation_Energy-OPLS-2005>
-266.898986816406

> <b_mmod_Minimization_Converged-OPLS-2005>
0

> <r_mmod_RMS_Derivative-OPLS-2005>
0.768872022628784

$$$$
82
                    3D
 Structure written by MMmdl.
165173  0  0  1  0            999 V2000
  -30.7202  -14.4248   20.5819 C   0  0  0  0  0  0
  -30.4108  -12.2851   19.4089 C   0  0  0  0  0  0
  -29.4794  -12.4889   18.1980 C   0  0  0  0  0  0
  -28.0014  -12.3617   18.6161 C   0  0  0  0  0  0
  -27.6577  -13.2045   19.8729 C   0  0  2  0  0  0
  -28.6984  -12.9789   20.9911 C   0  0  0  0  0  0
  -25.2571  -13.8177   20.5709 C   0  0  0  0  0  0
  -24.1835  -13.0448   20.9204 C   0  0  0  0  0  0
  -24.6393  -11.6914   20.8774 C   0  0  0  0  0  0
  -23.9085  -10.4287   21.0434 C   0  0  0  0  0  0
  -24.3629   -9.4194   21.9203 C   0  0  0  0  0  0
  -23.6290   -8.2234   22.0764 C   0  0  0  0  0  0
  -22.4274   -8.0283   21.3546 C   0  0  0  0  0  0
  -21.9912   -9.0269   20.4659 C   0  0  0  0  0  0
  -22.7258  -10.2144   20.3075 C   0  0  0  0  0  0
  -21.6841   -6.0734   22.5286 C   0  0  0  0  0  0
  -21.4007   -6.5648   23.8218 C   0  0  0  0  0  0
  -21.3654   -5.6806   24.9183 C   0  0  0  0  0  0
  -21.6038   -4.3065   24.7235 C   0  0  0  0  0  0
  -21.8822   -3.8153   23.4358 C   0  0  0  0  0  0
  -21.9190   -4.6962   22.3411 C   0  0  0  0  0  0
  -22.7855  -13.5238   21.1867 C   0  0  0  0  0  0
  -22.1659   -4.2141   21.0984 F   0  0  0  0  0  0
  -21.5626   -3.4557   25.7751 F   0  0  0  0  0  0
  -30.0293  -13.2658   20.4343 N   0  0  0  0  0  0
  -26.3000  -12.9340   20.3388 N   0  0  0  0  0  0
  -25.9314  -11.6501   20.5819 N   0  0  0  0  0  0
  -22.0523  -12.8201   22.0427 N   0  0  0  0  0  0
  -25.4309  -15.1890   20.4114 N   0  0  0  0  0  0
  -31.8290  -14.6031   20.0738 O   0  0  0  0  0  0
  -21.6641   -6.8876   21.4246 O   0  0  0  0  0  0
  -22.3539  -14.5554   20.6745 O   0  0  0  0  0  0
  -24.6134  -31.8722   23.2128 C   0  0  0  0  0  0
  -25.9034  -32.4841   23.8403 C   0  0  1  0  0  0
  -27.2296  -27.4644   20.0811 C   0  0  0  0  0  0
  -25.5887  -33.8642   24.2339 N   0  0  0  0  0  0
  -23.3967  -30.4940   21.5586 C   0  0  2  0  0  0
  -24.8401  -28.9622   20.1198 C   0  0  0  0  0  0
  -22.7379  -29.4665   22.5057 C   0  0  0  0  0  0
  -18.0253  -28.1352   22.8483 C   0  0  0  0  0  0
  -24.1490  -36.7334   23.2649 C   0  0  0  0  0  0
  -25.9205  -30.8451   21.3573 C   0  0  0  0  0  0
  -25.9991  -29.4772   20.7145 C   0  0  0  0  0  0
  -27.1990  -28.7322   20.6997 C   0  0  0  0  0  0
  -26.0623  -26.9625   19.4757 C   0  0  0  0  0  0
  -24.8650  -27.6996   19.4998 C   0  0  0  0  0  0
  -23.6001  -29.8261   20.1715 C   0  0  0  0  0  0
  -25.4101  -36.3135   24.0352 C   0  0  1  0  0  0
  -20.5835  -28.3628   23.1364 C   0  0  2  0  0  0
  -20.6727  -26.9374   22.5424 C   0  0  0  0  0  0
  -19.5723  -26.6372   21.5203 C   0  0  0  0  0  0
  -18.1907  -26.7895   22.1617 C   0  0  0  0  0  0
  -19.1504  -28.8802   23.2920 C   0  0  0  0  0  0
  -18.9433  -30.1402   23.8934 C   0  0  0  0  0  0
  -17.6441  -30.6574   24.0550 C   0  0  0  0  0  0
  -25.9025  -34.9498   23.5144 C   0  0  0  0  0  0
  -16.5325  -29.9068   23.6324 C   0  0  0  0  0  0
  -16.7239  -28.6479   23.0348 C   0  0  0  0  0  0
  -26.4441  -31.6602   25.0712 C   0  0  0  0  0  0
  -25.3721  -31.3707   26.1479 C   0  0  0  0  0  0
  -27.0229  -30.3051   24.6028 C   0  0  0  0  0  0
  -27.6022  -32.4304   25.7474 C   0  0  0  0  0  0
  -27.5586  -37.1830   24.8484 C   0  0  0  0  0  0
  -21.4109  -29.3027   22.3799 N   0  0  0  0  0  0
  -26.4297  -37.3795   23.9421 N   0  0  0  0  0  0
  -24.6618  -31.0834   22.1021 N   0  0  0  0  0  0
  -23.4176  -28.8232   23.3094 O   0  0  0  0  0  0
  -28.3862  -26.7313   20.0050 O   0  0  0  0  0  0
  -26.5596  -34.8944   22.4704 O   0  0  0  0  0  0
  -23.5345  -32.1431   23.7563 O   0  0  0  0  0  0
  -31.8500  -16.9881   21.8091 C   0  0  0  0  0  0
  -29.6442  -17.8399   21.2561 C   0  0  0  0  0  0
  -32.3195  -18.2988   22.0103 C   0  0  0  0  0  0
  -31.4524  -19.4093   21.8219 C   0  0  0  0  0  0
  -30.5205  -16.7429   21.4157 C   0  0  0  0  0  0
  -30.1020  -19.1664   21.4349 C   0  0  0  0  0  0
  -28.7054  -22.2481   19.8190 C   0  0  0  0  0  0
  -28.0742  -24.4848   20.9499 C   0  0  0  0  0  0
  -33.7676  -18.4555   22.4358 C   0  0  0  0  0  0
  -32.9646  -21.3802   21.0817 C   0  0  0  0  0  0
  -31.9465  -20.8366   22.0981 C   0  0  0  0  0  0
  -29.0784  -23.3240   20.8542 C   0  0  0  0  0  0
  -29.4140  -20.8933   19.9375 C   0  0  0  0  0  0
  -28.6554  -25.8990   21.1349 C   0  0  0  0  0  0
  -30.0534  -15.4130   21.2077 N   0  0  0  0  0  0
  -29.1980  -20.2178   21.2175 N   0  0  0  0  0  0
  -27.9357  -22.4536   18.8755 O   0  0  0  0  0  0
  -26.8531  -24.2946   20.9894 O   0  0  0  0  0  0
  -31.4529  -12.3811   19.0969 H   0  0  0  0  0  0
  -30.3175  -11.2734   19.8057 H   0  0  0  0  0  0
  -29.7072  -11.7555   17.4221 H   0  0  0  0  0  0
  -29.6556  -13.4714   17.7576 H   0  0  0  0  0  0
  -27.8068  -11.3070   18.8126 H   0  0  0  0  0  0
  -27.3498  -12.6378   17.7862 H   0  0  0  0  0  0
  -27.7065  -14.2533   19.5755 H   0  0  0  0  0  0
  -28.6644  -11.9482   21.3491 H   0  0  0  0  0  0
  -28.4632  -13.5918   21.8619 H   0  0  0  0  0  0
  -25.2776   -9.5658   22.4772 H   0  0  0  0  0  0
  -23.9989   -7.4627   22.7485 H   0  0  0  0  0  0
  -21.0833   -8.8801   19.8974 H   0  0  0  0  0  0
  -22.3719  -10.9688   19.6180 H   0  0  0  0  0  0
  -21.1997   -7.6154   23.9719 H   0  0  0  0  0  0
  -21.1476   -6.0539   25.9084 H   0  0  0  0  0  0
  -22.0600   -2.7613   23.2880 H   0  0  0  0  0  0
  -22.4115  -11.9793   22.4703 H   0  0  0  0  0  0
  -21.1170  -13.1240   22.2724 H   0  0  0  0  0  0
  -24.6715  -15.8495   20.5375 H   0  0  0  0  0  0
  -26.2820  -15.6291   20.0846 H   0  0  0  0  0  0
  -26.7107  -32.5564   23.1185 H   0  0  0  0  0  0
  -25.0000  -33.9792   25.0459 H   0  0  0  0  0  0
  -22.6853  -31.3120   21.4248 H   0  0  0  0  0  0
  -23.3723  -35.9698   23.3336 H   0  0  0  0  0  0
  -24.3601  -36.8903   22.2063 H   0  0  0  0  0  0
  -23.7259  -37.6560   23.6615 H   0  0  0  0  0  0
  -26.0203  -31.6046   20.5796 H   0  0  0  0  0  0
  -26.8152  -30.9099   21.9638 H   0  0  0  0  0  0
  -28.0967  -29.1313   21.1488 H   0  0  0  0  0  0
  -26.0831  -25.9986   18.9880 H   0  0  0  0  0  0
  -23.9775  -27.2960   19.0337 H   0  0  0  0  0  0
  -23.6973  -30.6015   19.4100 H   0  0  0  0  0  0
  -22.7241  -29.2433   19.8822 H   0  0  0  0  0  0
  -25.1274  -36.2004   25.0838 H   0  0  0  0  0  0
  -20.9897  -28.3139   24.1501 H   0  0  0  0  0  0
  -20.5606  -26.2217   23.3580 H   0  0  0  0  0  0
  -21.6607  -26.7413   22.1252 H   0  0  0  0  0  0
  -19.6884  -25.6293   21.1220 H   0  0  0  0  0  0
  -19.6681  -27.3183   20.6735 H   0  0  0  0  0  0
  -17.4167  -26.6628   21.4026 H   0  0  0  0  0  0
  -18.0337  -26.0030   22.9017 H   0  0  0  0  0  0
  -19.7907  -30.7197   24.2345 H   0  0  0  0  0  0
  -17.5001  -31.6280   24.5112 H   0  0  0  0  0  0
  -15.5327  -30.2994   23.7628 H   0  0  0  0  0  0
  -15.8624  -28.0811   22.7067 H   0  0  0  0  0  0
  -24.5897  -30.7031   25.7845 H   0  0  0  0  0  0
  -24.8899  -32.2858   26.4940 H   0  0  0  0  0  0
  -25.8109  -30.8893   27.0230 H   0  0  0  0  0  0
  -26.2730  -29.6872   24.1070 H   0  0  0  0  0  0
  -27.3996  -29.7242   25.4456 H   0  0  0  0  0  0
  -27.8575  -30.4390   23.9137 H   0  0  0  0  0  0
  -27.2622  -33.3584   26.2093 H   0  0  0  0  0  0
  -28.3797  -32.6896   25.0272 H   0  0  0  0  0  0
  -28.0694  -31.8384   26.5357 H   0  0  0  0  0  0
  -28.2636  -38.0095   24.7475 H   0  0  0  0  0  0
  -28.1040  -36.2629   24.6341 H   0  0  0  0  0  0
  -27.2333  -37.1536   25.8898 H   0  0  0  0  0  0
  -20.9248  -29.8756   21.7048 H   0  0  0  0  0  0
  -26.0207  -38.2897   24.1324 H   0  0  0  0  0  0
  -32.5251  -16.1575   21.9656 H   0  0  0  0  0  0
  -28.6177  -17.6603   20.9692 H   0  0  0  0  0  0
  -34.1988  -17.4913   22.7041 H   0  0  0  0  0  0
  -33.8617  -19.1108   23.3005 H   0  0  0  0  0  0
  -34.3686  -18.8439   21.6176 H   0  0  0  0  0  0
  -32.6450  -21.2234   20.0526 H   0  0  0  0  0  0
  -33.9455  -20.9264   21.1983 H   0  0  0  0  0  0
  -33.1044  -22.4510   21.2317 H   0  0  0  0  0  0
  -32.3754  -20.8766   23.0978 H   0  0  0  0  0  0
  -31.1107  -21.5319   22.1445 H   0  0  0  0  0  0
  -29.1578  -22.8590   21.8335 H   0  0  0  0  0  0
  -30.0658  -23.7099   20.6104 H   0  0  0  0  0  0
  -30.4738  -21.0547   19.7545 H   0  0  0  0  0  0
  -29.0562  -20.2409   19.1387 H   0  0  0  0  0  0
  -29.7347  -25.8362   21.2731 H   0  0  0  0  0  0
  -28.2407  -26.3430   22.0429 H   0  0  0  0  0  0
  -29.0929  -15.2128   21.4378 H   0  0  0  0  0  0
  -28.2235  -19.9573   21.3341 H   0  0  0  0  0  0
  1 25  1  0  0  0
  1 30  2  0  0  0
  1 85  1  0  0  0
  2  3  1  0  0  0
  2 25  1  0  0  0
  2 89  1  0  0  0
  2 90  1  0  0  0
  3  4  1  0  0  0
  3 91  1  0  0  0
  3 92  1  0  0  0
  4  5  1  0  0  0
  4 93  1  0  0  0
  4 94  1  0  0  0
  5  6  1  0  0  0
  5 26  1  0  0  0
  5 95  1  0  0  0
  6 25  1  0  0  0
  6 96  1  0  0  0
  6 97  1  0  0  0
  7  8  2  0  0  0
  7 26  1  0  0  0
  7 29  1  0  0  0
  8  9  1  0  0  0
  8 22  1  0  0  0
  9 10  1  0  0  0
  9 27  2  0  0  0
 10 11  2  0  0  0
 10 15  1  0  0  0
 11 12  1  0  0  0
 11 98  1  0  0  0
 12 13  2  0  0  0
 12 99  1  0  0  0
 13 14  1  0  0  0
 13 31  1  0  0  0
 14 15  2  0  0  0
 14100  1  0  0  0
 15101  1  0  0  0
 16 17  2  0  0  0
 16 21  1  0  0  0
 16 31  1  0  0  0
 17 18  1  0  0  0
 17102  1  0  0  0
 18 19  2  0  0  0
 18103  1  0  0  0
 19 20  1  0  0  0
 19 24  1  0  0  0
 20 21  2  0  0  0
 20104  1  0  0  0
 21 23  1  0  0  0
 22 28  1  0  0  0
 22 32  2  0  0  0
 26 27  1  0  0  0
 28105  1  0  0  0
 28106  1  0  0  0
 29107  1  0  0  0
 29108  1  0  0  0
 33 34  1  0  0  0
 33 66  1  0  0  0
 33 70  2  0  0  0
 34 36  1  0  0  0
 34 59  1  0  0  0
 34109  1  0  0  0
 35 44  2  0  0  0
 35 45  1  0  0  0
 35 68  1  0  0  0
 36 56  1  0  0  0
 36110  1  0  0  0
 37 39  1  0  0  0
 37 47  1  0  0  0
 37 66  1  0  0  0
 37111  1  0  0  0
 38 43  2  0  0  0
 38 46  1  0  0  0
 38 47  1  0  0  0
 39 64  1  0  0  0
 39 67  2  0  0  0
 40 52  1  0  0  0
 40 53  2  0  0  0
 40 58  1  0  0  0
 41112  1  0  0  0
 41113  1  0  0  0
 41114  1  0  0  0
 41 48  1  0  0  0
 42 43  1  0  0  0
 42 66  1  0  0  0
 42115  1  0  0  0
 42116  1  0  0  0
 43 44  1  0  0  0
 44117  1  0  0  0
 45 46  2  0  0  0
 45118  1  0  0  0
 46119  1  0  0  0
 47120  1  0  0  0
 47121  1  0  0  0
 48 56  1  0  0  0
 48 65  1  0  0  0
 48122  1  0  0  0
 49 50  1  0  0  0
 49 53  1  0  0  0
 49 64  1  0  0  0
 49123  1  0  0  0
 50 51  1  0  0  0
 50124  1  0  0  0
 50125  1  0  0  0
 51 52  1  0  0  0
 51126  1  0  0  0
 51127  1  0  0  0
 52128  1  0  0  0
 52129  1  0  0  0
 53 54  1  0  0  0
 54 55  2  0  0  0
 54130  1  0  0  0
 55 57  1  0  0  0
 55131  1  0  0  0
 56 69  2  0  0  0
 57 58  2  0  0  0
 57132  1  0  0  0
 58133  1  0  0  0
 59 60  1  0  0  0
 59 61  1  0  0  0
 59 62  1  0  0  0
 60134  1  0  0  0
 60135  1  0  0  0
 60136  1  0  0  0
 61137  1  0  0  0
 61138  1  0  0  0
 61139  1  0  0  0
 62140  1  0  0  0
 62141  1  0  0  0
 62142  1  0  0  0
 63 65  1  0  0  0
 63143  1  0  0  0
 63144  1  0  0  0
 63145  1  0  0  0
 64146  1  0  0  0
 65147  1  0  0  0
 68 84  1  0  0  0
 71 73  2  0  0  0
 71 75  1  0  0  0
 71148  1  0  0  0
 72 75  2  0  0  0
 72 76  1  0  0  0
 72149  1  0  0  0
 73 74  1  0  0  0
 73 79  1  0  0  0
 74 76  2  0  0  0
 74 81  1  0  0  0
 75 85  1  0  0  0
 76 86  1  0  0  0
 77 82  1  0  0  0
 77 83  1  0  0  0
 77 87  2  0  0  0
 78 82  1  0  0  0
 78 84  1  0  0  0
 78 88  2  0  0  0
 79150  1  0  0  0
 79151  1  0  0  0
 79152  1  0  0  0
 80 81  1  0  0  0
 80153  1  0  0  0
 80154  1  0  0  0
 80155  1  0  0  0
 81156  1  0  0  0
 81157  1  0  0  0
 82158  1  0  0  0
 82159  1  0  0  0
 83 86  1  0  0  0
 83160  1  0  0  0
 83161  1  0  0  0
 84162  1  0  0  0
 84163  1  0  0  0
 85164  1  0  0  0
 86165  1  0  0  0
M  ISO  4   1 100  68 101  84 101  85 100
M  END
> <chiral flag>
0

> <version>
0

> <s_m_source_file>
/data/baiqing/PycharmProjects/Reinvent-master-3.2/result/LINK_invent/BTK/process_docking_weight1_custom_product_contain_oxygen_bond_distance_aromatic_linkinvent_7_9_3/rearranged_h_0161.sdf

> <i_m_source_file_index>
83

> <r_mmod_Potential_Energy-OPLS-2005>
-37.2293128967285

> <r_mmod_Stretch_Energy-OPLS-2005>
35.3011779785156

> <r_mmod_Bend_Energy-OPLS-2005>
93.3489379882812

> <r_mmod_Torsional_Energy-OPLS-2005>
270.963470458984

> <r_mmod_Improper_Torsional_Energy-OPLS-2005>
9.73575305938721

> <r_mmod_Van_der_Waal_Energy-OPLS-2005>
160.275497436523

> <r_mmod_Electrostatic_Energy-OPLS-2005>
-367.848419189453

> <r_mmod_Solvation_Energy-OPLS-2005>
-248.131561279297

> <b_mmod_Minimization_Converged-OPLS-2005>
0

> <r_mmod_RMS_Derivative-OPLS-2005>
3.94869995117188

$$$$
83
                    3D
 Structure written by MMmdl.
164173  0  0  1  0            999 V2000
  -30.6944  -14.4734   20.5813 C   0  0  0  0  0  0
  -30.4252  -12.3119   19.4222 C   0  0  0  0  0  0
  -29.4954  -12.5086   18.2070 C   0  0  0  0  0  0
  -28.0165  -12.3658   18.6190 C   0  0  0  0  0  0
  -27.6616  -13.2042   19.8762 C   0  0  2  0  0  0
  -28.7025  -12.9827   20.9972 C   0  0  0  0  0  0
  -25.2588  -13.8155   20.5677 C   0  0  0  0  0  0
  -24.1836  -13.0436   20.9172 C   0  0  0  0  0  0
  -24.6385  -11.6900   20.8727 C   0  0  0  0  0  0
  -23.9049  -10.4289   21.0397 C   0  0  0  0  0  0
  -24.3605   -9.4208   21.9177 C   0  0  0  0  0  0
  -23.6278   -8.2241   22.0751 C   0  0  0  0  0  0
  -22.4261   -8.0280   21.3539 C   0  0  0  0  0  0
  -21.9890   -9.0254   20.4646 C   0  0  0  0  0  0
  -22.7217  -10.2132   20.3052 C   0  0  0  0  0  0
  -21.6855   -6.0729   22.5275 C   0  0  0  0  0  0
  -21.4022   -6.5635   23.8207 C   0  0  0  0  0  0
  -21.3656   -5.6787   24.9168 C   0  0  0  0  0  0
  -21.6041   -4.3050   24.7220 C   0  0  0  0  0  0
  -21.8825   -3.8140   23.4344 C   0  0  0  0  0  0
  -21.9195   -4.6957   22.3399 C   0  0  0  0  0  0
  -22.7860  -13.5240   21.1836 C   0  0  0  0  0  0
  -22.1662   -4.2145   21.0975 F   0  0  0  0  0  0
  -21.5622   -3.4537   25.7731 F   0  0  0  0  0  0
  -30.0336  -13.2922   20.4471 N   0  0  0  0  0  0
  -26.3017  -12.9318   20.3357 N   0  0  0  0  0  0
  -25.9312  -11.6482   20.5760 N   0  0  0  0  0  0
  -22.0499  -12.8244   22.0399 N   0  0  0  0  0  0
  -25.4315  -15.1873   20.4092 N   0  0  0  0  0  0
  -31.8162  -14.6705   20.1081 O   0  0  0  0  0  0
  -21.6636   -6.8871   21.4235 O   0  0  0  0  0  0
  -22.3549  -14.5545   20.6677 O   0  0  0  0  0  0
  -24.6139  -31.8687   23.2114 C   0  0  0  0  0  0
  -25.9035  -32.4824   23.8408 C   0  0  1  0  0  0
  -27.2368  -27.4356   20.1027 C   0  0  0  0  0  0
  -25.5896  -33.8622   24.2337 N   0  0  0  0  0  0
  -23.4036  -30.4917   21.5501 C   0  0  2  0  0  0
  -24.8544  -28.9577   20.1175 C   0  0  0  0  0  0
  -22.7411  -29.4657   22.4974 C   0  0  0  0  0  0
  -18.0277  -28.1378   22.8490 C   0  0  0  0  0  0
  -24.1483  -36.7313   23.2637 C   0  0  0  0  0  0
  -25.9324  -30.8322   21.3688 C   0  0  0  0  0  0
  -26.0119  -29.4636   20.7245 C   0  0  0  0  0  0
  -27.2074  -28.7064   20.7273 C   0  0  0  0  0  0
  -26.0700  -26.9516   19.4815 C   0  0  0  0  0  0
  -24.8765  -27.6971   19.4962 C   0  0  0  0  0  0
  -23.6160  -29.8250   20.1643 C   0  0  0  0  0  0
  -25.4103  -36.3108   24.0336 C   0  0  1  0  0  0
  -20.5869  -28.3664   23.1312 C   0  0  2  0  0  0
  -20.6764  -26.9398   22.5418 C   0  0  0  0  0  0
  -19.5744  -26.6385   21.5211 C   0  0  0  0  0  0
  -18.1923  -26.7924   22.1621 C   0  0  0  0  0  0
  -19.1526  -28.8835   23.2903 C   0  0  0  0  0  0
  -18.9455  -30.1436   23.8921 C   0  0  0  0  0  0
  -17.6458  -30.6579   24.0574 C   0  0  0  0  0  0
  -25.9031  -34.9474   23.5132 C   0  0  0  0  0  0
  -16.5349  -29.9088   23.6321 C   0  0  0  0  0  0
  -16.7268  -28.6504   23.0342 C   0  0  0  0  0  0
  -26.4470  -31.6595   25.0727 C   0  0  0  0  0  0
  -25.3745  -31.3716   26.1486 C   0  0  0  0  0  0
  -27.0288  -30.3031   24.6096 C   0  0  0  0  0  0
  -27.6052  -32.4310   25.7479 C   0  0  0  0  0  0
  -27.5578  -37.1808   24.8461 C   0  0  0  0  0  0
  -21.4137  -29.3029   22.3711 N   0  0  0  0  0  0
  -26.4287  -37.3794   23.9411 N   0  0  0  0  0  0
  -24.6676  -31.0790   22.1017 N   0  0  0  0  0  0
  -23.4179  -28.8201   23.3021 O   0  0  0  0  0  0
  -28.3525  -26.6310   20.0352 O   0  0  0  0  0  0
  -26.5595  -34.8923   22.4696 O   0  0  0  0  0  0
  -23.5331  -32.1439   23.7506 O   0  0  0  0  0  0
  -31.5804  -17.4073   21.1075 C   0  0  0  0  0  0
  -29.2441  -17.8326   21.0787 C   0  0  0  0  0  0
  -30.2761  -16.8762   21.1045 C   0  0  0  0  0  0
  -30.7547  -19.5386   21.0250 C   0  0  0  0  0  0
  -30.9603  -23.1488   20.0151 C   0  0  0  0  0  0
  -29.6825  -22.5963   22.1326 C   0  0  0  0  0  0
  -30.2071  -24.4983   19.9297 C   0  0  0  0  0  0
  -28.9424  -23.9533   22.0014 C   0  0  0  0  0  0
  -30.1918  -22.0432   20.7816 C   0  0  2  0  0  0
  -29.8070  -25.0475   21.3194 C   0  0  2  0  0  0
  -31.0182  -25.6378   23.3637 C   0  0  0  0  0  0
  -29.1037  -26.4486   21.2340 C   0  0  0  0  0  0
  -31.8050  -18.7374   21.0711 N   0  0  0  0  0  0
  -29.4858  -19.1629   21.0287 N   0  0  0  0  0  0
  -29.9782  -15.4724   21.1366 N   0  0  0  0  0  0
  -31.0687  -20.8812   20.9680 N   0  0  0  0  0  0
  -31.0575  -25.2222   21.9998 O   0  0  0  0  0  0
  -31.4690  -12.4171   19.1206 H   0  0  0  0  0  0
  -30.3318  -11.2997   19.8186 H   0  0  0  0  0  0
  -29.7365  -11.7853   17.4268 H   0  0  0  0  0  0
  -29.6618  -13.4947   17.7706 H   0  0  0  0  0  0
  -27.8271  -11.3095   18.8138 H   0  0  0  0  0  0
  -27.3668  -12.6413   17.7875 H   0  0  0  0  0  0
  -27.7060  -14.2520   19.5793 H   0  0  0  0  0  0
  -28.6806  -11.9457   21.3350 H   0  0  0  0  0  0
  -28.4612  -13.5773   21.8793 H   0  0  0  0  0  0
  -25.2755   -9.5686   22.4742 H   0  0  0  0  0  0
  -23.9994   -7.4639   22.7471 H   0  0  0  0  0  0
  -21.0817   -8.8773   19.8951 H   0  0  0  0  0  0
  -22.3677  -10.9672   19.6160 H   0  0  0  0  0  0
  -21.2027   -7.6146   23.9710 H   0  0  0  0  0  0
  -21.1465   -6.0516   25.9069 H   0  0  0  0  0  0
  -22.0608   -2.7600   23.2847 H   0  0  0  0  0  0
  -22.4106  -11.9910   22.4801 H   0  0  0  0  0  0
  -21.1116  -13.1281   22.2599 H   0  0  0  0  0  0
  -24.6601  -15.8391   20.5053 H   0  0  0  0  0  0
  -26.2744  -15.6223   20.0566 H   0  0  0  0  0  0
  -26.7109  -32.5550   23.1179 H   0  0  0  0  0  0
  -25.0047  -33.9785   25.0480 H   0  0  0  0  0  0
  -22.6918  -31.3080   21.4098 H   0  0  0  0  0  0
  -23.3735  -35.9656   23.3309 H   0  0  0  0  0  0
  -24.3582  -36.8920   22.2050 H   0  0  0  0  0  0
  -23.7244  -37.6524   23.6647 H   0  0  0  0  0  0
  -26.0444  -31.5942   20.5959 H   0  0  0  0  0  0
  -26.8205  -30.8901   21.9863 H   0  0  0  0  0  0
  -28.0997  -29.0998   21.1937 H   0  0  0  0  0  0
  -26.0852  -25.9868   18.9943 H   0  0  0  0  0  0
  -23.9890  -27.3014   19.0218 H   0  0  0  0  0  0
  -23.7274  -30.6013   19.4062 H   0  0  0  0  0  0
  -22.7399  -29.2469   19.8645 H   0  0  0  0  0  0
  -25.1276  -36.1974   25.0828 H   0  0  0  0  0  0
  -20.9965  -28.3240   24.1430 H   0  0  0  0  0  0
  -20.5653  -26.2277   23.3609 H   0  0  0  0  0  0
  -21.6639  -26.7431   22.1225 H   0  0  0  0  0  0
  -19.6908  -25.6302   21.1224 H   0  0  0  0  0  0
  -19.6685  -27.3211   20.6755 H   0  0  0  0  0  0
  -17.4191  -26.6670   21.4026 H   0  0  0  0  0  0
  -18.0328  -26.0065   22.9014 H   0  0  0  0  0  0
  -19.7931  -30.7242   24.2309 H   0  0  0  0  0  0
  -17.5015  -31.6257   24.5179 H   0  0  0  0  0  0
  -15.5352  -30.2999   23.7627 H   0  0  0  0  0  0
  -15.8667  -28.0834   22.7042 H   0  0  0  0  0  0
  -24.5895  -30.7083   25.7839 H   0  0  0  0  0  0
  -24.8970  -32.2884   26.4957 H   0  0  0  0  0  0
  -25.8104  -30.8867   27.0229 H   0  0  0  0  0  0
  -26.2825  -29.6806   24.1145 H   0  0  0  0  0  0
  -27.4047  -29.7254   25.4549 H   0  0  0  0  0  0
  -27.8672  -30.4340   23.9250 H   0  0  0  0  0  0
  -27.2675  -33.3596   26.2094 H   0  0  0  0  0  0
  -28.3840  -32.6891   25.0289 H   0  0  0  0  0  0
  -28.0743  -31.8414   26.5364 H   0  0  0  0  0  0
  -28.2601  -38.0099   24.7499 H   0  0  0  0  0  0
  -28.1065  -36.2633   24.6283 H   0  0  0  0  0  0
  -27.2304  -37.1461   25.8867 H   0  0  0  0  0  0
  -20.9294  -29.8751   21.6935 H   0  0  0  0  0  0
  -26.0173  -38.2867   24.1425 H   0  0  0  0  0  0
  -32.4617  -16.7874   21.1652 H   0  0  0  0  0  0
  -28.2072  -17.5307   21.0815 H   0  0  0  0  0  0
  -31.9241  -23.3259   20.4951 H   0  0  0  0  0  0
  -31.1895  -22.8036   19.0057 H   0  0  0  0  0  0
  -29.0202  -21.8674   22.6016 H   0  0  0  0  0  0
  -30.5242  -22.7203   22.8157 H   0  0  0  0  0  0
  -29.3155  -24.3623   19.3163 H   0  0  0  0  0  0
  -30.8247  -25.2290   19.4064 H   0  0  0  0  0  0
  -28.6077  -24.2839   22.9843 H   0  0  0  0  0  0
  -28.0294  -23.8083   21.4223 H   0  0  0  0  0  0
  -29.3323  -21.7380   20.1824 H   0  0  0  0  0  0
  -32.0388  -25.7842   23.7165 H   0  0  0  0  0  0
  -30.5621  -24.8879   24.0094 H   0  0  0  0  0  0
  -30.4922  -26.5825   23.5003 H   0  0  0  0  0  0
  -29.8571  -27.2374   21.2397 H   0  0  0  0  0  0
  -28.4849  -26.6057   22.1199 H   0  0  0  0  0  0
  -29.0463  -15.2093   21.4249 H   0  0  0  0  0  0
  -32.0626  -21.0689   20.9735 H   0  0  0  0  0  0
  1 25  1  0  0  0
  1 30  2  0  0  0
  1 85  1  0  0  0
  2  3  1  0  0  0
  2 25  1  0  0  0
  2 88  1  0  0  0
  2 89  1  0  0  0
  3  4  1  0  0  0
  3 90  1  0  0  0
  3 91  1  0  0  0
  4  5  1  0  0  0
  4 92  1  0  0  0
  4 93  1  0  0  0
  5  6  1  0  0  0
  5 26  1  0  0  0
  5 94  1  0  0  0
  6 25  1  0  0  0
  6 95  1  0  0  0
  6 96  1  0  0  0
  7  8  2  0  0  0
  7 26  1  0  0  0
  7 29  1  0  0  0
  8  9  1  0  0  0
  8 22  1  0  0  0
  9 10  1  0  0  0
  9 27  2  0  0  0
 10 11  2  0  0  0
 10 15  1  0  0  0
 11 12  1  0  0  0
 11 97  1  0  0  0
 12 13  2  0  0  0
 12 98  1  0  0  0
 13 14  1  0  0  0
 13 31  1  0  0  0
 14 15  2  0  0  0
 14 99  1  0  0  0
 15100  1  0  0  0
 16 17  2  0  0  0
 16 21  1  0  0  0
 16 31  1  0  0  0
 17 18  1  0  0  0
 17101  1  0  0  0
 18 19  2  0  0  0
 18102  1  0  0  0
 19 20  1  0  0  0
 19 24  1  0  0  0
 20 21  2  0  0  0
 20103  1  0  0  0
 21 23  1  0  0  0
 22 28  1  0  0  0
 22 32  2  0  0  0
 26 27  1  0  0  0
 28104  1  0  0  0
 28105  1  0  0  0
 29106  1  0  0  0
 29107  1  0  0  0
 33 34  1  0  0  0
 33 66  1  0  0  0
 33 70  2  0  0  0
 34 36  1  0  0  0
 34 59  1  0  0  0
 34108  1  0  0  0
 35 44  2  0  0  0
 35 45  1  0  0  0
 35 68  1  0  0  0
 36 56  1  0  0  0
 36109  1  0  0  0
 37 39  1  0  0  0
 37 47  1  0  0  0
 37 66  1  0  0  0
 37110  1  0  0  0
 38 43  2  0  0  0
 38 46  1  0  0  0
 38 47  1  0  0  0
 39 64  1  0  0  0
 39 67  2  0  0  0
 40 52  1  0  0  0
 40 53  2  0  0  0
 40 58  1  0  0  0
 41111  1  0  0  0
 41112  1  0  0  0
 41113  1  0  0  0
 41 48  1  0  0  0
 42 43  1  0  0  0
 42 66  1  0  0  0
 42114  1  0  0  0
 42115  1  0  0  0
 43 44  1  0  0  0
 44116  1  0  0  0
 45 46  2  0  0  0
 45117  1  0  0  0
 46118  1  0  0  0
 47119  1  0  0  0
 47120  1  0  0  0
 48 56  1  0  0  0
 48 65  1  0  0  0
 48121  1  0  0  0
 49 50  1  0  0  0
 49 53  1  0  0  0
 49 64  1  0  0  0
 49122  1  0  0  0
 50 51  1  0  0  0
 50123  1  0  0  0
 50124  1  0  0  0
 51 52  1  0  0  0
 51125  1  0  0  0
 51126  1  0  0  0
 52127  1  0  0  0
 52128  1  0  0  0
 53 54  1  0  0  0
 54 55  2  0  0  0
 54129  1  0  0  0
 55 57  1  0  0  0
 55130  1  0  0  0
 56 69  2  0  0  0
 57 58  2  0  0  0
 57131  1  0  0  0
 58132  1  0  0  0
 59 60  1  0  0  0
 59 61  1  0  0  0
 59 62  1  0  0  0
 60133  1  0  0  0
 60134  1  0  0  0
 60135  1  0  0  0
 61136  1  0  0  0
 61137  1  0  0  0
 61138  1  0  0  0
 62139  1  0  0  0
 62140  1  0  0  0
 62141  1  0  0  0
 63 65  1  0  0  0
 63142  1  0  0  0
 63143  1  0  0  0
 63144  1  0  0  0
 64145  1  0  0  0
 65146  1  0  0  0
 68 82  1  0  0  0
 71 73  2  0  0  0
 71 83  1  0  0  0
 71147  1  0  0  0
 72 73  1  0  0  0
 72 84  2  0  0  0
 72148  1  0  0  0
 73 85  1  0  0  0
 74 83  2  0  0  0
 74 84  1  0  0  0
 74 86  1  0  0  0
 75 77  1  0  0  0
 75 79  1  0  0  0
 75149  1  0  0  0
 75150  1  0  0  0
 76 78  1  0  0  0
 76 79  1  0  0  0
 76151  1  0  0  0
 76152  1  0  0  0
 77 80  1  0  0  0
 77153  1  0  0  0
 77154  1  0  0  0
 78 80  1  0  0  0
 78155  1  0  0  0
 78156  1  0  0  0
 79 86  1  0  0  0
 79157  1  0  0  0
 80 82  1  0  0  0
 80 87  1  0  0  0
 81 87  1  0  0  0
 81158  1  0  0  0
 81159  1  0  0  0
 81160  1  0  0  0
 82161  1  0  0  0
 82162  1  0  0  0
 85163  1  0  0  0
 86164  1  0  0  0
M  ISO  4   1 100  68 101  82 101  85 100
M  END
> <chiral flag>
0

> <version>
0

> <s_m_source_file>
/data/baiqing/PycharmProjects/Reinvent-master-3.2/result/LINK_invent/BTK/process_docking_weight1_custom_product_contain_oxygen_bond_distance_aromatic_linkinvent_7_9_3/rearranged_h_0161.sdf

> <i_m_source_file_index>
84

> <r_mmod_Potential_Energy-OPLS-2005>
-623.529907226562

> <r_mmod_Stretch_Energy-OPLS-2005>
38.8522491455078

> <r_mmod_Bend_Energy-OPLS-2005>
125.216972351074

> <r_mmod_Torsional_Energy-OPLS-2005>
243.699371337891

> <r_mmod_Improper_Torsional_Energy-OPLS-2005>
4.01267099380493

> <r_mmod_Van_der_Waal_Energy-OPLS-2005>
168.831604003906

> <r_mmod_Electrostatic_Energy-OPLS-2005>
-981.871704101562

> <r_mmod_Solvation_Energy-OPLS-2005>
-234.887939453125

> <b_mmod_Minimization_Converged-OPLS-2005>
0

> <r_mmod_RMS_Derivative-OPLS-2005>
0.87876570224762

$$$$
84
                    3D
 Structure written by MMmdl.
157166  0  0  1  0            999 V2000
  -30.6479  -14.6353   20.4413 C   0  0  0  0  0  0
  -30.4170  -12.3772   19.4623 C   0  0  0  0  0  0
  -29.5032  -12.5024   18.2242 C   0  0  0  0  0  0
  -28.0231  -12.3539   18.6280 C   0  0  0  0  0  0
  -27.6460  -13.2285   19.8542 C   0  0  2  0  0  0
  -28.6888  -13.1182   20.9887 C   0  0  0  0  0  0
  -25.2533  -13.8199   20.5693 C   0  0  0  0  0  0
  -24.1816  -13.0449   20.9197 C   0  0  0  0  0  0
  -24.6400  -11.6922   20.8730 C   0  0  0  0  0  0
  -23.9078  -10.4297   21.0396 C   0  0  0  0  0  0
  -24.3637   -9.4215   21.9174 C   0  0  0  0  0  0
  -23.6318   -8.2247   22.0741 C   0  0  0  0  0  0
  -22.4293   -8.0278   21.3541 C   0  0  0  0  0  0
  -21.9930   -9.0249   20.4635 C   0  0  0  0  0  0
  -22.7255  -10.2132   20.3045 C   0  0  0  0  0  0
  -21.6860   -6.0747   22.5282 C   0  0  0  0  0  0
  -21.4009   -6.5651   23.8217 C   0  0  0  0  0  0
  -21.3659   -5.6801   24.9179 C   0  0  0  0  0  0
  -21.6046   -4.3065   24.7230 C   0  0  0  0  0  0
  -21.8815   -3.8156   23.4350 C   0  0  0  0  0  0
  -21.9196   -4.6973   22.3408 C   0  0  0  0  0  0
  -22.7840  -13.5234   21.1875 C   0  0  0  0  0  0
  -22.1665   -4.2161   21.0989 F   0  0  0  0  0  0
  -21.5631   -3.4543   25.7743 F   0  0  0  0  0  0
  -30.0039  -13.4270   20.4162 N   0  0  0  0  0  0
  -26.2953  -12.9403   20.3285 N   0  0  0  0  0  0
  -25.9325  -11.6543   20.5734 N   0  0  0  0  0  0
  -22.0498  -12.8187   22.0418 N   0  0  0  0  0  0
  -25.4256  -15.1927   20.4123 N   0  0  0  0  0  0
  -31.8425  -14.7142   20.1393 O   0  0  0  0  0  0
  -21.6650   -6.8881   21.4239 O   0  0  0  0  0  0
  -22.3511  -14.5544   20.6744 O   0  0  0  0  0  0
  -24.6261  -31.8584   23.2025 C   0  0  0  0  0  0
  -25.9114  -32.4770   23.8352 C   0  0  1  0  0  0
  -27.2173  -27.3296   20.1216 C   0  0  0  0  0  0
  -25.5932  -33.8574   24.2278 N   0  0  0  0  0  0
  -23.4193  -30.4828   21.5443 C   0  0  2  0  0  0
  -24.8652  -28.9369   20.1104 C   0  0  0  0  0  0
  -22.7475  -29.4629   22.4938 C   0  0  0  0  0  0
  -18.0285  -28.1393   22.8495 C   0  0  0  0  0  0
  -24.1488  -36.7289   23.2643 C   0  0  0  0  0  0
  -25.9583  -30.7944   21.3696 C   0  0  0  0  0  0
  -26.0332  -29.4219   20.7142 C   0  0  0  0  0  0
  -27.2174  -28.6288   20.7106 C   0  0  0  0  0  0
  -26.0346  -26.8895   19.4963 C   0  0  0  0  0  0
  -24.8665  -27.6748   19.4927 C   0  0  0  0  0  0
  -23.6322  -29.8150   20.1597 C   0  0  0  0  0  0
  -25.4113  -36.3081   24.0325 C   0  0  1  0  0  0
  -20.5887  -28.3695   23.1292 C   0  0  2  0  0  0
  -20.6776  -26.9419   22.5427 C   0  0  0  0  0  0
  -19.5753  -26.6389   21.5228 C   0  0  0  0  0  0
  -18.1929  -26.7942   22.1628 C   0  0  0  0  0  0
  -19.1536  -28.8863   23.2889 C   0  0  0  0  0  0
  -18.9455  -30.1469   23.8904 C   0  0  0  0  0  0
  -17.6452  -30.6595   24.0574 C   0  0  0  0  0  0
  -25.9052  -34.9447   23.5097 C   0  0  0  0  0  0
  -16.5346  -29.9091   23.6340 C   0  0  0  0  0  0
  -16.7273  -28.6510   23.0358 C   0  0  0  0  0  0
  -26.4499  -31.6581   25.0718 C   0  0  0  0  0  0
  -25.3729  -31.3704   26.1440 C   0  0  0  0  0  0
  -27.0343  -30.3010   24.6167 C   0  0  0  0  0  0
  -27.6077  -32.4304   25.7476 C   0  0  0  0  0  0
  -27.5573  -37.1806   24.8460 C   0  0  0  0  0  0
  -21.4188  -29.3044   22.3677 N   0  0  0  0  0  0
  -26.4284  -37.3780   23.9408 N   0  0  0  0  0  0
  -24.6871  -31.0607   22.0967 N   0  0  0  0  0  0
  -23.4205  -28.8169   23.3013 O   0  0  0  0  0  0
  -28.3027  -26.4518   20.1476 O   0  0  0  0  0  0
  -26.5618  -34.8915   22.4663 O   0  0  0  0  0  0
  -23.5427  -32.1372   23.7368 O   0  0  0  0  0  0
  -30.8326  -18.1640   17.8294 C   0  0  0  0  0  0
  -30.4569  -19.4186   18.3335 C   0  0  0  0  0  0
  -30.6326  -17.0003   18.5840 C   0  0  0  0  0  0
  -29.6401  -18.3503   20.3613 C   0  0  0  0  0  0
  -29.8380  -19.5672   19.5961 C   0  0  0  0  0  0
  -30.0615  -17.0479   19.8779 C   0  0  0  0  0  0
  -28.5007  -23.8088   20.5348 C   0  0  0  0  0  0
  -28.5909  -22.7846   21.6899 C   0  0  0  0  0  0
  -28.6450  -21.2749   21.2829 C   0  0  0  0  0  0
  -28.9651  -22.0267   18.9455 C   0  0  0  0  0  0
  -29.5426  -21.0590   20.0542 C   0  0  2  0  0  0
  -28.1146  -25.2696   21.0122 C   0  0  0  0  0  0
  -28.7229  -23.4502   19.3232 N   0  0  0  0  0  0
  -29.8912  -15.7756   20.5958 N   0  0  0  0  0  0
  -31.4641  -12.4648   19.1693 H   0  0  0  0  0  0
  -30.3177  -11.3893   19.9149 H   0  0  0  0  0  0
  -29.7658  -11.7480   17.4816 H   0  0  0  0  0  0
  -29.6583  -13.4705   17.7452 H   0  0  0  0  0  0
  -27.8464  -11.3013   18.8522 H   0  0  0  0  0  0
  -27.3774  -12.5949   17.7822 H   0  0  0  0  0  0
  -27.6552  -14.2606   19.5019 H   0  0  0  0  0  0
  -28.6898  -12.1145   21.4164 H   0  0  0  0  0  0
  -28.4456  -13.7978   21.8064 H   0  0  0  0  0  0
  -25.2780   -9.5698   22.4750 H   0  0  0  0  0  0
  -24.0033   -7.4639   22.7453 H   0  0  0  0  0  0
  -21.0869   -8.8760   19.8940 H   0  0  0  0  0  0
  -22.3710  -10.9669   19.6152 H   0  0  0  0  0  0
  -21.1986   -7.6157   23.9727 H   0  0  0  0  0  0
  -21.1487   -6.0532   25.9088 H   0  0  0  0  0  0
  -22.0593   -2.7620   23.2852 H   0  0  0  0  0  0
  -22.4138  -11.9850   22.4783 H   0  0  0  0  0  0
  -21.1094  -13.1156   22.2614 H   0  0  0  0  0  0
  -24.6617  -15.8496   20.5228 H   0  0  0  0  0  0
  -26.2785  -15.6299   20.0859 H   0  0  0  0  0  0
  -26.7190  -32.5443   23.1111 H   0  0  0  0  0  0
  -25.0081  -33.9721   25.0425 H   0  0  0  0  0  0
  -22.7136  -31.3035   21.4017 H   0  0  0  0  0  0
  -23.3753  -35.9618   23.3284 H   0  0  0  0  0  0
  -24.3591  -36.8929   22.2064 H   0  0  0  0  0  0
  -23.7227  -37.6477   23.6681 H   0  0  0  0  0  0
  -26.0837  -31.5567   20.5998 H   0  0  0  0  0  0
  -26.8424  -30.8455   21.9936 H   0  0  0  0  0  0
  -28.1146  -28.9925   21.1909 H   0  0  0  0  0  0
  -26.0085  -25.9144   19.0294 H   0  0  0  0  0  0
  -23.9694  -27.2985   19.0208 H   0  0  0  0  0  0
  -23.7471  -30.5906   19.4011 H   0  0  0  0  0  0
  -22.7529  -29.2411   19.8605 H   0  0  0  0  0  0
  -25.1301  -36.1917   25.0817 H   0  0  0  0  0  0
  -20.9983  -28.3262   24.1410 H   0  0  0  0  0  0
  -20.5675  -26.2306   23.3624 H   0  0  0  0  0  0
  -21.6637  -26.7454   22.1205 H   0  0  0  0  0  0
  -19.6905  -25.6299   21.1258 H   0  0  0  0  0  0
  -19.6685  -27.3207   20.6765 H   0  0  0  0  0  0
  -17.4205  -26.6715   21.4021 H   0  0  0  0  0  0
  -18.0308  -26.0069   22.9005 H   0  0  0  0  0  0
  -19.7927  -30.7296   24.2260 H   0  0  0  0  0  0
  -17.5000  -31.6275   24.5176 H   0  0  0  0  0  0
  -15.5349  -30.2991   23.7666 H   0  0  0  0  0  0
  -15.8668  -28.0838   22.7065 H   0  0  0  0  0  0
  -24.5936  -30.7014   25.7765 H   0  0  0  0  0  0
  -24.8879  -32.2853   26.4855 H   0  0  0  0  0  0
  -25.8055  -30.8896   27.0221 H   0  0  0  0  0  0
  -26.2916  -29.6746   24.1207 H   0  0  0  0  0  0
  -27.4063  -29.7277   25.4672 H   0  0  0  0  0  0
  -27.8772  -30.4308   23.9372 H   0  0  0  0  0  0
  -27.2736  -33.3639   26.2013 H   0  0  0  0  0  0
  -28.3908  -32.6793   25.0300 H   0  0  0  0  0  0
  -28.0710  -31.8426   26.5410 H   0  0  0  0  0  0
  -28.2592  -38.0110   24.7522 H   0  0  0  0  0  0
  -28.1075  -36.2640   24.6271 H   0  0  0  0  0  0
  -27.2293  -37.1415   25.8865 H   0  0  0  0  0  0
  -20.9365  -29.8739   21.6865 H   0  0  0  0  0  0
  -26.0150  -38.2846   24.1430 H   0  0  0  0  0  0
  -31.2966  -18.0932   16.8552 H   0  0  0  0  0  0
  -30.6836  -20.2753   17.7174 H   0  0  0  0  0  0
  -30.9352  -16.0622   18.1403 H   0  0  0  0  0  0
  -29.1891  -18.4204   21.3410 H   0  0  0  0  0  0
  -27.7562  -22.9451   22.3728 H   0  0  0  0  0  0
  -29.4896  -23.0222   22.2604 H   0  0  0  0  0  0
  -27.6404  -20.9143   21.0622 H   0  0  0  0  0  0
  -29.0059  -20.6887   22.1288 H   0  0  0  0  0  0
  -28.0352  -21.6021   18.5620 H   0  0  0  0  0  0
  -29.6371  -22.0466   18.0906 H   0  0  0  0  0  0
  -30.5284  -21.4432   20.3184 H   0  0  0  0  0  0
  -28.6987  -25.4735   21.9099 H   0  0  0  0  0  0
  -27.0826  -25.2181   21.3648 H   0  0  0  0  0  0
  -29.0058  -15.6501   21.0637 H   0  0  0  0  0  0
  1 25  1  0  0  0
  1 30  2  0  0  0
  1 84  1  0  0  0
  2  3  1  0  0  0
  2 25  1  0  0  0
  2 85  1  0  0  0
  2 86  1  0  0  0
  3  4  1  0  0  0
  3 87  1  0  0  0
  3 88  1  0  0  0
  4  5  1  0  0  0
  4 89  1  0  0  0
  4 90  1  0  0  0
  5  6  1  0  0  0
  5 26  1  0  0  0
  5 91  1  0  0  0
  6 25  1  0  0  0
  6 92  1  0  0  0
  6 93  1  0  0  0
  7  8  2  0  0  0
  7 26  1  0  0  0
  7 29  1  0  0  0
  8  9  1  0  0  0
  8 22  1  0  0  0
  9 10  1  0  0  0
  9 27  2  0  0  0
 10 11  2  0  0  0
 10 15  1  0  0  0
 11 12  1  0  0  0
 11 94  1  0  0  0
 12 13  2  0  0  0
 12 95  1  0  0  0
 13 14  1  0  0  0
 13 31  1  0  0  0
 14 15  2  0  0  0
 14 96  1  0  0  0
 15 97  1  0  0  0
 16 17  2  0  0  0
 16 21  1  0  0  0
 16 31  1  0  0  0
 17 18  1  0  0  0
 17 98  1  0  0  0
 18 19  2  0  0  0
 18 99  1  0  0  0
 19 20  1  0  0  0
 19 24  1  0  0  0
 20 21  2  0  0  0
 20100  1  0  0  0
 21 23  1  0  0  0
 22 28  1  0  0  0
 22 32  2  0  0  0
 26 27  1  0  0  0
 28101  1  0  0  0
 28102  1  0  0  0
 29103  1  0  0  0
 29104  1  0  0  0
 33 34  1  0  0  0
 33 66  1  0  0  0
 33 70  2  0  0  0
 34 36  1  0  0  0
 34 59  1  0  0  0
 34105  1  0  0  0
 35 44  2  0  0  0
 35 45  1  0  0  0
 35 68  1  0  0  0
 36 56  1  0  0  0
 36106  1  0  0  0
 37 39  1  0  0  0
 37 47  1  0  0  0
 37 66  1  0  0  0
 37107  1  0  0  0
 38 43  2  0  0  0
 38 46  1  0  0  0
 38 47  1  0  0  0
 39 64  1  0  0  0
 39 67  2  0  0  0
 40 52  1  0  0  0
 40 53  2  0  0  0
 40 58  1  0  0  0
 41108  1  0  0  0
 41109  1  0  0  0
 41110  1  0  0  0
 41 48  1  0  0  0
 42 43  1  0  0  0
 42 66  1  0  0  0
 42111  1  0  0  0
 42112  1  0  0  0
 43 44  1  0  0  0
 44113  1  0  0  0
 45 46  2  0  0  0
 45114  1  0  0  0
 46115  1  0  0  0
 47116  1  0  0  0
 47117  1  0  0  0
 48 56  1  0  0  0
 48 65  1  0  0  0
 48118  1  0  0  0
 49 50  1  0  0  0
 49 53  1  0  0  0
 49 64  1  0  0  0
 49119  1  0  0  0
 50 51  1  0  0  0
 50120  1  0  0  0
 50121  1  0  0  0
 51 52  1  0  0  0
 51122  1  0  0  0
 51123  1  0  0  0
 52124  1  0  0  0
 52125  1  0  0  0
 53 54  1  0  0  0
 54 55  2  0  0  0
 54126  1  0  0  0
 55 57  1  0  0  0
 55127  1  0  0  0
 56 69  2  0  0  0
 57 58  2  0  0  0
 57128  1  0  0  0
 58129  1  0  0  0
 59 60  1  0  0  0
 59 61  1  0  0  0
 59 62  1  0  0  0
 60130  1  0  0  0
 60131  1  0  0  0
 60132  1  0  0  0
 61133  1  0  0  0
 61134  1  0  0  0
 61135  1  0  0  0
 62136  1  0  0  0
 62137  1  0  0  0
 62138  1  0  0  0
 63 65  1  0  0  0
 63139  1  0  0  0
 63140  1  0  0  0
 63141  1  0  0  0
 64142  1  0  0  0
 65143  1  0  0  0
 68 82  1  0  0  0
 71 72  2  0  0  0
 71 73  1  0  0  0
 71144  1  0  0  0
 72 75  1  0  0  0
 72145  1  0  0  0
 73 76  2  0  0  0
 73146  1  0  0  0
 74 75  2  0  0  0
 74 76  1  0  0  0
 74147  1  0  0  0
 75 81  1  0  0  0
 76 84  1  0  0  0
 77 78  1  0  0  0
 77 82  1  0  0  0
 77 83  2  0  0  0
 78 79  1  0  0  0
 78148  1  0  0  0
 78149  1  0  0  0
 79 81  1  0  0  0
 79150  1  0  0  0
 79151  1  0  0  0
 80 81  1  0  0  0
 80 83  1  0  0  0
 80152  1  0  0  0
 80153  1  0  0  0
 81154  1  0  0  0
 82155  1  0  0  0
 82156  1  0  0  0
 84157  1  0  0  0
M  ISO  4   1 100  68 101  82 101  84 100
M  END
> <chiral flag>
0

> <version>
0

> <s_m_source_file>
/data/baiqing/PycharmProjects/Reinvent-master-3.2/result/LINK_invent/BTK/process_docking_weight1_custom_product_contain_oxygen_bond_distance_aromatic_linkinvent_7_9_3/rearranged_h_0161.sdf

> <i_m_source_file_index>
85

> <r_mmod_Potential_Energy-OPLS-2005>
165.029388427734

> <r_mmod_Stretch_Energy-OPLS-2005>
89.0428009033203

> <r_mmod_Bend_Energy-OPLS-2005>
149.961654663086

> <r_mmod_Torsional_Energy-OPLS-2005>
268.567260742188

> <r_mmod_Improper_Torsional_Energy-OPLS-2005>
5.8834810256958

> <r_mmod_Van_der_Waal_Energy-OPLS-2005>
151.84504699707

> <r_mmod_Electrostatic_Energy-OPLS-2005>
-328.292266845703

> <r_mmod_Solvation_Energy-OPLS-2005>
-222.992706298828

> <b_mmod_Minimization_Converged-OPLS-2005>
0

> <r_mmod_RMS_Derivative-OPLS-2005>
1.62119257450104

$$$$
85
                    3D
 Structure written by MMmdl.
162170  0  0  1  0            999 V2000
  -30.5445  -14.8052   20.4410 C   0  0  0  0  0  0
  -30.4560  -12.4976   19.4565 C   0  0  0  0  0  0
  -29.5068  -12.5026   18.2350 C   0  0  0  0  0  0
  -28.0421  -12.2954   18.6690 C   0  0  0  0  0  0
  -27.6389  -13.2168   19.8450 C   0  0  2  0  0  0
  -28.6919  -13.1652   20.9762 C   0  0  0  0  0  0
  -25.2522  -13.8175   20.5717 C   0  0  0  0  0  0
  -24.1807  -13.0442   20.9249 C   0  0  0  0  0  0
  -24.6372  -11.6914   20.8797 C   0  0  0  0  0  0
  -23.9028  -10.4289   21.0421 C   0  0  0  0  0  0
  -24.3579   -9.4201   21.9179 C   0  0  0  0  0  0
  -23.6279   -8.2228   22.0732 C   0  0  0  0  0  0
  -22.4259   -8.0266   21.3536 C   0  0  0  0  0  0
  -21.9898   -9.0232   20.4631 C   0  0  0  0  0  0
  -22.7215  -10.2118   20.3058 C   0  0  0  0  0  0
  -21.6860   -6.0716   22.5279 C   0  0  0  0  0  0
  -21.3997   -6.5617   23.8197 C   0  0  0  0  0  0
  -21.3664   -5.6786   24.9173 C   0  0  0  0  0  0
  -21.6050   -4.3045   24.7229 C   0  0  0  0  0  0
  -21.8832   -3.8130   23.4354 C   0  0  0  0  0  0
  -21.9181   -4.6942   22.3409 C   0  0  0  0  0  0
  -22.7823  -13.5218   21.1908 C   0  0  0  0  0  0
  -22.1672   -4.2127   21.1000 F   0  0  0  0  0  0
  -21.5631   -3.4541   25.7739 F   0  0  0  0  0  0
  -29.9845  -13.5463   20.3845 N   0  0  0  0  0  0
  -26.2918  -12.9338   20.3271 N   0  0  0  0  0  0
  -25.9288  -11.6501   20.5785 N   0  0  0  0  0  0
  -22.0460  -12.8177   22.0428 N   0  0  0  0  0  0
  -25.4216  -15.1908   20.4155 N   0  0  0  0  0  0
  -31.7495  -14.9586   20.2136 O   0  0  0  0  0  0
  -21.6644   -6.8852   21.4233 O   0  0  0  0  0  0
  -22.3514  -14.5526   20.6756 O   0  0  0  0  0  0
  -24.6380  -31.8508   23.1859 C   0  0  0  0  0  0
  -25.9173  -32.4746   23.8230 C   0  0  1  0  0  0
  -27.2333  -27.2162   20.0997 C   0  0  0  0  0  0
  -25.5945  -33.8532   24.2190 N   0  0  0  0  0  0
  -23.4355  -30.4681   21.5342 C   0  0  2  0  0  0
  -24.8790  -28.9040   20.1078 C   0  0  0  0  0  0
  -22.7533  -29.4609   22.4884 C   0  0  0  0  0  0
  -18.0328  -28.1490   22.8527 C   0  0  0  0  0  0
  -24.1462  -36.7199   23.2638 C   0  0  0  0  0  0
  -25.9828  -30.7469   21.3676 C   0  0  0  0  0  0
  -26.0537  -29.3615   20.7141 C   0  0  0  0  0  0
  -27.2256  -28.5293   20.7060 C   0  0  0  0  0  0
  -26.0169  -26.8261   19.4983 C   0  0  0  0  0  0
  -24.8685  -27.6457   19.4933 C   0  0  0  0  0  0
  -23.6495  -29.7933   20.1527 C   0  0  0  0  0  0
  -25.4116  -36.3053   24.0325 C   0  0  1  0  0  0
  -20.5948  -28.3758   23.1286 C   0  0  2  0  0  0
  -20.6801  -26.9469   22.5441 C   0  0  0  0  0  0
  -19.5763  -26.6473   21.5259 C   0  0  0  0  0  0
  -18.1939  -26.8041   22.1650 C   0  0  0  0  0  0
  -19.1585  -28.8937   23.2914 C   0  0  0  0  0  0
  -18.9516  -30.1532   23.8943 C   0  0  0  0  0  0
  -17.6512  -30.6660   24.0635 C   0  0  0  0  0  0
  -25.9085  -34.9447   23.5076 C   0  0  0  0  0  0
  -16.5394  -29.9180   23.6390 C   0  0  0  0  0  0
  -16.7327  -28.6602   23.0397 C   0  0  0  0  0  0
  -26.4526  -31.6609   25.0634 C   0  0  0  0  0  0
  -25.3718  -31.3782   26.1328 C   0  0  0  0  0  0
  -27.0356  -30.3038   24.6096 C   0  0  0  0  0  0
  -27.6078  -32.4318   25.7436 C   0  0  0  0  0  0
  -27.5574  -37.1768   24.8490 C   0  0  0  0  0  0
  -21.4218  -29.3071   22.3632 N   0  0  0  0  0  0
  -26.4283  -37.3771   23.9443 N   0  0  0  0  0  0
  -24.7047  -31.0427   22.0853 N   0  0  0  0  0  0
  -23.4211  -28.8184   23.3016 O   0  0  0  0  0  0
  -28.3713  -26.3542   20.1499 O   0  0  0  0  0  0
  -26.5663  -34.8934   22.4652 O   0  0  0  0  0  0
  -23.5517  -32.1375   23.7125 O   0  0  0  0  0  0
  -29.4239  -19.6958   20.6119 C   0  0  0  0  0  0
  -28.4805  -19.4526   21.5859 C   0  0  0  0  0  0
  -29.5371  -17.2845   20.7964 C   0  0  0  0  0  0
  -27.9660  -24.6761   18.1331 C   0  0  0  0  0  0
  -28.9511  -23.6486   20.3951 C   0  0  0  0  0  0
  -27.6697  -20.4652   22.3256 C   0  0  0  0  0  0
  -27.5191  -25.6423   15.8128 C   0  0  0  0  0  0
  -29.8020  -24.6937   16.3585 C   0  0  0  0  0  0
  -29.9053  -21.1505   20.1624 C   0  0  0  0  0  0
  -28.5986  -24.9768   19.5083 C   0  0  2  0  0  0
  -28.5625  -25.4154   16.9264 C   0  0  0  0  0  0
  -29.9929  -18.4242   20.1607 N   0  0  0  0  0  0
  -27.0105  -23.8502   17.9829 N   0  0  0  0  0  0
  -29.6231  -15.8469   20.4197 N   0  0  0  0  0  0
  -28.9882  -22.3542   19.8636 N   0  0  0  0  0  0
  -29.3028  -23.8212   21.5664 O   0  0  0  0  0  0
  -28.3045  -17.7399   21.9725 S   0  0  0  0  0  0
  -31.4805  -12.6855   19.1284 H   0  0  0  0  0  0
  -30.4651  -11.5258   19.9525 H   0  0  0  0  0  0
  -29.8009  -11.7270   17.5270 H   0  0  0  0  0  0
  -29.5959  -13.4502   17.7040 H   0  0  0  0  0  0
  -27.9375  -11.2527   18.9763 H   0  0  0  0  0  0
  -27.3656  -12.4310   17.8253 H   0  0  0  0  0  0
  -27.6220  -14.2245   19.4338 H   0  0  0  0  0  0
  -28.7492  -12.1676   21.4159 H   0  0  0  0  0  0
  -28.4148  -13.8429   21.7863 H   0  0  0  0  0  0
  -25.2712   -9.5684   22.4775 H   0  0  0  0  0  0
  -23.9990   -7.4610   22.7440 H   0  0  0  0  0  0
  -21.0832   -8.8734   19.8940 H   0  0  0  0  0  0
  -22.3647  -10.9650   19.6179 H   0  0  0  0  0  0
  -21.1987   -7.6121   23.9688 H   0  0  0  0  0  0
  -21.1485   -6.0517   25.9065 H   0  0  0  0  0  0
  -22.0600   -2.7590   23.2865 H   0  0  0  0  0  0
  -22.4069  -11.9819   22.4787 H   0  0  0  0  0  0
  -21.1077  -13.1188   22.2630 H   0  0  0  0  0  0
  -24.6503  -15.8363   20.5504 H   0  0  0  0  0  0
  -26.2351  -15.6372   20.0173 H   0  0  0  0  0  0
  -26.7230  -32.5371   23.0939 H   0  0  0  0  0  0
  -25.0123  -33.9659   25.0373 H   0  0  0  0  0  0
  -22.7430  -31.2999   21.3841 H   0  0  0  0  0  0
  -23.3767  -35.9481   23.3349 H   0  0  0  0  0  0
  -24.3557  -36.8782   22.2043 H   0  0  0  0  0  0
  -23.7166  -37.6387   23.6632 H   0  0  0  0  0  0
  -26.1261  -31.4967   20.5874 H   0  0  0  0  0  0
  -26.8603  -30.8033   22.0016 H   0  0  0  0  0  0
  -28.1189  -28.8735   21.2059 H   0  0  0  0  0  0
  -25.8920  -25.8572   19.0526 H   0  0  0  0  0  0
  -23.9678  -27.2811   19.0185 H   0  0  0  0  0  0
  -23.7637  -30.5605   19.3869 H   0  0  0  0  0  0
  -22.7674  -29.2215   19.8617 H   0  0  0  0  0  0
  -25.1330  -36.1858   25.0820 H   0  0  0  0  0  0
  -21.0106  -28.3322   24.1388 H   0  0  0  0  0  0
  -20.5746  -26.2339   23.3644 H   0  0  0  0  0  0
  -21.6648  -26.7530   22.1188 H   0  0  0  0  0  0
  -19.6891  -25.6405   21.1252 H   0  0  0  0  0  0
  -19.6691  -27.3309   20.6816 H   0  0  0  0  0  0
  -17.4230  -26.6885   21.4020 H   0  0  0  0  0  0
  -18.0258  -26.0203   22.9050 H   0  0  0  0  0  0
  -19.7980  -30.7360   24.2291 H   0  0  0  0  0  0
  -17.5079  -31.6339   24.5253 H   0  0  0  0  0  0
  -15.5393  -30.3105   23.7720 H   0  0  0  0  0  0
  -15.8732  -28.0956   22.7091 H   0  0  0  0  0  0
  -24.5981  -30.7011   25.7689 H   0  0  0  0  0  0
  -24.8753  -32.2921   26.4571 H   0  0  0  0  0  0
  -25.8007  -30.9146   27.0220 H   0  0  0  0  0  0
  -26.2913  -29.6786   24.1107 H   0  0  0  0  0  0
  -27.4095  -29.7289   25.4578 H   0  0  0  0  0  0
  -27.8782  -30.4367   23.9296 H   0  0  0  0  0  0
  -27.2758  -33.3711   26.1862 H   0  0  0  0  0  0
  -28.3978  -32.6706   25.0311 H   0  0  0  0  0  0
  -28.0603  -31.8487   26.5471 H   0  0  0  0  0  0
  -28.2634  -38.0038   24.7599 H   0  0  0  0  0  0
  -28.1042  -36.2590   24.6267 H   0  0  0  0  0  0
  -27.2302  -37.1369   25.8897 H   0  0  0  0  0  0
  -20.9406  -29.8749   21.6809 H   0  0  0  0  0  0
  -26.0140  -38.2831   24.1488 H   0  0  0  0  0  0
  -28.3075  -21.2526   22.7281 H   0  0  0  0  0  0
  -27.1336  -20.0110   23.1608 H   0  0  0  0  0  0
  -26.9344  -20.9322   21.6687 H   0  0  0  0  0  0
  -26.6091  -26.0881   16.2149 H   0  0  0  0  0  0
  -27.2435  -24.7041   15.3298 H   0  0  0  0  0  0
  -27.9000  -26.3098   15.0394 H   0  0  0  0  0  0
  -30.6435  -24.7078   17.0516 H   0  0  0  0  0  0
  -30.1474  -25.1649   15.4349 H   0  0  0  0  0  0
  -29.5881  -23.6496   16.1194 H   0  0  0  0  0  0
  -30.4754  -21.0272   19.2407 H   0  0  0  0  0  0
  -30.6499  -21.4904   20.8849 H   0  0  0  0  0  0
  -29.6303  -25.1741   19.2181 H   0  0  0  0  0  0
  -28.8742  -26.4021   17.2700 H   0  0  0  0  0  0
  -26.6892  -23.4410   18.8544 H   0  0  0  0  0  0
  -28.7108  -15.4251   20.4364 H   0  0  0  0  0  0
  -28.5665  -22.2903   18.9456 H   0  0  0  0  0  0
  1 25  1  0  0  0
  1 30  2  0  0  0
  1 84  1  0  0  0
  2  3  1  0  0  0
  2 25  1  0  0  0
  2 88  1  0  0  0
  2 89  1  0  0  0
  3  4  1  0  0  0
  3 90  1  0  0  0
  3 91  1  0  0  0
  4  5  1  0  0  0
  4 92  1  0  0  0
  4 93  1  0  0  0
  5  6  1  0  0  0
  5 26  1  0  0  0
  5 94  1  0  0  0
  6 25  1  0  0  0
  6 95  1  0  0  0
  6 96  1  0  0  0
  7  8  2  0  0  0
  7 26  1  0  0  0
  7 29  1  0  0  0
  8  9  1  0  0  0
  8 22  1  0  0  0
  9 10  1  0  0  0
  9 27  2  0  0  0
 10 11  2  0  0  0
 10 15  1  0  0  0
 11 12  1  0  0  0
 11 97  1  0  0  0
 12 13  2  0  0  0
 12 98  1  0  0  0
 13 14  1  0  0  0
 13 31  1  0  0  0
 14 15  2  0  0  0
 14 99  1  0  0  0
 15100  1  0  0  0
 16 17  2  0  0  0
 16 21  1  0  0  0
 16 31  1  0  0  0
 17 18  1  0  0  0
 17101  1  0  0  0
 18 19  2  0  0  0
 18102  1  0  0  0
 19 20  1  0  0  0
 19 24  1  0  0  0
 20 21  2  0  0  0
 20103  1  0  0  0
 21 23  1  0  0  0
 22 28  1  0  0  0
 22 32  2  0  0  0
 26 27  1  0  0  0
 28104  1  0  0  0
 28105  1  0  0  0
 29106  1  0  0  0
 29107  1  0  0  0
 33 34  1  0  0  0
 33 66  1  0  0  0
 33 70  2  0  0  0
 34 36  1  0  0  0
 34 59  1  0  0  0
 34108  1  0  0  0
 35 44  2  0  0  0
 35 45  1  0  0  0
 35 68  1  0  0  0
 36 56  1  0  0  0
 36109  1  0  0  0
 37 39  1  0  0  0
 37 47  1  0  0  0
 37 66  1  0  0  0
 37110  1  0  0  0
 38 43  2  0  0  0
 38 46  1  0  0  0
 38 47  1  0  0  0
 39 64  1  0  0  0
 39 67  2  0  0  0
 40 52  1  0  0  0
 40 53  2  0  0  0
 40 58  1  0  0  0
 41111  1  0  0  0
 41112  1  0  0  0
 41113  1  0  0  0
 41 48  1  0  0  0
 42 43  1  0  0  0
 42 66  1  0  0  0
 42114  1  0  0  0
 42115  1  0  0  0
 43 44  1  0  0  0
 44116  1  0  0  0
 45 46  2  0  0  0
 45117  1  0  0  0
 46118  1  0  0  0
 47119  1  0  0  0
 47120  1  0  0  0
 48 56  1  0  0  0
 48 65  1  0  0  0
 48121  1  0  0  0
 49 50  1  0  0  0
 49 53  1  0  0  0
 49 64  1  0  0  0
 49122  1  0  0  0
 50 51  1  0  0  0
 50123  1  0  0  0
 50124  1  0  0  0
 51 52  1  0  0  0
 51125  1  0  0  0
 51126  1  0  0  0
 52127  1  0  0  0
 52128  1  0  0  0
 53 54  1  0  0  0
 54 55  2  0  0  0
 54129  1  0  0  0
 55 57  1  0  0  0
 55130  1  0  0  0
 56 69  2  0  0  0
 57 58  2  0  0  0
 57131  1  0  0  0
 58132  1  0  0  0
 59 60  1  0  0  0
 59 61  1  0  0  0
 59 62  1  0  0  0
 60133  1  0  0  0
 60134  1  0  0  0
 60135  1  0  0  0
 61136  1  0  0  0
 61137  1  0  0  0
 61138  1  0  0  0
 62139  1  0  0  0
 62140  1  0  0  0
 62141  1  0  0  0
 63 65  1  0  0  0
 63142  1  0  0  0
 63143  1  0  0  0
 63144  1  0  0  0
 64145  1  0  0  0
 65146  1  0  0  0
 68 80  1  0  0  0
 71 72  2  0  0  0
 71 79  1  0  0  0
 71 82  1  0  0  0
 72 76  1  0  0  0
 72 87  1  0  0  0
 73 82  2  0  0  0
 73 84  1  0  0  0
 73 87  1  0  0  0
 74 80  1  0  0  0
 74 81  1  0  0  0
 74 83  2  0  0  0
 75 80  1  0  0  0
 75 85  1  0  0  0
 75 86  2  0  0  0
 76147  1  0  0  0
 76148  1  0  0  0
 76149  1  0  0  0
 77150  1  0  0  0
 77151  1  0  0  0
 77152  1  0  0  0
 77 81  1  0  0  0
 78 81  1  0  0  0
 78153  1  0  0  0
 78154  1  0  0  0
 78155  1  0  0  0
 79 85  1  0  0  0
 79156  1  0  0  0
 79157  1  0  0  0
 80158  1  0  0  0
 81159  1  0  0  0
 83160  1  0  0  0
 84161  1  0  0  0
 85162  1  0  0  0
M  ISO  4   1 100  68 101  80 101  84 100
M  END
> <chiral flag>
0

> <version>
0

> <s_m_source_file>
/data/baiqing/PycharmProjects/Reinvent-master-3.2/result/LINK_invent/BTK/process_docking_weight1_custom_product_contain_oxygen_bond_distance_aromatic_linkinvent_7_9_3/rearranged_h_0161.sdf

> <i_m_source_file_index>
86

> <r_mmod_Potential_Energy-OPLS-2005>
278.845520019531

> <r_mmod_Stretch_Energy-OPLS-2005>
155.062454223633

> <r_mmod_Bend_Energy-OPLS-2005>
278.989135742188

> <r_mmod_Torsional_Energy-OPLS-2005>
239.484085083008

> <r_mmod_Improper_Torsional_Energy-OPLS-2005>
15.4714260101318

> <r_mmod_Van_der_Waal_Energy-OPLS-2005>
113.838394165039

> <r_mmod_Electrostatic_Energy-OPLS-2005>
-389.982086181641

> <r_mmod_Solvation_Energy-OPLS-2005>
-247.112533569336

> <b_mmod_Minimization_Converged-OPLS-2005>
0

> <r_mmod_RMS_Derivative-OPLS-2005>
5.31615543365479

$$$$
86
                    3D
 Structure written by MMmdl.
157165  0  0  1  0            999 V2000
  -30.5650  -14.8271   20.4490 C   0  0  0  0  0  0
  -30.4499  -12.5109   19.4884 C   0  0  0  0  0  0
  -29.5210  -12.4998   18.2539 C   0  0  0  0  0  0
  -28.0638  -12.2692   18.6854 C   0  0  0  0  0  0
  -27.6418  -13.2146   19.8380 C   0  0  2  0  0  0
  -28.6792  -13.2017   20.9819 C   0  0  0  0  0  0
  -25.2567  -13.8155   20.5612 C   0  0  0  0  0  0
  -24.1826  -13.0411   20.9149 C   0  0  0  0  0  0
  -24.6366  -11.6875   20.8759 C   0  0  0  0  0  0
  -23.8996  -10.4254   21.0350 C   0  0  0  0  0  0
  -24.3549   -9.4215   21.9173 C   0  0  0  0  0  0
  -23.6247   -8.2244   22.0791 C   0  0  0  0  0  0
  -22.4268   -8.0220   21.3524 C   0  0  0  0  0  0
  -21.9824   -9.0194   20.4660 C   0  0  0  0  0  0
  -22.7134  -10.2087   20.3040 C   0  0  0  0  0  0
  -21.6871   -6.0683   22.5249 C   0  0  0  0  0  0
  -21.4011   -6.5611   23.8161 C   0  0  0  0  0  0
  -21.3667   -5.6786   24.9139 C   0  0  0  0  0  0
  -21.6058   -4.3052   24.7236 C   0  0  0  0  0  0
  -21.8826   -3.8107   23.4369 C   0  0  0  0  0  0
  -21.9191   -4.6889   22.3396 C   0  0  0  0  0  0
  -22.7865  -13.5251   21.1763 C   0  0  0  0  0  0
  -22.1674   -4.2064   21.0978 F   0  0  0  0  0  0
  -21.5620   -3.4558   25.7756 F   0  0  0  0  0  0
  -29.9701  -13.5772   20.3995 N   0  0  0  0  0  0
  -26.2927  -12.9291   20.3181 N   0  0  0  0  0  0
  -25.9296  -11.6460   20.5741 N   0  0  0  0  0  0
  -22.0447  -12.8306   22.0329 N   0  0  0  0  0  0
  -25.4413  -15.1843   20.3991 N   0  0  0  0  0  0
  -31.7543  -14.9241   20.1301 O   0  0  0  0  0  0
  -21.6659   -6.8812   21.4202 O   0  0  0  0  0  0
  -22.3536  -14.5501   20.6495 O   0  0  0  0  0  0
  -24.6370  -31.8522   23.1891 C   0  0  0  0  0  0
  -25.9182  -32.4719   23.8254 C   0  0  1  0  0  0
  -27.2043  -27.2062   20.1446 C   0  0  0  0  0  0
  -25.5951  -33.8504   24.2191 N   0  0  0  0  0  0
  -23.4320  -30.4680   21.5424 C   0  0  2  0  0  0
  -24.8752  -28.9022   20.1187 C   0  0  0  0  0  0
  -22.7510  -29.4536   22.4928 C   0  0  0  0  0  0
  -18.0266  -28.1365   22.8466 C   0  0  0  0  0  0
  -24.1518  -36.7249   23.2625 C   0  0  0  0  0  0
  -25.9777  -30.7516   21.3705 C   0  0  0  0  0  0
  -26.0510  -29.3640   20.7239 C   0  0  0  0  0  0
  -27.2239  -28.5343   20.7148 C   0  0  0  0  0  0
  -26.0005  -26.8097   19.5343 C   0  0  0  0  0  0
  -24.8577  -27.6372   19.5115 C   0  0  0  0  0  0
  -23.6489  -29.7979   20.1602 C   0  0  0  0  0  0
  -25.4146  -36.3004   24.0283 C   0  0  1  0  0  0
  -20.5889  -28.3658   23.1283 C   0  0  2  0  0  0
  -20.6772  -26.9383   22.5414 C   0  0  0  0  0  0
  -19.5744  -26.6377   21.5211 C   0  0  0  0  0  0
  -18.1919  -26.7917   22.1614 C   0  0  0  0  0  0
  -19.1529  -28.8825   23.2873 C   0  0  0  0  0  0
  -18.9447  -30.1438   23.8870 C   0  0  0  0  0  0
  -17.6442  -30.6577   24.0546 C   0  0  0  0  0  0
  -25.9093  -34.9382   23.5046 C   0  0  0  0  0  0
  -16.5327  -29.9063   23.6335 C   0  0  0  0  0  0
  -16.7256  -28.6476   23.0368 C   0  0  0  0  0  0
  -26.4581  -31.6528   25.0643 C   0  0  0  0  0  0
  -25.3764  -31.3645   26.1316 C   0  0  0  0  0  0
  -27.0422  -30.2925   24.6112 C   0  0  0  0  0  0
  -27.6135  -32.4252   25.7406 C   0  0  0  0  0  0
  -27.5586  -37.1775   24.8459 C   0  0  0  0  0  0
  -21.4208  -29.3009   22.3687 N   0  0  0  0  0  0
  -26.4304  -37.3729   23.9395 N   0  0  0  0  0  0
  -24.7030  -31.0436   22.0911 N   0  0  0  0  0  0
  -23.4197  -28.8095   23.3061 O   0  0  0  0  0  0
  -28.3074  -26.3195   20.0373 O   0  0  0  0  0  0
  -26.5664  -34.8889   22.4626 O   0  0  0  0  0  0
  -23.5513  -32.1349   23.7171 O   0  0  0  0  0  0
  -30.8637  -19.4268   20.1285 C   0  0  0  0  0  0
  -31.1181  -18.0037   20.1862 C   0  0  0  0  0  0
  -29.5346  -19.6456   20.4201 C   0  0  0  0  0  0
  -29.9529  -17.3542   20.5233 C   0  0  0  0  0  0
  -28.1266  -23.5491   20.3279 C   0  0  0  0  0  0
  -29.1693  -22.2704   20.1793 C   0  0  0  0  0  0
  -29.8930  -23.4649   17.3698 C   0  0  0  0  0  0
  -30.1919  -24.4564   16.2508 C   0  0  0  0  0  0
  -28.4660  -25.0506   20.8594 C   0  0  0  0  0  0
  -30.6803  -23.6149   18.6870 C   0  0  0  0  0  0
  -28.8327  -20.9432   20.5262 N   0  0  0  0  0  0
  -29.7525  -15.9515   20.6677 N   0  0  0  0  0  0
  -30.3768  -22.5058   19.6167 N   0  3  0  0  0  0
  -26.9445  -23.2876   20.0887 O   0  0  0  0  0  0
  -29.0244  -22.5953   17.2302 O   0  0  0  0  0  0
  -28.9624  -18.3662   20.6773 O   0  0  0  0  0  0
  -31.4785  -12.6839   19.1621 H   0  0  0  0  0  0
  -30.4567  -11.5453   19.9983 H   0  0  0  0  0  0
  -29.8373  -11.7219   17.5576 H   0  0  0  0  0  0
  -29.6057  -13.4504   17.7242 H   0  0  0  0  0  0
  -27.9956  -11.2370   19.0310 H   0  0  0  0  0  0
  -27.3873  -12.3669   17.8359 H   0  0  0  0  0  0
  -27.6240  -14.2169   19.4108 H   0  0  0  0  0  0
  -28.7430  -12.2154   21.4418 H   0  0  0  0  0  0
  -28.3930  -13.9024   21.7670 H   0  0  0  0  0  0
  -25.2697   -9.5717   22.4757 H   0  0  0  0  0  0
  -23.9962   -7.4659   22.7543 H   0  0  0  0  0  0
  -21.0758   -8.8645   19.9013 H   0  0  0  0  0  0
  -22.3532  -10.9580   19.6156 H   0  0  0  0  0  0
  -21.2021   -7.6114   23.9601 H   0  0  0  0  0  0
  -21.1494   -6.0561   25.9027 H   0  0  0  0  0  0
  -22.0613   -2.7558   23.2899 H   0  0  0  0  0  0
  -22.4076  -12.0046   22.4826 H   0  0  0  0  0  0
  -21.1026  -13.1315   22.2459 H   0  0  0  0  0  0
  -24.6913  -15.8631   20.4808 H   0  0  0  0  0  0
  -26.2974  -15.5858   20.0385 H   0  0  0  0  0  0
  -26.7203  -32.5381   23.0947 H   0  0  0  0  0  0
  -25.0070  -33.9639   25.0311 H   0  0  0  0  0  0
  -22.7260  -31.2879   21.3951 H   0  0  0  0  0  0
  -23.3778  -35.9599   23.3283 H   0  0  0  0  0  0
  -24.3624  -36.8917   22.2056 H   0  0  0  0  0  0
  -23.7288  -37.6437   23.6692 H   0  0  0  0  0  0
  -26.1044  -31.5116   20.5966 H   0  0  0  0  0  0
  -26.8540  -30.8061   22.0020 H   0  0  0  0  0  0
  -28.1355  -28.8948   21.1668 H   0  0  0  0  0  0
  -25.9350  -25.8361   19.0647 H   0  0  0  0  0  0
  -23.9557  -27.2911   19.0241 H   0  0  0  0  0  0
  -23.7556  -30.5693   19.3937 H   0  0  0  0  0  0
  -22.7668  -29.2261   19.8639 H   0  0  0  0  0  0
  -25.1355  -36.1835   25.0776 H   0  0  0  0  0  0
  -20.9931  -28.3221   24.1427 H   0  0  0  0  0  0
  -20.5697  -26.2252   23.3608 H   0  0  0  0  0  0
  -21.6645  -26.7450   22.1203 H   0  0  0  0  0  0
  -19.6947  -25.6295   21.1224 H   0  0  0  0  0  0
  -19.6711  -27.3202   20.6750 H   0  0  0  0  0  0
  -17.4222  -26.6639   21.3996 H   0  0  0  0  0  0
  -18.0321  -26.0053   22.8991 H   0  0  0  0  0  0
  -19.7924  -30.7260   24.2256 H   0  0  0  0  0  0
  -17.4993  -31.6273   24.5122 H   0  0  0  0  0  0
  -15.5329  -30.2958   23.7689 H   0  0  0  0  0  0
  -15.8649  -28.0783   22.7134 H   0  0  0  0  0  0
  -24.5991  -30.6968   25.7583 H   0  0  0  0  0  0
  -24.8915  -32.2797   26.4687 H   0  0  0  0  0  0
  -25.8063  -30.8829   27.0092 H   0  0  0  0  0  0
  -26.2975  -29.6607   24.1239 H   0  0  0  0  0  0
  -27.4206  -29.7249   25.4627 H   0  0  0  0  0  0
  -27.8818  -30.4178   23.9257 H   0  0  0  0  0  0
  -27.2764  -33.3564   26.1934 H   0  0  0  0  0  0
  -28.3953  -32.6763   25.0230 H   0  0  0  0  0  0
  -28.0753  -31.8377   26.5338 H   0  0  0  0  0  0
  -28.2585  -38.0088   24.7538 H   0  0  0  0  0  0
  -28.1098  -36.2621   24.6267 H   0  0  0  0  0  0
  -27.2285  -37.1374   25.8851 H   0  0  0  0  0  0
  -20.9401  -29.8665   21.6825 H   0  0  0  0  0  0
  -26.0163  -38.2798   24.1426 H   0  0  0  0  0  0
  -31.6049  -20.1737   19.9007 H   0  0  0  0  0  0
  -32.0694  -17.5223   20.0052 H   0  0  0  0  0  0
  -29.9086  -25.4589   16.5673 H   0  0  0  0  0  0
  -29.6263  -24.2216   15.3464 H   0  0  0  0  0  0
  -31.2548  -24.4576   16.0100 H   0  0  0  0  0  0
  -29.5110  -25.0107   21.1634 H   0  0  0  0  0  0
  -27.8967  -25.1983   21.7748 H   0  0  0  0  0  0
  -30.4545  -24.5817   19.1358 H   0  0  0  0  0  0
  -31.7475  -23.6408   18.4607 H   0  0  0  0  0  0
  -27.8785  -20.8002   20.8270 H   0  0  0  0  0  0
  -28.8093  -15.6927   20.9101 H   0  0  0  0  0  0
  -31.0644  -21.7680   19.6314 H   0  0  0  0  0  0
  1 25  1  0  0  0
  1 30  2  0  0  0
  1 82  1  0  0  0
  2  3  1  0  0  0
  2 25  1  0  0  0
  2 87  1  0  0  0
  2 88  1  0  0  0
  3  4  1  0  0  0
  3 89  1  0  0  0
  3 90  1  0  0  0
  4  5  1  0  0  0
  4 91  1  0  0  0
  4 92  1  0  0  0
  5  6  1  0  0  0
  5 26  1  0  0  0
  5 93  1  0  0  0
  6 25  1  0  0  0
  6 94  1  0  0  0
  6 95  1  0  0  0
  7  8  2  0  0  0
  7 26  1  0  0  0
  7 29  1  0  0  0
  8  9  1  0  0  0
  8 22  1  0  0  0
  9 10  1  0  0  0
  9 27  2  0  0  0
 10 11  2  0  0  0
 10 15  1  0  0  0
 11 12  1  0  0  0
 11 96  1  0  0  0
 12 13  2  0  0  0
 12 97  1  0  0  0
 13 14  1  0  0  0
 13 31  1  0  0  0
 14 15  2  0  0  0
 14 98  1  0  0  0
 15 99  1  0  0  0
 16 17  2  0  0  0
 16 21  1  0  0  0
 16 31  1  0  0  0
 17 18  1  0  0  0
 17100  1  0  0  0
 18 19  2  0  0  0
 18101  1  0  0  0
 19 20  1  0  0  0
 19 24  1  0  0  0
 20 21  2  0  0  0
 20102  1  0  0  0
 21 23  1  0  0  0
 22 28  1  0  0  0
 22 32  2  0  0  0
 26 27  1  0  0  0
 28103  1  0  0  0
 28104  1  0  0  0
 29105  1  0  0  0
 29106  1  0  0  0
 33 34  1  0  0  0
 33 66  1  0  0  0
 33 70  2  0  0  0
 34 36  1  0  0  0
 34 59  1  0  0  0
 34107  1  0  0  0
 35 44  2  0  0  0
 35 45  1  0  0  0
 35 68  1  0  0  0
 36 56  1  0  0  0
 36108  1  0  0  0
 37 39  1  0  0  0
 37 47  1  0  0  0
 37 66  1  0  0  0
 37109  1  0  0  0
 38 43  2  0  0  0
 38 46  1  0  0  0
 38 47  1  0  0  0
 39 64  1  0  0  0
 39 67  2  0  0  0
 40 52  1  0  0  0
 40 53  2  0  0  0
 40 58  1  0  0  0
 41110  1  0  0  0
 41111  1  0  0  0
 41112  1  0  0  0
 41 48  1  0  0  0
 42 43  1  0  0  0
 42 66  1  0  0  0
 42113  1  0  0  0
 42114  1  0  0  0
 43 44  1  0  0  0
 44115  1  0  0  0
 45 46  2  0  0  0
 45116  1  0  0  0
 46117  1  0  0  0
 47118  1  0  0  0
 47119  1  0  0  0
 48 56  1  0  0  0
 48 65  1  0  0  0
 48120  1  0  0  0
 49 50  1  0  0  0
 49 53  1  0  0  0
 49 64  1  0  0  0
 49121  1  0  0  0
 50 51  1  0  0  0
 50122  1  0  0  0
 50123  1  0  0  0
 51 52  1  0  0  0
 51124  1  0  0  0
 51125  1  0  0  0
 52126  1  0  0  0
 52127  1  0  0  0
 53 54  1  0  0  0
 54 55  2  0  0  0
 54128  1  0  0  0
 55 57  1  0  0  0
 55129  1  0  0  0
 56 69  2  0  0  0
 57 58  2  0  0  0
 57130  1  0  0  0
 58131  1  0  0  0
 59 60  1  0  0  0
 59 61  1  0  0  0
 59 62  1  0  0  0
 60132  1  0  0  0
 60133  1  0  0  0
 60134  1  0  0  0
 61135  1  0  0  0
 61136  1  0  0  0
 61137  1  0  0  0
 62138  1  0  0  0
 62139  1  0  0  0
 62140  1  0  0  0
 63 65  1  0  0  0
 63141  1  0  0  0
 63142  1  0  0  0
 63143  1  0  0  0
 64144  1  0  0  0
 65145  1  0  0  0
 68 79  1  0  0  0
 71 72  1  0  0  0
 71 73  2  0  0  0
 71146  1  0  0  0
 72 74  2  0  0  0
 72147  1  0  0  0
 73 81  1  0  0  0
 73 86  1  0  0  0
 74 82  1  0  0  0
 74 86  1  0  0  0
 75 76  1  0  0  0
 75 79  1  0  0  0
 75 84  2  0  0  0
 76 81  1  0  0  0
 76 83  2  0  0  0
 77 78  1  0  0  0
 77 80  1  0  0  0
 77 85  2  0  0  0
 78148  1  0  0  0
 78149  1  0  0  0
 78150  1  0  0  0
 79151  1  0  0  0
 79152  1  0  0  0
 80 83  1  0  0  0
 80153  1  0  0  0
 80154  1  0  0  0
 81155  1  0  0  0
 82156  1  0  0  0
 83157  1  0  0  0
M  CHG  1  83   1
M  ISO  4   1 100  68 101  79 101  82 100
M  END
> <chiral flag>
0

> <version>
0

> <s_m_source_file>
/data/baiqing/PycharmProjects/Reinvent-master-3.2/result/LINK_invent/BTK/process_docking_weight1_custom_product_contain_oxygen_bond_distance_aromatic_linkinvent_7_9_3/rearranged_h_0161.sdf

> <i_m_source_file_index>
87

> <r_mmod_Potential_Energy-OPLS-2005>
78.6687774658203

> <r_mmod_Stretch_Energy-OPLS-2005>
164.706344604492

> <r_mmod_Bend_Energy-OPLS-2005>
228.845092773438

> <r_mmod_Torsional_Energy-OPLS-2005>
264.070129394531

> <r_mmod_Improper_Torsional_Energy-OPLS-2005>
6.70746850967407

> <r_mmod_Van_der_Waal_Energy-OPLS-2005>
112.680778503418

> <r_mmod_Electrostatic_Energy-OPLS-2005>
-351.334228515625

> <r_mmod_Solvation_Energy-OPLS-2005>
-465.865509033203

> <b_mmod_Minimization_Converged-OPLS-2005>
0

> <r_mmod_RMS_Derivative-OPLS-2005>
6.73986101150513

$$$$
87
                    3D
 Structure written by MMmdl.
153162  0  0  1  0            999 V2000
  -30.5456  -14.8016   20.4523 C   0  0  0  0  0  0
  -30.4444  -12.4928   19.4758 C   0  0  0  0  0  0
  -29.5193  -12.5203   18.2375 C   0  0  0  0  0  0
  -28.0462  -12.3183   18.6528 C   0  0  0  0  0  0
  -27.6377  -13.2227   19.8463 C   0  0  2  0  0  0
  -28.6794  -13.1631   20.9806 C   0  0  0  0  0  0
  -25.2486  -13.8149   20.5667 C   0  0  0  0  0  0
  -24.1763  -13.0427   20.9210 C   0  0  0  0  0  0
  -24.6342  -11.6893   20.8744 C   0  0  0  0  0  0
  -23.9011  -10.4272   21.0406 C   0  0  0  0  0  0
  -24.3578   -9.4194   21.9171 C   0  0  0  0  0  0
  -23.6278   -8.2222   22.0725 C   0  0  0  0  0  0
  -22.4272   -8.0249   21.3515 C   0  0  0  0  0  0
  -21.9876   -9.0205   20.4629 C   0  0  0  0  0  0
  -22.7186  -10.2100   20.3053 C   0  0  0  0  0  0
  -21.6851   -6.0716   22.5273 C   0  0  0  0  0  0
  -21.4007   -6.5614   23.8218 C   0  0  0  0  0  0
  -21.3666   -5.6767   24.9174 C   0  0  0  0  0  0
  -21.6053   -4.3030   24.7237 C   0  0  0  0  0  0
  -21.8814   -3.8125   23.4357 C   0  0  0  0  0  0
  -21.9177   -4.6936   22.3408 C   0  0  0  0  0  0
  -22.7792  -13.5215   21.1903 C   0  0  0  0  0  0
  -22.1656   -4.2125   21.0984 F   0  0  0  0  0  0
  -21.5639   -3.4519   25.7746 F   0  0  0  0  0  0
  -29.9705  -13.5484   20.3966 N   0  0  0  0  0  0
  -26.2891  -12.9338   20.3230 N   0  0  0  0  0  0
  -25.9261  -11.6485   20.5698 N   0  0  0  0  0  0
  -22.0424  -12.8214   22.0467 N   0  0  0  0  0  0
  -25.4205  -15.1866   20.4081 N   0  0  0  0  0  0
  -31.7507  -14.9314   20.2141 O   0  0  0  0  0  0
  -21.6633   -6.8850   21.4236 O   0  0  0  0  0  0
  -22.3493  -14.5535   20.6756 O   0  0  0  0  0  0
  -24.6318  -31.8552   23.1984 C   0  0  0  0  0  0
  -25.9128  -32.4767   23.8341 C   0  0  1  0  0  0
  -27.2164  -27.2458   20.1506 C   0  0  0  0  0  0
  -25.5931  -33.8573   24.2293 N   0  0  0  0  0  0
  -23.4320  -30.4775   21.5379 C   0  0  2  0  0  0
  -24.8839  -28.9213   20.1092 C   0  0  0  0  0  0
  -22.7533  -29.4614   22.4876 C   0  0  0  0  0  0
  -18.0295  -28.1383   22.8472 C   0  0  0  0  0  0
  -24.1497  -36.7288   23.2638 C   0  0  0  0  0  0
  -25.9755  -30.7695   21.3758 C   0  0  0  0  0  0
  -26.0530  -29.3855   20.7273 C   0  0  0  0  0  0
  -27.2262  -28.5611   20.7357 C   0  0  0  0  0  0
  -26.0374  -26.8664   19.4773 C   0  0  0  0  0  0
  -24.8839  -27.6748   19.4645 C   0  0  0  0  0  0
  -23.6561  -29.8112   20.1537 C   0  0  0  0  0  0
  -25.4116  -36.3098   24.0344 C   0  0  1  0  0  0
  -20.5907  -28.3716   23.1258 C   0  0  2  0  0  0
  -20.6787  -26.9426   22.5402 C   0  0  0  0  0  0
  -19.5762  -26.6386   21.5203 C   0  0  0  0  0  0
  -18.1946  -26.7929   22.1607 C   0  0  0  0  0  0
  -19.1551  -28.8860   23.2874 C   0  0  0  0  0  0
  -18.9464  -30.1457   23.8889 C   0  0  0  0  0  0
  -17.6462  -30.6581   24.0557 C   0  0  0  0  0  0
  -25.9046  -34.9454   23.5132 C   0  0  0  0  0  0
  -16.5358  -29.9081   23.6299 C   0  0  0  0  0  0
  -16.7286  -28.6504   23.0323 C   0  0  0  0  0  0
  -26.4503  -31.6563   25.0694 C   0  0  0  0  0  0
  -25.3745  -31.3660   26.1424 C   0  0  0  0  0  0
  -27.0320  -30.3000   24.6090 C   0  0  0  0  0  0
  -27.6080  -32.4277   25.7448 C   0  0  0  0  0  0
  -27.5595  -37.1806   24.8468 C   0  0  0  0  0  0
  -21.4233  -29.3084   22.3666 N   0  0  0  0  0  0
  -26.4297  -37.3797   23.9425 N   0  0  0  0  0  0
  -24.6989  -31.0544   22.0941 N   0  0  0  0  0  0
  -23.4238  -28.8123   23.2956 O   0  0  0  0  0  0
  -28.2818  -26.3132   20.1892 O   0  0  0  0  0  0
  -26.5616  -34.8933   22.4698 O   0  0  0  0  0  0
  -23.5474  -32.1339   23.7300 O   0  0  0  0  0  0
  -29.1325  -18.3592   19.9586 C   0  0  0  0  0  0
  -29.5256  -19.7356   20.3474 C   0  0  0  0  0  0
  -29.8331  -17.2907   20.5626 C   0  0  0  0  0  0
  -28.7182  -23.6040   20.0462 C   0  0  0  0  0  0
  -29.6771  -23.9660   18.9284 C   0  0  0  0  0  0
  -30.1343  -22.7595   18.0870 C   0  0  0  0  0  0
  -29.1447  -21.1338   19.6607 C   0  0  1  0  0  0
  -27.9803  -24.9029   20.6634 C   0  0  0  0  0  0
  -30.4676  -19.7113   21.2747 N   0  0  0  0  0  0
  -28.5905  -22.3406   20.4479 N   0  0  0  0  0  0
  -29.6715  -15.8907   20.4798 N   0  0  0  0  0  0
  -30.3428  -21.5472   18.9072 N   0  3  0  0  0  0
  -30.9409  -18.1089   21.6336 S   0  0  0  0  0  0
  -31.4817  -12.6506   19.1762 H   0  0  0  0  0  0
  -30.4152  -11.5179   19.9645 H   0  0  0  0  0  0
  -29.8230  -11.7504   17.5281 H   0  0  0  0  0  0
  -29.6239  -13.4728   17.7156 H   0  0  0  0  0  0
  -27.9227  -11.2707   18.9258 H   0  0  0  0  0  0
  -27.3853  -12.4862   17.8020 H   0  0  0  0  0  0
  -27.6294  -14.2412   19.4587 H   0  0  0  0  0  0
  -28.7267  -12.1647   21.4193 H   0  0  0  0  0  0
  -28.3991  -13.8348   21.7934 H   0  0  0  0  0  0
  -25.2724   -9.5722   22.4724 H   0  0  0  0  0  0
  -24.0019   -7.4629   22.7425 H   0  0  0  0  0  0
  -21.0808   -8.8691   19.8938 H   0  0  0  0  0  0
  -22.3606  -10.9615   19.6160 H   0  0  0  0  0  0
  -21.1996   -7.6124   23.9727 H   0  0  0  0  0  0
  -21.1499   -6.0486   25.9078 H   0  0  0  0  0  0
  -22.0589   -2.7589   23.2851 H   0  0  0  0  0  0
  -22.4032  -11.9894   22.4879 H   0  0  0  0  0  0
  -21.1029  -13.1227   22.2656 H   0  0  0  0  0  0
  -24.6514  -15.8395   20.5159 H   0  0  0  0  0  0
  -26.2598  -15.6229   20.0515 H   0  0  0  0  0  0
  -26.7190  -32.5462   23.1085 H   0  0  0  0  0  0
  -25.0117  -33.9713   25.0470 H   0  0  0  0  0  0
  -22.7270  -31.2987   21.3901 H   0  0  0  0  0  0
  -23.3777  -35.9604   23.3270 H   0  0  0  0  0  0
  -24.3595  -36.8921   22.2055 H   0  0  0  0  0  0
  -23.7212  -37.6472   23.6661 H   0  0  0  0  0  0
  -26.1049  -31.5206   20.5961 H   0  0  0  0  0  0
  -26.8583  -30.8374   21.9992 H   0  0  0  0  0  0
  -28.1193  -28.9133   21.2345 H   0  0  0  0  0  0
  -26.0001  -25.9189   18.9596 H   0  0  0  0  0  0
  -23.9981  -27.3229   18.9557 H   0  0  0  0  0  0
  -23.7923  -30.5861   19.3981 H   0  0  0  0  0  0
  -22.7738  -29.2494   19.8443 H   0  0  0  0  0  0
  -25.1294  -36.1954   25.0836 H   0  0  0  0  0  0
  -21.0003  -28.3296   24.1384 H   0  0  0  0  0  0
  -20.5677  -26.2338   23.3628 H   0  0  0  0  0  0
  -21.6667  -26.7457   22.1214 H   0  0  0  0  0  0
  -19.6938  -25.6305   21.1228 H   0  0  0  0  0  0
  -19.6676  -27.3203   20.6742 H   0  0  0  0  0  0
  -17.4228  -26.6685   21.3996 H   0  0  0  0  0  0
  -18.0332  -26.0068   22.9001 H   0  0  0  0  0  0
  -19.7948  -30.7281   24.2258 H   0  0  0  0  0  0
  -17.5015  -31.6243   24.5193 H   0  0  0  0  0  0
  -15.5364  -30.2982   23.7614 H   0  0  0  0  0  0
  -15.8693  -28.0830   22.7006 H   0  0  0  0  0  0
  -24.5978  -30.6933   25.7764 H   0  0  0  0  0  0
  -24.8848  -32.2786   26.4840 H   0  0  0  0  0  0
  -25.8104  -30.8871   27.0202 H   0  0  0  0  0  0
  -26.2841  -29.6749   24.1187 H   0  0  0  0  0  0
  -27.4125  -29.7259   25.4545 H   0  0  0  0  0  0
  -27.8692  -30.4304   23.9225 H   0  0  0  0  0  0
  -27.2727  -33.3611   26.1993 H   0  0  0  0  0  0
  -28.3896  -32.6768   25.0253 H   0  0  0  0  0  0
  -28.0730  -31.8386   26.5365 H   0  0  0  0  0  0
  -28.2621  -38.0103   24.7558 H   0  0  0  0  0  0
  -28.1092  -36.2642   24.6254 H   0  0  0  0  0  0
  -27.2323  -37.1413   25.8875 H   0  0  0  0  0  0
  -20.9426  -29.8850   21.6899 H   0  0  0  0  0  0
  -26.0180  -38.2883   24.1412 H   0  0  0  0  0  0
  -28.3666  -18.2166   19.2078 H   0  0  0  0  0  0
  -30.5414  -24.4470   19.3858 H   0  0  0  0  0  0
  -29.2155  -24.7110   18.2789 H   0  0  0  0  0  0
  -31.0576  -23.0075   17.5603 H   0  0  0  0  0  0
  -29.3868  -22.5462   17.3215 H   0  0  0  0  0  0
  -28.3903  -20.9007   18.9042 H   0  0  0  0  0  0
  -28.1981  -24.9061   21.7311 H   0  0  0  0  0  0
  -26.9119  -24.6990   20.6142 H   0  0  0  0  0  0
  -28.7095  -15.5944   20.4444 H   0  0  0  0  0  0
  -31.0991  -21.6668   19.5620 H   0  0  0  0  0  0
  -30.5998  -20.7805   18.3070 H   0  0  0  0  0  0
  1 25  1  0  0  0
  1 30  2  0  0  0
  1 81  1  0  0  0
  2  3  1  0  0  0
  2 25  1  0  0  0
  2 84  1  0  0  0
  2 85  1  0  0  0
  3  4  1  0  0  0
  3 86  1  0  0  0
  3 87  1  0  0  0
  4  5  1  0  0  0
  4 88  1  0  0  0
  4 89  1  0  0  0
  5  6  1  0  0  0
  5 26  1  0  0  0
  5 90  1  0  0  0
  6 25  1  0  0  0
  6 91  1  0  0  0
  6 92  1  0  0  0
  7  8  2  0  0  0
  7 26  1  0  0  0
  7 29  1  0  0  0
  8  9  1  0  0  0
  8 22  1  0  0  0
  9 10  1  0  0  0
  9 27  2  0  0  0
 10 11  2  0  0  0
 10 15  1  0  0  0
 11 12  1  0  0  0
 11 93  1  0  0  0
 12 13  2  0  0  0
 12 94  1  0  0  0
 13 14  1  0  0  0
 13 31  1  0  0  0
 14 15  2  0  0  0
 14 95  1  0  0  0
 15 96  1  0  0  0
 16 17  2  0  0  0
 16 21  1  0  0  0
 16 31  1  0  0  0
 17 18  1  0  0  0
 17 97  1  0  0  0
 18 19  2  0  0  0
 18 98  1  0  0  0
 19 20  1  0  0  0
 19 24  1  0  0  0
 20 21  2  0  0  0
 20 99  1  0  0  0
 21 23  1  0  0  0
 22 28  1  0  0  0
 22 32  2  0  0  0
 26 27  1  0  0  0
 28100  1  0  0  0
 28101  1  0  0  0
 29102  1  0  0  0
 29103  1  0  0  0
 33 34  1  0  0  0
 33 66  1  0  0  0
 33 70  2  0  0  0
 34 36  1  0  0  0
 34 59  1  0  0  0
 34104  1  0  0  0
 35 44  2  0  0  0
 35 45  1  0  0  0
 35 68  1  0  0  0
 36 56  1  0  0  0
 36105  1  0  0  0
 37 39  1  0  0  0
 37 47  1  0  0  0
 37 66  1  0  0  0
 37106  1  0  0  0
 38 43  2  0  0  0
 38 46  1  0  0  0
 38 47  1  0  0  0
 39 64  1  0  0  0
 39 67  2  0  0  0
 40 52  1  0  0  0
 40 53  2  0  0  0
 40 58  1  0  0  0
 41107  1  0  0  0
 41108  1  0  0  0
 41109  1  0  0  0
 41 48  1  0  0  0
 42 43  1  0  0  0
 42 66  1  0  0  0
 42110  1  0  0  0
 42111  1  0  0  0
 43 44  1  0  0  0
 44112  1  0  0  0
 45 46  2  0  0  0
 45113  1  0  0  0
 46114  1  0  0  0
 47115  1  0  0  0
 47116  1  0  0  0
 48 56  1  0  0  0
 48 65  1  0  0  0
 48117  1  0  0  0
 49 50  1  0  0  0
 49 53  1  0  0  0
 49 64  1  0  0  0
 49118  1  0  0  0
 50 51  1  0  0  0
 50119  1  0  0  0
 50120  1  0  0  0
 51 52  1  0  0  0
 51121  1  0  0  0
 51122  1  0  0  0
 52123  1  0  0  0
 52124  1  0  0  0
 53 54  1  0  0  0
 54 55  2  0  0  0
 54125  1  0  0  0
 55 57  1  0  0  0
 55126  1  0  0  0
 56 69  2  0  0  0
 57 58  2  0  0  0
 57127  1  0  0  0
 58128  1  0  0  0
 59 60  1  0  0  0
 59 61  1  0  0  0
 59 62  1  0  0  0
 60129  1  0  0  0
 60130  1  0  0  0
 60131  1  0  0  0
 61132  1  0  0  0
 61133  1  0  0  0
 61134  1  0  0  0
 62135  1  0  0  0
 62136  1  0  0  0
 62137  1  0  0  0
 63 65  1  0  0  0
 63138  1  0  0  0
 63139  1  0  0  0
 63140  1  0  0  0
 64141  1  0  0  0
 65142  1  0  0  0
 68 78  1  0  0  0
 71 72  1  0  0  0
 71 73  2  0  0  0
 71143  1  0  0  0
 72 79  2  0  0  0
 72 77  1  0  0  0
 73 81  1  0  0  0
 73 83  1  0  0  0
 74 75  1  0  0  0
 74 78  1  0  0  0
 74 80  2  0  0  0
 75 76  1  0  0  0
 75144  1  0  0  0
 75145  1  0  0  0
 76 82  1  0  0  0
 76146  1  0  0  0
 76147  1  0  0  0
 77 80  1  0  0  0
 77 82  1  0  0  0
 77148  1  0  0  0
 78149  1  0  0  0
 78150  1  0  0  0
 79 83  1  0  0  0
 81151  1  0  0  0
 82152  1  0  0  0
 82153  1  0  0  0
M  CHG  1  82   1
M  ISO  4   1 100  68 101  78 101  81 100
M  END
> <chiral flag>
0

> <version>
0

> <s_m_source_file>
/data/baiqing/PycharmProjects/Reinvent-master-3.2/result/LINK_invent/BTK/process_docking_weight1_custom_product_contain_oxygen_bond_distance_aromatic_linkinvent_7_9_3/rearranged_h_0161.sdf

> <i_m_source_file_index>
88

> <r_mmod_Potential_Energy-OPLS-2005>
-106.473022460938

> <r_mmod_Stretch_Energy-OPLS-2005>
142.02702331543

> <r_mmod_Bend_Energy-OPLS-2005>
179.404510498047

> <r_mmod_Torsional_Energy-OPLS-2005>
247.462219238281

> <r_mmod_Improper_Torsional_Energy-OPLS-2005>
8.95289421081543

> <r_mmod_Van_der_Waal_Energy-OPLS-2005>
125.191337585449

> <r_mmod_Electrostatic_Energy-OPLS-2005>
-428.155822753906

> <r_mmod_Solvation_Energy-OPLS-2005>
-491.138885498047

> <b_mmod_Minimization_Converged-OPLS-2005>
0

> <r_mmod_RMS_Derivative-OPLS-2005>
4.03182077407837

$$$$
88
                    3D
 Structure written by MMmdl.
153161  0  0  1  0            999 V2000
  -30.7340  -14.4384   20.6590 C   0  0  0  0  0  0
  -30.4300  -12.3197   19.4116 C   0  0  0  0  0  0
  -29.4937  -12.5232   18.2032 C   0  0  0  0  0  0
  -28.0203  -12.3608   18.6203 C   0  0  0  0  0  0
  -27.6662  -13.2026   19.8732 C   0  0  2  0  0  0
  -28.7036  -12.9698   20.9942 C   0  0  0  0  0  0
  -25.2621  -13.8162   20.5654 C   0  0  0  0  0  0
  -24.1857  -13.0454   20.9154 C   0  0  0  0  0  0
  -24.6401  -11.6913   20.8719 C   0  0  0  0  0  0
  -23.9068  -10.4297   21.0404 C   0  0  0  0  0  0
  -24.3621   -9.4224   21.9186 C   0  0  0  0  0  0
  -23.6292   -8.2259   22.0757 C   0  0  0  0  0  0
  -22.4276   -8.0287   21.3548 C   0  0  0  0  0  0
  -21.9914   -9.0259   20.4642 C   0  0  0  0  0  0
  -22.7248  -10.2134   20.3046 C   0  0  0  0  0  0
  -21.6862   -6.0746   22.5286 C   0  0  0  0  0  0
  -21.4013   -6.5649   23.8219 C   0  0  0  0  0  0
  -21.3653   -5.6798   24.9174 C   0  0  0  0  0  0
  -21.6043   -4.3057   24.7223 C   0  0  0  0  0  0
  -21.8820   -3.8152   23.4346 C   0  0  0  0  0  0
  -21.9195   -4.6974   22.3408 C   0  0  0  0  0  0
  -22.7878  -13.5263   21.1817 C   0  0  0  0  0  0
  -22.1665   -4.2160   21.0984 F   0  0  0  0  0  0
  -21.5623   -3.4542   25.7734 F   0  0  0  0  0  0
  -30.0458  -13.2788   20.4602 N   0  0  0  0  0  0
  -26.3047  -12.9320   20.3338 N   0  0  0  0  0  0
  -25.9325  -11.6487   20.5743 N   0  0  0  0  0  0
  -22.0499  -12.8244   22.0354 N   0  0  0  0  0  0
  -25.4395  -15.1872   20.4064 N   0  0  0  0  0  0
  -31.7789  -14.7103   20.0574 O   0  0  0  0  0  0
  -21.6644   -6.8883   21.4242 O   0  0  0  0  0  0
  -22.3568  -14.5582   20.6685 O   0  0  0  0  0  0
  -24.6149  -31.8684   23.2123 C   0  0  0  0  0  0
  -25.9052  -32.4820   23.8402 C   0  0  1  0  0  0
  -27.2350  -27.4339   20.0901 C   0  0  0  0  0  0
  -25.5921  -33.8620   24.2342 N   0  0  0  0  0  0
  -23.4002  -30.4942   21.5548 C   0  0  2  0  0  0
  -24.8446  -28.9620   20.1157 C   0  0  0  0  0  0
  -22.7396  -29.4669   22.5016 C   0  0  0  0  0  0
  -18.0265  -28.1374   22.8483 C   0  0  0  0  0  0
  -24.1485  -36.7301   23.2628 C   0  0  0  0  0  0
  -25.9297  -30.8341   21.3642 C   0  0  0  0  0  0
  -26.0069  -29.4697   20.7090 C   0  0  0  0  0  0
  -27.2028  -28.7143   20.6919 C   0  0  0  0  0  0
  -26.0492  -26.9456   19.4880 C   0  0  0  0  0  0
  -24.8609  -27.6988   19.5029 C   0  0  0  0  0  0
  -23.6050  -29.8270   20.1688 C   0  0  0  0  0  0
  -25.4100  -36.3108   24.0343 C   0  0  1  0  0  0
  -20.5851  -28.3655   23.1327 C   0  0  2  0  0  0
  -20.6755  -26.9390   22.5435 C   0  0  0  0  0  0
  -19.5752  -26.6386   21.5206 C   0  0  0  0  0  0
  -18.1915  -26.7934   22.1584 C   0  0  0  0  0  0
  -19.1514  -28.8829   23.2905 C   0  0  0  0  0  0
  -18.9439  -30.1437   23.8913 C   0  0  0  0  0  0
  -17.6442  -30.6580   24.0566 C   0  0  0  0  0  0
  -25.9040  -34.9475   23.5136 C   0  0  0  0  0  0
  -16.5336  -29.9082   23.6335 C   0  0  0  0  0  0
  -16.7253  -28.6499   23.0350 C   0  0  0  0  0  0
  -26.4482  -31.6593   25.0727 C   0  0  0  0  0  0
  -25.3757  -31.3700   26.1483 C   0  0  0  0  0  0
  -27.0290  -30.3023   24.6095 C   0  0  0  0  0  0
  -27.6071  -32.4293   25.7486 C   0  0  0  0  0  0
  -27.5606  -37.1777   24.8429 C   0  0  0  0  0  0
  -21.4127  -29.3030   22.3741 N   0  0  0  0  0  0
  -26.4269  -37.3814   23.9448 N   0  0  0  0  0  0
  -24.6670  -31.0787   22.1023 N   0  0  0  0  0  0
  -23.4170  -28.8208   23.3056 O   0  0  0  0  0  0
  -28.4086  -26.6997   20.1114 O   0  0  0  0  0  0
  -26.5594  -34.8927   22.4694 O   0  0  0  0  0  0
  -23.5348  -32.1439   23.7532 O   0  0  0  0  0  0
  -31.3265  -18.1449   23.2866 C   0  0  0  0  0  0
  -31.0773  -16.7445   23.2434 C   0  0  0  0  0  0
  -30.9763  -18.6279   22.0551 C   0  0  0  0  0  0
  -30.6490  -16.4821   21.9719 C   0  0  0  0  0  0
  -29.5198  -24.4884   20.3364 C   0  0  0  0  0  0
  -30.4409  -20.6373   20.7629 C   0  0  0  0  0  0
  -29.3613  -22.9582   20.4000 C   0  0  0  0  0  0
  -28.2774  -25.2825   19.8937 C   0  0  0  0  0  0
  -30.6462  -22.1660   20.7559 C   0  0  0  0  0  0
  -31.0343  -19.9556   21.7591 N   0  0  0  0  0  0
  -30.2022  -15.2607   21.5805 N   0  0  0  0  0  0
  -30.5854  -25.0448   20.6242 O   0  0  0  0  0  0
  -29.7610  -20.1052   19.8815 O   0  0  0  0  0  0
  -30.5622  -17.6239   21.2109 O   0  0  0  0  0  0
  -31.4724  -12.4320   19.1066 H   0  0  0  0  0  0
  -30.3447  -11.3013   19.7937 H   0  0  0  0  0  0
  -29.7387  -11.8125   17.4129 H   0  0  0  0  0  0
  -29.6483  -13.5176   17.7813 H   0  0  0  0  0  0
  -27.8487  -11.3034   18.8255 H   0  0  0  0  0  0
  -27.3610  -12.6172   17.7901 H   0  0  0  0  0  0
  -27.7157  -14.2515   19.5783 H   0  0  0  0  0  0
  -28.6774  -11.9292   21.3204 H   0  0  0  0  0  0
  -28.4361  -13.5486   21.8775 H   0  0  0  0  0  0
  -25.2772   -9.5705   22.4756 H   0  0  0  0  0  0
  -24.0007   -7.4661   22.7481 H   0  0  0  0  0  0
  -21.0855   -8.8781   19.8939 H   0  0  0  0  0  0
  -22.3731  -10.9667   19.6137 H   0  0  0  0  0  0
  -21.2006   -7.6153   23.9725 H   0  0  0  0  0  0
  -21.1468   -6.0524   25.9079 H   0  0  0  0  0  0
  -22.0599   -2.7616   23.2847 H   0  0  0  0  0  0
  -22.4085  -11.9893   22.4733 H   0  0  0  0  0  0
  -21.1108  -13.1274   22.2524 H   0  0  0  0  0  0
  -24.6831  -15.8536   20.5166 H   0  0  0  0  0  0
  -26.3056  -15.6177   20.1047 H   0  0  0  0  0  0
  -26.7117  -32.5524   23.1161 H   0  0  0  0  0  0
  -25.0096  -33.9788   25.0504 H   0  0  0  0  0  0
  -22.6888  -31.3114   21.4194 H   0  0  0  0  0  0
  -23.3788  -35.9584   23.3192 H   0  0  0  0  0  0
  -24.3616  -36.9017   22.2065 H   0  0  0  0  0  0
  -23.7156  -37.6444   23.6698 H   0  0  0  0  0  0
  -26.0408  -31.6016   20.5969 H   0  0  0  0  0  0
  -26.8176  -30.8856   21.9821 H   0  0  0  0  0  0
  -28.0993  -29.1061   21.1520 H   0  0  0  0  0  0
  -26.0157  -25.9857   18.9941 H   0  0  0  0  0  0
  -23.9672  -27.3040   19.0394 H   0  0  0  0  0  0
  -23.7056  -30.6021   19.4084 H   0  0  0  0  0  0
  -22.7284  -29.2452   19.8782 H   0  0  0  0  0  0
  -25.1266  -36.1958   25.0830 H   0  0  0  0  0  0
  -20.9936  -28.3219   24.1450 H   0  0  0  0  0  0
  -20.5622  -26.2269   23.3620 H   0  0  0  0  0  0
  -21.6634  -26.7428   22.1247 H   0  0  0  0  0  0
  -19.6914  -25.6301   21.1230 H   0  0  0  0  0  0
  -19.6725  -27.3203   20.6746 H   0  0  0  0  0  0
  -17.4215  -26.6728   21.3948 H   0  0  0  0  0  0
  -18.0270  -26.0051   22.8936 H   0  0  0  0  0  0
  -19.7919  -30.7248   24.2288 H   0  0  0  0  0  0
  -17.5001  -31.6263   24.5157 H   0  0  0  0  0  0
  -15.5336  -30.2981   23.7665 H   0  0  0  0  0  0
  -15.8649  -28.0824   22.7060 H   0  0  0  0  0  0
  -24.5988  -30.6961   25.7858 H   0  0  0  0  0  0
  -24.8878  -32.2845   26.4867 H   0  0  0  0  0  0
  -25.8142  -30.8963   27.0277 H   0  0  0  0  0  0
  -26.2817  -29.6795   24.1164 H   0  0  0  0  0  0
  -27.4061  -29.7254   25.4550 H   0  0  0  0  0  0
  -27.8659  -30.4324   23.9230 H   0  0  0  0  0  0
  -27.2714  -33.3606   26.2062 H   0  0  0  0  0  0
  -28.3896  -32.6821   25.0321 H   0  0  0  0  0  0
  -28.0709  -31.8402   26.5408 H   0  0  0  0  0  0
  -28.2518  -38.0183   24.7652 H   0  0  0  0  0  0
  -28.1211  -36.2732   24.6010 H   0  0  0  0  0  0
  -27.2375  -37.1128   25.8835 H   0  0  0  0  0  0
  -20.9275  -29.8754   21.6970 H   0  0  0  0  0  0
  -26.0149  -38.2862   24.1572 H   0  0  0  0  0  0
  -31.6788  -18.7236   24.1295 H   0  0  0  0  0  0
  -31.1941  -16.0276   24.0446 H   0  0  0  0  0  0
  -28.9767  -22.6228   19.4366 H   0  0  0  0  0  0
  -28.5873  -22.7373   21.1353 H   0  0  0  0  0  0
  -27.4271  -24.8965   20.4566 H   0  0  0  0  0  0
  -28.0989  -25.0852   18.8369 H   0  0  0  0  0  0
  -31.4345  -22.3971   20.0389 H   0  0  0  0  0  0
  -31.0119  -22.4919   21.7307 H   0  0  0  0  0  0
  -31.5356  -20.5257   22.4261 H   0  0  0  0  0  0
  -29.4199  -14.8833   22.0932 H   0  0  0  0  0  0
  1 25  1  0  0  0
  1 30  2  0  0  0
  1 81  1  0  0  0
  2  3  1  0  0  0
  2 25  1  0  0  0
  2 85  1  0  0  0
  2 86  1  0  0  0
  3  4  1  0  0  0
  3 87  1  0  0  0
  3 88  1  0  0  0
  4  5  1  0  0  0
  4 89  1  0  0  0
  4 90  1  0  0  0
  5  6  1  0  0  0
  5 26  1  0  0  0
  5 91  1  0  0  0
  6 25  1  0  0  0
  6 92  1  0  0  0
  6 93  1  0  0  0
  7  8  2  0  0  0
  7 26  1  0  0  0
  7 29  1  0  0  0
  8  9  1  0  0  0
  8 22  1  0  0  0
  9 10  1  0  0  0
  9 27  2  0  0  0
 10 11  2  0  0  0
 10 15  1  0  0  0
 11 12  1  0  0  0
 11 94  1  0  0  0
 12 13  2  0  0  0
 12 95  1  0  0  0
 13 14  1  0  0  0
 13 31  1  0  0  0
 14 15  2  0  0  0
 14 96  1  0  0  0
 15 97  1  0  0  0
 16 17  2  0  0  0
 16 21  1  0  0  0
 16 31  1  0  0  0
 17 18  1  0  0  0
 17 98  1  0  0  0
 18 19  2  0  0  0
 18 99  1  0  0  0
 19 20  1  0  0  0
 19 24  1  0  0  0
 20 21  2  0  0  0
 20100  1  0  0  0
 21 23  1  0  0  0
 22 28  1  0  0  0
 22 32  2  0  0  0
 26 27  1  0  0  0
 28101  1  0  0  0
 28102  1  0  0  0
 29103  1  0  0  0
 29104  1  0  0  0
 33 34  1  0  0  0
 33 66  1  0  0  0
 33 70  2  0  0  0
 34 36  1  0  0  0
 34 59  1  0  0  0
 34105  1  0  0  0
 35 44  2  0  0  0
 35 45  1  0  0  0
 35 68  1  0  0  0
 36 56  1  0  0  0
 36106  1  0  0  0
 37 39  1  0  0  0
 37 47  1  0  0  0
 37 66  1  0  0  0
 37107  1  0  0  0
 38 43  2  0  0  0
 38 46  1  0  0  0
 38 47  1  0  0  0
 39 64  1  0  0  0
 39 67  2  0  0  0
 40 52  1  0  0  0
 40 53  2  0  0  0
 40 58  1  0  0  0
 41108  1  0  0  0
 41109  1  0  0  0
 41110  1  0  0  0
 41 48  1  0  0  0
 42 43  1  0  0  0
 42 66  1  0  0  0
 42111  1  0  0  0
 42112  1  0  0  0
 43 44  1  0  0  0
 44113  1  0  0  0
 45 46  2  0  0  0
 45114  1  0  0  0
 46115  1  0  0  0
 47116  1  0  0  0
 47117  1  0  0  0
 48 56  1  0  0  0
 48 65  1  0  0  0
 48118  1  0  0  0
 49 50  1  0  0  0
 49 53  1  0  0  0
 49 64  1  0  0  0
 49119  1  0  0  0
 50 51  1  0  0  0
 50120  1  0  0  0
 50121  1  0  0  0
 51 52  1  0  0  0
 51122  1  0  0  0
 51123  1  0  0  0
 52124  1  0  0  0
 52125  1  0  0  0
 53 54  1  0  0  0
 54 55  2  0  0  0
 54126  1  0  0  0
 55 57  1  0  0  0
 55127  1  0  0  0
 56 69  2  0  0  0
 57 58  2  0  0  0
 57128  1  0  0  0
 58129  1  0  0  0
 59 60  1  0  0  0
 59 61  1  0  0  0
 59 62  1  0  0  0
 60130  1  0  0  0
 60131  1  0  0  0
 60132  1  0  0  0
 61133  1  0  0  0
 61134  1  0  0  0
 61135  1  0  0  0
 62136  1  0  0  0
 62137  1  0  0  0
 62138  1  0  0  0
 63 65  1  0  0  0
 63139  1  0  0  0
 63140  1  0  0  0
 63141  1  0  0  0
 64142  1  0  0  0
 65143  1  0  0  0
 68 78  1  0  0  0
 71 72  1  0  0  0
 71 73  2  0  0  0
 71144  1  0  0  0
 72 74  2  0  0  0
 72145  1  0  0  0
 73 80  1  0  0  0
 73 84  1  0  0  0
 74 81  1  0  0  0
 74 84  1  0  0  0
 75 77  1  0  0  0
 75 78  1  0  0  0
 75 82  2  0  0  0
 76 79  1  0  0  0
 76 80  1  0  0  0
 76 83  2  0  0  0
 77 79  1  0  0  0
 77146  1  0  0  0
 77147  1  0  0  0
 78148  1  0  0  0
 78149  1  0  0  0
 79150  1  0  0  0
 79151  1  0  0  0
 80152  1  0  0  0
 81153  1  0  0  0
M  ISO  4   1 100  68 101  78 101  81 100
M  END
> <chiral flag>
0

> <version>
0

> <s_m_source_file>
/data/baiqing/PycharmProjects/Reinvent-master-3.2/result/LINK_invent/BTK/process_docking_weight1_custom_product_contain_oxygen_bond_distance_aromatic_linkinvent_7_9_3/rearranged_h_0161.sdf

> <i_m_source_file_index>
89

> <r_mmod_Potential_Energy-OPLS-2005>
-195.81510925293

> <r_mmod_Stretch_Energy-OPLS-2005>
35.9328575134277

> <r_mmod_Bend_Energy-OPLS-2005>
110.504325866699

> <r_mmod_Torsional_Energy-OPLS-2005>
218.854309082031

> <r_mmod_Improper_Torsional_Energy-OPLS-2005>
2.59153723716736

> <r_mmod_Van_der_Waal_Energy-OPLS-2005>
134.264221191406

> <r_mmod_Electrostatic_Energy-OPLS-2005>
-442.033996582031

> <r_mmod_Solvation_Energy-OPLS-2005>
-266.49560546875

> <b_mmod_Minimization_Converged-OPLS-2005>
0

> <r_mmod_RMS_Derivative-OPLS-2005>
1.35206377506256

$$$$
89
                    3D
 Structure written by MMmdl.
156164  0  0  1  0            999 V2000
  -30.5727  -14.7449   20.5020 C   0  0  0  0  0  0
  -30.4523  -12.4617   19.4667 C   0  0  0  0  0  0
  -29.5167  -12.5246   18.2365 C   0  0  0  0  0  0
  -28.0425  -12.3406   18.6496 C   0  0  0  0  0  0
  -27.6526  -13.2222   19.8649 C   0  0  2  0  0  0
  -28.6983  -13.1041   20.9967 C   0  0  0  0  0  0
  -25.2540  -13.8165   20.5643 C   0  0  0  0  0  0
  -24.1826  -13.0432   20.9191 C   0  0  0  0  0  0
  -24.6409  -11.6908   20.8751 C   0  0  0  0  0  0
  -23.9076  -10.4293   21.0414 C   0  0  0  0  0  0
  -24.3624   -9.4207   21.9190 C   0  0  0  0  0  0
  -23.6297   -8.2241   22.0757 C   0  0  0  0  0  0
  -22.4278   -8.0282   21.3547 C   0  0  0  0  0  0
  -21.9916   -9.0258   20.4649 C   0  0  0  0  0  0
  -22.7247  -10.2137   20.3061 C   0  0  0  0  0  0
  -21.6852   -6.0739   22.5282 C   0  0  0  0  0  0
  -21.4013   -6.5642   23.8215 C   0  0  0  0  0  0
  -21.3658   -5.6793   24.9177 C   0  0  0  0  0  0
  -21.6042   -4.3057   24.7227 C   0  0  0  0  0  0
  -21.8818   -3.8149   23.4348 C   0  0  0  0  0  0
  -21.9193   -4.6966   22.3405 C   0  0  0  0  0  0
  -22.7849  -13.5225   21.1856 C   0  0  0  0  0  0
  -22.1661   -4.2153   21.0982 F   0  0  0  0  0  0
  -21.5628   -3.4539   25.7738 F   0  0  0  0  0  0
  -30.0040  -13.4895   20.4344 N   0  0  0  0  0  0
  -26.2990  -12.9364   20.3327 N   0  0  0  0  0  0
  -25.9345  -11.6517   20.5784 N   0  0  0  0  0  0
  -22.0492  -12.8220   22.0415 N   0  0  0  0  0  0
  -25.4198  -15.1875   20.3952 N   0  0  0  0  0  0
  -31.7210  -14.9341   20.0866 O   0  0  0  0  0  0
  -21.6638   -6.8881   21.4243 O   0  0  0  0  0  0
  -22.3531  -14.5531   20.6706 O   0  0  0  0  0  0
  -24.6324  -31.8547   23.1978 C   0  0  0  0  0  0
  -25.9143  -32.4753   23.8325 C   0  0  1  0  0  0
  -27.2215  -27.2501   20.1303 C   0  0  0  0  0  0
  -25.5938  -33.8555   24.2247 N   0  0  0  0  0  0
  -23.4298  -30.4781   21.5415 C   0  0  2  0  0  0
  -24.8769  -28.9237   20.1131 C   0  0  0  0  0  0
  -22.7511  -29.4602   22.4904 C   0  0  0  0  0  0
  -18.0294  -28.1393   22.8486 C   0  0  0  0  0  0
  -24.1491  -36.7276   23.2642 C   0  0  0  0  0  0
  -25.9776  -30.7648   21.3791 C   0  0  0  0  0  0
  -26.0506  -29.3864   20.7210 C   0  0  0  0  0  0
  -27.2259  -28.5647   20.7144 C   0  0  0  0  0  0
  -26.0201  -26.8600   19.4946 C   0  0  0  0  0  0
  -24.8680  -27.6690   19.4885 C   0  0  0  0  0  0
  -23.6489  -29.8125   20.1582 C   0  0  0  0  0  0
  -25.4120  -36.3065   24.0326 C   0  0  1  0  0  0
  -20.5900  -28.3706   23.1265 C   0  0  2  0  0  0
  -20.6782  -26.9421   22.5406 C   0  0  0  0  0  0
  -19.5756  -26.6385   21.5215 C   0  0  0  0  0  0
  -18.1937  -26.7934   22.1627 C   0  0  0  0  0  0
  -19.1548  -28.8865   23.2872 C   0  0  0  0  0  0
  -18.9471  -30.1466   23.8891 C   0  0  0  0  0  0
  -17.6469  -30.6593   24.0566 C   0  0  0  0  0  0
  -25.9061  -34.9438   23.5085 C   0  0  0  0  0  0
  -16.5362  -29.9091   23.6336 C   0  0  0  0  0  0
  -16.7281  -28.6511   23.0356 C   0  0  0  0  0  0
  -26.4504  -31.6585   25.0721 C   0  0  0  0  0  0
  -25.3723  -31.3748   26.1440 C   0  0  0  0  0  0
  -27.0350  -30.2999   24.6216 C   0  0  0  0  0  0
  -27.6048  -32.4337   25.7498 C   0  0  0  0  0  0
  -27.5574  -37.1801   24.8474 C   0  0  0  0  0  0
  -21.4215  -29.3051   22.3652 N   0  0  0  0  0  0
  -26.4294  -37.3763   23.9404 N   0  0  0  0  0  0
  -24.6991  -31.0506   22.0957 N   0  0  0  0  0  0
  -23.4210  -28.8137   23.3001 O   0  0  0  0  0  0
  -28.3224  -26.3551   20.1706 O   0  0  0  0  0  0
  -26.5632  -34.8916   22.4656 O   0  0  0  0  0  0
  -23.5469  -32.1367   23.7267 O   0  0  0  0  0  0
  -29.0459  -19.3327   21.8057 C   0  0  0  0  0  0
  -29.1463  -17.9004   22.0195 C   0  0  0  0  0  0
  -29.5616  -19.8225   20.6265 C   0  0  0  0  0  0
  -29.7307  -17.1674   20.9967 C   0  0  0  0  0  0
  -29.0171  -22.2273   20.5700 C   0  0  0  0  0  0
  -27.1830  -16.8133   23.1848 C   0  0  0  0  0  0
  -30.0363  -23.8996   18.8659 C   0  0  0  0  0  0
  -28.6384  -17.2779   23.2917 C   0  0  0  0  0  0
  -28.0775  -24.8619   20.2334 C   0  0  0  0  0  0
  -29.2907  -23.7828   20.2073 C   0  0  1  0  0  0
  -29.6766  -21.1645   20.1413 N   0  0  0  0  0  0
  -29.7490  -15.7585   20.9594 N   0  0  0  0  0  0
  -30.2225  -18.3781   19.7648 S   0  0  0  0  0  0
  -31.4882  -12.6162   19.1594 H   0  0  0  0  0  0
  -30.4221  -11.4715   19.9240 H   0  0  0  0  0  0
  -29.7988  -11.7628   17.5082 H   0  0  0  0  0  0
  -29.6369  -13.4860   17.7344 H   0  0  0  0  0  0
  -27.8988  -11.2883   18.8978 H   0  0  0  0  0  0
  -27.3834  -12.5454   17.8051 H   0  0  0  0  0  0
  -27.6616  -14.2533   19.5107 H   0  0  0  0  0  0
  -28.7372  -12.0827   21.3784 H   0  0  0  0  0  0
  -28.4218  -13.7250   21.8499 H   0  0  0  0  0  0
  -25.2768   -9.5679   22.4765 H   0  0  0  0  0  0
  -24.0005   -7.4630   22.7473 H   0  0  0  0  0  0
  -21.0848   -8.8781   19.8951 H   0  0  0  0  0  0
  -22.3710  -10.9678   19.6170 H   0  0  0  0  0  0
  -21.2004   -7.6150   23.9721 H   0  0  0  0  0  0
  -21.1478   -6.0523   25.9080 H   0  0  0  0  0  0
  -22.0598   -2.7611   23.2847 H   0  0  0  0  0  0
  -22.4111  -11.9880   22.4800 H   0  0  0  0  0  0
  -21.1111  -13.1246   22.2623 H   0  0  0  0  0  0
  -24.6487  -15.8371   20.5016 H   0  0  0  0  0  0
  -26.2642  -15.6292   20.0553 H   0  0  0  0  0  0
  -26.7205  -32.5395   23.1061 H   0  0  0  0  0  0
  -25.0096  -33.9697   25.0398 H   0  0  0  0  0  0
  -22.7267  -31.3006   21.3943 H   0  0  0  0  0  0
  -23.3751  -35.9612   23.3325 H   0  0  0  0  0  0
  -24.3574  -36.8875   22.2051 H   0  0  0  0  0  0
  -23.7249  -37.6485   23.6655 H   0  0  0  0  0  0
  -26.1191  -31.5250   20.6097 H   0  0  0  0  0  0
  -26.8537  -30.8121   22.0140 H   0  0  0  0  0  0
  -28.1250  -28.9175   21.2001 H   0  0  0  0  0  0
  -25.9327  -25.9107   18.9918 H   0  0  0  0  0  0
  -23.9705  -27.3107   19.0030 H   0  0  0  0  0  0
  -23.7770  -30.5888   19.4029 H   0  0  0  0  0  0
  -22.7663  -29.2482   19.8514 H   0  0  0  0  0  0
  -25.1303  -36.1909   25.0818 H   0  0  0  0  0  0
  -20.9997  -28.3281   24.1384 H   0  0  0  0  0  0
  -20.5686  -26.2316   23.3612 H   0  0  0  0  0  0
  -21.6649  -26.7443   22.1196 H   0  0  0  0  0  0
  -19.6923  -25.6295   21.1248 H   0  0  0  0  0  0
  -19.6695  -27.3194   20.6745 H   0  0  0  0  0  0
  -17.4206  -26.6682   21.4032 H   0  0  0  0  0  0
  -18.0339  -26.0077   22.9023 H   0  0  0  0  0  0
  -19.7947  -30.7283   24.2256 H   0  0  0  0  0  0
  -17.5027  -31.6275   24.5164 H   0  0  0  0  0  0
  -15.5363  -30.2994   23.7670 H   0  0  0  0  0  0
  -15.8679  -28.0832   22.7075 H   0  0  0  0  0  0
  -24.5902  -30.7091   25.7773 H   0  0  0  0  0  0
  -24.8914  -32.2924   26.4840 H   0  0  0  0  0  0
  -25.8034  -30.8946   27.0232 H   0  0  0  0  0  0
  -26.2938  -29.6750   24.1221 H   0  0  0  0  0  0
  -27.4006  -29.7259   25.4740 H   0  0  0  0  0  0
  -27.8826  -30.4270   23.9478 H   0  0  0  0  0  0
  -27.2645  -33.3643   26.2051 H   0  0  0  0  0  0
  -28.3871  -32.6889   25.0339 H   0  0  0  0  0  0
  -28.0702  -31.8482   26.5437 H   0  0  0  0  0  0
  -28.2611  -38.0079   24.7480 H   0  0  0  0  0  0
  -28.1045  -36.2604   24.6347 H   0  0  0  0  0  0
  -27.2286  -37.1505   25.8878 H   0  0  0  0  0  0
  -20.9402  -29.8776   21.6856 H   0  0  0  0  0  0
  -26.0170  -38.2837   24.1390 H   0  0  0  0  0  0
  -28.5990  -19.9613   22.5633 H   0  0  0  0  0  0
  -28.2076  -22.1118   21.2962 H   0  0  0  0  0  0
  -26.8385  -16.3979   24.1322 H   0  0  0  0  0  0
  -27.0696  -16.0405   22.4266 H   0  0  0  0  0  0
  -26.5216  -17.6401   22.9249 H   0  0  0  0  0  0
  -30.9549  -23.3122   18.8636 H   0  0  0  0  0  0
  -30.3129  -24.9343   18.6625 H   0  0  0  0  0  0
  -29.4157  -23.5527   18.0390 H   0  0  0  0  0  0
  -28.7212  -17.9917   24.1122 H   0  0  0  0  0  0
  -29.2684  -16.4363   23.5834 H   0  0  0  0  0  0
  -27.4936  -24.6848   21.1376 H   0  0  0  0  0  0
  -27.4333  -24.5684   19.4078 H   0  0  0  0  0  0
  -29.9836  -24.1213   20.9779 H   0  0  0  0  0  0
  -28.9269  -15.3557   21.3815 H   0  0  0  0  0  0
  1 25  1  0  0  0
  1 30  2  0  0  0
  1 82  1  0  0  0
  2  3  1  0  0  0
  2 25  1  0  0  0
  2 84  1  0  0  0
  2 85  1  0  0  0
  3  4  1  0  0  0
  3 86  1  0  0  0
  3 87  1  0  0  0
  4  5  1  0  0  0
  4 88  1  0  0  0
  4 89  1  0  0  0
  5  6  1  0  0  0
  5 26  1  0  0  0
  5 90  1  0  0  0
  6 25  1  0  0  0
  6 91  1  0  0  0
  6 92  1  0  0  0
  7  8  2  0  0  0
  7 26  1  0  0  0
  7 29  1  0  0  0
  8  9  1  0  0  0
  8 22  1  0  0  0
  9 10  1  0  0  0
  9 27  2  0  0  0
 10 11  2  0  0  0
 10 15  1  0  0  0
 11 12  1  0  0  0
 11 93  1  0  0  0
 12 13  2  0  0  0
 12 94  1  0  0  0
 13 14  1  0  0  0
 13 31  1  0  0  0
 14 15  2  0  0  0
 14 95  1  0  0  0
 15 96  1  0  0  0
 16 17  2  0  0  0
 16 21  1  0  0  0
 16 31  1  0  0  0
 17 18  1  0  0  0
 17 97  1  0  0  0
 18 19  2  0  0  0
 18 98  1  0  0  0
 19 20  1  0  0  0
 19 24  1  0  0  0
 20 21  2  0  0  0
 20 99  1  0  0  0
 21 23  1  0  0  0
 22 28  1  0  0  0
 22 32  2  0  0  0
 26 27  1  0  0  0
 28100  1  0  0  0
 28101  1  0  0  0
 29102  1  0  0  0
 29103  1  0  0  0
 33 34  1  0  0  0
 33 66  1  0  0  0
 33 70  2  0  0  0
 34 36  1  0  0  0
 34 59  1  0  0  0
 34104  1  0  0  0
 35 44  2  0  0  0
 35 45  1  0  0  0
 35 68  1  0  0  0
 36 56  1  0  0  0
 36105  1  0  0  0
 37 39  1  0  0  0
 37 47  1  0  0  0
 37 66  1  0  0  0
 37106  1  0  0  0
 38 43  2  0  0  0
 38 46  1  0  0  0
 38 47  1  0  0  0
 39 64  1  0  0  0
 39 67  2  0  0  0
 40 52  1  0  0  0
 40 53  2  0  0  0
 40 58  1  0  0  0
 41107  1  0  0  0
 41108  1  0  0  0
 41109  1  0  0  0
 41 48  1  0  0  0
 42 43  1  0  0  0
 42 66  1  0  0  0
 42110  1  0  0  0
 42111  1  0  0  0
 43 44  1  0  0  0
 44112  1  0  0  0
 45 46  2  0  0  0
 45113  1  0  0  0
 46114  1  0  0  0
 47115  1  0  0  0
 47116  1  0  0  0
 48 56  1  0  0  0
 48 65  1  0  0  0
 48117  1  0  0  0
 49 50  1  0  0  0
 49 53  1  0  0  0
 49 64  1  0  0  0
 49118  1  0  0  0
 50 51  1  0  0  0
 50119  1  0  0  0
 50120  1  0  0  0
 51 52  1  0  0  0
 51121  1  0  0  0
 51122  1  0  0  0
 52123  1  0  0  0
 52124  1  0  0  0
 53 54  1  0  0  0
 54 55  2  0  0  0
 54125  1  0  0  0
 55 57  1  0  0  0
 55126  1  0  0  0
 56 69  2  0  0  0
 57 58  2  0  0  0
 57127  1  0  0  0
 58128  1  0  0  0
 59 60  1  0  0  0
 59 61  1  0  0  0
 59 62  1  0  0  0
 60129  1  0  0  0
 60130  1  0  0  0
 60131  1  0  0  0
 61132  1  0  0  0
 61133  1  0  0  0
 61134  1  0  0  0
 62135  1  0  0  0
 62136  1  0  0  0
 62137  1  0  0  0
 63 65  1  0  0  0
 63138  1  0  0  0
 63139  1  0  0  0
 63140  1  0  0  0
 64141  1  0  0  0
 65142  1  0  0  0
 68 79  1  0  0  0
 71 72  1  0  0  0
 71 73  2  0  0  0
 71143  1  0  0  0
 72 74  2  0  0  0
 72 78  1  0  0  0
 73 81  1  0  0  0
 73 83  1  0  0  0
 74 82  1  0  0  0
 74 83  1  0  0  0
 75 80  1  0  0  0
 75 81  2  0  0  0
 75144  1  0  0  0
 76 78  1  0  0  0
 76145  1  0  0  0
 76146  1  0  0  0
 76147  1  0  0  0
 77148  1  0  0  0
 77149  1  0  0  0
 77150  1  0  0  0
 77 80  1  0  0  0
 78151  1  0  0  0
 78152  1  0  0  0
 79 80  1  0  0  0
 79153  1  0  0  0
 79154  1  0  0  0
 80155  1  0  0  0
 82156  1  0  0  0
M  ISO  4   1 100  68 101  79 101  82 100
M  END
> <chiral flag>
0

> <version>
0

> <s_m_source_file>
/data/baiqing/PycharmProjects/Reinvent-master-3.2/result/LINK_invent/BTK/process_docking_weight1_custom_product_contain_oxygen_bond_distance_aromatic_linkinvent_7_9_3/rearranged_h_0161.sdf

> <i_m_source_file_index>
90

> <r_mmod_Potential_Energy-OPLS-2005>
162.862106323242

> <r_mmod_Stretch_Energy-OPLS-2005>
123.312896728516

> <r_mmod_Bend_Energy-OPLS-2005>
195.178436279297

> <r_mmod_Torsional_Energy-OPLS-2005>
220.682723999023

> <r_mmod_Improper_Torsional_Energy-OPLS-2005>
3.4468514919281

> <r_mmod_Van_der_Waal_Energy-OPLS-2005>
113.649627685547

> <r_mmod_Electrostatic_Energy-OPLS-2005>
-362.654235839844

> <r_mmod_Solvation_Energy-OPLS-2005>
-217.027938842773

> <b_mmod_Minimization_Converged-OPLS-2005>
0

> <r_mmod_RMS_Derivative-OPLS-2005>
0.52123636007309

$$$$
90
                    3D
 Structure written by MMmdl.
152160  0  0  1  0            999 V2000
  -30.7483  -14.4529   20.5461 C   0  0  0  0  0  0
  -30.4023  -12.2941   19.4233 C   0  0  0  0  0  0
  -29.4776  -12.4910   18.2071 C   0  0  0  0  0  0
  -28.0043  -12.3572   18.6331 C   0  0  0  0  0  0
  -27.6558  -13.2186   19.8771 C   0  0  2  0  0  0
  -28.7057  -13.0360   20.9987 C   0  0  0  0  0  0
  -25.2498  -13.8139   20.5662 C   0  0  0  0  0  0
  -24.1798  -13.0399   20.9133 C   0  0  0  0  0  0
  -24.6389  -11.6878   20.8766 C   0  0  0  0  0  0
  -23.9070  -10.4254   21.0438 C   0  0  0  0  0  0
  -24.3597   -9.4179   21.9247 C   0  0  0  0  0  0
  -23.6276   -8.2211   22.0794 C   0  0  0  0  0  0
  -22.4276   -8.0249   21.3537 C   0  0  0  0  0  0
  -21.9924   -9.0228   20.4646 C   0  0  0  0  0  0
  -22.7252  -10.2109   20.3072 C   0  0  0  0  0  0
  -21.6846   -6.0737   22.5291 C   0  0  0  0  0  0
  -21.3992   -6.5635   23.8215 C   0  0  0  0  0  0
  -21.3665   -5.6794   24.9183 C   0  0  0  0  0  0
  -21.6042   -4.3065   24.7235 C   0  0  0  0  0  0
  -21.8820   -3.8151   23.4357 C   0  0  0  0  0  0
  -21.9182   -4.6961   22.3406 C   0  0  0  0  0  0
  -22.7799  -13.5185   21.1802 C   0  0  0  0  0  0
  -22.1659   -4.2149   21.0992 F   0  0  0  0  0  0
  -21.5635   -3.4540   25.7752 F   0  0  0  0  0  0
  -30.0310  -13.3056   20.4252 N   0  0  0  0  0  0
  -26.3014  -12.9379   20.3477 N   0  0  0  0  0  0
  -25.9346  -11.6507   20.5889 N   0  0  0  0  0  0
  -22.0438  -12.8168   22.0333 N   0  0  0  0  0  0
  -25.4076  -15.1847   20.3938 N   0  0  0  0  0  0
  -31.8901  -14.5683   20.1022 O   0  0  0  0  0  0
  -21.6624   -6.8869   21.4243 O   0  0  0  0  0  0
  -22.3485  -14.5500   20.6660 O   0  0  0  0  0  0
  -24.6208  -31.8671   23.2125 C   0  0  0  0  0  0
  -25.9099  -32.4818   23.8401 C   0  0  1  0  0  0
  -27.2068  -27.3902   20.0798 C   0  0  0  0  0  0
  -25.5951  -33.8615   24.2339 N   0  0  0  0  0  0
  -23.4051  -30.4997   21.5558 C   0  0  2  0  0  0
  -24.8439  -28.9757   20.1099 C   0  0  0  0  0  0
  -22.7421  -29.4678   22.4983 C   0  0  0  0  0  0
  -18.0281  -28.1368   22.8502 C   0  0  0  0  0  0
  -24.1498  -36.7312   23.2631 C   0  0  0  0  0  0
  -25.9427  -30.8194   21.3710 C   0  0  0  0  0  0
  -26.0129  -29.4534   20.7154 C   0  0  0  0  0  0
  -27.1979  -28.6688   20.7033 C   0  0  0  0  0  0
  -26.0124  -26.9674   19.4392 C   0  0  0  0  0  0
  -24.8399  -27.7319   19.4715 C   0  0  0  0  0  0
  -23.6118  -29.8496   20.1659 C   0  0  0  0  0  0
  -25.4114  -36.3105   24.0339 C   0  0  1  0  0  0
  -20.5874  -28.3668   23.1306 C   0  0  2  0  0  0
  -20.6770  -26.9408   22.5401 C   0  0  0  0  0  0
  -19.5744  -26.6396   21.5197 C   0  0  0  0  0  0
  -18.1926  -26.7915   22.1624 C   0  0  0  0  0  0
  -19.1531  -28.8832   23.2901 C   0  0  0  0  0  0
  -18.9458  -30.1434   23.8918 C   0  0  0  0  0  0
  -17.6456  -30.6576   24.0568 C   0  0  0  0  0  0
  -25.9047  -34.9475   23.5127 C   0  0  0  0  0  0
  -16.5347  -29.9085   23.6319 C   0  0  0  0  0  0
  -16.7265  -28.6495   23.0347 C   0  0  0  0  0  0
  -26.4506  -31.6562   25.0707 C   0  0  0  0  0  0
  -25.3775  -31.3667   26.1454 C   0  0  0  0  0  0
  -27.0304  -30.2997   24.6055 C   0  0  0  0  0  0
  -27.6088  -32.4244   25.7490 C   0  0  0  0  0  0
  -27.5576  -37.1816   24.8471 C   0  0  0  0  0  0
  -21.4146  -29.3038   22.3714 N   0  0  0  0  0  0
  -26.4291  -37.3789   23.9418 N   0  0  0  0  0  0
  -24.6753  -31.0755   22.1045 N   0  0  0  0  0  0
  -23.4191  -28.8188   23.2997 O   0  0  0  0  0  0
  -28.3351  -26.5736   20.1121 O   0  0  0  0  0  0
  -26.5580  -34.8929   22.4671 O   0  0  0  0  0  0
  -23.5393  -32.1448   23.7505 O   0  0  0  0  0  0
  -29.7155  -18.0212   20.9670 C   0  0  0  0  0  0
  -28.3464  -18.0049   21.1593 C   0  0  0  0  0  0
  -29.2408  -20.2382   20.6177 C   0  0  0  0  0  0
  -29.0581  -24.1224   20.1988 C   0  0  0  0  0  0
  -30.7049  -16.8757   21.0194 C   0  0  0  0  0  0
  -28.5210  -22.6787   20.0581 C   0  0  0  0  0  0
  -28.1025  -25.2090   19.6693 C   0  0  0  0  0  0
  -30.2032  -19.3137   20.6894 N   0  0  0  0  0  0
  -27.5210  -16.9561   21.5580 N   0  0  0  0  0  0
  -29.4574  -21.5936   20.3735 N   0  0  0  0  0  0
  -30.1115  -15.5304   21.0254 N   0  0  0  0  0  0
  -30.1675  -24.3655   20.6883 O   0  0  0  0  0  0
  -27.6332  -19.5742   20.8745 S   0  0  0  0  0  0
  -31.4468  -12.3560   19.1124 H   0  0  0  0  0  0
  -30.2806  -11.2955   19.8433 H   0  0  0  0  0  0
  -29.7085  -11.7599   17.4306 H   0  0  0  0  0  0
  -29.6470  -13.4746   17.7651 H   0  0  0  0  0  0
  -27.8255  -11.3041   18.8510 H   0  0  0  0  0  0
  -27.3430  -12.6153   17.8057 H   0  0  0  0  0  0
  -27.6876  -14.2609   19.5561 H   0  0  0  0  0  0
  -28.6796  -12.0183   21.3901 H   0  0  0  0  0  0
  -28.4909  -13.6893   21.8454 H   0  0  0  0  0  0
  -25.2706   -9.5677   22.4895 H   0  0  0  0  0  0
  -23.9978   -7.4607   22.7523 H   0  0  0  0  0  0
  -21.0874   -8.8740   19.8931 H   0  0  0  0  0  0
  -22.3716  -10.9658   19.6191 H   0  0  0  0  0  0
  -21.1961   -7.6139   23.9716 H   0  0  0  0  0  0
  -21.1491   -6.0525   25.9088 H   0  0  0  0  0  0
  -22.0584   -2.7606   23.2854 H   0  0  0  0  0  0
  -21.1062  -13.1210   22.2560 H   0  0  0  0  0  0
  -22.4011  -11.9750   22.4619 H   0  0  0  0  0  0
  -24.6278  -15.8270   20.4646 H   0  0  0  0  0  0
  -26.3091  -15.6577   20.3508 H   0  0  0  0  0  0
  -26.7162  -32.5516   23.1156 H   0  0  0  0  0  0
  -25.0153  -33.9765   25.0518 H   0  0  0  0  0  0
  -22.6961  -31.3200   21.4263 H   0  0  0  0  0  0
  -23.3742  -35.9656   23.3298 H   0  0  0  0  0  0
  -24.3595  -36.8903   22.2038 H   0  0  0  0  0  0
  -23.7264  -37.6535   23.6623 H   0  0  0  0  0  0
  -26.0535  -31.5818   20.5975 H   0  0  0  0  0  0
  -26.8322  -30.8751   21.9855 H   0  0  0  0  0  0
  -28.0946  -29.0284   21.1870 H   0  0  0  0  0  0
  -25.9322  -26.0379   18.8955 H   0  0  0  0  0  0
  -23.9470  -27.3633   18.9848 H   0  0  0  0  0  0
  -23.7271  -30.6321   19.4149 H   0  0  0  0  0  0
  -22.7321  -29.2799   19.8623 H   0  0  0  0  0  0
  -25.1287  -36.1962   25.0824 H   0  0  0  0  0  0
  -20.9979  -28.3219   24.1417 H   0  0  0  0  0  0
  -20.5668  -26.2272   23.3578 H   0  0  0  0  0  0
  -21.6642  -26.7436   22.1197 H   0  0  0  0  0  0
  -19.6904  -25.6316   21.1195 H   0  0  0  0  0  0
  -19.6672  -27.3230   20.6745 H   0  0  0  0  0  0
  -17.4191  -26.6663   21.4027 H   0  0  0  0  0  0
  -18.0346  -26.0037   22.9010 H   0  0  0  0  0  0
  -19.7927  -30.7248   24.2298 H   0  0  0  0  0  0
  -17.5009  -31.6261   24.5164 H   0  0  0  0  0  0
  -15.5347  -30.3000   23.7620 H   0  0  0  0  0  0
  -15.8663  -28.0823   22.7053 H   0  0  0  0  0  0
  -24.5999  -30.6944   25.7813 H   0  0  0  0  0  0
  -24.8919  -32.2816   26.4859 H   0  0  0  0  0  0
  -25.8159  -30.8898   27.0234 H   0  0  0  0  0  0
  -26.2838  -29.6806   24.1070 H   0  0  0  0  0  0
  -27.4031  -29.7175   25.4493 H   0  0  0  0  0  0
  -27.8704  -30.4300   23.9227 H   0  0  0  0  0  0
  -27.2730  -33.3554   26.2080 H   0  0  0  0  0  0
  -28.3927  -32.6770   25.0330 H   0  0  0  0  0  0
  -28.0722  -31.8334   26.5403 H   0  0  0  0  0  0
  -28.2612  -38.0094   24.7494 H   0  0  0  0  0  0
  -28.1053  -36.2626   24.6329 H   0  0  0  0  0  0
  -27.2290  -37.1506   25.8872 H   0  0  0  0  0  0
  -20.9296  -29.8816   21.6999 H   0  0  0  0  0  0
  -26.0175  -38.2867   24.1403 H   0  0  0  0  0  0
  -31.3616  -16.9708   21.8816 H   0  0  0  0  0  0
  -31.3670  -16.9679   20.1566 H   0  0  0  0  0  0
  -28.1689  -22.5413   19.0347 H   0  0  0  0  0  0
  -27.6383  -22.5858   20.6926 H   0  0  0  0  0  0
  -27.1304  -24.8580   20.0167 H   0  0  0  0  0  0
  -28.1040  -25.1719   18.5794 H   0  0  0  0  0  0
  -27.8193  -16.5158   22.4224 H   0  0  0  0  0  0
  -26.5501  -17.2345   21.6790 H   0  0  0  0  0  0
  -30.4285  -21.8785   20.3179 H   0  0  0  0  0  0
  -29.1290  -15.4673   21.2617 H   0  0  0  0  0  0
  1 25  1  0  0  0
  1 30  2  0  0  0
  1 81  1  0  0  0
  2  3  1  0  0  0
  2 25  1  0  0  0
  2 84  1  0  0  0
  2 85  1  0  0  0
  3  4  1  0  0  0
  3 86  1  0  0  0
  3 87  1  0  0  0
  4  5  1  0  0  0
  4 88  1  0  0  0
  4 89  1  0  0  0
  5  6  1  0  0  0
  5 26  1  0  0  0
  5 90  1  0  0  0
  6 25  1  0  0  0
  6 91  1  0  0  0
  6 92  1  0  0  0
  7  8  2  0  0  0
  7 26  1  0  0  0
  7 29  1  0  0  0
  8  9  1  0  0  0
  8 22  1  0  0  0
  9 10  1  0  0  0
  9 27  2  0  0  0
 10 11  2  0  0  0
 10 15  1  0  0  0
 11 12  1  0  0  0
 11 93  1  0  0  0
 12 13  2  0  0  0
 12 94  1  0  0  0
 13 14  1  0  0  0
 13 31  1  0  0  0
 14 15  2  0  0  0
 14 95  1  0  0  0
 15 96  1  0  0  0
 16 17  2  0  0  0
 16 21  1  0  0  0
 16 31  1  0  0  0
 17 18  1  0  0  0
 17 97  1  0  0  0
 18 19  2  0  0  0
 18 98  1  0  0  0
 19 20  1  0  0  0
 19 24  1  0  0  0
 20 21  2  0  0  0
 20 99  1  0  0  0
 21 23  1  0  0  0
 22 28  1  0  0  0
 22 32  2  0  0  0
 26 27  1  0  0  0
 28100  1  0  0  0
 28101  1  0  0  0
 29102  1  0  0  0
 29103  1  0  0  0
 33 34  1  0  0  0
 33 66  1  0  0  0
 33 70  2  0  0  0
 34 36  1  0  0  0
 34 59  1  0  0  0
 34104  1  0  0  0
 35 44  2  0  0  0
 35 45  1  0  0  0
 35 68  1  0  0  0
 36 56  1  0  0  0
 36105  1  0  0  0
 37 39  1  0  0  0
 37 47  1  0  0  0
 37 66  1  0  0  0
 37106  1  0  0  0
 38 43  2  0  0  0
 38 46  1  0  0  0
 38 47  1  0  0  0
 39 64  1  0  0  0
 39 67  2  0  0  0
 40 52  1  0  0  0
 40 53  2  0  0  0
 40 58  1  0  0  0
 41107  1  0  0  0
 41108  1  0  0  0
 41109  1  0  0  0
 41 48  1  0  0  0
 42 43  1  0  0  0
 42 66  1  0  0  0
 42110  1  0  0  0
 42111  1  0  0  0
 43 44  1  0  0  0
 44112  1  0  0  0
 45 46  2  0  0  0
 45113  1  0  0  0
 46114  1  0  0  0
 47115  1  0  0  0
 47116  1  0  0  0
 48 56  1  0  0  0
 48 65  1  0  0  0
 48117  1  0  0  0
 49 50  1  0  0  0
 49 53  1  0  0  0
 49 64  1  0  0  0
 49118  1  0  0  0
 50 51  1  0  0  0
 50119  1  0  0  0
 50120  1  0  0  0
 51 52  1  0  0  0
 51121  1  0  0  0
 51122  1  0  0  0
 52123  1  0  0  0
 52124  1  0  0  0
 53 54  1  0  0  0
 54 55  2  0  0  0
 54125  1  0  0  0
 55 57  1  0  0  0
 55126  1  0  0  0
 56 69  2  0  0  0
 57 58  2  0  0  0
 57127  1  0  0  0
 58128  1  0  0  0
 59 60  1  0  0  0
 59 61  1  0  0  0
 59 62  1  0  0  0
 60129  1  0  0  0
 60130  1  0  0  0
 60131  1  0  0  0
 61132  1  0  0  0
 61133  1  0  0  0
 61134  1  0  0  0
 62135  1  0  0  0
 62136  1  0  0  0
 62137  1  0  0  0
 63 65  1  0  0  0
 63138  1  0  0  0
 63139  1  0  0  0
 63140  1  0  0  0
 64141  1  0  0  0
 65142  1  0  0  0
 68 77  1  0  0  0
 71 72  2  0  0  0
 71 75  1  0  0  0
 71 78  1  0  0  0
 72 79  1  0  0  0
 72 83  1  0  0  0
 73 78  2  0  0  0
 73 80  1  0  0  0
 73 83  1  0  0  0
 74 76  1  0  0  0
 74 77  1  0  0  0
 74 82  2  0  0  0
 75 81  1  0  0  0
 75143  1  0  0  0
 75144  1  0  0  0
 76 80  1  0  0  0
 76145  1  0  0  0
 76146  1  0  0  0
 77147  1  0  0  0
 77148  1  0  0  0
 79149  1  0  0  0
 79150  1  0  0  0
 80151  1  0  0  0
 81152  1  0  0  0
M  ISO  4   1 100  68 101  77 101  81 100
M  END
> <chiral flag>
0

> <version>
0

> <s_m_source_file>
/data/baiqing/PycharmProjects/Reinvent-master-3.2/result/LINK_invent/BTK/process_docking_weight1_custom_product_contain_oxygen_bond_distance_aromatic_linkinvent_7_9_3/rearranged_h_0161.sdf

> <i_m_source_file_index>
91

> <r_mmod_Potential_Energy-OPLS-2005>
-129.120803833008

> <r_mmod_Stretch_Energy-OPLS-2005>
38.8469085693359

> <r_mmod_Bend_Energy-OPLS-2005>
103.16869354248

> <r_mmod_Torsional_Energy-OPLS-2005>
192.373489379883

> <r_mmod_Improper_Torsional_Energy-OPLS-2005>
9.89162731170654

> <r_mmod_Van_der_Waal_Energy-OPLS-2005>
144.989212036133

> <r_mmod_Electrostatic_Energy-OPLS-2005>
-394.239715576172

> <r_mmod_Solvation_Energy-OPLS-2005>
-246.390090942383

> <b_mmod_Minimization_Converged-OPLS-2005>
0

> <r_mmod_RMS_Derivative-OPLS-2005>
4.24690198898315

$$$$
91
                    3D
 Structure written by MMmdl.
154162  0  0  1  0            999 V2000
  -30.6722  -14.7412   20.4313 C   0  0  0  0  0  0
  -30.4383  -12.4414   19.4719 C   0  0  0  0  0  0
  -29.5188  -12.5224   18.2334 C   0  0  0  0  0  0
  -28.0407  -12.3558   18.6430 C   0  0  0  0  0  0
  -27.6540  -13.2386   19.8606 C   0  0  2  0  0  0
  -28.7122  -13.1888   20.9905 C   0  0  0  0  0  0
  -25.2561  -13.8170   20.5694 C   0  0  0  0  0  0
  -24.1908  -13.0423   20.9263 C   0  0  0  0  0  0
  -24.6491  -11.6895   20.8808 C   0  0  0  0  0  0
  -23.9165  -10.4306   21.0411 C   0  0  0  0  0  0
  -24.3701   -9.4209   21.9182 C   0  0  0  0  0  0
  -23.6320   -8.2279   22.0777 C   0  0  0  0  0  0
  -22.4322   -8.0302   21.3509 C   0  0  0  0  0  0
  -21.9970   -9.0311   20.4634 C   0  0  0  0  0  0
  -22.7351  -10.2143   20.3027 C   0  0  0  0  0  0
  -21.6864   -6.0768   22.5305 C   0  0  0  0  0  0
  -21.4054   -6.5669   23.8233 C   0  0  0  0  0  0
  -21.3657   -5.6788   24.9168 C   0  0  0  0  0  0
  -21.6050   -4.3056   24.7195 C   0  0  0  0  0  0
  -21.8811   -3.8151   23.4325 C   0  0  0  0  0  0
  -21.9210   -4.7006   22.3431 C   0  0  0  0  0  0
  -22.7910  -13.5210   21.1842 C   0  0  0  0  0  0
  -22.1640   -4.2186   21.0970 F   0  0  0  0  0  0
  -21.5625   -3.4535   25.7714 F   0  0  0  0  0  0
  -30.0226  -13.5193   20.3995 N   0  0  0  0  0  0
  -26.3056  -12.9420   20.3394 N   0  0  0  0  0  0
  -25.9436  -11.6536   20.5828 N   0  0  0  0  0  0
  -22.0512  -12.8195   22.0323 N   0  0  0  0  0  0
  -25.4160  -15.1917   20.3948 N   0  0  0  0  0  0
  -31.8441  -14.8242   20.0633 O   0  0  0  0  0  0
  -21.6641   -6.8908   21.4242 O   0  0  0  0  0  0
  -22.3640  -14.5521   20.6635 O   0  0  0  0  0  0
  -24.6309  -31.8490   23.1885 C   0  0  0  0  0  0
  -25.9117  -32.4721   23.8266 C   0  0  1  0  0  0
  -27.2696  -27.2780   20.1176 C   0  0  0  0  0  0
  -25.5945  -33.8533   24.2201 N   0  0  0  0  0  0
  -23.4287  -30.4630   21.5320 C   0  0  2  0  0  0
  -24.8853  -28.8943   20.1068 C   0  0  0  0  0  0
  -22.7495  -29.4549   22.4919 C   0  0  0  0  0  0
  -18.0320  -28.1331   22.8493 C   0  0  0  0  0  0
  -24.1514  -36.7289   23.2631 C   0  0  0  0  0  0
  -25.9690  -30.7682   21.3633 C   0  0  0  0  0  0
  -26.0496  -29.3855   20.7098 C   0  0  0  0  0  0
  -27.2339  -28.5850   20.7059 C   0  0  0  0  0  0
  -26.0844  -26.8400   19.4886 C   0  0  0  0  0  0
  -24.9091  -27.6293   19.4848 C   0  0  0  0  0  0
  -23.6420  -29.7671   20.1586 C   0  0  0  0  0  0
  -25.4134  -36.3060   24.0315 C   0  0  1  0  0  0
  -20.5900  -28.3662   23.1305 C   0  0  2  0  0  0
  -20.6788  -26.9383   22.5418 C   0  0  0  0  0  0
  -19.5770  -26.6356   21.5232 C   0  0  0  0  0  0
  -18.1954  -26.7891   22.1623 C   0  0  0  0  0  0
  -19.1555  -28.8834   23.2872 C   0  0  0  0  0  0
  -18.9453  -30.1434   23.8882 C   0  0  0  0  0  0
  -17.6452  -30.6544   24.0550 C   0  0  0  0  0  0
  -25.9062  -34.9433   23.5060 C   0  0  0  0  0  0
  -16.5349  -29.9026   23.6325 C   0  0  0  0  0  0
  -16.7287  -28.6422   23.0360 C   0  0  0  0  0  0
  -26.4492  -31.6558   25.0666 C   0  0  0  0  0  0
  -25.3708  -31.3681   26.1380 C   0  0  0  0  0  0
  -27.0312  -30.2965   24.6136 C   0  0  0  0  0  0
  -27.6035  -32.4292   25.7455 C   0  0  0  0  0  0
  -27.5589  -37.1777   24.8432 C   0  0  0  0  0  0
  -21.4197  -29.3024   22.3707 N   0  0  0  0  0  0
  -26.4286  -37.3767   23.9398 N   0  0  0  0  0  0
  -24.6946  -31.0475   22.0840 N   0  0  0  0  0  0
  -23.4205  -28.8135   23.3036 O   0  0  0  0  0  0
  -28.4265  -26.4713   20.2322 O   0  0  0  0  0  0
  -26.5642  -34.8905   22.4635 O   0  0  0  0  0  0
  -23.5457  -32.1360   23.7166 O   0  0  0  0  0  0
  -29.7403  -19.9233   20.5414 C   0  0  0  0  0  0
  -30.9754  -19.4666   20.0736 C   0  0  0  0  0  0
  -30.0766  -17.3322   20.5320 C   0  0  0  0  0  0
  -29.1533  -21.2898   20.8798 C   0  0  0  0  0  0
  -28.6221  -23.8372   20.5477 C   0  0  0  0  0  0
  -32.1480  -20.3189   19.6468 C   0  0  0  0  0  0
  -30.1577  -25.3566   19.0920 C   0  0  0  0  0  0
  -28.7119  -25.1363   19.6001 C   0  0  2  0  0  0
  -31.1430  -18.0331   20.0801 N   0  0  0  0  0  0
  -29.9257  -15.8655   20.7275 N   0  0  0  0  0  0
  -29.2304  -22.4999   20.1575 N   0  0  0  0  0  0
  -28.4525  -21.2807   22.0390 N   0  3  0  0  0  0
  -28.0112  -23.9346   21.6230 O   0  0  0  0  0  0
  -28.7673  -18.4758   20.9338 S   0  0  0  0  0  0
  -31.4876  -12.5242   19.1757 H   0  0  0  0  0  0
  -30.3376  -11.4678   19.9572 H   0  0  0  0  0  0
  -29.7902  -11.7566   17.5048 H   0  0  0  0  0  0
  -29.6626  -13.4804   17.7299 H   0  0  0  0  0  0
  -27.8719  -11.3056   18.8850 H   0  0  0  0  0  0
  -27.3953  -12.5849   17.7949 H   0  0  0  0  0  0
  -27.6355  -14.2637   19.4891 H   0  0  0  0  0  0
  -28.7422  -12.2055   21.4670 H   0  0  0  0  0  0
  -28.4631  -13.8935   21.7862 H   0  0  0  0  0  0
  -25.2855   -9.5673   22.4736 H   0  0  0  0  0  0
  -24.0056   -7.4645   22.7461 H   0  0  0  0  0  0
  -21.0938   -8.8821   19.8918 H   0  0  0  0  0  0
  -22.3863  -10.9657   19.6125 H   0  0  0  0  0  0
  -21.2056   -7.6181   23.9758 H   0  0  0  0  0  0
  -21.1495   -6.0493   25.9037 H   0  0  0  0  0  0
  -22.0608   -2.7614   23.2800 H   0  0  0  0  0  0
  -22.4131  -11.9885   22.4797 H   0  0  0  0  0  0
  -21.1105  -13.1197   22.2420 H   0  0  0  0  0  0
  -24.6173  -15.8184   20.4368 H   0  0  0  0  0  0
  -26.1967  -15.5886   19.8924 H   0  0  0  0  0  0
  -26.7179  -32.5339   23.0992 H   0  0  0  0  0  0
  -25.0086  -33.9669   25.0352 H   0  0  0  0  0  0
  -22.7259  -31.2801   21.3717 H   0  0  0  0  0  0
  -23.3775  -35.9619   23.3267 H   0  0  0  0  0  0
  -24.3613  -36.8964   22.2054 H   0  0  0  0  0  0
  -23.7285  -37.6490   23.6682 H   0  0  0  0  0  0
  -26.1005  -31.5258   20.5901 H   0  0  0  0  0  0
  -26.8472  -30.8276   21.9916 H   0  0  0  0  0  0
  -28.1255  -28.9608   21.1886 H   0  0  0  0  0  0
  -26.0424  -25.8668   19.0277 H   0  0  0  0  0  0
  -24.0156  -27.2439   19.0104 H   0  0  0  0  0  0
  -23.7344  -30.5246   19.3800 H   0  0  0  0  0  0
  -22.7701  -29.1714   19.8754 H   0  0  0  0  0  0
  -25.1329  -36.1885   25.0803 H   0  0  0  0  0  0
  -21.0003  -28.3237   24.1415 H   0  0  0  0  0  0
  -20.5734  -26.2274   23.3613 H   0  0  0  0  0  0
  -21.6665  -26.7383   22.1210 H   0  0  0  0  0  0
  -19.6942  -25.6270   21.1265 H   0  0  0  0  0  0
  -19.6715  -27.3163   20.6767 H   0  0  0  0  0  0
  -17.4228  -26.6678   21.3989 H   0  0  0  0  0  0
  -18.0285  -25.9996   22.8963 H   0  0  0  0  0  0
  -19.7930  -30.7274   24.2235 H   0  0  0  0  0  0
  -17.4969  -31.6224   24.5137 H   0  0  0  0  0  0
  -15.5322  -30.2884   23.7656 H   0  0  0  0  0  0
  -15.8698  -28.0709   22.7099 H   0  0  0  0  0  0
  -24.5847  -30.7104   25.7657 H   0  0  0  0  0  0
  -24.8949  -32.2844   26.4865 H   0  0  0  0  0  0
  -25.8022  -30.8766   27.0102 H   0  0  0  0  0  0
  -26.2861  -29.6713   24.1192 H   0  0  0  0  0  0
  -27.4040  -29.7233   25.4634 H   0  0  0  0  0  0
  -27.8731  -30.4246   23.9328 H   0  0  0  0  0  0
  -27.2625  -33.3549   26.2086 H   0  0  0  0  0  0
  -28.3820  -32.6920   25.0286 H   0  0  0  0  0  0
  -28.0728  -31.8384   26.5325 H   0  0  0  0  0  0
  -28.2537  -38.0127   24.7549 H   0  0  0  0  0  0
  -28.1172  -36.2673   24.6190 H   0  0  0  0  0  0
  -27.2312  -37.1336   25.8825 H   0  0  0  0  0  0
  -20.9415  -29.8714   21.6857 H   0  0  0  0  0  0
  -26.0173  -38.2850   24.1382 H   0  0  0  0  0  0
  -31.8360  -21.1772   19.0481 H   0  0  0  0  0  0
  -32.8680  -19.7610   19.0436 H   0  0  0  0  0  0
  -32.6937  -20.7113   20.5110 H   0  0  0  0  0  0
  -30.6981  -24.4346   18.8847 H   0  0  0  0  0  0
  -30.7475  -25.9118   19.8241 H   0  0  0  0  0  0
  -30.1453  -25.9434   18.1746 H   0  0  0  0  0  0
  -28.0627  -24.9567   18.7446 H   0  0  0  0  0  0
  -29.0193  -15.6137   21.0825 H   0  0  0  0  0  0
  -29.7368  -22.4122   19.2880 H   0  0  0  0  0  0
  -28.3586  -20.4630   22.6205 H   0  0  0  0  0  0
  -27.9840  -22.1297   22.3503 H   0  0  0  0  0  0
  1 25  1  0  0  0
  1 30  2  0  0  0
  1 80  1  0  0  0
  2  3  1  0  0  0
  2 25  1  0  0  0
  2 85  1  0  0  0
  2 86  1  0  0  0
  3  4  1  0  0  0
  3 87  1  0  0  0
  3 88  1  0  0  0
  4  5  1  0  0  0
  4 89  1  0  0  0
  4 90  1  0  0  0
  5  6  1  0  0  0
  5 26  1  0  0  0
  5 91  1  0  0  0
  6 25  1  0  0  0
  6 92  1  0  0  0
  6 93  1  0  0  0
  7  8  2  0  0  0
  7 26  1  0  0  0
  7 29  1  0  0  0
  8  9  1  0  0  0
  8 22  1  0  0  0
  9 10  1  0  0  0
  9 27  2  0  0  0
 10 11  2  0  0  0
 10 15  1  0  0  0
 11 12  1  0  0  0
 11 94  1  0  0  0
 12 13  2  0  0  0
 12 95  1  0  0  0
 13 14  1  0  0  0
 13 31  1  0  0  0
 14 15  2  0  0  0
 14 96  1  0  0  0
 15 97  1  0  0  0
 16 17  2  0  0  0
 16 21  1  0  0  0
 16 31  1  0  0  0
 17 18  1  0  0  0
 17 98  1  0  0  0
 18 19  2  0  0  0
 18 99  1  0  0  0
 19 20  1  0  0  0
 19 24  1  0  0  0
 20 21  2  0  0  0
 20100  1  0  0  0
 21 23  1  0  0  0
 22 28  1  0  0  0
 22 32  2  0  0  0
 26 27  1  0  0  0
 28101  1  0  0  0
 28102  1  0  0  0
 29103  1  0  0  0
 29104  1  0  0  0
 33 34  1  0  0  0
 33 66  1  0  0  0
 33 70  2  0  0  0
 34 36  1  0  0  0
 34 59  1  0  0  0
 34105  1  0  0  0
 35 44  2  0  0  0
 35 45  1  0  0  0
 35 68  1  0  0  0
 36 56  1  0  0  0
 36106  1  0  0  0
 37 39  1  0  0  0
 37 47  1  0  0  0
 37 66  1  0  0  0
 37107  1  0  0  0
 38 43  2  0  0  0
 38 46  1  0  0  0
 38 47  1  0  0  0
 39 64  1  0  0  0
 39 67  2  0  0  0
 40 52  1  0  0  0
 40 53  2  0  0  0
 40 58  1  0  0  0
 41108  1  0  0  0
 41109  1  0  0  0
 41110  1  0  0  0
 41 48  1  0  0  0
 42 43  1  0  0  0
 42 66  1  0  0  0
 42111  1  0  0  0
 42112  1  0  0  0
 43 44  1  0  0  0
 44113  1  0  0  0
 45 46  2  0  0  0
 45114  1  0  0  0
 46115  1  0  0  0
 47116  1  0  0  0
 47117  1  0  0  0
 48 56  1  0  0  0
 48 65  1  0  0  0
 48118  1  0  0  0
 49 50  1  0  0  0
 49 53  1  0  0  0
 49 64  1  0  0  0
 49119  1  0  0  0
 50 51  1  0  0  0
 50120  1  0  0  0
 50121  1  0  0  0
 51 52  1  0  0  0
 51122  1  0  0  0
 51123  1  0  0  0
 52124  1  0  0  0
 52125  1  0  0  0
 53 54  1  0  0  0
 54 55  2  0  0  0
 54126  1  0  0  0
 55 57  1  0  0  0
 55127  1  0  0  0
 56 69  2  0  0  0
 57 58  2  0  0  0
 57128  1  0  0  0
 58129  1  0  0  0
 59 60  1  0  0  0
 59 61  1  0  0  0
 59 62  1  0  0  0
 60130  1  0  0  0
 60131  1  0  0  0
 60132  1  0  0  0
 61133  1  0  0  0
 61134  1  0  0  0
 61135  1  0  0  0
 62136  1  0  0  0
 62137  1  0  0  0
 62138  1  0  0  0
 63 65  1  0  0  0
 63139  1  0  0  0
 63140  1  0  0  0
 63141  1  0  0  0
 64142  1  0  0  0
 65143  1  0  0  0
 68 78  1  0  0  0
 71 72  2  0  0  0
 71 74  1  0  0  0
 71 84  1  0  0  0
 72 76  1  0  0  0
 72 79  1  0  0  0
 73 79  2  0  0  0
 73 80  1  0  0  0
 73 84  1  0  0  0
 74 81  1  0  0  0
 74 82  2  0  0  0
 75 78  1  0  0  0
 75 81  1  0  0  0
 75 83  2  0  0  0
 76144  1  0  0  0
 76145  1  0  0  0
 76146  1  0  0  0
 77147  1  0  0  0
 77148  1  0  0  0
 77149  1  0  0  0
 77 78  1  0  0  0
 78150  1  0  0  0
 80151  1  0  0  0
 81152  1  0  0  0
 82153  1  0  0  0
 82154  1  0  0  0
M  CHG  1  82   1
M  ISO  4   1 100  68 101  78 101  80 100
M  END
> <chiral flag>
0

> <version>
0

> <s_m_source_file>
/data/baiqing/PycharmProjects/Reinvent-master-3.2/result/LINK_invent/BTK/process_docking_weight1_custom_product_contain_oxygen_bond_distance_aromatic_linkinvent_7_9_3/rearranged_h_0161.sdf

> <i_m_source_file_index>
92

> <r_mmod_Potential_Energy-OPLS-2005>
-81.219612121582

> <r_mmod_Stretch_Energy-OPLS-2005>
130.16569519043

> <r_mmod_Bend_Energy-OPLS-2005>
209.23486328125

> <r_mmod_Torsional_Energy-OPLS-2005>
210.729797363281

> <r_mmod_Improper_Torsional_Energy-OPLS-2005>
5.45480680465698

> <r_mmod_Van_der_Waal_Energy-OPLS-2005>
121.970573425293

> <r_mmod_Electrostatic_Energy-OPLS-2005>
-329.436309814453

> <r_mmod_Solvation_Energy-OPLS-2005>
-507.714294433594

> <b_mmod_Minimization_Converged-OPLS-2005>
0

> <r_mmod_RMS_Derivative-OPLS-2005>
9.38836097717285

$$$$
92
                    3D
 Structure written by MMmdl.
150158  0  0  1  0            999 V2000
  -30.7111  -14.4412   20.5785 C   0  0  0  0  0  0
  -30.4201  -12.2879   19.4241 C   0  0  0  0  0  0
  -29.4982  -12.5119   18.2090 C   0  0  0  0  0  0
  -28.0167  -12.3818   18.6142 C   0  0  0  0  0  0
  -27.6667  -13.2084   19.8807 C   0  0  2  0  0  0
  -28.7053  -12.9695   21.0002 C   0  0  0  0  0  0
  -25.2610  -13.8183   20.5680 C   0  0  0  0  0  0
  -24.1860  -13.0459   20.9171 C   0  0  0  0  0  0
  -24.6406  -11.6929   20.8722 C   0  0  0  0  0  0
  -23.9062  -10.4314   21.0394 C   0  0  0  0  0  0
  -24.3619   -9.4227   21.9173 C   0  0  0  0  0  0
  -23.6299   -8.2258   22.0745 C   0  0  0  0  0  0
  -22.4281   -8.0287   21.3537 C   0  0  0  0  0  0
  -21.9908   -9.0263   20.4643 C   0  0  0  0  0  0
  -22.7230  -10.2148   20.3046 C   0  0  0  0  0  0
  -21.6865   -6.0734   22.5271 C   0  0  0  0  0  0
  -21.4028   -6.5640   23.8203 C   0  0  0  0  0  0
  -21.3665   -5.6785   24.9163 C   0  0  0  0  0  0
  -21.6047   -4.3046   24.7206 C   0  0  0  0  0  0
  -21.8822   -3.8141   23.4326 C   0  0  0  0  0  0
  -21.9201   -4.6963   22.3387 C   0  0  0  0  0  0
  -22.7875  -13.5255   21.1821 C   0  0  0  0  0  0
  -22.1662   -4.2148   21.0961 F   0  0  0  0  0  0
  -21.5625   -3.4525   25.7716 F   0  0  0  0  0  0
  -30.0439  -13.2627   20.4581 N   0  0  0  0  0  0
  -26.3049  -12.9353   20.3379 N   0  0  0  0  0  0
  -25.9334  -11.6509   20.5758 N   0  0  0  0  0  0
  -22.0504  -12.8263   22.0383 N   0  0  0  0  0  0
  -25.4336  -15.1904   20.4090 N   0  0  0  0  0  0
  -31.8229  -14.6363   20.0785 O   0  0  0  0  0  0
  -21.6648   -6.8885   21.4237 O   0  0  0  0  0  0
  -22.3548  -14.5541   20.6639 O   0  0  0  0  0  0
  -24.6123  -31.8702   23.2101 C   0  0  0  0  0  0
  -25.9021  -32.4835   23.8399 C   0  0  1  0  0  0
  -27.2394  -27.4610   20.0916 C   0  0  0  0  0  0
  -25.5878  -33.8633   24.2330 N   0  0  0  0  0  0
  -23.3999  -30.4926   21.5505 C   0  0  2  0  0  0
  -24.8493  -28.9584   20.1170 C   0  0  0  0  0  0
  -22.7392  -29.4664   22.4989 C   0  0  0  0  0  0
  -18.0271  -28.1368   22.8487 C   0  0  0  0  0  0
  -24.1483  -36.7335   23.2638 C   0  0  0  0  0  0
  -25.9268  -30.8419   21.3616 C   0  0  0  0  0  0
  -26.0073  -29.4779   20.7099 C   0  0  0  0  0  0
  -27.2093  -28.7373   20.6923 C   0  0  0  0  0  0
  -26.0692  -26.9483   19.4948 C   0  0  0  0  0  0
  -24.8728  -27.6911   19.5082 C   0  0  0  0  0  0
  -23.6089  -29.8215   20.1658 C   0  0  0  0  0  0
  -25.4103  -36.3130   24.0338 C   0  0  1  0  0  0
  -20.5860  -28.3656   23.1321 C   0  0  2  0  0  0
  -20.6759  -26.9394   22.5418 C   0  0  0  0  0  0
  -19.5743  -26.6375   21.5205 C   0  0  0  0  0  0
  -18.1924  -26.7913   22.1618 C   0  0  0  0  0  0
  -19.1520  -28.8824   23.2906 C   0  0  0  0  0  0
  -18.9452  -30.1431   23.8921 C   0  0  0  0  0  0
  -17.6457  -30.6578   24.0557 C   0  0  0  0  0  0
  -25.9022  -34.9489   23.5135 C   0  0  0  0  0  0
  -16.5343  -29.9086   23.6314 C   0  0  0  0  0  0
  -16.7262  -28.6497   23.0338 C   0  0  0  0  0  0
  -26.4450  -31.6611   25.0720 C   0  0  0  0  0  0
  -25.3720  -31.3735   26.1475 C   0  0  0  0  0  0
  -27.0278  -30.3048   24.6102 C   0  0  0  0  0  0
  -27.6025  -32.4327   25.7487 C   0  0  0  0  0  0
  -27.5584  -37.1821   24.8453 C   0  0  0  0  0  0
  -21.4127  -29.3032   22.3741 N   0  0  0  0  0  0
  -26.4291  -37.3808   23.9403 N   0  0  0  0  0  0
  -24.6646  -31.0817   22.0996 N   0  0  0  0  0  0
  -23.4182  -28.8210   23.3024 O   0  0  0  0  0  0
  -28.3968  -26.7209   20.0838 O   0  0  0  0  0  0
  -26.5598  -34.8935   22.4705 O   0  0  0  0  0  0
  -23.5317  -32.1441   23.7502 O   0  0  0  0  0  0
  -30.9436  -17.4642   20.1064 C   0  0  0  0  0  0
  -30.1205  -16.7622   20.9684 C   0  0  0  0  0  0
  -29.7210  -19.2128   20.8738 C   0  0  0  0  0  0
  -28.7683  -22.9696   20.9135 C   0  0  0  0  0  0
  -28.9950  -24.3289   20.2439 C   0  0  0  0  0  0
  -29.5347  -21.7816   20.3139 C   0  0  0  0  0  0
  -28.3156  -25.5443   20.9012 C   0  0  0  0  0  0
  -30.7002  -18.8440   20.0535 N   0  0  0  0  0  0
  -28.0086  -22.7458   21.9123 N   0  0  0  0  0  0
  -30.0332  -15.4198   21.2038 N   0  0  0  0  0  0
  -29.2576  -20.5140   20.9968 N   0  0  0  0  0  0
  -29.6928  -24.4705   19.2315 O   0  0  0  0  0  0
  -29.0330  -17.8707   21.7829 S   0  0  0  0  0  0
  -31.4665  -12.3716   19.1264 H   0  0  0  0  0  0
  -30.3012  -11.2732   19.8063 H   0  0  0  0  0  0
  -29.7356  -11.7960   17.4207 H   0  0  0  0  0  0
  -29.6801  -13.5017   17.7872 H   0  0  0  0  0  0
  -27.8140  -11.3255   18.7927 H   0  0  0  0  0  0
  -27.3749  -12.6773   17.7846 H   0  0  0  0  0  0
  -27.7173  -14.2610   19.5971 H   0  0  0  0  0  0
  -28.6693  -11.9294   21.3298 H   0  0  0  0  0  0
  -28.4649  -13.5606   21.8849 H   0  0  0  0  0  0
  -25.2769   -9.5709   22.4737 H   0  0  0  0  0  0
  -24.0014   -7.4654   22.7461 H   0  0  0  0  0  0
  -21.0831   -8.8782   19.8953 H   0  0  0  0  0  0
  -22.3683  -10.9683   19.6147 H   0  0  0  0  0  0
  -21.2026   -7.6150   23.9707 H   0  0  0  0  0  0
  -21.1485   -6.0511   25.9066 H   0  0  0  0  0  0
  -22.0599   -2.7602   23.2814 H   0  0  0  0  0  0
  -22.4098  -11.9952   22.4843 H   0  0  0  0  0  0
  -21.1109  -13.1288   22.2538 H   0  0  0  0  0  0
  -24.6676  -15.8463   20.5158 H   0  0  0  0  0  0
  -26.2895  -15.6300   20.0954 H   0  0  0  0  0  0
  -26.7096  -32.5556   23.1171 H   0  0  0  0  0  0
  -24.9993  -33.9786   25.0455 H   0  0  0  0  0  0
  -22.6881  -31.3092   21.4099 H   0  0  0  0  0  0
  -23.3731  -35.9680   23.3310 H   0  0  0  0  0  0
  -24.3571  -36.8938   22.2048 H   0  0  0  0  0  0
  -23.7245  -37.6549   23.6645 H   0  0  0  0  0  0
  -26.0385  -31.6096   20.5942 H   0  0  0  0  0  0
  -26.8150  -30.8940   21.9799 H   0  0  0  0  0  0
  -28.1048  -29.1367   21.1475 H   0  0  0  0  0  0
  -26.0834  -25.9781   19.0183 H   0  0  0  0  0  0
  -23.9815  -27.2846   19.0495 H   0  0  0  0  0  0
  -23.7171  -30.5946   19.4043 H   0  0  0  0  0  0
  -22.7346  -29.2394   19.8716 H   0  0  0  0  0  0
  -25.1279  -36.1996   25.0830 H   0  0  0  0  0  0
  -20.9958  -28.3220   24.1437 H   0  0  0  0  0  0
  -20.5651  -26.2264   23.3602 H   0  0  0  0  0  0
  -21.6637  -26.7431   22.1227 H   0  0  0  0  0  0
  -19.6907  -25.6289   21.1235 H   0  0  0  0  0  0
  -19.6689  -27.3185   20.6738 H   0  0  0  0  0  0
  -17.4198  -26.6652   21.4016 H   0  0  0  0  0  0
  -18.0332  -26.0048   22.9015 H   0  0  0  0  0  0
  -19.7929  -30.7232   24.2303 H   0  0  0  0  0  0
  -17.5014  -31.6259   24.5159 H   0  0  0  0  0  0
  -15.5349  -30.2999   23.7609 H   0  0  0  0  0  0
  -15.8660  -28.0822   22.7038 H   0  0  0  0  0  0
  -24.5841  -30.7140   25.7813 H   0  0  0  0  0  0
  -24.8967  -32.2907   26.4967 H   0  0  0  0  0  0
  -25.8059  -30.8852   27.0209 H   0  0  0  0  0  0
  -26.2837  -29.6821   24.1117 H   0  0  0  0  0  0
  -27.4003  -29.7266   25.4567 H   0  0  0  0  0  0
  -27.8689  -30.4354   23.9284 H   0  0  0  0  0  0
  -27.2634  -33.3595   26.2130 H   0  0  0  0  0  0
  -28.3809  -32.6949   25.0310 H   0  0  0  0  0  0
  -28.0734  -31.8419   26.5352 H   0  0  0  0  0  0
  -28.2613  -38.0113   24.7510 H   0  0  0  0  0  0
  -28.1073  -36.2647   24.6271 H   0  0  0  0  0  0
  -27.2301  -37.1465   25.8855 H   0  0  0  0  0  0
  -20.9281  -29.8784   21.6995 H   0  0  0  0  0  0
  -26.0185  -38.2889   24.1400 H   0  0  0  0  0  0
  -31.7126  -17.0672   19.4585 H   0  0  0  0  0  0
  -30.6047  -21.9874   20.3558 H   0  0  0  0  0  0
  -29.2742  -21.6842   19.2583 H   0  0  0  0  0  0
  -28.8117  -25.7499   21.8505 H   0  0  0  0  0  0
  -27.2810  -25.2882   21.1327 H   0  0  0  0  0  0
  -27.5449  -23.5855   22.2383 H   0  0  0  0  0  0
  -29.2152  -15.1117   21.7071 H   0  0  0  0  0  0
  -28.5395  -20.6602   21.7056 H   0  0  0  0  0  0
  1 25  1  0  0  0
  1 30  2  0  0  0
  1 80  1  0  0  0
  2  3  1  0  0  0
  2 25  1  0  0  0
  2 84  1  0  0  0
  2 85  1  0  0  0
  3  4  1  0  0  0
  3 86  1  0  0  0
  3 87  1  0  0  0
  4  5  1  0  0  0
  4 88  1  0  0  0
  4 89  1  0  0  0
  5  6  1  0  0  0
  5 26  1  0  0  0
  5 90  1  0  0  0
  6 25  1  0  0  0
  6 91  1  0  0  0
  6 92  1  0  0  0
  7  8  2  0  0  0
  7 26  1  0  0  0
  7 29  1  0  0  0
  8  9  1  0  0  0
  8 22  1  0  0  0
  9 10  1  0  0  0
  9 27  2  0  0  0
 10 11  2  0  0  0
 10 15  1  0  0  0
 11 12  1  0  0  0
 11 93  1  0  0  0
 12 13  2  0  0  0
 12 94  1  0  0  0
 13 14  1  0  0  0
 13 31  1  0  0  0
 14 15  2  0  0  0
 14 95  1  0  0  0
 15 96  1  0  0  0
 16 17  2  0  0  0
 16 21  1  0  0  0
 16 31  1  0  0  0
 17 18  1  0  0  0
 17 97  1  0  0  0
 18 19  2  0  0  0
 18 98  1  0  0  0
 19 20  1  0  0  0
 19 24  1  0  0  0
 20 21  2  0  0  0
 20 99  1  0  0  0
 21 23  1  0  0  0
 22 28  1  0  0  0
 22 32  2  0  0  0
 26 27  1  0  0  0
 28100  1  0  0  0
 28101  1  0  0  0
 29102  1  0  0  0
 29103  1  0  0  0
 33 34  1  0  0  0
 33 66  1  0  0  0
 33 70  2  0  0  0
 34 36  1  0  0  0
 34 59  1  0  0  0
 34104  1  0  0  0
 35 44  2  0  0  0
 35 45  1  0  0  0
 35 68  1  0  0  0
 36 56  1  0  0  0
 36105  1  0  0  0
 37 39  1  0  0  0
 37 47  1  0  0  0
 37 66  1  0  0  0
 37106  1  0  0  0
 38 43  2  0  0  0
 38 46  1  0  0  0
 38 47  1  0  0  0
 39 64  1  0  0  0
 39 67  2  0  0  0
 40 52  1  0  0  0
 40 53  2  0  0  0
 40 58  1  0  0  0
 41107  1  0  0  0
 41108  1  0  0  0
 41109  1  0  0  0
 41 48  1  0  0  0
 42 43  1  0  0  0
 42 66  1  0  0  0
 42110  1  0  0  0
 42111  1  0  0  0
 43 44  1  0  0  0
 44112  1  0  0  0
 45 46  2  0  0  0
 45113  1  0  0  0
 46114  1  0  0  0
 47115  1  0  0  0
 47116  1  0  0  0
 48 56  1  0  0  0
 48 65  1  0  0  0
 48117  1  0  0  0
 49 50  1  0  0  0
 49 53  1  0  0  0
 49 64  1  0  0  0
 49118  1  0  0  0
 50 51  1  0  0  0
 50119  1  0  0  0
 50120  1  0  0  0
 51 52  1  0  0  0
 51121  1  0  0  0
 51122  1  0  0  0
 52123  1  0  0  0
 52124  1  0  0  0
 53 54  1  0  0  0
 54 55  2  0  0  0
 54125  1  0  0  0
 55 57  1  0  0  0
 55126  1  0  0  0
 56 69  2  0  0  0
 57 58  2  0  0  0
 57127  1  0  0  0
 58128  1  0  0  0
 59 60  1  0  0  0
 59 61  1  0  0  0
 59 62  1  0  0  0
 60129  1  0  0  0
 60130  1  0  0  0
 60131  1  0  0  0
 61132  1  0  0  0
 61133  1  0  0  0
 61134  1  0  0  0
 62135  1  0  0  0
 62136  1  0  0  0
 62137  1  0  0  0
 63 65  1  0  0  0
 63138  1  0  0  0
 63139  1  0  0  0
 63140  1  0  0  0
 64141  1  0  0  0
 65142  1  0  0  0
 68 77  1  0  0  0
 71 72  2  0  0  0
 71 78  1  0  0  0
 71143  1  0  0  0
 72 80  1  0  0  0
 72 83  1  0  0  0
 73 78  2  0  0  0
 73 81  1  0  0  0
 73 83  1  0  0  0
 74 75  1  0  0  0
 74 76  1  0  0  0
 74 79  2  0  0  0
 75 77  1  0  0  0
 75 82  2  0  0  0
 76 81  1  0  0  0
 76144  1  0  0  0
 76145  1  0  0  0
 77146  1  0  0  0
 77147  1  0  0  0
 79148  1  0  0  0
 80149  1  0  0  0
 81150  1  0  0  0
M  ISO  4   1 100  68 101  77 101  80 100
M  END
> <chiral flag>
0

> <version>
0

> <s_m_source_file>
/data/baiqing/PycharmProjects/Reinvent-master-3.2/result/LINK_invent/BTK/process_docking_weight1_custom_product_contain_oxygen_bond_distance_aromatic_linkinvent_7_9_3/rearranged_h_0161.sdf

> <i_m_source_file_index>
93

> <r_mmod_Potential_Energy-OPLS-2005>
-101.561302185059

> <r_mmod_Stretch_Energy-OPLS-2005>
35.5259819030762

> <r_mmod_Bend_Energy-OPLS-2005>
90.4994506835938

> <r_mmod_Torsional_Energy-OPLS-2005>
222.537216186523

> <r_mmod_Improper_Torsional_Energy-OPLS-2005>
3.42676043510437

> <r_mmod_Van_der_Waal_Energy-OPLS-2005>
139.27555847168

> <r_mmod_Electrostatic_Energy-OPLS-2005>
-355.656341552734

> <r_mmod_Solvation_Energy-OPLS-2005>
-246.648574829102

> <b_mmod_Minimization_Converged-OPLS-2005>
0

> <r_mmod_RMS_Derivative-OPLS-2005>
1.85845100879669

$$$$
93
                    3D
 Structure written by MMmdl.
156164  0  0  1  0            999 V2000
  -30.6340  -14.7291   20.4716 C   0  0  0  0  0  0
  -30.4350  -12.4456   19.4930 C   0  0  0  0  0  0
  -29.5227  -12.5167   18.2485 C   0  0  0  0  0  0
  -28.0443  -12.3486   18.6483 C   0  0  0  0  0  0
  -27.6495  -13.2347   19.8579 C   0  0  2  0  0  0
  -28.6914  -13.1616   20.9992 C   0  0  0  0  0  0
  -25.2548  -13.8199   20.5672 C   0  0  0  0  0  0
  -24.1825  -13.0451   20.9183 C   0  0  0  0  0  0
  -24.6409  -11.6935   20.8732 C   0  0  0  0  0  0
  -23.9073  -10.4307   21.0404 C   0  0  0  0  0  0
  -24.3622   -9.4218   21.9165 C   0  0  0  0  0  0
  -23.6291   -8.2258   22.0753 C   0  0  0  0  0  0
  -22.4275   -8.0279   21.3541 C   0  0  0  0  0  0
  -21.9921   -9.0258   20.4637 C   0  0  0  0  0  0
  -22.7269  -10.2132   20.3042 C   0  0  0  0  0  0
  -21.6863   -6.0721   22.5279 C   0  0  0  0  0  0
  -21.4012   -6.5634   23.8209 C   0  0  0  0  0  0
  -21.3657   -5.6791   24.9175 C   0  0  0  0  0  0
  -21.6055   -4.3060   24.7236 C   0  0  0  0  0  0
  -21.8820   -3.8139   23.4368 C   0  0  0  0  0  0
  -21.9195   -4.6943   22.3416 C   0  0  0  0  0  0
  -22.7854  -13.5242   21.1850 C   0  0  0  0  0  0
  -22.1669   -4.2141   21.0985 F   0  0  0  0  0  0
  -21.5628   -3.4543   25.7748 F   0  0  0  0  0  0
  -29.9999  -13.5053   20.4318 N   0  0  0  0  0  0
  -26.3000  -12.9421   20.3316 N   0  0  0  0  0  0
  -25.9344  -11.6551   20.5760 N   0  0  0  0  0  0
  -22.0490  -12.8201   22.0383 N   0  0  0  0  0  0
  -25.4198  -15.1922   20.4073 N   0  0  0  0  0  0
  -31.8097  -14.8139   20.1006 O   0  0  0  0  0  0
  -21.6644   -6.8871   21.4242 O   0  0  0  0  0  0
  -22.3551  -14.5548   20.6706 O   0  0  0  0  0  0
  -24.6317  -31.8518   23.1990 C   0  0  0  0  0  0
  -25.9133  -32.4693   23.8324 C   0  0  1  0  0  0
  -27.2151  -27.2622   20.1463 C   0  0  0  0  0  0
  -25.5965  -33.8521   24.2211 N   0  0  0  0  0  0
  -23.4294  -30.4678   21.5433 C   0  0  2  0  0  0
  -24.8832  -28.9327   20.0977 C   0  0  0  0  0  0
  -22.7523  -29.4502   22.4937 C   0  0  0  0  0  0
  -18.0280  -28.1377   22.8455 C   0  0  0  0  0  0
  -24.1497  -36.7253   23.2640 C   0  0  0  0  0  0
  -25.9769  -30.7654   21.3854 C   0  0  0  0  0  0
  -26.0494  -29.3951   20.7187 C   0  0  0  0  0  0
  -27.2191  -28.5697   20.7347 C   0  0  0  0  0  0
  -26.0471  -26.8912   19.4433 C   0  0  0  0  0  0
  -24.8870  -27.6899   19.4457 C   0  0  0  0  0  0
  -23.6493  -29.8111   20.1561 C   0  0  0  0  0  0
  -25.4112  -36.3037   24.0329 C   0  0  1  0  0  0
  -20.5886  -28.3647   23.1306 C   0  0  2  0  0  0
  -20.6775  -26.9364   22.5432 C   0  0  0  0  0  0
  -19.5752  -26.6355   21.5228 C   0  0  0  0  0  0
  -18.1916  -26.7901   22.1625 C   0  0  0  0  0  0
  -19.1536  -28.8836   23.2858 C   0  0  0  0  0  0
  -18.9459  -30.1446   23.8845 C   0  0  0  0  0  0
  -17.6466  -30.6571   24.0533 C   0  0  0  0  0  0
  -25.9078  -34.9416   23.5072 C   0  0  0  0  0  0
  -16.5345  -29.9038   23.6353 C   0  0  0  0  0  0
  -16.7282  -28.6482   23.0327 C   0  0  0  0  0  0
  -26.4540  -31.6534   25.0719 C   0  0  0  0  0  0
  -25.3766  -31.3727   26.1437 C   0  0  0  0  0  0
  -27.0388  -30.2939   24.6211 C   0  0  0  0  0  0
  -27.6067  -32.4320   25.7493 C   0  0  0  0  0  0
  -27.5572  -37.1751   24.8473 C   0  0  0  0  0  0
  -21.4238  -29.2977   22.3705 N   0  0  0  0  0  0
  -26.4273  -37.3734   23.9438 N   0  0  0  0  0  0
  -24.6964  -31.0478   22.0981 N   0  0  0  0  0  0
  -23.4228  -28.7974   23.2974 O   0  0  0  0  0  0
  -28.2821  -26.3402   20.2906 O   0  0  0  0  0  0
  -26.5625  -34.8903   22.4613 O   0  0  0  0  0  0
  -23.5465  -32.1386   23.7263 O   0  0  0  0  0  0
  -30.8293  -18.7316   18.4507 C   0  0  0  0  0  0
  -30.4040  -19.8912   19.1283 C   0  0  0  0  0  0
  -30.6675  -17.4504   19.0111 C   0  0  0  0  0  0
  -29.6158  -18.4780   20.9529 C   0  0  0  0  0  0
  -29.7719  -19.8177   20.3879 C   0  0  0  0  0  0
  -30.0761  -17.2621   20.2832 C   0  0  0  0  0  0
  -29.4158  -21.1600   21.0493 C   0  0  0  0  0  0
  -26.8482  -24.5016   21.2571 C   0  0  0  0  0  0
  -29.2142  -23.8342   20.7442 C   0  0  0  0  0  0
  -28.0259  -24.8438   20.3150 C   0  0  2  0  0  0
  -29.4471  -21.2385   22.3776 N   0  0  0  0  0  0
  -29.9056  -15.8689   20.7826 N   0  0  0  0  0  0
  -29.1252  -22.3344   20.3655 N   0  3  0  0  0  0
  -31.4787  -12.5580   19.1972 H   0  0  0  0  0  0
  -30.3661  -11.4672   19.9702 H   0  0  0  0  0  0
  -29.8062  -11.7477   17.5279 H   0  0  0  0  0  0
  -29.6571  -13.4742   17.7436 H   0  0  0  0  0  0
  -27.8893  -11.2991   18.8961 H   0  0  0  0  0  0
  -27.3971  -12.5608   17.7966 H   0  0  0  0  0  0
  -27.6478  -14.2609   19.4878 H   0  0  0  0  0  0
  -28.7174  -12.1644   21.4410 H   0  0  0  0  0  0
  -28.4256  -13.8415   21.8068 H   0  0  0  0  0  0
  -25.2758   -9.5716   22.4768 H   0  0  0  0  0  0
  -24.0006   -7.4658   22.7498 H   0  0  0  0  0  0
  -21.0852   -8.8794   19.8947 H   0  0  0  0  0  0
  -22.3728  -10.9667   19.6168 H   0  0  0  0  0  0
  -21.1996   -7.6141   23.9718 H   0  0  0  0  0  0
  -21.1477   -6.0511   25.9073 H   0  0  0  0  0  0
  -22.0594   -2.7603   23.2874 H   0  0  0  0  0  0
  -22.4084  -11.9838   22.4764 H   0  0  0  0  0  0
  -21.1101  -13.1234   22.2568 H   0  0  0  0  0  0
  -24.6420  -15.8385   20.4820 H   0  0  0  0  0  0
  -26.2631  -15.6323   20.0625 H   0  0  0  0  0  0
  -26.7193  -32.5363   23.1058 H   0  0  0  0  0  0
  -25.0214  -33.9662   25.0425 H   0  0  0  0  0  0
  -22.7240  -31.2886   21.3949 H   0  0  0  0  0  0
  -23.3777  -35.9583   23.3300 H   0  0  0  0  0  0
  -24.3602  -36.8890   22.2066 H   0  0  0  0  0  0
  -23.7254  -37.6449   23.6679 H   0  0  0  0  0  0
  -26.1277  -31.5334   20.6250 H   0  0  0  0  0  0
  -26.8462  -30.8023   22.0284 H   0  0  0  0  0  0
  -28.1016  -28.9026   21.2653 H   0  0  0  0  0  0
  -25.9977  -25.9452   18.9240 H   0  0  0  0  0  0
  -23.9996  -27.3369   18.9406 H   0  0  0  0  0  0
  -23.7705  -30.5945   19.4056 H   0  0  0  0  0  0
  -22.7699  -29.2429   19.8544 H   0  0  0  0  0  0
  -25.1288  -36.1876   25.0816 H   0  0  0  0  0  0
  -20.9953  -28.3202   24.1442 H   0  0  0  0  0  0
  -20.5744  -26.2212   23.3610 H   0  0  0  0  0  0
  -21.6614  -26.7411   22.1124 H   0  0  0  0  0  0
  -19.6944  -25.6285   21.1218 H   0  0  0  0  0  0
  -19.6708  -27.3201   20.6799 H   0  0  0  0  0  0
  -17.4188  -26.6701   21.4008 H   0  0  0  0  0  0
  -18.0225  -26.0052   22.9018 H   0  0  0  0  0  0
  -19.7967  -30.7269   24.2144 H   0  0  0  0  0  0
  -17.5033  -31.6245   24.5138 H   0  0  0  0  0  0
  -15.5342  -30.2896   23.7764 H   0  0  0  0  0  0
  -15.8688  -28.0825   22.7006 H   0  0  0  0  0  0
  -24.5998  -30.6972   25.7807 H   0  0  0  0  0  0
  -24.8878  -32.2907   26.4713 H   0  0  0  0  0  0
  -25.8085  -30.9055   27.0280 H   0  0  0  0  0  0
  -26.2966  -29.6656   24.1256 H   0  0  0  0  0  0
  -27.4115  -29.7226   25.4721 H   0  0  0  0  0  0
  -27.8833  -30.4199   23.9431 H   0  0  0  0  0  0
  -27.2660  -33.3694   26.1893 H   0  0  0  0  0  0
  -28.3965  -32.6720   25.0367 H   0  0  0  0  0  0
  -28.0614  -31.8552   26.5565 H   0  0  0  0  0  0
  -28.2516  -38.0089   24.7485 H   0  0  0  0  0  0
  -28.1105  -36.2602   24.6303 H   0  0  0  0  0  0
  -27.2284  -37.1402   25.8865 H   0  0  0  0  0  0
  -20.9441  -29.8695   21.6909 H   0  0  0  0  0  0
  -26.0167  -38.2813   24.1425 H   0  0  0  0  0  0
  -31.2931  -18.8270   17.4782 H   0  0  0  0  0  0
  -30.5917  -20.8492   18.6643 H   0  0  0  0  0  0
  -31.0057  -16.6085   18.4237 H   0  0  0  0  0  0
  -29.1551  -18.3825   21.9250 H   0  0  0  0  0  0
  -26.8065  -23.4305   21.4559 H   0  0  0  0  0  0
  -25.8737  -24.7621   20.8456 H   0  0  0  0  0  0
  -26.9511  -25.0060   22.2165 H   0  0  0  0  0  0
  -29.3866  -23.9261   21.8171 H   0  0  0  0  0  0
  -30.1353  -24.2035   20.2921 H   0  0  0  0  0  0
  -27.7509  -24.5628   19.2976 H   0  0  0  0  0  0
  -29.7596  -20.4461   22.9162 H   0  0  0  0  0  0
  -29.0312  -22.0115   22.8682 H   0  0  0  0  0  0
  -29.0481  -15.6975   21.2833 H   0  0  0  0  0  0
  -28.9627  -22.1893   19.3781 H   0  0  0  0  0  0
  1 25  1  0  0  0
  1 30  2  0  0  0
  1 82  1  0  0  0
  2  3  1  0  0  0
  2 25  1  0  0  0
  2 84  1  0  0  0
  2 85  1  0  0  0
  3  4  1  0  0  0
  3 86  1  0  0  0
  3 87  1  0  0  0
  4  5  1  0  0  0
  4 88  1  0  0  0
  4 89  1  0  0  0
  5  6  1  0  0  0
  5 26  1  0  0  0
  5 90  1  0  0  0
  6 25  1  0  0  0
  6 91  1  0  0  0
  6 92  1  0  0  0
  7  8  2  0  0  0
  7 26  1  0  0  0
  7 29  1  0  0  0
  8  9  1  0  0  0
  8 22  1  0  0  0
  9 10  1  0  0  0
  9 27  2  0  0  0
 10 11  2  0  0  0
 10 15  1  0  0  0
 11 12  1  0  0  0
 11 93  1  0  0  0
 12 13  2  0  0  0
 12 94  1  0  0  0
 13 14  1  0  0  0
 13 31  1  0  0  0
 14 15  2  0  0  0
 14 95  1  0  0  0
 15 96  1  0  0  0
 16 17  2  0  0  0
 16 21  1  0  0  0
 16 31  1  0  0  0
 17 18  1  0  0  0
 17 97  1  0  0  0
 18 19  2  0  0  0
 18 98  1  0  0  0
 19 20  1  0  0  0
 19 24  1  0  0  0
 20 21  2  0  0  0
 20 99  1  0  0  0
 21 23  1  0  0  0
 22 28  1  0  0  0
 22 32  2  0  0  0
 26 27  1  0  0  0
 28100  1  0  0  0
 28101  1  0  0  0
 29102  1  0  0  0
 29103  1  0  0  0
 33 34  1  0  0  0
 33 66  1  0  0  0
 33 70  2  0  0  0
 34 36  1  0  0  0
 34 59  1  0  0  0
 34104  1  0  0  0
 35 44  2  0  0  0
 35 45  1  0  0  0
 35 68  1  0  0  0
 36 56  1  0  0  0
 36105  1  0  0  0
 37 39  1  0  0  0
 37 47  1  0  0  0
 37 66  1  0  0  0
 37106  1  0  0  0
 38 43  2  0  0  0
 38 46  1  0  0  0
 38 47  1  0  0  0
 39 64  1  0  0  0
 39 67  2  0  0  0
 40 52  1  0  0  0
 40 53  2  0  0  0
 40 58  1  0  0  0
 41107  1  0  0  0
 41108  1  0  0  0
 41109  1  0  0  0
 41 48  1  0  0  0
 42 43  1  0  0  0
 42 66  1  0  0  0
 42110  1  0  0  0
 42111  1  0  0  0
 43 44  1  0  0  0
 44112  1  0  0  0
 45 46  2  0  0  0
 45113  1  0  0  0
 46114  1  0  0  0
 47115  1  0  0  0
 47116  1  0  0  0
 48 56  1  0  0  0
 48 65  1  0  0  0
 48117  1  0  0  0
 49 50  1  0  0  0
 49 53  1  0  0  0
 49 64  1  0  0  0
 49118  1  0  0  0
 50 51  1  0  0  0
 50119  1  0  0  0
 50120  1  0  0  0
 51 52  1  0  0  0
 51121  1  0  0  0
 51122  1  0  0  0
 52123  1  0  0  0
 52124  1  0  0  0
 53 54  1  0  0  0
 54 55  2  0  0  0
 54125  1  0  0  0
 55 57  1  0  0  0
 55126  1  0  0  0
 56 69  2  0  0  0
 57 58  2  0  0  0
 57127  1  0  0  0
 58128  1  0  0  0
 59 60  1  0  0  0
 59 61  1  0  0  0
 59 62  1  0  0  0
 60129  1  0  0  0
 60130  1  0  0  0
 60131  1  0  0  0
 61132  1  0  0  0
 61133  1  0  0  0
 61134  1  0  0  0
 62135  1  0  0  0
 62136  1  0  0  0
 62137  1  0  0  0
 63 65  1  0  0  0
 63138  1  0  0  0
 63139  1  0  0  0
 63140  1  0  0  0
 64141  1  0  0  0
 65142  1  0  0  0
 68 80  1  0  0  0
 71 72  2  0  0  0
 71 73  1  0  0  0
 71143  1  0  0  0
 72 75  1  0  0  0
 72144  1  0  0  0
 73 76  2  0  0  0
 73145  1  0  0  0
 74 75  2  0  0  0
 74 76  1  0  0  0
 74146  1  0  0  0
 75 77  1  0  0  0
 76 82  1  0  0  0
 77 81  1  0  0  0
 77 83  2  0  0  0
 78147  1  0  0  0
 78148  1  0  0  0
 78149  1  0  0  0
 78 80  1  0  0  0
 79 80  1  0  0  0
 79 83  1  0  0  0
 79150  1  0  0  0
 79151  1  0  0  0
 80152  1  0  0  0
 81153  1  0  0  0
 81154  1  0  0  0
 82155  1  0  0  0
 83156  1  0  0  0
M  CHG  1  83   1
M  ISO  4   1 100  68 101  80 101  82 100
M  END
> <chiral flag>
0

> <version>
0

> <s_m_source_file>
/data/baiqing/PycharmProjects/Reinvent-master-3.2/result/LINK_invent/BTK/process_docking_weight1_custom_product_contain_oxygen_bond_distance_aromatic_linkinvent_7_9_3/rearranged_h_0161.sdf

> <i_m_source_file_index>
94

> <r_mmod_Potential_Energy-OPLS-2005>
-94.04052734375

> <r_mmod_Stretch_Energy-OPLS-2005>
126.94637298584

> <r_mmod_Bend_Energy-OPLS-2005>
155.693939208984

> <r_mmod_Torsional_Energy-OPLS-2005>
245.067749023438

> <r_mmod_Improper_Torsional_Energy-OPLS-2005>
5.07681035995483

> <r_mmod_Van_der_Waal_Energy-OPLS-2005>
146.661407470703

> <r_mmod_Electrostatic_Energy-OPLS-2005>
-441.454376220703

> <r_mmod_Solvation_Energy-OPLS-2005>
-420.344421386719

> <b_mmod_Minimization_Converged-OPLS-2005>
0

> <r_mmod_RMS_Derivative-OPLS-2005>
4.86403465270996

$$$$
94
                    3D
 Structure written by MMmdl.
163171  0  0  1  0            999 V2000
  -30.7418  -14.5633   20.4976 C   0  0  0  0  0  0
  -30.3938  -12.3406   19.4833 C   0  0  0  0  0  0
  -29.5023  -12.5020   18.2363 C   0  0  0  0  0  0
  -28.0212  -12.3658   18.6312 C   0  0  0  0  0  0
  -27.6497  -13.2368   19.8649 C   0  0  2  0  0  0
  -28.6888  -13.1288   21.0055 C   0  0  0  0  0  0
  -25.2523  -13.8226   20.5704 C   0  0  0  0  0  0
  -24.1810  -13.0459   20.9187 C   0  0  0  0  0  0
  -24.6407  -11.6938   20.8731 C   0  0  0  0  0  0
  -23.9086  -10.4306   21.0383 C   0  0  0  0  0  0
  -24.3635   -9.4219   21.9166 C   0  0  0  0  0  0
  -23.6312   -8.2253   22.0744 C   0  0  0  0  0  0
  -22.4293   -8.0288   21.3541 C   0  0  0  0  0  0
  -21.9923   -9.0259   20.4638 C   0  0  0  0  0  0
  -22.7249  -10.2140   20.3036 C   0  0  0  0  0  0
  -21.6852   -6.0741   22.5278 C   0  0  0  0  0  0
  -21.4016   -6.5637   23.8216 C   0  0  0  0  0  0
  -21.3668   -5.6791   24.9175 C   0  0  0  0  0  0
  -21.6044   -4.3057   24.7215 C   0  0  0  0  0  0
  -21.8822   -3.8149   23.4340 C   0  0  0  0  0  0
  -21.9193   -4.6968   22.3400 C   0  0  0  0  0  0
  -22.7831  -13.5229   21.1850 C   0  0  0  0  0  0
  -22.1655   -4.2146   21.0982 F   0  0  0  0  0  0
  -21.5638   -3.4549   25.7731 F   0  0  0  0  0  0
  -30.0176  -13.4004   20.4451 N   0  0  0  0  0  0
  -26.2972  -12.9450   20.3339 N   0  0  0  0  0  0
  -25.9345  -11.6581   20.5763 N   0  0  0  0  0  0
  -22.0483  -12.8222   22.0410 N   0  0  0  0  0  0
  -25.4237  -15.1945   20.4138 N   0  0  0  0  0  0
  -31.8675  -14.5966   19.9972 O   0  0  0  0  0  0
  -21.6654   -6.8888   21.4243 O   0  0  0  0  0  0
  -22.3505  -14.5535   20.6698 O   0  0  0  0  0  0
  -24.6236  -31.8634   23.2078 C   0  0  0  0  0  0
  -25.9103  -32.4791   23.8385 C   0  0  1  0  0  0
  -27.2198  -27.3713   20.0998 C   0  0  0  0  0  0
  -25.5929  -33.8594   24.2313 N   0  0  0  0  0  0
  -23.4159  -30.4892   21.5473 C   0  0  2  0  0  0
  -24.8650  -28.9620   20.0959 C   0  0  0  0  0  0
  -22.7460  -29.4652   22.4944 C   0  0  0  0  0  0
  -18.0280  -28.1395   22.8495 C   0  0  0  0  0  0
  -24.1482  -36.7300   23.2631 C   0  0  0  0  0  0
  -25.9532  -30.8100   21.3741 C   0  0  0  0  0  0
  -26.0316  -29.4466   20.7042 C   0  0  0  0  0  0
  -27.2170  -28.6581   20.7053 C   0  0  0  0  0  0
  -26.0441  -26.9368   19.4503 C   0  0  0  0  0  0
  -24.8709  -27.7121   19.4574 C   0  0  0  0  0  0
  -23.6272  -29.8321   20.1577 C   0  0  0  0  0  0
  -25.4109  -36.3102   24.0332 C   0  0  1  0  0  0
  -20.5881  -28.3700   23.1287 C   0  0  2  0  0  0
  -20.6781  -26.9423   22.5416 C   0  0  0  0  0  0
  -19.5756  -26.6394   21.5226 C   0  0  0  0  0  0
  -18.1935  -26.7942   22.1630 C   0  0  0  0  0  0
  -19.1532  -28.8865   23.2892 C   0  0  0  0  0  0
  -18.9459  -30.1473   23.8896 C   0  0  0  0  0  0
  -17.6461  -30.6596   24.0569 C   0  0  0  0  0  0
  -25.9050  -34.9462   23.5124 C   0  0  0  0  0  0
  -16.5351  -29.9103   23.6332 C   0  0  0  0  0  0
  -16.7267  -28.6521   23.0353 C   0  0  0  0  0  0
  -26.4494  -31.6582   25.0733 C   0  0  0  0  0  0
  -25.3737  -31.3709   26.1464 C   0  0  0  0  0  0
  -27.0325  -30.3003   24.6178 C   0  0  0  0  0  0
  -27.6071  -32.4302   25.7505 C   0  0  0  0  0  0
  -27.5600  -37.1790   24.8443 C   0  0  0  0  0  0
  -21.4181  -29.3038   22.3654 N   0  0  0  0  0  0
  -26.4282  -37.3809   23.9437 N   0  0  0  0  0  0
  -24.6817  -31.0693   22.1003 N   0  0  0  0  0  0
  -23.4201  -28.8193   23.3006 O   0  0  0  0  0  0
  -28.2354  -26.4321   20.2606 O   0  0  0  0  0  0
  -26.5621  -34.8925   22.4692 O   0  0  0  0  0  0
  -23.5406  -32.1406   23.7432 O   0  0  0  0  0  0
  -29.6621  -19.4571   20.6510 C   0  0  0  0  0  0
  -31.1888  -21.1655   21.4829 C   0  0  0  0  0  0
  -30.5987  -18.4187   20.9812 C   0  0  0  0  0  0
  -31.8421  -18.8040   21.5710 C   0  0  0  0  0  0
  -29.9431  -20.8446   20.9044 C   0  0  0  0  0  0
  -32.1383  -20.1737   21.8037 C   0  0  0  0  0  0
  -30.5292  -16.9938   20.4868 C   0  0  0  0  0  0
  -30.2067  -15.8085   21.0995 C   0  0  0  0  0  0
  -27.8101  -25.3862   21.0891 C   0  0  0  0  0  0
  -28.1282  -24.0614   21.2330 C   0  0  0  0  0  0
  -29.1791  -23.2624   20.5647 C   0  0  0  0  0  0
  -33.9029  -17.5122   20.7622 C   0  0  0  0  0  0
  -33.9849  -21.7899   21.8598 C   0  0  0  0  0  0
  -32.9064  -17.7472   21.9088 C   0  0  0  0  0  0
  -28.9758  -21.9076   20.6832 N   0  0  0  0  0  0
  -33.3880  -20.5451   22.3323 N   0  0  0  0  0  0
  -30.1524  -23.7345   19.9755 O   0  0  0  0  0  0
  -27.4064  -23.4093   22.1609 O   0  0  0  0  0  0
  -31.4479  -12.3636   19.2036 H   0  0  0  0  0  0
  -30.2426  -11.3591   19.9341 H   0  0  0  0  0  0
  -29.7644  -11.7524   17.4880 H   0  0  0  0  0  0
  -29.6774  -13.4754   17.7743 H   0  0  0  0  0  0
  -27.8372  -11.3130   18.8459 H   0  0  0  0  0  0
  -27.3801  -12.6185   17.7855 H   0  0  0  0  0  0
  -27.6633  -14.2722   19.5236 H   0  0  0  0  0  0
  -28.6700  -12.1313   21.4467 H   0  0  0  0  0  0
  -28.4445  -13.8220   21.8110 H   0  0  0  0  0  0
  -25.2779   -9.5713   22.4739 H   0  0  0  0  0  0
  -24.0026   -7.4652   22.7463 H   0  0  0  0  0  0
  -21.0853   -8.8769   19.8950 H   0  0  0  0  0  0
  -22.3692  -10.9675   19.6145 H   0  0  0  0  0  0
  -21.2002   -7.6143   23.9715 H   0  0  0  0  0  0
  -21.1492   -6.0521   25.9081 H   0  0  0  0  0  0
  -22.0595   -2.7607   23.2834 H   0  0  0  0  0  0
  -22.4103  -11.9889   22.4813 H   0  0  0  0  0  0
  -21.1087  -13.1222   22.2596 H   0  0  0  0  0  0
  -24.6665  -15.8581   20.5311 H   0  0  0  0  0  0
  -26.2924  -15.6320   20.1322 H   0  0  0  0  0  0
  -26.7176  -32.5469   23.1145 H   0  0  0  0  0  0
  -25.0022  -33.9726   25.0419 H   0  0  0  0  0  0
  -22.7071  -31.3086   21.4126 H   0  0  0  0  0  0
  -23.3764  -35.9603   23.3230 H   0  0  0  0  0  0
  -24.3584  -36.8990   22.2057 H   0  0  0  0  0  0
  -23.7198  -37.6470   23.6687 H   0  0  0  0  0  0
  -26.0838  -31.5818   20.6141 H   0  0  0  0  0  0
  -26.8334  -30.8493   22.0045 H   0  0  0  0  0  0
  -28.1011  -29.0030   21.2225 H   0  0  0  0  0  0
  -26.0166  -25.9574   18.9934 H   0  0  0  0  0  0
  -23.9754  -27.3336   18.9843 H   0  0  0  0  0  0
  -23.7356  -30.6148   19.4057 H   0  0  0  0  0  0
  -22.7502  -29.2561   19.8592 H   0  0  0  0  0  0
  -25.1288  -36.1949   25.0822 H   0  0  0  0  0  0
  -20.9982  -28.3291   24.1409 H   0  0  0  0  0  0
  -20.5705  -26.2307   23.3613 H   0  0  0  0  0  0
  -21.6649  -26.7472   22.1194 H   0  0  0  0  0  0
  -19.6915  -25.6313   21.1246 H   0  0  0  0  0  0
  -19.6712  -27.3205   20.6760 H   0  0  0  0  0  0
  -17.4216  -26.6695   21.4020 H   0  0  0  0  0  0
  -18.0328  -26.0086   22.9023 H   0  0  0  0  0  0
  -19.7935  -30.7296   24.2253 H   0  0  0  0  0  0
  -17.5015  -31.6266   24.5186 H   0  0  0  0  0  0
  -15.5353  -30.3008   23.7659 H   0  0  0  0  0  0
  -15.8666  -28.0841   22.7071 H   0  0  0  0  0  0
  -24.5912  -30.7068   25.7788 H   0  0  0  0  0  0
  -24.8910  -32.2852   26.4918 H   0  0  0  0  0  0
  -25.8055  -30.8865   27.0227 H   0  0  0  0  0  0
  -26.2887  -29.6771   24.1196 H   0  0  0  0  0  0
  -27.4000  -29.7272   25.4702 H   0  0  0  0  0  0
  -27.8776  -30.4282   23.9412 H   0  0  0  0  0  0
  -27.2696  -33.3596   26.2112 H   0  0  0  0  0  0
  -28.3867  -32.6871   25.0321 H   0  0  0  0  0  0
  -28.0745  -31.8393   26.5394 H   0  0  0  0  0  0
  -28.2548  -38.0158   24.7629 H   0  0  0  0  0  0
  -28.1170  -36.2708   24.6096 H   0  0  0  0  0  0
  -27.2334  -37.1233   25.8840 H   0  0  0  0  0  0
  -20.9351  -29.8723   21.6835 H   0  0  0  0  0  0
  -26.0155  -38.2864   24.1518 H   0  0  0  0  0  0
  -28.7305  -19.1821   20.1756 H   0  0  0  0  0  0
  -31.4190  -22.1960   21.7054 H   0  0  0  0  0  0
  -30.9614  -16.9121   19.4979 H   0  0  0  0  0  0
  -29.7004  -15.7835   22.0538 H   0  0  0  0  0  0
  -27.0279  -25.7465   21.7482 H   0  0  0  0  0  0
  -34.6305  -16.7473   21.0344 H   0  0  0  0  0  0
  -34.4517  -18.4225   20.5157 H   0  0  0  0  0  0
  -33.3957  -17.1720   19.8597 H   0  0  0  0  0  0
  -35.0713  -21.7407   21.9472 H   0  0  0  0  0  0
  -33.6393  -22.6399   22.4497 H   0  0  0  0  0  0
  -33.7502  -21.9761   20.8102 H   0  0  0  0  0  0
  -32.4446  -16.8025   22.1913 H   0  0  0  0  0  0
  -33.4477  -18.0352   22.8097 H   0  0  0  0  0  0
  -28.0076  -21.6390   20.7966 H   0  0  0  0  0  0
  -34.0441  -19.7772   22.4523 H   0  0  0  0  0  0
  -27.8668  -22.6003   22.3511 H   0  0  0  0  0  0
  1 25  1  0  0  0
  1 30  2  0  0  0
  1 78  1  0  0  0
  2  3  1  0  0  0
  2 25  1  0  0  0
  2 89  1  0  0  0
  2 90  1  0  0  0
  3  4  1  0  0  0
  3 91  1  0  0  0
  3 92  1  0  0  0
  4  5  1  0  0  0
  4 93  1  0  0  0
  4 94  1  0  0  0
  5  6  1  0  0  0
  5 26  1  0  0  0
  5 95  1  0  0  0
  6 25  1  0  0  0
  6 96  1  0  0  0
  6 97  1  0  0  0
  7  8  2  0  0  0
  7 26  1  0  0  0
  7 29  1  0  0  0
  8  9  1  0  0  0
  8 22  1  0  0  0
  9 10  1  0  0  0
  9 27  2  0  0  0
 10 11  2  0  0  0
 10 15  1  0  0  0
 11 12  1  0  0  0
 11 98  1  0  0  0
 12 13  2  0  0  0
 12 99  1  0  0  0
 13 14  1  0  0  0
 13 31  1  0  0  0
 14 15  2  0  0  0
 14100  1  0  0  0
 15101  1  0  0  0
 16 17  2  0  0  0
 16 21  1  0  0  0
 16 31  1  0  0  0
 17 18  1  0  0  0
 17102  1  0  0  0
 18 19  2  0  0  0
 18103  1  0  0  0
 19 20  1  0  0  0
 19 24  1  0  0  0
 20 21  2  0  0  0
 20104  1  0  0  0
 21 23  1  0  0  0
 22 28  1  0  0  0
 22 32  2  0  0  0
 26 27  1  0  0  0
 28105  1  0  0  0
 28106  1  0  0  0
 29107  1  0  0  0
 29108  1  0  0  0
 33 34  1  0  0  0
 33 66  1  0  0  0
 33 70  2  0  0  0
 34 36  1  0  0  0
 34 59  1  0  0  0
 34109  1  0  0  0
 35 44  2  0  0  0
 35 45  1  0  0  0
 35 68  1  0  0  0
 36 56  1  0  0  0
 36110  1  0  0  0
 37 39  1  0  0  0
 37 47  1  0  0  0
 37 66  1  0  0  0
 37111  1  0  0  0
 38 43  2  0  0  0
 38 46  1  0  0  0
 38 47  1  0  0  0
 39 64  1  0  0  0
 39 67  2  0  0  0
 40 52  1  0  0  0
 40 53  2  0  0  0
 40 58  1  0  0  0
 41112  1  0  0  0
 41113  1  0  0  0
 41114  1  0  0  0
 41 48  1  0  0  0
 42 43  1  0  0  0
 42 66  1  0  0  0
 42115  1  0  0  0
 42116  1  0  0  0
 43 44  1  0  0  0
 44117  1  0  0  0
 45 46  2  0  0  0
 45118  1  0  0  0
 46119  1  0  0  0
 47120  1  0  0  0
 47121  1  0  0  0
 48 56  1  0  0  0
 48 65  1  0  0  0
 48122  1  0  0  0
 49 50  1  0  0  0
 49 53  1  0  0  0
 49 64  1  0  0  0
 49123  1  0  0  0
 50 51  1  0  0  0
 50124  1  0  0  0
 50125  1  0  0  0
 51 52  1  0  0  0
 51126  1  0  0  0
 51127  1  0  0  0
 52128  1  0  0  0
 52129  1  0  0  0
 53 54  1  0  0  0
 54 55  2  0  0  0
 54130  1  0  0  0
 55 57  1  0  0  0
 55131  1  0  0  0
 56 69  2  0  0  0
 57 58  2  0  0  0
 57132  1  0  0  0
 58133  1  0  0  0
 59 60  1  0  0  0
 59 61  1  0  0  0
 59 62  1  0  0  0
 60134  1  0  0  0
 60135  1  0  0  0
 60136  1  0  0  0
 61137  1  0  0  0
 61138  1  0  0  0
 61139  1  0  0  0
 62140  1  0  0  0
 62141  1  0  0  0
 62142  1  0  0  0
 63 65  1  0  0  0
 63143  1  0  0  0
 63144  1  0  0  0
 63145  1  0  0  0
 64146  1  0  0  0
 65147  1  0  0  0
 68 79  1  0  0  0
 71 73  2  0  0  0
 71 75  1  0  0  0
 71148  1  0  0  0
 72 75  2  0  0  0
 72 76  1  0  0  0
 72149  1  0  0  0
 73 74  1  0  0  0
 73 77  1  0  0  0
 74 76  2  0  0  0
 74 84  1  0  0  0
 75 85  1  0  0  0
 76 86  1  0  0  0
 77 78  2  0  0  0
 77150  1  0  0  0
 78151  1  0  0  0
 79 80  2  0  0  0
 79152  1  0  0  0
 80 81  1  0  0  0
 80 88  1  0  0  0
 81 85  1  0  0  0
 81 87  2  0  0  0
 82 84  1  0  0  0
 82153  1  0  0  0
 82154  1  0  0  0
 82155  1  0  0  0
 83 86  1  0  0  0
 83156  1  0  0  0
 83157  1  0  0  0
 83158  1  0  0  0
 84159  1  0  0  0
 84160  1  0  0  0
 85161  1  0  0  0
 86162  1  0  0  0
 88163  1  0  0  0
M  ISO  4   1 100  68 101  78 100  79 101
M  END
> <chiral flag>
0

> <version>
0

> <s_m_source_file>
/data/baiqing/PycharmProjects/Reinvent-master-3.2/result/LINK_invent/BTK/process_docking_weight1_custom_product_contain_oxygen_bond_distance_aromatic_linkinvent_7_9_3/rearranged_h_0161.sdf

> <i_m_source_file_index>
95

> <r_mmod_Potential_Energy-OPLS-2005>
178.668502807617

> <r_mmod_Stretch_Energy-OPLS-2005>
67.4420547485352

> <r_mmod_Bend_Energy-OPLS-2005>
172.99755859375

> <r_mmod_Torsional_Energy-OPLS-2005>
283.265350341797

> <r_mmod_Improper_Torsional_Energy-OPLS-2005>
14.6574106216431

> <r_mmod_Van_der_Waal_Energy-OPLS-2005>
171.043182373047

> <r_mmod_Electrostatic_Energy-OPLS-2005>
-339.125152587891

> <r_mmod_Solvation_Energy-OPLS-2005>
-239.319854736328

> <b_mmod_Minimization_Converged-OPLS-2005>
0

> <r_mmod_RMS_Derivative-OPLS-2005>
2.12868618965149

$$$$
95
                    3D
 Structure written by MMmdl.
160168  0  0  1  0            999 V2000
  -30.6938  -14.4811   20.5648 C   0  0  0  0  0  0
  -30.4249  -12.3133   19.4148 C   0  0  0  0  0  0
  -29.4905  -12.4983   18.2015 C   0  0  0  0  0  0
  -28.0129  -12.3591   18.6178 C   0  0  0  0  0  0
  -27.6586  -13.2054   19.8695 C   0  0  2  0  0  0
  -28.7028  -12.9935   20.9890 C   0  0  0  0  0  0
  -25.2561  -13.8145   20.5654 C   0  0  0  0  0  0
  -24.1834  -13.0426   20.9200 C   0  0  0  0  0  0
  -24.6390  -11.6895   20.8760 C   0  0  0  0  0  0
  -23.9059  -10.4284   21.0421 C   0  0  0  0  0  0
  -24.3615   -9.4197   21.9194 C   0  0  0  0  0  0
  -23.6289   -8.2235   22.0756 C   0  0  0  0  0  0
  -22.4274   -8.0279   21.3543 C   0  0  0  0  0  0
  -21.9909   -9.0251   20.4645 C   0  0  0  0  0  0
  -22.7237  -10.2128   20.3059 C   0  0  0  0  0  0
  -21.6848   -6.0735   22.5280 C   0  0  0  0  0  0
  -21.4009   -6.5637   23.8214 C   0  0  0  0  0  0
  -21.3655   -5.6789   24.9175 C   0  0  0  0  0  0
  -21.6045   -4.3053   24.7226 C   0  0  0  0  0  0
  -21.8820   -3.8145   23.4347 C   0  0  0  0  0  0
  -21.9192   -4.6962   22.3402 C   0  0  0  0  0  0
  -22.7856  -13.5227   21.1854 C   0  0  0  0  0  0
  -22.1662   -4.2147   21.0980 F   0  0  0  0  0  0
  -21.5627   -3.4538   25.7739 F   0  0  0  0  0  0
  -30.0295  -13.3015   20.4294 N   0  0  0  0  0  0
  -26.3004  -12.9318   20.3337 N   0  0  0  0  0  0
  -25.9313  -11.6484   20.5777 N   0  0  0  0  0  0
  -22.0493  -12.8218   22.0408 N   0  0  0  0  0  0
  -25.4229  -15.1850   20.3967 N   0  0  0  0  0  0
  -31.8363  -14.6554   20.1307 O   0  0  0  0  0  0
  -21.6634   -6.8880   21.4243 O   0  0  0  0  0  0
  -22.3541  -14.5540   20.6709 O   0  0  0  0  0  0
  -24.6155  -31.8671   23.2093 C   0  0  0  0  0  0
  -25.9043  -32.4816   23.8378 C   0  0  1  0  0  0
  -27.2313  -27.4190   20.0786 C   0  0  0  0  0  0
  -25.5884  -33.8614   24.2302 N   0  0  0  0  0  0
  -23.4025  -30.4918   21.5518 C   0  0  2  0  0  0
  -24.8445  -28.9561   20.1158 C   0  0  0  0  0  0
  -22.7409  -29.4648   22.4993 C   0  0  0  0  0  0
  -18.0258  -28.1376   22.8486 C   0  0  0  0  0  0
  -24.1481  -36.7323   23.2638 C   0  0  0  0  0  0
  -25.9347  -30.8260   21.3650 C   0  0  0  0  0  0
  -26.0074  -29.4601   20.7093 C   0  0  0  0  0  0
  -27.1994  -28.6981   20.6884 C   0  0  0  0  0  0
  -26.0371  -26.9268   19.4988 C   0  0  0  0  0  0
  -24.8541  -27.6882   19.5131 C   0  0  0  0  0  0
  -23.6091  -29.8259   20.1659 C   0  0  0  0  0  0
  -25.4105  -36.3113   24.0335 C   0  0  1  0  0  0
  -20.5856  -28.3655   23.1322 C   0  0  2  0  0  0
  -20.6755  -26.9389   22.5421 C   0  0  0  0  0  0
  -19.5738  -26.6381   21.5208 C   0  0  0  0  0  0
  -18.1908  -26.7919   22.1622 C   0  0  0  0  0  0
  -19.1513  -28.8832   23.2899 C   0  0  0  0  0  0
  -18.9448  -30.1436   23.8909 C   0  0  0  0  0  0
  -17.6454  -30.6583   24.0564 C   0  0  0  0  0  0
  -25.9037  -34.9476   23.5125 C   0  0  0  0  0  0
  -16.5339  -29.9082   23.6333 C   0  0  0  0  0  0
  -16.7249  -28.6504   23.0341 C   0  0  0  0  0  0
  -26.4456  -31.6616   25.0726 C   0  0  0  0  0  0
  -25.3719  -31.3748   26.1483 C   0  0  0  0  0  0
  -27.0286  -30.3050   24.6127 C   0  0  0  0  0  0
  -27.6011  -32.4355   25.7494 C   0  0  0  0  0  0
  -27.5584  -37.1809   24.8455 C   0  0  0  0  0  0
  -21.4137  -29.3025   22.3737 N   0  0  0  0  0  0
  -26.4286  -37.3803   23.9412 N   0  0  0  0  0  0
  -24.6694  -31.0763   22.0998 N   0  0  0  0  0  0
  -23.4183  -28.8173   23.3021 O   0  0  0  0  0  0
  -28.4289  -26.7230   20.0807 O   0  0  0  0  0  0
  -26.5615  -34.8930   22.4694 O   0  0  0  0  0  0
  -23.5349  -32.1417   23.7493 O   0  0  0  0  0  0
  -31.8910  -18.4775   22.2125 C   0  0  0  0  0  0
  -31.5188  -17.1497   21.9504 C   0  0  0  0  0  0
  -31.1041  -19.5424   21.7418 C   0  0  0  0  0  0
  -29.5428  -17.9503   20.7370 C   0  0  0  0  0  0
  -30.3462  -16.8681   21.2182 C   0  0  0  0  0  0
  -29.9330  -19.3059   20.9844 C   0  0  0  0  0  0
  -28.6752  -22.8400   20.0007 C   0  0  0  0  0  0
  -28.7391  -24.2946   20.4965 C   0  0  0  0  0  0
  -28.5327  -17.2885   18.4876 C   0  0  0  0  0  0
  -28.2639  -17.6415   19.9571 C   0  0  0  0  0  0
  -29.3632  -21.7960   20.9028 C   0  0  0  0  0  0
  -28.5431  -25.4228   19.4582 C   0  0  0  0  0  0
  -28.1342  -22.4381   18.9199 N   0  0  0  0  0  0
  -29.9496  -15.5025   21.0394 N   0  0  0  0  0  0
  -29.1833  -20.3928   20.4764 N   0  0  0  0  0  0
  -28.9826  -24.5791   21.6760 O   0  0  0  0  0  0
  -31.4668  -12.4220   19.1077 H   0  0  0  0  0  0
  -30.3375  -11.3041   19.8194 H   0  0  0  0  0  0
  -29.7290  -11.7656   17.4296 H   0  0  0  0  0  0
  -29.6551  -13.4803   17.7540 H   0  0  0  0  0  0
  -27.8266  -11.3045   18.8239 H   0  0  0  0  0  0
  -27.3592  -12.6254   17.7864 H   0  0  0  0  0  0
  -27.6996  -14.2513   19.5643 H   0  0  0  0  0  0
  -28.6823  -11.9591   21.3330 H   0  0  0  0  0  0
  -28.4672  -13.5973   21.8667 H   0  0  0  0  0  0
  -25.2759   -9.5668   22.4770 H   0  0  0  0  0  0
  -23.9994   -7.4622   22.7472 H   0  0  0  0  0  0
  -21.0841   -8.8772   19.8950 H   0  0  0  0  0  0
  -22.3704  -10.9671   19.6168 H   0  0  0  0  0  0
  -21.2001   -7.6145   23.9716 H   0  0  0  0  0  0
  -21.1476   -6.0520   25.9076 H   0  0  0  0  0  0
  -22.0605   -2.7609   23.2848 H   0  0  0  0  0  0
  -22.4092  -11.9868   22.4793 H   0  0  0  0  0  0
  -21.1110  -13.1242   22.2616 H   0  0  0  0  0  0
  -24.6432  -15.8287   20.4779 H   0  0  0  0  0  0
  -26.2407  -15.6063   19.9780 H   0  0  0  0  0  0
  -26.7108  -32.5514   23.1134 H   0  0  0  0  0  0
  -24.9964  -33.9750   25.0401 H   0  0  0  0  0  0
  -22.6923  -31.3102   21.4134 H   0  0  0  0  0  0
  -23.3736  -35.9662   23.3294 H   0  0  0  0  0  0
  -24.3564  -36.8958   22.2054 H   0  0  0  0  0  0
  -23.7237  -37.6525   23.6664 H   0  0  0  0  0  0
  -26.0523  -31.5927   20.5977 H   0  0  0  0  0  0
  -26.8218  -30.8742   21.9857 H   0  0  0  0  0  0
  -28.0992  -29.0887   21.1415 H   0  0  0  0  0  0
  -25.9701  -25.9587   19.0295 H   0  0  0  0  0  0
  -23.9560  -27.2888   19.0608 H   0  0  0  0  0  0
  -23.7187  -30.6020   19.4070 H   0  0  0  0  0  0
  -22.7319  -29.2476   19.8699 H   0  0  0  0  0  0
  -25.1277  -36.1972   25.0828 H   0  0  0  0  0  0
  -20.9933  -28.3216   24.1451 H   0  0  0  0  0  0
  -20.5667  -26.2247   23.3601 H   0  0  0  0  0  0
  -21.6622  -26.7436   22.1212 H   0  0  0  0  0  0
  -19.6905  -25.6297   21.1218 H   0  0  0  0  0  0
  -19.6691  -27.3216   20.6755 H   0  0  0  0  0  0
  -17.4182  -26.6657   21.4016 H   0  0  0  0  0  0
  -18.0307  -26.0061   22.9021 H   0  0  0  0  0  0
  -19.7930  -30.7231   24.2294 H   0  0  0  0  0  0
  -17.5016  -31.6268   24.5154 H   0  0  0  0  0  0
  -15.5347  -30.2989   23.7666 H   0  0  0  0  0  0
  -15.8640  -28.0838   22.7049 H   0  0  0  0  0  0
  -24.5841  -30.7148   25.7830 H   0  0  0  0  0  0
  -24.8960  -32.2921   26.4963 H   0  0  0  0  0  0
  -25.8058  -30.8881   27.0226 H   0  0  0  0  0  0
  -26.2846  -29.6825   24.1140 H   0  0  0  0  0  0
  -27.3995  -29.7276   25.4603 H   0  0  0  0  0  0
  -27.8703  -30.4346   23.9319 H   0  0  0  0  0  0
  -27.2588  -33.3633   26.2093 H   0  0  0  0  0  0
  -28.3802  -32.6970   25.0322 H   0  0  0  0  0  0
  -28.0694  -31.8479   26.5402 H   0  0  0  0  0  0
  -28.2583  -38.0122   24.7524 H   0  0  0  0  0  0
  -28.1092  -36.2655   24.6242 H   0  0  0  0  0  0
  -27.2300  -37.1421   25.8854 H   0  0  0  0  0  0
  -20.9293  -29.8762   21.6978 H   0  0  0  0  0  0
  -26.0177  -38.2877   24.1428 H   0  0  0  0  0  0
  -32.7869  -18.6812   22.7808 H   0  0  0  0  0  0
  -32.1356  -16.3491   22.3348 H   0  0  0  0  0  0
  -31.4403  -20.5423   21.9702 H   0  0  0  0  0  0
  -27.6002  -17.0934   17.9570 H   0  0  0  0  0  0
  -29.1553  -16.3982   18.3968 H   0  0  0  0  0  0
  -29.0412  -18.1056   17.9745 H   0  0  0  0  0  0
  -27.5649  -18.4750   20.0096 H   0  0  0  0  0  0
  -27.7420  -16.8202   20.4452 H   0  0  0  0  0  0
  -28.9842  -21.9054   21.9207 H   0  0  0  0  0  0
  -30.4221  -22.0517   20.9284 H   0  0  0  0  0  0
  -27.7457  -25.1747   18.7647 H   0  0  0  0  0  0
  -29.4466  -25.4469   18.8489 H   0  0  0  0  0  0
  -27.7148  -23.1917   18.3894 H   0  0  0  0  0  0
  -28.9785  -15.2870   21.2023 H   0  0  0  0  0  0
  -28.4668  -20.2540   19.7681 H   0  0  0  0  0  0
  1 25  1  0  0  0
  1 30  2  0  0  0
  1 84  1  0  0  0
  2  3  1  0  0  0
  2 25  1  0  0  0
  2 87  1  0  0  0
  2 88  1  0  0  0
  3  4  1  0  0  0
  3 89  1  0  0  0
  3 90  1  0  0  0
  4  5  1  0  0  0
  4 91  1  0  0  0
  4 92  1  0  0  0
  5  6  1  0  0  0
  5 26  1  0  0  0
  5 93  1  0  0  0
  6 25  1  0  0  0
  6 94  1  0  0  0
  6 95  1  0  0  0
  7  8  2  0  0  0
  7 26  1  0  0  0
  7 29  1  0  0  0
  8  9  1  0  0  0
  8 22  1  0  0  0
  9 10  1  0  0  0
  9 27  2  0  0  0
 10 11  2  0  0  0
 10 15  1  0  0  0
 11 12  1  0  0  0
 11 96  1  0  0  0
 12 13  2  0  0  0
 12 97  1  0  0  0
 13 14  1  0  0  0
 13 31  1  0  0  0
 14 15  2  0  0  0
 14 98  1  0  0  0
 15 99  1  0  0  0
 16 17  2  0  0  0
 16 21  1  0  0  0
 16 31  1  0  0  0
 17 18  1  0  0  0
 17100  1  0  0  0
 18 19  2  0  0  0
 18101  1  0  0  0
 19 20  1  0  0  0
 19 24  1  0  0  0
 20 21  2  0  0  0
 20102  1  0  0  0
 21 23  1  0  0  0
 22 28  1  0  0  0
 22 32  2  0  0  0
 26 27  1  0  0  0
 28103  1  0  0  0
 28104  1  0  0  0
 29105  1  0  0  0
 29106  1  0  0  0
 33 34  1  0  0  0
 33 66  1  0  0  0
 33 70  2  0  0  0
 34 36  1  0  0  0
 34 59  1  0  0  0
 34107  1  0  0  0
 35 44  2  0  0  0
 35 45  1  0  0  0
 35 68  1  0  0  0
 36 56  1  0  0  0
 36108  1  0  0  0
 37 39  1  0  0  0
 37 47  1  0  0  0
 37 66  1  0  0  0
 37109  1  0  0  0
 38 43  2  0  0  0
 38 46  1  0  0  0
 38 47  1  0  0  0
 39 64  1  0  0  0
 39 67  2  0  0  0
 40 52  1  0  0  0
 40 53  2  0  0  0
 40 58  1  0  0  0
 41110  1  0  0  0
 41111  1  0  0  0
 41112  1  0  0  0
 41 48  1  0  0  0
 42 43  1  0  0  0
 42 66  1  0  0  0
 42113  1  0  0  0
 42114  1  0  0  0
 43 44  1  0  0  0
 44115  1  0  0  0
 45 46  2  0  0  0
 45116  1  0  0  0
 46117  1  0  0  0
 47118  1  0  0  0
 47119  1  0  0  0
 48 56  1  0  0  0
 48 65  1  0  0  0
 48120  1  0  0  0
 49 50  1  0  0  0
 49 53  1  0  0  0
 49 64  1  0  0  0
 49121  1  0  0  0
 50 51  1  0  0  0
 50122  1  0  0  0
 50123  1  0  0  0
 51 52  1  0  0  0
 51124  1  0  0  0
 51125  1  0  0  0
 52126  1  0  0  0
 52127  1  0  0  0
 53 54  1  0  0  0
 54 55  2  0  0  0
 54128  1  0  0  0
 55 57  1  0  0  0
 55129  1  0  0  0
 56 69  2  0  0  0
 57 58  2  0  0  0
 57130  1  0  0  0
 58131  1  0  0  0
 59 60  1  0  0  0
 59 61  1  0  0  0
 59 62  1  0  0  0
 60132  1  0  0  0
 60133  1  0  0  0
 60134  1  0  0  0
 61135  1  0  0  0
 61136  1  0  0  0
 61137  1  0  0  0
 62138  1  0  0  0
 62139  1  0  0  0
 62140  1  0  0  0
 63 65  1  0  0  0
 63141  1  0  0  0
 63142  1  0  0  0
 63143  1  0  0  0
 64144  1  0  0  0
 65145  1  0  0  0
 68 82  1  0  0  0
 71 72  2  0  0  0
 71 73  1  0  0  0
 71146  1  0  0  0
 72 75  1  0  0  0
 72147  1  0  0  0
 73 76  2  0  0  0
 73148  1  0  0  0
 74 75  2  0  0  0
 74 76  1  0  0  0
 74 80  1  0  0  0
 75 84  1  0  0  0
 76 85  1  0  0  0
 77 78  1  0  0  0
 77 81  1  0  0  0
 77 83  2  0  0  0
 78 82  1  0  0  0
 78 86  2  0  0  0
 79 80  1  0  0  0
 79149  1  0  0  0
 79150  1  0  0  0
 79151  1  0  0  0
 80152  1  0  0  0
 80153  1  0  0  0
 81 85  1  0  0  0
 81154  1  0  0  0
 81155  1  0  0  0
 82156  1  0  0  0
 82157  1  0  0  0
 83158  1  0  0  0
 84159  1  0  0  0
 85160  1  0  0  0
M  ISO  4   1 100  68 101  82 101  84 100
M  END
> <chiral flag>
0

> <version>
0

> <s_m_source_file>
/data/baiqing/PycharmProjects/Reinvent-master-3.2/result/LINK_invent/BTK/process_docking_weight1_custom_product_contain_oxygen_bond_distance_aromatic_linkinvent_7_9_3/rearranged_h_0161.sdf

> <i_m_source_file_index>
96

> <r_mmod_Potential_Energy-OPLS-2005>
36.3674507141113

> <r_mmod_Stretch_Energy-OPLS-2005>
46.3165588378906

> <r_mmod_Bend_Energy-OPLS-2005>
116.452613830566

> <r_mmod_Torsional_Energy-OPLS-2005>
211.905288696289

> <r_mmod_Improper_Torsional_Energy-OPLS-2005>
4.79249334335327

> <r_mmod_Van_der_Waal_Energy-OPLS-2005>
158.338195800781

> <r_mmod_Electrostatic_Energy-OPLS-2005>
-278.111541748047

> <r_mmod_Solvation_Energy-OPLS-2005>
-237.913040161133

> <b_mmod_Minimization_Converged-OPLS-2005>
0

> <r_mmod_RMS_Derivative-OPLS-2005>
1.31879281997681

$$$$
96
                    3D
 Structure written by MMmdl.
160168  0  0  1  0            999 V2000
  -30.7633  -14.4662   20.5541 C   0  0  0  0  0  0
  -30.4003  -12.2978   19.4366 C   0  0  0  0  0  0
  -29.4862  -12.4869   18.2101 C   0  0  0  0  0  0
  -28.0096  -12.3541   18.6234 C   0  0  0  0  0  0
  -27.6521  -13.2148   19.8655 C   0  0  2  0  0  0
  -28.6963  -13.0481   20.9963 C   0  0  0  0  0  0
  -25.2536  -13.8182   20.5680 C   0  0  0  0  0  0
  -24.1809  -13.0443   20.9194 C   0  0  0  0  0  0
  -24.6378  -11.6914   20.8739 C   0  0  0  0  0  0
  -23.9056  -10.4293   21.0403 C   0  0  0  0  0  0
  -24.3610   -9.4207   21.9179 C   0  0  0  0  0  0
  -23.6289   -8.2242   22.0752 C   0  0  0  0  0  0
  -22.4271   -8.0279   21.3545 C   0  0  0  0  0  0
  -21.9902   -9.0253   20.4646 C   0  0  0  0  0  0
  -22.7227  -10.2134   20.3054 C   0  0  0  0  0  0
  -21.6858   -6.0725   22.5278 C   0  0  0  0  0  0
  -21.4015   -6.5632   23.8208 C   0  0  0  0  0  0
  -21.3659   -5.6790   24.9174 C   0  0  0  0  0  0
  -21.6045   -4.3054   24.7227 C   0  0  0  0  0  0
  -21.8822   -3.8138   23.4353 C   0  0  0  0  0  0
  -21.9192   -4.6950   22.3403 C   0  0  0  0  0  0
  -22.7833  -13.5228   21.1863 C   0  0  0  0  0  0
  -22.1660   -4.2138   21.0981 F   0  0  0  0  0  0
  -21.5630   -3.4539   25.7741 F   0  0  0  0  0  0
  -30.0288  -13.3204   20.4338 N   0  0  0  0  0  0
  -26.2971  -12.9366   20.3342 N   0  0  0  0  0  0
  -25.9306  -11.6520   20.5773 N   0  0  0  0  0  0
  -22.0479  -12.8215   22.0417 N   0  0  0  0  0  0
  -25.4235  -15.1902   20.4048 N   0  0  0  0  0  0
  -31.9098  -14.5308   20.0859 O   0  0  0  0  0  0
  -21.6640   -6.8874   21.4243 O   0  0  0  0  0  0
  -22.3517  -14.5537   20.6719 O   0  0  0  0  0  0
  -24.6170  -31.8693   23.2123 C   0  0  0  0  0  0
  -25.9055  -32.4828   23.8420 C   0  0  1  0  0  0
  -27.2200  -27.4208   20.0942 C   0  0  0  0  0  0
  -25.5906  -33.8624   24.2344 N   0  0  0  0  0  0
  -23.4040  -30.4968   21.5548 C   0  0  2  0  0  0
  -24.8461  -28.9714   20.1109 C   0  0  0  0  0  0
  -22.7424  -29.4673   22.4998 C   0  0  0  0  0  0
  -18.0276  -28.1372   22.8487 C   0  0  0  0  0  0
  -24.1488  -36.7321   23.2638 C   0  0  0  0  0  0
  -25.9368  -30.8314   21.3683 C   0  0  0  0  0  0
  -26.0104  -29.4681   20.7101 C   0  0  0  0  0  0
  -27.2012  -28.7011   20.6988 C   0  0  0  0  0  0
  -26.0346  -26.9577   19.4702 C   0  0  0  0  0  0
  -24.8534  -27.7158   19.4882 C   0  0  0  0  0  0
  -23.6100  -29.8379   20.1663 C   0  0  0  0  0  0
  -25.4107  -36.3118   24.0343 C   0  0  1  0  0  0
  -20.5871  -28.3662   23.1312 C   0  0  2  0  0  0
  -20.6769  -26.9398   22.5416 C   0  0  0  0  0  0
  -19.5744  -26.6386   21.5217 C   0  0  0  0  0  0
  -18.1921  -26.7917   22.1626 C   0  0  0  0  0  0
  -19.1526  -28.8833   23.2893 C   0  0  0  0  0  0
  -18.9457  -30.1439   23.8904 C   0  0  0  0  0  0
  -17.6458  -30.6576   24.0563 C   0  0  0  0  0  0
  -25.9038  -34.9479   23.5141 C   0  0  0  0  0  0
  -16.5348  -29.9082   23.6324 C   0  0  0  0  0  0
  -16.7265  -28.6499   23.0347 C   0  0  0  0  0  0
  -26.4470  -31.6598   25.0744 C   0  0  0  0  0  0
  -25.3737  -31.3699   26.1495 C   0  0  0  0  0  0
  -27.0300  -30.3045   24.6110 C   0  0  0  0  0  0
  -27.6053  -32.4313   25.7495 C   0  0  0  0  0  0
  -27.5579  -37.1817   24.8466 C   0  0  0  0  0  0
  -21.4152  -29.3034   22.3725 N   0  0  0  0  0  0
  -26.4295  -37.3801   23.9408 N   0  0  0  0  0  0
  -24.6713  -31.0800   22.1028 N   0  0  0  0  0  0
  -23.4200  -28.8201   23.3025 O   0  0  0  0  0  0
  -28.3630  -26.6388   20.1427 O   0  0  0  0  0  0
  -26.5606  -34.8928   22.4705 O   0  0  0  0  0  0
  -23.5362  -32.1444   23.7517 O   0  0  0  0  0  0
  -31.7705  -19.5308   20.9128 C   0  0  0  0  0  0
  -29.8639  -18.0615   21.2813 C   0  0  0  0  0  0
  -30.3987  -19.3799   21.2026 C   0  0  0  0  0  0
  -32.5406  -18.3879   20.6736 C   0  0  0  0  0  0
  -30.6831  -16.9199   21.0378 C   0  0  0  0  0  0
  -33.9524  -18.4219   20.3117 C   0  0  0  0  0  0
  -28.8664  -22.8346   20.7479 C   0  0  0  0  0  0
  -29.2340  -24.3180   20.5668 C   0  0  0  0  0  0
  -30.0203  -21.8663   21.0364 C   0  0  0  0  0  0
  -28.1130  -25.2202   20.0210 C   0  0  0  0  0  0
  -27.6976  -22.3354   20.6570 N   0  0  0  0  0  0
  -31.9899  -17.1639   20.7491 N   0  3  0  0  0  0
  -34.7860  -17.5388   20.8640 N   0  0  0  0  0  0
  -29.5754  -20.5074   21.4054 N   0  0  0  0  0  0
  -30.1576  -15.5693   21.0622 N   0  0  0  0  0  0
  -34.3936  -19.3049   19.4156 N   0  3  0  0  0  0
  -30.3566  -24.7766   20.8132 O   0  0  0  0  0  0
  -31.4476  -12.3497   19.1325 H   0  0  0  0  0  0
  -30.2709  -11.2992   19.8574 H   0  0  0  0  0  0
  -29.7254  -11.7473   17.4445 H   0  0  0  0  0  0
  -29.6612  -13.4647   17.7582 H   0  0  0  0  0  0
  -27.8216  -11.3008   18.8352 H   0  0  0  0  0  0
  -27.3603  -12.6121   17.7862 H   0  0  0  0  0  0
  -27.6795  -14.2539   19.5383 H   0  0  0  0  0  0
  -28.6670  -12.0309   21.3919 H   0  0  0  0  0  0
  -28.4602  -13.6982   21.8402 H   0  0  0  0  0  0
  -25.2758   -9.5686   22.4746 H   0  0  0  0  0  0
  -24.0004   -7.4632   22.7469 H   0  0  0  0  0  0
  -21.0835   -8.8758   19.8950 H   0  0  0  0  0  0
  -22.3678  -10.9664   19.6156 H   0  0  0  0  0  0
  -21.2006   -7.6139   23.9711 H   0  0  0  0  0  0
  -21.1479   -6.0518   25.9079 H   0  0  0  0  0  0
  -22.0601   -2.7600   23.2854 H   0  0  0  0  0  0
  -22.4087  -11.9870   22.4795 H   0  0  0  0  0  0
  -21.1094  -13.1232   22.2624 H   0  0  0  0  0  0
  -24.6479  -15.8378   20.5012 H   0  0  0  0  0  0
  -26.2534  -15.6273   20.0256 H   0  0  0  0  0  0
  -26.7129  -32.5533   23.1189 H   0  0  0  0  0  0
  -25.0050  -33.9794   25.0482 H   0  0  0  0  0  0
  -22.6927  -31.3142   21.4200 H   0  0  0  0  0  0
  -23.3744  -35.9660   23.3315 H   0  0  0  0  0  0
  -24.3589  -36.8925   22.2050 H   0  0  0  0  0  0
  -23.7248  -37.6535   23.6642 H   0  0  0  0  0  0
  -26.0561  -31.5996   20.6029 H   0  0  0  0  0  0
  -26.8236  -30.8800   21.9887 H   0  0  0  0  0  0
  -28.0960  -29.0750   21.1770 H   0  0  0  0  0  0
  -25.9879  -26.0049   18.9642 H   0  0  0  0  0  0
  -23.9593  -27.3303   19.0166 H   0  0  0  0  0  0
  -23.7176  -30.6162   19.4102 H   0  0  0  0  0  0
  -22.7327  -29.2597   19.8697 H   0  0  0  0  0  0
  -25.1280  -36.1992   25.0838 H   0  0  0  0  0  0
  -20.9954  -28.3227   24.1436 H   0  0  0  0  0  0
  -20.5693  -26.2264   23.3602 H   0  0  0  0  0  0
  -21.6639  -26.7458   22.1196 H   0  0  0  0  0  0
  -19.6915  -25.6310   21.1223 H   0  0  0  0  0  0
  -19.6685  -27.3211   20.6756 H   0  0  0  0  0  0
  -17.4200  -26.6666   21.4019 H   0  0  0  0  0  0
  -18.0318  -26.0060   22.9019 H   0  0  0  0  0  0
  -19.7938  -30.7243   24.2282 H   0  0  0  0  0  0
  -17.5022  -31.6260   24.5158 H   0  0  0  0  0  0
  -15.5350  -30.2986   23.7648 H   0  0  0  0  0  0
  -15.8666  -28.0822   22.7058 H   0  0  0  0  0  0
  -24.5911  -30.7042   25.7834 H   0  0  0  0  0  0
  -24.8919  -32.2847   26.4957 H   0  0  0  0  0  0
  -25.8094  -30.8863   27.0248 H   0  0  0  0  0  0
  -26.2844  -29.6812   24.1163 H   0  0  0  0  0  0
  -27.4076  -29.7273   25.4559 H   0  0  0  0  0  0
  -27.8676  -30.4374   23.9261 H   0  0  0  0  0  0
  -27.2685  -33.3609   26.2101 H   0  0  0  0  0  0
  -28.3840  -32.6889   25.0299 H   0  0  0  0  0  0
  -28.0748  -31.8421   26.5387 H   0  0  0  0  0  0
  -28.2612  -38.0099   24.7515 H   0  0  0  0  0  0
  -28.1066  -36.2639   24.6293 H   0  0  0  0  0  0
  -27.2308  -37.1472   25.8872 H   0  0  0  0  0  0
  -20.9312  -29.8764   21.6954 H   0  0  0  0  0  0
  -26.0191  -38.2888   24.1386 H   0  0  0  0  0  0
  -32.2550  -20.4932   20.8689 H   0  0  0  0  0  0
  -28.8168  -17.9283   21.5127 H   0  0  0  0  0  0
  -30.6364  -22.2745   21.8395 H   0  0  0  0  0  0
  -30.6412  -21.8351   20.1399 H   0  0  0  0  0  0
  -27.2062  -24.9626   20.5702 H   0  0  0  0  0  0
  -27.9534  -24.9660   18.9733 H   0  0  0  0  0  0
  -26.9910  -23.0337   20.4603 H   0  0  0  0  0  0
  -32.5852  -16.3609   20.5044 H   0  0  0  0  0  0
  -34.4409  -16.9636   21.6166 H   0  0  0  0  0  0
  -35.7632  -17.4739   20.6335 H   0  0  0  0  0  0
  -28.5651  -20.4001   21.3425 H   0  0  0  0  0  0
  -29.2183  -15.4441   21.3958 H   0  0  0  0  0  0
  -33.7290  -19.8897   18.9344 H   0  0  0  0  0  0
  -35.3585  -19.3715   19.1401 H   0  0  0  0  0  0
  1 25  1  0  0  0
  1 30  2  0  0  0
  1 85  1  0  0  0
  2  3  1  0  0  0
  2 25  1  0  0  0
  2 88  1  0  0  0
  2 89  1  0  0  0
  3  4  1  0  0  0
  3 90  1  0  0  0
  3 91  1  0  0  0
  4  5  1  0  0  0
  4 92  1  0  0  0
  4 93  1  0  0  0
  5  6  1  0  0  0
  5 26  1  0  0  0
  5 94  1  0  0  0
  6 25  1  0  0  0
  6 95  1  0  0  0
  6 96  1  0  0  0
  7  8  2  0  0  0
  7 26  1  0  0  0
  7 29  1  0  0  0
  8  9  1  0  0  0
  8 22  1  0  0  0
  9 10  1  0  0  0
  9 27  2  0  0  0
 10 11  2  0  0  0
 10 15  1  0  0  0
 11 12  1  0  0  0
 11 97  1  0  0  0
 12 13  2  0  0  0
 12 98  1  0  0  0
 13 14  1  0  0  0
 13 31  1  0  0  0
 14 15  2  0  0  0
 14 99  1  0  0  0
 15100  1  0  0  0
 16 17  2  0  0  0
 16 21  1  0  0  0
 16 31  1  0  0  0
 17 18  1  0  0  0
 17101  1  0  0  0
 18 19  2  0  0  0
 18102  1  0  0  0
 19 20  1  0  0  0
 19 24  1  0  0  0
 20 21  2  0  0  0
 20103  1  0  0  0
 21 23  1  0  0  0
 22 28  1  0  0  0
 22 32  2  0  0  0
 26 27  1  0  0  0
 28104  1  0  0  0
 28105  1  0  0  0
 29106  1  0  0  0
 29107  1  0  0  0
 33 34  1  0  0  0
 33 66  1  0  0  0
 33 70  2  0  0  0
 34 36  1  0  0  0
 34 59  1  0  0  0
 34108  1  0  0  0
 35 44  2  0  0  0
 35 45  1  0  0  0
 35 68  1  0  0  0
 36 56  1  0  0  0
 36109  1  0  0  0
 37 39  1  0  0  0
 37 47  1  0  0  0
 37 66  1  0  0  0
 37110  1  0  0  0
 38 43  2  0  0  0
 38 46  1  0  0  0
 38 47  1  0  0  0
 39 64  1  0  0  0
 39 67  2  0  0  0
 40 52  1  0  0  0
 40 53  2  0  0  0
 40 58  1  0  0  0
 41111  1  0  0  0
 41112  1  0  0  0
 41113  1  0  0  0
 41 48  1  0  0  0
 42 43  1  0  0  0
 42 66  1  0  0  0
 42114  1  0  0  0
 42115  1  0  0  0
 43 44  1  0  0  0
 44116  1  0  0  0
 45 46  2  0  0  0
 45117  1  0  0  0
 46118  1  0  0  0
 47119  1  0  0  0
 47120  1  0  0  0
 48 56  1  0  0  0
 48 65  1  0  0  0
 48121  1  0  0  0
 49 50  1  0  0  0
 49 53  1  0  0  0
 49 64  1  0  0  0
 49122  1  0  0  0
 50 51  1  0  0  0
 50123  1  0  0  0
 50124  1  0  0  0
 51 52  1  0  0  0
 51125  1  0  0  0
 51126  1  0  0  0
 52127  1  0  0  0
 52128  1  0  0  0
 53 54  1  0  0  0
 54 55  2  0  0  0
 54129  1  0  0  0
 55 57  1  0  0  0
 55130  1  0  0  0
 56 69  2  0  0  0
 57 58  2  0  0  0
 57131  1  0  0  0
 58132  1  0  0  0
 59 60  1  0  0  0
 59 61  1  0  0  0
 59 62  1  0  0  0
 60133  1  0  0  0
 60134  1  0  0  0
 60135  1  0  0  0
 61136  1  0  0  0
 61137  1  0  0  0
 61138  1  0  0  0
 62139  1  0  0  0
 62140  1  0  0  0
 62141  1  0  0  0
 63 65  1  0  0  0
 63142  1  0  0  0
 63143  1  0  0  0
 63144  1  0  0  0
 64145  1  0  0  0
 65146  1  0  0  0
 68 80  1  0  0  0
 71 73  2  0  0  0
 71 74  1  0  0  0
 71147  1  0  0  0
 72 73  1  0  0  0
 72 75  2  0  0  0
 72148  1  0  0  0
 73 84  1  0  0  0
 74 76  1  0  0  0
 74 82  2  0  0  0
 75 82  1  0  0  0
 75 85  1  0  0  0
 76 83  1  0  0  0
 76 86  2  0  0  0
 77 78  1  0  0  0
 77 79  1  0  0  0
 77 81  2  0  0  0
 78 80  1  0  0  0
 78 87  2  0  0  0
 79 84  1  0  0  0
 79149  1  0  0  0
 79150  1  0  0  0
 80151  1  0  0  0
 80152  1  0  0  0
 81153  1  0  0  0
 82154  1  0  0  0
 83155  1  0  0  0
 83156  1  0  0  0
 84157  1  0  0  0
 85158  1  0  0  0
 86159  1  0  0  0
 86160  1  0  0  0
M  CHG  2  82   1  86   1
M  ISO  4   1 100  68 101  80 101  85 100
M  END
> <chiral flag>
0

> <version>
0

> <s_m_source_file>
/data/baiqing/PycharmProjects/Reinvent-master-3.2/result/LINK_invent/BTK/process_docking_weight1_custom_product_contain_oxygen_bond_distance_aromatic_linkinvent_7_9_3/rearranged_h_0161.sdf

> <i_m_source_file_index>
97

> <r_mmod_Potential_Energy-OPLS-2005>
-472.976440429688

> <r_mmod_Stretch_Energy-OPLS-2005>
47.272087097168

> <r_mmod_Bend_Energy-OPLS-2005>
112.22184753418

> <r_mmod_Torsional_Energy-OPLS-2005>
194.943572998047

> <r_mmod_Improper_Torsional_Energy-OPLS-2005>
6.10729122161865

> <r_mmod_Van_der_Waal_Energy-OPLS-2005>
184.90803527832

> <r_mmod_Electrostatic_Energy-OPLS-2005>
-48.2726936340332

> <r_mmod_Solvation_Energy-OPLS-2005>
-990.371337890625

> <b_mmod_Minimization_Converged-OPLS-2005>
0

> <r_mmod_RMS_Derivative-OPLS-2005>
1.21463298797607

$$$$
97
                    3D
 Structure written by MMmdl.
158166  0  0  1  0            999 V2000
  -30.6908  -14.5396   20.5032 C   0  0  0  0  0  0
  -30.4150  -12.3261   19.4466 C   0  0  0  0  0  0
  -29.4986  -12.4858   18.2174 C   0  0  0  0  0  0
  -28.0203  -12.3376   18.6246 C   0  0  0  0  0  0
  -27.6506  -13.2139   19.8507 C   0  0  2  0  0  0
  -28.6923  -13.0821   20.9833 C   0  0  0  0  0  0
  -25.2552  -13.8175   20.5651 C   0  0  0  0  0  0
  -24.1824  -13.0446   20.9147 C   0  0  0  0  0  0
  -24.6386  -11.6906   20.8714 C   0  0  0  0  0  0
  -23.9074  -10.4283   21.0410 C   0  0  0  0  0  0
  -24.3624   -9.4196   21.9188 C   0  0  0  0  0  0
  -23.6293   -8.2229   22.0776 C   0  0  0  0  0  0
  -22.4268   -8.0271   21.3564 C   0  0  0  0  0  0
  -21.9902   -9.0257   20.4663 C   0  0  0  0  0  0
  -22.7247  -10.2126   20.3067 C   0  0  0  0  0  0
  -21.6850   -6.0716   22.5273 C   0  0  0  0  0  0
  -21.4013   -6.5631   23.8208 C   0  0  0  0  0  0
  -21.3659   -5.6789   24.9180 C   0  0  0  0  0  0
  -21.6048   -4.3057   24.7224 C   0  0  0  0  0  0
  -21.8829   -3.8132   23.4348 C   0  0  0  0  0  0
  -21.9195   -4.6938   22.3396 C   0  0  0  0  0  0
  -22.7851  -13.5217   21.1810 C   0  0  0  0  0  0
  -22.1659   -4.2114   21.0979 F   0  0  0  0  0  0
  -21.5627   -3.4557   25.7745 F   0  0  0  0  0  0
  -30.0228  -13.3542   20.4257 N   0  0  0  0  0  0
  -26.2975  -12.9350   20.3265 N   0  0  0  0  0  0
  -25.9313  -11.6505   20.5730 N   0  0  0  0  0  0
  -22.0528  -12.8215   22.0381 N   0  0  0  0  0  0
  -25.4320  -15.1901   20.4076 N   0  0  0  0  0  0
  -31.8463  -14.6430   20.0869 O   0  0  0  0  0  0
  -21.6648   -6.8856   21.4235 O   0  0  0  0  0  0
  -22.3531  -14.5526   20.6661 O   0  0  0  0  0  0
  -24.6190  -31.8639   23.2119 C   0  0  0  0  0  0
  -25.9081  -32.4780   23.8394 C   0  0  1  0  0  0
  -27.1999  -27.3504   20.1088 C   0  0  0  0  0  0
  -25.5929  -33.8586   24.2316 N   0  0  0  0  0  0
  -23.4079  -30.4924   21.5540 C   0  0  2  0  0  0
  -24.8493  -28.9677   20.1040 C   0  0  0  0  0  0
  -22.7438  -29.4646   22.4975 C   0  0  0  0  0  0
  -18.0270  -28.1368   22.8503 C   0  0  0  0  0  0
  -24.1502  -36.7321   23.2635 C   0  0  0  0  0  0
  -25.9467  -30.7972   21.3893 C   0  0  0  0  0  0
  -26.0108  -29.4292   20.7337 C   0  0  0  0  0  0
  -27.1800  -28.6225   20.7482 C   0  0  0  0  0  0
  -26.0461  -26.9913   19.3753 C   0  0  0  0  0  0
  -24.8681  -27.7501   19.4139 C   0  0  0  0  0  0
  -23.6155  -29.8382   20.1635 C   0  0  0  0  0  0
  -25.4098  -36.3084   24.0335 C   0  0  1  0  0  0
  -20.5867  -28.3687   23.1284 C   0  0  2  0  0  0
  -20.6761  -26.9411   22.5410 C   0  0  0  0  0  0
  -19.5743  -26.6377   21.5207 C   0  0  0  0  0  0
  -18.1915  -26.7920   22.1618 C   0  0  0  0  0  0
  -19.1525  -28.8841   23.2896 C   0  0  0  0  0  0
  -18.9451  -30.1433   23.8930 C   0  0  0  0  0  0
  -17.6455  -30.6593   24.0546 C   0  0  0  0  0  0
  -25.9026  -34.9447   23.5115 C   0  0  0  0  0  0
  -16.5344  -29.9083   23.6322 C   0  0  0  0  0  0
  -16.7255  -28.6478   23.0385 C   0  0  0  0  0  0
  -26.4485  -31.6570   25.0744 C   0  0  0  0  0  0
  -25.3753  -31.3704   26.1497 C   0  0  0  0  0  0
  -27.0320  -30.2989   24.6178 C   0  0  0  0  0  0
  -27.6046  -32.4295   25.7520 C   0  0  0  0  0  0
  -27.5578  -37.1820   24.8452 C   0  0  0  0  0  0
  -21.4164  -29.3044   22.3707 N   0  0  0  0  0  0
  -26.4290  -37.3751   23.9401 N   0  0  0  0  0  0
  -24.6758  -31.0674   22.1075 N   0  0  0  0  0  0
  -23.4182  -28.8172   23.3032 O   0  0  0  0  0  0
  -28.3382  -26.5404   20.1808 O   0  0  0  0  0  0
  -26.5567  -34.8913   22.4667 O   0  0  0  0  0  0
  -23.5373  -32.1463   23.7450 O   0  0  0  0  0  0
  -29.9784  -19.6773   20.1967 C   0  0  0  0  0  0
  -30.2218  -18.5223   21.0224 C   0  0  0  0  0  0
  -29.6301  -20.7220   21.0264 C   0  0  0  0  0  0
  -29.9412  -18.9880   22.2797 C   0  0  0  0  0  0
  -29.5971  -23.0072   21.4297 C   0  0  0  0  0  0
  -29.3230  -24.5232   21.2782 C   0  0  0  0  0  0
  -26.8923  -24.3939   20.3556 C   0  0  0  0  0  0
  -30.7853  -17.1515   20.6091 C   0  0  0  0  0  0
  -29.9688  -15.8530   20.9432 C   0  0  0  0  0  0
  -28.3018  -25.0736   20.2172 C   0  0  1  0  0  0
  -29.3442  -22.0274   20.6317 N   0  0  0  0  0  0
  -30.0662  -18.2673   23.4522 N   0  0  0  0  0  0
  -28.7736  -24.5860   18.7745 N   0  3  0  0  0  0
  -29.8745  -25.3273   22.0400 O   0  0  0  0  0  0
  -29.5827  -20.3037   22.3245 O   0  0  0  0  0  0
  -31.4618  -12.4037   19.1492 H   0  0  0  0  0  0
  -30.3024  -11.3331   19.8832 H   0  0  0  0  0  0
  -29.7506  -11.7391   17.4642 H   0  0  0  0  0  0
  -29.6605  -13.4586   17.7500 H   0  0  0  0  0  0
  -27.8483  -11.2852   18.8597 H   0  0  0  0  0  0
  -27.3715  -12.5714   17.7784 H   0  0  0  0  0  0
  -27.6649  -14.2462   19.5022 H   0  0  0  0  0  0
  -28.6648  -12.0829   21.4204 H   0  0  0  0  0  0
  -28.4530  -13.7762   21.7894 H   0  0  0  0  0  0
  -25.2792   -9.5653   22.4740 H   0  0  0  0  0  0
  -23.9997   -7.4629   22.7508 H   0  0  0  0  0  0
  -21.0834   -8.8799   19.8970 H   0  0  0  0  0  0
  -22.3744  -10.9670   19.6153 H   0  0  0  0  0  0
  -21.2013   -7.6149   23.9687 H   0  0  0  0  0  0
  -21.1470   -6.0540   25.9076 H   0  0  0  0  0  0
  -22.0603   -2.7583   23.2884 H   0  0  0  0  0  0
  -22.4186  -11.9891   22.4762 H   0  0  0  0  0  0
  -21.1157  -13.1246   22.2618 H   0  0  0  0  0  0
  -24.6789  -15.8615   20.5274 H   0  0  0  0  0  0
  -26.2968  -15.6215   20.1075 H   0  0  0  0  0  0
  -26.7146  -32.5451   23.1144 H   0  0  0  0  0  0
  -25.0095  -33.9704   25.0476 H   0  0  0  0  0  0
  -22.7003  -31.3127   21.4160 H   0  0  0  0  0  0
  -23.3736  -35.9685   23.3283 H   0  0  0  0  0  0
  -24.3622  -36.8942   22.2060 H   0  0  0  0  0  0
  -23.7308  -37.6544   23.6649 H   0  0  0  0  0  0
  -26.0806  -31.5602   20.6222 H   0  0  0  0  0  0
  -26.8267  -30.8380   22.0177 H   0  0  0  0  0  0
  -28.0623  -28.9567   21.2777 H   0  0  0  0  0  0
  -26.0196  -26.1290   18.7355 H   0  0  0  0  0  0
  -23.9958  -27.4191   18.8640 H   0  0  0  0  0  0
  -23.7206  -30.6174   19.4077 H   0  0  0  0  0  0
  -22.7386  -29.2585   19.8712 H   0  0  0  0  0  0
  -25.1288  -36.1936   25.0828 H   0  0  0  0  0  0
  -20.9946  -28.3264   24.1409 H   0  0  0  0  0  0
  -20.5647  -26.2307   23.3619 H   0  0  0  0  0  0
  -21.6629  -26.7445   22.1208 H   0  0  0  0  0  0
  -19.6911  -25.6287   21.1241 H   0  0  0  0  0  0
  -19.6671  -27.3185   20.6744 H   0  0  0  0  0  0
  -17.4181  -26.6686   21.4019 H   0  0  0  0  0  0
  -18.0317  -26.0039   22.9001 H   0  0  0  0  0  0
  -19.7922  -30.7223   24.2353 H   0  0  0  0  0  0
  -17.5008  -31.6282   24.5131 H   0  0  0  0  0  0
  -15.5345  -30.2995   23.7625 H   0  0  0  0  0  0
  -15.8652  -28.0767   22.7156 H   0  0  0  0  0  0
  -24.5942  -30.7010   25.7868 H   0  0  0  0  0  0
  -24.8924  -32.2867   26.4895 H   0  0  0  0  0  0
  -25.8120  -30.8935   27.0290 H   0  0  0  0  0  0
  -26.2894  -29.6761   24.1173 H   0  0  0  0  0  0
  -27.4012  -29.7201   25.4657 H   0  0  0  0  0  0
  -27.8773  -30.4257   23.9415 H   0  0  0  0  0  0
  -27.2641  -33.3581   26.2108 H   0  0  0  0  0  0
  -28.3862  -32.6876   25.0368 H   0  0  0  0  0  0
  -28.0713  -31.8422   26.5436 H   0  0  0  0  0  0
  -28.2557  -38.0138   24.7449 H   0  0  0  0  0  0
  -28.1113  -36.2668   24.6320 H   0  0  0  0  0  0
  -27.2297  -37.1506   25.8849 H   0  0  0  0  0  0
  -20.9352  -29.8803   21.6941 H   0  0  0  0  0  0
  -26.0183  -38.2837   24.1361 H   0  0  0  0  0  0
  -30.0995  -19.7426   19.1234 H   0  0  0  0  0  0
  -30.0939  -22.7714   22.3757 H   0  0  0  0  0  0
  -26.9629  -23.3856   20.7634 H   0  0  0  0  0  0
  -26.3877  -24.2613   19.3983 H   0  0  0  0  0  0
  -26.2596  -24.9495   21.0509 H   0  0  0  0  0  0
  -31.7656  -17.0807   21.0833 H   0  0  0  0  0  0
  -30.9853  -17.1862   19.5370 H   0  0  0  0  0  0
  -29.0118  -15.9112   20.4243 H   0  0  0  0  0  0
  -29.7558  -15.7922   22.0082 H   0  0  0  0  0  0
  -29.9100  -18.6646   24.3709 H   0  0  0  0  0  0
  -30.4465  -17.3278   23.4872 H   0  0  0  0  0  0
  -28.7817  -23.5835   18.7056 H   0  0  0  0  0  0
  -29.7096  -24.9001   18.5894 H   0  0  0  0  0  0
  -28.1912  -24.9523   18.0457 H   0  0  0  0  0  0
  1 25  1  0  0  0
  1 30  2  0  0  0
  1 79  1  0  0  0
  2  3  1  0  0  0
  2 25  1  0  0  0
  2 86  1  0  0  0
  2 87  1  0  0  0
  3  4  1  0  0  0
  3 88  1  0  0  0
  3 89  1  0  0  0
  4  5  1  0  0  0
  4 90  1  0  0  0
  4 91  1  0  0  0
  5  6  1  0  0  0
  5 26  1  0  0  0
  5 92  1  0  0  0
  6 25  1  0  0  0
  6 93  1  0  0  0
  6 94  1  0  0  0
  7  8  2  0  0  0
  7 26  1  0  0  0
  7 29  1  0  0  0
  8  9  1  0  0  0
  8 22  1  0  0  0
  9 10  1  0  0  0
  9 27  2  0  0  0
 10 11  2  0  0  0
 10 15  1  0  0  0
 11 12  1  0  0  0
 11 95  1  0  0  0
 12 13  2  0  0  0
 12 96  1  0  0  0
 13 14  1  0  0  0
 13 31  1  0  0  0
 14 15  2  0  0  0
 14 97  1  0  0  0
 15 98  1  0  0  0
 16 17  2  0  0  0
 16 21  1  0  0  0
 16 31  1  0  0  0
 17 18  1  0  0  0
 17 99  1  0  0  0
 18 19  2  0  0  0
 18100  1  0  0  0
 19 20  1  0  0  0
 19 24  1  0  0  0
 20 21  2  0  0  0
 20101  1  0  0  0
 21 23  1  0  0  0
 22 28  1  0  0  0
 22 32  2  0  0  0
 26 27  1  0  0  0
 28102  1  0  0  0
 28103  1  0  0  0
 29104  1  0  0  0
 29105  1  0  0  0
 33 34  1  0  0  0
 33 66  1  0  0  0
 33 70  2  0  0  0
 34 36  1  0  0  0
 34 59  1  0  0  0
 34106  1  0  0  0
 35 44  2  0  0  0
 35 45  1  0  0  0
 35 68  1  0  0  0
 36 56  1  0  0  0
 36107  1  0  0  0
 37 39  1  0  0  0
 37 47  1  0  0  0
 37 66  1  0  0  0
 37108  1  0  0  0
 38 43  2  0  0  0
 38 46  1  0  0  0
 38 47  1  0  0  0
 39 64  1  0  0  0
 39 67  2  0  0  0
 40 52  1  0  0  0
 40 53  2  0  0  0
 40 58  1  0  0  0
 41109  1  0  0  0
 41110  1  0  0  0
 41111  1  0  0  0
 41 48  1  0  0  0
 42 43  1  0  0  0
 42 66  1  0  0  0
 42112  1  0  0  0
 42113  1  0  0  0
 43 44  1  0  0  0
 44114  1  0  0  0
 45 46  2  0  0  0
 45115  1  0  0  0
 46116  1  0  0  0
 47117  1  0  0  0
 47118  1  0  0  0
 48 56  1  0  0  0
 48 65  1  0  0  0
 48119  1  0  0  0
 49 50  1  0  0  0
 49 53  1  0  0  0
 49 64  1  0  0  0
 49120  1  0  0  0
 50 51  1  0  0  0
 50121  1  0  0  0
 50122  1  0  0  0
 51 52  1  0  0  0
 51123  1  0  0  0
 51124  1  0  0  0
 52125  1  0  0  0
 52126  1  0  0  0
 53 54  1  0  0  0
 54 55  2  0  0  0
 54127  1  0  0  0
 55 57  1  0  0  0
 55128  1  0  0  0
 56 69  2  0  0  0
 57 58  2  0  0  0
 57129  1  0  0  0
 58130  1  0  0  0
 59 60  1  0  0  0
 59 61  1  0  0  0
 59 62  1  0  0  0
 60131  1  0  0  0
 60132  1  0  0  0
 60133  1  0  0  0
 61134  1  0  0  0
 61135  1  0  0  0
 61136  1  0  0  0
 62137  1  0  0  0
 62138  1  0  0  0
 62139  1  0  0  0
 63 65  1  0  0  0
 63140  1  0  0  0
 63141  1  0  0  0
 63142  1  0  0  0
 64143  1  0  0  0
 65144  1  0  0  0
 68 80  1  0  0  0
 71 72  1  0  0  0
 71 73  2  0  0  0
 71145  1  0  0  0
 72 74  2  0  0  0
 72 78  1  0  0  0
 73 81  1  0  0  0
 73 85  1  0  0  0
 74 82  1  0  0  0
 74 85  1  0  0  0
 75 76  1  0  0  0
 75 81  2  0  0  0
 75146  1  0  0  0
 76 84  2  0  0  0
 76 80  1  0  0  0
 77147  1  0  0  0
 77148  1  0  0  0
 77149  1  0  0  0
 77 80  1  0  0  0
 78 79  1  0  0  0
 78150  1  0  0  0
 78151  1  0  0  0
 79152  1  0  0  0
 79153  1  0  0  0
 80 83  1  0  0  0
 82154  1  0  0  0
 82155  1  0  0  0
 83156  1  0  0  0
 83157  1  0  0  0
 83158  1  0  0  0
M  CHG  1  83   1
M  ISO  4   1 100  68 101  79 100  80 101
M  END
> <chiral flag>
0

> <version>
0

> <s_m_source_file>
/data/baiqing/PycharmProjects/Reinvent-master-3.2/result/LINK_invent/BTK/process_docking_weight1_custom_product_contain_oxygen_bond_distance_aromatic_linkinvent_7_9_3/rearranged_h_0161.sdf

> <i_m_source_file_index>
98

> <r_mmod_Potential_Energy-OPLS-2005>
-346.554382324219

> <r_mmod_Stretch_Energy-OPLS-2005>
61.6639671325684

> <r_mmod_Bend_Energy-OPLS-2005>
149.731262207031

> <r_mmod_Torsional_Energy-OPLS-2005>
202.285018920898

> <r_mmod_Improper_Torsional_Energy-OPLS-2005>
4.67819976806641

> <r_mmod_Van_der_Waal_Energy-OPLS-2005>
143.688278198242

> <r_mmod_Electrostatic_Energy-OPLS-2005>
-415.066833496094

> <r_mmod_Solvation_Energy-OPLS-2005>
-528.948608398438

> <b_mmod_Minimization_Converged-OPLS-2005>
0

> <r_mmod_RMS_Derivative-OPLS-2005>
3.41129899024963

$$$$
98
                    3D
 Structure written by MMmdl.
156164  0  0  1  0            999 V2000
  -30.5772  -14.7636   20.4563 C   0  0  0  0  0  0
  -30.4423  -12.4738   19.4547 C   0  0  0  0  0  0
  -29.5043  -12.5296   18.2254 C   0  0  0  0  0  0
  -28.0306  -12.3529   18.6421 C   0  0  0  0  0  0
  -27.6480  -13.2274   19.8640 C   0  0  2  0  0  0
  -28.6993  -13.1254   20.9915 C   0  0  0  0  0  0
  -25.2551  -13.8187   20.5725 C   0  0  0  0  0  0
  -24.1840  -13.0470   20.9232 C   0  0  0  0  0  0
  -24.6401  -11.6923   20.8769 C   0  0  0  0  0  0
  -23.9073  -10.4319   21.0433 C   0  0  0  0  0  0
  -24.3626   -9.4226   21.9199 C   0  0  0  0  0  0
  -23.6307   -8.2259   22.0754 C   0  0  0  0  0  0
  -22.4286   -8.0298   21.3543 C   0  0  0  0  0  0
  -21.9924   -9.0280   20.4649 C   0  0  0  0  0  0
  -22.7253  -10.2160   20.3076 C   0  0  0  0  0  0
  -21.6851   -6.0753   22.5290 C   0  0  0  0  0  0
  -21.3998   -6.5652   23.8222 C   0  0  0  0  0  0
  -21.3656   -5.6801   24.9183 C   0  0  0  0  0  0
  -21.6054   -4.3065   24.7228 C   0  0  0  0  0  0
  -21.8816   -3.8162   23.4344 C   0  0  0  0  0  0
  -21.9189   -4.6984   22.3407 C   0  0  0  0  0  0
  -22.7857  -13.5251   21.1899 C   0  0  0  0  0  0
  -22.1665   -4.2175   21.0983 F   0  0  0  0  0  0
  -21.5637   -3.4544   25.7735 F   0  0  0  0  0  0
  -29.9942  -13.5113   20.4150 N   0  0  0  0  0  0
  -26.2980  -12.9385   20.3355 N   0  0  0  0  0  0
  -25.9335  -11.6533   20.5793 N   0  0  0  0  0  0
  -22.0481  -12.8242   22.0426 N   0  0  0  0  0  0
  -25.4307  -15.1925   20.4124 N   0  0  0  0  0  0
  -31.7462  -14.9015   20.0848 O   0  0  0  0  0  0
  -21.6639   -6.8902   21.4251 O   0  0  0  0  0  0
  -22.3570  -14.5596   20.6781 O   0  0  0  0  0  0
  -24.6365  -31.8548   23.1974 C   0  0  0  0  0  0
  -25.9175  -32.4744   23.8300 C   0  0  1  0  0  0
  -27.2119  -27.2209   20.1230 C   0  0  0  0  0  0
  -25.5947  -33.8541   24.2219 N   0  0  0  0  0  0
  -23.4264  -30.4818   21.5523 C   0  0  2  0  0  0
  -24.8654  -28.9240   20.1172 C   0  0  0  0  0  0
  -22.7498  -29.4603   22.4988 C   0  0  0  0  0  0
  -18.0265  -28.1357   22.8486 C   0  0  0  0  0  0
  -24.1502  -36.7292   23.2641 C   0  0  0  0  0  0
  -25.9800  -30.7640   21.3695 C   0  0  0  0  0  0
  -26.0529  -29.3863   20.7015 C   0  0  0  0  0  0
  -27.2280  -28.5559   20.6780 C   0  0  0  0  0  0
  -25.9853  -26.8314   19.5345 C   0  0  0  0  0  0
  -24.8402  -27.6523   19.5308 C   0  0  0  0  0  0
  -23.6365  -29.8199   20.1681 C   0  0  0  0  0  0
  -25.4121  -36.3047   24.0320 C   0  0  1  0  0  0
  -20.5872  -28.3656   23.1307 C   0  0  2  0  0  0
  -20.6746  -26.9367   22.5438 C   0  0  0  0  0  0
  -19.5734  -26.6345   21.5226 C   0  0  0  0  0  0
  -18.1908  -26.7895   22.1626 C   0  0  0  0  0  0
  -19.1523  -28.8829   23.2871 C   0  0  0  0  0  0
  -18.9432  -30.1436   23.8861 C   0  0  0  0  0  0
  -17.6427  -30.6561   24.0535 C   0  0  0  0  0  0
  -25.9068  -34.9432   23.5076 C   0  0  0  0  0  0
  -16.5318  -29.9041   23.6331 C   0  0  0  0  0  0
  -16.7246  -28.6461   23.0356 C   0  0  0  0  0  0
  -26.4482  -31.6575   25.0721 C   0  0  0  0  0  0
  -25.3671  -31.3760   26.1421 C   0  0  0  0  0  0
  -27.0328  -30.2979   24.6252 C   0  0  0  0  0  0
  -27.6025  -32.4316   25.7508 C   0  0  0  0  0  0
  -27.5577  -37.1806   24.8456 C   0  0  0  0  0  0
  -21.4205  -29.3010   22.3717 N   0  0  0  0  0  0
  -26.4293  -37.3746   23.9393 N   0  0  0  0  0  0
  -24.7023  -31.0502   22.0957 N   0  0  0  0  0  0
  -23.4196  -28.8134   23.3083 O   0  0  0  0  0  0
  -28.3054  -26.3005   20.1903 O   0  0  0  0  0  0
  -26.5655  -34.8909   22.4655 O   0  0  0  0  0  0
  -23.5530  -32.1384   23.7296 O   0  0  0  0  0  0
  -29.7931  -18.3769   21.1835 C   0  0  0  0  0  0
  -29.5514  -19.5165   20.2846 C   0  0  0  0  0  0
  -29.7748  -17.2076   20.4134 C   0  0  0  0  0  0
  -29.6024  -21.0119   20.7263 C   0  0  0  0  0  0
  -28.3439  -24.7347   18.3292 C   0  0  0  0  0  0
  -29.2382  -16.8402   17.9518 C   0  0  0  0  0  0
  -29.1196  -23.6620   20.5364 C   0  0  0  0  0  0
  -28.1670  -24.8132   19.8529 C   0  0  1  0  0  0
  -29.3874  -19.0202   19.0515 N   0  0  0  0  0  0
  -29.4912  -17.6489   19.1297 N   0  0  0  0  0  0
  -30.3772  -21.2281   21.7957 N   0  0  0  0  0  0
  -29.7841  -15.8512   20.8148 N   0  0  0  0  0  0
  -28.9964  -22.1485   20.1532 N   0  3  0  0  0  0
  -31.4779  -12.6226   19.1401 H   0  0  0  0  0  0
  -30.4134  -11.4860   19.9182 H   0  0  0  0  0  0
  -29.7799  -11.7593   17.5043 H   0  0  0  0  0  0
  -29.6247  -13.4853   17.7121 H   0  0  0  0  0  0
  -27.8755  -11.3000   18.8784 H   0  0  0  0  0  0
  -27.3714  -12.5751   17.8027 H   0  0  0  0  0  0
  -27.6514  -14.2583   19.5110 H   0  0  0  0  0  0
  -28.7449  -12.1061   21.3815 H   0  0  0  0  0  0
  -28.4343  -13.7578   21.8405 H   0  0  0  0  0  0
  -25.2771   -9.5704   22.4766 H   0  0  0  0  0  0
  -24.0028   -7.4644   22.7456 H   0  0  0  0  0  0
  -21.0857   -8.8800   19.8945 H   0  0  0  0  0  0
  -22.3717  -10.9704   19.6192 H   0  0  0  0  0  0
  -21.1968   -7.6153   23.9738 H   0  0  0  0  0  0
  -21.1485   -6.0520   25.9088 H   0  0  0  0  0  0
  -22.0591   -2.7624   23.2836 H   0  0  0  0  0  0
  -22.4048  -11.9877   22.4802 H   0  0  0  0  0  0
  -21.1114  -13.1293   22.2650 H   0  0  0  0  0  0
  -24.6707  -15.8538   20.5301 H   0  0  0  0  0  0
  -26.2758  -15.6211   20.0608 H   0  0  0  0  0  0
  -26.7252  -32.5331   23.1038 H   0  0  0  0  0  0
  -24.9988  -33.9676   25.0287 H   0  0  0  0  0  0
  -22.7232  -31.3078   21.4243 H   0  0  0  0  0  0
  -23.3747  -35.9641   23.3299 H   0  0  0  0  0  0
  -24.3578  -36.8926   22.2052 H   0  0  0  0  0  0
  -23.7305  -37.6508   23.6685 H   0  0  0  0  0  0
  -26.1259  -31.5348   20.6100 H   0  0  0  0  0  0
  -26.8538  -30.8010   22.0090 H   0  0  0  0  0  0
  -28.1369  -28.9312   21.1254 H   0  0  0  0  0  0
  -25.8486  -25.8543   19.0990 H   0  0  0  0  0  0
  -23.9193  -27.2742   19.1065 H   0  0  0  0  0  0
  -23.7594  -30.6097   19.4280 H   0  0  0  0  0  0
  -22.7440  -29.2759   19.8526 H   0  0  0  0  0  0
  -25.1326  -36.1868   25.0822 H   0  0  0  0  0  0
  -20.9940  -28.3199   24.1441 H   0  0  0  0  0  0
  -20.5623  -26.2244   23.3632 H   0  0  0  0  0  0
  -21.6618  -26.7370   22.1251 H   0  0  0  0  0  0
  -19.6895  -25.6259   21.1241 H   0  0  0  0  0  0
  -19.6679  -27.3172   20.6776 H   0  0  0  0  0  0
  -17.4179  -26.6635   21.4017 H   0  0  0  0  0  0
  -18.0286  -26.0036   22.9029 H   0  0  0  0  0  0
  -19.7901  -30.7274   24.2211 H   0  0  0  0  0  0
  -17.4962  -31.6246   24.5131 H   0  0  0  0  0  0
  -15.5313  -30.2917   23.7685 H   0  0  0  0  0  0
  -15.8640  -28.0757   22.7108 H   0  0  0  0  0  0
  -24.5858  -30.7108   25.7733 H   0  0  0  0  0  0
  -24.8847  -32.2953   26.4765 H   0  0  0  0  0  0
  -25.7931  -30.8975   27.0253 H   0  0  0  0  0  0
  -26.2956  -29.6766   24.1162 H   0  0  0  0  0  0
  -27.3860  -29.7208   25.4810 H   0  0  0  0  0  0
  -27.8888  -30.4240   23.9617 H   0  0  0  0  0  0
  -27.2614  -33.3626   26.2051 H   0  0  0  0  0  0
  -28.3837  -32.6854   25.0333 H   0  0  0  0  0  0
  -28.0685  -31.8466   26.5449 H   0  0  0  0  0  0
  -28.2584  -38.0103   24.7450 H   0  0  0  0  0  0
  -28.1088  -36.2630   24.6347 H   0  0  0  0  0  0
  -27.2290  -37.1526   25.8857 H   0  0  0  0  0  0
  -20.9404  -29.8700   21.6885 H   0  0  0  0  0  0
  -26.0167  -38.2828   24.1347 H   0  0  0  0  0  0
  -29.9533  -18.4105   22.2519 H   0  0  0  0  0  0
  -28.1367  -23.7328   17.9533 H   0  0  0  0  0  0
  -29.3634  -24.9980   18.0480 H   0  0  0  0  0  0
  -27.6841  -25.4212   17.8042 H   0  0  0  0  0  0
  -30.0506  -16.1299   17.8108 H   0  0  0  0  0  0
  -29.1599  -17.4545   17.0539 H   0  0  0  0  0  0
  -28.3125  -16.2808   18.1006 H   0  0  0  0  0  0
  -28.9877  -23.7373   21.6156 H   0  0  0  0  0  0
  -30.1605  -23.9373   20.3671 H   0  0  0  0  0  0
  -27.1538  -24.5025   20.1127 H   0  0  0  0  0  0
  -30.7653  -20.4288   22.2722 H   0  0  0  0  0  0
  -30.6719  -22.1384   22.1022 H   0  0  0  0  0  0
  -28.9077  -15.5445   21.2065 H   0  0  0  0  0  0
  -28.4643  -21.9736   19.3103 H   0  0  0  0  0  0
  1 25  1  0  0  0
  1 30  2  0  0  0
  1 82  1  0  0  0
  2  3  1  0  0  0
  2 25  1  0  0  0
  2 84  1  0  0  0
  2 85  1  0  0  0
  3  4  1  0  0  0
  3 86  1  0  0  0
  3 87  1  0  0  0
  4  5  1  0  0  0
  4 88  1  0  0  0
  4 89  1  0  0  0
  5  6  1  0  0  0
  5 26  1  0  0  0
  5 90  1  0  0  0
  6 25  1  0  0  0
  6 91  1  0  0  0
  6 92  1  0  0  0
  7  8  2  0  0  0
  7 26  1  0  0  0
  7 29  1  0  0  0
  8  9  1  0  0  0
  8 22  1  0  0  0
  9 10  1  0  0  0
  9 27  2  0  0  0
 10 11  2  0  0  0
 10 15  1  0  0  0
 11 12  1  0  0  0
 11 93  1  0  0  0
 12 13  2  0  0  0
 12 94  1  0  0  0
 13 14  1  0  0  0
 13 31  1  0  0  0
 14 15  2  0  0  0
 14 95  1  0  0  0
 15 96  1  0  0  0
 16 17  2  0  0  0
 16 21  1  0  0  0
 16 31  1  0  0  0
 17 18  1  0  0  0
 17 97  1  0  0  0
 18 19  2  0  0  0
 18 98  1  0  0  0
 19 20  1  0  0  0
 19 24  1  0  0  0
 20 21  2  0  0  0
 20 99  1  0  0  0
 21 23  1  0  0  0
 22 28  1  0  0  0
 22 32  2  0  0  0
 26 27  1  0  0  0
 28100  1  0  0  0
 28101  1  0  0  0
 29102  1  0  0  0
 29103  1  0  0  0
 33 34  1  0  0  0
 33 66  1  0  0  0
 33 70  2  0  0  0
 34 36  1  0  0  0
 34 59  1  0  0  0
 34104  1  0  0  0
 35 44  2  0  0  0
 35 45  1  0  0  0
 35 68  1  0  0  0
 36 56  1  0  0  0
 36105  1  0  0  0
 37 39  1  0  0  0
 37 47  1  0  0  0
 37 66  1  0  0  0
 37106  1  0  0  0
 38 43  2  0  0  0
 38 46  1  0  0  0
 38 47  1  0  0  0
 39 64  1  0  0  0
 39 67  2  0  0  0
 40 52  1  0  0  0
 40 53  2  0  0  0
 40 58  1  0  0  0
 41107  1  0  0  0
 41108  1  0  0  0
 41109  1  0  0  0
 41 48  1  0  0  0
 42 43  1  0  0  0
 42 66  1  0  0  0
 42110  1  0  0  0
 42111  1  0  0  0
 43 44  1  0  0  0
 44112  1  0  0  0
 45 46  2  0  0  0
 45113  1  0  0  0
 46114  1  0  0  0
 47115  1  0  0  0
 47116  1  0  0  0
 48 56  1  0  0  0
 48 65  1  0  0  0
 48117  1  0  0  0
 49 50  1  0  0  0
 49 53  1  0  0  0
 49 64  1  0  0  0
 49118  1  0  0  0
 50 51  1  0  0  0
 50119  1  0  0  0
 50120  1  0  0  0
 51 52  1  0  0  0
 51121  1  0  0  0
 51122  1  0  0  0
 52123  1  0  0  0
 52124  1  0  0  0
 53 54  1  0  0  0
 54 55  2  0  0  0
 54125  1  0  0  0
 55 57  1  0  0  0
 55126  1  0  0  0
 56 69  2  0  0  0
 57 58  2  0  0  0
 57127  1  0  0  0
 58128  1  0  0  0
 59 60  1  0  0  0
 59 61  1  0  0  0
 59 62  1  0  0  0
 60129  1  0  0  0
 60130  1  0  0  0
 60131  1  0  0  0
 61132  1  0  0  0
 61133  1  0  0  0
 61134  1  0  0  0
 62135  1  0  0  0
 62136  1  0  0  0
 62137  1  0  0  0
 63 65  1  0  0  0
 63138  1  0  0  0
 63139  1  0  0  0
 63140  1  0  0  0
 64141  1  0  0  0
 65142  1  0  0  0
 68 78  1  0  0  0
 71 72  1  0  0  0
 71 73  2  0  0  0
 71143  1  0  0  0
 72 74  1  0  0  0
 72 79  2  0  0  0
 73 80  1  0  0  0
 73 82  1  0  0  0
 74 81  1  0  0  0
 74 83  2  0  0  0
 75144  1  0  0  0
 75145  1  0  0  0
 75146  1  0  0  0
 75 78  1  0  0  0
 76 80  1  0  0  0
 76147  1  0  0  0
 76148  1  0  0  0
 76149  1  0  0  0
 77 78  1  0  0  0
 77 83  1  0  0  0
 77150  1  0  0  0
 77151  1  0  0  0
 78152  1  0  0  0
 79 80  1  0  0  0
 81153  1  0  0  0
 81154  1  0  0  0
 82155  1  0  0  0
 83156  1  0  0  0
M  CHG  1  83   1
M  ISO  4   1 100  68 101  78 101  82 100
M  END
> <chiral flag>
0

> <version>
0

> <s_m_source_file>
/data/baiqing/PycharmProjects/Reinvent-master-3.2/result/LINK_invent/BTK/process_docking_weight1_custom_product_contain_oxygen_bond_distance_aromatic_linkinvent_7_9_3/rearranged_h_0161.sdf

> <i_m_source_file_index>
99

> <r_mmod_Potential_Energy-OPLS-2005>
-98.8422622680664

> <r_mmod_Stretch_Energy-OPLS-2005>
152.693237304688

> <r_mmod_Bend_Energy-OPLS-2005>
194.819000244141

> <r_mmod_Torsional_Energy-OPLS-2005>
235.665939331055

> <r_mmod_Improper_Torsional_Energy-OPLS-2005>
6.2943377494812

> <r_mmod_Van_der_Waal_Energy-OPLS-2005>
114.268035888672

> <r_mmod_Electrostatic_Energy-OPLS-2005>
-433.138610839844

> <r_mmod_Solvation_Energy-OPLS-2005>
-468.209350585938

> <b_mmod_Minimization_Converged-OPLS-2005>
0

> <r_mmod_RMS_Derivative-OPLS-2005>
5.05045413970947

$$$$
