0
                    3D
 Structure written by MMmdl.
159168  0  0  1  0            999 V2000
  -30.6640  -14.6870   20.4600 C   0  0  0  0  0  0
  -30.4485  -12.4213   19.4546 C   0  0  0  0  0  0
  -29.5238  -12.5014   18.2223 C   0  0  0  0  0  0
  -28.0440  -12.3743   18.6245 C   0  0  0  0  0  0
  -27.6677  -13.2303   19.8675 C   0  0  2  0  0  0
  -28.7213  -13.1256   20.9916 C   0  0  0  0  0  0
  -25.2665  -13.8132   20.5631 C   0  0  0  0  0  0
  -24.1944  -13.0384   20.9100 C   0  0  0  0  0  0
  -24.6535  -11.6868   20.8691 C   0  0  0  0  0  0
  -23.9197  -10.4255   21.0380 C   0  0  0  0  0  0
  -24.3731   -9.4172   21.9165 C   0  0  0  0  0  0
  -23.6332   -8.2256   22.0778 C   0  0  0  0  0  0
  -22.4314   -8.0290   21.3566 C   0  0  0  0  0  0
  -21.9951   -9.0295   20.4707 C   0  0  0  0  0  0
  -22.7335  -10.2140   20.3072 C   0  0  0  0  0  0
  -21.6881   -6.0722   22.5233 C   0  0  0  0  0  0
  -21.4052   -6.5635   23.8159 C   0  0  0  0  0  0
  -21.3652   -5.6789   24.9130 C   0  0  0  0  0  0
  -21.6009   -4.3043   24.7177 C   0  0  0  0  0  0
  -21.8832   -3.8148   23.4304 C   0  0  0  0  0  0
  -21.9208   -4.6960   22.3361 C   0  0  0  0  0  0
  -22.7989  -13.5230   21.1672 C   0  0  0  0  0  0
  -22.1672   -4.2162   21.0945 F   0  0  0  0  0  0
  -21.5616   -3.4520   25.7689 F   0  0  0  0  0  0
  -30.0273  -13.4684   20.4085 N   0  0  0  0  0  0
  -26.3144  -12.9347   20.3373 N   0  0  0  0  0  0
  -25.9498  -11.6486   20.5763 N   0  0  0  0  0  0
  -22.0657  -12.8283   22.0291 N   0  0  0  0  0  0
  -25.4123  -15.1832   20.3947 N   0  0  0  0  0  0
  -31.8423  -14.7890   20.1084 O   0  0  0  0  0  0
  -21.6649   -6.8899   21.4225 O   0  0  0  0  0  0
  -22.3647  -14.5477   20.6418 O   0  0  0  0  0  0
  -24.6250  -31.8610   23.2191 C   0  0  0  0  0  0
  -25.9165  -32.4744   23.8400 C   0  0  1  0  0  0
  -27.1534  -27.2921   20.0896 C   0  0  0  0  0  0
  -25.6012  -33.8552   24.2332 N   0  0  0  0  0  0
  -23.4126  -30.5043   21.5562 C   0  0  2  0  0  0
  -24.8489  -28.9856   20.0847 C   0  0  0  0  0  0
  -22.7420  -29.4670   22.4905 C   0  0  0  0  0  0
  -18.0265  -28.1366   22.8503 C   0  0  0  0  0  0
  -24.1460  -36.7237   23.2651 C   0  0  0  0  0  0
  -25.9631  -30.7720   21.4078 C   0  0  0  0  0  0
  -26.0225  -29.4097   20.7282 C   0  0  0  0  0  0
  -27.1794  -28.5685   20.7466 C   0  0  0  0  0  0
  -26.0041  -27.0021   19.3253 C   0  0  0  0  0  0
  -24.8440  -27.7868   19.3666 C   0  0  0  0  0  0
  -23.6237  -29.8781   20.1554 C   0  0  0  0  0  0
  -25.4086  -36.3037   24.0334 C   0  0  1  0  0  0
  -20.5857  -28.3682   23.1259 C   0  0  2  0  0  0
  -20.6759  -26.9413   22.5386 C   0  0  0  0  0  0
  -19.5744  -26.6389   21.5188 C   0  0  0  0  0  0
  -18.1923  -26.7923   22.1611 C   0  0  0  0  0  0
  -19.1514  -28.8839   23.2893 C   0  0  0  0  0  0
  -18.9477  -30.1463   23.8872 C   0  0  0  0  0  0
  -17.6483  -30.6592   24.0558 C   0  0  0  0  0  0
  -25.9081  -34.9426   23.5125 C   0  0  0  0  0  0
  -16.5364  -29.9093   23.6336 C   0  0  0  0  0  0
  -16.7260  -28.6497   23.0372 C   0  0  0  0  0  0
  -26.4597  -31.6564   25.0749 C   0  0  0  0  0  0
  -25.3868  -31.3746   26.1502 C   0  0  0  0  0  0
  -27.0463  -30.2926   24.6327 C   0  0  0  0  0  0
  -27.6110  -32.4346   25.7512 C   0  0  0  0  0  0
  -27.5546  -37.1782   24.8484 C   0  0  0  0  0  0
  -21.4142  -29.3046   22.3611 N   0  0  0  0  0  0
  -26.4257  -37.3742   23.9413 N   0  0  0  0  0  0
  -24.6834  -31.0644   22.1130 N   0  0  0  0  0  0
  -23.4134  -28.8145   23.2959 O   0  0  0  0  0  0
  -28.1155  -26.2668   20.1839 O   0  0  0  0  0  0
  -26.5609  -34.8910   22.4662 O   0  0  0  0  0  0
  -23.5429  -32.1464   23.7537 O   0  0  0  0  0  0
  -31.1684  -19.1086   19.2789 C   0  0  0  0  0  0
  -30.3311  -20.0682   19.8950 C   0  0  0  0  0  0
  -31.0682  -17.7287   19.5774 C   0  0  0  0  0  0
  -29.1473  -18.2142   20.9755 C   0  0  0  0  0  0
  -29.3368  -19.6577   20.8045 C   0  0  0  0  0  0
  -30.0622  -17.2330   20.4454 C   0  0  0  0  0  0
  -27.9652  -21.9175   21.2061 C   0  0  0  0  0  0
  -28.3202  -20.4611   22.8757 C   0  0  0  0  0  0
  -28.4885  -23.1040   20.7054 C   0  0  0  0  0  0
  -26.6237  -21.7893   21.9314 C   0  0  0  0  0  0
  -27.0068  -21.1219   23.2551 C   0  0  0  0  0  0
  -27.8911  -17.6435   21.6257 C   0  0  0  0  0  0
  -28.6096  -20.6787   21.5786 N   0  0  0  0  0  0
  -29.8925  -15.7914   20.7416 N   0  0  0  0  0  0
  -29.0043  -19.8386   23.6929 O   0  0  0  0  0  0
  -27.4299  -24.9831   22.3134 O   0  0  0  0  0  0
  -26.2648  -24.3979   20.1657 O   0  0  0  0  0  0
  -27.5234  -24.7369   20.8639 S   0  0  0  0  0  0
  -31.4915  -12.5321   19.1531 H   0  0  0  0  0  0
  -30.3778  -11.4382   19.9174 H   0  0  0  0  0  0
  -29.7862  -11.7164   17.5108 H   0  0  0  0  0  0
  -29.6863  -13.4393   17.6930 H   0  0  0  0  0  0
  -27.8543  -11.3199   18.8258 H   0  0  0  0  0  0
  -27.4056  -12.6391   17.7797 H   0  0  0  0  0  0
  -27.6791  -14.2669   19.5294 H   0  0  0  0  0  0
  -28.7541  -12.1171   21.4111 H   0  0  0  0  0  0
  -28.4799  -13.7953   21.8181 H   0  0  0  0  0  0
  -25.2897   -9.5577   22.4725 H   0  0  0  0  0  0
  -23.9966   -7.4659   22.7541 H   0  0  0  0  0  0
  -21.0824   -8.8866   19.9082 H   0  0  0  0  0  0
  -22.3789  -10.9692   19.6186 H   0  0  0  0  0  0
  -21.2092   -7.6150   23.9655 H   0  0  0  0  0  0
  -21.1449   -6.0537   25.9030 H   0  0  0  0  0  0
  -22.0632   -2.7612   23.2785 H   0  0  0  0  0  0
  -22.4336  -12.0041   22.4786 H   0  0  0  0  0  0
  -21.1291  -13.1354   22.2475 H   0  0  0  0  0  0
  -24.5845  -15.7662   20.4536 H   0  0  0  0  0  0
  -26.1535  -15.6016   19.8509 H   0  0  0  0  0  0
  -26.7185  -32.5347   23.1092 H   0  0  0  0  0  0
  -25.0117  -33.9668   25.0443 H   0  0  0  0  0  0
  -22.7092  -31.3294   21.4403 H   0  0  0  0  0  0
  -23.3717  -35.9589   23.3356 H   0  0  0  0  0  0
  -24.3552  -36.8777   22.2060 H   0  0  0  0  0  0
  -23.7255  -37.6468   23.6644 H   0  0  0  0  0  0
  -26.1313  -31.5508   20.6624 H   0  0  0  0  0  0
  -26.8278  -30.7803   22.0573 H   0  0  0  0  0  0
  -28.0587  -28.8784   21.2913 H   0  0  0  0  0  0
  -25.9518  -26.1201   18.7040 H   0  0  0  0  0  0
  -23.9640  -27.4801   18.8132 H   0  0  0  0  0  0
  -23.7484  -30.6833   19.4274 H   0  0  0  0  0  0
  -22.7312  -29.3331   19.8387 H   0  0  0  0  0  0
  -25.1292  -36.1867   25.0830 H   0  0  0  0  0  0
  -20.9992  -28.3284   24.1367 H   0  0  0  0  0  0
  -20.5623  -26.2334   23.3592 H   0  0  0  0  0  0
  -21.6641  -26.7422   22.1220 H   0  0  0  0  0  0
  -19.6911  -25.6302   21.1208 H   0  0  0  0  0  0
  -19.6668  -27.3203   20.6718 H   0  0  0  0  0  0
  -17.4196  -26.6669   21.4003 H   0  0  0  0  0  0
  -18.0336  -26.0046   22.8991 H   0  0  0  0  0  0
  -19.7973  -30.7293   24.2187 H   0  0  0  0  0  0
  -17.5057  -31.6253   24.5189 H   0  0  0  0  0  0
  -15.5367  -30.2989   23.7728 H   0  0  0  0  0  0
  -15.8655  -28.0823   22.7104 H   0  0  0  0  0  0
  -24.6024  -30.7077   25.7946 H   0  0  0  0  0  0
  -24.9086  -32.2913   26.4926 H   0  0  0  0  0  0
  -25.8227  -30.8978   27.0278 H   0  0  0  0  0  0
  -26.3073  -29.6593   24.1371 H   0  0  0  0  0  0
  -27.4112  -29.7284   25.4944 H   0  0  0  0  0  0
  -27.8994  -30.4138   23.9625 H   0  0  0  0  0  0
  -27.2661  -33.3645   26.2043 H   0  0  0  0  0  0
  -28.3926  -32.6892   25.0352 H   0  0  0  0  0  0
  -28.0767  -31.8502   26.5454 H   0  0  0  0  0  0
  -28.2654  -38.0013   24.7445 H   0  0  0  0  0  0
  -28.0970  -36.2529   24.6414 H   0  0  0  0  0  0
  -27.2260  -37.1544   25.8908 H   0  0  0  0  0  0
  -20.9286  -29.8812   21.6866 H   0  0  0  0  0  0
  -26.0114  -38.2804   24.1442 H   0  0  0  0  0  0
  -31.9219  -19.4467   18.5833 H   0  0  0  0  0  0
  -30.4725  -21.1208   19.6875 H   0  0  0  0  0  0
  -31.7641  -17.0510   19.1025 H   0  0  0  0  0  0
  -29.5000  -23.2206   20.3554 H   0  0  0  0  0  0
  -25.9514  -21.1331   21.3723 H   0  0  0  0  0  0
  -26.0832  -22.7199   22.1003 H   0  0  0  0  0  0
  -27.1420  -21.8502   24.0523 H   0  0  0  0  0  0
  -26.2812  -20.3772   23.5906 H   0  0  0  0  0  0
  -27.1002  -18.3760   21.7587 H   0  0  0  0  0  0
  -28.1051  -17.1745   22.5872 H   0  0  0  0  0  0
  -27.4614  -16.8990   20.9583 H   0  0  0  0  0  0
  -29.0042  -15.5483   21.1531 H   0  0  0  0  0  0
  1 25  1  0  0  0
  1 30  2  0  0  0
  1 84  1  0  0  0
  2  3  1  0  0  0
  2 25  1  0  0  0
  2 89  1  0  0  0
  2 90  1  0  0  0
  3  4  1  0  0  0
  3 91  1  0  0  0
  3 92  1  0  0  0
  4  5  1  0  0  0
  4 93  1  0  0  0
  4 94  1  0  0  0
  5  6  1  0  0  0
  5 26  1  0  0  0
  5 95  1  0  0  0
  6 25  1  0  0  0
  6 96  1  0  0  0
  6 97  1  0  0  0
  7  8  2  0  0  0
  7 26  1  0  0  0
  7 29  1  0  0  0
  8  9  1  0  0  0
  8 22  1  0  0  0
  9 10  1  0  0  0
  9 27  2  0  0  0
 10 11  2  0  0  0
 10 15  1  0  0  0
 11 12  1  0  0  0
 11 98  1  0  0  0
 12 13  2  0  0  0
 12 99  1  0  0  0
 13 14  1  0  0  0
 13 31  1  0  0  0
 14 15  2  0  0  0
 14100  1  0  0  0
 15101  1  0  0  0
 16 17  2  0  0  0
 16 21  1  0  0  0
 16 31  1  0  0  0
 17 18  1  0  0  0
 17102  1  0  0  0
 18 19  2  0  0  0
 18103  1  0  0  0
 19 20  1  0  0  0
 19 24  1  0  0  0
 20 21  2  0  0  0
 20104  1  0  0  0
 21 23  1  0  0  0
 22 28  1  0  0  0
 22 32  2  0  0  0
 26 27  1  0  0  0
 28105  1  0  0  0
 28106  1  0  0  0
 29107  1  0  0  0
 29108  1  0  0  0
 33 34  1  0  0  0
 33 66  1  0  0  0
 33 70  2  0  0  0
 34 36  1  0  0  0
 34 59  1  0  0  0
 34109  1  0  0  0
 35 44  2  0  0  0
 35 45  1  0  0  0
 35 68  1  0  0  0
 36 56  1  0  0  0
 36110  1  0  0  0
 37 39  1  0  0  0
 37 47  1  0  0  0
 37 66  1  0  0  0
 37111  1  0  0  0
 38 43  2  0  0  0
 38 46  1  0  0  0
 38 47  1  0  0  0
 39 64  1  0  0  0
 39 67  2  0  0  0
 40 52  1  0  0  0
 40 53  2  0  0  0
 40 58  1  0  0  0
 41112  1  0  0  0
 41113  1  0  0  0
 41114  1  0  0  0
 41 48  1  0  0  0
 42 43  1  0  0  0
 42 66  1  0  0  0
 42115  1  0  0  0
 42116  1  0  0  0
 43 44  1  0  0  0
 44117  1  0  0  0
 45 46  2  0  0  0
 45118  1  0  0  0
 46119  1  0  0  0
 47120  1  0  0  0
 47121  1  0  0  0
 48 56  1  0  0  0
 48 65  1  0  0  0
 48122  1  0  0  0
 49 50  1  0  0  0
 49 53  1  0  0  0
 49 64  1  0  0  0
 49123  1  0  0  0
 50 51  1  0  0  0
 50124  1  0  0  0
 50125  1  0  0  0
 51 52  1  0  0  0
 51126  1  0  0  0
 51127  1  0  0  0
 52128  1  0  0  0
 52129  1  0  0  0
 53 54  1  0  0  0
 54 55  2  0  0  0
 54130  1  0  0  0
 55 57  1  0  0  0
 55131  1  0  0  0
 56 69  2  0  0  0
 57 58  2  0  0  0
 57132  1  0  0  0
 58133  1  0  0  0
 59 60  1  0  0  0
 59 61  1  0  0  0
 59 62  1  0  0  0
 60134  1  0  0  0
 60135  1  0  0  0
 60136  1  0  0  0
 61137  1  0  0  0
 61138  1  0  0  0
 61139  1  0  0  0
 62140  1  0  0  0
 62141  1  0  0  0
 62142  1  0  0  0
 63 65  1  0  0  0
 63143  1  0  0  0
 63144  1  0  0  0
 63145  1  0  0  0
 64146  1  0  0  0
 65147  1  0  0  0
 68 88  1  0  0  0
 71 72  2  0  0  0
 71 73  1  0  0  0
 71148  1  0  0  0
 72 75  1  0  0  0
 72149  1  0  0  0
 73 76  2  0  0  0
 73150  1  0  0  0
 74 75  2  0  0  0
 74 76  1  0  0  0
 74 82  1  0  0  0
 75 83  1  0  0  0
 76 84  1  0  0  0
 77 79  2  0  0  0
 77 80  1  0  0  0
 77 83  1  0  0  0
 78 81  1  0  0  0
 78 83  1  0  0  0
 78 85  2  0  0  0
 79 88  1  0  0  0
 79151  1  0  0  0
 80 81  1  0  0  0
 80152  1  0  0  0
 80153  1  0  0  0
 81154  1  0  0  0
 81155  1  0  0  0
 82156  1  0  0  0
 82157  1  0  0  0
 82158  1  0  0  0
 84159  1  0  0  0
 86 88  2  0  0  0
 87 88  2  0  0  0
M  ISO  4   1 100  68 101  84 100  88 101
M  END
> <chiral flag>
0

> <version>
0

> <s_m_source_file>
/data/baiqing/PycharmProjects/Reinvent-master-3.2/result/LINK_invent/BTK/process_docking_weight1_custom_product_contain_oxygen_bond_distance_aromatic_linkinvent_7_9_3/rearranged_h_0060.sdf

> <i_m_source_file_index>
1

> <r_mmod_Potential_Energy-OPLS-2005>
362.488220214844

> <r_mmod_Stretch_Energy-OPLS-2005>
108.468566894531

> <r_mmod_Bend_Energy-OPLS-2005>
225.482955932617

> <r_mmod_Torsional_Energy-OPLS-2005>
331.979187011719

> <r_mmod_Improper_Torsional_Energy-OPLS-2005>
7.66768598556519

> <r_mmod_Van_der_Waal_Energy-OPLS-2005>
152.369049072266

> <r_mmod_Electrostatic_Energy-OPLS-2005>
-304.639038085938

> <r_mmod_Solvation_Energy-OPLS-2005>
-251.162231445312

> <b_mmod_Minimization_Converged-OPLS-2005>
0

> <r_mmod_RMS_Derivative-OPLS-2005>
8.37538051605225

$$$$
1
                    3D
 Structure written by MMmdl.
159167  0  0  1  0            999 V2000
  -30.6314  -14.7483   20.4634 C   0  0  0  0  0  0
  -30.4281  -12.4568   19.4788 C   0  0  0  0  0  0
  -29.5086  -12.5023   18.2388 C   0  0  0  0  0  0
  -28.0368  -12.3209   18.6583 C   0  0  0  0  0  0
  -27.6397  -13.2348   19.8482 C   0  0  2  0  0  0
  -28.6825  -13.1858   20.9855 C   0  0  0  0  0  0
  -25.2495  -13.8204   20.5680 C   0  0  0  0  0  0
  -24.1798  -13.0444   20.9216 C   0  0  0  0  0  0
  -24.6387  -11.6916   20.8729 C   0  0  0  0  0  0
  -23.9062  -10.4279   21.0390 C   0  0  0  0  0  0
  -24.3615   -9.4189   21.9167 C   0  0  0  0  0  0
  -23.6281   -8.2231   22.0742 C   0  0  0  0  0  0
  -22.4260   -8.0277   21.3538 C   0  0  0  0  0  0
  -21.9906   -9.0242   20.4640 C   0  0  0  0  0  0
  -22.7237  -10.2117   20.3043 C   0  0  0  0  0  0
  -21.6863   -6.0728   22.5266 C   0  0  0  0  0  0
  -21.4010   -6.5631   23.8199 C   0  0  0  0  0  0
  -21.3658   -5.6781   24.9163 C   0  0  0  0  0  0
  -21.6048   -4.3043   24.7213 C   0  0  0  0  0  0
  -21.8826   -3.8133   23.4336 C   0  0  0  0  0  0
  -21.9186   -4.6950   22.3392 C   0  0  0  0  0  0
  -22.7814  -13.5210   21.1870 C   0  0  0  0  0  0
  -22.1663   -4.2134   21.0976 F   0  0  0  0  0  0
  -21.5630   -3.4534   25.7730 F   0  0  0  0  0  0
  -29.9865  -13.5302   20.4047 N   0  0  0  0  0  0
  -26.2925  -12.9416   20.3267 N   0  0  0  0  0  0
  -25.9322  -11.6556   20.5747 N   0  0  0  0  0  0
  -22.0466  -12.8186   22.0424 N   0  0  0  0  0  0
  -25.4169  -15.1932   20.4053 N   0  0  0  0  0  0
  -31.8229  -14.7944   20.1495 O   0  0  0  0  0  0
  -21.6644   -6.8870   21.4228 O   0  0  0  0  0  0
  -22.3481  -14.5501   20.6709 O   0  0  0  0  0  0
  -24.6294  -31.8554   23.1933 C   0  0  0  0  0  0
  -25.9117  -32.4748   23.8295 C   0  0  1  0  0  0
  -27.2188  -27.2539   20.1361 C   0  0  0  0  0  0
  -25.5910  -33.8551   24.2242 N   0  0  0  0  0  0
  -23.4290  -30.4769   21.5361 C   0  0  2  0  0  0
  -24.8790  -28.9266   20.0978 C   0  0  0  0  0  0
  -22.7520  -29.4580   22.4861 C   0  0  0  0  0  0
  -18.0318  -28.1406   22.8480 C   0  0  0  0  0  0
  -24.1494  -36.7286   23.2653 C   0  0  0  0  0  0
  -25.9743  -30.7636   21.3787 C   0  0  0  0  0  0
  -26.0440  -29.3866   20.7218 C   0  0  0  0  0  0
  -27.2117  -28.5585   20.7379 C   0  0  0  0  0  0
  -26.0328  -26.8657   19.4714 C   0  0  0  0  0  0
  -24.8790  -27.6765   19.4587 C   0  0  0  0  0  0
  -23.6482  -29.8157   20.1480 C   0  0  0  0  0  0
  -25.4119  -36.3074   24.0330 C   0  0  1  0  0  0
  -20.5916  -28.3703   23.1282 C   0  0  2  0  0  0
  -20.6807  -26.9417   22.5418 C   0  0  0  0  0  0
  -19.5761  -26.6408   21.5223 C   0  0  0  0  0  0
  -18.1944  -26.7952   22.1626 C   0  0  0  0  0  0
  -19.1565  -28.8860   23.2874 C   0  0  0  0  0  0
  -18.9487  -30.1475   23.8871 C   0  0  0  0  0  0
  -17.6480  -30.6597   24.0573 C   0  0  0  0  0  0
  -25.9048  -34.9435   23.5104 C   0  0  0  0  0  0
  -16.5368  -29.9092   23.6336 C   0  0  0  0  0  0
  -16.7295  -28.6525   23.0322 C   0  0  0  0  0  0
  -26.4469  -31.6554   25.0678 C   0  0  0  0  0  0
  -25.3690  -31.3740   26.1384 C   0  0  0  0  0  0
  -27.0304  -30.2964   24.6187 C   0  0  0  0  0  0
  -27.6037  -32.4277   25.7460 C   0  0  0  0  0  0
  -27.5590  -37.1800   24.8469 C   0  0  0  0  0  0
  -21.4229  -29.3025   22.3639 N   0  0  0  0  0  0
  -26.4294  -37.3770   23.9426 N   0  0  0  0  0  0
  -24.6965  -31.0531   22.0906 N   0  0  0  0  0  0
  -23.4199  -28.8115   23.2979 O   0  0  0  0  0  0
  -28.2946  -26.3459   20.2974 O   0  0  0  0  0  0
  -26.5651  -34.8884   22.4685 O   0  0  0  0  0  0
  -23.5449  -32.1352   23.7242 O   0  0  0  0  0  0
  -31.7216  -19.1087   19.6357 C   0  0  0  0  0  0
  -30.8529  -20.1490   20.0051 C   0  0  0  0  0  0
  -31.4016  -17.7577   19.8796 C   0  0  0  0  0  0
  -29.6192  -19.8914   20.6383 C   0  0  0  0  0  0
  -29.2959  -18.4702   20.8696 C   0  0  0  0  0  0
  -30.1890  -17.3651   20.4971 C   0  0  0  0  0  0
  -28.8278  -21.1391   21.1700 C   0  0  0  0  0  0
  -28.3080  -24.9304   19.8885 C   0  0  0  0  0  0
  -27.9702  -18.1077   21.5289 C   0  0  0  0  0  0
  -29.4023  -24.2535   22.0905 C   0  0  0  0  0  0
  -26.9885  -23.6987   21.6491 C   0  0  0  0  0  0
  -28.4023  -23.7802   21.0109 C   0  0  0  0  0  0
  -29.8902  -15.9068   20.7041 N   0  0  0  0  0  0
  -28.8478  -22.3755   20.5275 N   0  0  0  0  0  0
  -28.2241  -21.0079   22.2346 O   0  0  0  0  0  0
  -28.2033  -24.5893   18.7075 O   0  0  0  0  0  0
  -31.4705  -12.5652   19.1737 H   0  0  0  0  0  0
  -30.3654  -11.4823   19.9661 H   0  0  0  0  0  0
  -29.7897  -11.7258   17.5255 H   0  0  0  0  0  0
  -29.6313  -13.4559   17.7217 H   0  0  0  0  0  0
  -27.9044  -11.2751   18.9372 H   0  0  0  0  0  0
  -27.3743  -12.4881   17.8079 H   0  0  0  0  0  0
  -27.6308  -14.2524   19.4554 H   0  0  0  0  0  0
  -28.7174  -12.1921   21.4354 H   0  0  0  0  0  0
  -28.4159  -13.8747   21.7882 H   0  0  0  0  0  0
  -25.2767   -9.5668   22.4745 H   0  0  0  0  0  0
  -23.9988   -7.4627   22.7473 H   0  0  0  0  0  0
  -21.0838   -8.8756   19.8959 H   0  0  0  0  0  0
  -22.3688  -10.9647   19.6150 H   0  0  0  0  0  0
  -21.2011   -7.6143   23.9695 H   0  0  0  0  0  0
  -21.1481   -6.0519   25.9068 H   0  0  0  0  0  0
  -22.0607   -2.7595   23.2838 H   0  0  0  0  0  0
  -22.4088  -11.9846   22.4799 H   0  0  0  0  0  0
  -21.1077  -13.1184   22.2636 H   0  0  0  0  0  0
  -24.6391  -15.8379   20.4980 H   0  0  0  0  0  0
  -26.2429  -15.6226   20.0082 H   0  0  0  0  0  0
  -26.7198  -32.5363   23.1046 H   0  0  0  0  0  0
  -25.0007  -33.9722   25.0343 H   0  0  0  0  0  0
  -22.7234  -31.2981   21.3935 H   0  0  0  0  0  0
  -23.3740  -35.9631   23.3307 H   0  0  0  0  0  0
  -24.3607  -36.8907   22.2080 H   0  0  0  0  0  0
  -23.7238  -37.6489   23.6647 H   0  0  0  0  0  0
  -26.1246  -31.5237   20.6087 H   0  0  0  0  0  0
  -26.8467  -30.8099   22.0171 H   0  0  0  0  0  0
  -28.0894  -28.8979   21.2700 H   0  0  0  0  0  0
  -25.9644  -25.9024   18.9857 H   0  0  0  0  0  0
  -23.9846  -27.3278   18.9611 H   0  0  0  0  0  0
  -23.7733  -30.5935   19.3927 H   0  0  0  0  0  0
  -22.7626  -29.2572   19.8427 H   0  0  0  0  0  0
  -25.1315  -36.1926   25.0820 H   0  0  0  0  0  0
  -21.0029  -28.3266   24.1395 H   0  0  0  0  0  0
  -20.5745  -26.2301   23.3606 H   0  0  0  0  0  0
  -21.6677  -26.7454   22.1182 H   0  0  0  0  0  0
  -19.6923  -25.6328   21.1217 H   0  0  0  0  0  0
  -19.6700  -27.3277   20.6786 H   0  0  0  0  0  0
  -17.4237  -26.6703   21.4023 H   0  0  0  0  0  0
  -18.0311  -26.0138   22.9045 H   0  0  0  0  0  0
  -19.7968  -30.7317   24.2209 H   0  0  0  0  0  0
  -17.5036  -31.6268   24.5211 H   0  0  0  0  0  0
  -15.5368  -30.2982   23.7696 H   0  0  0  0  0  0
  -15.8697  -28.0852   22.7000 H   0  0  0  0  0  0
  -24.5817  -30.7165   25.7690 H   0  0  0  0  0  0
  -24.8934  -32.2959   26.4786 H   0  0  0  0  0  0
  -25.7974  -30.8885   27.0166 H   0  0  0  0  0  0
  -26.2907  -29.6717   24.1190 H   0  0  0  0  0  0
  -27.3987  -29.7212   25.4693 H   0  0  0  0  0  0
  -27.8766  -30.4248   23.9422 H   0  0  0  0  0  0
  -27.2656  -33.3575   26.2048 H   0  0  0  0  0  0
  -28.3837  -32.6860   25.0277 H   0  0  0  0  0  0
  -28.0694  -31.8379   26.5367 H   0  0  0  0  0  0
  -28.2603  -38.0096   24.7522 H   0  0  0  0  0  0
  -28.1084  -36.2643   24.6277 H   0  0  0  0  0  0
  -27.2325  -37.1442   25.8868 H   0  0  0  0  0  0
  -20.9385  -29.8732   21.6837 H   0  0  0  0  0  0
  -26.0163  -38.2848   24.1366 H   0  0  0  0  0  0
  -32.6672  -19.3539   19.1709 H   0  0  0  0  0  0
  -31.1687  -21.1702   19.8367 H   0  0  0  0  0  0
  -32.1383  -17.0367   19.5648 H   0  0  0  0  0  0
  -27.9987  -18.3325   22.5948 H   0  0  0  0  0  0
  -27.7279  -17.0507   21.4286 H   0  0  0  0  0  0
  -27.1479  -18.6642   21.0785 H   0  0  0  0  0  0
  -29.1477  -25.2414   22.4776 H   0  0  0  0  0  0
  -30.4209  -24.3037   21.7021 H   0  0  0  0  0  0
  -29.4106  -23.5829   22.9506 H   0  0  0  0  0  0
  -26.5184  -24.6769   21.7578 H   0  0  0  0  0  0
  -27.0229  -23.2729   22.6519 H   0  0  0  0  0  0
  -26.3151  -23.0833   21.0528 H   0  0  0  0  0  0
  -28.9447  -15.7129   20.9945 H   0  0  0  0  0  0
  -29.3114  -22.3795   19.6285 H   0  0  0  0  0  0
  1 25  1  0  0  0
  1 30  2  0  0  0
  1 83  1  0  0  0
  2  3  1  0  0  0
  2 25  1  0  0  0
  2 87  1  0  0  0
  2 88  1  0  0  0
  3  4  1  0  0  0
  3 89  1  0  0  0
  3 90  1  0  0  0
  4  5  1  0  0  0
  4 91  1  0  0  0
  4 92  1  0  0  0
  5  6  1  0  0  0
  5 26  1  0  0  0
  5 93  1  0  0  0
  6 25  1  0  0  0
  6 94  1  0  0  0
  6 95  1  0  0  0
  7  8  2  0  0  0
  7 26  1  0  0  0
  7 29  1  0  0  0
  8  9  1  0  0  0
  8 22  1  0  0  0
  9 10  1  0  0  0
  9 27  2  0  0  0
 10 11  2  0  0  0
 10 15  1  0  0  0
 11 12  1  0  0  0
 11 96  1  0  0  0
 12 13  2  0  0  0
 12 97  1  0  0  0
 13 14  1  0  0  0
 13 31  1  0  0  0
 14 15  2  0  0  0
 14 98  1  0  0  0
 15 99  1  0  0  0
 16 17  2  0  0  0
 16 21  1  0  0  0
 16 31  1  0  0  0
 17 18  1  0  0  0
 17100  1  0  0  0
 18 19  2  0  0  0
 18101  1  0  0  0
 19 20  1  0  0  0
 19 24  1  0  0  0
 20 21  2  0  0  0
 20102  1  0  0  0
 21 23  1  0  0  0
 22 28  1  0  0  0
 22 32  2  0  0  0
 26 27  1  0  0  0
 28103  1  0  0  0
 28104  1  0  0  0
 29105  1  0  0  0
 29106  1  0  0  0
 33 34  1  0  0  0
 33 66  1  0  0  0
 33 70  2  0  0  0
 34 36  1  0  0  0
 34 59  1  0  0  0
 34107  1  0  0  0
 35 44  2  0  0  0
 35 45  1  0  0  0
 35 68  1  0  0  0
 36 56  1  0  0  0
 36108  1  0  0  0
 37 39  1  0  0  0
 37 47  1  0  0  0
 37 66  1  0  0  0
 37109  1  0  0  0
 38 43  2  0  0  0
 38 46  1  0  0  0
 38 47  1  0  0  0
 39 64  1  0  0  0
 39 67  2  0  0  0
 40 52  1  0  0  0
 40 53  2  0  0  0
 40 58  1  0  0  0
 41110  1  0  0  0
 41111  1  0  0  0
 41112  1  0  0  0
 41 48  1  0  0  0
 42 43  1  0  0  0
 42 66  1  0  0  0
 42113  1  0  0  0
 42114  1  0  0  0
 43 44  1  0  0  0
 44115  1  0  0  0
 45 46  2  0  0  0
 45116  1  0  0  0
 46117  1  0  0  0
 47118  1  0  0  0
 47119  1  0  0  0
 48 56  1  0  0  0
 48 65  1  0  0  0
 48120  1  0  0  0
 49 50  1  0  0  0
 49 53  1  0  0  0
 49 64  1  0  0  0
 49121  1  0  0  0
 50 51  1  0  0  0
 50122  1  0  0  0
 50123  1  0  0  0
 51 52  1  0  0  0
 51124  1  0  0  0
 51125  1  0  0  0
 52126  1  0  0  0
 52127  1  0  0  0
 53 54  1  0  0  0
 54 55  2  0  0  0
 54128  1  0  0  0
 55 57  1  0  0  0
 55129  1  0  0  0
 56 69  2  0  0  0
 57 58  2  0  0  0
 57130  1  0  0  0
 58131  1  0  0  0
 59 60  1  0  0  0
 59 61  1  0  0  0
 59 62  1  0  0  0
 60132  1  0  0  0
 60133  1  0  0  0
 60134  1  0  0  0
 61135  1  0  0  0
 61136  1  0  0  0
 61137  1  0  0  0
 62138  1  0  0  0
 62139  1  0  0  0
 62140  1  0  0  0
 63 65  1  0  0  0
 63141  1  0  0  0
 63142  1  0  0  0
 63143  1  0  0  0
 64144  1  0  0  0
 65145  1  0  0  0
 68 78  1  0  0  0
 71 72  2  0  0  0
 71 73  1  0  0  0
 71146  1  0  0  0
 72 74  1  0  0  0
 72147  1  0  0  0
 73 76  2  0  0  0
 73148  1  0  0  0
 74 75  2  0  0  0
 74 77  1  0  0  0
 75 76  1  0  0  0
 75 79  1  0  0  0
 76 83  1  0  0  0
 77 84  1  0  0  0
 77 85  2  0  0  0
 78 82  1  0  0  0
 78 86  2  0  0  0
 79149  1  0  0  0
 79150  1  0  0  0
 79151  1  0  0  0
 80152  1  0  0  0
 80153  1  0  0  0
 80154  1  0  0  0
 80 82  1  0  0  0
 81 82  1  0  0  0
 81155  1  0  0  0
 81156  1  0  0  0
 81157  1  0  0  0
 82 84  1  0  0  0
 83158  1  0  0  0
 84159  1  0  0  0
M  ISO  4   1 100  68 101  78 101  83 100
M  END
> <chiral flag>
0

> <version>
0

> <s_m_source_file>
/data/baiqing/PycharmProjects/Reinvent-master-3.2/result/LINK_invent/BTK/process_docking_weight1_custom_product_contain_oxygen_bond_distance_aromatic_linkinvent_7_9_3/rearranged_h_0060.sdf

> <i_m_source_file_index>
2

> <r_mmod_Potential_Energy-OPLS-2005>
136.65380859375

> <r_mmod_Stretch_Energy-OPLS-2005>
151.094284057617

> <r_mmod_Bend_Energy-OPLS-2005>
164.501815795898

> <r_mmod_Torsional_Energy-OPLS-2005>
248.73957824707

> <r_mmod_Improper_Torsional_Energy-OPLS-2005>
5.69774436950684

> <r_mmod_Van_der_Waal_Energy-OPLS-2005>
146.866561889648

> <r_mmod_Electrostatic_Energy-OPLS-2005>
-454.094573974609

> <r_mmod_Solvation_Energy-OPLS-2005>
-220.94255065918

> <b_mmod_Minimization_Converged-OPLS-2005>
0

> <r_mmod_RMS_Derivative-OPLS-2005>
3.91441249847412

$$$$
2
                    3D
 Structure written by MMmdl.
151159  0  0  1  0            999 V2000
  -30.6242  -14.6242   20.5043 C   0  0  0  0  0  0
  -30.4414  -12.3827   19.4496 C   0  0  0  0  0  0
  -29.5085  -12.5046   18.2235 C   0  0  0  0  0  0
  -28.0316  -12.3430   18.6369 C   0  0  0  0  0  0
  -27.6557  -13.2132   19.8659 C   0  0  2  0  0  0
  -28.7005  -13.0548   20.9944 C   0  0  0  0  0  0
  -25.2557  -13.8153   20.5672 C   0  0  0  0  0  0
  -24.1818  -13.0419   20.9156 C   0  0  0  0  0  0
  -24.6392  -11.6893   20.8720 C   0  0  0  0  0  0
  -23.9060  -10.4281   21.0400 C   0  0  0  0  0  0
  -24.3610   -9.4202   21.9185 C   0  0  0  0  0  0
  -23.6289   -8.2238   22.0752 C   0  0  0  0  0  0
  -22.4271   -8.0275   21.3543 C   0  0  0  0  0  0
  -21.9902   -9.0248   20.4650 C   0  0  0  0  0  0
  -22.7228  -10.2129   20.3057 C   0  0  0  0  0  0
  -21.6849   -6.0735   22.5285 C   0  0  0  0  0  0
  -21.4010   -6.5636   23.8218 C   0  0  0  0  0  0
  -21.3659   -5.6788   24.9178 C   0  0  0  0  0  0
  -21.6044   -4.3052   24.7226 C   0  0  0  0  0  0
  -21.8819   -3.8145   23.4347 C   0  0  0  0  0  0
  -21.9191   -4.6964   22.3406 C   0  0  0  0  0  0
  -22.7845  -13.5223   21.1836 C   0  0  0  0  0  0
  -22.1663   -4.2154   21.0984 F   0  0  0  0  0  0
  -21.5629   -3.4533   25.7735 F   0  0  0  0  0  0
  -30.0191  -13.3972   20.4346 N   0  0  0  0  0  0
  -26.2998  -12.9342   20.3337 N   0  0  0  0  0  0
  -25.9325  -11.6496   20.5753 N   0  0  0  0  0  0
  -22.0489  -12.8228   22.0407 N   0  0  0  0  0  0
  -25.4236  -15.1880   20.4147 N   0  0  0  0  0  0
  -31.7818  -14.7950   20.1108 O   0  0  0  0  0  0
  -21.6634   -6.8875   21.4245 O   0  0  0  0  0  0
  -22.3527  -14.5531   20.6691 O   0  0  0  0  0  0
  -24.6258  -31.8616   23.2045 C   0  0  0  0  0  0
  -25.9110  -32.4787   23.8372 C   0  0  1  0  0  0
  -27.2156  -27.3263   20.1061 C   0  0  0  0  0  0
  -25.5927  -33.8585   24.2301 N   0  0  0  0  0  0
  -23.4179  -30.4892   21.5482 C   0  0  2  0  0  0
  -24.8613  -28.9495   20.1095 C   0  0  0  0  0  0
  -22.7471  -29.4639   22.4937 C   0  0  0  0  0  0
  -18.0290  -28.1387   22.8492 C   0  0  0  0  0  0
  -24.1490  -36.7295   23.2636 C   0  0  0  0  0  0
  -25.9603  -30.7947   21.3749 C   0  0  0  0  0  0
  -26.0319  -29.4239   20.7148 C   0  0  0  0  0  0
  -27.2131  -28.6236   20.7041 C   0  0  0  0  0  0
  -26.0199  -26.9088   19.4741 C   0  0  0  0  0  0
  -24.8570  -27.6975   19.4807 C   0  0  0  0  0  0
  -23.6308  -29.8309   20.1608 C   0  0  0  0  0  0
  -25.4109  -36.3088   24.0338 C   0  0  1  0  0  0
  -20.5890  -28.3686   23.1290 C   0  0  2  0  0  0
  -20.6778  -26.9412   22.5410 C   0  0  0  0  0  0
  -19.5747  -26.6393   21.5216 C   0  0  0  0  0  0
  -18.1933  -26.7927   22.1636 C   0  0  0  0  0  0
  -19.1540  -28.8854   23.2891 C   0  0  0  0  0  0
  -18.9459  -30.1457   23.8906 C   0  0  0  0  0  0
  -17.6458  -30.6590   24.0566 C   0  0  0  0  0  0
  -25.9049  -34.9453   23.5120 C   0  0  0  0  0  0
  -16.5351  -29.9091   23.6329 C   0  0  0  0  0  0
  -16.7277  -28.6508   23.0355 C   0  0  0  0  0  0
  -26.4489  -31.6583   25.0731 C   0  0  0  0  0  0
  -25.3726  -31.3736   26.1467 C   0  0  0  0  0  0
  -27.0308  -30.3002   24.6171 C   0  0  0  0  0  0
  -27.6078  -32.4292   25.7483 C   0  0  0  0  0  0
  -27.5583  -37.1799   24.8466 C   0  0  0  0  0  0
  -21.4185  -29.3044   22.3683 N   0  0  0  0  0  0
  -26.4288  -37.3782   23.9418 N   0  0  0  0  0  0
  -24.6871  -31.0641   22.0995 N   0  0  0  0  0  0
  -23.4199  -28.8165   23.3002 O   0  0  0  0  0  0
  -28.3291  -26.4718   20.1556 O   0  0  0  0  0  0
  -26.5612  -34.8914   22.4684 O   0  0  0  0  0  0
  -23.5422  -32.1412   23.7376 O   0  0  0  0  0  0
  -30.9508  -19.2796   20.2034 C   0  0  0  0  0  0
  -31.0074  -17.8569   20.3112 C   0  0  0  0  0  0
  -28.6365  -19.2631   20.8627 C   0  0  0  0  0  0
  -29.7693  -20.0258   20.4730 C   0  0  0  0  0  0
  -29.8732  -17.1028   20.7108 C   0  0  0  0  0  0
  -28.6933  -17.8441   20.9799 C   0  0  0  0  0  0
  -28.8231  -22.4332   20.2980 C   0  0  0  0  0  0
  -29.2033  -23.9663   20.3720 C   0  0  0  0  0  0
  -28.0817  -25.0208   19.9848 C   0  0  0  0  0  0
  -29.8107  -21.4899   20.4054 N   0  0  0  0  0  0
  -29.8119  -15.6549   20.8827 N   0  0  0  0  0  0
  -27.6429  -22.1184   20.1318 O   0  0  0  0  0  0
  -27.5831  -17.1702   21.3664 F   0  0  0  0  0  0
  -31.4823  -12.5091   19.1470 H   0  0  0  0  0  0
  -30.3766  -11.3843   19.8850 H   0  0  0  0  0  0
  -29.7710  -11.7553   17.4755 H   0  0  0  0  0  0
  -29.6516  -13.4754   17.7460 H   0  0  0  0  0  0
  -27.8699  -11.2895   18.8698 H   0  0  0  0  0  0
  -27.3754  -12.5707   17.7956 H   0  0  0  0  0  0
  -27.6764  -14.2502   19.5294 H   0  0  0  0  0  0
  -28.7076  -12.0292   21.3666 H   0  0  0  0  0  0
  -28.4459  -13.6770   21.8535 H   0  0  0  0  0  0
  -25.2759   -9.5681   22.4754 H   0  0  0  0  0  0
  -24.0004   -7.4628   22.7466 H   0  0  0  0  0  0
  -21.0835   -8.8765   19.8958 H   0  0  0  0  0  0
  -22.3687  -10.9665   19.6163 H   0  0  0  0  0  0
  -21.1999   -7.6145   23.9721 H   0  0  0  0  0  0
  -21.1483   -6.0519   25.9082 H   0  0  0  0  0  0
  -22.0598   -2.7608   23.2842 H   0  0  0  0  0  0
  -22.4097  -11.9892   22.4808 H   0  0  0  0  0  0
  -21.1116  -13.1277   22.2623 H   0  0  0  0  0  0
  -24.6617  -15.8381   20.5686 H   0  0  0  0  0  0
  -26.3009  -15.6534   20.2175 H   0  0  0  0  0  0
  -26.7175  -32.5454   23.1119 H   0  0  0  0  0  0
  -25.0062  -33.9728   25.0435 H   0  0  0  0  0  0
  -22.7128  -31.3115   21.4102 H   0  0  0  0  0  0
  -23.3756  -35.9622   23.3283 H   0  0  0  0  0  0
  -24.3592  -36.8923   22.2054 H   0  0  0  0  0  0
  -23.7229  -37.6492   23.6657 H   0  0  0  0  0  0
  -26.0934  -31.5601   20.6086 H   0  0  0  0  0  0
  -26.8407  -30.8409   22.0041 H   0  0  0  0  0  0
  -28.1112  -28.9812   21.1875 H   0  0  0  0  0  0
  -25.9469  -25.9564   18.9714 H   0  0  0  0  0  0
  -23.9603  -27.3326   18.9986 H   0  0  0  0  0  0
  -23.7504  -30.6114   19.4084 H   0  0  0  0  0  0
  -22.7487  -29.2650   19.8566 H   0  0  0  0  0  0
  -25.1281  -36.1946   25.0830 H   0  0  0  0  0  0
  -20.9998  -28.3255   24.1406 H   0  0  0  0  0  0
  -20.5695  -26.2287   23.3604 H   0  0  0  0  0  0
  -21.6643  -26.7452   22.1193 H   0  0  0  0  0  0
  -19.6905  -25.6308   21.1244 H   0  0  0  0  0  0
  -19.6682  -27.3207   20.6747 H   0  0  0  0  0  0
  -17.4198  -26.6678   21.4043 H   0  0  0  0  0  0
  -18.0335  -26.0073   22.9038 H   0  0  0  0  0  0
  -19.7932  -30.7273   24.2283 H   0  0  0  0  0  0
  -17.5012  -31.6271   24.5164 H   0  0  0  0  0  0
  -15.5352  -30.2997   23.7643 H   0  0  0  0  0  0
  -15.8678  -28.0831   22.7065 H   0  0  0  0  0  0
  -24.5858  -30.7139   25.7788 H   0  0  0  0  0  0
  -24.8965  -32.2911   26.4934 H   0  0  0  0  0  0
  -25.8039  -30.8861   27.0217 H   0  0  0  0  0  0
  -26.2866  -29.6765   24.1203 H   0  0  0  0  0  0
  -27.4014  -29.7248   25.4663 H   0  0  0  0  0  0
  -27.8742  -30.4284   23.9381 H   0  0  0  0  0  0
  -27.2739  -33.3614   26.2046 H   0  0  0  0  0  0
  -28.3891  -32.6802   25.0297 H   0  0  0  0  0  0
  -28.0734  -31.8404   26.5396 H   0  0  0  0  0  0
  -28.2598  -38.0099   24.7522 H   0  0  0  0  0  0
  -28.1081  -36.2632   24.6278 H   0  0  0  0  0  0
  -27.2305  -37.1431   25.8869 H   0  0  0  0  0  0
  -20.9354  -29.8774   21.6905 H   0  0  0  0  0  0
  -26.0173  -38.2859   24.1417 H   0  0  0  0  0  0
  -31.8498  -19.8028   19.9079 H   0  0  0  0  0  0
  -31.9406  -17.3593   20.0917 H   0  0  0  0  0  0
  -27.7071  -19.7570   21.1029 H   0  0  0  0  0  0
  -30.0784  -24.1343   19.7452 H   0  0  0  0  0  0
  -29.5213  -24.1642   21.3957 H   0  0  0  0  0  0
  -27.1924  -24.7612   20.5624 H   0  0  0  0  0  0
  -27.8302  -24.8451   18.9378 H   0  0  0  0  0  0
  -30.7409  -21.8850   20.4370 H   0  0  0  0  0  0
  -28.9117  -15.3405   21.2131 H   0  0  0  0  0  0
  1 25  1  0  0  0
  1 30  2  0  0  0
  1 81  1  0  0  0
  2  3  1  0  0  0
  2 25  1  0  0  0
  2 84  1  0  0  0
  2 85  1  0  0  0
  3  4  1  0  0  0
  3 86  1  0  0  0
  3 87  1  0  0  0
  4  5  1  0  0  0
  4 88  1  0  0  0
  4 89  1  0  0  0
  5  6  1  0  0  0
  5 26  1  0  0  0
  5 90  1  0  0  0
  6 25  1  0  0  0
  6 91  1  0  0  0
  6 92  1  0  0  0
  7  8  2  0  0  0
  7 26  1  0  0  0
  7 29  1  0  0  0
  8  9  1  0  0  0
  8 22  1  0  0  0
  9 10  1  0  0  0
  9 27  2  0  0  0
 10 11  2  0  0  0
 10 15  1  0  0  0
 11 12  1  0  0  0
 11 93  1  0  0  0
 12 13  2  0  0  0
 12 94  1  0  0  0
 13 14  1  0  0  0
 13 31  1  0  0  0
 14 15  2  0  0  0
 14 95  1  0  0  0
 15 96  1  0  0  0
 16 17  2  0  0  0
 16 21  1  0  0  0
 16 31  1  0  0  0
 17 18  1  0  0  0
 17 97  1  0  0  0
 18 19  2  0  0  0
 18 98  1  0  0  0
 19 20  1  0  0  0
 19 24  1  0  0  0
 20 21  2  0  0  0
 20 99  1  0  0  0
 21 23  1  0  0  0
 22 28  1  0  0  0
 22 32  2  0  0  0
 26 27  1  0  0  0
 28100  1  0  0  0
 28101  1  0  0  0
 29102  1  0  0  0
 29103  1  0  0  0
 33 34  1  0  0  0
 33 66  1  0  0  0
 33 70  2  0  0  0
 34 36  1  0  0  0
 34 59  1  0  0  0
 34104  1  0  0  0
 35 44  2  0  0  0
 35 45  1  0  0  0
 35 68  1  0  0  0
 36 56  1  0  0  0
 36105  1  0  0  0
 37 39  1  0  0  0
 37 47  1  0  0  0
 37 66  1  0  0  0
 37106  1  0  0  0
 38 43  2  0  0  0
 38 46  1  0  0  0
 38 47  1  0  0  0
 39 64  1  0  0  0
 39 67  2  0  0  0
 40 52  1  0  0  0
 40 53  2  0  0  0
 40 58  1  0  0  0
 41107  1  0  0  0
 41108  1  0  0  0
 41109  1  0  0  0
 41 48  1  0  0  0
 42 43  1  0  0  0
 42 66  1  0  0  0
 42110  1  0  0  0
 42111  1  0  0  0
 43 44  1  0  0  0
 44112  1  0  0  0
 45 46  2  0  0  0
 45113  1  0  0  0
 46114  1  0  0  0
 47115  1  0  0  0
 47116  1  0  0  0
 48 56  1  0  0  0
 48 65  1  0  0  0
 48117  1  0  0  0
 49 50  1  0  0  0
 49 53  1  0  0  0
 49 64  1  0  0  0
 49118  1  0  0  0
 50 51  1  0  0  0
 50119  1  0  0  0
 50120  1  0  0  0
 51 52  1  0  0  0
 51121  1  0  0  0
 51122  1  0  0  0
 52123  1  0  0  0
 52124  1  0  0  0
 53 54  1  0  0  0
 54 55  2  0  0  0
 54125  1  0  0  0
 55 57  1  0  0  0
 55126  1  0  0  0
 56 69  2  0  0  0
 57 58  2  0  0  0
 57127  1  0  0  0
 58128  1  0  0  0
 59 60  1  0  0  0
 59 61  1  0  0  0
 59 62  1  0  0  0
 60129  1  0  0  0
 60130  1  0  0  0
 60131  1  0  0  0
 61132  1  0  0  0
 61133  1  0  0  0
 61134  1  0  0  0
 62135  1  0  0  0
 62136  1  0  0  0
 62137  1  0  0  0
 63 65  1  0  0  0
 63138  1  0  0  0
 63139  1  0  0  0
 63140  1  0  0  0
 64141  1  0  0  0
 65142  1  0  0  0
 68 79  1  0  0  0
 71 72  2  0  0  0
 71 74  1  0  0  0
 71143  1  0  0  0
 72 75  1  0  0  0
 72144  1  0  0  0
 73 74  2  0  0  0
 73 76  1  0  0  0
 73145  1  0  0  0
 74 80  1  0  0  0
 75 76  2  0  0  0
 75 81  1  0  0  0
 76 83  1  0  0  0
 77 78  1  0  0  0
 77 80  1  0  0  0
 77 82  2  0  0  0
 78 79  1  0  0  0
 78146  1  0  0  0
 78147  1  0  0  0
 79148  1  0  0  0
 79149  1  0  0  0
 80150  1  0  0  0
 81151  1  0  0  0
M  ISO  4   1 100  68 101  79 101  81 100
M  END
> <chiral flag>
0

> <version>
0

> <s_m_source_file>
/data/baiqing/PycharmProjects/Reinvent-master-3.2/result/LINK_invent/BTK/process_docking_weight1_custom_product_contain_oxygen_bond_distance_aromatic_linkinvent_7_9_3/rearranged_h_0060.sdf

> <i_m_source_file_index>
3

> <r_mmod_Potential_Energy-OPLS-2005>
-42.3102340698242

> <r_mmod_Stretch_Energy-OPLS-2005>
73.474479675293

> <r_mmod_Bend_Energy-OPLS-2005>
137.113388061523

> <r_mmod_Torsional_Energy-OPLS-2005>
218.337249755859

> <r_mmod_Improper_Torsional_Energy-OPLS-2005>
4.02269601821899

> <r_mmod_Van_der_Waal_Energy-OPLS-2005>
148.6728515625

> <r_mmod_Electrostatic_Energy-OPLS-2005>
-448.560668945312

> <r_mmod_Solvation_Energy-OPLS-2005>
-220.761657714844

> <b_mmod_Minimization_Converged-OPLS-2005>
0

> <r_mmod_RMS_Derivative-OPLS-2005>
1.14069616794586

$$$$
3
                    3D
 Structure written by MMmdl.
160168  0  0  1  0            999 V2000
  -30.6701  -14.5236   20.5237 C   0  0  0  0  0  0
  -30.4274  -12.3150   19.4540 C   0  0  0  0  0  0
  -29.5045  -12.4715   18.2260 C   0  0  0  0  0  0
  -28.0217  -12.3526   18.6294 C   0  0  0  0  0  0
  -27.6593  -13.2100   19.8715 C   0  0  2  0  0  0
  -28.6980  -13.0212   21.0006 C   0  0  0  0  0  0
  -25.2583  -13.8179   20.5690 C   0  0  0  0  0  0
  -24.1830  -13.0451   20.9173 C   0  0  0  0  0  0
  -24.6385  -11.6911   20.8730 C   0  0  0  0  0  0
  -23.9057  -10.4290   21.0394 C   0  0  0  0  0  0
  -24.3607   -9.4206   21.9175 C   0  0  0  0  0  0
  -23.6283   -8.2241   22.0753 C   0  0  0  0  0  0
  -22.4268   -8.0277   21.3546 C   0  0  0  0  0  0
  -21.9898   -9.0248   20.4650 C   0  0  0  0  0  0
  -22.7226  -10.2127   20.3049 C   0  0  0  0  0  0
  -21.6856   -6.0724   22.5273 C   0  0  0  0  0  0
  -21.4018   -6.5624   23.8209 C   0  0  0  0  0  0
  -21.3666   -5.6781   24.9170 C   0  0  0  0  0  0
  -21.6047   -4.3045   24.7220 C   0  0  0  0  0  0
  -21.8825   -3.8135   23.4342 C   0  0  0  0  0  0
  -21.9194   -4.6949   22.3396 C   0  0  0  0  0  0
  -22.7852  -13.5245   21.1841 C   0  0  0  0  0  0
  -22.1658   -4.2130   21.0975 F   0  0  0  0  0  0
  -21.5634   -3.4533   25.7736 F   0  0  0  0  0  0
  -30.0290  -13.3227   20.4504 N   0  0  0  0  0  0
  -26.3006  -12.9343   20.3347 N   0  0  0  0  0  0
  -25.9309  -11.6505   20.5764 N   0  0  0  0  0  0
  -22.0497  -12.8228   22.0394 N   0  0  0  0  0  0
  -25.4353  -15.1896   20.4139 N   0  0  0  0  0  0
  -31.8165  -14.6928   20.0964 O   0  0  0  0  0  0
  -21.6639   -6.8867   21.4241 O   0  0  0  0  0  0
  -22.3528  -14.5544   20.6690 O   0  0  0  0  0  0
  -24.6148  -31.8669   23.2089 C   0  0  0  0  0  0
  -25.9031  -32.4807   23.8397 C   0  0  1  0  0  0
  -27.2276  -27.4140   20.1156 C   0  0  0  0  0  0
  -25.5903  -33.8606   24.2343 N   0  0  0  0  0  0
  -23.4040  -30.4884   21.5497 C   0  0  2  0  0  0
  -24.8519  -28.9518   20.1161 C   0  0  0  0  0  0
  -22.7420  -29.4630   22.4982 C   0  0  0  0  0  0
  -18.0271  -28.1371   22.8487 C   0  0  0  0  0  0
  -24.1484  -36.7324   23.2633 C   0  0  0  0  0  0
  -25.9320  -30.8271   21.3634 C   0  0  0  0  0  0
  -26.0097  -29.4553   20.7231 C   0  0  0  0  0  0
  -27.2016  -28.6912   20.7267 C   0  0  0  0  0  0
  -26.0675  -26.9474   19.4682 C   0  0  0  0  0  0
  -24.8759  -27.6970   19.4840 C   0  0  0  0  0  0
  -23.6150  -29.8209   20.1634 C   0  0  0  0  0  0
  -25.4095  -36.3109   24.0350 C   0  0  1  0  0  0
  -20.5863  -28.3643   23.1311 C   0  0  2  0  0  0
  -20.6763  -26.9396   22.5371 C   0  0  0  0  0  0
  -19.5724  -26.6388   21.5190 C   0  0  0  0  0  0
  -18.1906  -26.7924   22.1606 C   0  0  0  0  0  0
  -19.1523  -28.8820   23.2901 C   0  0  0  0  0  0
  -18.9456  -30.1422   23.8927 C   0  0  0  0  0  0
  -17.6458  -30.6560   24.0594 C   0  0  0  0  0  0
  -25.9028  -34.9468   23.5146 C   0  0  0  0  0  0
  -16.5349  -29.9071   23.6342 C   0  0  0  0  0  0
  -16.7264  -28.6503   23.0342 C   0  0  0  0  0  0
  -26.4481  -31.6559   25.0701 C   0  0  0  0  0  0
  -25.3764  -31.3643   26.1458 C   0  0  0  0  0  0
  -27.0293  -30.3004   24.6024 C   0  0  0  0  0  0
  -27.6077  -32.4251   25.7450 C   0  0  0  0  0  0
  -27.5573  -37.1817   24.8468 C   0  0  0  0  0  0
  -21.4141  -29.3025   22.3738 N   0  0  0  0  0  0
  -26.4285  -37.3791   23.9409 N   0  0  0  0  0  0
  -24.6689  -31.0758   22.0997 N   0  0  0  0  0  0
  -23.4191  -28.8171   23.3021 O   0  0  0  0  0  0
  -28.3722  -26.6466   20.0898 O   0  0  0  0  0  0
  -26.5583  -34.8918   22.4703 O   0  0  0  0  0  0
  -23.5339  -32.1424   23.7464 O   0  0  0  0  0  0
  -29.6465  -19.4110   19.1075 C   0  0  0  0  0  0
  -29.6456  -18.2374   18.3333 C   0  0  0  0  0  0
  -29.8435  -18.0579   21.1286 C   0  0  0  0  0  0
  -29.7290  -19.3433   20.5163 C   0  0  0  0  0  0
  -29.8701  -16.8629   20.3514 C   0  0  0  0  0  0
  -29.7446  -16.9748   18.9431 C   0  0  0  0  0  0
  -29.7685  -20.6270   21.3265 C   0  0  0  0  0  0
  -26.8558  -23.6159   20.5870 C   0  0  0  0  0  0
  -28.7680  -24.0705   18.9968 C   0  0  0  0  0  0
  -29.1975  -23.0899   21.2987 C   0  0  0  0  0  0
  -28.4498  -25.5597   21.0435 C   0  0  0  0  0  0
  -28.3199  -24.0956   20.4744 C   0  0  0  0  0  0
  -29.9320  -15.5653   20.9723 N   0  0  0  0  0  0
  -29.1481  -21.7011   20.7964 N   0  0  0  0  0  0
  -30.3429  -20.6632   22.4156 O   0  0  0  0  0  0
  -29.6837  -15.8740   18.1575 F   0  0  0  0  0  0
  -31.4728  -12.4134   19.1586 H   0  0  0  0  0  0
  -30.3354  -11.3152   19.8809 H   0  0  0  0  0  0
  -29.7467  -11.7118   17.4813 H   0  0  0  0  0  0
  -29.6806  -13.4350   17.7467 H   0  0  0  0  0  0
  -27.8242  -11.3001   18.8371 H   0  0  0  0  0  0
  -27.3806  -12.6204   17.7886 H   0  0  0  0  0  0
  -27.6953  -14.2524   19.5526 H   0  0  0  0  0  0
  -28.6746  -11.9955   21.3702 H   0  0  0  0  0  0
  -28.4566  -13.6477   21.8600 H   0  0  0  0  0  0
  -25.2752   -9.5678   22.4747 H   0  0  0  0  0  0
  -23.9997   -7.4627   22.7462 H   0  0  0  0  0  0
  -21.0835   -8.8764   19.8942 H   0  0  0  0  0  0
  -22.3691  -10.9662   19.6151 H   0  0  0  0  0  0
  -21.2012   -7.6133   23.9708 H   0  0  0  0  0  0
  -21.1488   -6.0508   25.9077 H   0  0  0  0  0  0
  -22.0603   -2.7594   23.2845 H   0  0  0  0  0  0
  -22.4113  -11.9881   22.4762 H   0  0  0  0  0  0
  -21.1127  -13.1263   22.2637 H   0  0  0  0  0  0
  -24.6845  -15.8577   20.5486 H   0  0  0  0  0  0
  -26.2987  -15.6204   20.1079 H   0  0  0  0  0  0
  -26.7095  -32.5528   23.1159 H   0  0  0  0  0  0
  -25.0085  -33.9786   25.0509 H   0  0  0  0  0  0
  -22.6911  -31.3044   21.4103 H   0  0  0  0  0  0
  -23.3733  -35.9673   23.3305 H   0  0  0  0  0  0
  -24.3584  -36.8916   22.2043 H   0  0  0  0  0  0
  -23.7250  -37.6543   23.6632 H   0  0  0  0  0  0
  -26.0321  -31.5823   20.5831 H   0  0  0  0  0  0
  -26.8249  -30.8952   21.9724 H   0  0  0  0  0  0
  -28.0937  -29.0744   21.2026 H   0  0  0  0  0  0
  -26.0870  -26.0158   18.9251 H   0  0  0  0  0  0
  -23.9949  -27.3133   18.9872 H   0  0  0  0  0  0
  -23.7264  -30.5961   19.4047 H   0  0  0  0  0  0
  -22.7399  -29.2405   19.8646 H   0  0  0  0  0  0
  -25.1261  -36.1992   25.0847 H   0  0  0  0  0  0
  -20.9955  -28.3167   24.1430 H   0  0  0  0  0  0
  -20.5709  -26.2250   23.3541 H   0  0  0  0  0  0
  -21.6625  -26.7475   22.1121 H   0  0  0  0  0  0
  -19.6882  -25.6312   21.1189 H   0  0  0  0  0  0
  -19.6638  -27.3220   20.6734 H   0  0  0  0  0  0
  -17.4189  -26.6723   21.3984 H   0  0  0  0  0  0
  -18.0283  -26.0042   22.8969 H   0  0  0  0  0  0
  -19.7937  -30.7219   24.2318 H   0  0  0  0  0  0
  -17.5015  -31.6231   24.5206 H   0  0  0  0  0  0
  -15.5348  -30.2970   23.7666 H   0  0  0  0  0  0
  -15.8668  -28.0837   22.7018 H   0  0  0  0  0  0
  -24.5959  -30.6967   25.7790 H   0  0  0  0  0  0
  -24.8943  -32.2790   26.4914 H   0  0  0  0  0  0
  -25.8146  -30.8812   27.0198 H   0  0  0  0  0  0
  -26.2818  -29.6774   24.1095 H   0  0  0  0  0  0
  -27.4102  -29.7213   25.4444 H   0  0  0  0  0  0
  -27.8640  -30.4330   23.9134 H   0  0  0  0  0  0
  -27.2722  -33.3530   26.2086 H   0  0  0  0  0  0
  -28.3855  -32.6818   25.0252 H   0  0  0  0  0  0
  -28.0778  -31.8328   26.5310 H   0  0  0  0  0  0
  -28.2607  -38.0095   24.7488 H   0  0  0  0  0  0
  -28.1058  -36.2631   24.6326 H   0  0  0  0  0  0
  -27.2303  -37.1496   25.8875 H   0  0  0  0  0  0
  -20.9306  -29.8773   21.6977 H   0  0  0  0  0  0
  -26.0183  -38.2878   24.1392 H   0  0  0  0  0  0
  -29.5879  -20.3636   18.5994 H   0  0  0  0  0  0
  -29.5645  -18.3068   17.2588 H   0  0  0  0  0  0
  -29.9233  -17.9937   22.2044 H   0  0  0  0  0  0
  -26.7158  -22.6256   20.1533 H   0  0  0  0  0  0
  -26.1556  -24.2747   20.0873 H   0  0  0  0  0  0
  -26.5446  -23.5559   21.6310 H   0  0  0  0  0  0
  -28.7011  -23.0746   18.5579 H   0  0  0  0  0  0
  -29.7998  -24.4055   18.8906 H   0  0  0  0  0  0
  -28.1481  -24.7261   18.3845 H   0  0  0  0  0  0
  -28.8856  -23.1031   22.3447 H   0  0  0  0  0  0
  -30.2401  -23.4178   21.2892 H   0  0  0  0  0  0
  -27.7459  -25.7091   21.8657 H   0  0  0  0  0  0
  -29.4319  -25.6655   21.5037 H   0  0  0  0  0  0
  -29.1132  -15.3072   21.5002 H   0  0  0  0  0  0
  -28.6454  -21.5509   19.9342 H   0  0  0  0  0  0
  1 25  1  0  0  0
  1 30  2  0  0  0
  1 83  1  0  0  0
  2  3  1  0  0  0
  2 25  1  0  0  0
  2 87  1  0  0  0
  2 88  1  0  0  0
  3  4  1  0  0  0
  3 89  1  0  0  0
  3 90  1  0  0  0
  4  5  1  0  0  0
  4 91  1  0  0  0
  4 92  1  0  0  0
  5  6  1  0  0  0
  5 26  1  0  0  0
  5 93  1  0  0  0
  6 25  1  0  0  0
  6 94  1  0  0  0
  6 95  1  0  0  0
  7  8  2  0  0  0
  7 26  1  0  0  0
  7 29  1  0  0  0
  8  9  1  0  0  0
  8 22  1  0  0  0
  9 10  1  0  0  0
  9 27  2  0  0  0
 10 11  2  0  0  0
 10 15  1  0  0  0
 11 12  1  0  0  0
 11 96  1  0  0  0
 12 13  2  0  0  0
 12 97  1  0  0  0
 13 14  1  0  0  0
 13 31  1  0  0  0
 14 15  2  0  0  0
 14 98  1  0  0  0
 15 99  1  0  0  0
 16 17  2  0  0  0
 16 21  1  0  0  0
 16 31  1  0  0  0
 17 18  1  0  0  0
 17100  1  0  0  0
 18 19  2  0  0  0
 18101  1  0  0  0
 19 20  1  0  0  0
 19 24  1  0  0  0
 20 21  2  0  0  0
 20102  1  0  0  0
 21 23  1  0  0  0
 22 28  1  0  0  0
 22 32  2  0  0  0
 26 27  1  0  0  0
 28103  1  0  0  0
 28104  1  0  0  0
 29105  1  0  0  0
 29106  1  0  0  0
 33 34  1  0  0  0
 33 66  1  0  0  0
 33 70  2  0  0  0
 34 36  1  0  0  0
 34 59  1  0  0  0
 34107  1  0  0  0
 35 44  2  0  0  0
 35 45  1  0  0  0
 35 68  1  0  0  0
 36 56  1  0  0  0
 36108  1  0  0  0
 37 39  1  0  0  0
 37 47  1  0  0  0
 37 66  1  0  0  0
 37109  1  0  0  0
 38 43  2  0  0  0
 38 46  1  0  0  0
 38 47  1  0  0  0
 39 64  1  0  0  0
 39 67  2  0  0  0
 40 52  1  0  0  0
 40 53  2  0  0  0
 40 58  1  0  0  0
 41110  1  0  0  0
 41111  1  0  0  0
 41112  1  0  0  0
 41 48  1  0  0  0
 42 43  1  0  0  0
 42 66  1  0  0  0
 42113  1  0  0  0
 42114  1  0  0  0
 43 44  1  0  0  0
 44115  1  0  0  0
 45 46  2  0  0  0
 45116  1  0  0  0
 46117  1  0  0  0
 47118  1  0  0  0
 47119  1  0  0  0
 48 56  1  0  0  0
 48 65  1  0  0  0
 48120  1  0  0  0
 49 50  1  0  0  0
 49 53  1  0  0  0
 49 64  1  0  0  0
 49121  1  0  0  0
 50 51  1  0  0  0
 50122  1  0  0  0
 50123  1  0  0  0
 51 52  1  0  0  0
 51124  1  0  0  0
 51125  1  0  0  0
 52126  1  0  0  0
 52127  1  0  0  0
 53 54  1  0  0  0
 54 55  2  0  0  0
 54128  1  0  0  0
 55 57  1  0  0  0
 55129  1  0  0  0
 56 69  2  0  0  0
 57 58  2  0  0  0
 57130  1  0  0  0
 58131  1  0  0  0
 59 60  1  0  0  0
 59 61  1  0  0  0
 59 62  1  0  0  0
 60132  1  0  0  0
 60133  1  0  0  0
 60134  1  0  0  0
 61135  1  0  0  0
 61136  1  0  0  0
 61137  1  0  0  0
 62138  1  0  0  0
 62139  1  0  0  0
 62140  1  0  0  0
 63 65  1  0  0  0
 63141  1  0  0  0
 63142  1  0  0  0
 63143  1  0  0  0
 64144  1  0  0  0
 65145  1  0  0  0
 68 81  1  0  0  0
 71 72  2  0  0  0
 71 74  1  0  0  0
 71146  1  0  0  0
 72 76  1  0  0  0
 72147  1  0  0  0
 73 74  2  0  0  0
 73 75  1  0  0  0
 73148  1  0  0  0
 74 77  1  0  0  0
 75 76  2  0  0  0
 75 83  1  0  0  0
 76 86  1  0  0  0
 77 84  1  0  0  0
 77 85  2  0  0  0
 78149  1  0  0  0
 78150  1  0  0  0
 78151  1  0  0  0
 78 82  1  0  0  0
 79 82  1  0  0  0
 79152  1  0  0  0
 79153  1  0  0  0
 79154  1  0  0  0
 80 82  1  0  0  0
 80 84  1  0  0  0
 80155  1  0  0  0
 80156  1  0  0  0
 81 82  1  0  0  0
 81157  1  0  0  0
 81158  1  0  0  0
 83159  1  0  0  0
 84160  1  0  0  0
M  ISO  4   1 100  68 101  81 101  83 100
M  END
> <chiral flag>
0

> <version>
0

> <s_m_source_file>
/data/baiqing/PycharmProjects/Reinvent-master-3.2/result/LINK_invent/BTK/process_docking_weight1_custom_product_contain_oxygen_bond_distance_aromatic_linkinvent_7_9_3/rearranged_h_0060.sdf

> <i_m_source_file_index>
4

> <r_mmod_Potential_Energy-OPLS-2005>
-96.3139343261719

> <r_mmod_Stretch_Energy-OPLS-2005>
46.4093971252441

> <r_mmod_Bend_Energy-OPLS-2005>
100.657691955566

> <r_mmod_Torsional_Energy-OPLS-2005>
297.499328613281

> <r_mmod_Improper_Torsional_Energy-OPLS-2005>
5.19698190689087

> <r_mmod_Van_der_Waal_Energy-OPLS-2005>
150.073181152344

> <r_mmod_Electrostatic_Energy-OPLS-2005>
-489.953399658203

> <r_mmod_Solvation_Energy-OPLS-2005>
-224.756546020508

> <b_mmod_Minimization_Converged-OPLS-2005>
0

> <r_mmod_RMS_Derivative-OPLS-2005>
1.8260817527771

$$$$
4
                    3D
 Structure written by MMmdl.
149157  0  0  1  0            999 V2000
  -30.5860  -14.8176   20.4625 C   0  0  0  0  0  0
  -30.4347  -12.5085   19.4732 C   0  0  0  0  0  0
  -29.5115  -12.5171   18.2349 C   0  0  0  0  0  0
  -28.0420  -12.3193   18.6537 C   0  0  0  0  0  0
  -27.6336  -13.2330   19.8398 C   0  0  2  0  0  0
  -28.6777  -13.2076   20.9755 C   0  0  0  0  0  0
  -25.2476  -13.8182   20.5667 C   0  0  0  0  0  0
  -24.1782  -13.0429   20.9208 C   0  0  0  0  0  0
  -24.6389  -11.6911   20.8751 C   0  0  0  0  0  0
  -23.9065  -10.4287   21.0406 C   0  0  0  0  0  0
  -24.3614   -9.4202   21.9182 C   0  0  0  0  0  0
  -23.6291   -8.2241   22.0760 C   0  0  0  0  0  0
  -22.4278   -8.0272   21.3548 C   0  0  0  0  0  0
  -21.9905   -9.0243   20.4652 C   0  0  0  0  0  0
  -22.7233  -10.2123   20.3052 C   0  0  0  0  0  0
  -21.6851   -6.0728   22.5278 C   0  0  0  0  0  0
  -21.4016   -6.5638   23.8211 C   0  0  0  0  0  0
  -21.3660   -5.6795   24.9178 C   0  0  0  0  0  0
  -21.6039   -4.3059   24.7230 C   0  0  0  0  0  0
  -21.8820   -3.8146   23.4357 C   0  0  0  0  0  0
  -21.9195   -4.6957   22.3409 C   0  0  0  0  0  0
  -22.7808  -13.5207   21.1873 C   0  0  0  0  0  0
  -22.1662   -4.2143   21.0986 F   0  0  0  0  0  0
  -21.5628   -3.4541   25.7744 F   0  0  0  0  0  0
  -29.9672  -13.5839   20.3835 N   0  0  0  0  0  0
  -26.2896  -12.9393   20.3223 N   0  0  0  0  0  0
  -25.9305  -11.6537   20.5727 N   0  0  0  0  0  0
  -22.0463  -12.8194   22.0435 N   0  0  0  0  0  0
  -25.4138  -15.1907   20.4062 N   0  0  0  0  0  0
  -31.7899  -14.8910   20.1936 O   0  0  0  0  0  0
  -21.6647   -6.8870   21.4242 O   0  0  0  0  0  0
  -22.3494  -14.5516   20.6722 O   0  0  0  0  0  0
  -24.6356  -31.8515   23.1963 C   0  0  0  0  0  0
  -25.9171  -32.4737   23.8316 C   0  0  1  0  0  0
  -27.2229  -27.2251   20.1484 C   0  0  0  0  0  0
  -25.5946  -33.8536   24.2235 N   0  0  0  0  0  0
  -23.4342  -30.4705   21.5406 C   0  0  2  0  0  0
  -24.8815  -28.9043   20.1198 C   0  0  0  0  0  0
  -22.7513  -29.4569   22.4917 C   0  0  0  0  0  0
  -18.0279  -28.1395   22.8494 C   0  0  0  0  0  0
  -24.1481  -36.7265   23.2643 C   0  0  0  0  0  0
  -25.9817  -30.7530   21.3793 C   0  0  0  0  0  0
  -26.0542  -29.3679   20.7303 C   0  0  0  0  0  0
  -27.2303  -28.5434   20.7296 C   0  0  0  0  0  0
  -26.0264  -26.8289   19.5182 C   0  0  0  0  0  0
  -24.8727  -27.6423   19.5029 C   0  0  0  0  0  0
  -23.6566  -29.7997   20.1587 C   0  0  0  0  0  0
  -25.4117  -36.3055   24.0325 C   0  0  1  0  0  0
  -20.5889  -28.3694   23.1279 C   0  0  2  0  0  0
  -20.6770  -26.9410   22.5414 C   0  0  0  0  0  0
  -19.5737  -26.6386   21.5219 C   0  0  0  0  0  0
  -18.1920  -26.7933   22.1646 C   0  0  0  0  0  0
  -19.1535  -28.8867   23.2877 C   0  0  0  0  0  0
  -18.9455  -30.1473   23.8885 C   0  0  0  0  0  0
  -17.6454  -30.6595   24.0563 C   0  0  0  0  0  0
  -25.9062  -34.9426   23.5079 C   0  0  0  0  0  0
  -16.5348  -29.9091   23.6339 C   0  0  0  0  0  0
  -16.7267  -28.6511   23.0361 C   0  0  0  0  0  0
  -26.4521  -31.6581   25.0719 C   0  0  0  0  0  0
  -25.3733  -31.3779   26.1437 C   0  0  0  0  0  0
  -27.0344  -30.2986   24.6223 C   0  0  0  0  0  0
  -27.6078  -32.4311   25.7482 C   0  0  0  0  0  0
  -27.5566  -37.1802   24.8479 C   0  0  0  0  0  0
  -21.4210  -29.3038   22.3670 N   0  0  0  0  0  0
  -26.4291  -37.3760   23.9401 N   0  0  0  0  0  0
  -24.7037  -31.0440   22.0956 N   0  0  0  0  0  0
  -23.4185  -28.8109   23.3037 O   0  0  0  0  0  0
  -28.3162  -26.3219   20.1017 O   0  0  0  0  0  0
  -26.5622  -34.8915   22.4638 O   0  0  0  0  0  0
  -23.5496  -32.1345   23.7244 O   0  0  0  0  0  0
  -31.7030  -19.0292   21.8449 C   0  0  0  0  0  0
  -30.9318  -20.1413   21.4512 C   0  0  0  0  0  0
  -31.3254  -17.7078   21.5318 C   0  0  0  0  0  0
  -29.3627  -18.6037   20.4066 C   0  0  0  0  0  0
  -29.7354  -19.9956   20.7138 C   0  0  0  0  0  0
  -30.1492  -17.4214   20.8034 C   0  0  0  0  0  0
  -28.7862  -23.7975   20.1511 C   0  0  0  0  0  0
  -28.2439  -24.9918   20.6445 C   0  0  0  0  0  0
  -28.8696  -22.4779   20.9098 C   0  0  0  0  0  0
  -29.0912  -21.2710   20.2326 N   0  0  0  0  0  0
  -29.7977  -15.9746   20.5795 N   0  0  0  0  0  0
  -28.7588  -22.4493   22.1375 O   0  0  0  0  0  0
  -31.4722  -12.6501   19.1659 H   0  0  0  0  0  0
  -30.3994  -11.5412   19.9760 H   0  0  0  0  0  0
  -29.8110  -11.7368   17.5332 H   0  0  0  0  0  0
  -29.6176  -13.4645   17.7038 H   0  0  0  0  0  0
  -27.9200  -11.2722   18.9354 H   0  0  0  0  0  0
  -27.3795  -12.4823   17.8032 H   0  0  0  0  0  0
  -27.6140  -14.2452   19.4365 H   0  0  0  0  0  0
  -28.7354  -12.2207   21.4358 H   0  0  0  0  0  0
  -28.3977  -13.9027   21.7689 H   0  0  0  0  0  0
  -25.2760   -9.5688   22.4759 H   0  0  0  0  0  0
  -24.0007   -7.4631   22.7474 H   0  0  0  0  0  0
  -21.0840   -8.8747   19.8955 H   0  0  0  0  0  0
  -22.3678  -10.9656   19.6162 H   0  0  0  0  0  0
  -21.2006   -7.6146   23.9709 H   0  0  0  0  0  0
  -21.1478   -6.0531   25.9078 H   0  0  0  0  0  0
  -22.0597   -2.7606   23.2858 H   0  0  0  0  0  0
  -22.4094  -11.9861   22.4821 H   0  0  0  0  0  0
  -21.1076  -13.1219   22.2646 H   0  0  0  0  0  0
  -24.6359  -15.8350   20.4994 H   0  0  0  0  0  0
  -26.2484  -15.6321   20.0440 H   0  0  0  0  0  0
  -26.7216  -32.5373   23.1034 H   0  0  0  0  0  0
  -25.0123  -33.9661   25.0404 H   0  0  0  0  0  0
  -22.7334  -31.2956   21.3926 H   0  0  0  0  0  0
  -23.3735  -35.9609   23.3351 H   0  0  0  0  0  0
  -24.3559  -36.8834   22.2045 H   0  0  0  0  0  0
  -23.7251  -37.6493   23.6633 H   0  0  0  0  0  0
  -26.1181  -31.5082   20.6040 H   0  0  0  0  0  0
  -26.8595  -30.8105   22.0112 H   0  0  0  0  0  0
  -28.1344  -28.9006   21.2006 H   0  0  0  0  0  0
  -25.9829  -25.8620   19.0361 H   0  0  0  0  0  0
  -23.9750  -27.2803   19.0198 H   0  0  0  0  0  0
  -23.7892  -30.5749   19.4034 H   0  0  0  0  0  0
  -22.7730  -29.2389   19.8511 H   0  0  0  0  0  0
  -25.1304  -36.1896   25.0821 H   0  0  0  0  0  0
  -20.9981  -28.3248   24.1406 H   0  0  0  0  0  0
  -20.5667  -26.2292   23.3613 H   0  0  0  0  0  0
  -21.6633  -26.7425   22.1214 H   0  0  0  0  0  0
  -19.6886  -25.6290   21.1257 H   0  0  0  0  0  0
  -19.6675  -27.3191   20.6742 H   0  0  0  0  0  0
  -17.4192  -26.6677   21.4052 H   0  0  0  0  0  0
  -18.0326  -26.0077   22.9048 H   0  0  0  0  0  0
  -19.7927  -30.7299   24.2244 H   0  0  0  0  0  0
  -17.5005  -31.6273   24.5165 H   0  0  0  0  0  0
  -15.5346  -30.2990   23.7674 H   0  0  0  0  0  0
  -15.8670  -28.0828   22.7079 H   0  0  0  0  0  0
  -24.5859  -30.7174   25.7778 H   0  0  0  0  0  0
  -24.8981  -32.2976   26.4857 H   0  0  0  0  0  0
  -25.8029  -30.8941   27.0215 H   0  0  0  0  0  0
  -26.2916  -29.6747   24.1235 H   0  0  0  0  0  0
  -27.3991  -29.7246   25.4751 H   0  0  0  0  0  0
  -27.8821  -30.4247   23.9483 H   0  0  0  0  0  0
  -27.2713  -33.3659   26.1977 H   0  0  0  0  0  0
  -28.3940  -32.6781   25.0333 H   0  0  0  0  0  0
  -28.0679  -31.8467   26.5459 H   0  0  0  0  0  0
  -28.2634  -38.0051   24.7461 H   0  0  0  0  0  0
  -28.1002  -36.2577   24.6385 H   0  0  0  0  0  0
  -27.2268  -37.1553   25.8882 H   0  0  0  0  0  0
  -20.9393  -29.8792   21.6904 H   0  0  0  0  0  0
  -26.0158  -38.2834   24.1386 H   0  0  0  0  0  0
  -32.6173  -19.1948   22.3979 H   0  0  0  0  0  0
  -31.2984  -21.1280   21.6981 H   0  0  0  0  0  0
  -31.9603  -16.9056   21.8815 H   0  0  0  0  0  0
  -28.4523  -18.4407   19.8477 H   0  0  0  0  0  0
  -29.2531  -23.8297   19.1774 H   0  0  0  0  0  0
  -27.7325  -25.0023   21.5975 H   0  0  0  0  0  0
  -28.9127  -21.3104   19.2387 H   0  0  0  0  0  0
  -28.8083  -15.7850   20.5410 H   0  0  0  0  0  0
  1 25  1  0  0  0
  1 30  2  0  0  0
  1 81  1  0  0  0
  2  3  1  0  0  0
  2 25  1  0  0  0
  2 83  1  0  0  0
  2 84  1  0  0  0
  3  4  1  0  0  0
  3 85  1  0  0  0
  3 86  1  0  0  0
  4  5  1  0  0  0
  4 87  1  0  0  0
  4 88  1  0  0  0
  5  6  1  0  0  0
  5 26  1  0  0  0
  5 89  1  0  0  0
  6 25  1  0  0  0
  6 90  1  0  0  0
  6 91  1  0  0  0
  7  8  2  0  0  0
  7 26  1  0  0  0
  7 29  1  0  0  0
  8  9  1  0  0  0
  8 22  1  0  0  0
  9 10  1  0  0  0
  9 27  2  0  0  0
 10 11  2  0  0  0
 10 15  1  0  0  0
 11 12  1  0  0  0
 11 92  1  0  0  0
 12 13  2  0  0  0
 12 93  1  0  0  0
 13 14  1  0  0  0
 13 31  1  0  0  0
 14 15  2  0  0  0
 14 94  1  0  0  0
 15 95  1  0  0  0
 16 17  2  0  0  0
 16 21  1  0  0  0
 16 31  1  0  0  0
 17 18  1  0  0  0
 17 96  1  0  0  0
 18 19  2  0  0  0
 18 97  1  0  0  0
 19 20  1  0  0  0
 19 24  1  0  0  0
 20 21  2  0  0  0
 20 98  1  0  0  0
 21 23  1  0  0  0
 22 28  1  0  0  0
 22 32  2  0  0  0
 26 27  1  0  0  0
 28 99  1  0  0  0
 28100  1  0  0  0
 29101  1  0  0  0
 29102  1  0  0  0
 33 34  1  0  0  0
 33 66  1  0  0  0
 33 70  2  0  0  0
 34 36  1  0  0  0
 34 59  1  0  0  0
 34103  1  0  0  0
 35 44  2  0  0  0
 35 45  1  0  0  0
 35 68  1  0  0  0
 36 56  1  0  0  0
 36104  1  0  0  0
 37 39  1  0  0  0
 37 47  1  0  0  0
 37 66  1  0  0  0
 37105  1  0  0  0
 38 43  2  0  0  0
 38 46  1  0  0  0
 38 47  1  0  0  0
 39 64  1  0  0  0
 39 67  2  0  0  0
 40 52  1  0  0  0
 40 53  2  0  0  0
 40 58  1  0  0  0
 41106  1  0  0  0
 41107  1  0  0  0
 41108  1  0  0  0
 41 48  1  0  0  0
 42 43  1  0  0  0
 42 66  1  0  0  0
 42109  1  0  0  0
 42110  1  0  0  0
 43 44  1  0  0  0
 44111  1  0  0  0
 45 46  2  0  0  0
 45112  1  0  0  0
 46113  1  0  0  0
 47114  1  0  0  0
 47115  1  0  0  0
 48 56  1  0  0  0
 48 65  1  0  0  0
 48116  1  0  0  0
 49 50  1  0  0  0
 49 53  1  0  0  0
 49 64  1  0  0  0
 49117  1  0  0  0
 50 51  1  0  0  0
 50118  1  0  0  0
 50119  1  0  0  0
 51 52  1  0  0  0
 51120  1  0  0  0
 51121  1  0  0  0
 52122  1  0  0  0
 52123  1  0  0  0
 53 54  1  0  0  0
 54 55  2  0  0  0
 54124  1  0  0  0
 55 57  1  0  0  0
 55125  1  0  0  0
 56 69  2  0  0  0
 57 58  2  0  0  0
 57126  1  0  0  0
 58127  1  0  0  0
 59 60  1  0  0  0
 59 61  1  0  0  0
 59 62  1  0  0  0
 60128  1  0  0  0
 60129  1  0  0  0
 60130  1  0  0  0
 61131  1  0  0  0
 61132  1  0  0  0
 61133  1  0  0  0
 62134  1  0  0  0
 62135  1  0  0  0
 62136  1  0  0  0
 63 65  1  0  0  0
 63137  1  0  0  0
 63138  1  0  0  0
 63139  1  0  0  0
 64140  1  0  0  0
 65141  1  0  0  0
 68 78  1  0  0  0
 71 72  2  0  0  0
 71 73  1  0  0  0
 71142  1  0  0  0
 72 75  1  0  0  0
 72143  1  0  0  0
 73 76  2  0  0  0
 73144  1  0  0  0
 74 75  2  0  0  0
 74 76  1  0  0  0
 74145  1  0  0  0
 75 80  1  0  0  0
 76 81  1  0  0  0
 77 78  2  0  0  0
 77 79  1  0  0  0
 77146  1  0  0  0
 78147  1  0  0  0
 79 80  1  0  0  0
 79 82  2  0  0  0
 80148  1  0  0  0
 81149  1  0  0  0
M  ISO  4   1 100  68 101  78 101  81 100
M  END
> <chiral flag>
0

> <version>
0

> <s_m_source_file>
/data/baiqing/PycharmProjects/Reinvent-master-3.2/result/LINK_invent/BTK/process_docking_weight1_custom_product_contain_oxygen_bond_distance_aromatic_linkinvent_7_9_3/rearranged_h_0060.sdf

> <i_m_source_file_index>
5

> <r_mmod_Potential_Energy-OPLS-2005>
225.721710205078

> <r_mmod_Stretch_Energy-OPLS-2005>
150.955795288086

> <r_mmod_Bend_Energy-OPLS-2005>
168.483627319336

> <r_mmod_Torsional_Energy-OPLS-2005>
266.281341552734

> <r_mmod_Improper_Torsional_Energy-OPLS-2005>
8.213942527771

> <r_mmod_Van_der_Waal_Energy-OPLS-2005>
133.450607299805

> <r_mmod_Electrostatic_Energy-OPLS-2005>
-381.644805908203

> <r_mmod_Solvation_Energy-OPLS-2005>
-232.530303955078

> <b_mmod_Minimization_Converged-OPLS-2005>
0

> <r_mmod_RMS_Derivative-OPLS-2005>
2.62025117874146

$$$$
5
                    3D
 Structure written by MMmdl.
147155  0  0  1  0            999 V2000
  -30.5168  -15.0563   20.3992 C   0  0  0  0  0  0
  -30.4388  -12.6612   19.5064 C   0  0  0  0  0  0
  -29.5243  -12.5404   18.2648 C   0  0  0  0  0  0
  -28.0627  -12.3066   18.6880 C   0  0  0  0  0  0
  -27.6220  -13.2578   19.8306 C   0  0  2  0  0  0
  -28.6636  -13.3432   20.9662 C   0  0  0  0  0  0
  -25.2430  -13.8229   20.5720 C   0  0  0  0  0  0
  -24.1762  -13.0438   20.9241 C   0  0  0  0  0  0
  -24.6396  -11.6928   20.8763 C   0  0  0  0  0  0
  -23.9085  -10.4293   21.0412 C   0  0  0  0  0  0
  -24.3631   -9.4206   21.9188 C   0  0  0  0  0  0
  -23.6301   -8.2243   22.0757 C   0  0  0  0  0  0
  -22.4283   -8.0283   21.3546 C   0  0  0  0  0  0
  -21.9922   -9.0258   20.4647 C   0  0  0  0  0  0
  -22.7257  -10.2135   20.3058 C   0  0  0  0  0  0
  -21.6855   -6.0738   22.5279 C   0  0  0  0  0  0
  -21.4015   -6.5641   23.8213 C   0  0  0  0  0  0
  -21.3660   -5.6793   24.9174 C   0  0  0  0  0  0
  -21.6044   -4.3057   24.7224 C   0  0  0  0  0  0
  -21.8818   -3.8148   23.4346 C   0  0  0  0  0  0
  -21.9192   -4.6965   22.3402 C   0  0  0  0  0  0
  -22.7780  -13.5201   21.1891 C   0  0  0  0  0  0
  -22.1661   -4.2150   21.0980 F   0  0  0  0  0  0
  -21.5628   -3.4540   25.7737 F   0  0  0  0  0  0
  -29.9236  -13.7840   20.3527 N   0  0  0  0  0  0
  -26.2856  -12.9477   20.3233 N   0  0  0  0  0  0
  -25.9329  -11.6599   20.5738 N   0  0  0  0  0  0
  -22.0434  -12.8184   22.0446 N   0  0  0  0  0  0
  -25.4068  -15.1960   20.4132 N   0  0  0  0  0  0
  -31.7319  -15.0728   20.1677 O   0  0  0  0  0  0
  -21.6643   -6.8882   21.4242 O   0  0  0  0  0  0
  -22.3461  -14.5504   20.6734 O   0  0  0  0  0  0
  -24.6512  -31.8369   23.1821 C   0  0  0  0  0  0
  -25.9249  -32.4657   23.8237 C   0  0  1  0  0  0
  -27.2146  -27.0584   20.1627 C   0  0  0  0  0  0
  -25.5968  -33.8466   24.2151 N   0  0  0  0  0  0
  -23.4588  -30.4546   21.5291 C   0  0  2  0  0  0
  -24.9096  -28.8693   20.1103 C   0  0  0  0  0  0
  -22.7607  -29.4512   22.4827 C   0  0  0  0  0  0
  -18.0313  -28.1400   22.8475 C   0  0  0  0  0  0
  -24.1493  -36.7236   23.2645 C   0  0  0  0  0  0
  -26.0208  -30.6863   21.3928 C   0  0  0  0  0  0
  -26.0908  -29.2903   20.7344 C   0  0  0  0  0  0
  -27.2429  -28.4034   20.7400 C   0  0  0  0  0  0
  -26.0054  -26.7611   19.4946 C   0  0  0  0  0  0
  -24.8847  -27.6209   19.4727 C   0  0  0  0  0  0
  -23.6902  -29.7811   20.1504 C   0  0  0  0  0  0
  -25.4129  -36.3007   24.0310 C   0  0  1  0  0  0
  -20.5930  -28.3733   23.1216 C   0  0  2  0  0  0
  -20.6794  -26.9427   22.5403 C   0  0  0  0  0  0
  -19.5767  -26.6380   21.5213 C   0  0  0  0  0  0
  -18.1949  -26.7938   22.1623 C   0  0  0  0  0  0
  -19.1571  -28.8886   23.2837 C   0  0  0  0  0  0
  -18.9485  -30.1480   23.8866 C   0  0  0  0  0  0
  -17.6480  -30.6594   24.0557 C   0  0  0  0  0  0
  -25.9085  -34.9386   23.5043 C   0  0  0  0  0  0
  -16.5371  -29.9085   23.6340 C   0  0  0  0  0  0
  -16.7296  -28.6503   23.0361 C   0  0  0  0  0  0
  -26.4543  -31.6551   25.0710 C   0  0  0  0  0  0
  -25.3706  -31.3764   26.1391 C   0  0  0  0  0  0
  -27.0420  -30.2937   24.6348 C   0  0  0  0  0  0
  -27.6058  -32.4333   25.7501 C   0  0  0  0  0  0
  -27.5573  -37.1776   24.8467 C   0  0  0  0  0  0
  -21.4289  -29.3047   22.3578 N   0  0  0  0  0  0
  -26.4285  -37.3729   23.9407 N   0  0  0  0  0  0
  -24.7306  -31.0157   22.0891 N   0  0  0  0  0  0
  -23.4215  -28.8067   23.3009 O   0  0  0  0  0  0
  -28.2358  -26.0145   20.2391 O   0  0  0  0  0  0
  -26.5676  -34.8898   22.4626 O   0  0  0  0  0  0
  -23.5612  -32.1276   23.6994 O   0  0  0  0  0  0
  -31.4135  -18.1950   20.5908 C   0  0  0  0  0  0
  -31.8272  -19.5460   20.6098 C   0  0  0  0  0  0
  -29.1545  -19.0276   20.3631 C   0  0  0  0  0  0
  -29.5404  -20.4940   20.3757 C   0  0  0  0  0  0
  -30.0601  -17.8173   20.4641 C   0  0  0  0  0  0
  -30.9473  -20.6484   20.5049 C   0  0  0  0  0  0
  -28.8940  -23.1000   20.3251 C   0  0  0  0  0  0
  -27.8925  -24.4663   20.0813 C   0  0  0  0  0  0
  -28.6512  -21.7408   20.2388 N   0  0  0  0  0  0
  -29.7426  -16.2804   20.4764 N   0  0  0  0  0  0
  -31.5081  -21.8801   20.5200 F   0  0  0  0  0  0
  -31.4684  -12.8297   19.1871 H   0  0  0  0  0  0
  -30.4541  -11.7271   20.0705 H   0  0  0  0  0  0
  -29.8632  -11.7283   17.6201 H   0  0  0  0  0  0
  -29.5924  -13.4532   17.6710 H   0  0  0  0  0  0
  -27.9801  -11.2715   19.0213 H   0  0  0  0  0  0
  -27.3963  -12.4043   17.8302 H   0  0  0  0  0  0
  -27.5665  -14.2465   19.3743 H   0  0  0  0  0  0
  -28.7789  -12.3836   21.4725 H   0  0  0  0  0  0
  -28.3443  -14.0593   21.7252 H   0  0  0  0  0  0
  -25.2773   -9.5679   22.4767 H   0  0  0  0  0  0
  -24.0005   -7.4633   22.7478 H   0  0  0  0  0  0
  -21.0854   -8.8782   19.8952 H   0  0  0  0  0  0
  -22.3718  -10.9675   19.6169 H   0  0  0  0  0  0
  -21.2010   -7.6149   23.9716 H   0  0  0  0  0  0
  -21.1481   -6.0524   25.9077 H   0  0  0  0  0  0
  -22.0597   -2.7610   23.2846 H   0  0  0  0  0  0
  -22.4060  -11.9852   22.4837 H   0  0  0  0  0  0
  -21.1048  -13.1199   22.2652 H   0  0  0  0  0  0
  -24.6328  -15.8430   20.5196 H   0  0  0  0  0  0
  -26.2414  -15.6375   20.0506 H   0  0  0  0  0  0
  -26.7315  -32.5237   23.0959 H   0  0  0  0  0  0
  -25.0087  -33.9567   25.0280 H   0  0  0  0  0  0
  -22.7655  -31.2831   21.3697 H   0  0  0  0  0  0
  -23.3762  -35.9561   23.3292 H   0  0  0  0  0  0
  -24.3577  -36.8885   22.2062 H   0  0  0  0  0  0
  -23.7243  -37.6424   23.6697 H   0  0  0  0  0  0
  -26.1870  -31.4371   20.6190 H   0  0  0  0  0  0
  -26.8870  -30.7375   22.0407 H   0  0  0  0  0  0
  -28.1396  -28.7215   21.2533 H   0  0  0  0  0  0
  -25.8846  -25.8090   19.0013 H   0  0  0  0  0  0
  -23.9850  -27.2936   18.9699 H   0  0  0  0  0  0
  -23.8343  -30.5546   19.3951 H   0  0  0  0  0  0
  -22.8026  -29.2289   19.8360 H   0  0  0  0  0  0
  -25.1323  -36.1823   25.0803 H   0  0  0  0  0  0
  -21.0024  -28.3328   24.1337 H   0  0  0  0  0  0
  -20.5684  -26.2347   23.3631 H   0  0  0  0  0  0
  -21.6658  -26.7423   22.1202 H   0  0  0  0  0  0
  -19.6928  -25.6284   21.1261 H   0  0  0  0  0  0
  -19.6704  -27.3174   20.6729 H   0  0  0  0  0  0
  -17.4218  -26.6681   21.4026 H   0  0  0  0  0  0
  -18.0347  -26.0089   22.9028 H   0  0  0  0  0  0
  -19.7961  -30.7305   24.2220 H   0  0  0  0  0  0
  -17.5032  -31.6272   24.5163 H   0  0  0  0  0  0
  -15.5369  -30.2976   23.7683 H   0  0  0  0  0  0
  -15.8696  -28.0810   22.7096 H   0  0  0  0  0  0
  -24.5904  -30.7091   25.7711 H   0  0  0  0  0  0
  -24.8877  -32.2953   26.4724 H   0  0  0  0  0  0
  -25.7976  -30.9002   27.0226 H   0  0  0  0  0  0
  -26.3058  -29.6640   24.1341 H   0  0  0  0  0  0
  -27.3988  -29.7260   25.4952 H   0  0  0  0  0  0
  -27.8985  -30.4151   23.9713 H   0  0  0  0  0  0
  -27.2644  -33.3666   26.1990 H   0  0  0  0  0  0
  -28.3917  -32.6839   25.0362 H   0  0  0  0  0  0
  -28.0674  -31.8515   26.5490 H   0  0  0  0  0  0
  -28.2584  -38.0078   24.7509 H   0  0  0  0  0  0
  -28.1075  -36.2607   24.6303 H   0  0  0  0  0  0
  -27.2290  -37.1430   25.8870 H   0  0  0  0  0  0
  -20.9513  -29.8753   21.6741 H   0  0  0  0  0  0
  -26.0144  -38.2793   24.1410 H   0  0  0  0  0  0
  -32.1834  -17.4444   20.6852 H   0  0  0  0  0  0
  -32.8828  -19.7520   20.7078 H   0  0  0  0  0  0
  -28.0987  -18.8224   20.2638 H   0  0  0  0  0  0
  -29.8928  -23.4466   20.5929 H   0  0  0  0  0  0
  -27.0161  -24.2988   20.7076 H   0  0  0  0  0  0
  -27.5313  -24.3558   19.0596 H   0  0  0  0  0  0
  -28.7563  -16.0799   20.5437 H   0  0  0  0  0  0
  1 25  1  0  0  0
  1 30  2  0  0  0
  1 80  1  0  0  0
  2  3  1  0  0  0
  2 25  1  0  0  0
  2 82  1  0  0  0
  2 83  1  0  0  0
  3  4  1  0  0  0
  3 84  1  0  0  0
  3 85  1  0  0  0
  4  5  1  0  0  0
  4 86  1  0  0  0
  4 87  1  0  0  0
  5  6  1  0  0  0
  5 26  1  0  0  0
  5 88  1  0  0  0
  6 25  1  0  0  0
  6 89  1  0  0  0
  6 90  1  0  0  0
  7  8  2  0  0  0
  7 26  1  0  0  0
  7 29  1  0  0  0
  8  9  1  0  0  0
  8 22  1  0  0  0
  9 10  1  0  0  0
  9 27  2  0  0  0
 10 11  2  0  0  0
 10 15  1  0  0  0
 11 12  1  0  0  0
 11 91  1  0  0  0
 12 13  2  0  0  0
 12 92  1  0  0  0
 13 14  1  0  0  0
 13 31  1  0  0  0
 14 15  2  0  0  0
 14 93  1  0  0  0
 15 94  1  0  0  0
 16 17  2  0  0  0
 16 21  1  0  0  0
 16 31  1  0  0  0
 17 18  1  0  0  0
 17 95  1  0  0  0
 18 19  2  0  0  0
 18 96  1  0  0  0
 19 20  1  0  0  0
 19 24  1  0  0  0
 20 21  2  0  0  0
 20 97  1  0  0  0
 21 23  1  0  0  0
 22 28  1  0  0  0
 22 32  2  0  0  0
 26 27  1  0  0  0
 28 98  1  0  0  0
 28 99  1  0  0  0
 29100  1  0  0  0
 29101  1  0  0  0
 33 34  1  0  0  0
 33 66  1  0  0  0
 33 70  2  0  0  0
 34 36  1  0  0  0
 34 59  1  0  0  0
 34102  1  0  0  0
 35 44  2  0  0  0
 35 45  1  0  0  0
 35 68  1  0  0  0
 36 56  1  0  0  0
 36103  1  0  0  0
 37 39  1  0  0  0
 37 47  1  0  0  0
 37 66  1  0  0  0
 37104  1  0  0  0
 38 43  2  0  0  0
 38 46  1  0  0  0
 38 47  1  0  0  0
 39 64  1  0  0  0
 39 67  2  0  0  0
 40 52  1  0  0  0
 40 53  2  0  0  0
 40 58  1  0  0  0
 41105  1  0  0  0
 41106  1  0  0  0
 41107  1  0  0  0
 41 48  1  0  0  0
 42 43  1  0  0  0
 42 66  1  0  0  0
 42108  1  0  0  0
 42109  1  0  0  0
 43 44  1  0  0  0
 44110  1  0  0  0
 45 46  2  0  0  0
 45111  1  0  0  0
 46112  1  0  0  0
 47113  1  0  0  0
 47114  1  0  0  0
 48 56  1  0  0  0
 48 65  1  0  0  0
 48115  1  0  0  0
 49 50  1  0  0  0
 49 53  1  0  0  0
 49 64  1  0  0  0
 49116  1  0  0  0
 50 51  1  0  0  0
 50117  1  0  0  0
 50118  1  0  0  0
 51 52  1  0  0  0
 51119  1  0  0  0
 51120  1  0  0  0
 52121  1  0  0  0
 52122  1  0  0  0
 53 54  1  0  0  0
 54 55  2  0  0  0
 54123  1  0  0  0
 55 57  1  0  0  0
 55124  1  0  0  0
 56 69  2  0  0  0
 57 58  2  0  0  0
 57125  1  0  0  0
 58126  1  0  0  0
 59 60  1  0  0  0
 59 61  1  0  0  0
 59 62  1  0  0  0
 60127  1  0  0  0
 60128  1  0  0  0
 60129  1  0  0  0
 61130  1  0  0  0
 61131  1  0  0  0
 61132  1  0  0  0
 62133  1  0  0  0
 62134  1  0  0  0
 62135  1  0  0  0
 63 65  1  0  0  0
 63136  1  0  0  0
 63137  1  0  0  0
 63138  1  0  0  0
 64139  1  0  0  0
 65140  1  0  0  0
 68 78  1  0  0  0
 71 72  2  0  0  0
 71 75  1  0  0  0
 71141  1  0  0  0
 72 76  1  0  0  0
 72142  1  0  0  0
 73 74  1  0  0  0
 73 75  2  0  0  0
 73143  1  0  0  0
 74 76  2  0  0  0
 74 79  1  0  0  0
 75 80  1  0  0  0
 76 81  1  0  0  0
 77 78  1  0  0  0
 77 79  2  0  0  0
 77144  1  0  0  0
 78145  1  0  0  0
 78146  1  0  0  0
 80147  1  0  0  0
M  ISO  4   1 100  68 101  78 101  80 100
M  END
> <chiral flag>
0

> <version>
0

> <s_m_source_file>
/data/baiqing/PycharmProjects/Reinvent-master-3.2/result/LINK_invent/BTK/process_docking_weight1_custom_product_contain_oxygen_bond_distance_aromatic_linkinvent_7_9_3/rearranged_h_0060.sdf

> <i_m_source_file_index>
6

> <r_mmod_Potential_Energy-OPLS-2005>
714.309509277344

> <r_mmod_Stretch_Energy-OPLS-2005>
362.367431640625

> <r_mmod_Bend_Energy-OPLS-2005>
282.895355224609

> <r_mmod_Torsional_Energy-OPLS-2005>
210.389282226562

> <r_mmod_Improper_Torsional_Energy-OPLS-2005>
4.91724824905396

> <r_mmod_Van_der_Waal_Energy-OPLS-2005>
139.291625976562

> <r_mmod_Electrostatic_Energy-OPLS-2005>
-348.592437744141

> <r_mmod_Solvation_Energy-OPLS-2005>
-210.916763305664

> <b_mmod_Minimization_Converged-OPLS-2005>
0

> <r_mmod_RMS_Derivative-OPLS-2005>
0.331151485443115

$$$$
6
                    3D
 Structure written by MMmdl.
161170  0  0  1  0            999 V2000
  -30.5126  -15.0134   20.3853 C   0  0  0  0  0  0
  -30.4357  -12.6221   19.5178 C   0  0  0  0  0  0
  -29.5267  -12.5211   18.2692 C   0  0  0  0  0  0
  -28.0575  -12.3114   18.6799 C   0  0  0  0  0  0
  -27.6230  -13.2552   19.8318 C   0  0  2  0  0  0
  -28.6600  -13.3165   20.9722 C   0  0  0  0  0  0
  -25.2430  -13.8232   20.5706 C   0  0  0  0  0  0
  -24.1757  -13.0442   20.9229 C   0  0  0  0  0  0
  -24.6385  -11.6934   20.8750 C   0  0  0  0  0  0
  -23.9078  -10.4297   21.0404 C   0  0  0  0  0  0
  -24.3630   -9.4208   21.9179 C   0  0  0  0  0  0
  -23.6300   -8.2244   22.0750 C   0  0  0  0  0  0
  -22.4279   -8.0285   21.3545 C   0  0  0  0  0  0
  -21.9921   -9.0259   20.4640 C   0  0  0  0  0  0
  -22.7254  -10.2135   20.3049 C   0  0  0  0  0  0
  -21.6854   -6.0737   22.5278 C   0  0  0  0  0  0
  -21.4017   -6.5639   23.8213 C   0  0  0  0  0  0
  -21.3666   -5.6789   24.9174 C   0  0  0  0  0  0
  -21.6045   -4.3054   24.7216 C   0  0  0  0  0  0
  -21.8823   -3.8147   23.4339 C   0  0  0  0  0  0
  -21.9193   -4.6968   22.3395 C   0  0  0  0  0  0
  -22.7782  -13.5205   21.1893 C   0  0  0  0  0  0
  -22.1663   -4.2158   21.0974 F   0  0  0  0  0  0
  -21.5631   -3.4534   25.7728 F   0  0  0  0  0  0
  -29.9300  -13.7404   20.3715 N   0  0  0  0  0  0
  -26.2847  -12.9470   20.3210 N   0  0  0  0  0  0
  -25.9314  -11.6593   20.5715 N   0  0  0  0  0  0
  -22.0448  -12.8178   22.0447 N   0  0  0  0  0  0
  -25.4098  -15.1962   20.4136 N   0  0  0  0  0  0
  -31.7272  -15.0510   20.1674 O   0  0  0  0  0  0
  -21.6646   -6.8884   21.4238 O   0  0  0  0  0  0
  -22.3455  -14.5513   20.6752 O   0  0  0  0  0  0
  -24.6484  -31.8421   23.1844 C   0  0  0  0  0  0
  -25.9240  -32.4682   23.8255 C   0  0  1  0  0  0
  -27.2151  -27.0841   20.1652 C   0  0  0  0  0  0
  -25.5979  -33.8491   24.2180 N   0  0  0  0  0  0
  -23.4543  -30.4590   21.5309 C   0  0  2  0  0  0
  -24.9045  -28.8750   20.1128 C   0  0  0  0  0  0
  -22.7591  -29.4546   22.4846 C   0  0  0  0  0  0
  -18.0318  -28.1407   22.8485 C   0  0  0  0  0  0
  -24.1486  -36.7228   23.2645 C   0  0  0  0  0  0
  -26.0141  -30.6971   21.3929 C   0  0  0  0  0  0
  -26.0839  -29.3029   20.7356 C   0  0  0  0  0  0
  -27.2402  -28.4258   20.7397 C   0  0  0  0  0  0
  -26.0105  -26.7745   19.4955 C   0  0  0  0  0  0
  -24.8838  -27.6259   19.4752 C   0  0  0  0  0  0
  -23.6846  -29.7848   20.1519 C   0  0  0  0  0  0
  -25.4122  -36.3020   24.0314 C   0  0  1  0  0  0
  -20.5930  -28.3743   23.1220 C   0  0  2  0  0  0
  -20.6790  -26.9441   22.5401 C   0  0  0  0  0  0
  -19.5763  -26.6394   21.5212 C   0  0  0  0  0  0
  -18.1950  -26.7947   22.1629 C   0  0  0  0  0  0
  -19.1575  -28.8896   23.2845 C   0  0  0  0  0  0
  -18.9490  -30.1487   23.8878 C   0  0  0  0  0  0
  -17.6484  -30.6602   24.0568 C   0  0  0  0  0  0
  -25.9085  -34.9400   23.5054 C   0  0  0  0  0  0
  -16.5377  -29.9094   23.6338 C   0  0  0  0  0  0
  -16.7302  -28.6510   23.0366 C   0  0  0  0  0  0
  -26.4542  -31.6560   25.0717 C   0  0  0  0  0  0
  -25.3714  -31.3763   26.1399 C   0  0  0  0  0  0
  -27.0415  -30.2948   24.6332 C   0  0  0  0  0  0
  -27.6068  -32.4330   25.7510 C   0  0  0  0  0  0
  -27.5571  -37.1764   24.8471 C   0  0  0  0  0  0
  -21.4280  -29.3059   22.3580 N   0  0  0  0  0  0
  -26.4283  -37.3734   23.9416 N   0  0  0  0  0  0
  -24.7255  -31.0220   22.0908 N   0  0  0  0  0  0
  -23.4207  -28.8121   23.3044 O   0  0  0  0  0  0
  -28.2619  -26.0727   20.2055 O   0  0  0  0  0  0
  -26.5663  -34.8898   22.4630 O   0  0  0  0  0  0
  -23.5587  -32.1347   23.7013 O   0  0  0  0  0  0
  -30.2812  -20.4781   19.0646 C   0  0  0  0  0  0
  -29.2483  -18.9238   20.5830 C   0  0  0  0  0  0
  -30.8678  -19.3677   18.4111 C   0  0  0  0  0  0
  -30.5821  -18.0028   18.7564 C   0  0  0  0  0  0
  -29.3806  -20.3591   20.1357 C   0  0  0  0  0  0
  -29.8790  -17.6974   19.9778 C   0  0  0  0  0  0
  -28.0412  -21.7124   21.8053 C   0  0  0  0  0  0
  -27.1420  -22.9125   22.1831 C   0  0  0  0  0  0
  -27.7033  -24.3226   21.9025 C   0  0  0  0  0  0
  -28.9372  -23.1685   20.0173 C   0  0  0  0  0  0
  -27.9901  -24.5247   20.4151 C   0  0  2  0  0  0
  -31.8352  -19.7154   17.2847 C   0  0  0  0  0  0
  -30.9643  -16.9137   17.7235 C   0  0  0  0  0  0
  -28.7380  -21.7031   20.6361 N   0  0  0  0  0  0
  -29.7251  -16.2189   20.4733 N   0  0  0  0  0  0
  -28.0662  -20.7753   22.6074 O   0  0  0  0  0  0
  -32.2193  -16.5035   17.8989 F   0  0  0  0  0  0
  -30.1383  -15.8710   17.7456 F   0  0  0  0  0  0
  -30.8603  -17.3501   16.4680 F   0  0  0  0  0  0
  -31.4706  -12.7819   19.2114 H   0  0  0  0  0  0
  -30.4322  -11.6826   20.0731 H   0  0  0  0  0  0
  -29.8557  -11.7045   17.6255 H   0  0  0  0  0  0
  -29.6137  -13.4287   17.6727 H   0  0  0  0  0  0
  -27.9521  -11.2727   18.9955 H   0  0  0  0  0  0
  -27.4009  -12.4377   17.8185 H   0  0  0  0  0  0
  -27.5768  -14.2498   19.3870 H   0  0  0  0  0  0
  -28.7567  -12.3511   21.4719 H   0  0  0  0  0  0
  -28.3467  -14.0313   21.7346 H   0  0  0  0  0  0
  -25.2780   -9.5686   22.4746 H   0  0  0  0  0  0
  -24.0019   -7.4629   22.7460 H   0  0  0  0  0  0
  -21.0860   -8.8767   19.8934 H   0  0  0  0  0  0
  -22.3714  -10.9669   19.6153 H   0  0  0  0  0  0
  -21.2012   -7.6149   23.9718 H   0  0  0  0  0  0
  -21.1488   -6.0519   25.9078 H   0  0  0  0  0  0
  -22.0599   -2.7609   23.2829 H   0  0  0  0  0  0
  -22.4085  -11.9834   22.4809 H   0  0  0  0  0  0
  -21.1062  -13.1179   22.2671 H   0  0  0  0  0  0
  -24.6357  -15.8443   20.5124 H   0  0  0  0  0  0
  -26.2481  -15.6358   20.0571 H   0  0  0  0  0  0
  -26.7317  -32.5273   23.0988 H   0  0  0  0  0  0
  -25.0118  -33.9609   25.0321 H   0  0  0  0  0  0
  -22.7595  -31.2864   21.3716 H   0  0  0  0  0  0
  -23.3764  -35.9544   23.3303 H   0  0  0  0  0  0
  -24.3573  -36.8868   22.2063 H   0  0  0  0  0  0
  -23.7214  -37.6406   23.6693 H   0  0  0  0  0  0
  -26.1782  -31.4495   20.6204 H   0  0  0  0  0  0
  -26.8807  -30.7484   22.0402 H   0  0  0  0  0  0
  -28.1383  -28.7530   21.2440 H   0  0  0  0  0  0
  -25.9104  -25.8320   18.9801 H   0  0  0  0  0  0
  -23.9876  -27.2958   18.9672 H   0  0  0  0  0  0
  -23.8257  -30.5584   19.3964 H   0  0  0  0  0  0
  -22.7981  -29.2302   19.8389 H   0  0  0  0  0  0
  -25.1303  -36.1845   25.0804 H   0  0  0  0  0  0
  -21.0031  -28.3344   24.1338 H   0  0  0  0  0  0
  -20.5672  -26.2375   23.3634 H   0  0  0  0  0  0
  -21.6656  -26.7430   22.1211 H   0  0  0  0  0  0
  -19.6921  -25.6298   21.1263 H   0  0  0  0  0  0
  -19.6689  -27.3183   20.6723 H   0  0  0  0  0  0
  -17.4213  -26.6709   21.4037 H   0  0  0  0  0  0
  -18.0349  -26.0088   22.9024 H   0  0  0  0  0  0
  -19.7964  -30.7312   24.2236 H   0  0  0  0  0  0
  -17.5037  -31.6277   24.5177 H   0  0  0  0  0  0
  -15.5375  -30.2991   23.7664 H   0  0  0  0  0  0
  -15.8706  -28.0813   22.7095 H   0  0  0  0  0  0
  -24.5915  -30.7087   25.7714 H   0  0  0  0  0  0
  -24.8879  -32.2949   26.4736 H   0  0  0  0  0  0
  -25.7991  -30.9001   27.0230 H   0  0  0  0  0  0
  -26.3052  -29.6660   24.1316 H   0  0  0  0  0  0
  -27.3986  -29.7257   25.4922 H   0  0  0  0  0  0
  -27.8975  -30.4169   23.9691 H   0  0  0  0  0  0
  -27.2668  -33.3658   26.2013 H   0  0  0  0  0  0
  -28.3919  -32.6838   25.0368 H   0  0  0  0  0  0
  -28.0692  -31.8503   26.5485 H   0  0  0  0  0  0
  -28.2571  -38.0073   24.7522 H   0  0  0  0  0  0
  -28.1078  -36.2601   24.6294 H   0  0  0  0  0  0
  -27.2296  -37.1406   25.8874 H   0  0  0  0  0  0
  -20.9512  -29.8751   21.6725 H   0  0  0  0  0  0
  -26.0146  -38.2798   24.1427 H   0  0  0  0  0  0
  -30.5220  -21.4643   18.6950 H   0  0  0  0  0  0
  -28.6160  -18.7298   21.4369 H   0  0  0  0  0  0
  -26.9032  -22.8404   23.2450 H   0  0  0  0  0  0
  -26.1952  -22.7865   21.6587 H   0  0  0  0  0  0
  -28.6114  -24.4881   22.4847 H   0  0  0  0  0  0
  -26.9794  -25.0635   22.2430 H   0  0  0  0  0  0
  -29.9679  -23.4297   20.2571 H   0  0  0  0  0  0
  -28.9147  -23.0703   18.9328 H   0  0  0  0  0  0
  -27.0572  -24.3253   19.8933 H   0  0  0  0  0  0
  -32.6735  -19.0189   17.2544 H   0  0  0  0  0  0
  -32.2609  -20.7107   17.4195 H   0  0  0  0  0  0
  -31.3326  -19.7071   16.3170 H   0  0  0  0  0  0
  -28.8123  -16.0289   20.8580 H   0  0  0  0  0  0
  1 25  1  0  0  0
  1 30  2  0  0  0
  1 85  1  0  0  0
  2  3  1  0  0  0
  2 25  1  0  0  0
  2 90  1  0  0  0
  2 91  1  0  0  0
  3  4  1  0  0  0
  3 92  1  0  0  0
  3 93  1  0  0  0
  4  5  1  0  0  0
  4 94  1  0  0  0
  4 95  1  0  0  0
  5  6  1  0  0  0
  5 26  1  0  0  0
  5 96  1  0  0  0
  6 25  1  0  0  0
  6 97  1  0  0  0
  6 98  1  0  0  0
  7  8  2  0  0  0
  7 26  1  0  0  0
  7 29  1  0  0  0
  8  9  1  0  0  0
  8 22  1  0  0  0
  9 10  1  0  0  0
  9 27  2  0  0  0
 10 11  2  0  0  0
 10 15  1  0  0  0
 11 12  1  0  0  0
 11 99  1  0  0  0
 12 13  2  0  0  0
 12100  1  0  0  0
 13 14  1  0  0  0
 13 31  1  0  0  0
 14 15  2  0  0  0
 14101  1  0  0  0
 15102  1  0  0  0
 16 17  2  0  0  0
 16 21  1  0  0  0
 16 31  1  0  0  0
 17 18  1  0  0  0
 17103  1  0  0  0
 18 19  2  0  0  0
 18104  1  0  0  0
 19 20  1  0  0  0
 19 24  1  0  0  0
 20 21  2  0  0  0
 20105  1  0  0  0
 21 23  1  0  0  0
 22 28  1  0  0  0
 22 32  2  0  0  0
 26 27  1  0  0  0
 28106  1  0  0  0
 28107  1  0  0  0
 29108  1  0  0  0
 29109  1  0  0  0
 33 34  1  0  0  0
 33 66  1  0  0  0
 33 70  2  0  0  0
 34 36  1  0  0  0
 34 59  1  0  0  0
 34110  1  0  0  0
 35 44  2  0  0  0
 35 45  1  0  0  0
 35 68  1  0  0  0
 36 56  1  0  0  0
 36111  1  0  0  0
 37 39  1  0  0  0
 37 47  1  0  0  0
 37 66  1  0  0  0
 37112  1  0  0  0
 38 43  2  0  0  0
 38 46  1  0  0  0
 38 47  1  0  0  0
 39 64  1  0  0  0
 39 67  2  0  0  0
 40 52  1  0  0  0
 40 53  2  0  0  0
 40 58  1  0  0  0
 41113  1  0  0  0
 41114  1  0  0  0
 41115  1  0  0  0
 41 48  1  0  0  0
 42 43  1  0  0  0
 42 66  1  0  0  0
 42116  1  0  0  0
 42117  1  0  0  0
 43 44  1  0  0  0
 44118  1  0  0  0
 45 46  2  0  0  0
 45119  1  0  0  0
 46120  1  0  0  0
 47121  1  0  0  0
 47122  1  0  0  0
 48 56  1  0  0  0
 48 65  1  0  0  0
 48123  1  0  0  0
 49 50  1  0  0  0
 49 53  1  0  0  0
 49 64  1  0  0  0
 49124  1  0  0  0
 50 51  1  0  0  0
 50125  1  0  0  0
 50126  1  0  0  0
 51 52  1  0  0  0
 51127  1  0  0  0
 51128  1  0  0  0
 52129  1  0  0  0
 52130  1  0  0  0
 53 54  1  0  0  0
 54 55  2  0  0  0
 54131  1  0  0  0
 55 57  1  0  0  0
 55132  1  0  0  0
 56 69  2  0  0  0
 57 58  2  0  0  0
 57133  1  0  0  0
 58134  1  0  0  0
 59 60  1  0  0  0
 59 61  1  0  0  0
 59 62  1  0  0  0
 60135  1  0  0  0
 60136  1  0  0  0
 60137  1  0  0  0
 61138  1  0  0  0
 61139  1  0  0  0
 61140  1  0  0  0
 62141  1  0  0  0
 62142  1  0  0  0
 62143  1  0  0  0
 63 65  1  0  0  0
 63144  1  0  0  0
 63145  1  0  0  0
 63146  1  0  0  0
 64147  1  0  0  0
 65148  1  0  0  0
 68 81  1  0  0  0
 71 73  2  0  0  0
 71 75  1  0  0  0
 71149  1  0  0  0
 72 75  2  0  0  0
 72 76  1  0  0  0
 72150  1  0  0  0
 73 74  1  0  0  0
 73 82  1  0  0  0
 74 76  2  0  0  0
 74 83  1  0  0  0
 75 84  1  0  0  0
 76 85  1  0  0  0
 77 78  1  0  0  0
 77 84  1  0  0  0
 77 86  2  0  0  0
 78 79  1  0  0  0
 78151  1  0  0  0
 78152  1  0  0  0
 79 81  1  0  0  0
 79153  1  0  0  0
 79154  1  0  0  0
 80 81  1  0  0  0
 80 84  1  0  0  0
 80155  1  0  0  0
 80156  1  0  0  0
 81157  1  0  0  0
 82158  1  0  0  0
 82159  1  0  0  0
 82160  1  0  0  0
 83 87  1  0  0  0
 83 88  1  0  0  0
 83 89  1  0  0  0
 85161  1  0  0  0
M  ISO  4   1 100  68 101  81 101  85 100
M  END
> <chiral flag>
0

> <version>
0

> <s_m_source_file>
/data/baiqing/PycharmProjects/Reinvent-master-3.2/result/LINK_invent/BTK/process_docking_weight1_custom_product_contain_oxygen_bond_distance_aromatic_linkinvent_7_9_3/rearranged_h_0060.sdf

> <i_m_source_file_index>
7

> <r_mmod_Potential_Energy-OPLS-2005>
802.982849121094

> <r_mmod_Stretch_Energy-OPLS-2005>
342.169494628906

> <r_mmod_Bend_Energy-OPLS-2005>
281.017761230469

> <r_mmod_Torsional_Energy-OPLS-2005>
293.580017089844

> <r_mmod_Improper_Torsional_Energy-OPLS-2005>
4.40449142456055

> <r_mmod_Van_der_Waal_Energy-OPLS-2005>
155.867630004883

> <r_mmod_Electrostatic_Energy-OPLS-2005>
-297.705169677734

> <r_mmod_Solvation_Energy-OPLS-2005>
-216.737442016602

> <b_mmod_Minimization_Converged-OPLS-2005>
0

> <r_mmod_RMS_Derivative-OPLS-2005>
1.38084781169891

$$$$
7
                    3D
 Structure written by MMmdl.
161169  0  0  1  0            999 V2000
  -30.6960  -14.4169   20.7110 C   0  0  0  0  0  0
  -30.4423  -12.3303   19.3933 C   0  0  0  0  0  0
  -29.4989  -12.5677   18.1961 C   0  0  0  0  0  0
  -28.0223  -12.3934   18.6058 C   0  0  0  0  0  0
  -27.6709  -13.1972   19.8839 C   0  0  2  0  0  0
  -28.7050  -12.9042   20.9908 C   0  0  0  0  0  0
  -25.2607  -13.8129   20.5653 C   0  0  0  0  0  0
  -24.1849  -13.0423   20.9156 C   0  0  0  0  0  0
  -24.6389  -11.6880   20.8701 C   0  0  0  0  0  0
  -23.9037  -10.4276   21.0374 C   0  0  0  0  0  0
  -24.3588   -9.4198   21.9158 C   0  0  0  0  0  0
  -23.6276   -8.2228   22.0722 C   0  0  0  0  0  0
  -22.4259   -8.0264   21.3525 C   0  0  0  0  0  0
  -21.9890   -9.0232   20.4627 C   0  0  0  0  0  0
  -22.7208  -10.2118   20.3035 C   0  0  0  0  0  0
  -21.6851   -6.0715   22.5268 C   0  0  0  0  0  0
  -21.4016   -6.5614   23.8206 C   0  0  0  0  0  0
  -21.3670   -5.6766   24.9162 C   0  0  0  0  0  0
  -21.6064   -4.3035   24.7219 C   0  0  0  0  0  0
  -21.8822   -3.8123   23.4334 C   0  0  0  0  0  0
  -21.9192   -4.6937   22.3393 C   0  0  0  0  0  0
  -22.7870  -13.5231   21.1820 C   0  0  0  0  0  0
  -22.1659   -4.2121   21.0971 F   0  0  0  0  0  0
  -21.5637   -3.4527   25.7735 F   0  0  0  0  0  0
  -30.0511  -13.2405   20.4792 N   0  0  0  0  0  0
  -26.3057  -12.9281   20.3365 N   0  0  0  0  0  0
  -25.9316  -11.6450   20.5726 N   0  0  0  0  0  0
  -22.0502  -12.8255   22.0396 N   0  0  0  0  0  0
  -25.4305  -15.1849   20.4057 N   0  0  0  0  0  0
  -31.6931  -14.7848   20.0802 O   0  0  0  0  0  0
  -21.6625   -6.8864   21.4234 O   0  0  0  0  0  0
  -22.3567  -14.5532   20.6653 O   0  0  0  0  0  0
  -24.6171  -31.8675   23.2127 C   0  0  0  0  0  0
  -25.9061  -32.4815   23.8405 C   0  0  1  0  0  0
  -27.2284  -27.4271   20.0665 C   0  0  0  0  0  0
  -25.5919  -33.8614   24.2329 N   0  0  0  0  0  0
  -23.4033  -30.4964   21.5533 C   0  0  2  0  0  0
  -24.8446  -28.9646   20.1153 C   0  0  0  0  0  0
  -22.7416  -29.4671   22.4977 C   0  0  0  0  0  0
  -18.0271  -28.1387   22.8487 C   0  0  0  0  0  0
  -24.1486  -36.7316   23.2637 C   0  0  0  0  0  0
  -25.9354  -30.8268   21.3698 C   0  0  0  0  0  0
  -26.0082  -29.4620   20.7137 C   0  0  0  0  0  0
  -27.1993  -28.6962   20.6958 C   0  0  0  0  0  0
  -26.0297  -26.9371   19.4944 C   0  0  0  0  0  0
  -24.8490  -27.6983   19.5112 C   0  0  0  0  0  0
  -23.6116  -29.8371   20.1654 C   0  0  0  0  0  0
  -25.4102  -36.3108   24.0336 C   0  0  1  0  0  0
  -20.5868  -28.3682   23.1311 C   0  0  2  0  0  0
  -20.6765  -26.9416   22.5418 C   0  0  0  0  0  0
  -19.5740  -26.6392   21.5214 C   0  0  0  0  0  0
  -18.1920  -26.7935   22.1625 C   0  0  0  0  0  0
  -19.1521  -28.8844   23.2903 C   0  0  0  0  0  0
  -18.9449  -30.1448   23.8914 C   0  0  0  0  0  0
  -17.6453  -30.6593   24.0566 C   0  0  0  0  0  0
  -25.9033  -34.9470   23.5121 C   0  0  0  0  0  0
  -16.5344  -29.9096   23.6327 C   0  0  0  0  0  0
  -16.7261  -28.6515   23.0343 C   0  0  0  0  0  0
  -26.4490  -31.6597   25.0736 C   0  0  0  0  0  0
  -25.3766  -31.3704   26.1498 C   0  0  0  0  0  0
  -27.0314  -30.3030   24.6121 C   0  0  0  0  0  0
  -27.6063  -32.4329   25.7495 C   0  0  0  0  0  0
  -27.5577  -37.1809   24.8459 C   0  0  0  0  0  0
  -21.4145  -29.3046   22.3716 N   0  0  0  0  0  0
  -26.4283  -37.3796   23.9418 N   0  0  0  0  0  0
  -24.6703  -31.0780   22.1028 N   0  0  0  0  0  0
  -23.4182  -28.8199   23.3010 O   0  0  0  0  0  0
  -28.4006  -26.6881   20.0664 O   0  0  0  0  0  0
  -26.5595  -34.8924   22.4679 O   0  0  0  0  0  0
  -23.5366  -32.1436   23.7518 O   0  0  0  0  0  0
  -28.6579  -18.0527   23.3415 C   0  0  0  0  0  0
  -29.0311  -16.7344   23.0428 C   0  0  0  0  0  0
  -30.4074  -17.5322   21.2012 C   0  0  0  0  0  0
  -30.0405  -18.8794   21.4965 C   0  0  0  0  0  0
  -29.1584  -19.1355   22.5912 C   0  0  0  0  0  0
  -29.9102  -16.4539   21.9772 C   0  0  0  0  0  0
  -30.6263  -19.9757   20.6898 C   0  0  0  0  0  0
  -30.2944  -22.2838   19.7365 C   0  0  0  0  0  0
  -28.7287  -20.5348   23.0307 C   0  0  0  0  0  0
  -29.2297  -23.3975   19.7136 C   0  0  0  0  0  0
  -29.7633  -24.7764   19.2376 C   0  0  0  0  0  0
  -28.6684  -25.8276   18.9458 C   0  0  0  0  0  0
  -30.2133  -15.0735   21.7790 N   0  0  0  0  0  0
  -29.8755  -21.0515   20.3509 N   0  0  0  0  0  0
  -31.9157  -19.8849   20.3466 N   0  3  0  0  0  0
  -31.4391  -22.4461   19.2954 O   0  0  0  0  0  0
  -31.4826  -12.4728   19.0942 H   0  0  0  0  0  0
  -30.3719  -11.2967   19.7364 H   0  0  0  0  0  0
  -29.7480  -11.8930   17.3763 H   0  0  0  0  0  0
  -29.6505  -13.5800   17.8175 H   0  0  0  0  0  0
  -27.8432  -11.3317   18.7761 H   0  0  0  0  0  0
  -27.3658  -12.6833   17.7851 H   0  0  0  0  0  0
  -27.7367  -14.2581   19.6349 H   0  0  0  0  0  0
  -28.6806  -11.8454   21.2534 H   0  0  0  0  0  0
  -28.4249  -13.4219   21.9081 H   0  0  0  0  0  0
  -25.2736   -9.5680   22.4729 H   0  0  0  0  0  0
  -23.9987   -7.4623   22.7456 H   0  0  0  0  0  0
  -21.0802   -8.8751   19.8960 H   0  0  0  0  0  0
  -22.3648  -10.9644   19.6143 H   0  0  0  0  0  0
  -21.2003   -7.6122   23.9707 H   0  0  0  0  0  0
  -21.1500   -6.0483   25.9069 H   0  0  0  0  0  0
  -22.0596   -2.7581   23.2829 H   0  0  0  0  0  0
  -22.4083  -11.9941   22.4868 H   0  0  0  0  0  0
  -21.1109  -13.1296   22.2570 H   0  0  0  0  0  0
  -24.6501  -15.8283   20.4791 H   0  0  0  0  0  0
  -26.2804  -15.6270   20.0769 H   0  0  0  0  0  0
  -26.7121  -32.5521   23.1160 H   0  0  0  0  0  0
  -25.0085  -33.9768   25.0488 H   0  0  0  0  0  0
  -22.6937  -31.3148   21.4182 H   0  0  0  0  0  0
  -23.3744  -35.9653   23.3298 H   0  0  0  0  0  0
  -24.3581  -36.8935   22.2052 H   0  0  0  0  0  0
  -23.7241  -37.6519   23.6653 H   0  0  0  0  0  0
  -26.0534  -31.5927   20.6023 H   0  0  0  0  0  0
  -26.8219  -30.8748   21.9894 H   0  0  0  0  0  0
  -28.0977  -29.0789   21.1602 H   0  0  0  0  0  0
  -25.9594  -25.9583   19.0486 H   0  0  0  0  0  0
  -23.9468  -27.3020   19.0659 H   0  0  0  0  0  0
  -23.7318  -30.6168   19.4124 H   0  0  0  0  0  0
  -22.7327  -29.2670   19.8611 H   0  0  0  0  0  0
  -25.1277  -36.1964   25.0828 H   0  0  0  0  0  0
  -20.9950  -28.3244   24.1432 H   0  0  0  0  0  0
  -20.5681  -26.2279   23.3602 H   0  0  0  0  0  0
  -21.6637  -26.7469   22.1198 H   0  0  0  0  0  0
  -19.6909  -25.6302   21.1234 H   0  0  0  0  0  0
  -19.6686  -27.3208   20.6745 H   0  0  0  0  0  0
  -17.4196  -26.6685   21.4027 H   0  0  0  0  0  0
  -18.0327  -26.0074   22.9017 H   0  0  0  0  0  0
  -19.7928  -30.7261   24.2295 H   0  0  0  0  0  0
  -17.5013  -31.6272   24.5168 H   0  0  0  0  0  0
  -15.5347  -30.3007   23.7641 H   0  0  0  0  0  0
  -15.8660  -28.0846   22.7042 H   0  0  0  0  0  0
  -24.5928  -30.7058   25.7854 H   0  0  0  0  0  0
  -24.8979  -32.2859   26.4979 H   0  0  0  0  0  0
  -25.8140  -30.8860   27.0236 H   0  0  0  0  0  0
  -26.2847  -29.6792   24.1192 H   0  0  0  0  0  0
  -27.4088  -29.7272   25.4585 H   0  0  0  0  0  0
  -27.8692  -30.4337   23.9267 H   0  0  0  0  0  0
  -27.2664  -33.3607   26.2108 H   0  0  0  0  0  0
  -28.3848  -32.6926   25.0310 H   0  0  0  0  0  0
  -28.0761  -31.8441   26.5384 H   0  0  0  0  0  0
  -28.2588  -38.0116   24.7521 H   0  0  0  0  0  0
  -28.1082  -36.2648   24.6259 H   0  0  0  0  0  0
  -27.2306  -37.1431   25.8865 H   0  0  0  0  0  0
  -20.9300  -29.8774   21.6951 H   0  0  0  0  0  0
  -26.0170  -38.2868   24.1443 H   0  0  0  0  0  0
  -27.9851  -18.2275   24.1700 H   0  0  0  0  0  0
  -28.6233  -15.9397   23.6504 H   0  0  0  0  0  0
  -31.0791  -17.3327   20.3779 H   0  0  0  0  0  0
  -28.2568  -20.5189   24.0139 H   0  0  0  0  0  0
  -27.9948  -20.9490   22.3394 H   0  0  0  0  0  0
  -29.5753  -21.2182   23.1018 H   0  0  0  0  0  0
  -28.8033  -23.4977   20.7124 H   0  0  0  0  0  0
  -28.4237  -23.0639   19.0599 H   0  0  0  0  0  0
  -30.3138  -24.6233   18.3075 H   0  0  0  0  0  0
  -30.4883  -25.1736   19.9497 H   0  0  0  0  0  0
  -27.8042  -25.2951   18.5593 H   0  0  0  0  0  0
  -29.0027  -26.4732   18.1328 H   0  0  0  0  0  0
  -29.6565  -14.4599   22.3528 H   0  0  0  0  0  0
  -28.9190  -20.9209   20.6434 H   0  0  0  0  0  0
  -32.4900  -19.1379   20.7066 H   0  0  0  0  0  0
  -32.3291  -20.6242   19.7937 H   0  0  0  0  0  0
  1 25  1  0  0  0
  1 30  2  0  0  0
  1 83  1  0  0  0
  2  3  1  0  0  0
  2 25  1  0  0  0
  2 87  1  0  0  0
  2 88  1  0  0  0
  3  4  1  0  0  0
  3 89  1  0  0  0
  3 90  1  0  0  0
  4  5  1  0  0  0
  4 91  1  0  0  0
  4 92  1  0  0  0
  5  6  1  0  0  0
  5 26  1  0  0  0
  5 93  1  0  0  0
  6 25  1  0  0  0
  6 94  1  0  0  0
  6 95  1  0  0  0
  7  8  2  0  0  0
  7 26  1  0  0  0
  7 29  1  0  0  0
  8  9  1  0  0  0
  8 22  1  0  0  0
  9 10  1  0  0  0
  9 27  2  0  0  0
 10 11  2  0  0  0
 10 15  1  0  0  0
 11 12  1  0  0  0
 11 96  1  0  0  0
 12 13  2  0  0  0
 12 97  1  0  0  0
 13 14  1  0  0  0
 13 31  1  0  0  0
 14 15  2  0  0  0
 14 98  1  0  0  0
 15 99  1  0  0  0
 16 17  2  0  0  0
 16 21  1  0  0  0
 16 31  1  0  0  0
 17 18  1  0  0  0
 17100  1  0  0  0
 18 19  2  0  0  0
 18101  1  0  0  0
 19 20  1  0  0  0
 19 24  1  0  0  0
 20 21  2  0  0  0
 20102  1  0  0  0
 21 23  1  0  0  0
 22 28  1  0  0  0
 22 32  2  0  0  0
 26 27  1  0  0  0
 28103  1  0  0  0
 28104  1  0  0  0
 29105  1  0  0  0
 29106  1  0  0  0
 33 34  1  0  0  0
 33 66  1  0  0  0
 33 70  2  0  0  0
 34 36  1  0  0  0
 34 59  1  0  0  0
 34107  1  0  0  0
 35 44  2  0  0  0
 35 45  1  0  0  0
 35 68  1  0  0  0
 36 56  1  0  0  0
 36108  1  0  0  0
 37 39  1  0  0  0
 37 47  1  0  0  0
 37 66  1  0  0  0
 37109  1  0  0  0
 38 43  2  0  0  0
 38 46  1  0  0  0
 38 47  1  0  0  0
 39 64  1  0  0  0
 39 67  2  0  0  0
 40 52  1  0  0  0
 40 53  2  0  0  0
 40 58  1  0  0  0
 41110  1  0  0  0
 41111  1  0  0  0
 41112  1  0  0  0
 41 48  1  0  0  0
 42 43  1  0  0  0
 42 66  1  0  0  0
 42113  1  0  0  0
 42114  1  0  0  0
 43 44  1  0  0  0
 44115  1  0  0  0
 45 46  2  0  0  0
 45116  1  0  0  0
 46117  1  0  0  0
 47118  1  0  0  0
 47119  1  0  0  0
 48 56  1  0  0  0
 48 65  1  0  0  0
 48120  1  0  0  0
 49 50  1  0  0  0
 49 53  1  0  0  0
 49 64  1  0  0  0
 49121  1  0  0  0
 50 51  1  0  0  0
 50122  1  0  0  0
 50123  1  0  0  0
 51 52  1  0  0  0
 51124  1  0  0  0
 51125  1  0  0  0
 52126  1  0  0  0
 52127  1  0  0  0
 53 54  1  0  0  0
 54 55  2  0  0  0
 54128  1  0  0  0
 55 57  1  0  0  0
 55129  1  0  0  0
 56 69  2  0  0  0
 57 58  2  0  0  0
 57130  1  0  0  0
 58131  1  0  0  0
 59 60  1  0  0  0
 59 61  1  0  0  0
 59 62  1  0  0  0
 60132  1  0  0  0
 60133  1  0  0  0
 60134  1  0  0  0
 61135  1  0  0  0
 61136  1  0  0  0
 61137  1  0  0  0
 62138  1  0  0  0
 62139  1  0  0  0
 62140  1  0  0  0
 63 65  1  0  0  0
 63141  1  0  0  0
 63142  1  0  0  0
 63143  1  0  0  0
 64144  1  0  0  0
 65145  1  0  0  0
 68 82  1  0  0  0
 71 72  2  0  0  0
 71 75  1  0  0  0
 71146  1  0  0  0
 72 76  1  0  0  0
 72147  1  0  0  0
 73 74  1  0  0  0
 73 76  2  0  0  0
 73148  1  0  0  0
 74 75  2  0  0  0
 74 77  1  0  0  0
 75 79  1  0  0  0
 76 83  1  0  0  0
 77 84  1  0  0  0
 77 85  2  0  0  0
 78 80  1  0  0  0
 78 84  1  0  0  0
 78 86  2  0  0  0
 79149  1  0  0  0
 79150  1  0  0  0
 79151  1  0  0  0
 80 81  1  0  0  0
 80152  1  0  0  0
 80153  1  0  0  0
 81 82  1  0  0  0
 81154  1  0  0  0
 81155  1  0  0  0
 82156  1  0  0  0
 82157  1  0  0  0
 83158  1  0  0  0
 84159  1  0  0  0
 85160  1  0  0  0
 85161  1  0  0  0
M  CHG  1  85   1
M  ISO  4   1 100  68 101  82 101  83 100
M  END
> <chiral flag>
0

> <version>
0

> <s_m_source_file>
/data/baiqing/PycharmProjects/Reinvent-master-3.2/result/LINK_invent/BTK/process_docking_weight1_custom_product_contain_oxygen_bond_distance_aromatic_linkinvent_7_9_3/rearranged_h_0060.sdf

> <i_m_source_file_index>
8

> <r_mmod_Potential_Energy-OPLS-2005>
-313.311340332031

> <r_mmod_Stretch_Energy-OPLS-2005>
40.985237121582

> <r_mmod_Bend_Energy-OPLS-2005>
125.422500610352

> <r_mmod_Torsional_Energy-OPLS-2005>
224.078247070312

> <r_mmod_Improper_Torsional_Energy-OPLS-2005>
5.25242280960083

> <r_mmod_Van_der_Waal_Energy-OPLS-2005>
172.649215698242

> <r_mmod_Electrostatic_Energy-OPLS-2005>
-462.653839111328

> <r_mmod_Solvation_Energy-OPLS-2005>
-432.419830322266

> <b_mmod_Minimization_Converged-OPLS-2005>
0

> <r_mmod_RMS_Derivative-OPLS-2005>
2.57103085517883

$$$$
8
                    3D
 Structure written by MMmdl.
159167  0  0  1  0            999 V2000
  -30.5757  -14.6778   20.5467 C   0  0  0  0  0  0
  -30.4539  -12.4252   19.4627 C   0  0  0  0  0  0
  -29.5169  -12.5135   18.2349 C   0  0  0  0  0  0
  -28.0379  -12.3454   18.6392 C   0  0  0  0  0  0
  -27.6568  -13.2101   19.8684 C   0  0  2  0  0  0
  -28.6954  -13.0460   21.0000 C   0  0  0  0  0  0
  -25.2572  -13.8152   20.5645 C   0  0  0  0  0  0
  -24.1837  -13.0428   20.9160 C   0  0  0  0  0  0
  -24.6380  -11.6900   20.8734 C   0  0  0  0  0  0
  -23.9064  -10.4283   21.0396 C   0  0  0  0  0  0
  -24.3614   -9.4201   21.9172 C   0  0  0  0  0  0
  -23.6282   -8.2251   22.0775 C   0  0  0  0  0  0
  -22.4267   -8.0290   21.3577 C   0  0  0  0  0  0
  -21.9907   -9.0260   20.4669 C   0  0  0  0  0  0
  -22.7227  -10.2131   20.3049 C   0  0  0  0  0  0
  -21.6850   -6.0735   22.5272 C   0  0  0  0  0  0
  -21.4004   -6.5635   23.8192 C   0  0  0  0  0  0
  -21.3662   -5.6799   24.9160 C   0  0  0  0  0  0
  -21.6053   -4.3063   24.7227 C   0  0  0  0  0  0
  -21.8820   -3.8152   23.4343 C   0  0  0  0  0  0
  -21.9196   -4.6966   22.3395 C   0  0  0  0  0  0
  -22.7857  -13.5220   21.1843 C   0  0  0  0  0  0
  -22.1664   -4.2135   21.0983 F   0  0  0  0  0  0
  -21.5637   -3.4550   25.7747 F   0  0  0  0  0  0
  -30.0096  -13.4269   20.4572 N   0  0  0  0  0  0
  -26.2989  -12.9307   20.3300 N   0  0  0  0  0  0
  -25.9312  -11.6476   20.5778 N   0  0  0  0  0  0
  -22.0521  -12.8213   22.0404 N   0  0  0  0  0  0
  -25.4375  -15.1870   20.4112 N   0  0  0  0  0  0
  -31.7001  -14.9026   20.0868 O   0  0  0  0  0  0
  -21.6631   -6.8878   21.4242 O   0  0  0  0  0  0
  -22.3553  -14.5544   20.6714 O   0  0  0  0  0  0
  -24.6294  -31.8554   23.2020 C   0  0  0  0  0  0
  -25.9120  -32.4759   23.8350 C   0  0  1  0  0  0
  -27.2238  -27.2912   20.1603 C   0  0  0  0  0  0
  -25.5905  -33.8559   24.2292 N   0  0  0  0  0  0
  -23.4255  -30.4784   21.5429 C   0  0  2  0  0  0
  -24.8753  -28.9299   20.1134 C   0  0  0  0  0  0
  -22.7504  -29.4580   22.4914 C   0  0  0  0  0  0
  -18.0306  -28.1352   22.8464 C   0  0  0  0  0  0
  -24.1485  -36.7296   23.2644 C   0  0  0  0  0  0
  -25.9665  -30.7798   21.3805 C   0  0  0  0  0  0
  -26.0380  -29.4034   20.7332 C   0  0  0  0  0  0
  -27.2131  -28.5958   20.7482 C   0  0  0  0  0  0
  -26.0501  -26.8872   19.4900 C   0  0  0  0  0  0
  -24.8845  -27.6787   19.4776 C   0  0  0  0  0  0
  -23.6462  -29.8140   20.1575 C   0  0  0  0  0  0
  -25.4091  -36.3071   24.0362 C   0  0  1  0  0  0
  -20.5903  -28.3648   23.1276 C   0  0  2  0  0  0
  -20.6781  -26.9386   22.5325 C   0  0  0  0  0  0
  -19.5740  -26.6445   21.5133 C   0  0  0  0  0  0
  -18.1941  -26.7904   22.1591 C   0  0  0  0  0  0
  -19.1554  -28.8824   23.2888 C   0  0  0  0  0  0
  -18.9488  -30.1396   23.8950 C   0  0  0  0  0  0
  -17.6484  -30.6534   24.0560 C   0  0  0  0  0  0
  -25.9039  -34.9440   23.5136 C   0  0  0  0  0  0
  -16.5383  -29.9051   23.6296 C   0  0  0  0  0  0
  -16.7297  -28.6456   23.0344 C   0  0  0  0  0  0
  -26.4495  -31.6577   25.0729 C   0  0  0  0  0  0
  -25.3745  -31.3717   26.1478 C   0  0  0  0  0  0
  -27.0347  -30.2999   24.6199 C   0  0  0  0  0  0
  -27.6047  -32.4316   25.7482 C   0  0  0  0  0  0
  -27.5578  -37.1797   24.8469 C   0  0  0  0  0  0
  -21.4208  -29.3032   22.3698 N   0  0  0  0  0  0
  -26.4273  -37.3758   23.9432 N   0  0  0  0  0  0
  -24.6925  -31.0543   22.0996 N   0  0  0  0  0  0
  -23.4234  -28.8076   23.2961 O   0  0  0  0  0  0
  -28.3685  -26.4798   20.1313 O   0  0  0  0  0  0
  -26.5594  -34.8898   22.4697 O   0  0  0  0  0  0
  -23.5451  -32.1363   23.7326 O   0  0  0  0  0  0
  -29.8726  -19.3184   19.8436 C   0  0  0  0  0  0
  -30.2419  -17.9384   20.0000 C   0  0  0  0  0  0
  -28.6831  -17.7612   21.8120 C   0  0  0  0  0  0
  -28.8811  -19.9589   20.6463 C   0  0  0  0  0  0
  -28.3114  -19.1355   21.6657 C   0  0  0  0  0  0
  -29.6242  -17.1035   20.9711 C   0  0  0  0  0  0
  -28.2124  -21.2856   20.1943 C   0  0  0  0  0  0
  -28.5517  -25.1953   20.7868 C   0  0  0  0  0  0
  -27.2202  -19.6806   22.5789 C   0  0  0  0  0  0
  -26.4455  -23.8178   20.8013 C   0  0  0  0  0  0
  -27.8745  -23.9689   18.6523 C   0  0  0  0  0  0
  -27.8810  -23.8700   20.2047 C   0  0  0  0  0  0
  -29.7850  -15.6459   21.1220 N   0  0  0  0  0  0
  -28.5788  -22.5554   20.5940 N   0  0  0  0  0  0
  -27.2615  -21.1376   19.4262 O   0  0  0  0  0  0
  -29.3164  -25.0825   21.7487 O   0  0  0  0  0  0
  -31.4874  -12.5877   19.1547 H   0  0  0  0  0  0
  -30.4329  -11.4264   19.9005 H   0  0  0  0  0  0
  -29.7895  -11.7506   17.5036 H   0  0  0  0  0  0
  -29.6541  -13.4761   17.7386 H   0  0  0  0  0  0
  -27.8759  -11.2925   18.8681 H   0  0  0  0  0  0
  -27.3875  -12.5706   17.7937 H   0  0  0  0  0  0
  -27.6813  -14.2481   19.5396 H   0  0  0  0  0  0
  -28.7171  -12.0111   21.3447 H   0  0  0  0  0  0
  -28.4189  -13.6371   21.8745 H   0  0  0  0  0  0
  -25.2753   -9.5673   22.4735 H   0  0  0  0  0  0
  -24.0001   -7.4639   22.7483 H   0  0  0  0  0  0
  -21.0850   -8.8754   19.8962 H   0  0  0  0  0  0
  -22.3671  -10.9670   19.6164 H   0  0  0  0  0  0
  -21.1973   -7.6137   23.9678 H   0  0  0  0  0  0
  -21.1489   -6.0542   25.9053 H   0  0  0  0  0  0
  -22.0597   -2.7609   23.2852 H   0  0  0  0  0  0
  -22.4153  -11.9880   22.4773 H   0  0  0  0  0  0
  -21.1133  -13.1237   22.2615 H   0  0  0  0  0  0
  -24.6910  -15.8585   20.5492 H   0  0  0  0  0  0
  -26.3055  -15.6187   20.1217 H   0  0  0  0  0  0
  -26.7209  -32.5432   23.1109 H   0  0  0  0  0  0
  -25.0034  -33.9699   25.0427 H   0  0  0  0  0  0
  -22.7196  -31.2974   21.3968 H   0  0  0  0  0  0
  -23.3745  -35.9635   23.3300 H   0  0  0  0  0  0
  -24.3594  -36.8903   22.2060 H   0  0  0  0  0  0
  -23.7244  -37.6510   23.6650 H   0  0  0  0  0  0
  -26.0999  -31.5409   20.6100 H   0  0  0  0  0  0
  -26.8496  -30.8320   22.0053 H   0  0  0  0  0  0
  -28.1065  -28.9621   21.2320 H   0  0  0  0  0  0
  -26.0140  -25.9387   18.9796 H   0  0  0  0  0  0
  -24.0017  -27.3167   18.9701 H   0  0  0  0  0  0
  -23.7729  -30.5893   19.3992 H   0  0  0  0  0  0
  -22.7670  -29.2397   19.8597 H   0  0  0  0  0  0
  -25.1270  -36.1909   25.0857 H   0  0  0  0  0  0
  -20.9993  -28.3166   24.1387 H   0  0  0  0  0  0
  -20.5651  -26.2225   23.3488 H   0  0  0  0  0  0
  -21.6633  -26.7404   22.1081 H   0  0  0  0  0  0
  -19.6913  -25.6400   21.1016 H   0  0  0  0  0  0
  -19.6662  -27.3385   20.6765 H   0  0  0  0  0  0
  -18.0403  -26.0039   22.9008 H   0  0  0  0  0  0
  -17.4148  -26.6658   21.4058 H   0  0  0  0  0  0
  -19.7929  -30.7169   24.2487 H   0  0  0  0  0  0
  -17.5050  -31.6198   24.5197 H   0  0  0  0  0  0
  -15.5395  -30.2978   23.7574 H   0  0  0  0  0  0
  -15.8677  -28.0756   22.7149 H   0  0  0  0  0  0
  -24.5901  -30.7070   25.7837 H   0  0  0  0  0  0
  -24.8961  -32.2893   26.4914 H   0  0  0  0  0  0
  -25.8102  -30.8891   27.0241 H   0  0  0  0  0  0
  -26.2946  -29.6721   24.1219 H   0  0  0  0  0  0
  -27.4056  -29.7266   25.4708 H   0  0  0  0  0  0
  -27.8803  -30.4305   23.9442 H   0  0  0  0  0  0
  -27.2661  -33.3611   26.2070 H   0  0  0  0  0  0
  -28.3842  -32.6881   25.0300 H   0  0  0  0  0  0
  -28.0740  -31.8429   26.5375 H   0  0  0  0  0  0
  -28.2595  -38.0084   24.7494 H   0  0  0  0  0  0
  -28.1073  -36.2623   24.6311 H   0  0  0  0  0  0
  -27.2324  -37.1488   25.8877 H   0  0  0  0  0  0
  -20.9364  -29.8878   21.7026 H   0  0  0  0  0  0
  -26.0167  -38.2848   24.1383 H   0  0  0  0  0  0
  -30.3035  -19.8774   19.0250 H   0  0  0  0  0  0
  -30.9616  -17.5120   19.3148 H   0  0  0  0  0  0
  -28.1828  -17.1749   22.5703 H   0  0  0  0  0  0
  -26.9397  -18.9638   23.3508 H   0  0  0  0  0  0
  -26.3189  -19.9178   22.0123 H   0  0  0  0  0  0
  -27.5604  -20.5861   23.0822 H   0  0  0  0  0  0
  -26.0067  -24.7953   20.9935 H   0  0  0  0  0  0
  -26.4429  -23.3158   21.7703 H   0  0  0  0  0  0
  -25.7516  -23.2766   20.1591 H   0  0  0  0  0  0
  -27.8417  -24.9843   18.2666 H   0  0  0  0  0  0
  -27.0245  -23.4478   18.2117 H   0  0  0  0  0  0
  -28.7736  -23.5198   18.2284 H   0  0  0  0  0  0
  -29.0322  -15.2191   21.6409 H   0  0  0  0  0  0
  -29.3638  -22.6474   21.2263 H   0  0  0  0  0  0
  1 25  1  0  0  0
  1 30  2  0  0  0
  1 83  1  0  0  0
  2  3  1  0  0  0
  2 25  1  0  0  0
  2 87  1  0  0  0
  2 88  1  0  0  0
  3  4  1  0  0  0
  3 89  1  0  0  0
  3 90  1  0  0  0
  4  5  1  0  0  0
  4 91  1  0  0  0
  4 92  1  0  0  0
  5  6  1  0  0  0
  5 26  1  0  0  0
  5 93  1  0  0  0
  6 25  1  0  0  0
  6 94  1  0  0  0
  6 95  1  0  0  0
  7  8  2  0  0  0
  7 26  1  0  0  0
  7 29  1  0  0  0
  8  9  1  0  0  0
  8 22  1  0  0  0
  9 10  1  0  0  0
  9 27  2  0  0  0
 10 11  2  0  0  0
 10 15  1  0  0  0
 11 12  1  0  0  0
 11 96  1  0  0  0
 12 13  2  0  0  0
 12 97  1  0  0  0
 13 14  1  0  0  0
 13 31  1  0  0  0
 14 15  2  0  0  0
 14 98  1  0  0  0
 15 99  1  0  0  0
 16 17  2  0  0  0
 16 21  1  0  0  0
 16 31  1  0  0  0
 17 18  1  0  0  0
 17100  1  0  0  0
 18 19  2  0  0  0
 18101  1  0  0  0
 19 20  1  0  0  0
 19 24  1  0  0  0
 20 21  2  0  0  0
 20102  1  0  0  0
 21 23  1  0  0  0
 22 28  1  0  0  0
 22 32  2  0  0  0
 26 27  1  0  0  0
 28103  1  0  0  0
 28104  1  0  0  0
 29105  1  0  0  0
 29106  1  0  0  0
 33 34  1  0  0  0
 33 66  1  0  0  0
 33 70  2  0  0  0
 34 36  1  0  0  0
 34 59  1  0  0  0
 34107  1  0  0  0
 35 44  2  0  0  0
 35 45  1  0  0  0
 35 68  1  0  0  0
 36 56  1  0  0  0
 36108  1  0  0  0
 37 39  1  0  0  0
 37 47  1  0  0  0
 37 66  1  0  0  0
 37109  1  0  0  0
 38 43  2  0  0  0
 38 46  1  0  0  0
 38 47  1  0  0  0
 39 64  1  0  0  0
 39 67  2  0  0  0
 40 52  1  0  0  0
 40 53  2  0  0  0
 40 58  1  0  0  0
 41110  1  0  0  0
 41111  1  0  0  0
 41112  1  0  0  0
 41 48  1  0  0  0
 42 43  1  0  0  0
 42 66  1  0  0  0
 42113  1  0  0  0
 42114  1  0  0  0
 43 44  1  0  0  0
 44115  1  0  0  0
 45 46  2  0  0  0
 45116  1  0  0  0
 46117  1  0  0  0
 47118  1  0  0  0
 47119  1  0  0  0
 48 56  1  0  0  0
 48 65  1  0  0  0
 48120  1  0  0  0
 49 50  1  0  0  0
 49 53  1  0  0  0
 49 64  1  0  0  0
 49121  1  0  0  0
 50 51  1  0  0  0
 50122  1  0  0  0
 50123  1  0  0  0
 51 52  1  0  0  0
 51124  1  0  0  0
 51125  1  0  0  0
 52126  1  0  0  0
 52127  1  0  0  0
 53 54  1  0  0  0
 54 55  2  0  0  0
 54128  1  0  0  0
 55 57  1  0  0  0
 55129  1  0  0  0
 56 69  2  0  0  0
 57 58  2  0  0  0
 57130  1  0  0  0
 58131  1  0  0  0
 59 60  1  0  0  0
 59 61  1  0  0  0
 59 62  1  0  0  0
 60132  1  0  0  0
 60133  1  0  0  0
 60134  1  0  0  0
 61135  1  0  0  0
 61136  1  0  0  0
 61137  1  0  0  0
 62138  1  0  0  0
 62139  1  0  0  0
 62140  1  0  0  0
 63 65  1  0  0  0
 63141  1  0  0  0
 63142  1  0  0  0
 63143  1  0  0  0
 64144  1  0  0  0
 65145  1  0  0  0
 68 78  1  0  0  0
 71 72  2  0  0  0
 71 74  1  0  0  0
 71146  1  0  0  0
 72 76  1  0  0  0
 72147  1  0  0  0
 73 75  1  0  0  0
 73 76  2  0  0  0
 73148  1  0  0  0
 74 75  2  0  0  0
 74 77  1  0  0  0
 75 79  1  0  0  0
 76 83  1  0  0  0
 77 84  1  0  0  0
 77 85  2  0  0  0
 78 82  1  0  0  0
 78 86  2  0  0  0
 79149  1  0  0  0
 79150  1  0  0  0
 79151  1  0  0  0
 80152  1  0  0  0
 80153  1  0  0  0
 80154  1  0  0  0
 80 82  1  0  0  0
 81 82  1  0  0  0
 81155  1  0  0  0
 81156  1  0  0  0
 81157  1  0  0  0
 82 84  1  0  0  0
 83158  1  0  0  0
 84159  1  0  0  0
M  ISO  4   1 100  68 101  78 101  83 100
M  END
> <chiral flag>
0

> <version>
0

> <s_m_source_file>
/data/baiqing/PycharmProjects/Reinvent-master-3.2/result/LINK_invent/BTK/process_docking_weight1_custom_product_contain_oxygen_bond_distance_aromatic_linkinvent_7_9_3/rearranged_h_0060.sdf

> <i_m_source_file_index>
9

> <r_mmod_Potential_Energy-OPLS-2005>
142.66748046875

> <r_mmod_Stretch_Energy-OPLS-2005>
104.465148925781

> <r_mmod_Bend_Energy-OPLS-2005>
170.663070678711

> <r_mmod_Torsional_Energy-OPLS-2005>
299.76220703125

> <r_mmod_Improper_Torsional_Energy-OPLS-2005>
7.32974290847778

> <r_mmod_Van_der_Waal_Energy-OPLS-2005>
145.239410400391

> <r_mmod_Electrostatic_Energy-OPLS-2005>
-416.451507568359

> <r_mmod_Solvation_Energy-OPLS-2005>
-226.190765380859

> <b_mmod_Minimization_Converged-OPLS-2005>
0

> <r_mmod_RMS_Derivative-OPLS-2005>
3.70059561729431

$$$$
9
                    3D
 Structure written by MMmdl.
155164  0  0  1  0            999 V2000
  -30.5843  -14.7939   20.4639 C   0  0  0  0  0  0
  -30.4378  -12.4916   19.4689 C   0  0  0  0  0  0
  -29.5109  -12.5056   18.2336 C   0  0  0  0  0  0
  -28.0398  -12.3167   18.6539 C   0  0  0  0  0  0
  -27.6361  -13.2293   19.8422 C   0  0  2  0  0  0
  -28.6814  -13.1888   20.9760 C   0  0  0  0  0  0
  -25.2495  -13.8180   20.5689 C   0  0  0  0  0  0
  -24.1790  -13.0430   20.9220 C   0  0  0  0  0  0
  -24.6377  -11.6909   20.8753 C   0  0  0  0  0  0
  -23.9055  -10.4287   21.0414 C   0  0  0  0  0  0
  -24.3610   -9.4206   21.9190 C   0  0  0  0  0  0
  -23.6287   -8.2240   22.0758 C   0  0  0  0  0  0
  -22.4270   -8.0275   21.3548 C   0  0  0  0  0  0
  -21.9905   -9.0247   20.4652 C   0  0  0  0  0  0
  -22.7227  -10.2128   20.3064 C   0  0  0  0  0  0
  -21.6854   -6.0730   22.5280 C   0  0  0  0  0  0
  -21.4012   -6.5637   23.8214 C   0  0  0  0  0  0
  -21.3662   -5.6790   24.9178 C   0  0  0  0  0  0
  -21.6049   -4.3054   24.7229 C   0  0  0  0  0  0
  -21.8818   -3.8143   23.4349 C   0  0  0  0  0  0
  -21.9192   -4.6957   22.3405 C   0  0  0  0  0  0
  -22.7819  -13.5226   21.1869 C   0  0  0  0  0  0
  -22.1653   -4.2144   21.0983 F   0  0  0  0  0  0
  -21.5633   -3.4537   25.7742 F   0  0  0  0  0  0
  -29.9715  -13.5605   20.3830 N   0  0  0  0  0  0
  -26.2908  -12.9380   20.3249 N   0  0  0  0  0  0
  -25.9305  -11.6530   20.5745 N   0  0  0  0  0  0
  -22.0442  -12.8239   22.0424 N   0  0  0  0  0  0
  -25.4166  -15.1905   20.4084 N   0  0  0  0  0  0
  -31.7909  -14.8823   20.2141 O   0  0  0  0  0  0
  -21.6638   -6.8871   21.4240 O   0  0  0  0  0  0
  -22.3523  -14.5530   20.6696 O   0  0  0  0  0  0
  -24.6333  -31.8533   23.1961 C   0  0  0  0  0  0
  -25.9146  -32.4751   23.8322 C   0  0  1  0  0  0
  -27.2243  -27.2418   20.1441 C   0  0  0  0  0  0
  -25.5931  -33.8551   24.2247 N   0  0  0  0  0  0
  -23.4318  -30.4730   21.5401 C   0  0  2  0  0  0
  -24.8813  -28.9066   20.1216 C   0  0  0  0  0  0
  -22.7515  -29.4587   22.4913 C   0  0  0  0  0  0
  -18.0300  -28.1376   22.8490 C   0  0  0  0  0  0
  -24.1484  -36.7280   23.2638 C   0  0  0  0  0  0
  -25.9780  -30.7578   21.3798 C   0  0  0  0  0  0
  -26.0517  -29.3722   20.7356 C   0  0  0  0  0  0
  -27.2273  -28.5504   20.7400 C   0  0  0  0  0  0
  -26.0346  -26.8436   19.5040 C   0  0  0  0  0  0
  -24.8757  -27.6479   19.4991 C   0  0  0  0  0  0
  -23.6535  -29.7984   20.1602 C   0  0  0  0  0  0
  -25.4111  -36.3067   24.0324 C   0  0  1  0  0  0
  -20.5907  -28.3686   23.1271 C   0  0  2  0  0  0
  -20.6785  -26.9397   22.5409 C   0  0  0  0  0  0
  -19.5758  -26.6369   21.5216 C   0  0  0  0  0  0
  -18.1941  -26.7921   22.1629 C   0  0  0  0  0  0
  -19.1555  -28.8853   23.2874 C   0  0  0  0  0  0
  -18.9469  -30.1457   23.8881 C   0  0  0  0  0  0
  -17.6464  -30.6577   24.0559 C   0  0  0  0  0  0
  -25.9051  -34.9438   23.5087 C   0  0  0  0  0  0
  -16.5359  -29.9065   23.6333 C   0  0  0  0  0  0
  -16.7285  -28.6488   23.0353 C   0  0  0  0  0  0
  -26.4501  -31.6589   25.0724 C   0  0  0  0  0  0
  -25.3714  -31.3753   26.1442 C   0  0  0  0  0  0
  -27.0353  -30.3004   24.6225 C   0  0  0  0  0  0
  -27.6049  -32.4335   25.7502 C   0  0  0  0  0  0
  -27.5572  -37.1795   24.8466 C   0  0  0  0  0  0
  -21.4221  -29.3038   22.3659 N   0  0  0  0  0  0
  -26.4285  -37.3769   23.9408 N   0  0  0  0  0  0
  -24.7003  -31.0471   22.0954 N   0  0  0  0  0  0
  -23.4206  -28.8140   23.3029 O   0  0  0  0  0  0
  -28.3240  -26.3570   20.0659 O   0  0  0  0  0  0
  -26.5624  -34.8915   22.4654 O   0  0  0  0  0  0
  -23.5478  -32.1361   23.7240 O   0  0  0  0  0  0
  -31.4078  -19.0045   22.0946 C   0  0  0  0  0  0
  -30.6893  -20.1040   21.5773 C   0  0  0  0  0  0
  -31.1215  -17.6758   21.7178 C   0  0  0  0  0  0
  -29.3471  -18.5362   20.2983 C   0  0  0  0  0  0
  -29.6421  -19.9377   20.6424 C   0  0  0  0  0  0
  -30.0826  -17.3744   20.8115 C   0  0  0  0  0  0
  -28.5989  -23.9353   20.1752 C   0  0  0  0  0  0
  -28.8467  -21.2643   18.7089 C   0  0  0  0  0  0
  -28.9816  -23.8532   18.7163 C   0  0  0  0  0  0
  -28.7364  -22.4797   20.8696 C   0  0  0  0  0  0
  -28.3783  -22.5872   18.0727 C   0  0  0  0  0  0
  -28.1803  -25.0488   20.7606 N   0  0  0  0  0  0
  -29.0285  -21.1912   20.0567 N   0  0  0  0  0  0
  -29.7759  -15.9338   20.5397 N   0  0  0  0  0  0
  -29.0381  -20.3131   17.9442 O   0  0  0  0  0  0
  -31.4739  -12.6395   19.1595 H   0  0  0  0  0  0
  -30.4054  -11.5207   19.9660 H   0  0  0  0  0  0
  -29.8037  -11.7219   17.5338 H   0  0  0  0  0  0
  -29.6229  -13.4505   17.6986 H   0  0  0  0  0  0
  -27.9130  -11.2702   18.9344 H   0  0  0  0  0  0
  -27.3769  -12.4833   17.8038 H   0  0  0  0  0  0
  -27.6200  -14.2438   19.4448 H   0  0  0  0  0  0
  -28.7352  -12.1963   21.4262 H   0  0  0  0  0  0
  -28.4084  -13.8771   21.7782 H   0  0  0  0  0  0
  -25.2750   -9.5692   22.4772 H   0  0  0  0  0  0
  -23.9999   -7.4639   22.7484 H   0  0  0  0  0  0
  -21.0836   -8.8767   19.8964 H   0  0  0  0  0  0
  -22.3679  -10.9670   19.6183 H   0  0  0  0  0  0
  -21.2001   -7.6145   23.9719 H   0  0  0  0  0  0
  -21.1486   -6.0519   25.9082 H   0  0  0  0  0  0
  -22.0598   -2.7603   23.2853 H   0  0  0  0  0  0
  -22.4033  -11.9911   22.4853 H   0  0  0  0  0  0
  -21.1059  -13.1295   22.2598 H   0  0  0  0  0  0
  -24.6443  -15.8388   20.5183 H   0  0  0  0  0  0
  -26.2544  -15.6344   20.0567 H   0  0  0  0  0  0
  -26.7218  -32.5399   23.1069 H   0  0  0  0  0  0
  -25.0095  -33.9694   25.0406 H   0  0  0  0  0  0
  -22.7290  -31.2949   21.3880 H   0  0  0  0  0  0
  -23.3749  -35.9609   23.3302 H   0  0  0  0  0  0
  -24.3572  -36.8900   22.2052 H   0  0  0  0  0  0
  -23.7230  -37.6476   23.6665 H   0  0  0  0  0  0
  -26.1128  -31.5090   20.6003 H   0  0  0  0  0  0
  -26.8572  -30.8172   22.0096 H   0  0  0  0  0  0
  -28.1312  -28.9081   21.2133 H   0  0  0  0  0  0
  -26.0013  -25.8828   19.0110 H   0  0  0  0  0  0
  -23.9807  -27.2834   19.0142 H   0  0  0  0  0  0
  -23.7813  -30.5686   19.3989 H   0  0  0  0  0  0
  -22.7723  -29.2308   19.8573 H   0  0  0  0  0  0
  -25.1294  -36.1913   25.0819 H   0  0  0  0  0  0
  -21.0001  -28.3257   24.1391 H   0  0  0  0  0  0
  -20.5676  -26.2291   23.3618 H   0  0  0  0  0  0
  -21.6650  -26.7407   22.1209 H   0  0  0  0  0  0
  -19.6905  -25.6277   21.1245 H   0  0  0  0  0  0
  -19.6693  -27.3183   20.6752 H   0  0  0  0  0  0
  -17.4213  -26.6681   21.4031 H   0  0  0  0  0  0
  -18.0326  -26.0060   22.9023 H   0  0  0  0  0  0
  -19.7940  -30.7286   24.2233 H   0  0  0  0  0  0
  -17.5011  -31.6257   24.5156 H   0  0  0  0  0  0
  -15.5356  -30.2954   23.7657 H   0  0  0  0  0  0
  -15.8694  -28.0795   22.7064 H   0  0  0  0  0  0
  -24.5896  -30.7092   25.7776 H   0  0  0  0  0  0
  -24.8901  -32.2932   26.4832 H   0  0  0  0  0  0
  -25.8023  -30.8960   27.0241 H   0  0  0  0  0  0
  -26.2953  -29.6751   24.1221 H   0  0  0  0  0  0
  -27.3998  -29.7270   25.4758 H   0  0  0  0  0  0
  -27.8842  -30.4277   23.9503 H   0  0  0  0  0  0
  -27.2654  -33.3644   26.2054 H   0  0  0  0  0  0
  -28.3875  -32.6875   25.0342 H   0  0  0  0  0  0
  -28.0699  -31.8473   26.5439 H   0  0  0  0  0  0
  -28.2595  -38.0089   24.7511 H   0  0  0  0  0  0
  -28.1062  -36.2618   24.6299 H   0  0  0  0  0  0
  -27.2289  -37.1451   25.8870 H   0  0  0  0  0  0
  -20.9404  -29.8764   21.6868 H   0  0  0  0  0  0
  -26.0161  -38.2841   24.1413 H   0  0  0  0  0  0
  -32.2106  -19.1885   22.7949 H   0  0  0  0  0  0
  -31.0018  -21.0910   21.8858 H   0  0  0  0  0  0
  -31.7033  -16.8800   22.1623 H   0  0  0  0  0  0
  -28.5409  -18.3487   19.6034 H   0  0  0  0  0  0
  -30.0688  -23.8407   18.6341 H   0  0  0  0  0  0
  -28.6330  -24.7365   18.1818 H   0  0  0  0  0  0
  -27.8055  -22.2945   21.4043 H   0  0  0  0  0  0
  -29.4882  -22.5879   21.6467 H   0  0  0  0  0  0
  -27.2891  -22.6223   18.1192 H   0  0  0  0  0  0
  -28.6344  -22.5727   17.0132 H   0  0  0  0  0  0
  -28.7940  -15.7273   20.4436 H   0  0  0  0  0  0
  1 25  1  0  0  0
  1 30  2  0  0  0
  1 84  1  0  0  0
  2  3  1  0  0  0
  2 25  1  0  0  0
  2 86  1  0  0  0
  2 87  1  0  0  0
  3  4  1  0  0  0
  3 88  1  0  0  0
  3 89  1  0  0  0
  4  5  1  0  0  0
  4 90  1  0  0  0
  4 91  1  0  0  0
  5  6  1  0  0  0
  5 26  1  0  0  0
  5 92  1  0  0  0
  6 25  1  0  0  0
  6 93  1  0  0  0
  6 94  1  0  0  0
  7  8  2  0  0  0
  7 26  1  0  0  0
  7 29  1  0  0  0
  8  9  1  0  0  0
  8 22  1  0  0  0
  9 10  1  0  0  0
  9 27  2  0  0  0
 10 11  2  0  0  0
 10 15  1  0  0  0
 11 12  1  0  0  0
 11 95  1  0  0  0
 12 13  2  0  0  0
 12 96  1  0  0  0
 13 14  1  0  0  0
 13 31  1  0  0  0
 14 15  2  0  0  0
 14 97  1  0  0  0
 15 98  1  0  0  0
 16 17  2  0  0  0
 16 21  1  0  0  0
 16 31  1  0  0  0
 17 18  1  0  0  0
 17 99  1  0  0  0
 18 19  2  0  0  0
 18100  1  0  0  0
 19 20  1  0  0  0
 19 24  1  0  0  0
 20 21  2  0  0  0
 20101  1  0  0  0
 21 23  1  0  0  0
 22 28  1  0  0  0
 22 32  2  0  0  0
 26 27  1  0  0  0
 28102  1  0  0  0
 28103  1  0  0  0
 29104  1  0  0  0
 29105  1  0  0  0
 33 34  1  0  0  0
 33 66  1  0  0  0
 33 70  2  0  0  0
 34 36  1  0  0  0
 34 59  1  0  0  0
 34106  1  0  0  0
 35 44  2  0  0  0
 35 45  1  0  0  0
 35 68  1  0  0  0
 36 56  1  0  0  0
 36107  1  0  0  0
 37 39  1  0  0  0
 37 47  1  0  0  0
 37 66  1  0  0  0
 37108  1  0  0  0
 38 43  2  0  0  0
 38 46  1  0  0  0
 38 47  1  0  0  0
 39 64  1  0  0  0
 39 67  2  0  0  0
 40 52  1  0  0  0
 40 53  2  0  0  0
 40 58  1  0  0  0
 41109  1  0  0  0
 41110  1  0  0  0
 41111  1  0  0  0
 41 48  1  0  0  0
 42 43  1  0  0  0
 42 66  1  0  0  0
 42112  1  0  0  0
 42113  1  0  0  0
 43 44  1  0  0  0
 44114  1  0  0  0
 45 46  2  0  0  0
 45115  1  0  0  0
 46116  1  0  0  0
 47117  1  0  0  0
 47118  1  0  0  0
 48 56  1  0  0  0
 48 65  1  0  0  0
 48119  1  0  0  0
 49 50  1  0  0  0
 49 53  1  0  0  0
 49 64  1  0  0  0
 49120  1  0  0  0
 50 51  1  0  0  0
 50121  1  0  0  0
 50122  1  0  0  0
 51 52  1  0  0  0
 51123  1  0  0  0
 51124  1  0  0  0
 52125  1  0  0  0
 52126  1  0  0  0
 53 54  1  0  0  0
 54 55  2  0  0  0
 54127  1  0  0  0
 55 57  1  0  0  0
 55128  1  0  0  0
 56 69  2  0  0  0
 57 58  2  0  0  0
 57129  1  0  0  0
 58130  1  0  0  0
 59 60  1  0  0  0
 59 61  1  0  0  0
 59 62  1  0  0  0
 60131  1  0  0  0
 60132  1  0  0  0
 60133  1  0  0  0
 61134  1  0  0  0
 61135  1  0  0  0
 61136  1  0  0  0
 62137  1  0  0  0
 62138  1  0  0  0
 62139  1  0  0  0
 63 65  1  0  0  0
 63140  1  0  0  0
 63141  1  0  0  0
 63142  1  0  0  0
 64143  1  0  0  0
 65144  1  0  0  0
 68 82  1  0  0  0
 71 72  2  0  0  0
 71 73  1  0  0  0
 71145  1  0  0  0
 72 75  1  0  0  0
 72146  1  0  0  0
 73 76  2  0  0  0
 73147  1  0  0  0
 74 75  2  0  0  0
 74 76  1  0  0  0
 74148  1  0  0  0
 75 83  1  0  0  0
 76 84  1  0  0  0
 77 79  1  0  0  0
 77 80  1  0  0  0
 77 82  2  0  0  0
 78 81  1  0  0  0
 78 83  1  0  0  0
 78 85  2  0  0  0
 79 81  1  0  0  0
 79149  1  0  0  0
 79150  1  0  0  0
 80 83  1  0  0  0
 80151  1  0  0  0
 80152  1  0  0  0
 81153  1  0  0  0
 81154  1  0  0  0
 84155  1  0  0  0
M  ISO  4   1 100  68 101  82 101  84 100
M  END
> <chiral flag>
0

> <version>
0

> <s_m_source_file>
/data/baiqing/PycharmProjects/Reinvent-master-3.2/result/LINK_invent/BTK/process_docking_weight1_custom_product_contain_oxygen_bond_distance_aromatic_linkinvent_7_9_3/rearranged_h_0060.sdf

> <i_m_source_file_index>
10

> <r_mmod_Potential_Energy-OPLS-2005>
229.610198974609

> <r_mmod_Stretch_Energy-OPLS-2005>
155.458297729492

> <r_mmod_Bend_Energy-OPLS-2005>
169.748184204102

> <r_mmod_Torsional_Energy-OPLS-2005>
281.642700195312

> <r_mmod_Improper_Torsional_Energy-OPLS-2005>
7.54347848892212

> <r_mmod_Van_der_Waal_Energy-OPLS-2005>
147.177337646484

> <r_mmod_Electrostatic_Energy-OPLS-2005>
-394.746429443359

> <r_mmod_Solvation_Energy-OPLS-2005>
-238.450256347656

> <b_mmod_Minimization_Converged-OPLS-2005>
0

> <r_mmod_RMS_Derivative-OPLS-2005>
1.01597142219543

$$$$
10
                    3D
 Structure written by MMmdl.
156164  0  0  1  0            999 V2000
  -30.6633  -14.6214   20.4515 C   0  0  0  0  0  0
  -30.4125  -12.3697   19.4540 C   0  0  0  0  0  0
  -29.4952  -12.4871   18.2190 C   0  0  0  0  0  0
  -28.0184  -12.3385   18.6336 C   0  0  0  0  0  0
  -27.6424  -13.2253   19.8522 C   0  0  2  0  0  0
  -28.6891  -13.1170   20.9842 C   0  0  0  0  0  0
  -25.2479  -13.8173   20.5658 C   0  0  0  0  0  0
  -24.1787  -13.0422   20.9216 C   0  0  0  0  0  0
  -24.6386  -11.6911   20.8771 C   0  0  0  0  0  0
  -23.9064  -10.4290   21.0421 C   0  0  0  0  0  0
  -24.3618   -9.4200   21.9188 C   0  0  0  0  0  0
  -23.6297   -8.2233   22.0759 C   0  0  0  0  0  0
  -22.4276   -8.0278   21.3547 C   0  0  0  0  0  0
  -21.9914   -9.0246   20.4643 C   0  0  0  0  0  0
  -22.7248  -10.2124   20.3053 C   0  0  0  0  0  0
  -21.6840   -6.0731   22.5280 C   0  0  0  0  0  0
  -21.4003   -6.5639   23.8216 C   0  0  0  0  0  0
  -21.3654   -5.6785   24.9174 C   0  0  0  0  0  0
  -21.6046   -4.3047   24.7222 C   0  0  0  0  0  0
  -21.8826   -3.8145   23.4341 C   0  0  0  0  0  0
  -21.9197   -4.6960   22.3400 C   0  0  0  0  0  0
  -22.7816  -13.5201   21.1883 C   0  0  0  0  0  0
  -22.1661   -4.2150   21.0975 F   0  0  0  0  0  0
  -21.5632   -3.4527   25.7731 F   0  0  0  0  0  0
  -30.0018  -13.4240   20.4040 N   0  0  0  0  0  0
  -26.2925  -12.9386   20.3280 N   0  0  0  0  0  0
  -25.9309  -11.6534   20.5776 N   0  0  0  0  0  0
  -22.0451  -12.8185   22.0419 N   0  0  0  0  0  0
  -25.4108  -15.1881   20.3970 N   0  0  0  0  0  0
  -31.8545  -14.6693   20.1433 O   0  0  0  0  0  0
  -21.6637   -6.8877   21.4244 O   0  0  0  0  0  0
  -22.3506  -14.5512   20.6739 O   0  0  0  0  0  0
  -24.6219  -31.8597   23.2037 C   0  0  0  0  0  0
  -25.9084  -32.4779   23.8339 C   0  0  1  0  0  0
  -27.2222  -27.3561   20.1176 C   0  0  0  0  0  0
  -25.5924  -33.8580   24.2283 N   0  0  0  0  0  0
  -23.4133  -30.4838   21.5438 C   0  0  2  0  0  0
  -24.8588  -28.9365   20.1142 C   0  0  0  0  0  0
  -22.7447  -29.4632   22.4949 C   0  0  0  0  0  0
  -18.0279  -28.1382   22.8496 C   0  0  0  0  0  0
  -24.1473  -36.7272   23.2646 C   0  0  0  0  0  0
  -25.9487  -30.8042   21.3641 C   0  0  0  0  0  0
  -26.0248  -29.4326   20.7119 C   0  0  0  0  0  0
  -27.2143  -28.6544   20.7001 C   0  0  0  0  0  0
  -26.0379  -26.8917   19.5109 C   0  0  0  0  0  0
  -24.8637  -27.6705   19.5041 C   0  0  0  0  0  0
  -23.6256  -29.8136   20.1601 C   0  0  0  0  0  0
  -25.4101  -36.3083   24.0345 C   0  0  1  0  0  0
  -20.5877  -28.3671   23.1299 C   0  0  2  0  0  0
  -20.6762  -26.9396   22.5426 C   0  0  0  0  0  0
  -19.5758  -26.6384   21.5215 C   0  0  0  0  0  0
  -18.1925  -26.7945   22.1593 C   0  0  0  0  0  0
  -19.1530  -28.8846   23.2894 C   0  0  0  0  0  0
  -18.9459  -30.1453   23.8899 C   0  0  0  0  0  0
  -17.6460  -30.6588   24.0577 C   0  0  0  0  0  0
  -25.9043  -34.9460   23.5114 C   0  0  0  0  0  0
  -16.5349  -29.9085   23.6352 C   0  0  0  0  0  0
  -16.7265  -28.6512   23.0348 C   0  0  0  0  0  0
  -26.4486  -31.6568   25.0684 C   0  0  0  0  0  0
  -25.3753  -31.3693   26.1434 C   0  0  0  0  0  0
  -27.0306  -30.2998   24.6082 C   0  0  0  0  0  0
  -27.6042  -32.4287   25.7467 C   0  0  0  0  0  0
  -27.5566  -37.1800   24.8472 C   0  0  0  0  0  0
  -21.4166  -29.3029   22.3698 N   0  0  0  0  0  0
  -26.4279  -37.3772   23.9423 N   0  0  0  0  0  0
  -24.6801  -31.0654   22.0952 N   0  0  0  0  0  0
  -23.4195  -28.8174   23.3014 O   0  0  0  0  0  0
  -28.3521  -26.5461   20.1084 O   0  0  0  0  0  0
  -26.5603  -34.8933   22.4672 O   0  0  0  0  0  0
  -23.5405  -32.1352   23.7428 O   0  0  0  0  0  0
  -31.8400  -18.9280   19.7245 C   0  0  0  0  0  0
  -31.5195  -17.5861   19.9908 C   0  0  0  0  0  0
  -30.8765  -19.9370   19.8532 C   0  0  0  0  0  0
  -29.2329  -18.2397   20.5218 C   0  0  0  0  0  0
  -30.2192  -17.1826   20.3920 C   0  0  0  0  0  0
  -29.5646  -19.6289   20.2599 C   0  0  0  0  0  0
  -28.4519  -24.0002   19.7629 C   0  0  0  0  0  0
  -27.8105  -17.8851   20.9317 C   0  0  0  0  0  0
  -28.2248  -25.2172   20.7244 C   0  0  0  0  0  0
  -29.2479  -22.7474   20.2657 C   0  0  0  0  0  0
  -27.7243  -21.0523   21.7887 N   0  0  0  0  0  0
  -29.9100  -15.7596   20.6426 N   0  0  0  0  0  0
  -28.0678  -24.0638   18.5898 O   0  0  0  0  0  0
  -27.4611  -20.9507   19.1943 O   0  0  0  0  0  0
  -28.3612  -21.0596   20.3547 S   0  0  2  0  0  0
  -31.4595  -12.4492   19.1571 H   0  0  0  0  0  0
  -30.3089  -11.3842   19.9112 H   0  0  0  0  0  0
  -29.7556  -11.7259   17.4821 H   0  0  0  0  0  0
  -29.6483  -13.4500   17.7291 H   0  0  0  0  0  0
  -27.8524  -11.2887   18.8779 H   0  0  0  0  0  0
  -27.3634  -12.5554   17.7889 H   0  0  0  0  0  0
  -27.6503  -14.2553   19.4945 H   0  0  0  0  0  0
  -28.6911  -12.1132   21.4100 H   0  0  0  0  0  0
  -28.4488  -13.7953   21.8045 H   0  0  0  0  0  0
  -25.2770   -9.5667   22.4755 H   0  0  0  0  0  0
  -24.0004   -7.4613   22.7469 H   0  0  0  0  0  0
  -21.0851   -8.8759   19.8937 H   0  0  0  0  0  0
  -22.3719  -10.9652   19.6147 H   0  0  0  0  0  0
  -21.1980   -7.6139   23.9714 H   0  0  0  0  0  0
  -21.1466   -6.0509   25.9078 H   0  0  0  0  0  0
  -22.0610   -2.7602   23.2830 H   0  0  0  0  0  0
  -22.4057  -11.9822   22.4777 H   0  0  0  0  0  0
  -21.1058  -13.1191   22.2617 H   0  0  0  0  0  0
  -24.6289  -15.8277   20.4864 H   0  0  0  0  0  0
  -26.2242  -15.6124   19.9743 H   0  0  0  0  0  0
  -26.7153  -32.5456   23.1090 H   0  0  0  0  0  0
  -25.0128  -33.9724   25.0468 H   0  0  0  0  0  0
  -22.7072  -31.3052   21.4021 H   0  0  0  0  0  0
  -23.3763  -35.9572   23.3295 H   0  0  0  0  0  0
  -24.3578  -36.8899   22.2063 H   0  0  0  0  0  0
  -23.7185  -37.6461   23.6656 H   0  0  0  0  0  0
  -26.0723  -31.5660   20.5939 H   0  0  0  0  0  0
  -26.8335  -30.8553   21.9868 H   0  0  0  0  0  0
  -28.1144  -29.0378   21.1597 H   0  0  0  0  0  0
  -26.0198  -25.9197   19.0387 H   0  0  0  0  0  0
  -23.9693  -27.2861   19.0333 H   0  0  0  0  0  0
  -23.7439  -30.5862   19.3993 H   0  0  0  0  0  0
  -22.7475  -29.2382   19.8610 H   0  0  0  0  0  0
  -25.1284  -36.1923   25.0838 H   0  0  0  0  0  0
  -20.9981  -28.3223   24.1414 H   0  0  0  0  0  0
  -20.5636  -26.2278   23.3614 H   0  0  0  0  0  0
  -21.6625  -26.7404   22.1231 H   0  0  0  0  0  0
  -19.6909  -25.6302   21.1225 H   0  0  0  0  0  0
  -19.6731  -27.3210   20.6770 H   0  0  0  0  0  0
  -17.4221  -26.6755   21.3958 H   0  0  0  0  0  0
  -18.0282  -26.0055   22.8942 H   0  0  0  0  0  0
  -19.7942  -30.7273   24.2238 H   0  0  0  0  0  0
  -17.5030  -31.6268   24.5177 H   0  0  0  0  0  0
  -15.5356  -30.2981   23.7702 H   0  0  0  0  0  0
  -15.8667  -28.0849   22.7022 H   0  0  0  0  0  0
  -24.5987  -30.6945   25.7805 H   0  0  0  0  0  0
  -24.8877  -32.2855   26.4778 H   0  0  0  0  0  0
  -25.8142  -30.8975   27.0236 H   0  0  0  0  0  0
  -26.2831  -29.6771   24.1147 H   0  0  0  0  0  0
  -27.4080  -29.7219   25.4525 H   0  0  0  0  0  0
  -27.8679  -30.4300   23.9222 H   0  0  0  0  0  0
  -27.2638  -33.3607   26.1983 H   0  0  0  0  0  0
  -28.3891  -32.6791   25.0321 H   0  0  0  0  0  0
  -28.0641  -31.8432   26.5433 H   0  0  0  0  0  0
  -28.2593  -38.0082   24.7483 H   0  0  0  0  0  0
  -28.1047  -36.2616   24.6315 H   0  0  0  0  0  0
  -27.2313  -37.1475   25.8887 H   0  0  0  0  0  0
  -20.9327  -29.8746   21.6918 H   0  0  0  0  0  0
  -26.0162  -38.2851   24.1411 H   0  0  0  0  0  0
  -32.8434  -19.1859   19.4141 H   0  0  0  0  0  0
  -32.3301  -16.8885   19.8635 H   0  0  0  0  0  0
  -31.1676  -20.9490   19.6299 H   0  0  0  0  0  0
  -27.5919  -16.8268   20.8133 H   0  0  0  0  0  0
  -27.0855  -18.4244   20.3216 H   0  0  0  0  0  0
  -27.6370  -18.1472   21.9760 H   0  0  0  0  0  0
  -28.9598  -25.1523   21.5258 H   0  0  0  0  0  0
  -27.2494  -25.1112   21.2000 H   0  0  0  0  0  0
  -29.6912  -22.9566   21.2360 H   0  0  0  0  0  0
  -30.0700  -22.6463   19.5652 H   0  0  0  0  0  0
  -28.4434  -20.9714   22.5193 H   0  0  0  0  0  0
  -28.9560  -15.5654   20.8988 H   0  0  0  0  0  0
  1 25  1  0  0  0
  1 30  2  0  0  0
  1 82  1  0  0  0
  2  3  1  0  0  0
  2 25  1  0  0  0
  2 86  1  0  0  0
  2 87  1  0  0  0
  3  4  1  0  0  0
  3 88  1  0  0  0
  3 89  1  0  0  0
  4  5  1  0  0  0
  4 90  1  0  0  0
  4 91  1  0  0  0
  5  6  1  0  0  0
  5 26  1  0  0  0
  5 92  1  0  0  0
  6 25  1  0  0  0
  6 93  1  0  0  0
  6 94  1  0  0  0
  7  8  2  0  0  0
  7 26  1  0  0  0
  7 29  1  0  0  0
  8  9  1  0  0  0
  8 22  1  0  0  0
  9 10  1  0  0  0
  9 27  2  0  0  0
 10 11  2  0  0  0
 10 15  1  0  0  0
 11 12  1  0  0  0
 11 95  1  0  0  0
 12 13  2  0  0  0
 12 96  1  0  0  0
 13 14  1  0  0  0
 13 31  1  0  0  0
 14 15  2  0  0  0
 14 97  1  0  0  0
 15 98  1  0  0  0
 16 17  2  0  0  0
 16 21  1  0  0  0
 16 31  1  0  0  0
 17 18  1  0  0  0
 17 99  1  0  0  0
 18 19  2  0  0  0
 18100  1  0  0  0
 19 20  1  0  0  0
 19 24  1  0  0  0
 20 21  2  0  0  0
 20101  1  0  0  0
 21 23  1  0  0  0
 22 28  1  0  0  0
 22 32  2  0  0  0
 26 27  1  0  0  0
 28102  1  0  0  0
 28103  1  0  0  0
 29104  1  0  0  0
 29105  1  0  0  0
 33 34  1  0  0  0
 33 66  1  0  0  0
 33 70  2  0  0  0
 34 36  1  0  0  0
 34 59  1  0  0  0
 34106  1  0  0  0
 35 44  2  0  0  0
 35 45  1  0  0  0
 35 68  1  0  0  0
 36 56  1  0  0  0
 36107  1  0  0  0
 37 39  1  0  0  0
 37 47  1  0  0  0
 37 66  1  0  0  0
 37108  1  0  0  0
 38 43  2  0  0  0
 38 46  1  0  0  0
 38 47  1  0  0  0
 39 64  1  0  0  0
 39 67  2  0  0  0
 40 52  1  0  0  0
 40 53  2  0  0  0
 40 58  1  0  0  0
 41109  1  0  0  0
 41110  1  0  0  0
 41111  1  0  0  0
 41 48  1  0  0  0
 42 43  1  0  0  0
 42 66  1  0  0  0
 42112  1  0  0  0
 42113  1  0  0  0
 43 44  1  0  0  0
 44114  1  0  0  0
 45 46  2  0  0  0
 45115  1  0  0  0
 46116  1  0  0  0
 47117  1  0  0  0
 47118  1  0  0  0
 48 56  1  0  0  0
 48 65  1  0  0  0
 48119  1  0  0  0
 49 50  1  0  0  0
 49 53  1  0  0  0
 49 64  1  0  0  0
 49120  1  0  0  0
 50 51  1  0  0  0
 50121  1  0  0  0
 50122  1  0  0  0
 51 52  1  0  0  0
 51123  1  0  0  0
 51124  1  0  0  0
 52125  1  0  0  0
 52126  1  0  0  0
 53 54  1  0  0  0
 54 55  2  0  0  0
 54127  1  0  0  0
 55 57  1  0  0  0
 55128  1  0  0  0
 56 69  2  0  0  0
 57 58  2  0  0  0
 57129  1  0  0  0
 58130  1  0  0  0
 59 60  1  0  0  0
 59 61  1  0  0  0
 59 62  1  0  0  0
 60131  1  0  0  0
 60132  1  0  0  0
 60133  1  0  0  0
 61134  1  0  0  0
 61135  1  0  0  0
 61136  1  0  0  0
 62137  1  0  0  0
 62138  1  0  0  0
 62139  1  0  0  0
 63 65  1  0  0  0
 63140  1  0  0  0
 63141  1  0  0  0
 63142  1  0  0  0
 64143  1  0  0  0
 65144  1  0  0  0
 68 79  1  0  0  0
 71 72  2  0  0  0
 71 73  1  0  0  0
 71145  1  0  0  0
 72 75  1  0  0  0
 72146  1  0  0  0
 73 76  2  0  0  0
 73147  1  0  0  0
 74 75  2  0  0  0
 74 76  1  0  0  0
 74 78  1  0  0  0
 75 82  1  0  0  0
 76 85  1  0  0  0
 77 79  1  0  0  0
 77 80  1  0  0  0
 77 83  2  0  0  0
 78148  1  0  0  0
 78149  1  0  0  0
 78150  1  0  0  0
 79151  1  0  0  0
 79152  1  0  0  0
 80153  1  0  0  0
 80154  1  0  0  0
 80 85  1  0  0  0
 81 85  2  0  0  0
 81155  1  0  0  0
 82156  1  0  0  0
 84 85  2  0  0  0
M  ISO  4   1 100  68 101  79 101  82 100
M  END
> <chiral flag>
0

> <version>
0

> <s_m_source_file>
/data/baiqing/PycharmProjects/Reinvent-master-3.2/result/LINK_invent/BTK/process_docking_weight1_custom_product_contain_oxygen_bond_distance_aromatic_linkinvent_7_9_3/rearranged_h_0060.sdf

> <i_m_source_file_index>
11

> <r_mmod_Potential_Energy-OPLS-2005>
-106.3349609375

> <r_mmod_Stretch_Energy-OPLS-2005>
79.8509063720703

> <r_mmod_Bend_Energy-OPLS-2005>
132.723236083984

> <r_mmod_Torsional_Energy-OPLS-2005>
243.94743347168

> <r_mmod_Improper_Torsional_Energy-OPLS-2005>
5.68989086151123

> <r_mmod_Van_der_Waal_Energy-OPLS-2005>
141.050201416016

> <r_mmod_Electrostatic_Energy-OPLS-2005>
-458.373962402344

> <r_mmod_Solvation_Energy-OPLS-2005>
-292.238006591797

> <b_mmod_Minimization_Converged-OPLS-2005>
0

> <r_mmod_RMS_Derivative-OPLS-2005>
2.06819176673889

$$$$
11
                    3D
 Structure written by MMmdl.
160169  0  0  1  0            999 V2000
  -30.7425  -14.4240   20.6415 C   0  0  0  0  0  0
  -30.4145  -12.2841   19.4363 C   0  0  0  0  0  0
  -29.4970  -12.4810   18.2116 C   0  0  0  0  0  0
  -28.0195  -12.3384   18.6239 C   0  0  0  0  0  0
  -27.6571  -13.2070   19.8590 C   0  0  2  0  0  0
  -28.6876  -12.9937   20.9924 C   0  0  0  0  0  0
  -25.2573  -13.8140   20.5703 C   0  0  0  0  0  0
  -24.1787  -13.0437   20.9125 C   0  0  0  0  0  0
  -24.6342  -11.6901   20.8645 C   0  0  0  0  0  0
  -23.9021  -10.4275   21.0353 C   0  0  0  0  0  0
  -24.3562   -9.4222   21.9169 C   0  0  0  0  0  0
  -23.6250   -8.2247   22.0724 C   0  0  0  0  0  0
  -22.4245   -8.0268   21.3531 C   0  0  0  0  0  0
  -21.9858   -9.0217   20.4634 C   0  0  0  0  0  0
  -22.7156  -10.2127   20.3043 C   0  0  0  0  0  0
  -21.6811   -6.0717   22.5256 C   0  0  0  0  0  0
  -21.3985   -6.5603   23.8222 C   0  0  0  0  0  0
  -21.3669   -5.6771   24.9179 C   0  0  0  0  0  0
  -21.6073   -4.3027   24.7210 C   0  0  0  0  0  0
  -21.8814   -3.8128   23.4321 C   0  0  0  0  0  0
  -21.9178   -4.6940   22.3397 C   0  0  0  0  0  0
  -22.7828  -13.5287   21.1832 C   0  0  0  0  0  0
  -22.1676   -4.2140   21.0957 F   0  0  0  0  0  0
  -21.5654   -3.4504   25.7730 F   0  0  0  0  0  0
  -30.0392  -13.2719   20.4640 N   0  0  0  0  0  0
  -26.2961  -12.9305   20.3234 N   0  0  0  0  0  0
  -25.9246  -11.6469   20.5613 N   0  0  0  0  0  0
  -22.0449  -12.8322   22.0422 N   0  0  0  0  0  0
  -25.4533  -15.1860   20.4368 N   0  0  0  0  0  0
  -31.7925  -14.6649   20.0397 O   0  0  0  0  0  0
  -21.6625   -6.8853   21.4238 O   0  0  0  0  0  0
  -22.3554  -14.5637   20.6733 O   0  0  0  0  0  0
  -24.6102  -31.8716   23.2121 C   0  0  0  0  0  0
  -25.8988  -32.4857   23.8417 C   0  0  1  0  0  0
  -27.2503  -27.4884   20.0862 C   0  0  0  0  0  0
  -25.5858  -33.8645   24.2377 N   0  0  0  0  0  0
  -23.3950  -30.4897   21.5556 C   0  0  2  0  0  0
  -24.8457  -28.9598   20.1194 C   0  0  0  0  0  0
  -22.7392  -29.4655   22.5087 C   0  0  0  0  0  0
  -18.0263  -28.1356   22.8509 C   0  0  0  0  0  0
  -24.1482  -36.7323   23.2630 C   0  0  0  0  0  0
  -25.9119  -30.8636   21.3413 C   0  0  0  0  0  0
  -26.0016  -29.4942   20.7020 C   0  0  0  0  0  0
  -27.2110  -28.7656   20.6864 C   0  0  0  0  0  0
  -26.0803  -26.9545   19.5171 C   0  0  0  0  0  0
  -24.8761  -27.6856   19.5247 C   0  0  0  0  0  0
  -23.5974  -29.8110   20.1726 C   0  0  0  0  0  0
  -25.4084  -36.3137   24.0366 C   0  0  1  0  0  0
  -20.5847  -28.3620   23.1359 C   0  0  2  0  0  0
  -20.6755  -26.9397   22.5358 C   0  0  0  0  0  0
  -19.5694  -26.6408   21.5184 C   0  0  0  0  0  0
  -18.1904  -26.7894   22.1670 C   0  0  0  0  0  0
  -19.1517  -28.8812   23.2917 C   0  0  0  0  0  0
  -18.9437  -30.1420   23.8921 C   0  0  0  0  0  0
  -17.6442  -30.6564   24.0566 C   0  0  0  0  0  0
  -25.8993  -34.9500   23.5174 C   0  0  0  0  0  0
  -16.5335  -29.9065   23.6330 C   0  0  0  0  0  0
  -16.7253  -28.6481   23.0359 C   0  0  0  0  0  0
  -26.4468  -31.6584   25.0689 C   0  0  0  0  0  0
  -25.3800  -31.3621   26.1501 C   0  0  0  0  0  0
  -27.0238  -30.3059   24.5898 C   0  0  0  0  0  0
  -27.6134  -32.4244   25.7365 C   0  0  0  0  0  0
  -27.5578  -37.1790   24.8475 C   0  0  0  0  0  0
  -21.4143  -29.3009   22.3818 N   0  0  0  0  0  0
  -26.4278  -37.3807   23.9429 N   0  0  0  0  0  0
  -24.6585  -31.0852   22.0993 N   0  0  0  0  0  0
  -23.4176  -28.8208   23.3124 O   0  0  0  0  0  0
  -28.3774  -26.7058   20.0785 O   0  0  0  0  0  0
  -26.5572  -34.8949   22.4740 O   0  0  0  0  0  0
  -23.5321  -32.1437   23.7567 O   0  0  0  0  0  0
  -31.9267  -20.6023   22.6490 C   0  0  0  0  0  0
  -31.7498  -18.2329   23.2951 C   0  0  0  0  0  0
  -31.6513  -21.6471   21.7385 C   0  0  0  0  0  0
  -31.3084  -16.9224   23.0199 C   0  0  0  0  0  0
  -30.5919  -20.0437   20.2440 C   0  0  0  0  0  0
  -30.4801  -17.6609   20.8518 C   0  0  0  0  0  0
  -31.5241  -19.2773   22.3704 C   0  0  0  0  0  0
  -30.8668  -18.9899   21.1471 C   0  0  0  0  0  0
  -30.9684  -21.3774   20.5315 C   0  0  0  0  0  0
  -30.6978  -16.6171   21.7853 C   0  0  0  0  0  0
  -30.5135  -24.9081   19.1667 C   0  0  0  0  0  0
  -30.6504  -22.4635   19.4983 C   0  0  0  0  0  0
  -30.7326  -26.2969   19.7745 C   0  0  0  0  0  0
  -29.5685  -27.2849   19.5633 C   0  0  0  0  0  0
  -30.2399  -15.2916   21.5396 N   0  0  0  0  0  0
  -30.7479  -23.8471   19.9550 N   0  0  0  0  0  0
  -30.1566  -24.7880   17.9904 O   0  0  0  0  0  0
  -31.4627  -12.3475   19.1486 H   0  0  0  0  0  0
  -30.2852  -11.2775   19.8422 H   0  0  0  0  0  0
  -29.7369  -11.7549   17.4302 H   0  0  0  0  0  0
  -29.6641  -13.4616   17.7706 H   0  0  0  0  0  0
  -27.8349  -11.2855   18.8457 H   0  0  0  0  0  0
  -27.3833  -12.5831   17.7742 H   0  0  0  0  0  0
  -27.7047  -14.2522   19.5425 H   0  0  0  0  0  0
  -28.6385  -11.9601   21.3367 H   0  0  0  0  0  0
  -28.4241  -13.5932   21.8632 H   0  0  0  0  0  0
  -25.2699   -9.5693   22.4724 H   0  0  0  0  0  0
  -23.9943   -7.4648   22.7450 H   0  0  0  0  0  0
  -21.0751   -8.8738   19.8955 H   0  0  0  0  0  0
  -22.3590  -10.9652   19.6152 H   0  0  0  0  0  0
  -21.1960   -7.6102   23.9706 H   0  0  0  0  0  0
  -21.1524   -6.0502   25.9106 H   0  0  0  0  0  0
  -22.0585   -2.7565   23.2833 H   0  0  0  0  0  0
  -22.4055  -11.9943   22.4718 H   0  0  0  0  0  0
  -21.1104  -13.1476   22.2745 H   0  0  0  0  0  0
  -24.7294  -15.8740   20.5940 H   0  0  0  0  0  0
  -26.3643  -15.5972   20.2737 H   0  0  0  0  0  0
  -26.7076  -32.5628   23.1205 H   0  0  0  0  0  0
  -25.0058  -33.9827   25.0567 H   0  0  0  0  0  0
  -22.6806  -31.3033   21.4164 H   0  0  0  0  0  0
  -23.3764  -35.9631   23.3300 H   0  0  0  0  0  0
  -24.3615  -36.8921   22.2047 H   0  0  0  0  0  0
  -23.7213  -37.6522   23.6640 H   0  0  0  0  0  0
  -25.9811  -31.6202   20.5592 H   0  0  0  0  0  0
  -26.8151  -30.9554   21.9297 H   0  0  0  0  0  0
  -28.0933  -29.1794   21.1521 H   0  0  0  0  0  0
  -26.1059  -25.9702   19.0703 H   0  0  0  0  0  0
  -23.9889  -27.2655   19.0736 H   0  0  0  0  0  0
  -23.6737  -30.5768   19.4005 H   0  0  0  0  0  0
  -22.7282  -29.2065   19.9028 H   0  0  0  0  0  0
  -25.1247  -36.2016   25.0854 H   0  0  0  0  0  0
  -20.9903  -28.3114   24.1497 H   0  0  0  0  0  0
  -20.5716  -26.2207   23.3494 H   0  0  0  0  0  0
  -21.6609  -26.7501   22.1083 H   0  0  0  0  0  0
  -19.6846  -25.6340   21.1148 H   0  0  0  0  0  0
  -19.6551  -27.3275   20.6754 H   0  0  0  0  0  0
  -17.4117  -26.6584   21.4139 H   0  0  0  0  0  0
  -18.0391  -26.0041   22.9099 H   0  0  0  0  0  0
  -19.7899  -30.7241   24.2292 H   0  0  0  0  0  0
  -17.4987  -31.6256   24.5133 H   0  0  0  0  0  0
  -15.5324  -30.2972   23.7634 H   0  0  0  0  0  0
  -15.8650  -28.0795   22.7086 H   0  0  0  0  0  0
  -24.5894  -30.7071   25.7815 H   0  0  0  0  0  0
  -24.9086  -32.2756   26.5136 H   0  0  0  0  0  0
  -25.8201  -30.8613   27.0136 H   0  0  0  0  0  0
  -26.2657  -29.6787   24.1193 H   0  0  0  0  0  0
  -27.4360  -29.7311   25.4196 H   0  0  0  0  0  0
  -27.8341  -30.4444   23.8736 H   0  0  0  0  0  0
  -27.2867  -33.3564   26.1979 H   0  0  0  0  0  0
  -28.3862  -32.6747   25.0084 H   0  0  0  0  0  0
  -28.0883  -31.8320   26.5199 H   0  0  0  0  0  0
  -28.2605  -38.0087   24.7595 H   0  0  0  0  0  0
  -28.1091  -36.2651   24.6225 H   0  0  0  0  0  0
  -27.2342  -37.1331   25.8889 H   0  0  0  0  0  0
  -20.9315  -29.8733   21.7036 H   0  0  0  0  0  0
  -26.0208  -38.2891   24.1457 H   0  0  0  0  0  0
  -32.4503  -20.8348   23.5669 H   0  0  0  0  0  0
  -32.2522  -18.4344   24.2285 H   0  0  0  0  0  0
  -31.9835  -22.6525   21.9751 H   0  0  0  0  0  0
  -31.4589  -16.1429   23.7539 H   0  0  0  0  0  0
  -30.0804  -19.8306   19.3164 H   0  0  0  0  0  0
  -29.9927  -17.4481   19.9120 H   0  0  0  0  0  0
  -29.6406  -22.2970   19.1174 H   0  0  0  0  0  0
  -31.3274  -22.3288   18.6545 H   0  0  0  0  0  0
  -31.6397  -26.7105   19.3294 H   0  0  0  0  0  0
  -30.9384  -26.1950   20.8380 H   0  0  0  0  0  0
  -29.4417  -27.5282   18.5081 H   0  0  0  0  0  0
  -29.8060  -28.2138   20.0826 H   0  0  0  0  0  0
  -29.4638  -14.9603   22.0962 H   0  0  0  0  0  0
  -31.0153  -24.0092   20.9144 H   0  0  0  0  0  0
  1 25  1  0  0  0
  1 30  2  0  0  0
  1 85  1  0  0  0
  2  3  1  0  0  0
  2 25  1  0  0  0
  2 88  1  0  0  0
  2 89  1  0  0  0
  3  4  1  0  0  0
  3 90  1  0  0  0
  3 91  1  0  0  0
  4  5  1  0  0  0
  4 92  1  0  0  0
  4 93  1  0  0  0
  5  6  1  0  0  0
  5 26  1  0  0  0
  5 94  1  0  0  0
  6 25  1  0  0  0
  6 95  1  0  0  0
  6 96  1  0  0  0
  7  8  2  0  0  0
  7 26  1  0  0  0
  7 29  1  0  0  0
  8  9  1  0  0  0
  8 22  1  0  0  0
  9 10  1  0  0  0
  9 27  2  0  0  0
 10 11  2  0  0  0
 10 15  1  0  0  0
 11 12  1  0  0  0
 11 97  1  0  0  0
 12 13  2  0  0  0
 12 98  1  0  0  0
 13 14  1  0  0  0
 13 31  1  0  0  0
 14 15  2  0  0  0
 14 99  1  0  0  0
 15100  1  0  0  0
 16 17  2  0  0  0
 16 21  1  0  0  0
 16 31  1  0  0  0
 17 18  1  0  0  0
 17101  1  0  0  0
 18 19  2  0  0  0
 18102  1  0  0  0
 19 20  1  0  0  0
 19 24  1  0  0  0
 20 21  2  0  0  0
 20103  1  0  0  0
 21 23  1  0  0  0
 22 28  1  0  0  0
 22 32  2  0  0  0
 26 27  1  0  0  0
 28104  1  0  0  0
 28105  1  0  0  0
 29106  1  0  0  0
 29107  1  0  0  0
 33 34  1  0  0  0
 33 66  1  0  0  0
 33 70  2  0  0  0
 34 36  1  0  0  0
 34 59  1  0  0  0
 34108  1  0  0  0
 35 44  2  0  0  0
 35 45  1  0  0  0
 35 68  1  0  0  0
 36 56  1  0  0  0
 36109  1  0  0  0
 37 39  1  0  0  0
 37 47  1  0  0  0
 37 66  1  0  0  0
 37110  1  0  0  0
 38 43  2  0  0  0
 38 46  1  0  0  0
 38 47  1  0  0  0
 39 64  1  0  0  0
 39 67  2  0  0  0
 40 52  1  0  0  0
 40 53  2  0  0  0
 40 58  1  0  0  0
 41111  1  0  0  0
 41112  1  0  0  0
 41113  1  0  0  0
 41 48  1  0  0  0
 42 43  1  0  0  0
 42 66  1  0  0  0
 42114  1  0  0  0
 42115  1  0  0  0
 43 44  1  0  0  0
 44116  1  0  0  0
 45 46  2  0  0  0
 45117  1  0  0  0
 46118  1  0  0  0
 47119  1  0  0  0
 47120  1  0  0  0
 48 56  1  0  0  0
 48 65  1  0  0  0
 48121  1  0  0  0
 49 50  1  0  0  0
 49 53  1  0  0  0
 49 64  1  0  0  0
 49122  1  0  0  0
 50 51  1  0  0  0
 50123  1  0  0  0
 50124  1  0  0  0
 51 52  1  0  0  0
 51125  1  0  0  0
 51126  1  0  0  0
 52127  1  0  0  0
 52128  1  0  0  0
 53 54  1  0  0  0
 54 55  2  0  0  0
 54129  1  0  0  0
 55 57  1  0  0  0
 55130  1  0  0  0
 56 69  2  0  0  0
 57 58  2  0  0  0
 57131  1  0  0  0
 58132  1  0  0  0
 59 60  1  0  0  0
 59 61  1  0  0  0
 59 62  1  0  0  0
 60133  1  0  0  0
 60134  1  0  0  0
 60135  1  0  0  0
 61136  1  0  0  0
 61137  1  0  0  0
 61138  1  0  0  0
 62139  1  0  0  0
 62140  1  0  0  0
 62141  1  0  0  0
 63 65  1  0  0  0
 63142  1  0  0  0
 63143  1  0  0  0
 63144  1  0  0  0
 64145  1  0  0  0
 65146  1  0  0  0
 68 84  1  0  0  0
 71 73  2  0  0  0
 71 77  1  0  0  0
 71147  1  0  0  0
 72 74  1  0  0  0
 72 77  2  0  0  0
 72148  1  0  0  0
 73 79  1  0  0  0
 73149  1  0  0  0
 74 80  2  0  0  0
 74150  1  0  0  0
 75 78  1  0  0  0
 75 79  2  0  0  0
 75151  1  0  0  0
 76 78  2  0  0  0
 76 80  1  0  0  0
 76152  1  0  0  0
 77 78  1  0  0  0
 79 82  1  0  0  0
 80 85  1  0  0  0
 81 83  1  0  0  0
 81 86  1  0  0  0
 81 87  2  0  0  0
 82 86  1  0  0  0
 82153  1  0  0  0
 82154  1  0  0  0
 83 84  1  0  0  0
 83155  1  0  0  0
 83156  1  0  0  0
 84157  1  0  0  0
 84158  1  0  0  0
 85159  1  0  0  0
 86160  1  0  0  0
M  ISO  4   1 100  68 101  84 101  85 100
M  END
> <chiral flag>
0

> <version>
0

> <s_m_source_file>
/data/baiqing/PycharmProjects/Reinvent-master-3.2/result/LINK_invent/BTK/process_docking_weight1_custom_product_contain_oxygen_bond_distance_aromatic_linkinvent_7_9_3/rearranged_h_0060.sdf

> <i_m_source_file_index>
12

> <r_mmod_Potential_Energy-OPLS-2005>
-135.228866577148

> <r_mmod_Stretch_Energy-OPLS-2005>
36.1736946105957

> <r_mmod_Bend_Energy-OPLS-2005>
92.1480026245117

> <r_mmod_Torsional_Energy-OPLS-2005>
233.91340637207

> <r_mmod_Improper_Torsional_Energy-OPLS-2005>
2.14425134658813

> <r_mmod_Van_der_Waal_Energy-OPLS-2005>
166.669296264648

> <r_mmod_Electrostatic_Energy-OPLS-2005>
-429.059112548828

> <r_mmod_Solvation_Energy-OPLS-2005>
-245.965606689453

> <b_mmod_Minimization_Converged-OPLS-2005>
0

> <r_mmod_RMS_Derivative-OPLS-2005>
6.80708885192871

$$$$
12
                    3D
 Structure written by MMmdl.
159168  0  0  1  0            999 V2000
  -31.0314  -14.4273   20.2848 C   0  0  0  0  0  0
  -30.4269  -12.2796   19.4563 C   0  0  0  0  0  0
  -29.5017  -12.6123   18.2437 C   0  0  0  0  0  0
  -28.1291  -12.2231   18.7432 C   0  0  0  0  0  0
  -27.7294  -13.1917   19.8848 C   0  0  2  0  0  0
  -28.8338  -13.2283   21.0325 C   0  0  0  0  0  0
  -25.3057  -13.7863   20.5450 C   0  0  0  0  0  0
  -24.2158  -13.0478   20.8967 C   0  0  0  0  0  0
  -24.6581  -11.6896   20.8490 C   0  0  0  0  0  0
  -23.9070  -10.4587   21.0225 C   0  0  0  0  0  0
  -24.3684   -9.4779   21.9153 C   0  0  0  0  0  0
  -23.6594   -8.2746   22.0723 C   0  0  0  0  0  0
  -22.4632   -8.0612   21.3498 C   0  0  0  0  0  0
  -22.0047   -9.0556   20.4653 C   0  0  0  0  0  0
  -22.7160  -10.2490   20.3000 C   0  0  0  0  0  0
  -21.7145   -6.1157   22.5232 C   0  0  0  0  0  0
  -21.4175   -6.6022   23.8136 C   0  0  0  0  0  0
  -21.3499   -5.7026   24.8993 C   0  0  0  0  0  0
  -21.5979   -4.3280   24.6933 C   0  0  0  0  0  0
  -21.8929   -3.8499   23.4006 C   0  0  0  0  0  0
  -21.9400   -4.7417   22.3222 C   0  0  0  0  0  0
  -22.7987  -13.5311   21.1619 C   0  0  0  0  0  0
  -22.1864   -4.2663   21.0728 F   0  0  0  0  0  0
  -21.5430   -3.4695   25.7367 F   0  0  0  0  0  0
  -30.2508  -13.3038   20.5318 N   0  0  0  0  0  0
  -26.3551  -12.9098   20.3442 N   0  0  0  0  0  0
  -25.9678  -11.6333   20.5839 N   0  0  0  0  0  0
  -22.0771  -12.8539   22.0403 N   0  0  0  0  0  0
  -25.4816  -15.1408   20.3151 N   0  0  0  0  0  0
  -31.3999  -14.5980   19.1324 O   0  0  0  0  0  0
  -21.6905   -6.9298   21.4248 O   0  0  0  0  0  0
  -22.3766  -14.5823   20.6727 O   0  0  0  0  0  0
  -24.6076  -31.8723   23.2123 C   0  0  0  0  0  0
  -25.8951  -32.4870   23.8513 C   0  0  1  0  0  0
  -27.2873  -27.4570   20.1410 C   0  0  0  0  0  0
  -25.5790  -33.8668   24.2438 N   0  0  0  0  0  0
  -23.4019  -30.4894   21.5488 C   0  0  2  0  0  0
  -24.8731  -28.9602   20.1143 C   0  0  0  0  0  0
  -22.7416  -29.4707   22.4996 C   0  0  0  0  0  0
  -18.0272  -28.1382   22.8507 C   0  0  0  0  0  0
  -24.1457  -36.7271   23.2672 C   0  0  0  0  0  0
  -25.9295  -30.8487   21.3664 C   0  0  0  0  0  0
  -26.0143  -29.4790   20.7155 C   0  0  0  0  0  0
  -27.2165  -28.7296   20.7326 C   0  0  0  0  0  0
  -26.1208  -26.9333   19.5454 C   0  0  0  0  0  0
  -24.9236  -27.6770   19.5174 C   0  0  0  0  0  0
  -23.6128  -29.8029   20.1613 C   0  0  0  0  0  0
  -25.4068  -36.3126   24.0399 C   0  0  1  0  0  0
  -20.5874  -28.3644   23.1312 C   0  0  2  0  0  0
  -20.6746  -26.9374   22.5416 C   0  0  0  0  0  0
  -19.5728  -26.6367   21.5217 C   0  0  0  0  0  0
  -18.1917  -26.7916   22.1634 C   0  0  0  0  0  0
  -19.1534  -28.8834   23.2908 C   0  0  0  0  0  0
  -18.9459  -30.1440   23.8910 C   0  0  0  0  0  0
  -17.6460  -30.6577   24.0558 C   0  0  0  0  0  0
  -25.8992  -34.9484   23.5229 C   0  0  0  0  0  0
  -16.5350  -29.9077   23.6341 C   0  0  0  0  0  0
  -16.7260  -28.6507   23.0357 C   0  0  0  0  0  0
  -26.4416  -31.6645   25.0823 C   0  0  0  0  0  0
  -25.3722  -31.3660   26.1599 C   0  0  0  0  0  0
  -27.0271  -30.3098   24.6185 C   0  0  0  0  0  0
  -27.6005  -32.4400   25.7480 C   0  0  0  0  0  0
  -27.5576  -37.1785   24.8481 C   0  0  0  0  0  0
  -21.4160  -29.3020   22.3674 N   0  0  0  0  0  0
  -26.4278  -37.3781   23.9453 N   0  0  0  0  0  0
  -24.6597  -31.0854   22.0979 N   0  0  0  0  0  0
  -23.4182  -28.8272   23.3067 O   0  0  0  0  0  0
  -28.5154  -26.8124   20.1794 O   0  0  0  0  0  0
  -26.5565  -34.8923   22.4793 O   0  0  0  0  0  0
  -23.5252  -32.1430   23.7534 O   0  0  0  0  0  0
  -31.7642  -18.7245   21.7418 C   0  0  0  0  0  0
  -31.8878  -18.4783   19.3496 C   0  0  0  0  0  0
  -32.1168  -17.3904   21.9831 C   0  0  0  0  0  0
  -32.2017  -17.1147   19.5863 C   0  0  0  0  0  0
  -31.4770  -19.2514   20.4533 C   0  0  0  0  0  0
  -32.1276  -16.5080   20.9142 C   0  0  0  0  0  0
  -29.5897  -20.6635   20.9820 C   0  0  0  0  0  0
  -30.5185  -22.8752   19.3364 C   0  0  0  0  0  0
  -28.8372  -21.9801   20.8551 C   0  0  0  0  0  0
  -31.1859  -21.4751   19.2997 C   0  0  0  0  0  0
  -28.8967  -24.4204   20.5913 C   0  0  0  0  0  0
  -28.8145  -25.5641   19.5430 C   0  0  0  0  0  0
  -30.7640  -20.4850   20.3071 N   0  0  0  0  0  0
  -29.5011  -23.1127   20.2136 N   0  0  0  0  0  0
  -31.7756  -15.1117   21.2071 N   0  0  0  0  0  0
  -29.0807  -19.8151   21.7040 O   0  0  0  0  0  0
  -30.9397  -23.7229   18.5508 O   0  0  0  0  0  0
  -31.4642  -12.1971   19.1101 H   0  0  0  0  0  0
  -30.1756  -11.3007   19.8854 H   0  0  0  0  0  0
  -29.8494  -12.1199   17.3252 H   0  0  0  0  0  0
  -29.3844  -13.6906   17.9422 H   0  0  0  0  0  0
  -28.1455  -11.1752   19.0911 H   0  0  0  0  0  0
  -27.3931  -12.2705   17.9620 H   0  0  0  0  0  0
  -27.6747  -14.1426   19.3539 H   0  0  0  0  0  0
  -28.6954  -12.3022   21.5865 H   0  0  0  0  0  0
  -28.6235  -13.9846   21.8047 H   0  0  0  0  0  0
  -25.2882   -9.6690   22.4510 H   0  0  0  0  0  0
  -24.0526   -7.5353   22.7403 H   0  0  0  0  0  0
  -21.1037   -8.9156   19.8953 H   0  0  0  0  0  0
  -22.3737  -11.0045   19.6035 H   0  0  0  0  0  0
  -21.2311   -7.6551   23.9767 H   0  0  0  0  0  0
  -21.0992   -6.0617   25.8824 H   0  0  0  0  0  0
  -22.0768   -2.8009   23.2224 H   0  0  0  0  0  0
  -22.4208  -12.0180   22.4879 H   0  0  0  0  0  0
  -21.1158  -13.1306   22.2211 H   0  0  0  0  0  0
  -24.7048  -15.7651   20.3975 H   0  0  0  0  0  0
  -26.3603  -15.6088   20.1221 H   0  0  0  0  0  0
  -26.7064  -32.5655   23.1363 H   0  0  0  0  0  0
  -24.9957  -33.9850   25.0566 H   0  0  0  0  0  0
  -22.6918  -31.3082   21.4007 H   0  0  0  0  0  0
  -23.3761  -35.9566   23.3345 H   0  0  0  0  0  0
  -24.3574  -36.8833   22.2092 H   0  0  0  0  0  0
  -23.7154  -37.6462   23.6645 H   0  0  0  0  0  0
  -26.0461  -31.6298   20.6104 H   0  0  0  0  0  0
  -26.8043  -30.9039   21.9992 H   0  0  0  0  0  0
  -28.0947  -29.1443   21.2122 H   0  0  0  0  0  0
  -26.1289  -25.9416   19.1208 H   0  0  0  0  0  0
  -24.0482  -27.2551   19.0524 H   0  0  0  0  0  0
  -23.6749  -30.5725   19.3855 H   0  0  0  0  0  0
  -22.7479  -29.1926   19.8987 H   0  0  0  0  0  0
  -25.1248  -36.2053   25.0900 H   0  0  0  0  0  0
  -21.0011  -28.3235   24.1401 H   0  0  0  0  0  0
  -20.5633  -26.2276   23.3625 H   0  0  0  0  0  0
  -21.6633  -26.7385   22.1235 H   0  0  0  0  0  0
  -19.6859  -25.6287   21.1246 H   0  0  0  0  0  0
  -19.6659  -27.3207   20.6781 H   0  0  0  0  0  0
  -17.4180  -26.6702   21.4036 H   0  0  0  0  0  0
  -18.0263  -26.0056   22.9036 H   0  0  0  0  0  0
  -19.7929  -30.7256   24.2290 H   0  0  0  0  0  0
  -17.4998  -31.6261   24.5157 H   0  0  0  0  0  0
  -15.5354  -30.2970   23.7613 H   0  0  0  0  0  0
  -15.8674  -28.0798   22.7055 H   0  0  0  0  0  0
  -24.5867  -30.7048   25.7933 H   0  0  0  0  0  0
  -24.8932  -32.2772   26.5220 H   0  0  0  0  0  0
  -25.8123  -30.8720   27.0283 H   0  0  0  0  0  0
  -26.2824  -29.6828   24.1286 H   0  0  0  0  0  0
  -27.4108  -29.7379   25.4658 H   0  0  0  0  0  0
  -27.8641  -30.4449   23.9319 H   0  0  0  0  0  0
  -27.2640  -33.3681   26.2143 H   0  0  0  0  0  0
  -28.3690  -32.7058   25.0187 H   0  0  0  0  0  0
  -28.0872  -31.8540   26.5302 H   0  0  0  0  0  0
  -28.2612  -38.0066   24.7554 H   0  0  0  0  0  0
  -28.1072  -36.2621   24.6291 H   0  0  0  0  0  0
  -27.2336  -37.1403   25.8891 H   0  0  0  0  0  0
  -20.9308  -29.8667   21.6861 H   0  0  0  0  0  0
  -26.0209  -38.2884   24.1412 H   0  0  0  0  0  0
  -31.5876  -19.3546   22.5899 H   0  0  0  0  0  0
  -31.8401  -18.8856   18.3514 H   0  0  0  0  0  0
  -32.1538  -17.0212   23.0097 H   0  0  0  0  0  0
  -32.3662  -16.5606   18.6856 H   0  0  0  0  0  0
  -28.4365  -22.2019   21.8687 H   0  0  0  0  0  0
  -27.9892  -21.7278   20.2065 H   0  0  0  0  0  0
  -32.2592  -21.6331   19.4497 H   0  0  0  0  0  0
  -31.0889  -21.0433   18.2929 H   0  0  0  0  0  0
  -27.8641  -24.2418   20.8770 H   0  0  0  0  0  0
  -29.3744  -24.7962   21.5086 H   0  0  0  0  0  0
  -29.8302  -25.7258   19.1914 H   0  0  0  0  0  0
  -28.1799  -25.3338   18.6786 H   0  0  0  0  0  0
  -32.0538  -14.7289   22.1421 H   0  0  0  0  0  0
  1 25  1  0  0  0
  1 30  2  0  0  0
  1 85  1  0  0  0
  2  3  1  0  0  0
  2 25  1  0  0  0
  2 88  1  0  0  0
  2 89  1  0  0  0
  3  4  1  0  0  0
  3 90  1  0  0  0
  3 91  1  0  0  0
  4  5  1  0  0  0
  4 92  1  0  0  0
  4 93  1  0  0  0
  5  6  1  0  0  0
  5 26  1  0  0  0
  5 94  1  0  0  0
  6 25  1  0  0  0
  6 95  1  0  0  0
  6 96  1  0  0  0
  7  8  2  0  0  0
  7 26  1  0  0  0
  7 29  1  0  0  0
  8  9  1  0  0  0
  8 22  1  0  0  0
  9 10  1  0  0  0
  9 27  2  0  0  0
 10 11  2  0  0  0
 10 15  1  0  0  0
 11 12  1  0  0  0
 11 97  1  0  0  0
 12 13  2  0  0  0
 12 98  1  0  0  0
 13 14  1  0  0  0
 13 31  1  0  0  0
 14 15  2  0  0  0
 14 99  1  0  0  0
 15100  1  0  0  0
 16 17  2  0  0  0
 16 21  1  0  0  0
 16 31  1  0  0  0
 17 18  1  0  0  0
 17101  1  0  0  0
 18 19  2  0  0  0
 18102  1  0  0  0
 19 20  1  0  0  0
 19 24  1  0  0  0
 20 21  2  0  0  0
 20103  1  0  0  0
 21 23  1  0  0  0
 22 28  1  0  0  0
 22 32  2  0  0  0
 26 27  1  0  0  0
 28104  1  0  0  0
 28105  1  0  0  0
 29106  1  0  0  0
 29107  1  0  0  0
 33 34  1  0  0  0
 33 66  1  0  0  0
 33 70  2  0  0  0
 34 36  1  0  0  0
 34 59  1  0  0  0
 34108  1  0  0  0
 35 44  2  0  0  0
 35 45  1  0  0  0
 35 68  1  0  0  0
 36 56  1  0  0  0
 36109  1  0  0  0
 37 39  1  0  0  0
 37 47  1  0  0  0
 37 66  1  0  0  0
 37110  1  0  0  0
 38 43  2  0  0  0
 38 46  1  0  0  0
 38 47  1  0  0  0
 39 64  1  0  0  0
 39 67  2  0  0  0
 40 52  1  0  0  0
 40 53  2  0  0  0
 40 58  1  0  0  0
 41111  1  0  0  0
 41112  1  0  0  0
 41113  1  0  0  0
 41 48  1  0  0  0
 42 43  1  0  0  0
 42 66  1  0  0  0
 42114  1  0  0  0
 42115  1  0  0  0
 43 44  1  0  0  0
 44116  1  0  0  0
 45 46  2  0  0  0
 45117  1  0  0  0
 46118  1  0  0  0
 47119  1  0  0  0
 47120  1  0  0  0
 48 56  1  0  0  0
 48 65  1  0  0  0
 48121  1  0  0  0
 49 50  1  0  0  0
 49 53  1  0  0  0
 49 64  1  0  0  0
 49122  1  0  0  0
 50 51  1  0  0  0
 50123  1  0  0  0
 50124  1  0  0  0
 51 52  1  0  0  0
 51125  1  0  0  0
 51126  1  0  0  0
 52127  1  0  0  0
 52128  1  0  0  0
 53 54  1  0  0  0
 54 55  2  0  0  0
 54129  1  0  0  0
 55 57  1  0  0  0
 55130  1  0  0  0
 56 69  2  0  0  0
 57 58  2  0  0  0
 57131  1  0  0  0
 58132  1  0  0  0
 59 60  1  0  0  0
 59 61  1  0  0  0
 59 62  1  0  0  0
 60133  1  0  0  0
 60134  1  0  0  0
 60135  1  0  0  0
 61136  1  0  0  0
 61137  1  0  0  0
 61138  1  0  0  0
 62139  1  0  0  0
 62140  1  0  0  0
 62141  1  0  0  0
 63 65  1  0  0  0
 63142  1  0  0  0
 63143  1  0  0  0
 63144  1  0  0  0
 64145  1  0  0  0
 65146  1  0  0  0
 68 82  1  0  0  0
 71 73  2  0  0  0
 71 75  1  0  0  0
 71147  1  0  0  0
 72 74  1  0  0  0
 72 75  2  0  0  0
 72148  1  0  0  0
 73 76  1  0  0  0
 73149  1  0  0  0
 74 76  2  0  0  0
 74150  1  0  0  0
 75 83  1  0  0  0
 76 85  1  0  0  0
 77 79  1  0  0  0
 77 83  1  0  0  0
 77 86  2  0  0  0
 78 80  1  0  0  0
 78 84  1  0  0  0
 78 87  2  0  0  0
 79 84  1  0  0  0
 79151  1  0  0  0
 79152  1  0  0  0
 80 83  1  0  0  0
 80153  1  0  0  0
 80154  1  0  0  0
 81 82  1  0  0  0
 81 84  1  0  0  0
 81155  1  0  0  0
 81156  1  0  0  0
 82157  1  0  0  0
 82158  1  0  0  0
 85159  1  0  0  0
M  ISO  4   1 100  68 101  82 101  85 100
M  END
> <chiral flag>
0

> <version>
0

> <s_m_source_file>
/data/baiqing/PycharmProjects/Reinvent-master-3.2/result/LINK_invent/BTK/process_docking_weight1_custom_product_contain_oxygen_bond_distance_aromatic_linkinvent_7_9_3/rearranged_h_0060.sdf

> <i_m_source_file_index>
13

> <r_mmod_Potential_Energy-OPLS-2005>
380.601745605469

> <r_mmod_Stretch_Energy-OPLS-2005>
86.988395690918

> <r_mmod_Bend_Energy-OPLS-2005>
230.262542724609

> <r_mmod_Torsional_Energy-OPLS-2005>
319.596618652344

> <r_mmod_Improper_Torsional_Energy-OPLS-2005>
21.582498550415

> <r_mmod_Van_der_Waal_Energy-OPLS-2005>
227.100814819336

> <r_mmod_Electrostatic_Energy-OPLS-2005>
-421.53466796875

> <r_mmod_Solvation_Energy-OPLS-2005>
-248.611877441406

> <b_mmod_Minimization_Converged-OPLS-2005>
0

> <r_mmod_RMS_Derivative-OPLS-2005>
34.5432357788086

$$$$
13
                    3D
 Structure written by MMmdl.
159168  0  0  1  0            999 V2000
  -30.6205  -14.7136   20.4347 C   0  0  0  0  0  0
  -30.4306  -12.4303   19.4730 C   0  0  0  0  0  0
  -29.5110  -12.5048   18.2341 C   0  0  0  0  0  0
  -28.0358  -12.3378   18.6454 C   0  0  0  0  0  0
  -27.6441  -13.2325   19.8506 C   0  0  2  0  0  0
  -28.6876  -13.1537   20.9867 C   0  0  0  0  0  0
  -25.2513  -13.8201   20.5689 C   0  0  0  0  0  0
  -24.1797  -13.0448   20.9188 C   0  0  0  0  0  0
  -24.6394  -11.6926   20.8738 C   0  0  0  0  0  0
  -23.9072  -10.4299   21.0397 C   0  0  0  0  0  0
  -24.3614   -9.4212   21.9179 C   0  0  0  0  0  0
  -23.6277   -8.2255   22.0765 C   0  0  0  0  0  0
  -22.4256   -8.0298   21.3556 C   0  0  0  0  0  0
  -21.9894   -9.0277   20.4657 C   0  0  0  0  0  0
  -22.7238  -10.2146   20.3054 C   0  0  0  0  0  0
  -21.6853   -6.0732   22.5270 C   0  0  0  0  0  0
  -21.4018   -6.5630   23.8205 C   0  0  0  0  0  0
  -21.3664   -5.6781   24.9169 C   0  0  0  0  0  0
  -21.6041   -4.3047   24.7210 C   0  0  0  0  0  0
  -21.8822   -3.8141   23.4334 C   0  0  0  0  0  0
  -21.9194   -4.6961   22.3392 C   0  0  0  0  0  0
  -22.7816  -13.5243   21.1831 C   0  0  0  0  0  0
  -22.1660   -4.2149   21.0970 F   0  0  0  0  0  0
  -21.5631   -3.4534   25.7725 F   0  0  0  0  0  0
  -29.9965  -13.4897   20.4120 N   0  0  0  0  0  0
  -26.2947  -12.9415   20.3268 N   0  0  0  0  0  0
  -25.9326  -11.6557   20.5719 N   0  0  0  0  0  0
  -22.0436  -12.8273   22.0394 N   0  0  0  0  0  0
  -25.4194  -15.1928   20.4146 N   0  0  0  0  0  0
  -31.8076  -14.8015   20.1015 O   0  0  0  0  0  0
  -21.6634   -6.8885   21.4234 O   0  0  0  0  0  0
  -22.3510  -14.5544   20.6663 O   0  0  0  0  0  0
  -24.6292  -31.8574   23.1984 C   0  0  0  0  0  0
  -25.9112  -32.4770   23.8323 C   0  0  1  0  0  0
  -27.2048  -27.2681   20.1262 C   0  0  0  0  0  0
  -25.5899  -33.8572   24.2239 N   0  0  0  0  0  0
  -23.4248  -30.4828   21.5441 C   0  0  2  0  0  0
  -24.8660  -28.9350   20.1101 C   0  0  0  0  0  0
  -22.7499  -29.4621   22.4924 C   0  0  0  0  0  0
  -18.0294  -28.1429   22.8459 C   0  0  0  0  0  0
  -24.1487  -36.7303   23.2631 C   0  0  0  0  0  0
  -25.9705  -30.7742   21.3739 C   0  0  0  0  0  0
  -26.0403  -29.3974   20.7174 C   0  0  0  0  0  0
  -27.2134  -28.5769   20.7140 C   0  0  0  0  0  0
  -26.0043  -26.8758   19.4883 C   0  0  0  0  0  0
  -24.8527  -27.6827   19.4830 C   0  0  0  0  0  0
  -23.6387  -29.8218   20.1586 C   0  0  0  0  0  0
  -25.4113  -36.3087   24.0322 C   0  0  1  0  0  0
  -20.5893  -28.3727   23.1270 C   0  0  2  0  0  0
  -20.6800  -26.9451   22.5414 C   0  0  0  0  0  0
  -19.5769  -26.6411   21.5227 C   0  0  0  0  0  0
  -18.1947  -26.7961   22.1624 C   0  0  0  0  0  0
  -19.1546  -28.8896   23.2857 C   0  0  0  0  0  0
  -18.9476  -30.1502   23.8870 C   0  0  0  0  0  0
  -17.6476  -30.6619   24.0579 C   0  0  0  0  0  0
  -25.9059  -34.9456   23.5094 C   0  0  0  0  0  0
  -16.5365  -29.9123   23.6342 C   0  0  0  0  0  0
  -16.7283  -28.6558   23.0319 C   0  0  0  0  0  0
  -26.4465  -31.6585   25.0715 C   0  0  0  0  0  0
  -25.3681  -31.3757   26.1438 C   0  0  0  0  0  0
  -27.0268  -30.2984   24.6191 C   0  0  0  0  0  0
  -27.6016  -32.4312   25.7505 C   0  0  0  0  0  0
  -27.5584  -37.1809   24.8457 C   0  0  0  0  0  0
  -21.4208  -29.3063   22.3661 N   0  0  0  0  0  0
  -26.4284  -37.3793   23.9417 N   0  0  0  0  0  0
  -24.6951  -31.0557   22.0953 N   0  0  0  0  0  0
  -23.4213  -28.8155   23.3011 O   0  0  0  0  0  0
  -28.2928  -26.3668   20.1895 O   0  0  0  0  0  0
  -26.5663  -34.8935   22.4683 O   0  0  0  0  0  0
  -23.5450  -32.1378   23.7301 O   0  0  0  0  0  0
  -29.5540  -18.4419   20.7247 C   0  0  0  0  0  0
  -30.6761  -17.3816   18.8603 C   0  0  0  0  0  0
  -30.4503  -19.8387   18.9294 C   0  0  0  0  0  0
  -29.7459  -19.7828   20.1675 C   0  0  0  0  0  0
  -30.0444  -17.2208   20.1122 C   0  0  0  0  0  0
  -30.8687  -18.6515   18.2853 C   0  0  0  0  0  0
  -29.5217  -21.1642   22.2335 C   0  0  0  0  0  0
  -28.5925  -22.2025   20.1499 C   0  0  0  0  0  0
  -29.5941  -23.8962   21.8403 C   0  0  0  0  0  0
  -29.0526  -23.7336   20.4112 C   0  0  2  0  0  0
  -30.8428  -21.1573   18.2729 C   0  0  0  0  0  0
  -28.0047  -24.9000   20.0316 C   0  0  0  0  0  0
  -29.3241  -21.0506   20.8424 N   0  0  0  0  0  0
  -29.8612  -15.8514   20.6568 N   0  0  0  0  0  0
  -30.0572  -20.3309   22.9696 O   0  0  0  0  0  0
  -31.4937  -18.7254   17.0849 F   0  0  0  0  0  0
  -28.9119  -22.6923   23.0177 S   0  0  0  0  0  0
  -31.4723  -12.5426   19.1697 H   0  0  0  0  0  0
  -30.3674  -11.4505   19.9499 H   0  0  0  0  0  0
  -29.7868  -11.7384   17.5089 H   0  0  0  0  0  0
  -29.6445  -13.4636   17.7298 H   0  0  0  0  0  0
  -27.8805  -11.2888   18.8997 H   0  0  0  0  0  0
  -27.3830  -12.5437   17.7958 H   0  0  0  0  0  0
  -27.6431  -14.2553   19.4737 H   0  0  0  0  0  0
  -28.7089  -12.1542   21.4228 H   0  0  0  0  0  0
  -28.4292  -13.8363   21.7975 H   0  0  0  0  0  0
  -25.2762   -9.5673   22.4756 H   0  0  0  0  0  0
  -23.9982   -7.4634   22.7484 H   0  0  0  0  0  0
  -21.0825   -8.8800   19.8952 H   0  0  0  0  0  0
  -22.3706  -10.9687   19.6165 H   0  0  0  0  0  0
  -21.2016   -7.6140   23.9707 H   0  0  0  0  0  0
  -21.1481   -6.0511   25.9068 H   0  0  0  0  0  0
  -22.0596   -2.7607   23.2827 H   0  0  0  0  0  0
  -22.4028  -11.9958   22.4835 H   0  0  0  0  0  0
  -21.1060  -13.1350   22.2567 H   0  0  0  0  0  0
  -24.6491  -15.8414   20.5335 H   0  0  0  0  0  0
  -26.2640  -15.6390   20.0817 H   0  0  0  0  0  0
  -26.7189  -32.5434   23.1080 H   0  0  0  0  0  0
  -24.9952  -33.9699   25.0319 H   0  0  0  0  0  0
  -22.7209  -31.3063   21.4050 H   0  0  0  0  0  0
  -23.3753  -35.9631   23.3277 H   0  0  0  0  0  0
  -24.3578  -36.8948   22.2051 H   0  0  0  0  0  0
  -23.7244  -37.6499   23.6672 H   0  0  0  0  0  0
  -26.1022  -31.5293   20.5982 H   0  0  0  0  0  0
  -26.8510  -30.8300   22.0010 H   0  0  0  0  0  0
  -28.1109  -28.9220   21.2076 H   0  0  0  0  0  0
  -25.9138  -25.9169   19.0016 H   0  0  0  0  0  0
  -23.9527  -27.3232   19.0016 H   0  0  0  0  0  0
  -23.7619  -30.6006   19.4049 H   0  0  0  0  0  0
  -22.7557  -29.2567   19.8544 H   0  0  0  0  0  0
  -25.1295  -36.1925   25.0814 H   0  0  0  0  0  0
  -20.9973  -28.3324   24.1398 H   0  0  0  0  0  0
  -20.5741  -26.2337   23.3619 H   0  0  0  0  0  0
  -21.6671  -26.7509   22.1189 H   0  0  0  0  0  0
  -19.6940  -25.6314   21.1273 H   0  0  0  0  0  0
  -19.6714  -27.3211   20.6747 H   0  0  0  0  0  0
  -17.4213  -26.6667   21.4039 H   0  0  0  0  0  0
  -18.0355  -26.0139   22.9057 H   0  0  0  0  0  0
  -19.7959  -30.7334   24.2199 H   0  0  0  0  0  0
  -17.5044  -31.6288   24.5206 H   0  0  0  0  0  0
  -15.5372  -30.3032   23.7703 H   0  0  0  0  0  0
  -15.8672  -28.0922   22.6991 H   0  0  0  0  0  0
  -24.5864  -30.7090   25.7783 H   0  0  0  0  0  0
  -24.8862  -32.2937   26.4814 H   0  0  0  0  0  0
  -25.7989  -30.8980   27.0247 H   0  0  0  0  0  0
  -26.2825  -29.6788   24.1174 H   0  0  0  0  0  0
  -27.3876  -29.7205   25.4710 H   0  0  0  0  0  0
  -27.8750  -30.4226   23.9454 H   0  0  0  0  0  0
  -27.2603  -33.3611   26.2071 H   0  0  0  0  0  0
  -28.3841  -32.6867   25.0347 H   0  0  0  0  0  0
  -28.0655  -31.8436   26.5440 H   0  0  0  0  0  0
  -28.2585  -38.0124   24.7536 H   0  0  0  0  0  0
  -28.1099  -36.2661   24.6235 H   0  0  0  0  0  0
  -27.2312  -37.1408   25.8861 H   0  0  0  0  0  0
  -20.9398  -29.8777   21.6855 H   0  0  0  0  0  0
  -26.0156  -38.2859   24.1451 H   0  0  0  0  0  0
  -29.0338  -18.3474   21.6676 H   0  0  0  0  0  0
  -31.0302  -16.5248   18.3068 H   0  0  0  0  0  0
  -28.4997  -22.0215   19.0830 H   0  0  0  0  0  0
  -27.5598  -22.1182   20.4915 H   0  0  0  0  0  0
  -29.4148  -24.9038   22.2151 H   0  0  0  0  0  0
  -30.6767  -23.7639   21.8402 H   0  0  0  0  0  0
  -29.9061  -23.9083   19.7554 H   0  0  0  0  0  0
  -30.0386  -21.5219   17.6356 H   0  0  0  0  0  0
  -31.7242  -21.0446   17.6405 H   0  0  0  0  0  0
  -31.0941  -21.9154   19.0142 H   0  0  0  0  0  0
  -27.0933  -24.6800   20.5888 H   0  0  0  0  0  0
  -27.7594  -24.7432   18.9805 H   0  0  0  0  0  0
  -28.9753  -15.6838   21.1100 H   0  0  0  0  0  0
  1 25  1  0  0  0
  1 30  2  0  0  0
  1 84  1  0  0  0
  2  3  1  0  0  0
  2 25  1  0  0  0
  2 88  1  0  0  0
  2 89  1  0  0  0
  3  4  1  0  0  0
  3 90  1  0  0  0
  3 91  1  0  0  0
  4  5  1  0  0  0
  4 92  1  0  0  0
  4 93  1  0  0  0
  5  6  1  0  0  0
  5 26  1  0  0  0
  5 94  1  0  0  0
  6 25  1  0  0  0
  6 95  1  0  0  0
  6 96  1  0  0  0
  7  8  2  0  0  0
  7 26  1  0  0  0
  7 29  1  0  0  0
  8  9  1  0  0  0
  8 22  1  0  0  0
  9 10  1  0  0  0
  9 27  2  0  0  0
 10 11  2  0  0  0
 10 15  1  0  0  0
 11 12  1  0  0  0
 11 97  1  0  0  0
 12 13  2  0  0  0
 12 98  1  0  0  0
 13 14  1  0  0  0
 13 31  1  0  0  0
 14 15  2  0  0  0
 14 99  1  0  0  0
 15100  1  0  0  0
 16 17  2  0  0  0
 16 21  1  0  0  0
 16 31  1  0  0  0
 17 18  1  0  0  0
 17101  1  0  0  0
 18 19  2  0  0  0
 18102  1  0  0  0
 19 20  1  0  0  0
 19 24  1  0  0  0
 20 21  2  0  0  0
 20103  1  0  0  0
 21 23  1  0  0  0
 22 28  1  0  0  0
 22 32  2  0  0  0
 26 27  1  0  0  0
 28104  1  0  0  0
 28105  1  0  0  0
 29106  1  0  0  0
 29107  1  0  0  0
 33 34  1  0  0  0
 33 66  1  0  0  0
 33 70  2  0  0  0
 34 36  1  0  0  0
 34 59  1  0  0  0
 34108  1  0  0  0
 35 44  2  0  0  0
 35 45  1  0  0  0
 35 68  1  0  0  0
 36 56  1  0  0  0
 36109  1  0  0  0
 37 39  1  0  0  0
 37 47  1  0  0  0
 37 66  1  0  0  0
 37110  1  0  0  0
 38 43  2  0  0  0
 38 46  1  0  0  0
 38 47  1  0  0  0
 39 64  1  0  0  0
 39 67  2  0  0  0
 40 52  1  0  0  0
 40 53  2  0  0  0
 40 58  1  0  0  0
 41111  1  0  0  0
 41112  1  0  0  0
 41113  1  0  0  0
 41 48  1  0  0  0
 42 43  1  0  0  0
 42 66  1  0  0  0
 42114  1  0  0  0
 42115  1  0  0  0
 43 44  1  0  0  0
 44116  1  0  0  0
 45 46  2  0  0  0
 45117  1  0  0  0
 46118  1  0  0  0
 47119  1  0  0  0
 47120  1  0  0  0
 48 56  1  0  0  0
 48 65  1  0  0  0
 48121  1  0  0  0
 49 50  1  0  0  0
 49 53  1  0  0  0
 49 64  1  0  0  0
 49122  1  0  0  0
 50 51  1  0  0  0
 50123  1  0  0  0
 50124  1  0  0  0
 51 52  1  0  0  0
 51125  1  0  0  0
 51126  1  0  0  0
 52127  1  0  0  0
 52128  1  0  0  0
 53 54  1  0  0  0
 54 55  2  0  0  0
 54129  1  0  0  0
 55 57  1  0  0  0
 55130  1  0  0  0
 56 69  2  0  0  0
 57 58  2  0  0  0
 57131  1  0  0  0
 58132  1  0  0  0
 59 60  1  0  0  0
 59 61  1  0  0  0
 59 62  1  0  0  0
 60133  1  0  0  0
 60134  1  0  0  0
 60135  1  0  0  0
 61136  1  0  0  0
 61137  1  0  0  0
 61138  1  0  0  0
 62139  1  0  0  0
 62140  1  0  0  0
 62141  1  0  0  0
 63 65  1  0  0  0
 63142  1  0  0  0
 63143  1  0  0  0
 63144  1  0  0  0
 64145  1  0  0  0
 65146  1  0  0  0
 68 82  1  0  0  0
 71 74  2  0  0  0
 71 75  1  0  0  0
 71147  1  0  0  0
 72 75  2  0  0  0
 72 76  1  0  0  0
 72148  1  0  0  0
 73 74  1  0  0  0
 73 76  2  0  0  0
 73 81  1  0  0  0
 74 83  1  0  0  0
 75 84  1  0  0  0
 76 86  1  0  0  0
 77 83  1  0  0  0
 77 85  2  0  0  0
 77 87  1  0  0  0
 78 80  1  0  0  0
 78 83  1  0  0  0
 78149  1  0  0  0
 78150  1  0  0  0
 79 80  1  0  0  0
 79 87  1  0  0  0
 79151  1  0  0  0
 79152  1  0  0  0
 80 82  1  0  0  0
 80153  1  0  0  0
 81154  1  0  0  0
 81155  1  0  0  0
 81156  1  0  0  0
 82157  1  0  0  0
 82158  1  0  0  0
 84159  1  0  0  0
M  ISO  4   1 100  68 101  82 101  84 100
M  END
> <chiral flag>
0

> <version>
0

> <s_m_source_file>
/data/baiqing/PycharmProjects/Reinvent-master-3.2/result/LINK_invent/BTK/process_docking_weight1_custom_product_contain_oxygen_bond_distance_aromatic_linkinvent_7_9_3/rearranged_h_0060.sdf

> <i_m_source_file_index>
14

> <r_mmod_Potential_Energy-OPLS-2005>
246.204483032227

> <r_mmod_Stretch_Energy-OPLS-2005>
125.836090087891

> <r_mmod_Bend_Energy-OPLS-2005>
154.258148193359

> <r_mmod_Torsional_Energy-OPLS-2005>
297.4619140625

> <r_mmod_Improper_Torsional_Energy-OPLS-2005>
4.83852434158325

> <r_mmod_Van_der_Waal_Energy-OPLS-2005>
161.857009887695

> <r_mmod_Electrostatic_Energy-OPLS-2005>
-341.298004150391

> <r_mmod_Solvation_Energy-OPLS-2005>
-235.317184448242

> <b_mmod_Minimization_Converged-OPLS-2005>
0

> <r_mmod_RMS_Derivative-OPLS-2005>
2.32392358779907

$$$$
14
                    3D
 Structure written by MMmdl.
157166  0  0  1  0            999 V2000
  -30.6529  -14.7644   20.4310 C   0  0  0  0  0  0
  -30.4212  -12.4661   19.4837 C   0  0  0  0  0  0
  -29.5066  -12.5023   18.2409 C   0  0  0  0  0  0
  -28.0360  -12.3237   18.6578 C   0  0  0  0  0  0
  -27.6367  -13.2424   19.8438 C   0  0  2  0  0  0
  -28.6830  -13.2239   20.9804 C   0  0  0  0  0  0
  -25.2487  -13.8225   20.5706 C   0  0  0  0  0  0
  -24.1793  -13.0451   20.9215 C   0  0  0  0  0  0
  -24.6404  -11.6935   20.8762 C   0  0  0  0  0  0
  -23.9087  -10.4304   21.0413 C   0  0  0  0  0  0
  -24.3632   -9.4216   21.9191 C   0  0  0  0  0  0
  -23.6301   -8.2250   22.0760 C   0  0  0  0  0  0
  -22.4282   -8.0288   21.3550 C   0  0  0  0  0  0
  -21.9926   -9.0266   20.4648 C   0  0  0  0  0  0
  -22.7261  -10.2143   20.3060 C   0  0  0  0  0  0
  -21.6854   -6.0743   22.5278 C   0  0  0  0  0  0
  -21.4018   -6.5646   23.8211 C   0  0  0  0  0  0
  -21.3659   -5.6799   24.9172 C   0  0  0  0  0  0
  -21.6039   -4.3061   24.7225 C   0  0  0  0  0  0
  -21.8818   -3.8154   23.4346 C   0  0  0  0  0  0
  -21.9193   -4.6970   22.3401 C   0  0  0  0  0  0
  -22.7810  -13.5221   21.1872 C   0  0  0  0  0  0
  -22.1659   -4.2156   21.0979 F   0  0  0  0  0  0
  -21.5628   -3.4541   25.7738 F   0  0  0  0  0  0
  -29.9837  -13.5582   20.3881 N   0  0  0  0  0  0
  -26.2922  -12.9453   20.3279 N   0  0  0  0  0  0
  -25.9339  -11.6584   20.5767 N   0  0  0  0  0  0
  -22.0457  -12.8208   22.0421 N   0  0  0  0  0  0
  -25.4170  -15.1949   20.4121 N   0  0  0  0  0  0
  -31.8581  -14.7652   20.1745 O   0  0  0  0  0  0
  -21.6644   -6.8887   21.4241 O   0  0  0  0  0  0
  -22.3488  -14.5524   20.6712 O   0  0  0  0  0  0
  -24.6344  -31.8547   23.1994 C   0  0  0  0  0  0
  -25.9155  -32.4756   23.8339 C   0  0  1  0  0  0
  -27.2102  -27.2319   20.1347 C   0  0  0  0  0  0
  -25.5944  -33.8555   24.2253 N   0  0  0  0  0  0
  -23.4328  -30.4796   21.5433 C   0  0  2  0  0  0
  -24.8805  -28.9341   20.1054 C   0  0  0  0  0  0
  -22.7520  -29.4590   22.4895 C   0  0  0  0  0  0
  -18.0292  -28.1390   22.8478 C   0  0  0  0  0  0
  -24.1491  -36.7280   23.2642 C   0  0  0  0  0  0
  -25.9838  -30.7559   21.3898 C   0  0  0  0  0  0
  -26.0529  -29.3792   20.7294 C   0  0  0  0  0  0
  -27.2177  -28.5389   20.7405 C   0  0  0  0  0  0
  -26.0218  -26.8892   19.4438 C   0  0  0  0  0  0
  -24.8725  -27.6980   19.4504 C   0  0  0  0  0  0
  -23.6529  -29.8221   20.1571 C   0  0  0  0  0  0
  -25.4118  -36.3067   24.0329 C   0  0  1  0  0  0
  -20.5901  -28.3700   23.1265 C   0  0  2  0  0  0
  -20.6783  -26.9415   22.5410 C   0  0  0  0  0  0
  -19.5757  -26.6379   21.5219 C   0  0  0  0  0  0
  -18.1931  -26.7926   22.1622 C   0  0  0  0  0  0
  -19.1550  -28.8860   23.2864 C   0  0  0  0  0  0
  -18.9470  -30.1459   23.8882 C   0  0  0  0  0  0
  -17.6471  -30.6587   24.0559 C   0  0  0  0  0  0
  -25.9065  -34.9439   23.5095 C   0  0  0  0  0  0
  -16.5358  -29.9082   23.6343 C   0  0  0  0  0  0
  -16.7278  -28.6505   23.0353 C   0  0  0  0  0  0
  -26.4507  -31.6588   25.0742 C   0  0  0  0  0  0
  -25.3714  -31.3759   26.1456 C   0  0  0  0  0  0
  -27.0376  -30.2994   24.6277 C   0  0  0  0  0  0
  -27.6048  -32.4343   25.7520 C   0  0  0  0  0  0
  -27.5577  -37.1794   24.8460 C   0  0  0  0  0  0
  -21.4222  -29.3049   22.3649 N   0  0  0  0  0  0
  -26.4284  -37.3772   23.9417 N   0  0  0  0  0  0
  -24.7027  -31.0482   22.0993 N   0  0  0  0  0  0
  -23.4211  -28.8126   23.2994 O   0  0  0  0  0  0
  -28.2613  -26.2740   20.2466 O   0  0  0  0  0  0
  -26.5636  -34.8911   22.4662 O   0  0  0  0  0  0
  -23.5484  -32.1386   23.7266 O   0  0  0  0  0  0
  -29.0066  -23.1520   21.7538 C   0  0  0  0  0  0
  -29.6611  -18.6166   20.5700 C   0  0  0  0  0  0
  -31.4418  -17.5574   19.3194 C   0  0  0  0  0  0
  -28.6842  -23.5112   20.4042 C   0  0  0  0  0  0
  -31.2923  -20.0128   19.3795 C   0  0  0  0  0  0
  -30.1029  -19.9572   20.1637 C   0  0  0  0  0  0
  -30.3393  -17.3732   20.1858 C   0  0  0  0  0  0
  -31.9137  -18.8232   18.9360 C   0  0  0  0  0  0
  -29.4614  -21.8479   21.8031 C   0  0  0  0  0  0
  -28.9857  -22.3223   19.7162 C   0  0  0  0  0  0
  -31.9432  -21.3451   19.0058 C   0  0  0  0  0  0
  -27.9484  -24.8376   19.8782 C   0  0  0  0  0  0
  -29.4953  -21.2696   20.5387 N   0  0  0  0  0  0
  -29.9487  -15.9684   20.5668 N   0  0  0  0  0  0
  -29.8756  -21.1371   22.8886 O   0  0  0  0  0  0
  -28.8384  -22.0849   18.3822 O   0  0  0  0  0  0
  -33.4339  -18.8736   17.7819 Br  0  0  0  0  0  0
  -31.4642  -12.5639   19.1793 H   0  0  0  0  0  0
  -30.3496  -11.5022   19.9900 H   0  0  0  0  0  0
  -29.7940  -11.7202   17.5367 H   0  0  0  0  0  0
  -29.6291  -13.4506   17.7156 H   0  0  0  0  0  0
  -27.9037  -11.2787   18.9397 H   0  0  0  0  0  0
  -27.3753  -12.4934   17.8065 H   0  0  0  0  0  0
  -27.6183  -14.2550   19.4397 H   0  0  0  0  0  0
  -28.7204  -12.2467   21.4636 H   0  0  0  0  0  0
  -28.4179  -13.9433   21.7567 H   0  0  0  0  0  0
  -25.2773   -9.5685   22.4772 H   0  0  0  0  0  0
  -24.0003   -7.4642   22.7483 H   0  0  0  0  0  0
  -21.0859   -8.8790   19.8952 H   0  0  0  0  0  0
  -22.3724  -10.9683   19.6170 H   0  0  0  0  0  0
  -21.2013   -7.6154   23.9717 H   0  0  0  0  0  0
  -21.1478   -6.0528   25.9074 H   0  0  0  0  0  0
  -22.0598   -2.7615   23.2843 H   0  0  0  0  0  0
  -22.4075  -11.9867   22.4804 H   0  0  0  0  0  0
  -21.1073  -13.1227   22.2630 H   0  0  0  0  0  0
  -24.6485  -15.8484   20.5171 H   0  0  0  0  0  0
  -26.2650  -15.6346   20.0781 H   0  0  0  0  0  0
  -26.7231  -32.5396   23.1084 H   0  0  0  0  0  0
  -25.0089  -33.9696   25.0398 H   0  0  0  0  0  0
  -22.7305  -31.3037   21.3982 H   0  0  0  0  0  0
  -23.3761  -35.9604   23.3297 H   0  0  0  0  0  0
  -24.3589  -36.8917   22.2060 H   0  0  0  0  0  0
  -23.7234  -37.6475   23.6671 H   0  0  0  0  0  0
  -26.1333  -31.5157   20.6221 H   0  0  0  0  0  0
  -26.8581  -30.8013   22.0273 H   0  0  0  0  0  0
  -28.1020  -28.8658   21.2686 H   0  0  0  0  0  0
  -25.9271  -25.9611   18.9012 H   0  0  0  0  0  0
  -23.9818  -27.3583   18.9387 H   0  0  0  0  0  0
  -23.7800  -30.6026   19.4065 H   0  0  0  0  0  0
  -22.7700  -29.2608   19.8468 H   0  0  0  0  0  0
  -25.1295  -36.1911   25.0820 H   0  0  0  0  0  0
  -20.9993  -28.3282   24.1387 H   0  0  0  0  0  0
  -20.5703  -26.2303   23.3615 H   0  0  0  0  0  0
  -21.6644  -26.7446   22.1183 H   0  0  0  0  0  0
  -19.6932  -25.6293   21.1245 H   0  0  0  0  0  0
  -19.6702  -27.3193   20.6752 H   0  0  0  0  0  0
  -17.4204  -26.6675   21.4020 H   0  0  0  0  0  0
  -18.0323  -26.0071   22.9020 H   0  0  0  0  0  0
  -19.7950  -30.7273   24.2238 H   0  0  0  0  0  0
  -17.5028  -31.6267   24.5161 H   0  0  0  0  0  0
  -15.5359  -30.2980   23.7684 H   0  0  0  0  0  0
  -15.8673  -28.0825   22.7078 H   0  0  0  0  0  0
  -24.5885  -30.7111   25.7790 H   0  0  0  0  0  0
  -24.8905  -32.2935   26.4849 H   0  0  0  0  0  0
  -25.8015  -30.8956   27.0251 H   0  0  0  0  0  0
  -26.2985  -29.6728   24.1268 H   0  0  0  0  0  0
  -27.4006  -29.7279   25.4831 H   0  0  0  0  0  0
  -27.8882  -30.4265   23.9580 H   0  0  0  0  0  0
  -27.2639  -33.3652   26.2059 H   0  0  0  0  0  0
  -28.3870  -32.6891   25.0359 H   0  0  0  0  0  0
  -28.0689  -31.8488   26.5467 H   0  0  0  0  0  0
  -28.2577  -38.0107   24.7523 H   0  0  0  0  0  0
  -28.1089  -36.2636   24.6259 H   0  0  0  0  0  0
  -27.2295  -37.1409   25.8862 H   0  0  0  0  0  0
  -20.9401  -29.8783   21.6868 H   0  0  0  0  0  0
  -26.0164  -38.2846   24.1423 H   0  0  0  0  0  0
  -28.8820  -23.7904   22.6180 H   0  0  0  0  0  0
  -28.7870  -18.5531   21.2017 H   0  0  0  0  0  0
  -31.9813  -16.7207   18.9078 H   0  0  0  0  0  0
  -31.7418  -22.1324   19.7298 H   0  0  0  0  0  0
  -31.5956  -21.6757   18.0273 H   0  0  0  0  0  0
  -33.0289  -21.2677   18.9716 H   0  0  0  0  0  0
  -26.9300  -24.6298   20.2067 H   0  0  0  0  0  0
  -27.9379  -24.7832   18.7892 H   0  0  0  0  0  0
  -28.9985  -15.8561   20.8896 H   0  0  0  0  0  0
  -29.7727  -21.6895   23.6574 H   0  0  0  0  0  0
  -28.5448  -22.8871   17.9659 H   0  0  0  0  0  0
  1 25  1  0  0  0
  1 30  2  0  0  0
  1 84  1  0  0  0
  2  3  1  0  0  0
  2 25  1  0  0  0
  2 88  1  0  0  0
  2 89  1  0  0  0
  3  4  1  0  0  0
  3 90  1  0  0  0
  3 91  1  0  0  0
  4  5  1  0  0  0
  4 92  1  0  0  0
  4 93  1  0  0  0
  5  6  1  0  0  0
  5 26  1  0  0  0
  5 94  1  0  0  0
  6 25  1  0  0  0
  6 95  1  0  0  0
  6 96  1  0  0  0
  7  8  2  0  0  0
  7 26  1  0  0  0
  7 29  1  0  0  0
  8  9  1  0  0  0
  8 22  1  0  0  0
  9 10  1  0  0  0
  9 27  2  0  0  0
 10 11  2  0  0  0
 10 15  1  0  0  0
 11 12  1  0  0  0
 11 97  1  0  0  0
 12 13  2  0  0  0
 12 98  1  0  0  0
 13 14  1  0  0  0
 13 31  1  0  0  0
 14 15  2  0  0  0
 14 99  1  0  0  0
 15100  1  0  0  0
 16 17  2  0  0  0
 16 21  1  0  0  0
 16 31  1  0  0  0
 17 18  1  0  0  0
 17101  1  0  0  0
 18 19  2  0  0  0
 18102  1  0  0  0
 19 20  1  0  0  0
 19 24  1  0  0  0
 20 21  2  0  0  0
 20103  1  0  0  0
 21 23  1  0  0  0
 22 28  1  0  0  0
 22 32  2  0  0  0
 26 27  1  0  0  0
 28104  1  0  0  0
 28105  1  0  0  0
 29106  1  0  0  0
 29107  1  0  0  0
 33 34  1  0  0  0
 33 66  1  0  0  0
 33 70  2  0  0  0
 34 36  1  0  0  0
 34 59  1  0  0  0
 34108  1  0  0  0
 35 44  2  0  0  0
 35 45  1  0  0  0
 35 68  1  0  0  0
 36 56  1  0  0  0
 36109  1  0  0  0
 37 39  1  0  0  0
 37 47  1  0  0  0
 37 66  1  0  0  0
 37110  1  0  0  0
 38 43  2  0  0  0
 38 46  1  0  0  0
 38 47  1  0  0  0
 39 64  1  0  0  0
 39 67  2  0  0  0
 40 52  1  0  0  0
 40 53  2  0  0  0
 40 58  1  0  0  0
 41111  1  0  0  0
 41112  1  0  0  0
 41113  1  0  0  0
 41 48  1  0  0  0
 42 43  1  0  0  0
 42 66  1  0  0  0
 42114  1  0  0  0
 42115  1  0  0  0
 43 44  1  0  0  0
 44116  1  0  0  0
 45 46  2  0  0  0
 45117  1  0  0  0
 46118  1  0  0  0
 47119  1  0  0  0
 47120  1  0  0  0
 48 56  1  0  0  0
 48 65  1  0  0  0
 48121  1  0  0  0
 49 50  1  0  0  0
 49 53  1  0  0  0
 49 64  1  0  0  0
 49122  1  0  0  0
 50 51  1  0  0  0
 50123  1  0  0  0
 50124  1  0  0  0
 51 52  1  0  0  0
 51125  1  0  0  0
 51126  1  0  0  0
 52127  1  0  0  0
 52128  1  0  0  0
 53 54  1  0  0  0
 54 55  2  0  0  0
 54129  1  0  0  0
 55 57  1  0  0  0
 55130  1  0  0  0
 56 69  2  0  0  0
 57 58  2  0  0  0
 57131  1  0  0  0
 58132  1  0  0  0
 59 60  1  0  0  0
 59 61  1  0  0  0
 59 62  1  0  0  0
 60133  1  0  0  0
 60134  1  0  0  0
 60135  1  0  0  0
 61136  1  0  0  0
 61137  1  0  0  0
 61138  1  0  0  0
 62139  1  0  0  0
 62140  1  0  0  0
 62141  1  0  0  0
 63 65  1  0  0  0
 63142  1  0  0  0
 63143  1  0  0  0
 63144  1  0  0  0
 64145  1  0  0  0
 65146  1  0  0  0
 68 82  1  0  0  0
 71 74  1  0  0  0
 71 79  2  0  0  0
 71147  1  0  0  0
 72 76  2  0  0  0
 72 77  1  0  0  0
 72148  1  0  0  0
 73 77  2  0  0  0
 73 78  1  0  0  0
 73149  1  0  0  0
 74 80  2  0  0  0
 74 82  1  0  0  0
 75 76  1  0  0  0
 75 78  2  0  0  0
 75 81  1  0  0  0
 76 83  1  0  0  0
 77 84  1  0  0  0
 78 87  1  0  0  0
 79 83  1  0  0  0
 79 85  1  0  0  0
 80 83  1  0  0  0
 80 86  1  0  0  0
 81150  1  0  0  0
 81151  1  0  0  0
 81152  1  0  0  0
 82153  1  0  0  0
 82154  1  0  0  0
 84155  1  0  0  0
 85156  1  0  0  0
 86157  1  0  0  0
M  ISO  4   1 100  68 101  82 101  84 100
M  END
> <chiral flag>
0

> <version>
0

> <s_m_source_file>
/data/baiqing/PycharmProjects/Reinvent-master-3.2/result/LINK_invent/BTK/process_docking_weight1_custom_product_contain_oxygen_bond_distance_aromatic_linkinvent_7_9_3/rearranged_h_0060.sdf

> <i_m_source_file_index>
15

> <r_mmod_Potential_Energy-OPLS-2005>
274.174591064453

> <r_mmod_Stretch_Energy-OPLS-2005>
143.097061157227

> <r_mmod_Bend_Energy-OPLS-2005>
180.06266784668

> <r_mmod_Torsional_Energy-OPLS-2005>
246.412307739258

> <r_mmod_Improper_Torsional_Energy-OPLS-2005>
6.42062044143677

> <r_mmod_Van_der_Waal_Energy-OPLS-2005>
152.642135620117

> <r_mmod_Electrostatic_Energy-OPLS-2005>
-328.554260253906

> <r_mmod_Solvation_Energy-OPLS-2005>
-234.927169799805

> <b_mmod_Minimization_Converged-OPLS-2005>
0

> <r_mmod_RMS_Derivative-OPLS-2005>
1.37095141410828

$$$$
15
                    3D
 Structure written by MMmdl.
153161  0  0  1  0            999 V2000
  -30.6093  -14.7831   20.3572 C   0  0  0  0  0  0
  -30.4388  -12.4485   19.4903 C   0  0  0  0  0  0
  -29.5207  -12.4086   18.2475 C   0  0  0  0  0  0
  -28.0352  -12.2878   18.6539 C   0  0  0  0  0  0
  -27.6269  -13.2139   19.8321 C   0  0  2  0  0  0
  -28.6799  -13.2309   20.9572 C   0  0  0  0  0  0
  -25.2507  -13.8135   20.5732 C   0  0  0  0  0  0
  -24.1779  -13.0410   20.9232 C   0  0  0  0  0  0
  -24.6350  -11.6880   20.8783 C   0  0  0  0  0  0
  -23.9031  -10.4272   21.0432 C   0  0  0  0  0  0
  -24.3595   -9.4187   21.9199 C   0  0  0  0  0  0
  -23.6277   -8.2221   22.0757 C   0  0  0  0  0  0
  -22.4262   -8.0264   21.3543 C   0  0  0  0  0  0
  -21.9893   -9.0237   20.4648 C   0  0  0  0  0  0
  -22.7214  -10.2119   20.3068 C   0  0  0  0  0  0
  -21.6845   -6.0727   22.5279 C   0  0  0  0  0  0
  -21.4008   -6.5634   23.8211 C   0  0  0  0  0  0
  -21.3657   -5.6790   24.9175 C   0  0  0  0  0  0
  -21.6044   -4.3052   24.7227 C   0  0  0  0  0  0
  -21.8820   -3.8142   23.4350 C   0  0  0  0  0  0
  -21.9190   -4.6956   22.3404 C   0  0  0  0  0  0
  -22.7809  -13.5216   21.1880 C   0  0  0  0  0  0
  -22.1660   -4.2143   21.0982 F   0  0  0  0  0  0
  -21.5630   -3.4537   25.7741 F   0  0  0  0  0  0
  -29.9814  -13.5538   20.3614 N   0  0  0  0  0  0
  -26.2882  -12.9279   20.3280 N   0  0  0  0  0  0
  -25.9271  -11.6454   20.5797 N   0  0  0  0  0  0
  -22.0446  -12.8214   22.0435 N   0  0  0  0  0  0
  -25.4247  -15.1861   20.4175 N   0  0  0  0  0  0
  -31.8365  -14.8277   20.2474 O   0  0  0  0  0  0
  -21.6628   -6.8864   21.4238 O   0  0  0  0  0  0
  -22.3506  -14.5523   20.6720 O   0  0  0  0  0  0
  -24.6297  -31.8559   23.1983 C   0  0  0  0  0  0
  -25.9126  -32.4760   23.8330 C   0  0  1  0  0  0
  -27.2250  -27.2786   20.1415 C   0  0  0  0  0  0
  -25.5925  -33.8560   24.2258 N   0  0  0  0  0  0
  -23.4267  -30.4768   21.5409 C   0  0  2  0  0  0
  -24.8767  -28.9223   20.1130 C   0  0  0  0  0  0
  -22.7497  -29.4601   22.4915 C   0  0  0  0  0  0
  -18.0291  -28.1387   22.8484 C   0  0  0  0  0  0
  -24.1489  -36.7286   23.2640 C   0  0  0  0  0  0
  -25.9702  -30.7761   21.3744 C   0  0  0  0  0  0
  -26.0467  -29.3984   20.7200 C   0  0  0  0  0  0
  -27.2273  -28.5905   20.7190 C   0  0  0  0  0  0
  -26.0368  -26.8633   19.5051 C   0  0  0  0  0  0
  -24.8758  -27.6622   19.4928 C   0  0  0  0  0  0
  -23.6455  -29.8071   20.1581 C   0  0  0  0  0  0
  -25.4115  -36.3072   24.0327 C   0  0  1  0  0  0
  -20.5894  -28.3696   23.1273 C   0  0  2  0  0  0
  -20.6778  -26.9414   22.5410 C   0  0  0  0  0  0
  -19.5754  -26.6384   21.5212 C   0  0  0  0  0  0
  -18.1935  -26.7929   22.1625 C   0  0  0  0  0  0
  -19.1545  -28.8859   23.2873 C   0  0  0  0  0  0
  -18.9465  -30.1460   23.8891 C   0  0  0  0  0  0
  -17.6464  -30.6588   24.0562 C   0  0  0  0  0  0
  -25.9053  -34.9442   23.5096 C   0  0  0  0  0  0
  -16.5355  -29.9084   23.6332 C   0  0  0  0  0  0
  -16.7278  -28.6503   23.0352 C   0  0  0  0  0  0
  -26.4499  -31.6580   25.0714 C   0  0  0  0  0  0
  -25.3726  -31.3727   26.1437 C   0  0  0  0  0  0
  -27.0347  -30.3000   24.6191 C   0  0  0  0  0  0
  -27.6053  -32.4321   25.7490 C   0  0  0  0  0  0
  -27.5578  -37.1799   24.8465 C   0  0  0  0  0  0
  -21.4205  -29.3041   22.3660 N   0  0  0  0  0  0
  -26.4291  -37.3770   23.9407 N   0  0  0  0  0  0
  -24.6944  -31.0539   22.0947 N   0  0  0  0  0  0
  -23.4201  -28.8148   23.3016 O   0  0  0  0  0  0
  -28.3160  -26.3867   20.1666 O   0  0  0  0  0  0
  -26.5627  -34.8917   22.4666 O   0  0  0  0  0  0
  -23.5450  -32.1368   23.7289 O   0  0  0  0  0  0
  -28.4548  -17.1811   18.2395 C   0  0  0  0  0  0
  -29.1130  -16.0680   18.7779 C   0  0  0  0  0  0
  -28.5384  -18.4310   18.8616 C   0  0  0  0  0  0
  -29.8356  -16.1053   19.9907 C   0  0  0  0  0  0
  -29.9372  -17.4369   20.6108 C   0  0  0  0  0  0
  -29.2997  -18.6304   20.0345 C   0  0  0  0  0  0
  -28.8235  -22.4677   20.6642 C   0  0  0  0  0  0
  -28.5948  -23.7136   20.0879 C   0  0  0  0  0  0
  -29.1994  -21.2273   19.9021 C   0  0  0  0  0  0
  -30.7402  -17.6074   21.8907 C   0  0  0  0  0  0
  -28.0965  -25.0430   20.7923 C   0  0  0  0  0  0
  -29.3039  -20.0169   20.5846 N   0  0  0  0  0  0
  -29.4361  -21.2789   18.6922 O   0  0  0  0  0  0
  -31.4788  -12.5708   19.1831 H   0  0  0  0  0  0
  -30.3947  -11.5025   20.0320 H   0  0  0  0  0  0
  -29.7922  -11.5553   17.6246 H   0  0  0  0  0  0
  -29.6894  -13.2778   17.6165 H   0  0  0  0  0  0
  -27.8730  -11.2484   18.9410 H   0  0  0  0  0  0
  -27.3900  -12.4632   17.7923 H   0  0  0  0  0  0
  -27.5631  -14.2103   19.4171 H   0  0  0  0  0  0
  -28.7221  -12.2681   21.4681 H   0  0  0  0  0  0
  -28.4170  -13.9744   21.7117 H   0  0  0  0  0  0
  -25.2738   -9.5665   22.4776 H   0  0  0  0  0  0
  -23.9988   -7.4609   22.7471 H   0  0  0  0  0  0
  -21.0827   -8.8754   19.8952 H   0  0  0  0  0  0
  -22.3674  -10.9663   19.6181 H   0  0  0  0  0  0
  -21.1999   -7.6142   23.9712 H   0  0  0  0  0  0
  -21.1480   -6.0521   25.9077 H   0  0  0  0  0  0
  -22.0603   -2.7605   23.2852 H   0  0  0  0  0  0
  -22.4057  -11.9875   22.4828 H   0  0  0  0  0  0
  -21.1065  -13.1245   22.2640 H   0  0  0  0  0  0
  -24.6660  -15.8473   20.5423 H   0  0  0  0  0  0
  -26.2897  -15.6257   20.1266 H   0  0  0  0  0  0
  -26.7193  -32.5422   23.1077 H   0  0  0  0  0  0
  -25.0068  -33.9697   25.0400 H   0  0  0  0  0  0
  -22.7223  -31.2981   21.3931 H   0  0  0  0  0  0
  -23.3751  -35.9619   23.3302 H   0  0  0  0  0  0
  -24.3579  -36.8909   22.2054 H   0  0  0  0  0  0
  -23.7243  -37.6488   23.6664 H   0  0  0  0  0  0
  -26.1042  -31.5365   20.6037 H   0  0  0  0  0  0
  -26.8490  -30.8283   22.0054 H   0  0  0  0  0  0
  -28.1254  -28.9514   21.2005 H   0  0  0  0  0  0
  -25.9996  -25.8936   19.0287 H   0  0  0  0  0  0
  -23.9810  -27.2926   19.0111 H   0  0  0  0  0  0
  -23.7685  -30.5814   19.4000 H   0  0  0  0  0  0
  -22.7652  -29.2377   19.8547 H   0  0  0  0  0  0
  -25.1298  -36.1920   25.0820 H   0  0  0  0  0  0
  -20.9987  -28.3274   24.1393 H   0  0  0  0  0  0
  -20.5677  -26.2306   23.3614 H   0  0  0  0  0  0
  -21.6647  -26.7438   22.1205 H   0  0  0  0  0  0
  -19.6915  -25.6294   21.1245 H   0  0  0  0  0  0
  -19.6692  -27.3192   20.6741 H   0  0  0  0  0  0
  -17.4204  -26.6675   21.4027 H   0  0  0  0  0  0
  -18.0335  -26.0073   22.9023 H   0  0  0  0  0  0
  -19.7941  -30.7278   24.2257 H   0  0  0  0  0  0
  -17.5018  -31.6267   24.5164 H   0  0  0  0  0  0
  -15.5355  -30.2984   23.7659 H   0  0  0  0  0  0
  -15.8679  -28.0820   22.7068 H   0  0  0  0  0  0
  -24.5905  -30.7071   25.7766 H   0  0  0  0  0  0
  -24.8913  -32.2896   26.4850 H   0  0  0  0  0  0
  -25.8047  -30.8915   27.0220 H   0  0  0  0  0  0
  -26.2928  -29.6744   24.1213 H   0  0  0  0  0  0
  -27.4031  -29.7263   25.4706 H   0  0  0  0  0  0
  -27.8803  -30.4276   23.9429 H   0  0  0  0  0  0
  -27.2658  -33.3623   26.2059 H   0  0  0  0  0  0
  -28.3869  -32.6878   25.0324 H   0  0  0  0  0  0
  -28.0715  -31.8452   26.5414 H   0  0  0  0  0  0
  -28.2597  -38.0094   24.7508 H   0  0  0  0  0  0
  -28.1073  -36.2625   24.6298 H   0  0  0  0  0  0
  -27.2297  -37.1455   25.8869 H   0  0  0  0  0  0
  -20.9391  -29.8757   21.6859 H   0  0  0  0  0  0
  -26.0171  -38.2845   24.1405 H   0  0  0  0  0  0
  -27.8937  -17.0793   17.3208 H   0  0  0  0  0  0
  -29.0647  -15.1596   18.2058 H   0  0  0  0  0  0
  -28.0004  -19.2472   18.4014 H   0  0  0  0  0  0
  -28.6958  -22.3788   21.7333 H   0  0  0  0  0  0
  -28.7208  -23.8055   19.0183 H   0  0  0  0  0  0
  -31.5623  -16.8961   21.9582 H   0  0  0  0  0  0
  -30.0967  -17.4674   22.7593 H   0  0  0  0  0  0
  -31.1793  -18.6033   21.9507 H   0  0  0  0  0  0
  -28.5530  -25.0740   21.7821 H   0  0  0  0  0  0
  -27.0333  -24.8979   20.9863 H   0  0  0  0  0  0
  -29.2975  -20.0870   21.5926 H   0  0  0  0  0  0
  1 25  1  0  0  0
  1 30  2  0  0  0
  1 74  1  0  0  0
  2  3  1  0  0  0
  2 25  1  0  0  0
  2 84  1  0  0  0
  2 85  1  0  0  0
  3  4  1  0  0  0
  3 86  1  0  0  0
  3 87  1  0  0  0
  4  5  1  0  0  0
  4 88  1  0  0  0
  4 89  1  0  0  0
  5  6  1  0  0  0
  5 26  1  0  0  0
  5 90  1  0  0  0
  6 25  1  0  0  0
  6 91  1  0  0  0
  6 92  1  0  0  0
  7  8  2  0  0  0
  7 26  1  0  0  0
  7 29  1  0  0  0
  8  9  1  0  0  0
  8 22  1  0  0  0
  9 10  1  0  0  0
  9 27  2  0  0  0
 10 11  2  0  0  0
 10 15  1  0  0  0
 11 12  1  0  0  0
 11 93  1  0  0  0
 12 13  2  0  0  0
 12 94  1  0  0  0
 13 14  1  0  0  0
 13 31  1  0  0  0
 14 15  2  0  0  0
 14 95  1  0  0  0
 15 96  1  0  0  0
 16 17  2  0  0  0
 16 21  1  0  0  0
 16 31  1  0  0  0
 17 18  1  0  0  0
 17 97  1  0  0  0
 18 19  2  0  0  0
 18 98  1  0  0  0
 19 20  1  0  0  0
 19 24  1  0  0  0
 20 21  2  0  0  0
 20 99  1  0  0  0
 21 23  1  0  0  0
 22 28  1  0  0  0
 22 32  2  0  0  0
 26 27  1  0  0  0
 28100  1  0  0  0
 28101  1  0  0  0
 29102  1  0  0  0
 29103  1  0  0  0
 33 34  1  0  0  0
 33 66  1  0  0  0
 33 70  2  0  0  0
 34 36  1  0  0  0
 34 59  1  0  0  0
 34104  1  0  0  0
 35 44  2  0  0  0
 35 45  1  0  0  0
 35 68  1  0  0  0
 36 56  1  0  0  0
 36105  1  0  0  0
 37 39  1  0  0  0
 37 47  1  0  0  0
 37 66  1  0  0  0
 37106  1  0  0  0
 38 43  2  0  0  0
 38 46  1  0  0  0
 38 47  1  0  0  0
 39 64  1  0  0  0
 39 67  2  0  0  0
 40 52  1  0  0  0
 40 53  2  0  0  0
 40 58  1  0  0  0
 41107  1  0  0  0
 41108  1  0  0  0
 41109  1  0  0  0
 41 48  1  0  0  0
 42 43  1  0  0  0
 42 66  1  0  0  0
 42110  1  0  0  0
 42111  1  0  0  0
 43 44  1  0  0  0
 44112  1  0  0  0
 45 46  2  0  0  0
 45113  1  0  0  0
 46114  1  0  0  0
 47115  1  0  0  0
 47116  1  0  0  0
 48 56  1  0  0  0
 48 65  1  0  0  0
 48117  1  0  0  0
 49 50  1  0  0  0
 49 53  1  0  0  0
 49 64  1  0  0  0
 49118  1  0  0  0
 50 51  1  0  0  0
 50119  1  0  0  0
 50120  1  0  0  0
 51 52  1  0  0  0
 51121  1  0  0  0
 51122  1  0  0  0
 52123  1  0  0  0
 52124  1  0  0  0
 53 54  1  0  0  0
 54 55  2  0  0  0
 54125  1  0  0  0
 55 57  1  0  0  0
 55126  1  0  0  0
 56 69  2  0  0  0
 57 58  2  0  0  0
 57127  1  0  0  0
 58128  1  0  0  0
 59 60  1  0  0  0
 59 61  1  0  0  0
 59 62  1  0  0  0
 60129  1  0  0  0
 60130  1  0  0  0
 60131  1  0  0  0
 61132  1  0  0  0
 61133  1  0  0  0
 61134  1  0  0  0
 62135  1  0  0  0
 62136  1  0  0  0
 62137  1  0  0  0
 63 65  1  0  0  0
 63138  1  0  0  0
 63139  1  0  0  0
 63140  1  0  0  0
 64141  1  0  0  0
 65142  1  0  0  0
 68 81  1  0  0  0
 71 72  2  0  0  0
 71 73  1  0  0  0
 71143  1  0  0  0
 72 74  1  0  0  0
 72144  1  0  0  0
 73 76  2  0  0  0
 73145  1  0  0  0
 74 75  2  0  0  0
 75 76  1  0  0  0
 75 80  1  0  0  0
 76 82  1  0  0  0
 77 78  2  0  0  0
 77 79  1  0  0  0
 77146  1  0  0  0
 78 81  1  0  0  0
 78147  1  0  0  0
 79 82  1  0  0  0
 79 83  2  0  0  0
 80148  1  0  0  0
 80149  1  0  0  0
 80150  1  0  0  0
 81151  1  0  0  0
 81152  1  0  0  0
 82153  1  0  0  0
M  ISO  4   1 100  68 101  74 100  81 101
M  END
> <chiral flag>
0

> <version>
0

> <s_m_source_file>
/data/baiqing/PycharmProjects/Reinvent-master-3.2/result/LINK_invent/BTK/process_docking_weight1_custom_product_contain_oxygen_bond_distance_aromatic_linkinvent_7_9_3/rearranged_h_0060.sdf

> <i_m_source_file_index>
16

> <r_mmod_Potential_Energy-OPLS-2005>
224.731262207031

> <r_mmod_Stretch_Energy-OPLS-2005>
122.887847900391

> <r_mmod_Bend_Energy-OPLS-2005>
151.621520996094

> <r_mmod_Torsional_Energy-OPLS-2005>
264.5439453125

> <r_mmod_Improper_Torsional_Energy-OPLS-2005>
14.6809415817261

> <r_mmod_Van_der_Waal_Energy-OPLS-2005>
144.573287963867

> <r_mmod_Electrostatic_Energy-OPLS-2005>
-361.277069091797

> <r_mmod_Solvation_Energy-OPLS-2005>
-213.947067260742

> <b_mmod_Minimization_Converged-OPLS-2005>
0

> <r_mmod_RMS_Derivative-OPLS-2005>
0.150574311614037

$$$$
16
                    3D
 Structure written by MMmdl.
164172  0  0  1  0            999 V2000
  -30.6351  -14.6379   20.5001 C   0  0  0  0  0  0
  -30.4335  -12.3943   19.4429 C   0  0  0  0  0  0
  -29.5000  -12.4947   18.2170 C   0  0  0  0  0  0
  -28.0261  -12.3302   18.6363 C   0  0  0  0  0  0
  -27.6465  -13.2144   19.8528 C   0  0  2  0  0  0
  -28.6938  -13.0933   20.9812 C   0  0  0  0  0  0
  -25.2549  -13.8165   20.5705 C   0  0  0  0  0  0
  -24.1818  -13.0442   20.9214 C   0  0  0  0  0  0
  -24.6372  -11.6907   20.8735 C   0  0  0  0  0  0
  -23.9043  -10.4294   21.0399 C   0  0  0  0  0  0
  -24.3593   -9.4211   21.9176 C   0  0  0  0  0  0
  -23.6275   -8.2250   22.0747 C   0  0  0  0  0  0
  -22.4262   -8.0281   21.3548 C   0  0  0  0  0  0
  -21.9877   -9.0250   20.4645 C   0  0  0  0  0  0
  -22.7208  -10.2129   20.3057 C   0  0  0  0  0  0
  -21.6851   -6.0724   22.5275 C   0  0  0  0  0  0
  -21.4014   -6.5627   23.8202 C   0  0  0  0  0  0
  -21.3662   -5.6769   24.9166 C   0  0  0  0  0  0
  -21.6051   -4.3037   24.7218 C   0  0  0  0  0  0
  -21.8822   -3.8140   23.4334 C   0  0  0  0  0  0
  -21.9196   -4.6950   22.3389 C   0  0  0  0  0  0
  -22.7846  -13.5253   21.1871 C   0  0  0  0  0  0
  -22.1667   -4.2144   21.0971 F   0  0  0  0  0  0
  -21.5631   -3.4523   25.7726 F   0  0  0  0  0  0
  -30.0025  -13.4283   20.4025 N   0  0  0  0  0  0
  -26.2951  -12.9336   20.3275 N   0  0  0  0  0  0
  -25.9289  -11.6492   20.5715 N   0  0  0  0  0  0
  -22.0475  -12.8242   22.0414 N   0  0  0  0  0  0
  -25.4281  -15.1886   20.4188 N   0  0  0  0  0  0
  -31.8260  -14.7634   20.1985 O   0  0  0  0  0  0
  -21.6637   -6.8875   21.4239 O   0  0  0  0  0  0
  -22.3543  -14.5571   20.6737 O   0  0  0  0  0  0
  -24.6255  -31.8588   23.2013 C   0  0  0  0  0  0
  -25.9103  -32.4774   23.8343 C   0  0  1  0  0  0
  -27.2364  -27.3213   20.1221 C   0  0  0  0  0  0
  -25.5917  -33.8575   24.2270 N   0  0  0  0  0  0
  -23.4201  -30.4788   21.5440 C   0  0  2  0  0  0
  -24.8694  -28.9284   20.1148 C   0  0  0  0  0  0
  -22.7470  -29.4609   22.4952 C   0  0  0  0  0  0
  -18.0289  -28.1384   22.8491 C   0  0  0  0  0  0
  -24.1485  -36.7286   23.2633 C   0  0  0  0  0  0
  -25.9595  -30.7902   21.3713 C   0  0  0  0  0  0
  -26.0370  -29.4156   20.7172 C   0  0  0  0  0  0
  -27.2237  -28.6244   20.7081 C   0  0  0  0  0  0
  -26.0491  -26.8838   19.4967 C   0  0  0  0  0  0
  -24.8766  -27.6670   19.4966 C   0  0  0  0  0  0
  -23.6355  -29.8076   20.1617 C   0  0  0  0  0  0
  -25.4105  -36.3076   24.0329 C   0  0  1  0  0  0
  -20.5880  -28.3683   23.1292 C   0  0  2  0  0  0
  -20.6779  -26.9407   22.5419 C   0  0  0  0  0  0
  -19.5757  -26.6381   21.5221 C   0  0  0  0  0  0
  -18.1933  -26.7929   22.1627 C   0  0  0  0  0  0
  -19.1539  -28.8853   23.2883 C   0  0  0  0  0  0
  -18.9463  -30.1456   23.8898 C   0  0  0  0  0  0
  -17.6465  -30.6584   24.0564 C   0  0  0  0  0  0
  -25.9051  -34.9449   23.5103 C   0  0  0  0  0  0
  -16.5356  -29.9084   23.6329 C   0  0  0  0  0  0
  -16.7276  -28.6500   23.0351 C   0  0  0  0  0  0
  -26.4489  -31.6583   25.0712 C   0  0  0  0  0  0
  -25.3723  -31.3725   26.1440 C   0  0  0  0  0  0
  -27.0333  -30.3009   24.6157 C   0  0  0  0  0  0
  -27.6047  -32.4316   25.7483 C   0  0  0  0  0  0
  -27.5591  -37.1767   24.8443 C   0  0  0  0  0  0
  -21.4183  -29.3030   22.3686 N   0  0  0  0  0  0
  -26.4271  -37.3786   23.9435 N   0  0  0  0  0  0
  -24.6870  -31.0593   22.0962 N   0  0  0  0  0  0
  -23.4191  -28.8159   23.3044 O   0  0  0  0  0  0
  -28.3719  -26.4985   20.1179 O   0  0  0  0  0  0
  -26.5629  -34.8923   22.4673 O   0  0  0  0  0  0
  -23.5415  -32.1390   23.7337 O   0  0  0  0  0  0
  -31.2476  -18.6697   22.5542 C   0  0  0  0  0  0
  -30.9589  -17.3552   22.1375 C   0  0  0  0  0  0
  -29.6598  -18.2653   20.2964 C   0  0  0  0  0  0
  -30.7832  -19.7969   21.8374 C   0  0  0  0  0  0
  -30.1681  -17.1135   20.9963 C   0  0  0  0  0  0
  -29.9706  -19.6181   20.6850 C   0  0  0  0  0  0
  -31.2188  -21.1671   22.3075 C   0  0  0  0  0  0
  -31.2325  -24.6727   21.2601 C   0  0  0  0  0  0
  -28.7220  -23.9124   18.3368 C   0  0  0  0  0  0
  -30.6513  -24.4590   19.8540 C   0  0  0  0  0  0
  -28.2408  -25.0767   20.5239 C   0  0  0  0  0  0
  -29.1764  -23.9871   19.8113 C   0  0  1  0  0  0
  -29.8261  -15.7353   20.6605 N   0  0  0  0  0  0
  -29.1071  -22.5826   20.4439 N   0  0  0  0  0  0
  -30.6325  -21.3228   18.7343 O   0  0  0  0  0  0
  -28.2020  -20.6677   18.9164 O   0  0  0  0  0  0
  -29.4596  -21.0464   19.5798 S   0  0  0  0  0  0
  -31.4739  -12.5182   19.1384 H   0  0  0  0  0  0
  -30.3711  -11.4036   19.8938 H   0  0  0  0  0  0
  -29.7601  -11.7360   17.4773 H   0  0  0  0  0  0
  -29.6374  -13.4578   17.7242 H   0  0  0  0  0  0
  -27.8704  -11.2803   18.8841 H   0  0  0  0  0  0
  -27.3697  -12.5460   17.7926 H   0  0  0  0  0  0
  -27.6573  -14.2421   19.4911 H   0  0  0  0  0  0
  -28.7089  -12.0807   21.3863 H   0  0  0  0  0  0
  -28.4479  -13.7506   21.8169 H   0  0  0  0  0  0
  -25.2739   -9.5679   22.4748 H   0  0  0  0  0  0
  -23.9983   -7.4627   22.7454 H   0  0  0  0  0  0
  -21.0817   -8.8779   19.8938 H   0  0  0  0  0  0
  -22.3681  -10.9670   19.6169 H   0  0  0  0  0  0
  -21.2004   -7.6129   23.9707 H   0  0  0  0  0  0
  -21.1485   -6.0500   25.9064 H   0  0  0  0  0  0
  -22.0596   -2.7603   23.2841 H   0  0  0  0  0  0
  -22.4075  -11.9907   22.4817 H   0  0  0  0  0  0
  -21.1098  -13.1297   22.2626 H   0  0  0  0  0  0
  -24.6685  -15.8463   20.5592 H   0  0  0  0  0  0
  -26.2738  -15.6296   20.0822 H   0  0  0  0  0  0
  -26.7169  -32.5449   23.1091 H   0  0  0  0  0  0
  -25.0046  -33.9721   25.0402 H   0  0  0  0  0  0
  -22.7139  -31.2988   21.3988 H   0  0  0  0  0  0
  -23.3766  -35.9595   23.3246 H   0  0  0  0  0  0
  -24.3597  -36.8959   22.2059 H   0  0  0  0  0  0
  -23.7208  -37.6458   23.6689 H   0  0  0  0  0  0
  -26.0885  -31.5523   20.6015 H   0  0  0  0  0  0
  -26.8402  -30.8419   21.9995 H   0  0  0  0  0  0
  -28.1235  -28.9970   21.1769 H   0  0  0  0  0  0
  -26.0213  -25.9249   18.9985 H   0  0  0  0  0  0
  -23.9829  -27.2893   19.0178 H   0  0  0  0  0  0
  -23.7526  -30.5810   19.4021 H   0  0  0  0  0  0
  -22.7562  -29.2337   19.8633 H   0  0  0  0  0  0
  -25.1270  -36.1912   25.0819 H   0  0  0  0  0  0
  -20.9975  -28.3260   24.1411 H   0  0  0  0  0  0
  -20.5686  -26.2287   23.3614 H   0  0  0  0  0  0
  -21.6650  -26.7444   22.1209 H   0  0  0  0  0  0
  -19.6918  -25.6294   21.1245 H   0  0  0  0  0  0
  -19.6692  -27.3195   20.6754 H   0  0  0  0  0  0
  -17.4199  -26.6676   21.4027 H   0  0  0  0  0  0
  -18.0330  -26.0071   22.9025 H   0  0  0  0  0  0
  -19.7936  -30.7277   24.2260 H   0  0  0  0  0  0
  -17.5016  -31.6267   24.5165 H   0  0  0  0  0  0
  -15.5354  -30.2988   23.7654 H   0  0  0  0  0  0
  -15.8673  -28.0823   22.7065 H   0  0  0  0  0  0
  -24.5912  -30.7054   25.7776 H   0  0  0  0  0  0
  -24.8897  -32.2892   26.4838 H   0  0  0  0  0  0
  -25.8055  -30.8931   27.0227 H   0  0  0  0  0  0
  -26.2908  -29.6763   24.1176 H   0  0  0  0  0  0
  -27.4032  -29.7260   25.4655 H   0  0  0  0  0  0
  -27.8772  -30.4298   23.9377 H   0  0  0  0  0  0
  -27.2656  -33.3614   26.2060 H   0  0  0  0  0  0
  -28.3857  -32.6878   25.0313 H   0  0  0  0  0  0
  -28.0712  -31.8442   26.5399 H   0  0  0  0  0  0
  -28.2520  -38.0153   24.7627 H   0  0  0  0  0  0
  -28.1175  -36.2696   24.6079 H   0  0  0  0  0  0
  -27.2340  -37.1185   25.8847 H   0  0  0  0  0  0
  -20.9366  -29.8730   21.6875 H   0  0  0  0  0  0
  -26.0141  -38.2832   24.1538 H   0  0  0  0  0  0
  -31.8573  -18.8069   23.4375 H   0  0  0  0  0  0
  -31.3402  -16.5273   22.7195 H   0  0  0  0  0  0
  -29.0495  -18.1259   19.4158 H   0  0  0  0  0  0
  -31.9386  -21.1025   23.1237 H   0  0  0  0  0  0
  -30.3625  -21.7345   22.6710 H   0  0  0  0  0  0
  -31.7006  -21.7091   21.4940 H   0  0  0  0  0  0
  -32.3143  -24.7998   21.2127 H   0  0  0  0  0  0
  -31.0320  -23.8342   21.9205 H   0  0  0  0  0  0
  -30.8189  -25.5614   21.7336 H   0  0  0  0  0  0
  -28.7838  -24.8908   17.8582 H   0  0  0  0  0  0
  -27.6896  -23.5724   18.2481 H   0  0  0  0  0  0
  -29.3413  -23.2454   17.7378 H   0  0  0  0  0  0
  -31.2801  -23.7473   19.3203 H   0  0  0  0  0  0
  -30.7500  -25.3973   19.3058 H   0  0  0  0  0  0
  -28.4488  -25.0544   21.5936 H   0  0  0  0  0  0
  -27.2073  -24.7394   20.4514 H   0  0  0  0  0  0
  -28.8408  -15.5266   20.6312 H   0  0  0  0  0  0
  -28.2975  -22.4656   21.0571 H   0  0  0  0  0  0
  1 25  1  0  0  0
  1 30  2  0  0  0
  1 83  1  0  0  0
  2  3  1  0  0  0
  2 25  1  0  0  0
  2 88  1  0  0  0
  2 89  1  0  0  0
  3  4  1  0  0  0
  3 90  1  0  0  0
  3 91  1  0  0  0
  4  5  1  0  0  0
  4 92  1  0  0  0
  4 93  1  0  0  0
  5  6  1  0  0  0
  5 26  1  0  0  0
  5 94  1  0  0  0
  6 25  1  0  0  0
  6 95  1  0  0  0
  6 96  1  0  0  0
  7  8  2  0  0  0
  7 26  1  0  0  0
  7 29  1  0  0  0
  8  9  1  0  0  0
  8 22  1  0  0  0
  9 10  1  0  0  0
  9 27  2  0  0  0
 10 11  2  0  0  0
 10 15  1  0  0  0
 11 12  1  0  0  0
 11 97  1  0  0  0
 12 13  2  0  0  0
 12 98  1  0  0  0
 13 14  1  0  0  0
 13 31  1  0  0  0
 14 15  2  0  0  0
 14 99  1  0  0  0
 15100  1  0  0  0
 16 17  2  0  0  0
 16 21  1  0  0  0
 16 31  1  0  0  0
 17 18  1  0  0  0
 17101  1  0  0  0
 18 19  2  0  0  0
 18102  1  0  0  0
 19 20  1  0  0  0
 19 24  1  0  0  0
 20 21  2  0  0  0
 20103  1  0  0  0
 21 23  1  0  0  0
 22 28  1  0  0  0
 22 32  2  0  0  0
 26 27  1  0  0  0
 28104  1  0  0  0
 28105  1  0  0  0
 29106  1  0  0  0
 29107  1  0  0  0
 33 34  1  0  0  0
 33 66  1  0  0  0
 33 70  2  0  0  0
 34 36  1  0  0  0
 34 59  1  0  0  0
 34108  1  0  0  0
 35 44  2  0  0  0
 35 45  1  0  0  0
 35 68  1  0  0  0
 36 56  1  0  0  0
 36109  1  0  0  0
 37 39  1  0  0  0
 37 47  1  0  0  0
 37 66  1  0  0  0
 37110  1  0  0  0
 38 43  2  0  0  0
 38 46  1  0  0  0
 38 47  1  0  0  0
 39 64  1  0  0  0
 39 67  2  0  0  0
 40 52  1  0  0  0
 40 53  2  0  0  0
 40 58  1  0  0  0
 41111  1  0  0  0
 41112  1  0  0  0
 41113  1  0  0  0
 41 48  1  0  0  0
 42 43  1  0  0  0
 42 66  1  0  0  0
 42114  1  0  0  0
 42115  1  0  0  0
 43 44  1  0  0  0
 44116  1  0  0  0
 45 46  2  0  0  0
 45117  1  0  0  0
 46118  1  0  0  0
 47119  1  0  0  0
 47120  1  0  0  0
 48 56  1  0  0  0
 48 65  1  0  0  0
 48121  1  0  0  0
 49 50  1  0  0  0
 49 53  1  0  0  0
 49 64  1  0  0  0
 49122  1  0  0  0
 50 51  1  0  0  0
 50123  1  0  0  0
 50124  1  0  0  0
 51 52  1  0  0  0
 51125  1  0  0  0
 51126  1  0  0  0
 52127  1  0  0  0
 52128  1  0  0  0
 53 54  1  0  0  0
 54 55  2  0  0  0
 54129  1  0  0  0
 55 57  1  0  0  0
 55130  1  0  0  0
 56 69  2  0  0  0
 57 58  2  0  0  0
 57131  1  0  0  0
 58132  1  0  0  0
 59 60  1  0  0  0
 59 61  1  0  0  0
 59 62  1  0  0  0
 60133  1  0  0  0
 60134  1  0  0  0
 60135  1  0  0  0
 61136  1  0  0  0
 61137  1  0  0  0
 61138  1  0  0  0
 62139  1  0  0  0
 62140  1  0  0  0
 62141  1  0  0  0
 63 65  1  0  0  0
 63142  1  0  0  0
 63143  1  0  0  0
 63144  1  0  0  0
 64145  1  0  0  0
 65146  1  0  0  0
 68 81  1  0  0  0
 71 72  2  0  0  0
 71 74  1  0  0  0
 71147  1  0  0  0
 72 75  1  0  0  0
 72148  1  0  0  0
 73 75  2  0  0  0
 73 76  1  0  0  0
 73149  1  0  0  0
 74 76  2  0  0  0
 74 77  1  0  0  0
 75 83  1  0  0  0
 76 87  1  0  0  0
 77150  1  0  0  0
 77151  1  0  0  0
 77152  1  0  0  0
 78 80  1  0  0  0
 78153  1  0  0  0
 78154  1  0  0  0
 78155  1  0  0  0
 79156  1  0  0  0
 79157  1  0  0  0
 79158  1  0  0  0
 79 82  1  0  0  0
 80 82  1  0  0  0
 80159  1  0  0  0
 80160  1  0  0  0
 81 82  1  0  0  0
 81161  1  0  0  0
 81162  1  0  0  0
 82 84  1  0  0  0
 83163  1  0  0  0
 84164  1  0  0  0
 84 87  1  0  0  0
 85 87  2  0  0  0
 86 87  2  0  0  0
M  ISO  4   1 100  68 101  81 101  83 100
M  END
> <chiral flag>
0

> <version>
0

> <s_m_source_file>
/data/baiqing/PycharmProjects/Reinvent-master-3.2/result/LINK_invent/BTK/process_docking_weight1_custom_product_contain_oxygen_bond_distance_aromatic_linkinvent_7_9_3/rearranged_h_0060.sdf

> <i_m_source_file_index>
17

> <r_mmod_Potential_Energy-OPLS-2005>
19.5986995697021

> <r_mmod_Stretch_Energy-OPLS-2005>
90.1406173706055

> <r_mmod_Bend_Energy-OPLS-2005>
148.645034790039

> <r_mmod_Torsional_Energy-OPLS-2005>
259.245941162109

> <r_mmod_Improper_Torsional_Energy-OPLS-2005>
11.1583967208862

> <r_mmod_Van_der_Waal_Energy-OPLS-2005>
131.798355102539

> <r_mmod_Electrostatic_Energy-OPLS-2005>
-431.207672119141

> <r_mmod_Solvation_Energy-OPLS-2005>
-237.952743530273

> <b_mmod_Minimization_Converged-OPLS-2005>
0

> <r_mmod_RMS_Derivative-OPLS-2005>
2.75250649452209

$$$$
17
                    3D
 Structure written by MMmdl.
165174  0  0  1  0            999 V2000
  -30.6095  -14.7341   20.4641 C   0  0  0  0  0  0
  -30.4351  -12.4490   19.4610 C   0  0  0  0  0  0
  -29.5095  -12.5016   18.2260 C   0  0  0  0  0  0
  -28.0364  -12.3251   18.6439 C   0  0  0  0  0  0
  -27.6423  -13.2263   19.8456 C   0  0  2  0  0  0
  -28.6897  -13.1540   20.9776 C   0  0  0  0  0  0
  -25.2523  -13.8182   20.5682 C   0  0  0  0  0  0
  -24.1808  -13.0435   20.9198 C   0  0  0  0  0  0
  -24.6391  -11.6908   20.8740 C   0  0  0  0  0  0
  -23.9066  -10.4293   21.0402 C   0  0  0  0  0  0
  -24.3617   -9.4211   21.9176 C   0  0  0  0  0  0
  -23.6293   -8.2247   22.0754 C   0  0  0  0  0  0
  -22.4275   -8.0283   21.3546 C   0  0  0  0  0  0
  -21.9911   -9.0258   20.4647 C   0  0  0  0  0  0
  -22.7241  -10.2133   20.3049 C   0  0  0  0  0  0
  -21.6857   -6.0738   22.5277 C   0  0  0  0  0  0
  -21.4021   -6.5630   23.8211 C   0  0  0  0  0  0
  -21.3651   -5.6784   24.9176 C   0  0  0  0  0  0
  -21.6034   -4.3050   24.7222 C   0  0  0  0  0  0
  -21.8822   -3.8146   23.4341 C   0  0  0  0  0  0
  -21.9200   -4.6966   22.3400 C   0  0  0  0  0  0
  -22.7826  -13.5221   21.1844 C   0  0  0  0  0  0
  -22.1667   -4.2154   21.0972 F   0  0  0  0  0  0
  -21.5623   -3.4527   25.7734 F   0  0  0  0  0  0
  -29.9866  -13.5092   20.3901 N   0  0  0  0  0  0
  -26.2943  -12.9376   20.3262 N   0  0  0  0  0  0
  -25.9320  -11.6525   20.5734 N   0  0  0  0  0  0
  -22.0468  -12.8225   22.0410 N   0  0  0  0  0  0
  -25.4201  -15.1910   20.4095 N   0  0  0  0  0  0
  -31.8081  -14.8281   20.1850 O   0  0  0  0  0  0
  -21.6636   -6.8881   21.4240 O   0  0  0  0  0  0
  -22.3510  -14.5527   20.6690 O   0  0  0  0  0  0
  -24.6315  -31.8548   23.1962 C   0  0  0  0  0  0
  -25.9143  -32.4749   23.8309 C   0  0  1  0  0  0
  -27.2242  -27.2599   20.1441 C   0  0  0  0  0  0
  -25.5937  -33.8546   24.2243 N   0  0  0  0  0  0
  -23.4286  -30.4744   21.5398 C   0  0  2  0  0  0
  -24.8783  -28.9125   20.1193 C   0  0  0  0  0  0
  -22.7498  -29.4599   22.4918 C   0  0  0  0  0  0
  -18.0289  -28.1399   22.8487 C   0  0  0  0  0  0
  -24.1479  -36.7254   23.2638 C   0  0  0  0  0  0
  -25.9735  -30.7685   21.3750 C   0  0  0  0  0  0
  -26.0500  -29.3870   20.7245 C   0  0  0  0  0  0
  -27.2304  -28.5751   20.7207 C   0  0  0  0  0  0
  -26.0311  -26.8427   19.5237 C   0  0  0  0  0  0
  -24.8730  -27.6468   19.5097 C   0  0  0  0  0  0
  -23.6495  -29.8015   20.1592 C   0  0  0  0  0  0
  -25.4109  -36.3055   24.0325 C   0  0  1  0  0  0
  -20.5897  -28.3702   23.1274 C   0  0  2  0  0  0
  -20.6773  -26.9419   22.5416 C   0  0  0  0  0  0
  -19.5752  -26.6400   21.5209 C   0  0  0  0  0  0
  -18.1931  -26.7945   22.1623 C   0  0  0  0  0  0
  -19.1544  -28.8867   23.2877 C   0  0  0  0  0  0
  -18.9470  -30.1471   23.8899 C   0  0  0  0  0  0
  -17.6467  -30.6595   24.0568 C   0  0  0  0  0  0
  -25.9060  -34.9431   23.5082 C   0  0  0  0  0  0
  -16.5354  -29.9095   23.6340 C   0  0  0  0  0  0
  -16.7279  -28.6512   23.0358 C   0  0  0  0  0  0
  -26.4512  -31.6572   25.0701 C   0  0  0  0  0  0
  -25.3739  -31.3744   26.1433 C   0  0  0  0  0  0
  -27.0338  -30.2975   24.6189 C   0  0  0  0  0  0
  -27.6066  -32.4312   25.7475 C   0  0  0  0  0  0
  -27.5580  -37.1770   24.8457 C   0  0  0  0  0  0
  -21.4208  -29.3035   22.3650 N   0  0  0  0  0  0
  -26.4271  -37.3767   23.9428 N   0  0  0  0  0  0
  -24.6966  -31.0507   22.0936 N   0  0  0  0  0  0
  -23.4191  -28.8152   23.3033 O   0  0  0  0  0  0
  -28.3237  -26.3759   20.1075 O   0  0  0  0  0  0
  -26.5635  -34.8911   22.4657 O   0  0  0  0  0  0
  -23.5468  -32.1373   23.7253 O   0  0  0  0  0  0
  -31.6403  -18.9829   21.7397 C   0  0  0  0  0  0
  -30.8503  -20.0504   21.2681 C   0  0  0  0  0  0
  -31.2943  -17.6411   21.4870 C   0  0  0  0  0  0
  -29.6714  -19.8278   20.5273 C   0  0  0  0  0  0
  -29.3315  -18.4252   20.2705 C   0  0  0  0  0  0
  -30.1410  -17.3025   20.7473 C   0  0  0  0  0  0
  -28.5600  -22.3215   22.1182 C   0  0  0  0  0  0
  -28.7392  -23.7284   20.1296 C   0  0  0  0  0  0
  -27.6967  -21.4154   22.6177 C   0  0  0  0  0  0
  -29.5158  -23.0858   23.0183 C   0  0  0  0  0  0
  -29.0334  -24.5040   23.3086 C   0  0  0  0  0  0
  -29.1541  -25.4365   22.1001 C   0  0  0  0  0  0
  -28.2683  -25.0874   20.8851 C   0  0  1  0  0  0
  -28.0891  -18.1224   19.4484 C   0  0  0  0  0  0
  -28.8857  -21.1169   19.9688 C   0  0  0  0  0  0
  -28.7817  -22.4536   20.7341 N   0  0  0  0  0  0
  -29.8066  -15.8624   20.5860 N   0  0  0  0  0  0
  -29.0068  -23.8430   18.9274 O   0  0  0  0  0  0
  -31.4762  -12.5768   19.1577 H   0  0  0  0  0  0
  -30.3794  -11.4721   19.9436 H   0  0  0  0  0  0
  -29.7899  -11.7290   17.5089 H   0  0  0  0  0  0
  -29.6350  -13.4560   17.7117 H   0  0  0  0  0  0
  -27.8956  -11.2763   18.9098 H   0  0  0  0  0  0
  -27.3768  -12.5149   17.7959 H   0  0  0  0  0  0
  -27.6366  -14.2468   19.4625 H   0  0  0  0  0  0
  -28.7286  -12.1527   21.4089 H   0  0  0  0  0  0
  -28.4297  -13.8303   21.7936 H   0  0  0  0  0  0
  -25.2770   -9.5687   22.4742 H   0  0  0  0  0  0
  -24.0009   -7.4639   22.7469 H   0  0  0  0  0  0
  -21.0850   -8.8775   19.8950 H   0  0  0  0  0  0
  -22.3706  -10.9668   19.6149 H   0  0  0  0  0  0
  -21.2012   -7.6139   23.9720 H   0  0  0  0  0  0
  -21.1459   -6.0508   25.9077 H   0  0  0  0  0  0
  -22.0606   -2.7612   23.2840 H   0  0  0  0  0  0
  -22.4070  -11.9889   22.4816 H   0  0  0  0  0  0
  -21.1082  -13.1251   22.2588 H   0  0  0  0  0  0
  -24.6480  -15.8403   20.5159 H   0  0  0  0  0  0
  -26.2616  -15.6341   20.0687 H   0  0  0  0  0  0
  -26.7210  -32.5409   23.1049 H   0  0  0  0  0  0
  -25.0068  -33.9674   25.0380 H   0  0  0  0  0  0
  -22.7250  -31.2962   21.3895 H   0  0  0  0  0  0
  -23.3754  -35.9572   23.3289 H   0  0  0  0  0  0
  -24.3575  -36.8887   22.2056 H   0  0  0  0  0  0
  -23.7210  -37.6440   23.6672 H   0  0  0  0  0  0
  -26.1101  -31.5276   20.6035 H   0  0  0  0  0  0
  -26.8505  -30.8216   22.0079 H   0  0  0  0  0  0
  -28.1338  -28.9400   21.1881 H   0  0  0  0  0  0
  -25.9927  -25.8699   19.0528 H   0  0  0  0  0  0
  -23.9744  -27.2750   19.0364 H   0  0  0  0  0  0
  -23.7772  -30.5734   19.3995 H   0  0  0  0  0  0
  -22.7675  -29.2354   19.8553 H   0  0  0  0  0  0
  -25.1280  -36.1885   25.0812 H   0  0  0  0  0  0
  -20.9993  -28.3287   24.1395 H   0  0  0  0  0  0
  -20.5661  -26.2307   23.3617 H   0  0  0  0  0  0
  -21.6643  -26.7443   22.1213 H   0  0  0  0  0  0
  -19.6904  -25.6312   21.1240 H   0  0  0  0  0  0
  -19.6689  -27.3209   20.6734 H   0  0  0  0  0  0
  -17.4199  -26.6698   21.4028 H   0  0  0  0  0  0
  -18.0327  -26.0091   22.9022 H   0  0  0  0  0  0
  -19.7944  -30.7286   24.2266 H   0  0  0  0  0  0
  -17.5023  -31.6275   24.5172 H   0  0  0  0  0  0
  -15.5358  -30.2990   23.7675 H   0  0  0  0  0  0
  -15.8676  -28.0825   22.7087 H   0  0  0  0  0  0
  -24.5872  -30.7148   25.7759 H   0  0  0  0  0  0
  -24.9001  -32.2938   26.4882 H   0  0  0  0  0  0
  -25.8062  -30.8886   27.0190 H   0  0  0  0  0  0
  -26.2907  -29.6732   24.1220 H   0  0  0  0  0  0
  -27.4007  -29.7235   25.4705 H   0  0  0  0  0  0
  -27.8795  -30.4216   23.9421 H   0  0  0  0  0  0
  -27.2671  -33.3620   26.2026 H   0  0  0  0  0  0
  -28.3892  -32.6862   25.0318 H   0  0  0  0  0  0
  -28.0712  -31.8457   26.5417 H   0  0  0  0  0  0
  -28.2562  -38.0101   24.7563 H   0  0  0  0  0  0
  -28.1106  -36.2640   24.6195 H   0  0  0  0  0  0
  -27.2315  -37.1319   25.8861 H   0  0  0  0  0  0
  -20.9400  -29.8734   21.6829 H   0  0  0  0  0  0
  -26.0138  -38.2819   24.1498 H   0  0  0  0  0  0
  -32.5334  -19.1966   22.3103 H   0  0  0  0  0  0
  -31.1719  -21.0621   21.4721 H   0  0  0  0  0  0
  -31.9279  -16.8641   21.8917 H   0  0  0  0  0  0
  -27.6034  -21.2622   23.6838 H   0  0  0  0  0  0
  -27.0672  -20.8073   21.9843 H   0  0  0  0  0  0
  -30.5113  -23.1131   22.5713 H   0  0  0  0  0  0
  -29.6378  -22.5382   23.9548 H   0  0  0  0  0  0
  -29.6391  -24.9138   24.1181 H   0  0  0  0  0  0
  -28.0077  -24.4878   23.6813 H   0  0  0  0  0  0
  -30.1962  -25.4954   21.7833 H   0  0  0  0  0  0
  -28.8972  -26.4397   22.4438 H   0  0  0  0  0  0
  -27.2444  -24.9221   21.2247 H   0  0  0  0  0  0
  -28.0462  -18.7634   18.5678 H   0  0  0  0  0  0
  -27.1910  -18.2888   20.0431 H   0  0  0  0  0  0
  -28.0723  -17.0944   19.0888 H   0  0  0  0  0  0
  -27.8626  -20.8210   19.7388 H   0  0  0  0  0  0
  -29.3377  -21.3217   18.9984 H   0  0  0  0  0  0
  -28.8214  -15.6544   20.5804 H   0  0  0  0  0  0
  1 25  1  0  0  0
  1 30  2  0  0  0
  1 87  1  0  0  0
  2  3  1  0  0  0
  2 25  1  0  0  0
  2 89  1  0  0  0
  2 90  1  0  0  0
  3  4  1  0  0  0
  3 91  1  0  0  0
  3 92  1  0  0  0
  4  5  1  0  0  0
  4 93  1  0  0  0
  4 94  1  0  0  0
  5  6  1  0  0  0
  5 26  1  0  0  0
  5 95  1  0  0  0
  6 25  1  0  0  0
  6 96  1  0  0  0
  6 97  1  0  0  0
  7  8  2  0  0  0
  7 26  1  0  0  0
  7 29  1  0  0  0
  8  9  1  0  0  0
  8 22  1  0  0  0
  9 10  1  0  0  0
  9 27  2  0  0  0
 10 11  2  0  0  0
 10 15  1  0  0  0
 11 12  1  0  0  0
 11 98  1  0  0  0
 12 13  2  0  0  0
 12 99  1  0  0  0
 13 14  1  0  0  0
 13 31  1  0  0  0
 14 15  2  0  0  0
 14100  1  0  0  0
 15101  1  0  0  0
 16 17  2  0  0  0
 16 21  1  0  0  0
 16 31  1  0  0  0
 17 18  1  0  0  0
 17102  1  0  0  0
 18 19  2  0  0  0
 18103  1  0  0  0
 19 20  1  0  0  0
 19 24  1  0  0  0
 20 21  2  0  0  0
 20104  1  0  0  0
 21 23  1  0  0  0
 22 28  1  0  0  0
 22 32  2  0  0  0
 26 27  1  0  0  0
 28105  1  0  0  0
 28106  1  0  0  0
 29107  1  0  0  0
 29108  1  0  0  0
 33 34  1  0  0  0
 33 66  1  0  0  0
 33 70  2  0  0  0
 34 36  1  0  0  0
 34 59  1  0  0  0
 34109  1  0  0  0
 35 44  2  0  0  0
 35 45  1  0  0  0
 35 68  1  0  0  0
 36 56  1  0  0  0
 36110  1  0  0  0
 37 39  1  0  0  0
 37 47  1  0  0  0
 37 66  1  0  0  0
 37111  1  0  0  0
 38 43  2  0  0  0
 38 46  1  0  0  0
 38 47  1  0  0  0
 39 64  1  0  0  0
 39 67  2  0  0  0
 40 52  1  0  0  0
 40 53  2  0  0  0
 40 58  1  0  0  0
 41112  1  0  0  0
 41113  1  0  0  0
 41114  1  0  0  0
 41 48  1  0  0  0
 42 43  1  0  0  0
 42 66  1  0  0  0
 42115  1  0  0  0
 42116  1  0  0  0
 43 44  1  0  0  0
 44117  1  0  0  0
 45 46  2  0  0  0
 45118  1  0  0  0
 46119  1  0  0  0
 47120  1  0  0  0
 47121  1  0  0  0
 48 56  1  0  0  0
 48 65  1  0  0  0
 48122  1  0  0  0
 49 50  1  0  0  0
 49 53  1  0  0  0
 49 64  1  0  0  0
 49123  1  0  0  0
 50 51  1  0  0  0
 50124  1  0  0  0
 50125  1  0  0  0
 51 52  1  0  0  0
 51126  1  0  0  0
 51127  1  0  0  0
 52128  1  0  0  0
 52129  1  0  0  0
 53 54  1  0  0  0
 54 55  2  0  0  0
 54130  1  0  0  0
 55 57  1  0  0  0
 55131  1  0  0  0
 56 69  2  0  0  0
 57 58  2  0  0  0
 57132  1  0  0  0
 58133  1  0  0  0
 59 60  1  0  0  0
 59 61  1  0  0  0
 59 62  1  0  0  0
 60134  1  0  0  0
 60135  1  0  0  0
 60136  1  0  0  0
 61137  1  0  0  0
 61138  1  0  0  0
 61139  1  0  0  0
 62140  1  0  0  0
 62141  1  0  0  0
 62142  1  0  0  0
 63 65  1  0  0  0
 63143  1  0  0  0
 63144  1  0  0  0
 63145  1  0  0  0
 64146  1  0  0  0
 65147  1  0  0  0
 68 83  1  0  0  0
 71 72  2  0  0  0
 71 73  1  0  0  0
 71148  1  0  0  0
 72 74  1  0  0  0
 72149  1  0  0  0
 73 76  2  0  0  0
 73150  1  0  0  0
 74 75  2  0  0  0
 74 85  1  0  0  0
 75 76  1  0  0  0
 75 84  1  0  0  0
 76 87  1  0  0  0
 77 79  2  0  0  0
 77 80  1  0  0  0
 77 86  1  0  0  0
 78 83  1  0  0  0
 78 86  1  0  0  0
 78 88  2  0  0  0
 79151  1  0  0  0
 79152  1  0  0  0
 80 81  1  0  0  0
 80153  1  0  0  0
 80154  1  0  0  0
 81 82  1  0  0  0
 81155  1  0  0  0
 81156  1  0  0  0
 82 83  1  0  0  0
 82157  1  0  0  0
 82158  1  0  0  0
 83159  1  0  0  0
 84160  1  0  0  0
 84161  1  0  0  0
 84162  1  0  0  0
 85 86  1  0  0  0
 85163  1  0  0  0
 85164  1  0  0  0
 87165  1  0  0  0
M  ISO  4   1 100  68 101  83 101  87 100
M  END
> <chiral flag>
0

> <version>
0

> <s_m_source_file>
/data/baiqing/PycharmProjects/Reinvent-master-3.2/result/LINK_invent/BTK/process_docking_weight1_custom_product_contain_oxygen_bond_distance_aromatic_linkinvent_7_9_3/rearranged_h_0060.sdf

> <i_m_source_file_index>
18

> <r_mmod_Potential_Energy-OPLS-2005>
281.371398925781

> <r_mmod_Stretch_Energy-OPLS-2005>
141.612915039062

> <r_mmod_Bend_Energy-OPLS-2005>
163.135482788086

> <r_mmod_Torsional_Energy-OPLS-2005>
278.208129882812

> <r_mmod_Improper_Torsional_Energy-OPLS-2005>
7.47748184204102

> <r_mmod_Van_der_Waal_Energy-OPLS-2005>
136.27961730957

> <r_mmod_Electrostatic_Energy-OPLS-2005>
-307.60302734375

> <r_mmod_Solvation_Energy-OPLS-2005>
-219.372344970703

> <b_mmod_Minimization_Converged-OPLS-2005>
0

> <r_mmod_RMS_Derivative-OPLS-2005>
1.58274734020233

$$$$
18
                    3D
 Structure written by MMmdl.
155163  0  0  1  0            999 V2000
  -30.6618  -14.5930   20.4750 C   0  0  0  0  0  0
  -30.4262  -12.3515   19.4591 C   0  0  0  0  0  0
  -29.5072  -12.5035   18.2277 C   0  0  0  0  0  0
  -28.0274  -12.3603   18.6323 C   0  0  0  0  0  0
  -27.6582  -13.2209   19.8718 C   0  0  2  0  0  0
  -28.7044  -13.0678   21.0022 C   0  0  0  0  0  0
  -25.2564  -13.8181   20.5714 C   0  0  0  0  0  0
  -24.1833  -13.0434   20.9197 C   0  0  0  0  0  0
  -24.6412  -11.6908   20.8752 C   0  0  0  0  0  0
  -23.9077  -10.4291   21.0411 C   0  0  0  0  0  0
  -24.3633   -9.4200   21.9180 C   0  0  0  0  0  0
  -23.6304   -8.2239   22.0758 C   0  0  0  0  0  0
  -22.4283   -8.0278   21.3545 C   0  0  0  0  0  0
  -21.9915   -9.0253   20.4647 C   0  0  0  0  0  0
  -22.7253  -10.2130   20.3050 C   0  0  0  0  0  0
  -21.6849   -6.0734   22.5282 C   0  0  0  0  0  0
  -21.4011   -6.5639   23.8220 C   0  0  0  0  0  0
  -21.3661   -5.6793   24.9180 C   0  0  0  0  0  0
  -21.6048   -4.3060   24.7229 C   0  0  0  0  0  0
  -21.8822   -3.8147   23.4350 C   0  0  0  0  0  0
  -21.9188   -4.6963   22.3402 C   0  0  0  0  0  0
  -22.7853  -13.5221   21.1852 C   0  0  0  0  0  0
  -22.1667   -4.2149   21.0981 F   0  0  0  0  0  0
  -21.5624   -3.4551   25.7752 F   0  0  0  0  0  0
  -30.0283  -13.3800   20.4417 N   0  0  0  0  0  0
  -26.3021  -12.9385   20.3370 N   0  0  0  0  0  0
  -25.9347  -11.6533   20.5794 N   0  0  0  0  0  0
  -22.0505  -12.8199   22.0405 N   0  0  0  0  0  0
  -25.4255  -15.1902   20.4125 N   0  0  0  0  0  0
  -31.8140  -14.7197   20.0648 O   0  0  0  0  0  0
  -21.6637   -6.8883   21.4246 O   0  0  0  0  0  0
  -22.3529  -14.5525   20.6702 O   0  0  0  0  0  0
  -24.6220  -31.8631   23.2054 C   0  0  0  0  0  0
  -25.9087  -32.4791   23.8377 C   0  0  1  0  0  0
  -27.2272  -27.3452   20.1189 C   0  0  0  0  0  0
  -25.5919  -33.8598   24.2307 N   0  0  0  0  0  0
  -23.4153  -30.4870   21.5465 C   0  0  2  0  0  0
  -24.8640  -28.9462   20.1112 C   0  0  0  0  0  0
  -22.7456  -29.4643   22.4944 C   0  0  0  0  0  0
  -18.0282  -28.1398   22.8487 C   0  0  0  0  0  0
  -24.1492  -36.7297   23.2635 C   0  0  0  0  0  0
  -25.9541  -30.7984   21.3777 C   0  0  0  0  0  0
  -26.0277  -29.4267   20.7242 C   0  0  0  0  0  0
  -27.2096  -28.6330   20.7283 C   0  0  0  0  0  0
  -26.0483  -26.9212   19.4617 C   0  0  0  0  0  0
  -24.8737  -27.6961   19.4731 C   0  0  0  0  0  0
  -23.6307  -29.8234   20.1605 C   0  0  0  0  0  0
  -25.4116  -36.3098   24.0331 C   0  0  1  0  0  0
  -20.5879  -28.3705   23.1291 C   0  0  2  0  0  0
  -20.6780  -26.9428   22.5421 C   0  0  0  0  0  0
  -19.5760  -26.6398   21.5220 C   0  0  0  0  0  0
  -18.1932  -26.7939   22.1618 C   0  0  0  0  0  0
  -19.1532  -28.8863   23.2887 C   0  0  0  0  0  0
  -18.9457  -30.1462   23.8910 C   0  0  0  0  0  0
  -17.6459  -30.6600   24.0570 C   0  0  0  0  0  0
  -25.9048  -34.9461   23.5119 C   0  0  0  0  0  0
  -16.5352  -29.9103   23.6324 C   0  0  0  0  0  0
  -16.7269  -28.6519   23.0350 C   0  0  0  0  0  0
  -26.4483  -31.6577   25.0727 C   0  0  0  0  0  0
  -25.3720  -31.3707   26.1450 C   0  0  0  0  0  0
  -27.0296  -30.2994   24.6156 C   0  0  0  0  0  0
  -27.6074  -32.4279   25.7480 C   0  0  0  0  0  0
  -27.5585  -37.1807   24.8462 C   0  0  0  0  0  0
  -21.4175  -29.3054   22.3681 N   0  0  0  0  0  0
  -26.4301  -37.3784   23.9401 N   0  0  0  0  0  0
  -24.6821  -31.0658   22.1005 N   0  0  0  0  0  0
  -23.4184  -28.8186   23.3022 O   0  0  0  0  0  0
  -28.3580  -26.5208   20.1509 O   0  0  0  0  0  0
  -26.5617  -34.8925   22.4685 O   0  0  0  0  0  0
  -23.5393  -32.1430   23.7393 O   0  0  0  0  0  0
  -32.2403  -19.4322   18.8251 C   0  0  0  0  0  0
  -31.7480  -20.6376   19.3429 C   0  0  0  0  0  0
  -29.8547  -19.4386   20.2894 C   0  0  0  0  0  0
  -31.5454  -18.2201   19.0022 C   0  0  0  0  0  0
  -30.3642  -18.1771   19.7988 C   0  0  0  0  0  0
  -30.5250  -20.6855   20.0368 C   0  0  0  0  0  0
  -29.2238  -24.2075   20.2384 C   0  0  0  0  0  0
  -28.2087  -25.1229   20.2282 C   0  0  0  0  0  0
  -29.0078  -22.7363   20.2262 C   0  0  0  0  0  0
  -32.0883  -17.0285   18.2295 C   0  0  0  0  0  0
  -29.5308  -16.8538   19.9297 C   0  0  0  0  0  0
  -30.1390  -22.0206   20.4579 N   0  0  0  0  0  0
  -29.8965  -15.6752   20.7893 N   0  0  0  0  0  0
  -27.9188  -22.1895   20.0334 O   0  0  0  0  0  0
  -31.4727  -12.4377   19.1630 H   0  0  0  0  0  0
  -30.3235  -11.3551   19.8933 H   0  0  0  0  0  0
  -29.7591  -11.7574   17.4726 H   0  0  0  0  0  0
  -29.6717  -13.4775   17.7612 H   0  0  0  0  0  0
  -27.8450  -11.3063   18.8469 H   0  0  0  0  0  0
  -27.3801  -12.6136   17.7915 H   0  0  0  0  0  0
  -27.6812  -14.2597   19.5434 H   0  0  0  0  0  0
  -28.6974  -12.0496   21.3944 H   0  0  0  0  0  0
  -28.4673  -13.7149   21.8470 H   0  0  0  0  0  0
  -25.2795   -9.5674   22.4740 H   0  0  0  0  0  0
  -24.0013   -7.4627   22.7478 H   0  0  0  0  0  0
  -21.0844   -8.8773   19.8951 H   0  0  0  0  0  0
  -22.3718  -10.9663   19.6154 H   0  0  0  0  0  0
  -21.2001   -7.6150   23.9721 H   0  0  0  0  0  0
  -21.1488   -6.0527   25.9077 H   0  0  0  0  0  0
  -22.0595   -2.7605   23.2857 H   0  0  0  0  0  0
  -22.4148  -11.9858   22.4769 H   0  0  0  0  0  0
  -21.1118  -13.1220   22.2631 H   0  0  0  0  0  0
  -24.6565  -15.8435   20.5155 H   0  0  0  0  0  0
  -26.2726  -15.6293   20.0776 H   0  0  0  0  0  0
  -26.7157  -32.5479   23.1134 H   0  0  0  0  0  0
  -25.0053  -33.9752   25.0439 H   0  0  0  0  0  0
  -22.7079  -31.3065   21.4044 H   0  0  0  0  0  0
  -23.3753  -35.9633   23.3321 H   0  0  0  0  0  0
  -24.3575  -36.8888   22.2047 H   0  0  0  0  0  0
  -23.7259  -37.6511   23.6638 H   0  0  0  0  0  0
  -26.0816  -31.5598   20.6072 H   0  0  0  0  0  0
  -26.8367  -30.8492   22.0035 H   0  0  0  0  0  0
  -28.1020  -28.9930   21.2208 H   0  0  0  0  0  0
  -26.0172  -25.9772   18.9377 H   0  0  0  0  0  0
  -23.9855  -27.3264   18.9796 H   0  0  0  0  0  0
  -23.7511  -30.6018   19.4060 H   0  0  0  0  0  0
  -22.7514  -29.2529   19.8557 H   0  0  0  0  0  0
  -25.1299  -36.1958   25.0827 H   0  0  0  0  0  0
  -20.9966  -28.3294   24.1414 H   0  0  0  0  0  0
  -20.5694  -26.2319   23.3626 H   0  0  0  0  0  0
  -21.6655  -26.7473   22.1217 H   0  0  0  0  0  0
  -19.6931  -25.6308   21.1262 H   0  0  0  0  0  0
  -19.6706  -27.3205   20.6750 H   0  0  0  0  0  0
  -17.4210  -26.6695   21.4013 H   0  0  0  0  0  0
  -18.0318  -26.0083   22.9011 H   0  0  0  0  0  0
  -19.7932  -30.7275   24.2297 H   0  0  0  0  0  0
  -17.5011  -31.6277   24.5173 H   0  0  0  0  0  0
  -15.5355  -30.3016   23.7632 H   0  0  0  0  0  0
  -15.8668  -28.0844   22.7063 H   0  0  0  0  0  0
  -24.5940  -30.6997   25.7786 H   0  0  0  0  0  0
  -24.8851  -32.2863   26.4823 H   0  0  0  0  0  0
  -25.8054  -30.8945   27.0253 H   0  0  0  0  0  0
  -26.2851  -29.6772   24.1176 H   0  0  0  0  0  0
  -27.3977  -29.7221   25.4648 H   0  0  0  0  0  0
  -27.8737  -30.4267   23.9374 H   0  0  0  0  0  0
  -27.2727  -33.3588   26.2072 H   0  0  0  0  0  0
  -28.3875  -32.6815   25.0287 H   0  0  0  0  0  0
  -28.0746  -31.8377   26.5374 H   0  0  0  0  0  0
  -28.2620  -38.0086   24.7486 H   0  0  0  0  0  0
  -28.1067  -36.2619   24.6321 H   0  0  0  0  0  0
  -27.2298  -37.1498   25.8864 H   0  0  0  0  0  0
  -20.9352  -29.8758   21.6876 H   0  0  0  0  0  0
  -26.0188  -38.2864   24.1387 H   0  0  0  0  0  0
  -33.1473  -19.4543   18.2360 H   0  0  0  0  0  0
  -32.3064  -21.5445   19.1529 H   0  0  0  0  0  0
  -28.9238  -19.4524   20.8386 H   0  0  0  0  0  0
  -30.2370  -24.5832   20.2224 H   0  0  0  0  0  0
  -27.1788  -24.7994   20.2763 H   0  0  0  0  0  0
  -32.9393  -16.5915   18.7491 H   0  0  0  0  0  0
  -32.4430  -17.3462   17.2479 H   0  0  0  0  0  0
  -31.3467  -16.2553   18.0415 H   0  0  0  0  0  0
  -29.3378  -16.4797   18.9230 H   0  0  0  0  0  0
  -28.5406  -17.1515   20.2766 H   0  0  0  0  0  0
  -30.9246  -22.6218   20.6640 H   0  0  0  0  0  0
  -29.1199  -15.4069   21.3746 H   0  0  0  0  0  0
  1 25  1  0  0  0
  1 30  2  0  0  0
  1 83  1  0  0  0
  2  3  1  0  0  0
  2 25  1  0  0  0
  2 85  1  0  0  0
  2 86  1  0  0  0
  3  4  1  0  0  0
  3 87  1  0  0  0
  3 88  1  0  0  0
  4  5  1  0  0  0
  4 89  1  0  0  0
  4 90  1  0  0  0
  5  6  1  0  0  0
  5 26  1  0  0  0
  5 91  1  0  0  0
  6 25  1  0  0  0
  6 92  1  0  0  0
  6 93  1  0  0  0
  7  8  2  0  0  0
  7 26  1  0  0  0
  7 29  1  0  0  0
  8  9  1  0  0  0
  8 22  1  0  0  0
  9 10  1  0  0  0
  9 27  2  0  0  0
 10 11  2  0  0  0
 10 15  1  0  0  0
 11 12  1  0  0  0
 11 94  1  0  0  0
 12 13  2  0  0  0
 12 95  1  0  0  0
 13 14  1  0  0  0
 13 31  1  0  0  0
 14 15  2  0  0  0
 14 96  1  0  0  0
 15 97  1  0  0  0
 16 17  2  0  0  0
 16 21  1  0  0  0
 16 31  1  0  0  0
 17 18  1  0  0  0
 17 98  1  0  0  0
 18 19  2  0  0  0
 18 99  1  0  0  0
 19 20  1  0  0  0
 19 24  1  0  0  0
 20 21  2  0  0  0
 20100  1  0  0  0
 21 23  1  0  0  0
 22 28  1  0  0  0
 22 32  2  0  0  0
 26 27  1  0  0  0
 28101  1  0  0  0
 28102  1  0  0  0
 29103  1  0  0  0
 29104  1  0  0  0
 33 34  1  0  0  0
 33 66  1  0  0  0
 33 70  2  0  0  0
 34 36  1  0  0  0
 34 59  1  0  0  0
 34105  1  0  0  0
 35 44  2  0  0  0
 35 45  1  0  0  0
 35 68  1  0  0  0
 36 56  1  0  0  0
 36106  1  0  0  0
 37 39  1  0  0  0
 37 47  1  0  0  0
 37 66  1  0  0  0
 37107  1  0  0  0
 38 43  2  0  0  0
 38 46  1  0  0  0
 38 47  1  0  0  0
 39 64  1  0  0  0
 39 67  2  0  0  0
 40 52  1  0  0  0
 40 53  2  0  0  0
 40 58  1  0  0  0
 41108  1  0  0  0
 41109  1  0  0  0
 41110  1  0  0  0
 41 48  1  0  0  0
 42 43  1  0  0  0
 42 66  1  0  0  0
 42111  1  0  0  0
 42112  1  0  0  0
 43 44  1  0  0  0
 44113  1  0  0  0
 45 46  2  0  0  0
 45114  1  0  0  0
 46115  1  0  0  0
 47116  1  0  0  0
 47117  1  0  0  0
 48 56  1  0  0  0
 48 65  1  0  0  0
 48118  1  0  0  0
 49 50  1  0  0  0
 49 53  1  0  0  0
 49 64  1  0  0  0
 49119  1  0  0  0
 50 51  1  0  0  0
 50120  1  0  0  0
 50121  1  0  0  0
 51 52  1  0  0  0
 51122  1  0  0  0
 51123  1  0  0  0
 52124  1  0  0  0
 52125  1  0  0  0
 53 54  1  0  0  0
 54 55  2  0  0  0
 54126  1  0  0  0
 55 57  1  0  0  0
 55127  1  0  0  0
 56 69  2  0  0  0
 57 58  2  0  0  0
 57128  1  0  0  0
 58129  1  0  0  0
 59 60  1  0  0  0
 59 61  1  0  0  0
 59 62  1  0  0  0
 60130  1  0  0  0
 60131  1  0  0  0
 60132  1  0  0  0
 61133  1  0  0  0
 61134  1  0  0  0
 61135  1  0  0  0
 62136  1  0  0  0
 62137  1  0  0  0
 62138  1  0  0  0
 63 65  1  0  0  0
 63139  1  0  0  0
 63140  1  0  0  0
 63141  1  0  0  0
 64142  1  0  0  0
 65143  1  0  0  0
 68 78  1  0  0  0
 71 72  2  0  0  0
 71 74  1  0  0  0
 71144  1  0  0  0
 72 76  1  0  0  0
 72145  1  0  0  0
 73 75  1  0  0  0
 73 76  2  0  0  0
 73146  1  0  0  0
 74 75  2  0  0  0
 74 80  1  0  0  0
 75 81  1  0  0  0
 76 82  1  0  0  0
 77 78  2  0  0  0
 77 79  1  0  0  0
 77147  1  0  0  0
 78148  1  0  0  0
 79 82  1  0  0  0
 79 84  2  0  0  0
 80149  1  0  0  0
 80150  1  0  0  0
 80151  1  0  0  0
 81 83  1  0  0  0
 81152  1  0  0  0
 81153  1  0  0  0
 82154  1  0  0  0
 83155  1  0  0  0
M  ISO  4   1 100  68 101  78 101  83 100
M  END
> <chiral flag>
0

> <version>
0

> <s_m_source_file>
/data/baiqing/PycharmProjects/Reinvent-master-3.2/result/LINK_invent/BTK/process_docking_weight1_custom_product_contain_oxygen_bond_distance_aromatic_linkinvent_7_9_3/rearranged_h_0060.sdf

> <i_m_source_file_index>
19

> <r_mmod_Potential_Energy-OPLS-2005>
-5.45364379882812

> <r_mmod_Stretch_Energy-OPLS-2005>
68.4193878173828

> <r_mmod_Bend_Energy-OPLS-2005>
148.543090820312

> <r_mmod_Torsional_Energy-OPLS-2005>
267.955505371094

> <r_mmod_Improper_Torsional_Energy-OPLS-2005>
10.6897993087769

> <r_mmod_Van_der_Waal_Energy-OPLS-2005>
144.944290161133

> <r_mmod_Electrostatic_Energy-OPLS-2005>
-445.401245117188

> <r_mmod_Solvation_Energy-OPLS-2005>
-237.068984985352

> <b_mmod_Minimization_Converged-OPLS-2005>
0

> <r_mmod_RMS_Derivative-OPLS-2005>
1.62833166122437

$$$$
19
                    3D
 Structure written by MMmdl.
161170  0  0  1  0            999 V2000
  -30.5255  -14.7654   20.4375 C   0  0  0  0  0  0
  -30.4235  -12.4567   19.5015 C   0  0  0  0  0  0
  -29.5188  -12.5239   18.2497 C   0  0  0  0  0  0
  -28.0297  -12.3673   18.6330 C   0  0  0  0  0  0
  -27.6312  -13.2369   19.8540 C   0  0  2  0  0  0
  -28.6616  -13.1386   20.9994 C   0  0  0  0  0  0
  -25.2449  -13.8245   20.5726 C   0  0  0  0  0  0
  -24.1715  -13.0495   20.9214 C   0  0  0  0  0  0
  -24.6304  -11.6968   20.8738 C   0  0  0  0  0  0
  -23.8982  -10.4329   21.0403 C   0  0  0  0  0  0
  -24.3574   -9.4236   21.9151 C   0  0  0  0  0  0
  -23.6277   -8.2270   22.0710 C   0  0  0  0  0  0
  -22.4244   -8.0276   21.3531 C   0  0  0  0  0  0
  -21.9859   -9.0242   20.4654 C   0  0  0  0  0  0
  -22.7161  -10.2135   20.3059 C   0  0  0  0  0  0
  -21.6908   -6.0698   22.5253 C   0  0  0  0  0  0
  -21.4060   -6.5621   23.8175 C   0  0  0  0  0  0
  -21.3662   -5.6771   24.9141 C   0  0  0  0  0  0
  -21.6046   -4.3042   24.7211 C   0  0  0  0  0  0
  -21.8834   -3.8131   23.4342 C   0  0  0  0  0  0
  -21.9240   -4.6939   22.3382 C   0  0  0  0  0  0
  -22.7733  -13.5254   21.1823 C   0  0  0  0  0  0
  -22.1661   -4.2120   21.0941 F   0  0  0  0  0  0
  -21.5589   -3.4522   25.7717 F   0  0  0  0  0  0
  -29.9656  -13.5061   20.4391 N   0  0  0  0  0  0
  -26.2826  -12.9442   20.3232 N   0  0  0  0  0  0
  -25.9232  -11.6590   20.5722 N   0  0  0  0  0  0
  -22.0448  -12.8246   22.0451 N   0  0  0  0  0  0
  -25.4168  -15.1971   20.4246 N   0  0  0  0  0  0
  -31.6984  -14.9072   20.0813 O   0  0  0  0  0  0
  -21.6658   -6.8851   21.4204 O   0  0  0  0  0  0
  -22.3386  -14.5531   20.6626 O   0  0  0  0  0  0
  -24.6330  -31.8528   23.1909 C   0  0  0  0  0  0
  -25.9161  -32.4723   23.8256 C   0  0  1  0  0  0
  -27.1974  -27.2204   20.1390 C   0  0  0  0  0  0
  -25.5938  -33.8508   24.2197 N   0  0  0  0  0  0
  -23.4286  -30.4739   21.5403 C   0  0  2  0  0  0
  -24.8670  -28.9039   20.1167 C   0  0  0  0  0  0
  -22.7519  -29.4592   22.4945 C   0  0  0  0  0  0
  -18.0319  -28.1369   22.8530 C   0  0  0  0  0  0
  -24.1484  -36.7272   23.2640 C   0  0  0  0  0  0
  -25.9735  -30.7576   21.3680 C   0  0  0  0  0  0
  -26.0418  -29.3700   20.7183 C   0  0  0  0  0  0
  -27.2168  -28.5455   20.7026 C   0  0  0  0  0  0
  -25.9986  -26.8178   19.5258 C   0  0  0  0  0  0
  -24.8510  -27.6382   19.5081 C   0  0  0  0  0  0
  -23.6426  -29.7992   20.1600 C   0  0  0  0  0  0
  -25.4117  -36.3044   24.0317 C   0  0  1  0  0  0
  -20.5905  -28.3703   23.1315 C   0  0  2  0  0  0
  -20.6783  -26.9423   22.5440 C   0  0  0  0  0  0
  -19.5765  -26.6373   21.5234 C   0  0  0  0  0  0
  -18.1959  -26.7902   22.1668 C   0  0  0  0  0  0
  -19.1559  -28.8854   23.2912 C   0  0  0  0  0  0
  -18.9464  -30.1443   23.8926 C   0  0  0  0  0  0
  -17.6463  -30.6569   24.0581 C   0  0  0  0  0  0
  -25.9076  -34.9420   23.5068 C   0  0  0  0  0  0
  -16.5351  -29.9070   23.6342 C   0  0  0  0  0  0
  -16.7293  -28.6479   23.0377 C   0  0  0  0  0  0
  -26.4491  -31.6552   25.0657 C   0  0  0  0  0  0
  -25.3706  -31.3724   26.1376 C   0  0  0  0  0  0
  -27.0324  -30.2951   24.6152 C   0  0  0  0  0  0
  -27.6035  -32.4276   25.7449 C   0  0  0  0  0  0
  -27.5579  -37.1799   24.8466 C   0  0  0  0  0  0
  -21.4215  -29.3053   22.3708 N   0  0  0  0  0  0
  -26.4293  -37.3744   23.9408 N   0  0  0  0  0  0
  -24.6994  -31.0461   22.0910 N   0  0  0  0  0  0
  -23.4240  -28.8158   23.3055 O   0  0  0  0  0  0
  -28.2962  -26.3346   20.0600 O   0  0  0  0  0  0
  -26.5656  -34.8910   22.4638 O   0  0  0  0  0  0
  -23.5489  -32.1335   23.7235 O   0  0  0  0  0  0
  -29.3002  -16.9625   18.5546 C   0  0  0  0  0  0
  -29.1318  -18.4361   20.4749 C   0  0  0  0  0  0
  -28.8281  -18.0014   17.7250 C   0  0  0  0  0  0
  -28.4886  -19.2830   18.2669 C   0  0  0  0  0  0
  -28.7001  -19.5727   19.6539 C   0  0  0  0  0  0
  -29.4424  -17.1065   19.9449 C   0  0  0  0  0  0
  -27.3533  -21.1872   21.0470 C   0  0  0  0  0  0
  -27.1110  -22.6846   21.3068 C   0  0  0  0  0  0
  -28.8478  -22.3140   19.7375 C   0  0  0  0  0  0
  -27.8407  -23.4888   20.2028 C   0  0  2  0  0  0
  -27.7894  -20.3045   17.3635 C   0  0  0  0  0  0
  -28.3195  -24.9766   20.7290 C   0  0  0  0  0  0
  -28.6398  -17.6603   16.2395 C   0  0  0  0  0  0
  -28.3596  -20.9441   20.1876 N   0  0  0  0  0  0
  -29.6984  -15.8565   20.7194 N   0  0  0  0  0  0
  -26.6694  -20.3241   21.6037 O   0  0  0  0  0  0
  -29.3068  -16.5563   15.8935 F   0  0  0  0  0  0
  -27.3496  -17.4459   15.9848 F   0  0  0  0  0  0
  -29.0847  -18.6429   15.4556 F   0  0  0  0  0  0
  -31.4720  -12.5786   19.2269 H   0  0  0  0  0  0
  -30.3577  -11.4768   19.9736 H   0  0  0  0  0  0
  -29.8074  -11.7548   17.5329 H   0  0  0  0  0  0
  -29.6799  -13.4789   17.7491 H   0  0  0  0  0  0
  -27.8610  -11.3179   18.8632 H   0  0  0  0  0  0
  -27.3904  -12.6018   17.7790 H   0  0  0  0  0  0
  -27.6275  -14.2639   19.4952 H   0  0  0  0  0  0
  -28.7005  -12.1281   21.4133 H   0  0  0  0  0  0
  -28.3782  -13.7958   21.8232 H   0  0  0  0  0  0
  -25.2705   -9.5741   22.4724 H   0  0  0  0  0  0
  -24.0040   -7.4663   22.7396 H   0  0  0  0  0  0
  -21.0785   -8.8713   19.8974 H   0  0  0  0  0  0
  -22.3555  -10.9637   19.6163 H   0  0  0  0  0  0
  -21.2092   -7.6131   23.9664 H   0  0  0  0  0  0
  -21.1427   -6.0476   25.9016 H   0  0  0  0  0  0
  -22.0645   -2.7606   23.2813 H   0  0  0  0  0  0
  -22.4130  -11.9932   22.4835 H   0  0  0  0  0  0
  -21.1029  -13.1141   22.2647 H   0  0  0  0  0  0
  -24.6767  -15.8633   20.6198 H   0  0  0  0  0  0
  -26.2595  -15.6372   20.0819 H   0  0  0  0  0  0
  -26.7255  -32.5369   23.1024 H   0  0  0  0  0  0
  -25.0037  -33.9622   25.0310 H   0  0  0  0  0  0
  -22.7262  -31.2969   21.3962 H   0  0  0  0  0  0
  -23.3731  -35.9622   23.3284 H   0  0  0  0  0  0
  -24.3590  -36.8892   22.2061 H   0  0  0  0  0  0
  -23.7253  -37.6473   23.6666 H   0  0  0  0  0  0
  -26.1075  -31.5133   20.5927 H   0  0  0  0  0  0
  -26.8526  -30.8122   21.9964 H   0  0  0  0  0  0
  -28.1308  -28.9143   21.1467 H   0  0  0  0  0  0
  -25.9398  -25.8476   19.0576 H   0  0  0  0  0  0
  -23.9495  -27.2772   19.0332 H   0  0  0  0  0  0
  -23.7756  -30.5672   19.3982 H   0  0  0  0  0  0
  -22.7538  -29.2403   19.8623 H   0  0  0  0  0  0
  -25.1310  -36.1869   25.0810 H   0  0  0  0  0  0
  -21.0007  -28.3263   24.1424 H   0  0  0  0  0  0
  -20.5713  -26.2324   23.3646 H   0  0  0  0  0  0
  -21.6677  -26.7467   22.1265 H   0  0  0  0  0  0
  -19.6947  -25.6297   21.1240 H   0  0  0  0  0  0
  -19.6702  -27.3185   20.6769 H   0  0  0  0  0  0
  -17.4238  -26.6693   21.4054 H   0  0  0  0  0  0
  -18.0349  -26.0003   22.9021 H   0  0  0  0  0  0
  -19.7927  -30.7271   24.2289 H   0  0  0  0  0  0
  -17.5026  -31.6286   24.5147 H   0  0  0  0  0  0
  -15.5350  -30.2988   23.7633 H   0  0  0  0  0  0
  -15.8729  -28.0811   22.7053 H   0  0  0  0  0  0
  -24.5886  -30.7064   25.7695 H   0  0  0  0  0  0
  -24.8909  -32.2912   26.4752 H   0  0  0  0  0  0
  -25.8004  -30.8924   27.0179 H   0  0  0  0  0  0
  -26.2901  -29.6696   24.1163 H   0  0  0  0  0  0
  -27.3972  -29.7196   25.4677 H   0  0  0  0  0  0
  -27.8790  -30.4176   23.9387 H   0  0  0  0  0  0
  -27.2631  -33.3579   26.1986 H   0  0  0  0  0  0
  -28.3860  -32.6798   25.0294 H   0  0  0  0  0  0
  -28.0668  -31.8417   26.5394 H   0  0  0  0  0  0
  -28.2594  -38.0097   24.7504 H   0  0  0  0  0  0
  -28.1067  -36.2624   24.6293 H   0  0  0  0  0  0
  -27.2305  -37.1467   25.8870 H   0  0  0  0  0  0
  -20.9408  -29.8796   21.6922 H   0  0  0  0  0  0
  -26.0145  -38.2803   24.1389 H   0  0  0  0  0  0
  -29.4782  -15.9970   18.1019 H   0  0  0  0  0  0
  -29.1908  -18.5849   21.5451 H   0  0  0  0  0  0
  -27.5143  -22.8983   22.2970 H   0  0  0  0  0  0
  -26.0434  -22.8960   21.3270 H   0  0  0  0  0  0
  -29.8262  -22.4633   20.1924 H   0  0  0  0  0  0
  -29.0047  -22.3571   18.6607 H   0  0  0  0  0  0
  -27.1049  -23.6420   19.4125 H   0  0  0  0  0  0
  -27.2201  -19.8158   16.5723 H   0  0  0  0  0  0
  -28.4994  -20.9748   16.8776 H   0  0  0  0  0  0
  -27.0455  -20.8918   17.9052 H   0  0  0  0  0  0
  -29.3708  -24.8411   20.9914 H   0  0  0  0  0  0
  -27.8448  -25.1463   21.6968 H   0  0  0  0  0  0
  -28.8808  -15.5571   21.2314 H   0  0  0  0  0  0
  1 25  1  0  0  0
  1 30  2  0  0  0
  1 85  1  0  0  0
  2  3  1  0  0  0
  2 25  1  0  0  0
  2 90  1  0  0  0
  2 91  1  0  0  0
  3  4  1  0  0  0
  3 92  1  0  0  0
  3 93  1  0  0  0
  4  5  1  0  0  0
  4 94  1  0  0  0
  4 95  1  0  0  0
  5  6  1  0  0  0
  5 26  1  0  0  0
  5 96  1  0  0  0
  6 25  1  0  0  0
  6 97  1  0  0  0
  6 98  1  0  0  0
  7  8  2  0  0  0
  7 26  1  0  0  0
  7 29  1  0  0  0
  8  9  1  0  0  0
  8 22  1  0  0  0
  9 10  1  0  0  0
  9 27  2  0  0  0
 10 11  2  0  0  0
 10 15  1  0  0  0
 11 12  1  0  0  0
 11 99  1  0  0  0
 12 13  2  0  0  0
 12100  1  0  0  0
 13 14  1  0  0  0
 13 31  1  0  0  0
 14 15  2  0  0  0
 14101  1  0  0  0
 15102  1  0  0  0
 16 17  2  0  0  0
 16 21  1  0  0  0
 16 31  1  0  0  0
 17 18  1  0  0  0
 17103  1  0  0  0
 18 19  2  0  0  0
 18104  1  0  0  0
 19 20  1  0  0  0
 19 24  1  0  0  0
 20 21  2  0  0  0
 20105  1  0  0  0
 21 23  1  0  0  0
 22 28  1  0  0  0
 22 32  2  0  0  0
 26 27  1  0  0  0
 28106  1  0  0  0
 28107  1  0  0  0
 29108  1  0  0  0
 29109  1  0  0  0
 33 34  1  0  0  0
 33 66  1  0  0  0
 33 70  2  0  0  0
 34 36  1  0  0  0
 34 59  1  0  0  0
 34110  1  0  0  0
 35 44  2  0  0  0
 35 45  1  0  0  0
 35 68  1  0  0  0
 36 56  1  0  0  0
 36111  1  0  0  0
 37 39  1  0  0  0
 37 47  1  0  0  0
 37 66  1  0  0  0
 37112  1  0  0  0
 38 43  2  0  0  0
 38 46  1  0  0  0
 38 47  1  0  0  0
 39 64  1  0  0  0
 39 67  2  0  0  0
 40 52  1  0  0  0
 40 53  2  0  0  0
 40 58  1  0  0  0
 41113  1  0  0  0
 41114  1  0  0  0
 41115  1  0  0  0
 41 48  1  0  0  0
 42 43  1  0  0  0
 42 66  1  0  0  0
 42116  1  0  0  0
 42117  1  0  0  0
 43 44  1  0  0  0
 44118  1  0  0  0
 45 46  2  0  0  0
 45119  1  0  0  0
 46120  1  0  0  0
 47121  1  0  0  0
 47122  1  0  0  0
 48 56  1  0  0  0
 48 65  1  0  0  0
 48123  1  0  0  0
 49 50  1  0  0  0
 49 53  1  0  0  0
 49 64  1  0  0  0
 49124  1  0  0  0
 50 51  1  0  0  0
 50125  1  0  0  0
 50126  1  0  0  0
 51 52  1  0  0  0
 51127  1  0  0  0
 51128  1  0  0  0
 52129  1  0  0  0
 52130  1  0  0  0
 53 54  1  0  0  0
 54 55  2  0  0  0
 54131  1  0  0  0
 55 57  1  0  0  0
 55132  1  0  0  0
 56 69  2  0  0  0
 57 58  2  0  0  0
 57133  1  0  0  0
 58134  1  0  0  0
 59 60  1  0  0  0
 59 61  1  0  0  0
 59 62  1  0  0  0
 60135  1  0  0  0
 60136  1  0  0  0
 60137  1  0  0  0
 61138  1  0  0  0
 61139  1  0  0  0
 61140  1  0  0  0
 62141  1  0  0  0
 62142  1  0  0  0
 62143  1  0  0  0
 63 65  1  0  0  0
 63144  1  0  0  0
 63145  1  0  0  0
 63146  1  0  0  0
 64147  1  0  0  0
 65148  1  0  0  0
 68 82  1  0  0  0
 71 73  2  0  0  0
 71 76  1  0  0  0
 71149  1  0  0  0
 72 75  1  0  0  0
 72 76  2  0  0  0
 72150  1  0  0  0
 73 74  1  0  0  0
 73 83  1  0  0  0
 74 75  2  0  0  0
 74 81  1  0  0  0
 75 84  1  0  0  0
 76 85  1  0  0  0
 77 78  1  0  0  0
 77 84  1  0  0  0
 77 86  2  0  0  0
 78 80  1  0  0  0
 78151  1  0  0  0
 78152  1  0  0  0
 79 80  1  0  0  0
 79 84  1  0  0  0
 79153  1  0  0  0
 79154  1  0  0  0
 80 82  1  0  0  0
 80155  1  0  0  0
 81156  1  0  0  0
 81157  1  0  0  0
 81158  1  0  0  0
 82159  1  0  0  0
 82160  1  0  0  0
 83 87  1  0  0  0
 83 88  1  0  0  0
 83 89  1  0  0  0
 85161  1  0  0  0
M  ISO  4   1 100  68 101  82 101  85 100
M  END
> <chiral flag>
0

> <version>
0

> <s_m_source_file>
/data/baiqing/PycharmProjects/Reinvent-master-3.2/result/LINK_invent/BTK/process_docking_weight1_custom_product_contain_oxygen_bond_distance_aromatic_linkinvent_7_9_3/rearranged_h_0060.sdf

> <i_m_source_file_index>
20

> <r_mmod_Potential_Energy-OPLS-2005>
414.833465576172

> <r_mmod_Stretch_Energy-OPLS-2005>
151.332260131836

> <r_mmod_Bend_Energy-OPLS-2005>
232.146942138672

> <r_mmod_Torsional_Energy-OPLS-2005>
351.431823730469

> <r_mmod_Improper_Torsional_Energy-OPLS-2005>
7.75494623184204

> <r_mmod_Van_der_Waal_Energy-OPLS-2005>
131.590682983398

> <r_mmod_Electrostatic_Energy-OPLS-2005>
-337.931030273438

> <r_mmod_Solvation_Energy-OPLS-2005>
-220.898941040039

> <b_mmod_Minimization_Converged-OPLS-2005>
0

> <r_mmod_RMS_Derivative-OPLS-2005>
6.0238037109375

$$$$
20
                    3D
 Structure written by MMmdl.
163172  0  0  1  0            999 V2000
  -30.6040  -14.6903   20.4789 C   0  0  0  0  0  0
  -30.4391  -12.4204   19.4707 C   0  0  0  0  0  0
  -29.5193  -12.5175   18.2332 C   0  0  0  0  0  0
  -28.0378  -12.3608   18.6350 C   0  0  0  0  0  0
  -27.6529  -13.2276   19.8653 C   0  0  2  0  0  0
  -28.6956  -13.0987   20.9986 C   0  0  0  0  0  0
  -25.2554  -13.8182   20.5714 C   0  0  0  0  0  0
  -24.1819  -13.0437   20.9187 C   0  0  0  0  0  0
  -24.6408  -11.6909   20.8746 C   0  0  0  0  0  0
  -23.9082  -10.4285   21.0414 C   0  0  0  0  0  0
  -24.3632   -9.4192   21.9189 C   0  0  0  0  0  0
  -23.6291   -8.2238   22.0755 C   0  0  0  0  0  0
  -22.4269   -8.0302   21.3547 C   0  0  0  0  0  0
  -21.9920   -9.0281   20.4655 C   0  0  0  0  0  0
  -22.7261  -10.2141   20.3058 C   0  0  0  0  0  0
  -21.6844   -6.0738   22.5269 C   0  0  0  0  0  0
  -21.4002   -6.5632   23.8206 C   0  0  0  0  0  0
  -21.3654   -5.6781   24.9169 C   0  0  0  0  0  0
  -21.6053   -4.3047   24.7212 C   0  0  0  0  0  0
  -21.8816   -3.8145   23.4324 C   0  0  0  0  0  0
  -21.9187   -4.6968   22.3381 C   0  0  0  0  0  0
  -22.7835  -13.5235   21.1849 C   0  0  0  0  0  0
  -22.1657   -4.2161   21.0954 F   0  0  0  0  0  0
  -21.5638   -3.4527   25.7719 F   0  0  0  0  0  0
  -30.0068  -13.4533   20.4380 N   0  0  0  0  0  0
  -26.2995  -12.9383   20.3329 N   0  0  0  0  0  0
  -25.9342  -11.6531   20.5762 N   0  0  0  0  0  0
  -22.0461  -12.8247   22.0415 N   0  0  0  0  0  0
  -25.4283  -15.1912   20.4153 N   0  0  0  0  0  0
  -31.7543  -14.8457   20.0572 O   0  0  0  0  0  0
  -21.6631   -6.8901   21.4241 O   0  0  0  0  0  0
  -22.3534  -14.5548   20.6717 O   0  0  0  0  0  0
  -24.6313  -31.8551   23.2019 C   0  0  0  0  0  0
  -25.9143  -32.4747   23.8354 C   0  0  1  0  0  0
  -27.2140  -27.2695   20.1172 C   0  0  0  0  0  0
  -25.5943  -33.8552   24.2275 N   0  0  0  0  0  0
  -23.4269  -30.4814   21.5447 C   0  0  2  0  0  0
  -24.8716  -28.9348   20.1077 C   0  0  0  0  0  0
  -22.7503  -29.4598   22.4903 C   0  0  0  0  0  0
  -18.0284  -28.1406   22.8473 C   0  0  0  0  0  0
  -24.1479  -36.7270   23.2642 C   0  0  0  0  0  0
  -25.9745  -30.7692   21.3828 C   0  0  0  0  0  0
  -26.0442  -29.3955   20.7201 C   0  0  0  0  0  0
  -27.2173  -28.5744   20.7164 C   0  0  0  0  0  0
  -26.0188  -26.8862   19.4631 C   0  0  0  0  0  0
  -24.8633  -27.6870   19.4707 C   0  0  0  0  0  0
  -23.6446  -29.8237   20.1584 C   0  0  0  0  0  0
  -25.4101  -36.3060   24.0331 C   0  0  1  0  0  0
  -20.5889  -28.3707   23.1259 C   0  0  2  0  0  0
  -20.6770  -26.9419   22.5411 C   0  0  0  0  0  0
  -19.5746  -26.6382   21.5218 C   0  0  0  0  0  0
  -18.1924  -26.7941   22.1624 C   0  0  0  0  0  0
  -19.1539  -28.8874   23.2858 C   0  0  0  0  0  0
  -18.9473  -30.1476   23.8874 C   0  0  0  0  0  0
  -17.6473  -30.6597   24.0571 C   0  0  0  0  0  0
  -25.9051  -34.9433   23.5105 C   0  0  0  0  0  0
  -16.5361  -29.9099   23.6339 C   0  0  0  0  0  0
  -16.7272  -28.6524   23.0340 C   0  0  0  0  0  0
  -26.4515  -31.6570   25.0739 C   0  0  0  0  0  0
  -25.3752  -31.3738   26.1483 C   0  0  0  0  0  0
  -27.0369  -30.2976   24.6244 C   0  0  0  0  0  0
  -27.6054  -32.4331   25.7511 C   0  0  0  0  0  0
  -27.5562  -37.1792   24.8460 C   0  0  0  0  0  0
  -21.4208  -29.3045   22.3648 N   0  0  0  0  0  0
  -26.4267  -37.3761   23.9413 N   0  0  0  0  0  0
  -24.6968  -31.0525   22.0995 N   0  0  0  0  0  0
  -23.4199  -28.8110   23.2984 O   0  0  0  0  0  0
  -28.3023  -26.3687   20.1923 O   0  0  0  0  0  0
  -26.5622  -34.8908   22.4676 O   0  0  0  0  0  0
  -23.5466  -32.1382   23.7308 O   0  0  0  0  0  0
  -28.7516  -19.4454   18.9057 C   0  0  0  0  0  0
  -29.1011  -17.0138   18.9158 C   0  0  0  0  0  0
  -29.6676  -18.3535   20.8627 C   0  0  0  0  0  0
  -28.6624  -18.1848   18.2581 C   0  0  0  0  0  0
  -29.2697  -19.6090   20.2193 C   0  0  0  0  0  0
  -29.6039  -17.0521   20.2313 C   0  0  0  0  0  0
  -29.8489  -21.2705   22.0297 C   0  0  0  0  0  0
  -28.0727  -18.0495   16.8900 C   0  0  0  0  0  0
  -29.9590  -22.7079   22.5729 C   0  0  0  0  0  0
  -28.9429  -23.7107   22.0211 C   0  0  0  0  0  0
  -28.7682  -22.2170   20.0092 C   0  0  0  0  0  0
  -29.0096  -23.7377   20.5028 C   0  0  1  0  0  0
  -27.6800  -19.3184   16.1392 C   0  0  0  0  0  0
  -28.0639  -24.9099   19.9201 C   0  0  0  0  0  0
  -29.3332  -21.0125   20.7865 N   0  0  0  0  0  0
  -29.8486  -15.7619   20.9030 N   0  0  0  0  0  0
  -30.2826  -20.4037   22.7920 O   0  0  0  0  0  0
  -27.8899  -16.9595   16.3385 O   0  0  0  0  0  0
  -31.4837  -12.5414   19.1766 H   0  0  0  0  0  0
  -30.3741  -11.4300   19.9228 H   0  0  0  0  0  0
  -29.7931  -11.7548   17.5040 H   0  0  0  0  0  0
  -29.6662  -13.4784   17.7374 H   0  0  0  0  0  0
  -27.8668  -11.3063   18.8580 H   0  0  0  0  0  0
  -27.3944  -12.6007   17.7871 H   0  0  0  0  0  0
  -27.6651  -14.2640   19.5286 H   0  0  0  0  0  0
  -28.7120  -12.0773   21.3815 H   0  0  0  0  0  0
  -28.4365  -13.7334   21.8478 H   0  0  0  0  0  0
  -25.2779   -9.5640   22.4780 H   0  0  0  0  0  0
  -23.9990   -7.4597   22.7447 H   0  0  0  0  0  0
  -21.0865   -8.8819   19.8935 H   0  0  0  0  0  0
  -22.3756  -10.9698   19.6176 H   0  0  0  0  0  0
  -21.1979   -7.6129   23.9722 H   0  0  0  0  0  0
  -21.1488   -6.0502   25.9082 H   0  0  0  0  0  0
  -22.0603   -2.7615   23.2820 H   0  0  0  0  0  0
  -22.4054  -11.9915   22.4822 H   0  0  0  0  0  0
  -21.1086  -13.1305   22.2586 H   0  0  0  0  0  0
  -24.6690  -15.8531   20.5267 H   0  0  0  0  0  0
  -26.2899  -15.6279   20.1132 H   0  0  0  0  0  0
  -26.7200  -32.5399   23.1085 H   0  0  0  0  0  0
  -25.0087  -33.9680   25.0420 H   0  0  0  0  0  0
  -22.7233  -31.3047   21.4033 H   0  0  0  0  0  0
  -23.3736  -35.9607   23.3304 H   0  0  0  0  0  0
  -24.3567  -36.8891   22.2054 H   0  0  0  0  0  0
  -23.7242  -37.6475   23.6674 H   0  0  0  0  0  0
  -26.1191  -31.5320   20.6164 H   0  0  0  0  0  0
  -26.8510  -30.8115   22.0182 H   0  0  0  0  0  0
  -28.1125  -28.9187   21.2140 H   0  0  0  0  0  0
  -25.9397  -25.9413   18.9471 H   0  0  0  0  0  0
  -23.9643  -27.3329   18.9826 H   0  0  0  0  0  0
  -23.7759  -30.6062   19.4101 H   0  0  0  0  0  0
  -22.7605  -29.2646   19.8463 H   0  0  0  0  0  0
  -25.1275  -36.1908   25.0819 H   0  0  0  0  0  0
  -20.9973  -28.3307   24.1386 H   0  0  0  0  0  0
  -20.5676  -26.2316   23.3617 H   0  0  0  0  0  0
  -21.6643  -26.7442   22.1218 H   0  0  0  0  0  0
  -19.6901  -25.6298   21.1241 H   0  0  0  0  0  0
  -19.6676  -27.3185   20.6745 H   0  0  0  0  0  0
  -17.4193  -26.6687   21.4033 H   0  0  0  0  0  0
  -18.0309  -26.0096   22.9029 H   0  0  0  0  0  0
  -19.7955  -30.7305   24.2216 H   0  0  0  0  0  0
  -17.5033  -31.6270   24.5189 H   0  0  0  0  0  0
  -15.5367  -30.3004   23.7674 H   0  0  0  0  0  0
  -15.8665  -28.0849   22.7048 H   0  0  0  0  0  0
  -24.5899  -30.7100   25.7849 H   0  0  0  0  0  0
  -24.8989  -32.2924   26.4924 H   0  0  0  0  0  0
  -25.8098  -30.8925   27.0256 H   0  0  0  0  0  0
  -26.2969  -29.6706   24.1258 H   0  0  0  0  0  0
  -27.4017  -29.7251   25.4782 H   0  0  0  0  0  0
  -27.8859  -30.4213   23.9513 H   0  0  0  0  0  0
  -27.2632  -33.3624   26.2074 H   0  0  0  0  0  0
  -28.3880  -32.6908   25.0362 H   0  0  0  0  0  0
  -28.0712  -31.8483   26.5451 H   0  0  0  0  0  0
  -28.2589  -38.0081   24.7508 H   0  0  0  0  0  0
  -28.1059  -36.2621   24.6288 H   0  0  0  0  0  0
  -27.2294  -37.1444   25.8867 H   0  0  0  0  0  0
  -20.9385  -29.8787   21.6874 H   0  0  0  0  0  0
  -26.0143  -38.2827   24.1442 H   0  0  0  0  0  0
  -28.3898  -20.3045   18.3689 H   0  0  0  0  0  0
  -29.0022  -16.0602   18.4152 H   0  0  0  0  0  0
  -30.0241  -18.3362   21.8794 H   0  0  0  0  0  0
  -30.9710  -23.0658   22.3771 H   0  0  0  0  0  0
  -29.8568  -22.6709   23.6584 H   0  0  0  0  0  0
  -29.1534  -24.7033   22.4206 H   0  0  0  0  0  0
  -27.9371  -23.4449   22.3508 H   0  0  0  0  0  0
  -29.1431  -22.1733   18.9875 H   0  0  0  0  0  0
  -27.6921  -22.0545   19.9404 H   0  0  0  0  0  0
  -30.0294  -24.0007   20.2164 H   0  0  0  0  0  0
  -26.8734  -19.8355   16.6591 H   0  0  0  0  0  0
  -27.3339  -19.0734   15.1348 H   0  0  0  0  0  0
  -28.5326  -19.9913   16.0499 H   0  0  0  0  0  0
  -27.0674  -24.6521   20.2796 H   0  0  0  0  0  0
  -28.0319  -24.8004   18.8346 H   0  0  0  0  0  0
  -29.0664  -15.4567   21.4653 H   0  0  0  0  0  0
  1 25  1  0  0  0
  1 30  2  0  0  0
  1 86  1  0  0  0
  2  3  1  0  0  0
  2 25  1  0  0  0
  2 89  1  0  0  0
  2 90  1  0  0  0
  3  4  1  0  0  0
  3 91  1  0  0  0
  3 92  1  0  0  0
  4  5  1  0  0  0
  4 93  1  0  0  0
  4 94  1  0  0  0
  5  6  1  0  0  0
  5 26  1  0  0  0
  5 95  1  0  0  0
  6 25  1  0  0  0
  6 96  1  0  0  0
  6 97  1  0  0  0
  7  8  2  0  0  0
  7 26  1  0  0  0
  7 29  1  0  0  0
  8  9  1  0  0  0
  8 22  1  0  0  0
  9 10  1  0  0  0
  9 27  2  0  0  0
 10 11  2  0  0  0
 10 15  1  0  0  0
 11 12  1  0  0  0
 11 98  1  0  0  0
 12 13  2  0  0  0
 12 99  1  0  0  0
 13 14  1  0  0  0
 13 31  1  0  0  0
 14 15  2  0  0  0
 14100  1  0  0  0
 15101  1  0  0  0
 16 17  2  0  0  0
 16 21  1  0  0  0
 16 31  1  0  0  0
 17 18  1  0  0  0
 17102  1  0  0  0
 18 19  2  0  0  0
 18103  1  0  0  0
 19 20  1  0  0  0
 19 24  1  0  0  0
 20 21  2  0  0  0
 20104  1  0  0  0
 21 23  1  0  0  0
 22 28  1  0  0  0
 22 32  2  0  0  0
 26 27  1  0  0  0
 28105  1  0  0  0
 28106  1  0  0  0
 29107  1  0  0  0
 29108  1  0  0  0
 33 34  1  0  0  0
 33 66  1  0  0  0
 33 70  2  0  0  0
 34 36  1  0  0  0
 34 59  1  0  0  0
 34109  1  0  0  0
 35 44  2  0  0  0
 35 45  1  0  0  0
 35 68  1  0  0  0
 36 56  1  0  0  0
 36110  1  0  0  0
 37 39  1  0  0  0
 37 47  1  0  0  0
 37 66  1  0  0  0
 37111  1  0  0  0
 38 43  2  0  0  0
 38 46  1  0  0  0
 38 47  1  0  0  0
 39 64  1  0  0  0
 39 67  2  0  0  0
 40 52  1  0  0  0
 40 53  2  0  0  0
 40 58  1  0  0  0
 41112  1  0  0  0
 41113  1  0  0  0
 41114  1  0  0  0
 41 48  1  0  0  0
 42 43  1  0  0  0
 42 66  1  0  0  0
 42115  1  0  0  0
 42116  1  0  0  0
 43 44  1  0  0  0
 44117  1  0  0  0
 45 46  2  0  0  0
 45118  1  0  0  0
 46119  1  0  0  0
 47120  1  0  0  0
 47121  1  0  0  0
 48 56  1  0  0  0
 48 65  1  0  0  0
 48122  1  0  0  0
 49 50  1  0  0  0
 49 53  1  0  0  0
 49 64  1  0  0  0
 49123  1  0  0  0
 50 51  1  0  0  0
 50124  1  0  0  0
 50125  1  0  0  0
 51 52  1  0  0  0
 51126  1  0  0  0
 51127  1  0  0  0
 52128  1  0  0  0
 52129  1  0  0  0
 53 54  1  0  0  0
 54 55  2  0  0  0
 54130  1  0  0  0
 55 57  1  0  0  0
 55131  1  0  0  0
 56 69  2  0  0  0
 57 58  2  0  0  0
 57132  1  0  0  0
 58133  1  0  0  0
 59 60  1  0  0  0
 59 61  1  0  0  0
 59 62  1  0  0  0
 60134  1  0  0  0
 60135  1  0  0  0
 60136  1  0  0  0
 61137  1  0  0  0
 61138  1  0  0  0
 61139  1  0  0  0
 62140  1  0  0  0
 62141  1  0  0  0
 62142  1  0  0  0
 63 65  1  0  0  0
 63143  1  0  0  0
 63144  1  0  0  0
 63145  1  0  0  0
 64146  1  0  0  0
 65147  1  0  0  0
 68 84  1  0  0  0
 71 74  2  0  0  0
 71 75  1  0  0  0
 71148  1  0  0  0
 72 74  1  0  0  0
 72 76  2  0  0  0
 72149  1  0  0  0
 73 75  2  0  0  0
 73 76  1  0  0  0
 73150  1  0  0  0
 74 78  1  0  0  0
 75 85  1  0  0  0
 76 86  1  0  0  0
 77 79  1  0  0  0
 77 85  1  0  0  0
 77 87  2  0  0  0
 78 83  1  0  0  0
 78 88  2  0  0  0
 79 80  1  0  0  0
 79151  1  0  0  0
 79152  1  0  0  0
 80 82  1  0  0  0
 80153  1  0  0  0
 80154  1  0  0  0
 81 82  1  0  0  0
 81 85  1  0  0  0
 81155  1  0  0  0
 81156  1  0  0  0
 82 84  1  0  0  0
 82157  1  0  0  0
 83158  1  0  0  0
 83159  1  0  0  0
 83160  1  0  0  0
 84161  1  0  0  0
 84162  1  0  0  0
 86163  1  0  0  0
M  ISO  4   1 100  68 101  84 101  86 100
M  END
> <chiral flag>
0

> <version>
0

> <s_m_source_file>
/data/baiqing/PycharmProjects/Reinvent-master-3.2/result/LINK_invent/BTK/process_docking_weight1_custom_product_contain_oxygen_bond_distance_aromatic_linkinvent_7_9_3/rearranged_h_0060.sdf

> <i_m_source_file_index>
21

> <r_mmod_Potential_Energy-OPLS-2005>
238.553253173828

> <r_mmod_Stretch_Energy-OPLS-2005>
131.787139892578

> <r_mmod_Bend_Energy-OPLS-2005>
169.727645874023

> <r_mmod_Torsional_Energy-OPLS-2005>
306.1318359375

> <r_mmod_Improper_Torsional_Energy-OPLS-2005>
5.9264063835144

> <r_mmod_Van_der_Waal_Energy-OPLS-2005>
163.719711303711

> <r_mmod_Electrostatic_Energy-OPLS-2005>
-371.915557861328

> <r_mmod_Solvation_Energy-OPLS-2005>
-238.623519897461

> <b_mmod_Minimization_Converged-OPLS-2005>
0

> <r_mmod_RMS_Derivative-OPLS-2005>
2.62995147705078

$$$$
21
                    3D
 Structure written by MMmdl.
154162  0  0  1  0            999 V2000
  -30.4987  -15.0596   20.4040 C   0  0  0  0  0  0
  -30.4465  -12.6684   19.4927 C   0  0  0  0  0  0
  -29.5250  -12.5354   18.2571 C   0  0  0  0  0  0
  -28.0629  -12.3024   18.6841 C   0  0  0  0  0  0
  -27.6215  -13.2544   19.8257 C   0  0  2  0  0  0
  -28.6668  -13.3333   20.9566 C   0  0  0  0  0  0
  -25.2439  -13.8219   20.5730 C   0  0  0  0  0  0
  -24.1768  -13.0436   20.9259 C   0  0  0  0  0  0
  -24.6391  -11.6923   20.8768 C   0  0  0  0  0  0
  -23.9074  -10.4292   21.0407 C   0  0  0  0  0  0
  -24.3620   -9.4202   21.9181 C   0  0  0  0  0  0
  -23.6298   -8.2236   22.0741 C   0  0  0  0  0  0
  -22.4279   -8.0274   21.3534 C   0  0  0  0  0  0
  -21.9917   -9.0251   20.4635 C   0  0  0  0  0  0
  -22.7247  -10.2135   20.3051 C   0  0  0  0  0  0
  -21.6854   -6.0733   22.5285 C   0  0  0  0  0  0
  -21.4011   -6.5631   23.8220 C   0  0  0  0  0  0
  -21.3664   -5.6784   24.9183 C   0  0  0  0  0  0
  -21.6051   -4.3048   24.7233 C   0  0  0  0  0  0
  -21.8819   -3.8138   23.4353 C   0  0  0  0  0  0
  -21.9193   -4.6960   22.3410 C   0  0  0  0  0  0
  -22.7781  -13.5201   21.1913 C   0  0  0  0  0  0
  -22.1662   -4.2140   21.0988 F   0  0  0  0  0  0
  -21.5630   -3.4533   25.7746 F   0  0  0  0  0  0
  -29.9203  -13.7831   20.3382 N   0  0  0  0  0  0
  -26.2852  -12.9462   20.3222 N   0  0  0  0  0  0
  -25.9323  -11.6586   20.5733 N   0  0  0  0  0  0
  -22.0419  -12.8194   22.0463 N   0  0  0  0  0  0
  -25.4082  -15.1951   20.4149 N   0  0  0  0  0  0
  -31.7216  -15.1022   20.2219 O   0  0  0  0  0  0
  -21.6641   -6.8873   21.4240 O   0  0  0  0  0  0
  -22.3471  -14.5506   20.6751 O   0  0  0  0  0  0
  -24.6530  -31.8364   23.1802 C   0  0  0  0  0  0
  -25.9266  -32.4648   23.8227 C   0  0  1  0  0  0
  -27.2192  -27.0509   20.1821 C   0  0  0  0  0  0
  -25.5980  -33.8456   24.2150 N   0  0  0  0  0  0
  -23.4591  -30.4525   21.5279 C   0  0  2  0  0  0
  -24.9073  -28.8540   20.1234 C   0  0  0  0  0  0
  -22.7614  -29.4516   22.4840 C   0  0  0  0  0  0
  -18.0315  -28.1396   22.8465 C   0  0  0  0  0  0
  -24.1491  -36.7231   23.2642 C   0  0  0  0  0  0
  -26.0195  -30.6851   21.3880 C   0  0  0  0  0  0
  -26.0894  -29.2848   20.7386 C   0  0  0  0  0  0
  -27.2464  -28.4050   20.7386 C   0  0  0  0  0  0
  -26.0028  -26.7315   19.5438 C   0  0  0  0  0  0
  -24.8806  -27.5916   19.5100 C   0  0  0  0  0  0
  -23.6902  -29.7701   20.1531 C   0  0  0  0  0  0
  -25.4126  -36.3005   24.0313 C   0  0  1  0  0  0
  -20.5933  -28.3733   23.1210 C   0  0  2  0  0  0
  -20.6800  -26.9428   22.5401 C   0  0  0  0  0  0
  -19.5775  -26.6377   21.5209 C   0  0  0  0  0  0
  -18.1961  -26.7929   22.1620 C   0  0  0  0  0  0
  -19.1572  -28.8885   23.2826 C   0  0  0  0  0  0
  -18.9487  -30.1477   23.8862 C   0  0  0  0  0  0
  -17.6485  -30.6595   24.0552 C   0  0  0  0  0  0
  -25.9086  -34.9385   23.5051 C   0  0  0  0  0  0
  -16.5372  -29.9087   23.6340 C   0  0  0  0  0  0
  -16.7297  -28.6503   23.0359 C   0  0  0  0  0  0
  -26.4549  -31.6547   25.0708 C   0  0  0  0  0  0
  -25.3716  -31.3769   26.1392 C   0  0  0  0  0  0
  -27.0431  -30.2935   24.6358 C   0  0  0  0  0  0
  -27.6059  -32.4337   25.7503 C   0  0  0  0  0  0
  -27.5574  -37.1776   24.8470 C   0  0  0  0  0  0
  -21.4295  -29.3052   22.3583 N   0  0  0  0  0  0
  -26.4279  -37.3736   23.9419 N   0  0  0  0  0  0
  -24.7306  -31.0157   22.0866 N   0  0  0  0  0  0
  -23.4214  -28.8082   23.3041 O   0  0  0  0  0  0
  -28.2905  -26.0607   20.1461 O   0  0  0  0  0  0
  -26.5670  -34.8899   22.4632 O   0  0  0  0  0  0
  -23.5633  -32.1260   23.6993 O   0  0  0  0  0  0
  -31.1729  -19.5730   21.7667 C   0  0  0  0  0  0
  -30.3805  -20.6472   21.2833 C   0  0  0  0  0  0
  -30.9595  -18.2119   21.4228 C   0  0  0  0  0  0
  -29.3192  -20.4441   20.3802 C   0  0  0  0  0  0
  -29.0954  -18.9744   20.0818 C   0  0  0  0  0  0
  -29.9036  -17.7994   20.5817 C   0  0  0  0  0  0
  -28.5903  -21.7452   19.7137 C   0  0  0  0  0  0
  -28.2257  -23.1592   19.7056 C   0  0  0  0  0  0
  -27.9399  -18.6534   19.1527 C   0  0  0  0  0  0
  -27.5118  -23.5913   18.4303 C   0  0  0  0  0  0
  -28.2586  -24.5426   20.6470 C   0  0  0  0  0  0
  -29.6890  -16.2594   20.3866 N   0  0  0  0  0  0
  -31.4701  -12.8608   19.1678 H   0  0  0  0  0  0
  -30.4842  -11.7344   20.0557 H   0  0  0  0  0  0
  -29.8641  -11.7190   17.6169 H   0  0  0  0  0  0
  -29.5903  -13.4440   17.6564 H   0  0  0  0  0  0
  -27.9821  -11.2667   19.0182 H   0  0  0  0  0  0
  -27.3962  -12.3996   17.8264 H   0  0  0  0  0  0
  -27.5652  -14.2434   19.3690 H   0  0  0  0  0  0
  -28.7882  -12.3704   21.4550 H   0  0  0  0  0  0
  -28.3504  -14.0442   21.7219 H   0  0  0  0  0  0
  -25.2761   -9.5689   22.4763 H   0  0  0  0  0  0
  -24.0008   -7.4624   22.7457 H   0  0  0  0  0  0
  -21.0846   -8.8775   19.8941 H   0  0  0  0  0  0
  -22.3701  -10.9669   19.6163 H   0  0  0  0  0  0
  -21.1999   -7.6137   23.9727 H   0  0  0  0  0  0
  -21.1488   -6.0510   25.9089 H   0  0  0  0  0  0
  -22.0596   -2.7595   23.2863 H   0  0  0  0  0  0
  -22.4033  -11.9870   22.4890 H   0  0  0  0  0  0
  -21.1023  -13.1196   22.2627 H   0  0  0  0  0  0
  -24.6362  -15.8422   20.5320 H   0  0  0  0  0  0
  -26.2487  -15.6420   20.0767 H   0  0  0  0  0  0
  -26.7332  -32.5230   23.0945 H   0  0  0  0  0  0
  -25.0109  -33.9548   25.0286 H   0  0  0  0  0  0
  -22.7660  -31.2805   21.3653 H   0  0  0  0  0  0
  -23.3767  -35.9551   23.3279 H   0  0  0  0  0  0
  -24.3570  -36.8896   22.2063 H   0  0  0  0  0  0
  -23.7229  -37.6416   23.6691 H   0  0  0  0  0  0
  -26.1833  -31.4307   20.6094 H   0  0  0  0  0  0
  -26.8860  -30.7386   22.0356 H   0  0  0  0  0  0
  -28.1541  -28.7434   21.2180 H   0  0  0  0  0  0
  -25.9030  -25.7684   19.0707 H   0  0  0  0  0  0
  -23.9769  -27.2527   19.0231 H   0  0  0  0  0  0
  -23.8403  -30.5368   19.3910 H   0  0  0  0  0  0
  -22.8019  -29.2195   19.8391 H   0  0  0  0  0  0
  -25.1317  -36.1813   25.0801 H   0  0  0  0  0  0
  -20.9991  -28.3312   24.1344 H   0  0  0  0  0  0
  -20.5684  -26.2347   23.3628 H   0  0  0  0  0  0
  -21.6668  -26.7432   22.1207 H   0  0  0  0  0  0
  -19.6950  -25.6279   21.1262 H   0  0  0  0  0  0
  -19.6704  -27.3160   20.6715 H   0  0  0  0  0  0
  -17.4228  -26.6669   21.4018 H   0  0  0  0  0  0
  -18.0358  -26.0079   22.9025 H   0  0  0  0  0  0
  -19.7963  -30.7295   24.2224 H   0  0  0  0  0  0
  -17.5045  -31.6274   24.5161 H   0  0  0  0  0  0
  -15.5380  -30.2981   23.7703 H   0  0  0  0  0  0
  -15.8692  -28.0810   22.7096 H   0  0  0  0  0  0
  -24.5885  -30.7121   25.7711 H   0  0  0  0  0  0
  -24.8915  -32.2967   26.4751 H   0  0  0  0  0  0
  -25.7982  -30.8982   27.0215 H   0  0  0  0  0  0
  -26.3072  -29.6632   24.1346 H   0  0  0  0  0  0
  -27.3985  -29.7265   25.4974 H   0  0  0  0  0  0
  -27.9001  -30.4151   23.9729 H   0  0  0  0  0  0
  -27.2627  -33.3658   26.2008 H   0  0  0  0  0  0
  -28.3905  -32.6877   25.0359 H   0  0  0  0  0  0
  -28.0680  -31.8515   26.5487 H   0  0  0  0  0  0
  -28.2589  -38.0078   24.7528 H   0  0  0  0  0  0
  -28.1077  -36.2614   24.6278 H   0  0  0  0  0  0
  -27.2295  -37.1400   25.8873 H   0  0  0  0  0  0
  -20.9526  -29.8768   21.6743 H   0  0  0  0  0  0
  -26.0137  -38.2804   24.1420 H   0  0  0  0  0  0
  -31.9936  -19.8069   22.4307 H   0  0  0  0  0  0
  -30.6411  -21.6561   21.5728 H   0  0  0  0  0  0
  -31.6158  -17.4672   21.8517 H   0  0  0  0  0  0
  -28.2454  -21.3265   18.7821 H   0  0  0  0  0  0
  -27.0464  -19.1974   19.4594 H   0  0  0  0  0  0
  -27.6964  -17.5919   19.1516 H   0  0  0  0  0  0
  -28.1852  -18.9445   18.1319 H   0  0  0  0  0  0
  -27.6253  -22.8960   17.5983 H   0  0  0  0  0  0
  -27.8896  -24.5513   18.0789 H   0  0  0  0  0  0
  -26.4450  -23.6899   18.6282 H   0  0  0  0  0  0
  -29.0926  -24.4224   21.3385 H   0  0  0  0  0  0
  -27.3741  -24.4772   21.2814 H   0  0  0  0  0  0
  -28.7186  -16.0172   20.2628 H   0  0  0  0  0  0
  1 25  1  0  0  0
  1 30  2  0  0  0
  1 82  1  0  0  0
  2  3  1  0  0  0
  2 25  1  0  0  0
  2 83  1  0  0  0
  2 84  1  0  0  0
  3  4  1  0  0  0
  3 85  1  0  0  0
  3 86  1  0  0  0
  4  5  1  0  0  0
  4 87  1  0  0  0
  4 88  1  0  0  0
  5  6  1  0  0  0
  5 26  1  0  0  0
  5 89  1  0  0  0
  6 25  1  0  0  0
  6 90  1  0  0  0
  6 91  1  0  0  0
  7  8  2  0  0  0
  7 26  1  0  0  0
  7 29  1  0  0  0
  8  9  1  0  0  0
  8 22  1  0  0  0
  9 10  1  0  0  0
  9 27  2  0  0  0
 10 11  2  0  0  0
 10 15  1  0  0  0
 11 12  1  0  0  0
 11 92  1  0  0  0
 12 13  2  0  0  0
 12 93  1  0  0  0
 13 14  1  0  0  0
 13 31  1  0  0  0
 14 15  2  0  0  0
 14 94  1  0  0  0
 15 95  1  0  0  0
 16 17  2  0  0  0
 16 21  1  0  0  0
 16 31  1  0  0  0
 17 18  1  0  0  0
 17 96  1  0  0  0
 18 19  2  0  0  0
 18 97  1  0  0  0
 19 20  1  0  0  0
 19 24  1  0  0  0
 20 21  2  0  0  0
 20 98  1  0  0  0
 21 23  1  0  0  0
 22 28  1  0  0  0
 22 32  2  0  0  0
 26 27  1  0  0  0
 28 99  1  0  0  0
 28100  1  0  0  0
 29101  1  0  0  0
 29102  1  0  0  0
 33 34  1  0  0  0
 33 66  1  0  0  0
 33 70  2  0  0  0
 34 36  1  0  0  0
 34 59  1  0  0  0
 34103  1  0  0  0
 35 44  2  0  0  0
 35 45  1  0  0  0
 35 68  1  0  0  0
 36 56  1  0  0  0
 36104  1  0  0  0
 37 39  1  0  0  0
 37 47  1  0  0  0
 37 66  1  0  0  0
 37105  1  0  0  0
 38 43  2  0  0  0
 38 46  1  0  0  0
 38 47  1  0  0  0
 39 64  1  0  0  0
 39 67  2  0  0  0
 40 52  1  0  0  0
 40 53  2  0  0  0
 40 58  1  0  0  0
 41106  1  0  0  0
 41107  1  0  0  0
 41108  1  0  0  0
 41 48  1  0  0  0
 42 43  1  0  0  0
 42 66  1  0  0  0
 42109  1  0  0  0
 42110  1  0  0  0
 43 44  1  0  0  0
 44111  1  0  0  0
 45 46  2  0  0  0
 45112  1  0  0  0
 46113  1  0  0  0
 47114  1  0  0  0
 47115  1  0  0  0
 48 56  1  0  0  0
 48 65  1  0  0  0
 48116  1  0  0  0
 49 50  1  0  0  0
 49 53  1  0  0  0
 49 64  1  0  0  0
 49117  1  0  0  0
 50 51  1  0  0  0
 50118  1  0  0  0
 50119  1  0  0  0
 51 52  1  0  0  0
 51120  1  0  0  0
 51121  1  0  0  0
 52122  1  0  0  0
 52123  1  0  0  0
 53 54  1  0  0  0
 54 55  2  0  0  0
 54124  1  0  0  0
 55 57  1  0  0  0
 55125  1  0  0  0
 56 69  2  0  0  0
 57 58  2  0  0  0
 57126  1  0  0  0
 58127  1  0  0  0
 59 60  1  0  0  0
 59 61  1  0  0  0
 59 62  1  0  0  0
 60128  1  0  0  0
 60129  1  0  0  0
 60130  1  0  0  0
 61131  1  0  0  0
 61132  1  0  0  0
 61133  1  0  0  0
 62134  1  0  0  0
 62135  1  0  0  0
 62136  1  0  0  0
 63 65  1  0  0  0
 63137  1  0  0  0
 63138  1  0  0  0
 63139  1  0  0  0
 64140  1  0  0  0
 65141  1  0  0  0
 68 81  1  0  0  0
 71 72  2  0  0  0
 71 73  1  0  0  0
 71142  1  0  0  0
 72 74  1  0  0  0
 72143  1  0  0  0
 73 76  2  0  0  0
 73144  1  0  0  0
 74 75  2  0  0  0
 74 77  1  0  0  0
 75 76  1  0  0  0
 75 79  1  0  0  0
 76 82  1  0  0  0
 77 78  2  0  0  0
 77145  1  0  0  0
 78 80  1  0  0  0
 78 81  1  0  0  0
 79146  1  0  0  0
 79147  1  0  0  0
 79148  1  0  0  0
 80149  1  0  0  0
 80150  1  0  0  0
 80151  1  0  0  0
 81152  1  0  0  0
 81153  1  0  0  0
 82154  1  0  0  0
M  ISO  4   1 100  68 101  81 101  82 100
M  END
> <chiral flag>
0

> <version>
0

> <s_m_source_file>
/data/baiqing/PycharmProjects/Reinvent-master-3.2/result/LINK_invent/BTK/process_docking_weight1_custom_product_contain_oxygen_bond_distance_aromatic_linkinvent_7_9_3/rearranged_h_0060.sdf

> <i_m_source_file_index>
22

> <r_mmod_Potential_Energy-OPLS-2005>
812.412475585938

> <r_mmod_Stretch_Energy-OPLS-2005>
351.553192138672

> <r_mmod_Bend_Energy-OPLS-2005>
382.171844482422

> <r_mmod_Torsional_Energy-OPLS-2005>
247.456085205078

> <r_mmod_Improper_Torsional_Energy-OPLS-2005>
7.79991865158081

> <r_mmod_Van_der_Waal_Energy-OPLS-2005>
126.60359954834

> <r_mmod_Electrostatic_Energy-OPLS-2005>
-369.031494140625

> <r_mmod_Solvation_Energy-OPLS-2005>
-205.061508178711

> <b_mmod_Minimization_Converged-OPLS-2005>
0

> <r_mmod_RMS_Derivative-OPLS-2005>
1.45814883708954

$$$$
22
                    3D
 Structure written by MMmdl.
155163  0  0  1  0            999 V2000
  -30.7100  -14.5166   20.5519 C   0  0  0  0  0  0
  -30.4169  -12.3308   19.4349 C   0  0  0  0  0  0
  -29.4933  -12.4993   18.2119 C   0  0  0  0  0  0
  -28.0167  -12.3547   18.6267 C   0  0  0  0  0  0
  -27.6550  -13.2154   19.8671 C   0  0  2  0  0  0
  -28.6990  -13.0455   20.9943 C   0  0  0  0  0  0
  -25.2554  -13.8174   20.5679 C   0  0  0  0  0  0
  -24.1826  -13.0440   20.9199 C   0  0  0  0  0  0
  -24.6394  -11.6913   20.8751 C   0  0  0  0  0  0
  -23.9065  -10.4294   21.0412 C   0  0  0  0  0  0
  -24.3617   -9.4207   21.9187 C   0  0  0  0  0  0
  -23.6292   -8.2242   22.0755 C   0  0  0  0  0  0
  -22.4274   -8.0282   21.3545 C   0  0  0  0  0  0
  -21.9910   -9.0257   20.4648 C   0  0  0  0  0  0
  -22.7239  -10.2136   20.3059 C   0  0  0  0  0  0
  -21.6852   -6.0736   22.5279 C   0  0  0  0  0  0
  -21.4013   -6.5640   23.8213 C   0  0  0  0  0  0
  -21.3658   -5.6793   24.9175 C   0  0  0  0  0  0
  -21.6045   -4.3056   24.7226 C   0  0  0  0  0  0
  -21.8818   -3.8147   23.4347 C   0  0  0  0  0  0
  -21.9192   -4.6963   22.3403 C   0  0  0  0  0  0
  -22.7847  -13.5233   21.1854 C   0  0  0  0  0  0
  -22.1661   -4.2149   21.0980 F   0  0  0  0  0  0
  -21.5628   -3.4539   25.7739 F   0  0  0  0  0  0
  -30.0231  -13.3449   20.4290 N   0  0  0  0  0  0
  -26.2993  -12.9362   20.3342 N   0  0  0  0  0  0
  -25.9322  -11.6516   20.5776 N   0  0  0  0  0  0
  -22.0487  -12.8228   22.0411 N   0  0  0  0  0  0
  -25.4244  -15.1888   20.4038 N   0  0  0  0  0  0
  -31.8544  -14.6428   20.1084 O   0  0  0  0  0  0
  -21.6639   -6.8879   21.4242 O   0  0  0  0  0  0
  -22.3534  -14.5540   20.6701 O   0  0  0  0  0  0
  -24.6183  -31.8658   23.2085 C   0  0  0  0  0  0
  -25.9064  -32.4812   23.8388 C   0  0  1  0  0  0
  -27.2254  -27.4005   20.1069 C   0  0  0  0  0  0
  -25.5908  -33.8610   24.2317 N   0  0  0  0  0  0
  -23.4082  -30.4899   21.5492 C   0  0  2  0  0  0
  -24.8557  -28.9567   20.1097 C   0  0  0  0  0  0
  -22.7433  -29.4648   22.4970 C   0  0  0  0  0  0
  -18.0275  -28.1378   22.8488 C   0  0  0  0  0  0
  -24.1488  -36.7311   23.2638 C   0  0  0  0  0  0
  -25.9413  -30.8225   21.3670 C   0  0  0  0  0  0
  -26.0194  -29.4561   20.7104 C   0  0  0  0  0  0
  -27.2116  -28.6872   20.7031 C   0  0  0  0  0  0
  -26.0496  -26.9351   19.4803 C   0  0  0  0  0  0
  -24.8679  -27.6976   19.4875 C   0  0  0  0  0  0
  -23.6185  -29.8257   20.1627 C   0  0  0  0  0  0
  -25.4109  -36.3105   24.0335 C   0  0  1  0  0  0
  -20.5869  -28.3671   23.1305 C   0  0  2  0  0  0
  -20.6766  -26.9403   22.5413 C   0  0  0  0  0  0
  -19.5744  -26.6385   21.5209 C   0  0  0  0  0  0
  -18.1923  -26.7922   22.1621 C   0  0  0  0  0  0
  -19.1526  -28.8840   23.2893 C   0  0  0  0  0  0
  -18.9454  -30.1445   23.8906 C   0  0  0  0  0  0
  -17.6457  -30.6584   24.0564 C   0  0  0  0  0  0
  -25.9038  -34.9471   23.5124 C   0  0  0  0  0  0
  -16.5348  -29.9086   23.6328 C   0  0  0  0  0  0
  -16.7265  -28.6502   23.0349 C   0  0  0  0  0  0
  -26.4479  -31.6596   25.0725 C   0  0  0  0  0  0
  -25.3738  -31.3710   26.1470 C   0  0  0  0  0  0
  -27.0309  -30.3033   24.6117 C   0  0  0  0  0  0
  -27.6054  -32.4317   25.7487 C   0  0  0  0  0  0
  -27.5581  -37.1810   24.8465 C   0  0  0  0  0  0
  -21.4157  -29.3036   22.3713 N   0  0  0  0  0  0
  -26.4295  -37.3791   23.9408 N   0  0  0  0  0  0
  -24.6743  -31.0736   22.0998 N   0  0  0  0  0  0
  -23.4192  -28.8188   23.3022 O   0  0  0  0  0  0
  -28.3399  -26.5796   20.1446 O   0  0  0  0  0  0
  -26.5602  -34.8927   22.4687 O   0  0  0  0  0  0
  -23.5367  -32.1422   23.7461 O   0  0  0  0  0  0
  -32.3133  -18.4046   21.9813 C   0  0  0  0  0  0
  -31.5462  -19.5393   21.6759 C   0  0  0  0  0  0
  -31.7987  -17.1192   21.7553 C   0  0  0  0  0  0
  -29.7120  -18.0999   20.9339 C   0  0  0  0  0  0
  -30.2427  -19.4195   21.1381 C   0  0  0  0  0  0
  -30.5051  -16.9346   21.2148 C   0  0  0  0  0  0
  -28.8529  -22.8984   20.7240 C   0  0  0  0  0  0
  -29.1365  -24.2294   20.6646 C   0  0  0  0  0  0
  -29.8897  -21.8679   20.5942 C   0  0  0  0  0  0
  -28.3021  -17.9429   20.3800 C   0  0  0  0  0  0
  -28.1145  -25.3529   20.8870 C   0  0  0  0  0  0
  -29.4585  -20.6119   20.8892 N   0  0  0  0  0  0
  -30.0150  -15.5884   21.0142 N   0  0  0  0  0  0
  -31.0448  -22.1096   20.2334 O   0  0  0  0  0  0
  -31.4619  -12.4182   19.1324 H   0  0  0  0  0  0
  -30.3152  -11.3307   19.8590 H   0  0  0  0  0  0
  -29.7402  -11.7610   17.4479 H   0  0  0  0  0  0
  -29.6550  -13.4777   17.7567 H   0  0  0  0  0  0
  -27.8384  -11.3008   18.8438 H   0  0  0  0  0  0
  -27.3633  -12.6059   17.7903 H   0  0  0  0  0  0
  -27.6844  -14.2556   19.5423 H   0  0  0  0  0  0
  -28.6844  -12.0244   21.3784 H   0  0  0  0  0  0
  -28.4611  -13.6853   21.8453 H   0  0  0  0  0  0
  -25.2762   -9.5681   22.4763 H   0  0  0  0  0  0
  -24.0001   -7.4632   22.7473 H   0  0  0  0  0  0
  -21.0841   -8.8777   19.8953 H   0  0  0  0  0  0
  -22.3699  -10.9677   19.6169 H   0  0  0  0  0  0
  -21.2006   -7.6148   23.9716 H   0  0  0  0  0  0
  -21.1481   -6.0523   25.9078 H   0  0  0  0  0  0
  -22.0599   -2.7609   23.2848 H   0  0  0  0  0  0
  -22.4100  -11.9889   22.4801 H   0  0  0  0  0  0
  -21.1105  -13.1256   22.2615 H   0  0  0  0  0  0
  -24.6502  -15.8375   20.4963 H   0  0  0  0  0  0
  -26.2575  -15.6187   20.0251 H   0  0  0  0  0  0
  -26.7135  -32.5515   23.1151 H   0  0  0  0  0  0
  -25.0063  -33.9767   25.0466 H   0  0  0  0  0  0
  -22.6981  -31.3078   21.4101 H   0  0  0  0  0  0
  -23.3746  -35.9648   23.3310 H   0  0  0  0  0  0
  -24.3581  -36.8917   22.2051 H   0  0  0  0  0  0
  -23.7245  -37.6520   23.6647 H   0  0  0  0  0  0
  -26.0590  -31.5894   20.6001 H   0  0  0  0  0  0
  -26.8268  -30.8737   21.9887 H   0  0  0  0  0  0
  -28.1063  -29.0618   21.1805 H   0  0  0  0  0  0
  -26.0398  -25.9690   18.9951 H   0  0  0  0  0  0
  -23.9764  -27.3102   19.0135 H   0  0  0  0  0  0
  -23.7278  -30.6026   19.4049 H   0  0  0  0  0  0
  -22.7415  -29.2476   19.8656 H   0  0  0  0  0  0
  -25.1285  -36.1971   25.0828 H   0  0  0  0  0  0
  -20.9961  -28.3240   24.1425 H   0  0  0  0  0  0
  -20.5668  -26.2280   23.3603 H   0  0  0  0  0  0
  -21.6637  -26.7444   22.1206 H   0  0  0  0  0  0
  -19.6909  -25.6300   21.1231 H   0  0  0  0  0  0
  -19.6684  -27.3202   20.6745 H   0  0  0  0  0  0
  -17.4193  -26.6670   21.4024 H   0  0  0  0  0  0
  -18.0326  -26.0061   22.9014 H   0  0  0  0  0  0
  -19.7933  -30.7255   24.2283 H   0  0  0  0  0  0
  -17.5015  -31.6266   24.5163 H   0  0  0  0  0  0
  -15.5349  -30.2993   23.7648 H   0  0  0  0  0  0
  -15.8662  -28.0828   22.7060 H   0  0  0  0  0  0
  -24.5910  -30.7058   25.7808 H   0  0  0  0  0  0
  -24.8931  -32.2867   26.4922 H   0  0  0  0  0  0
  -25.8086  -30.8877   27.0227 H   0  0  0  0  0  0
  -26.2857  -29.6796   24.1165 H   0  0  0  0  0  0
  -27.4063  -29.7271   25.4583 H   0  0  0  0  0  0
  -27.8702  -30.4342   23.9281 H   0  0  0  0  0  0
  -27.2673  -33.3608   26.2086 H   0  0  0  0  0  0
  -28.3851  -32.6890   25.0305 H   0  0  0  0  0  0
  -28.0735  -31.8426   26.5383 H   0  0  0  0  0  0
  -28.2607  -38.0100   24.7507 H   0  0  0  0  0  0
  -28.1068  -36.2631   24.6295 H   0  0  0  0  0  0
  -27.2298  -37.1469   25.8869 H   0  0  0  0  0  0
  -20.9322  -29.8765   21.6938 H   0  0  0  0  0  0
  -26.0185  -38.2870   24.1404 H   0  0  0  0  0  0
  -33.3031  -18.5210   22.4000 H   0  0  0  0  0  0
  -31.9773  -20.5072   21.8881 H   0  0  0  0  0  0
  -32.4175  -16.2713   22.0138 H   0  0  0  0  0  0
  -27.8304  -22.5945   20.8979 H   0  0  0  0  0  0
  -30.1532  -24.5543   20.4929 H   0  0  0  0  0  0
  -27.6227  -18.6779   20.8107 H   0  0  0  0  0  0
  -27.8768  -16.9648   20.5965 H   0  0  0  0  0  0
  -28.3098  -18.0774   19.2983 H   0  0  0  0  0  0
  -28.1497  -25.6116   21.9461 H   0  0  0  0  0  0
  -27.1226  -24.9332   20.7168 H   0  0  0  0  0  0
  -28.4600  -20.5131   21.0017 H   0  0  0  0  0  0
  -29.0342  -15.4304   21.1835 H   0  0  0  0  0  0
  1 25  1  0  0  0
  1 30  2  0  0  0
  1 83  1  0  0  0
  2  3  1  0  0  0
  2 25  1  0  0  0
  2 85  1  0  0  0
  2 86  1  0  0  0
  3  4  1  0  0  0
  3 87  1  0  0  0
  3 88  1  0  0  0
  4  5  1  0  0  0
  4 89  1  0  0  0
  4 90  1  0  0  0
  5  6  1  0  0  0
  5 26  1  0  0  0
  5 91  1  0  0  0
  6 25  1  0  0  0
  6 92  1  0  0  0
  6 93  1  0  0  0
  7  8  2  0  0  0
  7 26  1  0  0  0
  7 29  1  0  0  0
  8  9  1  0  0  0
  8 22  1  0  0  0
  9 10  1  0  0  0
  9 27  2  0  0  0
 10 11  2  0  0  0
 10 15  1  0  0  0
 11 12  1  0  0  0
 11 94  1  0  0  0
 12 13  2  0  0  0
 12 95  1  0  0  0
 13 14  1  0  0  0
 13 31  1  0  0  0
 14 15  2  0  0  0
 14 96  1  0  0  0
 15 97  1  0  0  0
 16 17  2  0  0  0
 16 21  1  0  0  0
 16 31  1  0  0  0
 17 18  1  0  0  0
 17 98  1  0  0  0
 18 19  2  0  0  0
 18 99  1  0  0  0
 19 20  1  0  0  0
 19 24  1  0  0  0
 20 21  2  0  0  0
 20100  1  0  0  0
 21 23  1  0  0  0
 22 28  1  0  0  0
 22 32  2  0  0  0
 26 27  1  0  0  0
 28101  1  0  0  0
 28102  1  0  0  0
 29103  1  0  0  0
 29104  1  0  0  0
 33 34  1  0  0  0
 33 66  1  0  0  0
 33 70  2  0  0  0
 34 36  1  0  0  0
 34 59  1  0  0  0
 34105  1  0  0  0
 35 44  2  0  0  0
 35 45  1  0  0  0
 35 68  1  0  0  0
 36 56  1  0  0  0
 36106  1  0  0  0
 37 39  1  0  0  0
 37 47  1  0  0  0
 37 66  1  0  0  0
 37107  1  0  0  0
 38 43  2  0  0  0
 38 46  1  0  0  0
 38 47  1  0  0  0
 39 64  1  0  0  0
 39 67  2  0  0  0
 40 52  1  0  0  0
 40 53  2  0  0  0
 40 58  1  0  0  0
 41108  1  0  0  0
 41109  1  0  0  0
 41110  1  0  0  0
 41 48  1  0  0  0
 42 43  1  0  0  0
 42 66  1  0  0  0
 42111  1  0  0  0
 42112  1  0  0  0
 43 44  1  0  0  0
 44113  1  0  0  0
 45 46  2  0  0  0
 45114  1  0  0  0
 46115  1  0  0  0
 47116  1  0  0  0
 47117  1  0  0  0
 48 56  1  0  0  0
 48 65  1  0  0  0
 48118  1  0  0  0
 49 50  1  0  0  0
 49 53  1  0  0  0
 49 64  1  0  0  0
 49119  1  0  0  0
 50 51  1  0  0  0
 50120  1  0  0  0
 50121  1  0  0  0
 51 52  1  0  0  0
 51122  1  0  0  0
 51123  1  0  0  0
 52124  1  0  0  0
 52125  1  0  0  0
 53 54  1  0  0  0
 54 55  2  0  0  0
 54126  1  0  0  0
 55 57  1  0  0  0
 55127  1  0  0  0
 56 69  2  0  0  0
 57 58  2  0  0  0
 57128  1  0  0  0
 58129  1  0  0  0
 59 60  1  0  0  0
 59 61  1  0  0  0
 59 62  1  0  0  0
 60130  1  0  0  0
 60131  1  0  0  0
 60132  1  0  0  0
 61133  1  0  0  0
 61134  1  0  0  0
 61135  1  0  0  0
 62136  1  0  0  0
 62137  1  0  0  0
 62138  1  0  0  0
 63 65  1  0  0  0
 63139  1  0  0  0
 63140  1  0  0  0
 63141  1  0  0  0
 64142  1  0  0  0
 65143  1  0  0  0
 68 81  1  0  0  0
 71 72  2  0  0  0
 71 73  1  0  0  0
 71144  1  0  0  0
 72 75  1  0  0  0
 72145  1  0  0  0
 73 76  2  0  0  0
 73146  1  0  0  0
 74 75  2  0  0  0
 74 76  1  0  0  0
 74 80  1  0  0  0
 75 82  1  0  0  0
 76 83  1  0  0  0
 77 78  2  0  0  0
 77 79  1  0  0  0
 77147  1  0  0  0
 78 81  1  0  0  0
 78148  1  0  0  0
 79 82  1  0  0  0
 79 84  2  0  0  0
 80149  1  0  0  0
 80150  1  0  0  0
 80151  1  0  0  0
 81152  1  0  0  0
 81153  1  0  0  0
 82154  1  0  0  0
 83155  1  0  0  0
M  ISO  4   1 100  68 101  81 101  83 100
M  END
> <chiral flag>
0

> <version>
0

> <s_m_source_file>
/data/baiqing/PycharmProjects/Reinvent-master-3.2/result/LINK_invent/BTK/process_docking_weight1_custom_product_contain_oxygen_bond_distance_aromatic_linkinvent_7_9_3/rearranged_h_0060.sdf

> <i_m_source_file_index>
23

> <r_mmod_Potential_Energy-OPLS-2005>
-74.8466110229492

> <r_mmod_Stretch_Energy-OPLS-2005>
51.0112075805664

> <r_mmod_Bend_Energy-OPLS-2005>
97.910888671875

> <r_mmod_Torsional_Energy-OPLS-2005>
252.653030395508

> <r_mmod_Improper_Torsional_Energy-OPLS-2005>
4.76074838638306

> <r_mmod_Van_der_Waal_Energy-OPLS-2005>
161.103469848633

> <r_mmod_Electrostatic_Energy-OPLS-2005>
-429.371063232422

> <r_mmod_Solvation_Energy-OPLS-2005>
-235.198303222656

> <b_mmod_Minimization_Converged-OPLS-2005>
0

> <r_mmod_RMS_Derivative-OPLS-2005>
0.32180991768837

$$$$
23
                    3D
 Structure written by MMmdl.
162170  0  0  1  0            999 V2000
  -30.7210  -14.4939   20.5699 C   0  0  0  0  0  0
  -30.4184  -12.3214   19.4324 C   0  0  0  0  0  0
  -29.4948  -12.5014   18.2112 C   0  0  0  0  0  0
  -28.0173  -12.3587   18.6243 C   0  0  0  0  0  0
  -27.6584  -13.2133   19.8702 C   0  0  2  0  0  0
  -28.7021  -13.0293   20.9962 C   0  0  0  0  0  0
  -25.2577  -13.8176   20.5678 C   0  0  0  0  0  0
  -24.1836  -13.0444   20.9183 C   0  0  0  0  0  0
  -24.6397  -11.6912   20.8740 C   0  0  0  0  0  0
  -23.9064  -10.4293   21.0403 C   0  0  0  0  0  0
  -24.3616   -9.4209   21.9183 C   0  0  0  0  0  0
  -23.6290   -8.2244   22.0754 C   0  0  0  0  0  0
  -22.4272   -8.0280   21.3546 C   0  0  0  0  0  0
  -21.9908   -9.0252   20.4646 C   0  0  0  0  0  0
  -22.7235  -10.2131   20.3052 C   0  0  0  0  0  0
  -21.6854   -6.0734   22.5281 C   0  0  0  0  0  0
  -21.4011   -6.5637   23.8213 C   0  0  0  0  0  0
  -21.3659   -5.6790   24.9174 C   0  0  0  0  0  0
  -21.6046   -4.3053   24.7224 C   0  0  0  0  0  0
  -21.8820   -3.8144   23.4346 C   0  0  0  0  0  0
  -21.9193   -4.6963   22.3401 C   0  0  0  0  0  0
  -22.7858  -13.5240   21.1838 C   0  0  0  0  0  0
  -22.1663   -4.2147   21.0980 F   0  0  0  0  0  0
  -21.5627   -3.4535   25.7738 F   0  0  0  0  0  0
  -30.0296  -13.3271   20.4366 N   0  0  0  0  0  0
  -26.3014  -12.9356   20.3358 N   0  0  0  0  0  0
  -25.9329  -11.6510   20.5776 N   0  0  0  0  0  0
  -22.0494  -12.8238   22.0393 N   0  0  0  0  0  0
  -25.4292  -15.1893   20.4063 N   0  0  0  0  0  0
  -31.8523  -14.6362   20.0983 O   0  0  0  0  0  0
  -21.6641   -6.8875   21.4238 O   0  0  0  0  0  0
  -22.3546  -14.5544   20.6678 O   0  0  0  0  0  0
  -24.6180  -31.8667   23.2109 C   0  0  0  0  0  0
  -25.9064  -32.4816   23.8397 C   0  0  1  0  0  0
  -27.2224  -27.4003   20.0948 C   0  0  0  0  0  0
  -25.5920  -33.8614   24.2330 N   0  0  0  0  0  0
  -23.4067  -30.4937   21.5522 C   0  0  2  0  0  0
  -24.8503  -28.9672   20.1098 C   0  0  0  0  0  0
  -22.7430  -29.4659   22.4979 C   0  0  0  0  0  0
  -18.0272  -28.1385   22.8486 C   0  0  0  0  0  0
  -24.1485  -36.7302   23.2637 C   0  0  0  0  0  0
  -25.9417  -30.8224   21.3711 C   0  0  0  0  0  0
  -26.0155  -29.4575   20.7123 C   0  0  0  0  0  0
  -27.2040  -28.6824   20.7030 C   0  0  0  0  0  0
  -26.0356  -26.9527   19.4616 C   0  0  0  0  0  0
  -24.8578  -27.7159   19.4794 C   0  0  0  0  0  0
  -23.6142  -29.8348   20.1645 C   0  0  0  0  0  0
  -25.4110  -36.3108   24.0337 C   0  0  1  0  0  0
  -20.5868  -28.3665   23.1309 C   0  0  2  0  0  0
  -20.6769  -26.9397   22.5418 C   0  0  0  0  0  0
  -19.5747  -26.6383   21.5216 C   0  0  0  0  0  0
  -18.1918  -26.7938   22.1612 C   0  0  0  0  0  0
  -19.1524  -28.8841   23.2899 C   0  0  0  0  0  0
  -18.9456  -30.1449   23.8907 C   0  0  0  0  0  0
  -17.6458  -30.6592   24.0556 C   0  0  0  0  0  0
  -25.9039  -34.9473   23.5128 C   0  0  0  0  0  0
  -16.5344  -29.9089   23.6333 C   0  0  0  0  0  0
  -16.7261  -28.6505   23.0354 C   0  0  0  0  0  0
  -26.4483  -31.6603   25.0732 C   0  0  0  0  0  0
  -25.3737  -31.3719   26.1471 C   0  0  0  0  0  0
  -27.0315  -30.3041   24.6129 C   0  0  0  0  0  0
  -27.6055  -32.4326   25.7499 C   0  0  0  0  0  0
  -27.5583  -37.1808   24.8468 C   0  0  0  0  0  0
  -21.4151  -29.3040   22.3721 N   0  0  0  0  0  0
  -26.4294  -37.3798   23.9410 N   0  0  0  0  0  0
  -24.6742  -31.0751   22.1021 N   0  0  0  0  0  0
  -23.4194  -28.8191   23.3025 O   0  0  0  0  0  0
  -28.3582  -26.5994   20.1462 O   0  0  0  0  0  0
  -26.5591  -34.8927   22.4684 O   0  0  0  0  0  0
  -23.5366  -32.1423   23.7487 O   0  0  0  0  0  0
  -31.8386  -17.1717   21.6504 C   0  0  0  0  0  0
  -32.2802  -18.4987   21.7980 C   0  0  0  0  0  0
  -29.6323  -17.9933   21.0444 C   0  0  0  0  0  0
  -30.0642  -19.3486   21.1806 C   0  0  0  0  0  0
  -30.5108  -16.8950   21.2527 C   0  0  0  0  0  0
  -31.4119  -19.5801   21.5616 C   0  0  0  0  0  0
  -29.0882  -20.4902   20.9331 C   0  0  0  0  0  0
  -29.1689  -24.2326   20.5724 C   0  0  0  0  0  0
  -29.4719  -23.3980   23.6858 C   0  0  0  0  0  0
  -27.3005  -22.1482   23.3540 C   0  0  0  0  0  0
  -28.1045  -25.1800   19.9724 C   0  0  0  0  0  0
  -28.6195  -22.9551   21.2849 C   0  0  2  0  0  0
  -28.2426  -23.2172   22.7728 C   0  0  0  0  0  0
  -30.0448  -15.5418   21.1010 N   0  0  0  0  0  0
  -29.4878  -21.7587   21.1715 N   0  0  0  0  0  0
  -27.9385  -20.2386   20.5624 O   0  0  0  0  0  0
  -30.3740  -24.4911   20.4767 O   0  0  0  0  0  0
  -31.8994  -20.8361   21.7174 F   0  0  0  0  0  0
  -31.4637  -12.4075   19.1312 H   0  0  0  0  0  0
  -30.3138  -11.3180   19.8476 H   0  0  0  0  0  0
  -29.7404  -11.7675   17.4426 H   0  0  0  0  0  0
  -29.6602  -13.4825   17.7627 H   0  0  0  0  0  0
  -27.8347  -11.3036   18.8339 H   0  0  0  0  0  0
  -27.3652  -12.6176   17.7894 H   0  0  0  0  0  0
  -27.6927  -14.2560   19.5539 H   0  0  0  0  0  0
  -28.6842  -12.0037   21.3690 H   0  0  0  0  0  0
  -28.4639  -13.6578   21.8558 H   0  0  0  0  0  0
  -25.2761   -9.5686   22.4755 H   0  0  0  0  0  0
  -24.0003   -7.4636   22.7475 H   0  0  0  0  0  0
  -21.0841   -8.8762   19.8953 H   0  0  0  0  0  0
  -22.3692  -10.9663   19.6157 H   0  0  0  0  0  0
  -21.2001   -7.6145   23.9716 H   0  0  0  0  0  0
  -21.1480   -6.0520   25.9079 H   0  0  0  0  0  0
  -22.0601   -2.7605   23.2846 H   0  0  0  0  0  0
  -22.4100  -11.9896   22.4784 H   0  0  0  0  0  0
  -21.1111  -13.1266   22.2586 H   0  0  0  0  0  0
  -24.6593  -15.8427   20.5016 H   0  0  0  0  0  0
  -26.2773  -15.6248   20.0663 H   0  0  0  0  0  0
  -26.7126  -32.5504   23.1148 H   0  0  0  0  0  0
  -25.0099  -33.9781   25.0496 H   0  0  0  0  0  0
  -22.6972  -31.3122   21.4162 H   0  0  0  0  0  0
  -23.3757  -35.9626   23.3313 H   0  0  0  0  0  0
  -24.3578  -36.8902   22.2052 H   0  0  0  0  0  0
  -23.7236  -37.6508   23.6638 H   0  0  0  0  0  0
  -26.0644  -31.5914   20.6069 H   0  0  0  0  0  0
  -26.8267  -30.8675   21.9940 H   0  0  0  0  0  0
  -28.0974  -29.0514   21.1870 H   0  0  0  0  0  0
  -25.9832  -26.0054   18.9461 H   0  0  0  0  0  0
  -23.9645  -27.3378   19.0007 H   0  0  0  0  0  0
  -23.7217  -30.6118   19.4072 H   0  0  0  0  0  0
  -22.7370  -29.2564   19.8666 H   0  0  0  0  0  0
  -25.1296  -36.1967   25.0833 H   0  0  0  0  0  0
  -20.9949  -28.3222   24.1434 H   0  0  0  0  0  0
  -20.5680  -26.2265   23.3605 H   0  0  0  0  0  0
  -21.6639  -26.7447   22.1202 H   0  0  0  0  0  0
  -19.6901  -25.6301   21.1230 H   0  0  0  0  0  0
  -19.6698  -27.3204   20.6760 H   0  0  0  0  0  0
  -17.4202  -26.6693   21.4000 H   0  0  0  0  0  0
  -18.0299  -26.0081   22.9006 H   0  0  0  0  0  0
  -19.7931  -30.7258   24.2280 H   0  0  0  0  0  0
  -17.5017  -31.6277   24.5154 H   0  0  0  0  0  0
  -15.5346  -30.2995   23.7681 H   0  0  0  0  0  0
  -15.8653  -28.0832   22.7080 H   0  0  0  0  0  0
  -24.5925  -30.7046   25.7816 H   0  0  0  0  0  0
  -24.8903  -32.2875   26.4886 H   0  0  0  0  0  0
  -25.8083  -30.8920   27.0246 H   0  0  0  0  0  0
  -26.2866  -29.6803   24.1169 H   0  0  0  0  0  0
  -27.4074  -29.7280   25.4594 H   0  0  0  0  0  0
  -27.8710  -30.4370   23.9299 H   0  0  0  0  0  0
  -27.2676  -33.3625   26.2088 H   0  0  0  0  0  0
  -28.3858  -32.6888   25.0319 H   0  0  0  0  0  0
  -28.0724  -31.8436   26.5404 H   0  0  0  0  0  0
  -28.2615  -38.0092   24.7517 H   0  0  0  0  0  0
  -28.1067  -36.2629   24.6297 H   0  0  0  0  0  0
  -27.2298  -37.1465   25.8870 H   0  0  0  0  0  0
  -20.9309  -29.8775   21.6955 H   0  0  0  0  0  0
  -26.0180  -38.2874   24.1414 H   0  0  0  0  0  0
  -32.5374  -16.3718   21.8488 H   0  0  0  0  0  0
  -33.3002  -18.6915   22.0973 H   0  0  0  0  0  0
  -28.6085  -17.7976   20.7583 H   0  0  0  0  0  0
  -29.1710  -23.6586   24.7008 H   0  0  0  0  0  0
  -30.1255  -24.1951   23.3302 H   0  0  0  0  0  0
  -30.0679  -22.4871   23.7479 H   0  0  0  0  0  0
  -26.9533  -22.4342   24.3478 H   0  0  0  0  0  0
  -27.7936  -21.1810   23.4493 H   0  0  0  0  0  0
  -26.4186  -22.0138   22.7272 H   0  0  0  0  0  0
  -27.1596  -24.9152   20.4479 H   0  0  0  0  0  0
  -28.0098  -24.9582   18.9091 H   0  0  0  0  0  0
  -27.6870  -22.7241   20.7678 H   0  0  0  0  0  0
  -27.6866  -24.1564   22.8048 H   0  0  0  0  0  0
  -29.0761  -15.3645   21.3199 H   0  0  0  0  0  0
  -30.4606  -21.8820   21.4285 H   0  0  0  0  0  0
  1 25  1  0  0  0
  1 30  2  0  0  0
  1 84  1  0  0  0
  2  3  1  0  0  0
  2 25  1  0  0  0
  2 89  1  0  0  0
  2 90  1  0  0  0
  3  4  1  0  0  0
  3 91  1  0  0  0
  3 92  1  0  0  0
  4  5  1  0  0  0
  4 93  1  0  0  0
  4 94  1  0  0  0
  5  6  1  0  0  0
  5 26  1  0  0  0
  5 95  1  0  0  0
  6 25  1  0  0  0
  6 96  1  0  0  0
  6 97  1  0  0  0
  7  8  2  0  0  0
  7 26  1  0  0  0
  7 29  1  0  0  0
  8  9  1  0  0  0
  8 22  1  0  0  0
  9 10  1  0  0  0
  9 27  2  0  0  0
 10 11  2  0  0  0
 10 15  1  0  0  0
 11 12  1  0  0  0
 11 98  1  0  0  0
 12 13  2  0  0  0
 12 99  1  0  0  0
 13 14  1  0  0  0
 13 31  1  0  0  0
 14 15  2  0  0  0
 14100  1  0  0  0
 15101  1  0  0  0
 16 17  2  0  0  0
 16 21  1  0  0  0
 16 31  1  0  0  0
 17 18  1  0  0  0
 17102  1  0  0  0
 18 19  2  0  0  0
 18103  1  0  0  0
 19 20  1  0  0  0
 19 24  1  0  0  0
 20 21  2  0  0  0
 20104  1  0  0  0
 21 23  1  0  0  0
 22 28  1  0  0  0
 22 32  2  0  0  0
 26 27  1  0  0  0
 28105  1  0  0  0
 28106  1  0  0  0
 29107  1  0  0  0
 29108  1  0  0  0
 33 34  1  0  0  0
 33 66  1  0  0  0
 33 70  2  0  0  0
 34 36  1  0  0  0
 34 59  1  0  0  0
 34109  1  0  0  0
 35 44  2  0  0  0
 35 45  1  0  0  0
 35 68  1  0  0  0
 36 56  1  0  0  0
 36110  1  0  0  0
 37 39  1  0  0  0
 37 47  1  0  0  0
 37 66  1  0  0  0
 37111  1  0  0  0
 38 43  2  0  0  0
 38 46  1  0  0  0
 38 47  1  0  0  0
 39 64  1  0  0  0
 39 67  2  0  0  0
 40 52  1  0  0  0
 40 53  2  0  0  0
 40 58  1  0  0  0
 41112  1  0  0  0
 41113  1  0  0  0
 41114  1  0  0  0
 41 48  1  0  0  0
 42 43  1  0  0  0
 42 66  1  0  0  0
 42115  1  0  0  0
 42116  1  0  0  0
 43 44  1  0  0  0
 44117  1  0  0  0
 45 46  2  0  0  0
 45118  1  0  0  0
 46119  1  0  0  0
 47120  1  0  0  0
 47121  1  0  0  0
 48 56  1  0  0  0
 48 65  1  0  0  0
 48122  1  0  0  0
 49 50  1  0  0  0
 49 53  1  0  0  0
 49 64  1  0  0  0
 49123  1  0  0  0
 50 51  1  0  0  0
 50124  1  0  0  0
 50125  1  0  0  0
 51 52  1  0  0  0
 51126  1  0  0  0
 51127  1  0  0  0
 52128  1  0  0  0
 52129  1  0  0  0
 53 54  1  0  0  0
 54 55  2  0  0  0
 54130  1  0  0  0
 55 57  1  0  0  0
 55131  1  0  0  0
 56 69  2  0  0  0
 57 58  2  0  0  0
 57132  1  0  0  0
 58133  1  0  0  0
 59 60  1  0  0  0
 59 61  1  0  0  0
 59 62  1  0  0  0
 60134  1  0  0  0
 60135  1  0  0  0
 60136  1  0  0  0
 61137  1  0  0  0
 61138  1  0  0  0
 61139  1  0  0  0
 62140  1  0  0  0
 62141  1  0  0  0
 62142  1  0  0  0
 63 65  1  0  0  0
 63143  1  0  0  0
 63144  1  0  0  0
 63145  1  0  0  0
 64146  1  0  0  0
 65147  1  0  0  0
 68 81  1  0  0  0
 71 72  2  0  0  0
 71 75  1  0  0  0
 71148  1  0  0  0
 72 76  1  0  0  0
 72149  1  0  0  0
 73 74  1  0  0  0
 73 75  2  0  0  0
 73150  1  0  0  0
 74 76  2  0  0  0
 74 77  1  0  0  0
 75 84  1  0  0  0
 76 88  1  0  0  0
 77 85  1  0  0  0
 77 86  2  0  0  0
 78 81  1  0  0  0
 78 82  1  0  0  0
 78 87  2  0  0  0
 79151  1  0  0  0
 79152  1  0  0  0
 79153  1  0  0  0
 79 83  1  0  0  0
 80 83  1  0  0  0
 80154  1  0  0  0
 80155  1  0  0  0
 80156  1  0  0  0
 81157  1  0  0  0
 81158  1  0  0  0
 82 83  1  0  0  0
 82 85  1  0  0  0
 82159  1  0  0  0
 83160  1  0  0  0
 84161  1  0  0  0
 85162  1  0  0  0
M  ISO  4   1 100  68 101  81 101  84 100
M  END
> <chiral flag>
0

> <version>
0

> <s_m_source_file>
/data/baiqing/PycharmProjects/Reinvent-master-3.2/result/LINK_invent/BTK/process_docking_weight1_custom_product_contain_oxygen_bond_distance_aromatic_linkinvent_7_9_3/rearranged_h_0060.sdf

> <i_m_source_file_index>
24

> <r_mmod_Potential_Energy-OPLS-2005>
-86.848762512207

> <r_mmod_Stretch_Energy-OPLS-2005>
48.5354766845703

> <r_mmod_Bend_Energy-OPLS-2005>
105.542549133301

> <r_mmod_Torsional_Energy-OPLS-2005>
238.325378417969

> <r_mmod_Improper_Torsional_Energy-OPLS-2005>
3.97644639015198

> <r_mmod_Van_der_Waal_Energy-OPLS-2005>
166.720764160156

> <r_mmod_Electrostatic_Energy-OPLS-2005>
-443.883239746094

> <r_mmod_Solvation_Energy-OPLS-2005>
-225.916091918945

> <b_mmod_Minimization_Converged-OPLS-2005>
0

> <r_mmod_RMS_Derivative-OPLS-2005>
1.05993854999542

$$$$
24
                    3D
 Structure written by MMmdl.
155164  0  0  1  0            999 V2000
  -30.5071  -14.9241   20.4335 C   0  0  0  0  0  0
  -30.4546  -12.5699   19.4913 C   0  0  0  0  0  0
  -29.5262  -12.5322   18.2529 C   0  0  0  0  0  0
  -28.0568  -12.3190   18.6681 C   0  0  0  0  0  0
  -27.6376  -13.2369   19.8453 C   0  0  2  0  0  0
  -28.6819  -13.2213   20.9829 C   0  0  0  0  0  0
  -25.2497  -13.8187   20.5685 C   0  0  0  0  0  0
  -24.1804  -13.0432   20.9230 C   0  0  0  0  0  0
  -24.6403  -11.6912   20.8758 C   0  0  0  0  0  0
  -23.9078  -10.4289   21.0413 C   0  0  0  0  0  0
  -24.3625   -9.4202   21.9189 C   0  0  0  0  0  0
  -23.6296   -8.2239   22.0756 C   0  0  0  0  0  0
  -22.4279   -8.0281   21.3545 C   0  0  0  0  0  0
  -21.9918   -9.0257   20.4648 C   0  0  0  0  0  0
  -22.7250  -10.2134   20.3060 C   0  0  0  0  0  0
  -21.6853   -6.0736   22.5279 C   0  0  0  0  0  0
  -21.4014   -6.5640   23.8212 C   0  0  0  0  0  0
  -21.3659   -5.6793   24.9174 C   0  0  0  0  0  0
  -21.6044   -4.3056   24.7225 C   0  0  0  0  0  0
  -21.8819   -3.8147   23.4346 C   0  0  0  0  0  0
  -21.9193   -4.6964   22.3402 C   0  0  0  0  0  0
  -22.7824  -13.5214   21.1881 C   0  0  0  0  0  0
  -22.1661   -4.2150   21.0980 F   0  0  0  0  0  0
  -21.5628   -3.4539   25.7737 F   0  0  0  0  0  0
  -29.9641  -13.6425   20.3988 N   0  0  0  0  0  0
  -26.2920  -12.9398   20.3247 N   0  0  0  0  0  0
  -25.9332  -11.6541   20.5742 N   0  0  0  0  0  0
  -22.0468  -12.8204   22.0434 N   0  0  0  0  0  0
  -25.4158  -15.1908   20.4041 N   0  0  0  0  0  0
  -31.6990  -15.0603   20.1331 O   0  0  0  0  0  0
  -21.6640   -6.8880   21.4241 O   0  0  0  0  0  0
  -22.3511  -14.5517   20.6720 O   0  0  0  0  0  0
  -24.6430  -31.8448   23.1893 C   0  0  0  0  0  0
  -25.9205  -32.4699   23.8279 C   0  0  1  0  0  0
  -27.2181  -27.1392   20.1522 C   0  0  0  0  0  0
  -25.5954  -33.8505   24.2194 N   0  0  0  0  0  0
  -23.4462  -30.4646   21.5352 C   0  0  2  0  0  0
  -24.8955  -28.8914   20.1144 C   0  0  0  0  0  0
  -22.7564  -29.4551   22.4868 C   0  0  0  0  0  0
  -18.0305  -28.1396   22.8478 C   0  0  0  0  0  0
  -24.1492  -36.7257   23.2642 C   0  0  0  0  0  0
  -26.0025  -30.7187   21.3891 C   0  0  0  0  0  0
  -26.0731  -29.3294   20.7331 C   0  0  0  0  0  0
  -27.2353  -28.4701   20.7344 C   0  0  0  0  0  0
  -26.0162  -26.8084   19.4863 C   0  0  0  0  0  0
  -24.8797  -27.6437   19.4759 C   0  0  0  0  0  0
  -23.6728  -29.7939   20.1550 C   0  0  0  0  0  0
  -25.4124  -36.3035   24.0316 C   0  0  1  0  0  0
  -20.5917  -28.3721   23.1237 C   0  0  2  0  0  0
  -20.6790  -26.9425   22.5403 C   0  0  0  0  0  0
  -19.5763  -26.6382   21.5212 C   0  0  0  0  0  0
  -18.1945  -26.7934   22.1624 C   0  0  0  0  0  0
  -19.1561  -28.8876   23.2850 C   0  0  0  0  0  0
  -18.9477  -30.1472   23.8876 C   0  0  0  0  0  0
  -17.6473  -30.6592   24.0559 C   0  0  0  0  0  0
  -25.9074  -34.9410   23.5063 C   0  0  0  0  0  0
  -16.5365  -29.9084   23.6336 C   0  0  0  0  0  0
  -16.7289  -28.6503   23.0356 C   0  0  0  0  0  0
  -26.4527  -31.6566   25.0720 C   0  0  0  0  0  0
  -25.3709  -31.3753   26.1412 C   0  0  0  0  0  0
  -27.0396  -30.2963   24.6302 C   0  0  0  0  0  0
  -27.6053  -32.4335   25.7507 C   0  0  0  0  0  0
  -27.5576  -37.1786   24.8465 C   0  0  0  0  0  0
  -21.4258  -29.3049   22.3612 N   0  0  0  0  0  0
  -26.4287  -37.3747   23.9407 N   0  0  0  0  0  0
  -24.7170  -31.0306   22.0929 N   0  0  0  0  0  0
  -23.4208  -28.8098   23.3016 O   0  0  0  0  0  0
  -28.2864  -26.1690   20.1883 O   0  0  0  0  0  0
  -26.5659  -34.8905   22.4642 O   0  0  0  0  0  0
  -23.5550  -32.1325   23.7114 O   0  0  0  0  0  0
  -30.3037  -19.9890   20.4094 C   0  0  0  0  0  0
  -30.5633  -18.5450   20.4159 C   0  0  0  0  0  0
  -28.2515  -18.1619   20.6000 C   0  0  0  0  0  0
  -27.9807  -19.5861   20.5800 C   0  0  0  0  0  0
  -29.0004  -20.6049   20.5216 C   0  0  0  0  0  0
  -29.5398  -17.5388   20.5353 C   0  0  0  0  0  0
  -28.1008  -22.6304   21.8011 C   0  0  0  0  0  0
  -27.8346  -24.1607   21.7599 C   0  0  0  0  0  0
  -28.9838  -23.3667   19.8491 C   0  0  0  0  0  0
  -28.0377  -24.6304   20.3126 C   0  0  2  0  0  0
  -26.5145  -19.9900   20.6210 C   0  0  0  0  0  0
  -28.6930  -22.1127   20.6947 N   0  0  0  0  0  0
  -29.6183  -16.0087   20.6317 N   0  0  0  0  0  0
  -27.7964  -21.9778   22.8047 O   0  0  0  0  0  0
  -31.4852  -12.7468   19.1796 H   0  0  0  0  0  0
  -30.4581  -11.6065   20.0036 H   0  0  0  0  0  0
  -29.8401  -11.7431   17.5683 H   0  0  0  0  0  0
  -29.6164  -13.4692   17.7012 H   0  0  0  0  0  0
  -27.9460  -11.2742   18.9607 H   0  0  0  0  0  0
  -27.3947  -12.4678   17.8143 H   0  0  0  0  0  0
  -27.6125  -14.2467   19.4355 H   0  0  0  0  0  0
  -28.7626  -12.2274   21.4256 H   0  0  0  0  0  0
  -28.3837  -13.8904   21.7917 H   0  0  0  0  0  0
  -25.2770   -9.5675   22.4765 H   0  0  0  0  0  0
  -24.0003   -7.4629   22.7475 H   0  0  0  0  0  0
  -21.0849   -8.8780   19.8952 H   0  0  0  0  0  0
  -22.3712  -10.9676   19.6170 H   0  0  0  0  0  0
  -21.2008   -7.6149   23.9716 H   0  0  0  0  0  0
  -21.1481   -6.0523   25.9077 H   0  0  0  0  0  0
  -22.0598   -2.7610   23.2846 H   0  0  0  0  0  0
  -22.4088  -11.9869   22.4825 H   0  0  0  0  0  0
  -21.1084  -13.1225   22.2636 H   0  0  0  0  0  0
  -24.6317  -15.8289   20.4845 H   0  0  0  0  0  0
  -26.2252  -15.6132   19.9703 H   0  0  0  0  0  0
  -26.7269  -32.5307   23.1007 H   0  0  0  0  0  0
  -25.0077  -33.9622   25.0325 H   0  0  0  0  0  0
  -22.7486  -31.2905   21.3809 H   0  0  0  0  0  0
  -23.3758  -35.9585   23.3294 H   0  0  0  0  0  0
  -24.3575  -36.8900   22.2058 H   0  0  0  0  0  0
  -23.7244  -37.6449   23.6686 H   0  0  0  0  0  0
  -26.1580  -31.4721   20.6158 H   0  0  0  0  0  0
  -26.8730  -30.7692   22.0313 H   0  0  0  0  0  0
  -28.1339  -28.8034   21.2342 H   0  0  0  0  0  0
  -25.9209  -25.8734   18.9579 H   0  0  0  0  0  0
  -23.9846  -27.3078   18.9703 H   0  0  0  0  0  0
  -23.8108  -30.5681   19.3994 H   0  0  0  0  0  0
  -22.7877  -29.2363   19.8438 H   0  0  0  0  0  0
  -25.1312  -36.1862   25.0808 H   0  0  0  0  0  0
  -21.0007  -28.3310   24.1359 H   0  0  0  0  0  0
  -20.5684  -26.2334   23.3621 H   0  0  0  0  0  0
  -21.6656  -26.7432   22.1201 H   0  0  0  0  0  0
  -19.6924  -25.6287   21.1256 H   0  0  0  0  0  0
  -19.6699  -27.3180   20.6732 H   0  0  0  0  0  0
  -17.4212  -26.6676   21.4030 H   0  0  0  0  0  0
  -18.0346  -26.0082   22.9028 H   0  0  0  0  0  0
  -19.7952  -30.7295   24.2236 H   0  0  0  0  0  0
  -17.5026  -31.6270   24.5165 H   0  0  0  0  0  0
  -15.5364  -30.2979   23.7672 H   0  0  0  0  0  0
  -15.8690  -28.0814   22.7084 H   0  0  0  0  0  0
  -24.5901  -30.7087   25.7732 H   0  0  0  0  0  0
  -24.8883  -32.2934   26.4774 H   0  0  0  0  0  0
  -25.7992  -30.8971   27.0230 H   0  0  0  0  0  0
  -26.3017  -29.6682   24.1298 H   0  0  0  0  0  0
  -27.3997  -29.7266   25.4879 H   0  0  0  0  0  0
  -27.8929  -30.4201   23.9631 H   0  0  0  0  0  0
  -27.2642  -33.3656   26.2027 H   0  0  0  0  0  0
  -28.3896  -32.6864   25.0360 H   0  0  0  0  0  0
  -28.0686  -31.8500   26.5473 H   0  0  0  0  0  0
  -28.2585  -38.0089   24.7511 H   0  0  0  0  0  0
  -28.1080  -36.2618   24.6295 H   0  0  0  0  0  0
  -27.2291  -37.1435   25.8868 H   0  0  0  0  0  0
  -20.9468  -29.8761   21.6790 H   0  0  0  0  0  0
  -26.0154  -38.2815   24.1409 H   0  0  0  0  0  0
  -31.1614  -20.6452   20.3600 H   0  0  0  0  0  0
  -31.5917  -18.2172   20.3551 H   0  0  0  0  0  0
  -27.3964  -17.5055   20.6790 H   0  0  0  0  0  0
  -28.5516  -24.6477   22.4204 H   0  0  0  0  0  0
  -26.8335  -24.3959   22.1209 H   0  0  0  0  0  0
  -30.0346  -23.6252   19.9856 H   0  0  0  0  0  0
  -28.8473  -23.1476   18.7901 H   0  0  0  0  0  0
  -27.0995  -24.4203   19.8066 H   0  0  0  0  0  0
  -25.8816  -19.2166   20.1846 H   0  0  0  0  0  0
  -26.3343  -20.9045   20.0558 H   0  0  0  0  0  0
  -26.1875  -20.1455   21.6491 H   0  0  0  0  0  0
  -28.7143  -15.6168   20.8449 H   0  0  0  0  0  0
  1 25  1  0  0  0
  1 30  2  0  0  0
  1 83  1  0  0  0
  2  3  1  0  0  0
  2 25  1  0  0  0
  2 85  1  0  0  0
  2 86  1  0  0  0
  3  4  1  0  0  0
  3 87  1  0  0  0
  3 88  1  0  0  0
  4  5  1  0  0  0
  4 89  1  0  0  0
  4 90  1  0  0  0
  5  6  1  0  0  0
  5 26  1  0  0  0
  5 91  1  0  0  0
  6 25  1  0  0  0
  6 92  1  0  0  0
  6 93  1  0  0  0
  7  8  2  0  0  0
  7 26  1  0  0  0
  7 29  1  0  0  0
  8  9  1  0  0  0
  8 22  1  0  0  0
  9 10  1  0  0  0
  9 27  2  0  0  0
 10 11  2  0  0  0
 10 15  1  0  0  0
 11 12  1  0  0  0
 11 94  1  0  0  0
 12 13  2  0  0  0
 12 95  1  0  0  0
 13 14  1  0  0  0
 13 31  1  0  0  0
 14 15  2  0  0  0
 14 96  1  0  0  0
 15 97  1  0  0  0
 16 17  2  0  0  0
 16 21  1  0  0  0
 16 31  1  0  0  0
 17 18  1  0  0  0
 17 98  1  0  0  0
 18 19  2  0  0  0
 18 99  1  0  0  0
 19 20  1  0  0  0
 19 24  1  0  0  0
 20 21  2  0  0  0
 20100  1  0  0  0
 21 23  1  0  0  0
 22 28  1  0  0  0
 22 32  2  0  0  0
 26 27  1  0  0  0
 28101  1  0  0  0
 28102  1  0  0  0
 29103  1  0  0  0
 29104  1  0  0  0
 33 34  1  0  0  0
 33 66  1  0  0  0
 33 70  2  0  0  0
 34 36  1  0  0  0
 34 59  1  0  0  0
 34105  1  0  0  0
 35 44  2  0  0  0
 35 45  1  0  0  0
 35 68  1  0  0  0
 36 56  1  0  0  0
 36106  1  0  0  0
 37 39  1  0  0  0
 37 47  1  0  0  0
 37 66  1  0  0  0
 37107  1  0  0  0
 38 43  2  0  0  0
 38 46  1  0  0  0
 38 47  1  0  0  0
 39 64  1  0  0  0
 39 67  2  0  0  0
 40 52  1  0  0  0
 40 53  2  0  0  0
 40 58  1  0  0  0
 41108  1  0  0  0
 41109  1  0  0  0
 41110  1  0  0  0
 41 48  1  0  0  0
 42 43  1  0  0  0
 42 66  1  0  0  0
 42111  1  0  0  0
 42112  1  0  0  0
 43 44  1  0  0  0
 44113  1  0  0  0
 45 46  2  0  0  0
 45114  1  0  0  0
 46115  1  0  0  0
 47116  1  0  0  0
 47117  1  0  0  0
 48 56  1  0  0  0
 48 65  1  0  0  0
 48118  1  0  0  0
 49 50  1  0  0  0
 49 53  1  0  0  0
 49 64  1  0  0  0
 49119  1  0  0  0
 50 51  1  0  0  0
 50120  1  0  0  0
 50121  1  0  0  0
 51 52  1  0  0  0
 51122  1  0  0  0
 51123  1  0  0  0
 52124  1  0  0  0
 52125  1  0  0  0
 53 54  1  0  0  0
 54 55  2  0  0  0
 54126  1  0  0  0
 55 57  1  0  0  0
 55127  1  0  0  0
 56 69  2  0  0  0
 57 58  2  0  0  0
 57128  1  0  0  0
 58129  1  0  0  0
 59 60  1  0  0  0
 59 61  1  0  0  0
 59 62  1  0  0  0
 60130  1  0  0  0
 60131  1  0  0  0
 60132  1  0  0  0
 61133  1  0  0  0
 61134  1  0  0  0
 61135  1  0  0  0
 62136  1  0  0  0
 62137  1  0  0  0
 62138  1  0  0  0
 63 65  1  0  0  0
 63139  1  0  0  0
 63140  1  0  0  0
 63141  1  0  0  0
 64142  1  0  0  0
 65143  1  0  0  0
 68 80  1  0  0  0
 71 72  2  0  0  0
 71 75  1  0  0  0
 71144  1  0  0  0
 72 76  1  0  0  0
 72145  1  0  0  0
 73 74  1  0  0  0
 73 76  2  0  0  0
 73146  1  0  0  0
 74 75  2  0  0  0
 74 81  1  0  0  0
 75 82  1  0  0  0
 76 83  1  0  0  0
 77 78  1  0  0  0
 77 82  1  0  0  0
 77 84  2  0  0  0
 78 80  1  0  0  0
 78147  1  0  0  0
 78148  1  0  0  0
 79 80  1  0  0  0
 79 82  1  0  0  0
 79149  1  0  0  0
 79150  1  0  0  0
 80151  1  0  0  0
 81152  1  0  0  0
 81153  1  0  0  0
 81154  1  0  0  0
 83155  1  0  0  0
M  ISO  4   1 100  68 101  80 101  83 100
M  END
> <chiral flag>
0

> <version>
0

> <s_m_source_file>
/data/baiqing/PycharmProjects/Reinvent-master-3.2/result/LINK_invent/BTK/process_docking_weight1_custom_product_contain_oxygen_bond_distance_aromatic_linkinvent_7_9_3/rearranged_h_0060.sdf

> <i_m_source_file_index>
25

> <r_mmod_Potential_Energy-OPLS-2005>
518.834289550781

> <r_mmod_Stretch_Energy-OPLS-2005>
219.495132446289

> <r_mmod_Bend_Energy-OPLS-2005>
294.142822265625

> <r_mmod_Torsional_Energy-OPLS-2005>
286.094512939453

> <r_mmod_Improper_Torsional_Energy-OPLS-2005>
5.10889005661011

> <r_mmod_Van_der_Waal_Energy-OPLS-2005>
127.90552520752

> <r_mmod_Electrostatic_Energy-OPLS-2005>
-369.919769287109

> <r_mmod_Solvation_Energy-OPLS-2005>
-224.315338134766

> <b_mmod_Minimization_Converged-OPLS-2005>
0

> <r_mmod_RMS_Derivative-OPLS-2005>
0.0990893989801407

$$$$
25
                    3D
 Structure written by MMmdl.
155163  0  0  1  0            999 V2000
  -30.5710  -14.6857   20.3900 C   0  0  0  0  0  0
  -30.4530  -12.4429   19.3522 C   0  0  0  0  0  0
  -29.4609  -12.5167   18.1701 C   0  0  0  0  0  0
  -28.0093  -12.3117   18.6459 C   0  0  0  0  0  0
  -27.6520  -13.2045   19.8654 C   0  0  2  0  0  0
  -28.7354  -13.0785   20.9694 C   0  0  0  0  0  0
  -25.2590  -13.8185   20.5653 C   0  0  0  0  0  0
  -24.1829  -13.0417   20.9183 C   0  0  0  0  0  0
  -24.6440  -11.6942   20.8876 C   0  0  0  0  0  0
  -23.9129  -10.4288   21.0505 C   0  0  0  0  0  0
  -24.3665   -9.4188   21.9259 C   0  0  0  0  0  0
  -23.6305   -8.2251   22.0838 C   0  0  0  0  0  0
  -22.4299   -8.0320   21.3582 C   0  0  0  0  0  0
  -21.9925   -9.0320   20.4703 C   0  0  0  0  0  0
  -22.7320  -10.2171   20.3112 C   0  0  0  0  0  0
  -21.6854   -6.0765   22.5277 C   0  0  0  0  0  0
  -21.4008   -6.5645   23.8217 C   0  0  0  0  0  0
  -21.3635   -5.6796   24.9167 C   0  0  0  0  0  0
  -21.6032   -4.3056   24.7227 C   0  0  0  0  0  0
  -21.8836   -3.8168   23.4344 C   0  0  0  0  0  0
  -21.9211   -4.6991   22.3418 C   0  0  0  0  0  0
  -22.7845  -13.5252   21.1801 C   0  0  0  0  0  0
  -22.1656   -4.2140   21.1002 F   0  0  0  0  0  0
  -21.5638   -3.4549   25.7761 F   0  0  0  0  0  0
  -30.0186  -13.4387   20.3497 N   0  0  0  0  0  0
  -26.3054  -12.9314   20.3498 N   0  0  0  0  0  0
  -25.9398  -11.6498   20.6053 N   0  0  0  0  0  0
  -22.0448  -12.8213   22.0339 N   0  0  0  0  0  0
  -25.4164  -15.1916   20.4015 N   0  0  0  0  0  0
  -31.7576  -14.8758   20.1008 O   0  0  0  0  0  0
  -21.6680   -6.8902   21.4241 O   0  0  0  0  0  0
  -22.3572  -14.5551   20.6694 O   0  0  0  0  0  0
  -24.6253  -31.8611   23.1999 C   0  0  0  0  0  0
  -25.9087  -32.4783   23.8394 C   0  0  1  0  0  0
  -27.2057  -27.2998   20.1364 C   0  0  0  0  0  0
  -25.5830  -33.8579   24.2316 N   0  0  0  0  0  0
  -23.4184  -30.4962   21.5373 C   0  0  2  0  0  0
  -24.8620  -28.9501   20.0899 C   0  0  0  0  0  0
  -22.7523  -29.4720   22.4802 C   0  0  0  0  0  0
  -18.0352  -28.1368   22.8561 C   0  0  0  0  0  0
  -24.1448  -36.7332   23.2657 C   0  0  0  0  0  0
  -25.9613  -30.7844   21.3738 C   0  0  0  0  0  0
  -26.0260  -29.4081   20.7207 C   0  0  0  0  0  0
  -27.1993  -28.5967   20.7373 C   0  0  0  0  0  0
  -26.0293  -26.9049   19.4613 C   0  0  0  0  0  0
  -24.8726  -27.7059   19.4347 C   0  0  0  0  0  0
  -23.6263  -29.8285   20.1498 C   0  0  0  0  0  0
  -25.4078  -36.3131   24.0393 C   0  0  1  0  0  0
  -20.5938  -28.3838   23.1217 C   0  0  2  0  0  0
  -20.6772  -26.9451   22.5567 C   0  0  0  0  0  0
  -19.5805  -26.6426   21.5272 C   0  0  0  0  0  0
  -18.2012  -26.7895   22.1783 C   0  0  0  0  0  0
  -19.1591  -28.8916   23.2844 C   0  0  0  0  0  0
  -18.9478  -30.1479   23.8904 C   0  0  0  0  0  0
  -17.6455  -30.6575   24.0565 C   0  0  0  0  0  0
  -25.9031  -34.9466   23.5197 C   0  0  0  0  0  0
  -16.5367  -29.9020   23.6298 C   0  0  0  0  0  0
  -16.7334  -28.6440   23.0356 C   0  0  0  0  0  0
  -26.4443  -31.6573   25.0767 C   0  0  0  0  0  0
  -25.3689  -31.3640   26.1537 C   0  0  0  0  0  0
  -27.0313  -30.3019   24.6160 C   0  0  0  0  0  0
  -27.6025  -32.4312   25.7495 C   0  0  0  0  0  0
  -27.5589  -37.1845   24.8503 C   0  0  0  0  0  0
  -21.4228  -29.3106   22.3536 N   0  0  0  0  0  0
  -26.4295  -37.3813   23.9439 N   0  0  0  0  0  0
  -24.6881  -31.0704   22.0856 N   0  0  0  0  0  0
  -23.4254  -28.8237   23.2890 O   0  0  0  0  0  0
  -28.2952  -26.4155   20.2108 O   0  0  0  0  0  0
  -26.5655  -34.8940   22.4792 O   0  0  0  0  0  0
  -23.5420  -32.1327   23.7366 O   0  0  0  0  0  0
  -29.4799  -18.3610   22.9969 C   0  0  0  0  0  0
  -29.7462  -17.1484   22.3422 C   0  0  0  0  0  0
  -29.2070  -19.5358   22.2701 C   0  0  0  0  0  0
  -29.4240  -18.2868   20.1823 C   0  0  0  0  0  0
  -29.6984  -17.0657   20.9320 C   0  0  0  0  0  0
  -29.2032  -19.5522   20.8588 C   0  0  0  0  0  0
  -29.0703  -24.0389   20.8775 C   0  0  0  0  0  0
  -29.3624  -22.6886   20.9062 C   0  0  0  0  0  0
  -29.2891  -18.2323   18.6659 C   0  0  0  0  0  0
  -28.0281  -24.9453   20.1526 C   0  0  0  0  0  0
  -27.0880  -21.2997   20.5089 N   0  0  0  0  0  0
  -29.6517  -15.7079   20.4049 N   0  0  0  0  0  0
  -28.9496  -21.2565   18.6574 O   0  0  0  0  0  0
  -28.5893  -21.1756   20.0893 S   0  0  2  0  0  0
  -31.4619  -12.6439   18.9805 H   0  0  0  0  0  0
  -30.4953  -11.4466   19.7893 H   0  0  0  0  0  0
  -29.7162  -11.7824   17.4054 H   0  0  0  0  0  0
  -29.5298  -13.5021   17.7035 H   0  0  0  0  0  0
  -27.8709  -11.2540   18.8884 H   0  0  0  0  0  0
  -27.3190  -12.5075   17.8273 H   0  0  0  0  0  0
  -27.6475  -14.2304   19.4968 H   0  0  0  0  0  0
  -28.7975  -12.0546   21.3482 H   0  0  0  0  0  0
  -28.5370  -13.7143   21.8385 H   0  0  0  0  0  0
  -25.2834   -9.5635   22.4775 H   0  0  0  0  0  0
  -24.0031   -7.4657   22.7540 H   0  0  0  0  0  0
  -21.0862   -8.8887   19.8986 H   0  0  0  0  0  0
  -22.3864  -10.9728   19.6184 H   0  0  0  0  0  0
  -21.1964   -7.6140   23.9707 H   0  0  0  0  0  0
  -21.1426   -6.0517   25.9059 H   0  0  0  0  0  0
  -22.0648   -2.7621   23.2879 H   0  0  0  0  0  0
  -22.4087  -11.9899   22.4720 H   0  0  0  0  0  0
  -21.1115  -13.1293   22.2625 H   0  0  0  0  0  0
  -24.6550  -15.8370   20.5710 H   0  0  0  0  0  0
  -26.2692  -15.6692   20.1324 H   0  0  0  0  0  0
  -26.7201  -32.5455   23.1218 H   0  0  0  0  0  0
  -24.9975  -33.9675   25.0468 H   0  0  0  0  0  0
  -22.7046  -31.3161   21.3989 H   0  0  0  0  0  0
  -23.3708  -35.9672   23.3346 H   0  0  0  0  0  0
  -24.3580  -36.8917   22.2069 H   0  0  0  0  0  0
  -23.7183  -37.6543   23.6642 H   0  0  0  0  0  0
  -26.1106  -31.5225   20.5850 H   0  0  0  0  0  0
  -26.8398  -30.8333   22.0083 H   0  0  0  0  0  0
  -28.0898  -28.9281   21.2560 H   0  0  0  0  0  0
  -25.9926  -25.9561   18.9506 H   0  0  0  0  0  0
  -24.0000  -27.3698   18.8940 H   0  0  0  0  0  0
  -23.7108  -30.5942   19.3794 H   0  0  0  0  0  0
  -22.7465  -29.2451   19.8715 H   0  0  0  0  0  0
  -25.1225  -36.2063   25.0897 H   0  0  0  0  0  0
  -21.0104  -28.3543   24.1288 H   0  0  0  0  0  0
  -21.6666  -26.7308   22.1560 H   0  0  0  0  0  0
  -20.5491  -26.2481   23.3900 H   0  0  0  0  0  0
  -19.6942  -25.6370   21.1203 H   0  0  0  0  0  0
  -19.6720  -27.3294   20.6816 H   0  0  0  0  0  0
  -17.4213  -26.6441   21.4371 H   0  0  0  0  0  0
  -18.0493  -26.0138   22.9291 H   0  0  0  0  0  0
  -19.7982  -30.7367   24.2157 H   0  0  0  0  0  0
  -17.5010  -31.6290   24.5154 H   0  0  0  0  0  0
  -15.5388  -30.2935   23.7492 H   0  0  0  0  0  0
  -15.8764  -28.0676   22.7110 H   0  0  0  0  0  0
  -24.5861  -30.6999   25.7856 H   0  0  0  0  0  0
  -24.8892  -32.2752   26.5094 H   0  0  0  0  0  0
  -25.8048  -30.8720   27.0262 H   0  0  0  0  0  0
  -26.2860  -29.6777   24.1218 H   0  0  0  0  0  0
  -27.4096  -29.7259   25.4628 H   0  0  0  0  0  0
  -27.8693  -30.4386   23.9335 H   0  0  0  0  0  0
  -27.2641  -33.3611   26.2112 H   0  0  0  0  0  0
  -28.3747  -32.6917   25.0225 H   0  0  0  0  0  0
  -28.0820  -31.8447   26.5360 H   0  0  0  0  0  0
  -28.2659  -38.0078   24.7508 H   0  0  0  0  0  0
  -28.1005  -36.2639   24.6335 H   0  0  0  0  0  0
  -27.2364  -37.1548   25.8917 H   0  0  0  0  0  0
  -20.9371  -29.8926   21.6818 H   0  0  0  0  0  0
  -26.0210  -38.2941   24.1275 H   0  0  0  0  0  0
  -29.4598  -18.3708   24.0759 H   0  0  0  0  0  0
  -29.9098  -16.2777   22.9635 H   0  0  0  0  0  0
  -28.9594  -20.4376   22.8078 H   0  0  0  0  0  0
  -29.7042  -24.6356   21.5102 H   0  0  0  0  0  0
  -30.2007  -22.3949   21.5246 H   0  0  0  0  0  0
  -29.7404  -17.3243   18.2796 H   0  0  0  0  0  0
  -29.8165  -19.0603   18.1918 H   0  0  0  0  0  0
  -28.2492  -18.2798   18.3392 H   0  0  0  0  0  0
  -27.0690  -24.7356   20.6314 H   0  0  0  0  0  0
  -27.9612  -24.6058   19.1169 H   0  0  0  0  0  0
  -26.8441  -22.2729   20.6973 H   0  0  0  0  0  0
  -28.7192  -15.3248   20.4535 H   0  0  0  0  0  0
  1 25  1  0  0  0
  1 30  2  0  0  0
  1 82  1  0  0  0
  2  3  1  0  0  0
  2 25  1  0  0  0
  2 85  1  0  0  0
  2 86  1  0  0  0
  3  4  1  0  0  0
  3 87  1  0  0  0
  3 88  1  0  0  0
  4  5  1  0  0  0
  4 89  1  0  0  0
  4 90  1  0  0  0
  5  6  1  0  0  0
  5 26  1  0  0  0
  5 91  1  0  0  0
  6 25  1  0  0  0
  6 92  1  0  0  0
  6 93  1  0  0  0
  7  8  2  0  0  0
  7 26  1  0  0  0
  7 29  1  0  0  0
  8  9  1  0  0  0
  8 22  1  0  0  0
  9 10  1  0  0  0
  9 27  2  0  0  0
 10 11  2  0  0  0
 10 15  1  0  0  0
 11 12  1  0  0  0
 11 94  1  0  0  0
 12 13  2  0  0  0
 12 95  1  0  0  0
 13 14  1  0  0  0
 13 31  1  0  0  0
 14 15  2  0  0  0
 14 96  1  0  0  0
 15 97  1  0  0  0
 16 17  2  0  0  0
 16 21  1  0  0  0
 16 31  1  0  0  0
 17 18  1  0  0  0
 17 98  1  0  0  0
 18 19  2  0  0  0
 18 99  1  0  0  0
 19 20  1  0  0  0
 19 24  1  0  0  0
 20 21  2  0  0  0
 20100  1  0  0  0
 21 23  1  0  0  0
 22 28  1  0  0  0
 22 32  2  0  0  0
 26 27  1  0  0  0
 28101  1  0  0  0
 28102  1  0  0  0
 29103  1  0  0  0
 29104  1  0  0  0
 33 34  1  0  0  0
 33 66  1  0  0  0
 33 70  2  0  0  0
 34 36  1  0  0  0
 34 59  1  0  0  0
 34105  1  0  0  0
 35 44  2  0  0  0
 35 45  1  0  0  0
 35 68  1  0  0  0
 36 56  1  0  0  0
 36106  1  0  0  0
 37 39  1  0  0  0
 37 47  1  0  0  0
 37 66  1  0  0  0
 37107  1  0  0  0
 38 43  2  0  0  0
 38 46  1  0  0  0
 38 47  1  0  0  0
 39 64  1  0  0  0
 39 67  2  0  0  0
 40 52  1  0  0  0
 40 53  2  0  0  0
 40 58  1  0  0  0
 41108  1  0  0  0
 41109  1  0  0  0
 41110  1  0  0  0
 41 48  1  0  0  0
 42 43  1  0  0  0
 42 66  1  0  0  0
 42111  1  0  0  0
 42112  1  0  0  0
 43 44  1  0  0  0
 44113  1  0  0  0
 45 46  2  0  0  0
 45114  1  0  0  0
 46115  1  0  0  0
 47116  1  0  0  0
 47117  1  0  0  0
 48 56  1  0  0  0
 48 65  1  0  0  0
 48118  1  0  0  0
 49 50  1  0  0  0
 49 53  1  0  0  0
 49 64  1  0  0  0
 49119  1  0  0  0
 50 51  1  0  0  0
 50120  1  0  0  0
 50121  1  0  0  0
 51 52  1  0  0  0
 51122  1  0  0  0
 51123  1  0  0  0
 52124  1  0  0  0
 52125  1  0  0  0
 53 54  1  0  0  0
 54 55  2  0  0  0
 54126  1  0  0  0
 55 57  1  0  0  0
 55127  1  0  0  0
 56 69  2  0  0  0
 57 58  2  0  0  0
 57128  1  0  0  0
 58129  1  0  0  0
 59 60  1  0  0  0
 59 61  1  0  0  0
 59 62  1  0  0  0
 60130  1  0  0  0
 60131  1  0  0  0
 60132  1  0  0  0
 61133  1  0  0  0
 61134  1  0  0  0
 61135  1  0  0  0
 62136  1  0  0  0
 62137  1  0  0  0
 62138  1  0  0  0
 63 65  1  0  0  0
 63139  1  0  0  0
 63140  1  0  0  0
 63141  1  0  0  0
 64142  1  0  0  0
 65143  1  0  0  0
 68 80  1  0  0  0
 71 72  2  0  0  0
 71 73  1  0  0  0
 71144  1  0  0  0
 72 75  1  0  0  0
 72145  1  0  0  0
 73 76  2  0  0  0
 73146  1  0  0  0
 74 75  2  0  0  0
 74 76  1  0  0  0
 74 79  1  0  0  0
 75 82  1  0  0  0
 76 84  1  0  0  0
 77 78  2  0  0  0
 77 80  1  0  0  0
 77147  1  0  0  0
 78148  1  0  0  0
 78 84  1  0  0  0
 79149  1  0  0  0
 79150  1  0  0  0
 79151  1  0  0  0
 80152  1  0  0  0
 80153  1  0  0  0
 81 84  2  0  0  0
 81154  1  0  0  0
 82155  1  0  0  0
 83 84  2  0  0  0
M  ISO  4   1 100  68 101  80 101  82 100
M  END
> <chiral flag>
0

> <version>
0

> <s_m_source_file>
/data/baiqing/PycharmProjects/Reinvent-master-3.2/result/LINK_invent/BTK/process_docking_weight1_custom_product_contain_oxygen_bond_distance_aromatic_linkinvent_7_9_3/rearranged_h_0060.sdf

> <i_m_source_file_index>
26

> <r_mmod_Potential_Energy-OPLS-2005>
83.0615768432617

> <r_mmod_Stretch_Energy-OPLS-2005>
95.1325073242188

> <r_mmod_Bend_Energy-OPLS-2005>
173.509506225586

> <r_mmod_Torsional_Energy-OPLS-2005>
261.816955566406

> <r_mmod_Improper_Torsional_Energy-OPLS-2005>
15.4023675918579

> <r_mmod_Van_der_Waal_Energy-OPLS-2005>
135.16748046875

> <r_mmod_Electrostatic_Energy-OPLS-2005>
-421.854156494141

> <r_mmod_Solvation_Energy-OPLS-2005>
-249.003311157227

> <b_mmod_Minimization_Converged-OPLS-2005>
0

> <r_mmod_RMS_Derivative-OPLS-2005>
11.8107318878174

$$$$
26
                    3D
 Structure written by MMmdl.
153161  0  0  1  0            999 V2000
  -30.6151  -14.7786   20.4462 C   0  0  0  0  0  0
  -30.4281  -12.4779   19.4704 C   0  0  0  0  0  0
  -29.5070  -12.5042   18.2320 C   0  0  0  0  0  0
  -28.0346  -12.3237   18.6497 C   0  0  0  0  0  0
  -27.6344  -13.2359   19.8405 C   0  0  2  0  0  0
  -28.6816  -13.2018   20.9737 C   0  0  0  0  0  0
  -25.2482  -13.8204   20.5700 C   0  0  0  0  0  0
  -24.1788  -13.0438   20.9225 C   0  0  0  0  0  0
  -24.6390  -11.6920   20.8757 C   0  0  0  0  0  0
  -23.9072  -10.4293   21.0409 C   0  0  0  0  0  0
  -24.3624   -9.4207   21.9185 C   0  0  0  0  0  0
  -23.6298   -8.2241   22.0754 C   0  0  0  0  0  0
  -22.4278   -8.0281   21.3545 C   0  0  0  0  0  0
  -21.9915   -9.0255   20.4648 C   0  0  0  0  0  0
  -22.7245  -10.2133   20.3057 C   0  0  0  0  0  0
  -21.6854   -6.0735   22.5280 C   0  0  0  0  0  0
  -21.4013   -6.5639   23.8214 C   0  0  0  0  0  0
  -21.3661   -5.6792   24.9177 C   0  0  0  0  0  0
  -21.6045   -4.3055   24.7226 C   0  0  0  0  0  0
  -21.8819   -3.8146   23.4348 C   0  0  0  0  0  0
  -21.9194   -4.6963   22.3403 C   0  0  0  0  0  0
  -22.7808  -13.5216   21.1880 C   0  0  0  0  0  0
  -22.1662   -4.2148   21.0981 F   0  0  0  0  0  0
  -21.5632   -3.4540   25.7741 F   0  0  0  0  0  0
  -29.9725  -13.5588   20.3765 N   0  0  0  0  0  0
  -26.2902  -12.9416   20.3251 N   0  0  0  0  0  0
  -25.9318  -11.6556   20.5751 N   0  0  0  0  0  0
  -22.0454  -12.8204   22.0433 N   0  0  0  0  0  0
  -25.4142  -15.1932   20.4110 N   0  0  0  0  0  0
  -31.8258  -14.8074   20.2062 O   0  0  0  0  0  0
  -21.6642   -6.8877   21.4240 O   0  0  0  0  0  0
  -22.3489  -14.5519   20.6725 O   0  0  0  0  0  0
  -24.6328  -31.8529   23.1954 C   0  0  0  0  0  0
  -25.9145  -32.4741   23.8310 C   0  0  1  0  0  0
  -27.2188  -27.2472   20.1422 C   0  0  0  0  0  0
  -25.5934  -33.8543   24.2240 N   0  0  0  0  0  0
  -23.4304  -30.4733   21.5390 C   0  0  2  0  0  0
  -24.8782  -28.9105   20.1158 C   0  0  0  0  0  0
  -22.7509  -29.4591   22.4905 C   0  0  0  0  0  0
  -18.0293  -28.1389   22.8481 C   0  0  0  0  0  0
  -24.1488  -36.7276   23.2640 C   0  0  0  0  0  0
  -25.9760  -30.7631   21.3745 C   0  0  0  0  0  0
  -26.0507  -29.3815   20.7218 C   0  0  0  0  0  0
  -27.2284  -28.5645   20.7167 C   0  0  0  0  0  0
  -26.0253  -26.8379   19.5163 C   0  0  0  0  0  0
  -24.8705  -27.6474   19.5011 C   0  0  0  0  0  0
  -23.6503  -29.8013   20.1577 C   0  0  0  0  0  0
  -25.4117  -36.3062   24.0325 C   0  0  1  0  0  0
  -20.5897  -28.3699   23.1264 C   0  0  2  0  0  0
  -20.6779  -26.9415   22.5406 C   0  0  0  0  0  0
  -19.5757  -26.6385   21.5207 C   0  0  0  0  0  0
  -18.1938  -26.7932   22.1621 C   0  0  0  0  0  0
  -19.1548  -28.8863   23.2868 C   0  0  0  0  0  0
  -18.9467  -30.1461   23.8891 C   0  0  0  0  0  0
  -17.6465  -30.6589   24.0560 C   0  0  0  0  0  0
  -25.9057  -34.9431   23.5089 C   0  0  0  0  0  0
  -16.5357  -29.9083   23.6330 C   0  0  0  0  0  0
  -16.7279  -28.6501   23.0353 C   0  0  0  0  0  0
  -26.4510  -31.6574   25.0707 C   0  0  0  0  0  0
  -25.3728  -31.3727   26.1425 C   0  0  0  0  0  0
  -27.0356  -30.2988   24.6201 C   0  0  0  0  0  0
  -27.6060  -32.4315   25.7487 C   0  0  0  0  0  0
  -27.5579  -37.1794   24.8466 C   0  0  0  0  0  0
  -21.4214  -29.3043   22.3651 N   0  0  0  0  0  0
  -26.4290  -37.3763   23.9410 N   0  0  0  0  0  0
  -24.6991  -31.0483   22.0931 N   0  0  0  0  0  0
  -23.4203  -28.8137   23.3015 O   0  0  0  0  0  0
  -28.3103  -26.3506   20.1331 O   0  0  0  0  0  0
  -26.5630  -34.8913   22.4659 O   0  0  0  0  0  0
  -23.5474  -32.1353   23.7244 O   0  0  0  0  0  0
  -27.5373  -19.3206   18.7481 C   0  0  0  0  0  0
  -28.3285  -18.2702   19.2544 C   0  0  0  0  0  0
  -27.7170  -20.6541   19.1660 C   0  0  0  0  0  0
  -29.3364  -18.4955   20.2172 C   0  0  0  0  0  0
  -29.4875  -19.8976   20.6621 C   0  0  0  0  0  0
  -28.6876  -21.0094   20.1289 C   0  0  0  0  0  0
  -30.2750  -17.2796   20.5759 C   0  0  0  0  0  0
  -28.3831  -23.6413   19.9602 C   0  0  0  0  0  0
  -30.5313  -20.2343   21.7195 C   0  0  0  0  0  0
  -28.1703  -25.0021   20.8000 C   0  0  0  0  0  0
  -28.7461  -22.4390   20.5794 N   0  0  0  0  0  0
  -29.8512  -15.9484   20.5249 N   0  0  0  0  0  0
  -31.4361  -17.5557   20.8935 O   0  0  0  0  0  0
  -28.2174  -23.6954   18.7383 O   0  0  0  0  0  0
  -31.4681  -12.6005   19.1634 H   0  0  0  0  0  0
  -30.3769  -11.5106   19.9727 H   0  0  0  0  0  0
  -29.7953  -11.7222   17.5281 H   0  0  0  0  0  0
  -29.6270  -13.4509   17.7034 H   0  0  0  0  0  0
  -27.8995  -11.2770   18.9254 H   0  0  0  0  0  0
  -27.3750  -12.5003   17.7992 H   0  0  0  0  0  0
  -27.6167  -14.2502   19.4417 H   0  0  0  0  0  0
  -28.7291  -12.2134   21.4331 H   0  0  0  0  0  0
  -28.4150  -13.9001   21.7686 H   0  0  0  0  0  0
  -25.2769   -9.5686   22.4760 H   0  0  0  0  0  0
  -24.0010   -7.4632   22.7472 H   0  0  0  0  0  0
  -21.0848   -8.8775   19.8952 H   0  0  0  0  0  0
  -22.3704  -10.9672   19.6167 H   0  0  0  0  0  0
  -21.1999   -7.6145   23.9716 H   0  0  0  0  0  0
  -21.1485   -6.0522   25.9079 H   0  0  0  0  0  0
  -22.0595   -2.7608   23.2850 H   0  0  0  0  0  0
  -22.4075  -11.9871   22.4826 H   0  0  0  0  0  0
  -21.1069  -13.1221   22.2636 H   0  0  0  0  0  0
  -24.6409  -15.8400   20.5214 H   0  0  0  0  0  0
  -26.2498  -15.6381   20.0574 H   0  0  0  0  0  0
  -26.7209  -32.5393   23.1046 H   0  0  0  0  0  0
  -25.0080  -33.9670   25.0387 H   0  0  0  0  0  0
  -22.7279  -31.2957   21.3893 H   0  0  0  0  0  0
  -23.3751  -35.9606   23.3298 H   0  0  0  0  0  0
  -24.3577  -36.8906   22.2055 H   0  0  0  0  0  0
  -23.7238  -37.6474   23.6668 H   0  0  0  0  0  0
  -26.1127  -31.5207   20.6015 H   0  0  0  0  0  0
  -26.8538  -30.8169   22.0069 H   0  0  0  0  0  0
  -28.1320  -28.9241   21.1886 H   0  0  0  0  0  0
  -25.9823  -25.8665   19.0435 H   0  0  0  0  0  0
  -23.9727  -27.2818   19.0219 H   0  0  0  0  0  0
  -23.7783  -30.5739   19.3986 H   0  0  0  0  0  0
  -22.7680  -29.2357   19.8531 H   0  0  0  0  0  0
  -25.1298  -36.1905   25.0816 H   0  0  0  0  0  0
  -20.9992  -28.3280   24.1384 H   0  0  0  0  0  0
  -20.5670  -26.2309   23.3611 H   0  0  0  0  0  0
  -21.6648  -26.7432   22.1207 H   0  0  0  0  0  0
  -19.6915  -25.6292   21.1246 H   0  0  0  0  0  0
  -19.6695  -27.3186   20.6730 H   0  0  0  0  0  0
  -17.4205  -26.6672   21.4028 H   0  0  0  0  0  0
  -18.0342  -26.0078   22.9022 H   0  0  0  0  0  0
  -19.7942  -30.7279   24.2260 H   0  0  0  0  0  0
  -17.5018  -31.6270   24.5159 H   0  0  0  0  0  0
  -15.5356  -30.2981   23.7657 H   0  0  0  0  0  0
  -15.8681  -28.0814   22.7074 H   0  0  0  0  0  0
  -24.5911  -30.7067   25.7754 H   0  0  0  0  0  0
  -24.8909  -32.2895   26.4829 H   0  0  0  0  0  0
  -25.8042  -30.8922   27.0217 H   0  0  0  0  0  0
  -26.2939  -29.6732   24.1220 H   0  0  0  0  0  0
  -27.4028  -29.7256   25.4725 H   0  0  0  0  0  0
  -27.8821  -30.4257   23.9449 H   0  0  0  0  0  0
  -27.2670  -33.3624   26.2045 H   0  0  0  0  0  0
  -28.3886  -32.6861   25.0326 H   0  0  0  0  0  0
  -28.0712  -31.8451   26.5422 H   0  0  0  0  0  0
  -28.2593  -38.0094   24.7512 H   0  0  0  0  0  0
  -28.1080  -36.2625   24.6295 H   0  0  0  0  0  0
  -27.2298  -37.1448   25.8869 H   0  0  0  0  0  0
  -20.9403  -29.8761   21.6849 H   0  0  0  0  0  0
  -26.0168  -38.2838   24.1409 H   0  0  0  0  0  0
  -26.7796  -19.0999   18.0090 H   0  0  0  0  0  0
  -28.1717  -17.2768   18.8573 H   0  0  0  0  0  0
  -27.0668  -21.4060   18.7425 H   0  0  0  0  0  0
  -30.5147  -19.5031   22.5281 H   0  0  0  0  0  0
  -30.3682  -21.2089   22.1765 H   0  0  0  0  0  0
  -31.5280  -20.2395   21.2778 H   0  0  0  0  0  0
  -28.8865  -24.9871   21.6217 H   0  0  0  0  0  0
  -27.1902  -24.9355   21.2742 H   0  0  0  0  0  0
  -29.0327  -22.5606   21.5409 H   0  0  0  0  0  0
  -28.8566  -15.8199   20.4712 H   0  0  0  0  0  0
  1 25  1  0  0  0
  1 30  2  0  0  0
  1 82  1  0  0  0
  2  3  1  0  0  0
  2 25  1  0  0  0
  2 85  1  0  0  0
  2 86  1  0  0  0
  3  4  1  0  0  0
  3 87  1  0  0  0
  3 88  1  0  0  0
  4  5  1  0  0  0
  4 89  1  0  0  0
  4 90  1  0  0  0
  5  6  1  0  0  0
  5 26  1  0  0  0
  5 91  1  0  0  0
  6 25  1  0  0  0
  6 92  1  0  0  0
  6 93  1  0  0  0
  7  8  2  0  0  0
  7 26  1  0  0  0
  7 29  1  0  0  0
  8  9  1  0  0  0
  8 22  1  0  0  0
  9 10  1  0  0  0
  9 27  2  0  0  0
 10 11  2  0  0  0
 10 15  1  0  0  0
 11 12  1  0  0  0
 11 94  1  0  0  0
 12 13  2  0  0  0
 12 95  1  0  0  0
 13 14  1  0  0  0
 13 31  1  0  0  0
 14 15  2  0  0  0
 14 96  1  0  0  0
 15 97  1  0  0  0
 16 17  2  0  0  0
 16 21  1  0  0  0
 16 31  1  0  0  0
 17 18  1  0  0  0
 17 98  1  0  0  0
 18 19  2  0  0  0
 18 99  1  0  0  0
 19 20  1  0  0  0
 19 24  1  0  0  0
 20 21  2  0  0  0
 20100  1  0  0  0
 21 23  1  0  0  0
 22 28  1  0  0  0
 22 32  2  0  0  0
 26 27  1  0  0  0
 28101  1  0  0  0
 28102  1  0  0  0
 29103  1  0  0  0
 29104  1  0  0  0
 33 34  1  0  0  0
 33 66  1  0  0  0
 33 70  2  0  0  0
 34 36  1  0  0  0
 34 59  1  0  0  0
 34105  1  0  0  0
 35 44  2  0  0  0
 35 45  1  0  0  0
 35 68  1  0  0  0
 36 56  1  0  0  0
 36106  1  0  0  0
 37 39  1  0  0  0
 37 47  1  0  0  0
 37 66  1  0  0  0
 37107  1  0  0  0
 38 43  2  0  0  0
 38 46  1  0  0  0
 38 47  1  0  0  0
 39 64  1  0  0  0
 39 67  2  0  0  0
 40 52  1  0  0  0
 40 53  2  0  0  0
 40 58  1  0  0  0
 41108  1  0  0  0
 41109  1  0  0  0
 41110  1  0  0  0
 41 48  1  0  0  0
 42 43  1  0  0  0
 42 66  1  0  0  0
 42111  1  0  0  0
 42112  1  0  0  0
 43 44  1  0  0  0
 44113  1  0  0  0
 45 46  2  0  0  0
 45114  1  0  0  0
 46115  1  0  0  0
 47116  1  0  0  0
 47117  1  0  0  0
 48 56  1  0  0  0
 48 65  1  0  0  0
 48118  1  0  0  0
 49 50  1  0  0  0
 49 53  1  0  0  0
 49 64  1  0  0  0
 49119  1  0  0  0
 50 51  1  0  0  0
 50120  1  0  0  0
 50121  1  0  0  0
 51 52  1  0  0  0
 51122  1  0  0  0
 51123  1  0  0  0
 52124  1  0  0  0
 52125  1  0  0  0
 53 54  1  0  0  0
 54 55  2  0  0  0
 54126  1  0  0  0
 55 57  1  0  0  0
 55127  1  0  0  0
 56 69  2  0  0  0
 57 58  2  0  0  0
 57128  1  0  0  0
 58129  1  0  0  0
 59 60  1  0  0  0
 59 61  1  0  0  0
 59 62  1  0  0  0
 60130  1  0  0  0
 60131  1  0  0  0
 60132  1  0  0  0
 61133  1  0  0  0
 61134  1  0  0  0
 61135  1  0  0  0
 62136  1  0  0  0
 62137  1  0  0  0
 62138  1  0  0  0
 63 65  1  0  0  0
 63139  1  0  0  0
 63140  1  0  0  0
 63141  1  0  0  0
 64142  1  0  0  0
 65143  1  0  0  0
 68 80  1  0  0  0
 71 72  2  0  0  0
 71 73  1  0  0  0
 71144  1  0  0  0
 72 74  1  0  0  0
 72145  1  0  0  0
 73 76  2  0  0  0
 73146  1  0  0  0
 74 75  2  0  0  0
 74 77  1  0  0  0
 75 76  1  0  0  0
 75 79  1  0  0  0
 76 81  1  0  0  0
 77 82  1  0  0  0
 77 83  2  0  0  0
 78 80  1  0  0  0
 78 81  1  0  0  0
 78 84  2  0  0  0
 79147  1  0  0  0
 79148  1  0  0  0
 79149  1  0  0  0
 80150  1  0  0  0
 80151  1  0  0  0
 81152  1  0  0  0
 82153  1  0  0  0
M  ISO  4   1 100  68 101  80 101  82 100
M  END
> <chiral flag>
0

> <version>
0

> <s_m_source_file>
/data/baiqing/PycharmProjects/Reinvent-master-3.2/result/LINK_invent/BTK/process_docking_weight1_custom_product_contain_oxygen_bond_distance_aromatic_linkinvent_7_9_3/rearranged_h_0060.sdf

> <i_m_source_file_index>
27

> <r_mmod_Potential_Energy-OPLS-2005>
124.304100036621

> <r_mmod_Stretch_Energy-OPLS-2005>
143.041809082031

> <r_mmod_Bend_Energy-OPLS-2005>
167.110656738281

> <r_mmod_Torsional_Energy-OPLS-2005>
261.510070800781

> <r_mmod_Improper_Torsional_Energy-OPLS-2005>
6.87458801269531

> <r_mmod_Van_der_Waal_Energy-OPLS-2005>
140.302169799805

> <r_mmod_Electrostatic_Energy-OPLS-2005>
-439.330810546875

> <r_mmod_Solvation_Energy-OPLS-2005>
-252.802154541016

> <b_mmod_Minimization_Converged-OPLS-2005>
0

> <r_mmod_RMS_Derivative-OPLS-2005>
0.559409856796265

$$$$
27
                    3D
 Structure written by MMmdl.
157165  0  0  1  0            999 V2000
  -30.7320  -14.4734   20.5715 C   0  0  0  0  0  0
  -30.4115  -12.3082   19.4293 C   0  0  0  0  0  0
  -29.4915  -12.4988   18.2081 C   0  0  0  0  0  0
  -28.0137  -12.3636   18.6211 C   0  0  0  0  0  0
  -27.6578  -13.2136   19.8706 C   0  0  2  0  0  0
  -28.7009  -13.0258   20.9959 C   0  0  0  0  0  0
  -25.2569  -13.8178   20.5683 C   0  0  0  0  0  0
  -24.1832  -13.0446   20.9185 C   0  0  0  0  0  0
  -24.6395  -11.6913   20.8740 C   0  0  0  0  0  0
  -23.9065  -10.4296   21.0408 C   0  0  0  0  0  0
  -24.3615   -9.4210   21.9189 C   0  0  0  0  0  0
  -23.6289   -8.2247   22.0757 C   0  0  0  0  0  0
  -22.4272   -8.0286   21.3546 C   0  0  0  0  0  0
  -21.9914   -9.0258   20.4644 C   0  0  0  0  0  0
  -22.7241  -10.2138   20.3053 C   0  0  0  0  0  0
  -21.6852   -6.0737   22.5278 C   0  0  0  0  0  0
  -21.4010   -6.5639   23.8212 C   0  0  0  0  0  0
  -21.3657   -5.6794   24.9174 C   0  0  0  0  0  0
  -21.6049   -4.3058   24.7225 C   0  0  0  0  0  0
  -21.8819   -3.8149   23.4347 C   0  0  0  0  0  0
  -21.9191   -4.6965   22.3402 C   0  0  0  0  0  0
  -22.7858  -13.5239   21.1854 C   0  0  0  0  0  0
  -22.1661   -4.2150   21.0980 F   0  0  0  0  0  0
  -21.5632   -3.4543   25.7739 F   0  0  0  0  0  0
  -30.0291  -13.3152   20.4331 N   0  0  0  0  0  0
  -26.3008  -12.9359   20.3356 N   0  0  0  0  0  0
  -25.9323  -11.6513   20.5767 N   0  0  0  0  0  0
  -22.0505  -12.8216   22.0404 N   0  0  0  0  0  0
  -25.4284  -15.1898   20.4076 N   0  0  0  0  0  0
  -31.8633  -14.6102   20.0980 O   0  0  0  0  0  0
  -21.6637   -6.8881   21.4241 O   0  0  0  0  0  0
  -22.3541  -14.5551   20.6714 O   0  0  0  0  0  0
  -24.6175  -31.8680   23.2114 C   0  0  0  0  0  0
  -25.9067  -32.4819   23.8407 C   0  0  1  0  0  0
  -27.2220  -27.4099   20.0939 C   0  0  0  0  0  0
  -25.5917  -33.8619   24.2333 N   0  0  0  0  0  0
  -23.4048  -30.4949   21.5536 C   0  0  2  0  0  0
  -24.8476  -28.9668   20.1109 C   0  0  0  0  0  0
  -22.7424  -29.4660   22.4987 C   0  0  0  0  0  0
  -18.0274  -28.1379   22.8499 C   0  0  0  0  0  0
  -24.1485  -36.7305   23.2641 C   0  0  0  0  0  0
  -25.9386  -30.8252   21.3703 C   0  0  0  0  0  0
  -26.0125  -29.4617   20.7107 C   0  0  0  0  0  0
  -27.2024  -28.6917   20.6991 C   0  0  0  0  0  0
  -26.0369  -26.9521   19.4665 C   0  0  0  0  0  0
  -24.8566  -27.7124   19.4843 C   0  0  0  0  0  0
  -23.6118  -29.8356   20.1661 C   0  0  0  0  0  0
  -25.4112  -36.3111   24.0337 C   0  0  1  0  0  0
  -20.5868  -28.3670   23.1314 C   0  0  2  0  0  0
  -20.6764  -26.9406   22.5415 C   0  0  0  0  0  0
  -19.5735  -26.6382   21.5216 C   0  0  0  0  0  0
  -18.1917  -26.7926   22.1629 C   0  0  0  0  0  0
  -19.1526  -28.8844   23.2897 C   0  0  0  0  0  0
  -18.9453  -30.1452   23.8899 C   0  0  0  0  0  0
  -17.6456  -30.6589   24.0564 C   0  0  0  0  0  0
  -25.9040  -34.9476   23.5130 C   0  0  0  0  0  0
  -16.5345  -29.9087   23.6334 C   0  0  0  0  0  0
  -16.7262  -28.6504   23.0353 C   0  0  0  0  0  0
  -26.4485  -31.6599   25.0739 C   0  0  0  0  0  0
  -25.3741  -31.3672   26.1467 C   0  0  0  0  0  0
  -27.0351  -30.3056   24.6128 C   0  0  0  0  0  0
  -27.6048  -32.4328   25.7514 C   0  0  0  0  0  0
  -27.5579  -37.1808   24.8470 C   0  0  0  0  0  0
  -21.4150  -29.3037   22.3722 N   0  0  0  0  0  0
  -26.4297  -37.3797   23.9410 N   0  0  0  0  0  0
  -24.6721  -31.0766   22.1030 N   0  0  0  0  0  0
  -23.4190  -28.8191   23.3025 O   0  0  0  0  0  0
  -28.3669  -26.6258   20.1435 O   0  0  0  0  0  0
  -26.5594  -34.8926   22.4688 O   0  0  0  0  0  0
  -23.5361  -32.1443   23.7496 O   0  0  0  0  0  0
  -31.7376  -19.3947   21.8193 C   0  0  0  0  0  0
  -31.8960  -16.9648   21.9476 C   0  0  0  0  0  0
  -29.8960  -18.0103   21.0234 C   0  0  0  0  0  0
  -32.4526  -18.2358   22.1772 C   0  0  0  0  0  0
  -30.4456  -19.3069   21.2428 C   0  0  0  0  0  0
  -30.6221  -16.8310   21.3501 C   0  0  0  0  0  0
  -29.9210  -21.7880   21.0438 C   0  0  0  0  0  0
  -33.8320  -18.3508   22.7966 C   0  0  0  0  0  0
  -28.9226  -22.7782   20.4100 C   0  0  0  0  0  0
  -29.2767  -24.2930   20.5529 C   0  0  0  0  0  0
  -28.1698  -25.2032   19.9732 C   0  0  0  0  0  0
  -29.6894  -20.4662   20.8413 N   0  0  0  0  0  0
  -30.0730  -15.5264   21.1066 N   0  0  0  0  0  0
  -30.8559  -22.2341   21.7115 O   0  0  0  0  0  0
  -31.4580  -12.3828   19.1297 H   0  0  0  0  0  0
  -30.2945  -11.3054   19.8433 H   0  0  0  0  0  0
  -29.7312  -11.7647   17.4376 H   0  0  0  0  0  0
  -29.6640  -13.4800   17.7627 H   0  0  0  0  0  0
  -27.8234  -11.3090   18.8247 H   0  0  0  0  0  0
  -27.3640  -12.6321   17.7873 H   0  0  0  0  0  0
  -27.6936  -14.2572   19.5571 H   0  0  0  0  0  0
  -28.6776  -12.0020   21.3723 H   0  0  0  0  0  0
  -28.4672  -13.6590   21.8532 H   0  0  0  0  0  0
  -25.2757   -9.5692   22.4767 H   0  0  0  0  0  0
  -23.9999   -7.4641   22.7478 H   0  0  0  0  0  0
  -21.0851   -8.8777   19.8942 H   0  0  0  0  0  0
  -22.3703  -10.9678   19.6160 H   0  0  0  0  0  0
  -21.1998   -7.6148   23.9714 H   0  0  0  0  0  0
  -21.1482   -6.0525   25.9078 H   0  0  0  0  0  0
  -22.0600   -2.7613   23.2848 H   0  0  0  0  0  0
  -22.4117  -11.9853   22.4756 H   0  0  0  0  0  0
  -21.1127  -13.1240   22.2632 H   0  0  0  0  0  0
  -24.6622  -15.8461   20.5118 H   0  0  0  0  0  0
  -26.2794  -15.6262   20.0764 H   0  0  0  0  0  0
  -26.7133  -32.5526   23.1163 H   0  0  0  0  0  0
  -25.0083  -33.9780   25.0488 H   0  0  0  0  0  0
  -22.6940  -31.3131   21.4190 H   0  0  0  0  0  0
  -23.3761  -35.9624   23.3306 H   0  0  0  0  0  0
  -24.3567  -36.8927   22.2055 H   0  0  0  0  0  0
  -23.7226  -37.6503   23.6662 H   0  0  0  0  0  0
  -26.0596  -31.5945   20.6061 H   0  0  0  0  0  0
  -26.8235  -30.8708   21.9935 H   0  0  0  0  0  0
  -28.0973  -29.0659   21.1765 H   0  0  0  0  0  0
  -25.9931  -26.0004   18.9578 H   0  0  0  0  0  0
  -23.9643  -27.3285   19.0087 H   0  0  0  0  0  0
  -23.7200  -30.6146   19.4107 H   0  0  0  0  0  0
  -22.7332  -29.2593   19.8695 H   0  0  0  0  0  0
  -25.1285  -36.1977   25.0830 H   0  0  0  0  0  0
  -20.9956  -28.3241   24.1435 H   0  0  0  0  0  0
  -20.5692  -26.2270   23.3601 H   0  0  0  0  0  0
  -21.6632  -26.7462   22.1192 H   0  0  0  0  0  0
  -19.6897  -25.6299   21.1233 H   0  0  0  0  0  0
  -19.6672  -27.3198   20.6756 H   0  0  0  0  0  0
  -17.4191  -26.6699   21.4022 H   0  0  0  0  0  0
  -18.0297  -26.0064   22.9016 H   0  0  0  0  0  0
  -19.7931  -30.7272   24.2256 H   0  0  0  0  0  0
  -17.5015  -31.6267   24.5170 H   0  0  0  0  0  0
  -15.5345  -30.2988   23.7662 H   0  0  0  0  0  0
  -15.8664  -28.0825   22.7063 H   0  0  0  0  0  0
  -24.5927  -30.7019   25.7776 H   0  0  0  0  0  0
  -24.8914  -32.2809   26.4942 H   0  0  0  0  0  0
  -25.8091  -30.8811   27.0210 H   0  0  0  0  0  0
  -26.2916  -29.6782   24.1199 H   0  0  0  0  0  0
  -27.4157  -29.7319   25.4590 H   0  0  0  0  0  0
  -27.8726  -30.4396   23.9276 H   0  0  0  0  0  0
  -27.2660  -33.3618   26.2113 H   0  0  0  0  0  0
  -28.3850  -32.6906   25.0339 H   0  0  0  0  0  0
  -28.0727  -31.8443   26.5415 H   0  0  0  0  0  0
  -28.2597  -38.0107   24.7541 H   0  0  0  0  0  0
  -28.1079  -36.2639   24.6287 H   0  0  0  0  0  0
  -27.2285  -37.1450   25.8869 H   0  0  0  0  0  0
  -20.9305  -29.8765   21.6952 H   0  0  0  0  0  0
  -26.0188  -38.2875   24.1420 H   0  0  0  0  0  0
  -32.2161  -20.3455   21.9922 H   0  0  0  0  0  0
  -32.4641  -16.0874   22.2255 H   0  0  0  0  0  0
  -28.9164  -17.9178   20.5750 H   0  0  0  0  0  0
  -34.0383  -19.3678   23.1322 H   0  0  0  0  0  0
  -34.5969  -18.0718   22.0711 H   0  0  0  0  0  0
  -33.9224  -17.6899   23.6594 H   0  0  0  0  0  0
  -27.9484  -22.5928   20.8639 H   0  0  0  0  0  0
  -28.8220  -22.5306   19.3526 H   0  0  0  0  0  0
  -30.2238  -24.5024   20.0547 H   0  0  0  0  0  0
  -29.4192  -24.5370   21.6064 H   0  0  0  0  0  0
  -27.2446  -24.8989   20.4667 H   0  0  0  0  0  0
  -28.0543  -24.9893   18.9092 H   0  0  0  0  0  0
  -28.8474  -20.2697   20.3172 H   0  0  0  0  0  0
  -29.0893  -15.3938   21.2878 H   0  0  0  0  0  0
  1 25  1  0  0  0
  1 30  2  0  0  0
  1 83  1  0  0  0
  2  3  1  0  0  0
  2 25  1  0  0  0
  2 85  1  0  0  0
  2 86  1  0  0  0
  3  4  1  0  0  0
  3 87  1  0  0  0
  3 88  1  0  0  0
  4  5  1  0  0  0
  4 89  1  0  0  0
  4 90  1  0  0  0
  5  6  1  0  0  0
  5 26  1  0  0  0
  5 91  1  0  0  0
  6 25  1  0  0  0
  6 92  1  0  0  0
  6 93  1  0  0  0
  7  8  2  0  0  0
  7 26  1  0  0  0
  7 29  1  0  0  0
  8  9  1  0  0  0
  8 22  1  0  0  0
  9 10  1  0  0  0
  9 27  2  0  0  0
 10 11  2  0  0  0
 10 15  1  0  0  0
 11 12  1  0  0  0
 11 94  1  0  0  0
 12 13  2  0  0  0
 12 95  1  0  0  0
 13 14  1  0  0  0
 13 31  1  0  0  0
 14 15  2  0  0  0
 14 96  1  0  0  0
 15 97  1  0  0  0
 16 17  2  0  0  0
 16 21  1  0  0  0
 16 31  1  0  0  0
 17 18  1  0  0  0
 17 98  1  0  0  0
 18 19  2  0  0  0
 18 99  1  0  0  0
 19 20  1  0  0  0
 19 24  1  0  0  0
 20 21  2  0  0  0
 20100  1  0  0  0
 21 23  1  0  0  0
 22 28  1  0  0  0
 22 32  2  0  0  0
 26 27  1  0  0  0
 28101  1  0  0  0
 28102  1  0  0  0
 29103  1  0  0  0
 29104  1  0  0  0
 33 34  1  0  0  0
 33 66  1  0  0  0
 33 70  2  0  0  0
 34 36  1  0  0  0
 34 59  1  0  0  0
 34105  1  0  0  0
 35 44  2  0  0  0
 35 45  1  0  0  0
 35 68  1  0  0  0
 36 56  1  0  0  0
 36106  1  0  0  0
 37 39  1  0  0  0
 37 47  1  0  0  0
 37 66  1  0  0  0
 37107  1  0  0  0
 38 43  2  0  0  0
 38 46  1  0  0  0
 38 47  1  0  0  0
 39 64  1  0  0  0
 39 67  2  0  0  0
 40 52  1  0  0  0
 40 53  2  0  0  0
 40 58  1  0  0  0
 41108  1  0  0  0
 41109  1  0  0  0
 41110  1  0  0  0
 41 48  1  0  0  0
 42 43  1  0  0  0
 42 66  1  0  0  0
 42111  1  0  0  0
 42112  1  0  0  0
 43 44  1  0  0  0
 44113  1  0  0  0
 45 46  2  0  0  0
 45114  1  0  0  0
 46115  1  0  0  0
 47116  1  0  0  0
 47117  1  0  0  0
 48 56  1  0  0  0
 48 65  1  0  0  0
 48118  1  0  0  0
 49 50  1  0  0  0
 49 53  1  0  0  0
 49 64  1  0  0  0
 49119  1  0  0  0
 50 51  1  0  0  0
 50120  1  0  0  0
 50121  1  0  0  0
 51 52  1  0  0  0
 51122  1  0  0  0
 51123  1  0  0  0
 52124  1  0  0  0
 52125  1  0  0  0
 53 54  1  0  0  0
 54 55  2  0  0  0
 54126  1  0  0  0
 55 57  1  0  0  0
 55127  1  0  0  0
 56 69  2  0  0  0
 57 58  2  0  0  0
 57128  1  0  0  0
 58129  1  0  0  0
 59 60  1  0  0  0
 59 61  1  0  0  0
 59 62  1  0  0  0
 60130  1  0  0  0
 60131  1  0  0  0
 60132  1  0  0  0
 61133  1  0  0  0
 61134  1  0  0  0
 61135  1  0  0  0
 62136  1  0  0  0
 62137  1  0  0  0
 62138  1  0  0  0
 63 65  1  0  0  0
 63139  1  0  0  0
 63140  1  0  0  0
 63141  1  0  0  0
 64142  1  0  0  0
 65143  1  0  0  0
 68 81  1  0  0  0
 71 74  2  0  0  0
 71 75  1  0  0  0
 71144  1  0  0  0
 72 74  1  0  0  0
 72 76  2  0  0  0
 72145  1  0  0  0
 73 75  2  0  0  0
 73 76  1  0  0  0
 73146  1  0  0  0
 74 78  1  0  0  0
 75 82  1  0  0  0
 76 83  1  0  0  0
 77 79  1  0  0  0
 77 82  1  0  0  0
 77 84  2  0  0  0
 78147  1  0  0  0
 78148  1  0  0  0
 78149  1  0  0  0
 79 80  1  0  0  0
 79150  1  0  0  0
 79151  1  0  0  0
 80 81  1  0  0  0
 80152  1  0  0  0
 80153  1  0  0  0
 81154  1  0  0  0
 81155  1  0  0  0
 82156  1  0  0  0
 83157  1  0  0  0
M  ISO  4   1 100  68 101  81 101  83 100
M  END
> <chiral flag>
0

> <version>
0

> <s_m_source_file>
/data/baiqing/PycharmProjects/Reinvent-master-3.2/result/LINK_invent/BTK/process_docking_weight1_custom_product_contain_oxygen_bond_distance_aromatic_linkinvent_7_9_3/rearranged_h_0060.sdf

> <i_m_source_file_index>
28

> <r_mmod_Potential_Energy-OPLS-2005>
-75.9528503417969

> <r_mmod_Stretch_Energy-OPLS-2005>
43.5529899597168

> <r_mmod_Bend_Energy-OPLS-2005>
102.220924377441

> <r_mmod_Torsional_Energy-OPLS-2005>
222.655029296875

> <r_mmod_Improper_Torsional_Energy-OPLS-2005>
3.52967357635498

> <r_mmod_Van_der_Waal_Energy-OPLS-2005>
167.605407714844

> <r_mmod_Electrostatic_Energy-OPLS-2005>
-396.611022949219

> <r_mmod_Solvation_Energy-OPLS-2005>
-236.575576782227

> <b_mmod_Minimization_Converged-OPLS-2005>
0

> <r_mmod_RMS_Derivative-OPLS-2005>
0.693717777729034

$$$$
28
                    3D
 Structure written by MMmdl.
155163  0  0  1  0            999 V2000
  -30.6627  -14.6332   20.4956 C   0  0  0  0  0  0
  -30.4270  -12.3912   19.4501 C   0  0  0  0  0  0
  -29.5058  -12.5080   18.2177 C   0  0  0  0  0  0
  -28.0298  -12.3433   18.6329 C   0  0  0  0  0  0
  -27.6487  -13.2227   19.8548 C   0  0  2  0  0  0
  -28.6955  -13.1103   20.9862 C   0  0  0  0  0  0
  -25.2550  -13.8183   20.5678 C   0  0  0  0  0  0
  -24.1824  -13.0436   20.9183 C   0  0  0  0  0  0
  -24.6397  -11.6909   20.8725 C   0  0  0  0  0  0
  -23.9068  -10.4298   21.0407 C   0  0  0  0  0  0
  -24.3627   -9.4207   21.9183 C   0  0  0  0  0  0
  -23.6296   -8.2247   22.0753 C   0  0  0  0  0  0
  -22.4270   -8.0292   21.3551 C   0  0  0  0  0  0
  -21.9907   -9.0273   20.4657 C   0  0  0  0  0  0
  -22.7240  -10.2145   20.3061 C   0  0  0  0  0  0
  -21.6851   -6.0748   22.5283 C   0  0  0  0  0  0
  -21.4026   -6.5644   23.8220 C   0  0  0  0  0  0
  -21.3653   -5.6797   24.9178 C   0  0  0  0  0  0
  -21.6028   -4.3057   24.7227 C   0  0  0  0  0  0
  -21.8820   -3.8156   23.4346 C   0  0  0  0  0  0
  -21.9191   -4.6973   22.3403 C   0  0  0  0  0  0
  -22.7855  -13.5232   21.1839 C   0  0  0  0  0  0
  -22.1665   -4.2161   21.0981 F   0  0  0  0  0  0
  -21.5612   -3.4539   25.7741 F   0  0  0  0  0  0
  -30.0044  -13.4349   20.4050 N   0  0  0  0  0  0
  -26.2972  -12.9370   20.3288 N   0  0  0  0  0  0
  -25.9322  -11.6519   20.5735 N   0  0  0  0  0  0
  -22.0488  -12.8257   22.0408 N   0  0  0  0  0  0
  -25.4237  -15.1919   20.4122 N   0  0  0  0  0  0
  -31.8479  -14.7244   20.1672 O   0  0  0  0  0  0
  -21.6629   -6.8890   21.4245 O   0  0  0  0  0  0
  -22.3551  -14.5533   20.6668 O   0  0  0  0  0  0
  -24.6279  -31.8612   23.2061 C   0  0  0  0  0  0
  -25.9128  -32.4788   23.8377 C   0  0  1  0  0  0
  -27.2083  -27.3108   20.1126 C   0  0  0  0  0  0
  -25.5947  -33.8587   24.2305 N   0  0  0  0  0  0
  -23.4201  -30.4900   21.5497 C   0  0  2  0  0  0
  -24.8626  -28.9535   20.1085 C   0  0  0  0  0  0
  -22.7478  -29.4635   22.4939 C   0  0  0  0  0  0
  -18.0286  -28.1383   22.8482 C   0  0  0  0  0  0
  -24.1486  -36.7291   23.2639 C   0  0  0  0  0  0
  -25.9643  -30.7919   21.3774 C   0  0  0  0  0  0
  -26.0354  -29.4210   20.7142 C   0  0  0  0  0  0
  -27.2141  -28.6135   20.7044 C   0  0  0  0  0  0
  -26.0133  -26.9102   19.4701 C   0  0  0  0  0  0
  -24.8553  -27.7056   19.4735 C   0  0  0  0  0  0
  -23.6334  -29.8368   20.1612 C   0  0  0  0  0  0
  -25.4109  -36.3085   24.0335 C   0  0  1  0  0  0
  -20.5885  -28.3685   23.1281 C   0  0  2  0  0  0
  -20.6776  -26.9406   22.5410 C   0  0  0  0  0  0
  -19.5759  -26.6379   21.5205 C   0  0  0  0  0  0
  -18.1936  -26.7926   22.1613 C   0  0  0  0  0  0
  -19.1538  -28.8849   23.2879 C   0  0  0  0  0  0
  -18.9457  -30.1448   23.8907 C   0  0  0  0  0  0
  -17.6459  -30.6582   24.0556 C   0  0  0  0  0  0
  -25.9050  -34.9454   23.5116 C   0  0  0  0  0  0
  -16.5349  -29.9081   23.6325 C   0  0  0  0  0  0
  -16.7273  -28.6494   23.0350 C   0  0  0  0  0  0
  -26.4515  -31.6588   25.0740 C   0  0  0  0  0  0
  -25.3755  -31.3712   26.1470 C   0  0  0  0  0  0
  -27.0354  -30.3019   24.6172 C   0  0  0  0  0  0
  -27.6088  -32.4313   25.7495 C   0  0  0  0  0  0
  -27.5581  -37.1792   24.8462 C   0  0  0  0  0  0
  -21.4188  -29.3045   22.3677 N   0  0  0  0  0  0
  -26.4288  -37.3781   23.9417 N   0  0  0  0  0  0
  -24.6901  -31.0622   22.1017 N   0  0  0  0  0  0
  -23.4206  -28.8155   23.2999 O   0  0  0  0  0  0
  -28.3059  -26.4304   20.1558 O   0  0  0  0  0  0
  -26.5598  -34.8919   22.4670 O   0  0  0  0  0  0
  -23.5438  -32.1414   23.7390 O   0  0  0  0  0  0
  -32.0017  -18.7251   21.7885 C   0  0  0  0  0  0
  -31.5558  -17.4072   21.5789 C   0  0  0  0  0  0
  -31.2639  -19.8394   21.3335 C   0  0  0  0  0  0
  -30.3478  -17.1442   20.8957 C   0  0  0  0  0  0
  -30.0214  -19.6505   20.6732 C   0  0  0  0  0  0
  -29.5848  -18.2890   20.4589 C   0  0  0  0  0  0
  -31.8607  -21.2217   21.5442 C   0  0  0  0  0  0
  -27.9961  -24.9844   20.3483 C   0  0  0  0  0  0
  -29.1160  -23.8548   20.3476 C   0  0  0  0  0  0
  -29.9065  -15.7577   20.7151 N   0  0  0  0  0  0
  -29.2981  -20.7752   20.1564 N   0  0  0  0  0  0
  -27.0908  -22.0112   20.6237 O   0  0  0  0  0  0
  -28.8894  -22.0197   22.4011 O   0  0  0  0  0  0
  -28.4194  -18.0807   19.7988 F   0  0  0  0  0  0
  -28.5102  -22.1529   20.9855 S   0  0  0  0  0  0
  -31.4727  -12.4929   19.1554 H   0  0  0  0  0  0
  -30.3407  -11.4024   19.9029 H   0  0  0  0  0  0
  -29.7741  -11.7594   17.4718 H   0  0  0  0  0  0
  -29.6495  -13.4798   17.7409 H   0  0  0  0  0  0
  -27.8704  -11.2906   18.8712 H   0  0  0  0  0  0
  -27.3734  -12.5660   17.7899 H   0  0  0  0  0  0
  -27.6590  -14.2523   19.4989 H   0  0  0  0  0  0
  -28.7063  -12.1030   21.4047 H   0  0  0  0  0  0
  -28.4505  -13.7802   21.8125 H   0  0  0  0  0  0
  -25.2788   -9.5670   22.4742 H   0  0  0  0  0  0
  -24.0008   -7.4628   22.7460 H   0  0  0  0  0  0
  -21.0835   -8.8797   19.8974 H   0  0  0  0  0  0
  -22.3708  -10.9685   19.6162 H   0  0  0  0  0  0
  -21.2042   -7.6158   23.9730 H   0  0  0  0  0  0
  -21.1461   -6.0526   25.9079 H   0  0  0  0  0  0
  -22.0601   -2.7620   23.2843 H   0  0  0  0  0  0
  -22.4111  -11.9951   22.4859 H   0  0  0  0  0  0
  -21.1108  -13.1299   22.2584 H   0  0  0  0  0  0
  -24.6495  -15.8389   20.5203 H   0  0  0  0  0  0
  -26.2692  -15.6385   20.0806 H   0  0  0  0  0  0
  -26.7190  -32.5453   23.1118 H   0  0  0  0  0  0
  -25.0116  -33.9728   25.0466 H   0  0  0  0  0  0
  -22.7141  -31.3123   21.4145 H   0  0  0  0  0  0
  -23.3756  -35.9615   23.3289 H   0  0  0  0  0  0
  -24.3591  -36.8921   22.2058 H   0  0  0  0  0  0
  -23.7228  -37.6488   23.6660 H   0  0  0  0  0  0
  -26.0963  -31.5594   20.6137 H   0  0  0  0  0  0
  -26.8455  -30.8380   22.0057 H   0  0  0  0  0  0
  -28.1138  -28.9696   21.1858 H   0  0  0  0  0  0
  -25.9307  -25.9728   18.9450 H   0  0  0  0  0  0
  -23.9607  -27.3505   18.9803 H   0  0  0  0  0  0
  -23.7563  -30.6227   19.4145 H   0  0  0  0  0  0
  -22.7507  -29.2743   19.8521 H   0  0  0  0  0  0
  -25.1281  -36.1944   25.0827 H   0  0  0  0  0  0
  -20.9979  -28.3261   24.1400 H   0  0  0  0  0  0
  -20.5667  -26.2292   23.3608 H   0  0  0  0  0  0
  -21.6649  -26.7433   22.1210 H   0  0  0  0  0  0
  -19.6920  -25.6284   21.1247 H   0  0  0  0  0  0
  -19.6708  -27.3177   20.6725 H   0  0  0  0  0  0
  -17.4203  -26.6669   21.4014 H   0  0  0  0  0  0
  -18.0336  -26.0069   22.9011 H   0  0  0  0  0  0
  -19.7930  -30.7253   24.2298 H   0  0  0  0  0  0
  -17.5009  -31.6268   24.5146 H   0  0  0  0  0  0
  -15.5347  -30.2983   23.7643 H   0  0  0  0  0  0
  -15.8670  -28.0808   22.7077 H   0  0  0  0  0  0
  -24.5922  -30.7071   25.7796 H   0  0  0  0  0  0
  -24.8950  -32.2867   26.4926 H   0  0  0  0  0  0
  -25.8088  -30.8864   27.0228 H   0  0  0  0  0  0
  -26.2916  -29.6766   24.1218 H   0  0  0  0  0  0
  -27.4096  -29.7278   25.4660 H   0  0  0  0  0  0
  -27.8770  -30.4326   23.9366 H   0  0  0  0  0  0
  -27.2717  -33.3610   26.2092 H   0  0  0  0  0  0
  -28.3878  -32.6879   25.0303 H   0  0  0  0  0  0
  -28.0780  -31.8425   26.5389 H   0  0  0  0  0  0
  -28.2589  -38.0099   24.7522 H   0  0  0  0  0  0
  -28.1083  -36.2631   24.6259 H   0  0  0  0  0  0
  -27.2304  -37.1412   25.8866 H   0  0  0  0  0  0
  -20.9357  -29.8798   21.6918 H   0  0  0  0  0  0
  -26.0171  -38.2852   24.1441 H   0  0  0  0  0  0
  -32.9427  -18.8777   22.3009 H   0  0  0  0  0  0
  -32.1619  -16.5954   21.9550 H   0  0  0  0  0  0
  -32.9465  -21.1692   21.6340 H   0  0  0  0  0  0
  -31.4749  -21.6664   22.4610 H   0  0  0  0  0  0
  -31.6394  -21.8859   20.7089 H   0  0  0  0  0  0
  -27.4511  -24.9080   21.2906 H   0  0  0  0  0  0
  -27.3040  -24.6412   19.5839 H   0  0  0  0  0  0
  -29.9573  -24.1430   20.9734 H   0  0  0  0  0  0
  -29.5016  -23.7124   19.3403 H   0  0  0  0  0  0
  -28.9091  -15.6156   20.7188 H   0  0  0  0  0  0
  -28.6557  -20.4447   19.4482 H   0  0  0  0  0  0
  1 25  1  0  0  0
  1 30  2  0  0  0
  1 80  1  0  0  0
  2  3  1  0  0  0
  2 25  1  0  0  0
  2 86  1  0  0  0
  2 87  1  0  0  0
  3  4  1  0  0  0
  3 88  1  0  0  0
  3 89  1  0  0  0
  4  5  1  0  0  0
  4 90  1  0  0  0
  4 91  1  0  0  0
  5  6  1  0  0  0
  5 26  1  0  0  0
  5 92  1  0  0  0
  6 25  1  0  0  0
  6 93  1  0  0  0
  6 94  1  0  0  0
  7  8  2  0  0  0
  7 26  1  0  0  0
  7 29  1  0  0  0
  8  9  1  0  0  0
  8 22  1  0  0  0
  9 10  1  0  0  0
  9 27  2  0  0  0
 10 11  2  0  0  0
 10 15  1  0  0  0
 11 12  1  0  0  0
 11 95  1  0  0  0
 12 13  2  0  0  0
 12 96  1  0  0  0
 13 14  1  0  0  0
 13 31  1  0  0  0
 14 15  2  0  0  0
 14 97  1  0  0  0
 15 98  1  0  0  0
 16 17  2  0  0  0
 16 21  1  0  0  0
 16 31  1  0  0  0
 17 18  1  0  0  0
 17 99  1  0  0  0
 18 19  2  0  0  0
 18100  1  0  0  0
 19 20  1  0  0  0
 19 24  1  0  0  0
 20 21  2  0  0  0
 20101  1  0  0  0
 21 23  1  0  0  0
 22 28  1  0  0  0
 22 32  2  0  0  0
 26 27  1  0  0  0
 28102  1  0  0  0
 28103  1  0  0  0
 29104  1  0  0  0
 29105  1  0  0  0
 33 34  1  0  0  0
 33 66  1  0  0  0
 33 70  2  0  0  0
 34 36  1  0  0  0
 34 59  1  0  0  0
 34106  1  0  0  0
 35 44  2  0  0  0
 35 45  1  0  0  0
 35 68  1  0  0  0
 36 56  1  0  0  0
 36107  1  0  0  0
 37 39  1  0  0  0
 37 47  1  0  0  0
 37 66  1  0  0  0
 37108  1  0  0  0
 38 43  2  0  0  0
 38 46  1  0  0  0
 38 47  1  0  0  0
 39 64  1  0  0  0
 39 67  2  0  0  0
 40 52  1  0  0  0
 40 53  2  0  0  0
 40 58  1  0  0  0
 41109  1  0  0  0
 41110  1  0  0  0
 41111  1  0  0  0
 41 48  1  0  0  0
 42 43  1  0  0  0
 42 66  1  0  0  0
 42112  1  0  0  0
 42113  1  0  0  0
 43 44  1  0  0  0
 44114  1  0  0  0
 45 46  2  0  0  0
 45115  1  0  0  0
 46116  1  0  0  0
 47117  1  0  0  0
 47118  1  0  0  0
 48 56  1  0  0  0
 48 65  1  0  0  0
 48119  1  0  0  0
 49 50  1  0  0  0
 49 53  1  0  0  0
 49 64  1  0  0  0
 49120  1  0  0  0
 50 51  1  0  0  0
 50121  1  0  0  0
 50122  1  0  0  0
 51 52  1  0  0  0
 51123  1  0  0  0
 51124  1  0  0  0
 52125  1  0  0  0
 52126  1  0  0  0
 53 54  1  0  0  0
 54 55  2  0  0  0
 54127  1  0  0  0
 55 57  1  0  0  0
 55128  1  0  0  0
 56 69  2  0  0  0
 57 58  2  0  0  0
 57129  1  0  0  0
 58130  1  0  0  0
 59 60  1  0  0  0
 59 61  1  0  0  0
 59 62  1  0  0  0
 60131  1  0  0  0
 60132  1  0  0  0
 60133  1  0  0  0
 61134  1  0  0  0
 61135  1  0  0  0
 61136  1  0  0  0
 62137  1  0  0  0
 62138  1  0  0  0
 62139  1  0  0  0
 63 65  1  0  0  0
 63140  1  0  0  0
 63141  1  0  0  0
 63142  1  0  0  0
 64143  1  0  0  0
 65144  1  0  0  0
 68 78  1  0  0  0
 71 72  2  0  0  0
 71 73  1  0  0  0
 71145  1  0  0  0
 72 74  1  0  0  0
 72146  1  0  0  0
 73 75  2  0  0  0
 73 77  1  0  0  0
 74 76  2  0  0  0
 74 80  1  0  0  0
 75 76  1  0  0  0
 75 81  1  0  0  0
 76 84  1  0  0  0
 77147  1  0  0  0
 77148  1  0  0  0
 77149  1  0  0  0
 78 79  1  0  0  0
 78150  1  0  0  0
 78151  1  0  0  0
 79152  1  0  0  0
 79153  1  0  0  0
 79 85  1  0  0  0
 80154  1  0  0  0
 81 85  1  0  0  0
 81155  1  0  0  0
 82 85  2  0  0  0
 83 85  2  0  0  0
M  ISO  4   1 100  68 101  78 101  80 100
M  END
> <chiral flag>
0

> <version>
0

> <s_m_source_file>
/data/baiqing/PycharmProjects/Reinvent-master-3.2/result/LINK_invent/BTK/process_docking_weight1_custom_product_contain_oxygen_bond_distance_aromatic_linkinvent_7_9_3/rearranged_h_0060.sdf

> <i_m_source_file_index>
29

> <r_mmod_Potential_Energy-OPLS-2005>
-163.096343994141

> <r_mmod_Stretch_Energy-OPLS-2005>
81.1052856445312

> <r_mmod_Bend_Energy-OPLS-2005>
138.64485168457

> <r_mmod_Torsional_Energy-OPLS-2005>
240.652725219727

> <r_mmod_Improper_Torsional_Energy-OPLS-2005>
10.0179357528687

> <r_mmod_Van_der_Waal_Energy-OPLS-2005>
142.883346557617

> <r_mmod_Electrostatic_Energy-OPLS-2005>
-592.606750488281

> <r_mmod_Solvation_Energy-OPLS-2005>
-236.772598266602

> <b_mmod_Minimization_Converged-OPLS-2005>
0

> <r_mmod_RMS_Derivative-OPLS-2005>
1.87891232967377

$$$$
29
                    3D
 Structure written by MMmdl.
165173  0  0  1  0            999 V2000
  -30.6831  -14.4620   20.5801 C   0  0  0  0  0  0
  -30.4272  -12.3018   19.4147 C   0  0  0  0  0  0
  -29.4919  -12.5076   18.2044 C   0  0  0  0  0  0
  -28.0124  -12.3661   18.6170 C   0  0  0  0  0  0
  -27.6615  -13.1924   19.8825 C   0  0  2  0  0  0
  -28.7064  -12.9522   20.9956 C   0  0  0  0  0  0
  -25.2572  -13.8102   20.5703 C   0  0  0  0  0  0
  -24.1818  -13.0395   20.9178 C   0  0  0  0  0  0
  -24.6365  -11.6864   20.8746 C   0  0  0  0  0  0
  -23.9037  -10.4267   21.0416 C   0  0  0  0  0  0
  -24.3596   -9.4188   21.9192 C   0  0  0  0  0  0
  -23.6278   -8.2222   22.0759 C   0  0  0  0  0  0
  -22.4259   -8.0267   21.3548 C   0  0  0  0  0  0
  -21.9894   -9.0236   20.4643 C   0  0  0  0  0  0
  -22.7216  -10.2118   20.3059 C   0  0  0  0  0  0
  -21.6847   -6.0732   22.5284 C   0  0  0  0  0  0
  -21.4006   -6.5641   23.8218 C   0  0  0  0  0  0
  -21.3660   -5.6792   24.9183 C   0  0  0  0  0  0
  -21.6046   -4.3053   24.7229 C   0  0  0  0  0  0
  -21.8821   -3.8145   23.4352 C   0  0  0  0  0  0
  -21.9189   -4.6960   22.3406 C   0  0  0  0  0  0
  -22.7846  -13.5210   21.1841 C   0  0  0  0  0  0
  -22.1661   -4.2144   21.0982 F   0  0  0  0  0  0
  -21.5631   -3.4539   25.7745 F   0  0  0  0  0  0
  -30.0367  -13.2723   20.4473 N   0  0  0  0  0  0
  -26.3011  -12.9255   20.3411 N   0  0  0  0  0  0
  -25.9289  -11.6426   20.5782 N   0  0  0  0  0  0
  -22.0484  -12.8211   22.0397 N   0  0  0  0  0  0
  -25.4254  -15.1825   20.4148 N   0  0  0  0  0  0
  -31.8108  -14.6722   20.1234 O   0  0  0  0  0  0
  -21.6625   -6.8866   21.4240 O   0  0  0  0  0  0
  -22.3545  -14.5528   20.6697 O   0  0  0  0  0  0
  -24.6131  -31.8681   23.2078 C   0  0  0  0  0  0
  -25.9030  -32.4822   23.8380 C   0  0  1  0  0  0
  -27.2485  -27.4355   20.0819 C   0  0  0  0  0  0
  -25.5893  -33.8619   24.2306 N   0  0  0  0  0  0
  -23.4016  -30.4875   21.5503 C   0  0  2  0  0  0
  -24.8510  -28.9511   20.1132 C   0  0  0  0  0  0
  -22.7398  -29.4652   22.5012 C   0  0  0  0  0  0
  -18.0261  -28.1371   22.8512 C   0  0  0  0  0  0
  -24.1487  -36.7311   23.2641 C   0  0  0  0  0  0
  -25.9295  -30.8296   21.3629 C   0  0  0  0  0  0
  -26.0076  -29.4631   20.7110 C   0  0  0  0  0  0
  -27.2029  -28.7088   20.6984 C   0  0  0  0  0  0
  -26.0674  -26.9314   19.4897 C   0  0  0  0  0  0
  -24.8764  -27.6846   19.5026 C   0  0  0  0  0  0
  -23.6098  -29.8142   20.1667 C   0  0  0  0  0  0
  -25.4107  -36.3099   24.0335 C   0  0  1  0  0  0
  -20.5852  -28.3662   23.1349 C   0  0  2  0  0  0
  -20.6748  -26.9399   22.5438 C   0  0  0  0  0  0
  -19.5730  -26.6382   21.5231 C   0  0  0  0  0  0
  -18.1901  -26.7925   22.1636 C   0  0  0  0  0  0
  -19.1509  -28.8834   23.2921 C   0  0  0  0  0  0
  -18.9437  -30.1443   23.8923 C   0  0  0  0  0  0
  -17.6439  -30.6589   24.0570 C   0  0  0  0  0  0
  -25.9037  -34.9475   23.5114 C   0  0  0  0  0  0
  -16.5330  -29.9089   23.6327 C   0  0  0  0  0  0
  -16.7251  -28.6499   23.0361 C   0  0  0  0  0  0
  -26.4467  -31.6606   25.0713 C   0  0  0  0  0  0
  -25.3724  -31.3721   26.1456 C   0  0  0  0  0  0
  -27.0307  -30.3045   24.6097 C   0  0  0  0  0  0
  -27.6023  -32.4355   25.7481 C   0  0  0  0  0  0
  -27.5579  -37.1801   24.8457 C   0  0  0  0  0  0
  -21.4128  -29.3030   22.3753 N   0  0  0  0  0  0
  -26.4289  -37.3784   23.9409 N   0  0  0  0  0  0
  -24.6659  -31.0772   22.0983 N   0  0  0  0  0  0
  -23.4174  -28.8202   23.3059 O   0  0  0  0  0  0
  -28.4448  -26.7426   20.1096 O   0  0  0  0  0  0
  -26.5606  -34.8939   22.4681 O   0  0  0  0  0  0
  -23.5323  -32.1441   23.7470 O   0  0  0  0  0  0
  -31.0409  -18.9743   21.7289 C   0  0  0  0  0  0
  -30.9109  -17.5729   21.8566 C   0  0  0  0  0  0
  -29.5610  -18.9386   19.8045 C   0  0  0  0  0  0
  -30.3632  -19.6759   20.7045 C   0  0  0  0  0  0
  -29.4350  -17.5353   19.9160 C   0  0  0  0  0  0
  -30.1173  -16.8401   20.9479 C   0  0  0  0  0  0
  -30.5894  -21.1554   20.4998 C   0  0  0  0  0  0
  -28.6869  -24.2702   19.9481 C   0  0  0  0  0  0
  -28.5750  -16.8041   18.9009 C   0  0  0  0  0  0
  -28.0022  -22.2904   17.5228 C   0  0  0  0  0  0
  -30.5012  -22.0118   17.2266 C   0  0  0  0  0  0
  -28.6810  -25.6361   19.2203 C   0  0  0  0  0  0
  -29.6069  -23.1613   19.3541 C   0  0  2  0  0  0
  -29.3886  -22.8884   17.8356 C   0  0  0  0  0  0
  -29.9387  -15.4392   21.1313 N   0  0  0  0  0  0
  -29.5354  -21.8809   20.0898 N   0  0  0  0  0  0
  -31.7084  -21.6415   20.6756 O   0  0  0  0  0  0
  -27.9855  -24.0924   20.9505 O   0  0  0  0  0  0
  -31.4698  -12.4112   19.1114 H   0  0  0  0  0  0
  -30.3348  -11.2861   19.8024 H   0  0  0  0  0  0
  -29.7278  -11.7894   17.4178 H   0  0  0  0  0  0
  -29.6598  -13.4966   17.7749 H   0  0  0  0  0  0
  -27.8174  -11.3086   18.7991 H   0  0  0  0  0  0
  -27.3624  -12.6541   17.7904 H   0  0  0  0  0  0
  -27.7056  -14.2401   19.5987 H   0  0  0  0  0  0
  -28.6856  -11.9075   21.3082 H   0  0  0  0  0  0
  -28.4679  -13.5227   21.8943 H   0  0  0  0  0  0
  -25.2743   -9.5668   22.4759 H   0  0  0  0  0  0
  -23.9990   -7.4618   22.7480 H   0  0  0  0  0  0
  -21.0825   -8.8754   19.8946 H   0  0  0  0  0  0
  -22.3678  -10.9660   19.6167 H   0  0  0  0  0  0
  -21.1998   -7.6151   23.9718 H   0  0  0  0  0  0
  -21.1486   -6.0526   25.9083 H   0  0  0  0  0  0
  -22.0598   -2.7604   23.2856 H   0  0  0  0  0  0
  -22.4092  -11.9861   22.4780 H   0  0  0  0  0  0
  -21.1111  -13.1250   22.2615 H   0  0  0  0  0  0
  -24.6545  -15.8318   20.5260 H   0  0  0  0  0  0
  -26.2804  -15.6300   20.1163 H   0  0  0  0  0  0
  -26.7100  -32.5549   23.1145 H   0  0  0  0  0  0
  -25.0027  -33.9783   25.0439 H   0  0  0  0  0  0
  -22.6885  -31.3021   21.4085 H   0  0  0  0  0  0
  -23.3749  -35.9645   23.3302 H   0  0  0  0  0  0
  -24.3562  -36.8927   22.2052 H   0  0  0  0  0  0
  -23.7252  -37.6520   23.6669 H   0  0  0  0  0  0
  -26.0397  -31.5938   20.5934 H   0  0  0  0  0  0
  -26.8176  -30.8866   21.9801 H   0  0  0  0  0  0
  -28.0974  -29.1030   21.1601 H   0  0  0  0  0  0
  -26.0394  -25.9548   19.0293 H   0  0  0  0  0  0
  -23.9850  -27.2803   19.0438 H   0  0  0  0  0  0
  -23.7102  -30.5862   19.4035 H   0  0  0  0  0  0
  -22.7355  -29.2277   19.8789 H   0  0  0  0  0  0
  -25.1279  -36.1950   25.0827 H   0  0  0  0  0  0
  -20.9929  -28.3225   24.1479 H   0  0  0  0  0  0
  -20.5667  -26.2255   23.3616 H   0  0  0  0  0  0
  -21.6618  -26.7451   22.1230 H   0  0  0  0  0  0
  -19.6890  -25.6299   21.1242 H   0  0  0  0  0  0
  -19.6667  -27.3206   20.6775 H   0  0  0  0  0  0
  -17.4175  -26.6706   21.4024 H   0  0  0  0  0  0
  -18.0275  -26.0060   22.9020 H   0  0  0  0  0  0
  -19.7910  -30.7252   24.2307 H   0  0  0  0  0  0
  -17.4997  -31.6277   24.5161 H   0  0  0  0  0  0
  -15.5329  -30.2995   23.7644 H   0  0  0  0  0  0
  -15.8651  -28.0821   22.7072 H   0  0  0  0  0  0
  -24.5925  -30.7022   25.7807 H   0  0  0  0  0  0
  -24.8882  -32.2880   26.4860 H   0  0  0  0  0  0
  -25.8087  -30.8944   27.0237 H   0  0  0  0  0  0
  -26.2855  -29.6801   24.1148 H   0  0  0  0  0  0
  -27.4067  -29.7283   25.4563 H   0  0  0  0  0  0
  -27.8692  -30.4350   23.9247 H   0  0  0  0  0  0
  -27.2611  -33.3649   26.2059 H   0  0  0  0  0  0
  -28.3831  -32.6932   25.0310 H   0  0  0  0  0  0
  -28.0703  -31.8493   26.5401 H   0  0  0  0  0  0
  -28.2584  -38.0108   24.7511 H   0  0  0  0  0  0
  -28.1088  -36.2640   24.6268 H   0  0  0  0  0  0
  -27.2306  -37.1432   25.8862 H   0  0  0  0  0  0
  -20.9280  -29.8738   21.6968 H   0  0  0  0  0  0
  -26.0177  -38.2859   24.1416 H   0  0  0  0  0  0
  -31.6739  -19.5120   22.4216 H   0  0  0  0  0  0
  -31.4271  -17.0630   22.6586 H   0  0  0  0  0  0
  -29.0587  -19.4493   18.9948 H   0  0  0  0  0  0
  -28.4116  -17.4090   18.0085 H   0  0  0  0  0  0
  -27.6014  -16.5776   19.3306 H   0  0  0  0  0  0
  -29.0459  -15.8766   18.5767 H   0  0  0  0  0  0
  -27.8906  -22.0894   16.4575 H   0  0  0  0  0  0
  -27.1977  -22.9683   17.8076 H   0  0  0  0  0  0
  -27.8371  -21.3476   18.0433 H   0  0  0  0  0  0
  -30.4512  -22.0120   16.1369 H   0  0  0  0  0  0
  -30.4266  -20.9741   17.5520 H   0  0  0  0  0  0
  -31.4914  -22.3748   17.5041 H   0  0  0  0  0  0
  -27.9931  -25.6150   18.3769 H   0  0  0  0  0  0
  -29.6699  -25.7812   18.7854 H   0  0  0  0  0  0
  -30.6193  -23.5577   19.4548 H   0  0  0  0  0  0
  -29.4491  -23.8443   17.3136 H   0  0  0  0  0  0
  -29.0229  -15.1437   21.4317 H   0  0  0  0  0  0
  -28.6344  -21.4275   20.1078 H   0  0  0  0  0  0
  1 25  1  0  0  0
  1 30  2  0  0  0
  1 85  1  0  0  0
  2  3  1  0  0  0
  2 25  1  0  0  0
  2 89  1  0  0  0
  2 90  1  0  0  0
  3  4  1  0  0  0
  3 91  1  0  0  0
  3 92  1  0  0  0
  4  5  1  0  0  0
  4 93  1  0  0  0
  4 94  1  0  0  0
  5  6  1  0  0  0
  5 26  1  0  0  0
  5 95  1  0  0  0
  6 25  1  0  0  0
  6 96  1  0  0  0
  6 97  1  0  0  0
  7  8  2  0  0  0
  7 26  1  0  0  0
  7 29  1  0  0  0
  8  9  1  0  0  0
  8 22  1  0  0  0
  9 10  1  0  0  0
  9 27  2  0  0  0
 10 11  2  0  0  0
 10 15  1  0  0  0
 11 12  1  0  0  0
 11 98  1  0  0  0
 12 13  2  0  0  0
 12 99  1  0  0  0
 13 14  1  0  0  0
 13 31  1  0  0  0
 14 15  2  0  0  0
 14100  1  0  0  0
 15101  1  0  0  0
 16 17  2  0  0  0
 16 21  1  0  0  0
 16 31  1  0  0  0
 17 18  1  0  0  0
 17102  1  0  0  0
 18 19  2  0  0  0
 18103  1  0  0  0
 19 20  1  0  0  0
 19 24  1  0  0  0
 20 21  2  0  0  0
 20104  1  0  0  0
 21 23  1  0  0  0
 22 28  1  0  0  0
 22 32  2  0  0  0
 26 27  1  0  0  0
 28105  1  0  0  0
 28106  1  0  0  0
 29107  1  0  0  0
 29108  1  0  0  0
 33 34  1  0  0  0
 33 66  1  0  0  0
 33 70  2  0  0  0
 34 36  1  0  0  0
 34 59  1  0  0  0
 34109  1  0  0  0
 35 44  2  0  0  0
 35 45  1  0  0  0
 35 68  1  0  0  0
 36 56  1  0  0  0
 36110  1  0  0  0
 37 39  1  0  0  0
 37 47  1  0  0  0
 37 66  1  0  0  0
 37111  1  0  0  0
 38 43  2  0  0  0
 38 46  1  0  0  0
 38 47  1  0  0  0
 39 64  1  0  0  0
 39 67  2  0  0  0
 40 52  1  0  0  0
 40 53  2  0  0  0
 40 58  1  0  0  0
 41112  1  0  0  0
 41113  1  0  0  0
 41114  1  0  0  0
 41 48  1  0  0  0
 42 43  1  0  0  0
 42 66  1  0  0  0
 42115  1  0  0  0
 42116  1  0  0  0
 43 44  1  0  0  0
 44117  1  0  0  0
 45 46  2  0  0  0
 45118  1  0  0  0
 46119  1  0  0  0
 47120  1  0  0  0
 47121  1  0  0  0
 48 56  1  0  0  0
 48 65  1  0  0  0
 48122  1  0  0  0
 49 50  1  0  0  0
 49 53  1  0  0  0
 49 64  1  0  0  0
 49123  1  0  0  0
 50 51  1  0  0  0
 50124  1  0  0  0
 50125  1  0  0  0
 51 52  1  0  0  0
 51126  1  0  0  0
 51127  1  0  0  0
 52128  1  0  0  0
 52129  1  0  0  0
 53 54  1  0  0  0
 54 55  2  0  0  0
 54130  1  0  0  0
 55 57  1  0  0  0
 55131  1  0  0  0
 56 69  2  0  0  0
 57 58  2  0  0  0
 57132  1  0  0  0
 58133  1  0  0  0
 59 60  1  0  0  0
 59 61  1  0  0  0
 59 62  1  0  0  0
 60134  1  0  0  0
 60135  1  0  0  0
 60136  1  0  0  0
 61137  1  0  0  0
 61138  1  0  0  0
 61139  1  0  0  0
 62140  1  0  0  0
 62141  1  0  0  0
 62142  1  0  0  0
 63 65  1  0  0  0
 63143  1  0  0  0
 63144  1  0  0  0
 63145  1  0  0  0
 64146  1  0  0  0
 65147  1  0  0  0
 68 82  1  0  0  0
 71 72  2  0  0  0
 71 74  1  0  0  0
 71148  1  0  0  0
 72 76  1  0  0  0
 72149  1  0  0  0
 73 74  2  0  0  0
 73 75  1  0  0  0
 73150  1  0  0  0
 74 77  1  0  0  0
 75 76  2  0  0  0
 75 79  1  0  0  0
 76 85  1  0  0  0
 77 86  1  0  0  0
 77 87  2  0  0  0
 78 82  1  0  0  0
 78 83  1  0  0  0
 78 88  2  0  0  0
 79151  1  0  0  0
 79152  1  0  0  0
 79153  1  0  0  0
 80154  1  0  0  0
 80155  1  0  0  0
 80156  1  0  0  0
 80 84  1  0  0  0
 81 84  1  0  0  0
 81157  1  0  0  0
 81158  1  0  0  0
 81159  1  0  0  0
 82160  1  0  0  0
 82161  1  0  0  0
 83 84  1  0  0  0
 83 86  1  0  0  0
 83162  1  0  0  0
 84163  1  0  0  0
 85164  1  0  0  0
 86165  1  0  0  0
M  ISO  4   1 100  68 101  82 101  85 100
M  END
> <chiral flag>
0

> <version>
0

> <s_m_source_file>
/data/baiqing/PycharmProjects/Reinvent-master-3.2/result/LINK_invent/BTK/process_docking_weight1_custom_product_contain_oxygen_bond_distance_aromatic_linkinvent_7_9_3/rearranged_h_0060.sdf

> <i_m_source_file_index>
30

> <r_mmod_Potential_Energy-OPLS-2005>
-101.953056335449

> <r_mmod_Stretch_Energy-OPLS-2005>
40.3453025817871

> <r_mmod_Bend_Energy-OPLS-2005>
104.95824432373

> <r_mmod_Torsional_Energy-OPLS-2005>
264.563995361328

> <r_mmod_Improper_Torsional_Energy-OPLS-2005>
5.26191663742065

> <r_mmod_Van_der_Waal_Energy-OPLS-2005>
146.823715209961

> <r_mmod_Electrostatic_Energy-OPLS-2005>
-425.626953125

> <r_mmod_Solvation_Energy-OPLS-2005>
-250.566207885742

> <b_mmod_Minimization_Converged-OPLS-2005>
0

> <r_mmod_RMS_Derivative-OPLS-2005>
1.4692462682724

$$$$
30
                    3D
 Structure written by MMmdl.
161169  0  0  1  0            999 V2000
  -30.6505  -14.5534   20.5909 C   0  0  0  0  0  0
  -30.4441  -12.3585   19.4380 C   0  0  0  0  0  0
  -29.5102  -12.5217   18.2184 C   0  0  0  0  0  0
  -28.0329  -12.3557   18.6276 C   0  0  0  0  0  0
  -27.6659  -13.2056   19.8730 C   0  0  2  0  0  0
  -28.7035  -12.9934   20.9989 C   0  0  0  0  0  0
  -25.2595  -13.8145   20.5638 C   0  0  0  0  0  0
  -24.1842  -13.0426   20.9124 C   0  0  0  0  0  0
  -24.6395  -11.6889   20.8688 C   0  0  0  0  0  0
  -23.9055  -10.4284   21.0371 C   0  0  0  0  0  0
  -24.3604   -9.4212   21.9160 C   0  0  0  0  0  0
  -23.6275   -8.2252   22.0751 C   0  0  0  0  0  0
  -22.4259   -8.0282   21.3547 C   0  0  0  0  0  0
  -21.9887   -9.0250   20.4650 C   0  0  0  0  0  0
  -22.7217  -10.2125   20.3039 C   0  0  0  0  0  0
  -21.6854   -6.0725   22.5269 C   0  0  0  0  0  0
  -21.4023   -6.5630   23.8202 C   0  0  0  0  0  0
  -21.3661   -5.6783   24.9168 C   0  0  0  0  0  0
  -21.6040   -4.3043   24.7218 C   0  0  0  0  0  0
  -21.8822   -3.8137   23.4339 C   0  0  0  0  0  0
  -21.9192   -4.6953   22.3395 C   0  0  0  0  0  0
  -22.7869  -13.5236   21.1780 C   0  0  0  0  0  0
  -22.1655   -4.2133   21.0974 F   0  0  0  0  0  0
  -21.5622   -3.4531   25.7735 F   0  0  0  0  0  0
  -30.0380  -13.3356   20.4667 N   0  0  0  0  0  0
  -26.3044  -12.9313   20.3321 N   0  0  0  0  0  0
  -25.9326  -11.6476   20.5718 N   0  0  0  0  0  0
  -22.0502  -12.8274   22.0370 N   0  0  0  0  0  0
  -25.4299  -15.1857   20.4088 N   0  0  0  0  0  0
  -31.7056  -14.8281   20.0111 O   0  0  0  0  0  0
  -21.6635   -6.8871   21.4235 O   0  0  0  0  0  0
  -22.3560  -14.5536   20.6616 O   0  0  0  0  0  0
  -24.6211  -31.8640   23.2035 C   0  0  0  0  0  0
  -25.9071  -32.4801   23.8356 C   0  0  1  0  0  0
  -27.2430  -27.3804   20.0781 C   0  0  0  0  0  0
  -25.5893  -33.8599   24.2292 N   0  0  0  0  0  0
  -23.4139  -30.4856   21.5456 C   0  0  2  0  0  0
  -24.8592  -28.9422   20.1130 C   0  0  0  0  0  0
  -22.7457  -29.4626   22.4944 C   0  0  0  0  0  0
  -18.0276  -28.1383   22.8495 C   0  0  0  0  0  0
  -24.1487  -36.7312   23.2648 C   0  0  0  0  0  0
  -25.9491  -30.8090   21.3671 C   0  0  0  0  0  0
  -26.0235  -29.4394   20.7097 C   0  0  0  0  0  0
  -27.2131  -28.6662   20.6869 C   0  0  0  0  0  0
  -26.0472  -26.9030   19.4950 C   0  0  0  0  0  0
  -24.8692  -27.6759   19.5051 C   0  0  0  0  0  0
  -23.6273  -29.8200   20.1604 C   0  0  0  0  0  0
  -25.4111  -36.3106   24.0339 C   0  0  1  0  0  0
  -20.5875  -28.3671   23.1303 C   0  0  2  0  0  0
  -20.6746  -26.9393   22.5420 C   0  0  0  0  0  0
  -19.5719  -26.6383   21.5210 C   0  0  0  0  0  0
  -18.1906  -26.7928   22.1630 C   0  0  0  0  0  0
  -19.1536  -28.8839   23.2896 C   0  0  0  0  0  0
  -18.9455  -30.1438   23.8919 C   0  0  0  0  0  0
  -17.6456  -30.6581   24.0571 C   0  0  0  0  0  0
  -25.9042  -34.9466   23.5125 C   0  0  0  0  0  0
  -16.5348  -29.9092   23.6318 C   0  0  0  0  0  0
  -16.7268  -28.6507   23.0349 C   0  0  0  0  0  0
  -26.4475  -31.6594   25.0706 C   0  0  0  0  0  0
  -25.3715  -31.3710   26.1444 C   0  0  0  0  0  0
  -27.0325  -30.3030   24.6120 C   0  0  0  0  0  0
  -27.6068  -32.4315   25.7435 C   0  0  0  0  0  0
  -27.5586  -37.1808   24.8470 C   0  0  0  0  0  0
  -21.4173  -29.3040   22.3713 N   0  0  0  0  0  0
  -26.4301  -37.3789   23.9411 N   0  0  0  0  0  0
  -24.6801  -31.0686   22.0969 N   0  0  0  0  0  0
  -23.4207  -28.8167   23.2996 O   0  0  0  0  0  0
  -28.4210  -26.6370   20.0969 O   0  0  0  0  0  0
  -26.5630  -34.8929   22.4701 O   0  0  0  0  0  0
  -23.5379  -32.1427   23.7380 O   0  0  0  0  0  0
  -27.3623  -17.9199   21.8180 C   0  0  0  0  0  0
  -28.1383  -16.7566   21.8779 C   0  0  0  0  0  0
  -29.8815  -17.8546   20.5881 C   0  0  0  0  0  0
  -29.1128  -19.0787   20.5433 C   0  0  0  0  0  0
  -27.8160  -19.0704   21.1454 C   0  0  0  0  0  0
  -29.3953  -16.6780   21.2512 C   0  0  0  0  0  0
  -31.7536  -23.3667   18.5762 C   0  0  0  0  0  0
  -30.9441  -23.2537   19.6407 C   0  0  0  0  0  0
  -29.6318  -20.3138   19.7936 C   0  0  0  0  0  0
  -26.8389  -20.2414   21.0864 C   0  0  0  0  0  0
  -28.5847  -24.0538   20.1482 C   0  0  0  0  0  0
  -28.5998  -25.4052   19.3353 C   0  0  0  0  0  0
  -29.4735  -22.8762   19.5724 C   0  0  2  0  0  0
  -30.0606  -15.4099   21.4586 N   0  0  0  0  0  0
  -29.2738  -21.5543   20.2364 N   0  0  0  0  0  0
  -30.3600  -20.1603   18.8113 O   0  0  0  0  0  0
  -31.4856  -12.4874   19.1378 H   0  0  0  0  0  0
  -30.3788  -11.3455   19.8373 H   0  0  0  0  0  0
  -29.7698  -11.7961   17.4462 H   0  0  0  0  0  0
  -29.6583  -13.5078   17.7753 H   0  0  0  0  0  0
  -27.8655  -11.2984   18.8394 H   0  0  0  0  0  0
  -27.3803  -12.6021   17.7898 H   0  0  0  0  0  0
  -27.7087  -14.2527   19.5677 H   0  0  0  0  0  0
  -28.6952  -11.9522   21.3243 H   0  0  0  0  0  0
  -28.4262  -13.5666   21.8844 H   0  0  0  0  0  0
  -25.2750   -9.5686   22.4736 H   0  0  0  0  0  0
  -23.9969   -7.4656   22.7492 H   0  0  0  0  0  0
  -21.0804   -8.8773   19.8974 H   0  0  0  0  0  0
  -22.3665  -10.9658   19.6144 H   0  0  0  0  0  0
  -21.2032   -7.6140   23.9697 H   0  0  0  0  0  0
  -21.1471   -6.0517   25.9066 H   0  0  0  0  0  0
  -22.0601   -2.7597   23.2841 H   0  0  0  0  0  0
  -22.4113  -11.9966   22.4814 H   0  0  0  0  0  0
  -21.1119  -13.1326   22.2535 H   0  0  0  0  0  0
  -24.6663  -15.8405   20.5356 H   0  0  0  0  0  0
  -26.2972  -15.6349   20.1409 H   0  0  0  0  0  0
  -26.7134  -32.5487   23.1107 H   0  0  0  0  0  0
  -24.9977  -33.9721   25.0392 H   0  0  0  0  0  0
  -22.7069  -31.3049   21.4034 H   0  0  0  0  0  0
  -23.3740  -35.9656   23.3327 H   0  0  0  0  0  0
  -24.3579  -36.8913   22.2061 H   0  0  0  0  0  0
  -23.7235  -37.6520   23.6654 H   0  0  0  0  0  0
  -26.0733  -31.5756   20.6010 H   0  0  0  0  0  0
  -26.8330  -30.8603   21.9922 H   0  0  0  0  0  0
  -28.1144  -29.0555   21.1391 H   0  0  0  0  0  0
  -25.9936  -25.9267   19.0395 H   0  0  0  0  0  0
  -23.9727  -27.2833   19.0455 H   0  0  0  0  0  0
  -23.7493  -30.5990   19.4068 H   0  0  0  0  0  0
  -22.7491  -29.2502   19.8526 H   0  0  0  0  0  0
  -25.1279  -36.1984   25.0832 H   0  0  0  0  0  0
  -20.9966  -28.3229   24.1422 H   0  0  0  0  0  0
  -20.5615  -26.2277   23.3621 H   0  0  0  0  0  0
  -21.6617  -26.7402   22.1231 H   0  0  0  0  0  0
  -19.6864  -25.6292   21.1234 H   0  0  0  0  0  0
  -19.6647  -27.3198   20.6745 H   0  0  0  0  0  0
  -17.4171  -26.6693   21.4043 H   0  0  0  0  0  0
  -18.0302  -26.0063   22.9017 H   0  0  0  0  0  0
  -19.7928  -30.7243   24.2314 H   0  0  0  0  0  0
  -17.5010  -31.6257   24.5178 H   0  0  0  0  0  0
  -15.5349  -30.3004   23.7603 H   0  0  0  0  0  0
  -15.8673  -28.0823   22.7058 H   0  0  0  0  0  0
  -24.5880  -30.7080   25.7750 H   0  0  0  0  0  0
  -24.8906  -32.2865   26.4902 H   0  0  0  0  0  0
  -25.8039  -30.8850   27.0197 H   0  0  0  0  0  0
  -26.2882  -29.6746   24.1220 H   0  0  0  0  0  0
  -27.4137  -29.7316   25.4590 H   0  0  0  0  0  0
  -27.8697  -30.4337   23.9261 H   0  0  0  0  0  0
  -27.2717  -33.3620   26.2023 H   0  0  0  0  0  0
  -28.3838  -32.6869   25.0220 H   0  0  0  0  0  0
  -28.0791  -31.8440   26.5316 H   0  0  0  0  0  0
  -28.2620  -38.0091   24.7518 H   0  0  0  0  0  0
  -28.1068  -36.2628   24.6298 H   0  0  0  0  0  0
  -27.2315  -37.1470   25.8876 H   0  0  0  0  0  0
  -20.9345  -29.8822   21.6983 H   0  0  0  0  0  0
  -26.0199  -38.2879   24.1384 H   0  0  0  0  0  0
  -26.3897  -17.9118   22.2909 H   0  0  0  0  0  0
  -27.7338  -15.9072   22.4102 H   0  0  0  0  0  0
  -30.8568  -17.8300   20.1207 H   0  0  0  0  0  0
  -32.7932  -23.6385   18.6975 H   0  0  0  0  0  0
  -31.3962  -23.1869   17.5722 H   0  0  0  0  0  0
  -31.3463  -23.4469   20.6262 H   0  0  0  0  0  0
  -25.8463  -19.9571   21.4376 H   0  0  0  0  0  0
  -26.7213  -20.6033   20.0639 H   0  0  0  0  0  0
  -27.1740  -21.0642   21.7179 H   0  0  0  0  0  0
  -27.5470  -23.7265   20.2277 H   0  0  0  0  0  0
  -28.9060  -24.2663   21.1682 H   0  0  0  0  0  0
  -27.9378  -25.3365   18.4724 H   0  0  0  0  0  0
  -29.5858  -25.5110   18.8836 H   0  0  0  0  0  0
  -29.1970  -22.7445   18.5246 H   0  0  0  0  0  0
  -29.5560  -14.8553   22.1330 H   0  0  0  0  0  0
  -28.7150  -21.5542   21.0767 H   0  0  0  0  0  0
  1 25  1  0  0  0
  1 30  2  0  0  0
  1 84  1  0  0  0
  2  3  1  0  0  0
  2 25  1  0  0  0
  2 87  1  0  0  0
  2 88  1  0  0  0
  3  4  1  0  0  0
  3 89  1  0  0  0
  3 90  1  0  0  0
  4  5  1  0  0  0
  4 91  1  0  0  0
  4 92  1  0  0  0
  5  6  1  0  0  0
  5 26  1  0  0  0
  5 93  1  0  0  0
  6 25  1  0  0  0
  6 94  1  0  0  0
  6 95  1  0  0  0
  7  8  2  0  0  0
  7 26  1  0  0  0
  7 29  1  0  0  0
  8  9  1  0  0  0
  8 22  1  0  0  0
  9 10  1  0  0  0
  9 27  2  0  0  0
 10 11  2  0  0  0
 10 15  1  0  0  0
 11 12  1  0  0  0
 11 96  1  0  0  0
 12 13  2  0  0  0
 12 97  1  0  0  0
 13 14  1  0  0  0
 13 31  1  0  0  0
 14 15  2  0  0  0
 14 98  1  0  0  0
 15 99  1  0  0  0
 16 17  2  0  0  0
 16 21  1  0  0  0
 16 31  1  0  0  0
 17 18  1  0  0  0
 17100  1  0  0  0
 18 19  2  0  0  0
 18101  1  0  0  0
 19 20  1  0  0  0
 19 24  1  0  0  0
 20 21  2  0  0  0
 20102  1  0  0  0
 21 23  1  0  0  0
 22 28  1  0  0  0
 22 32  2  0  0  0
 26 27  1  0  0  0
 28103  1  0  0  0
 28104  1  0  0  0
 29105  1  0  0  0
 29106  1  0  0  0
 33 34  1  0  0  0
 33 66  1  0  0  0
 33 70  2  0  0  0
 34 36  1  0  0  0
 34 59  1  0  0  0
 34107  1  0  0  0
 35 44  2  0  0  0
 35 45  1  0  0  0
 35 68  1  0  0  0
 36 56  1  0  0  0
 36108  1  0  0  0
 37 39  1  0  0  0
 37 47  1  0  0  0
 37 66  1  0  0  0
 37109  1  0  0  0
 38 43  2  0  0  0
 38 46  1  0  0  0
 38 47  1  0  0  0
 39 64  1  0  0  0
 39 67  2  0  0  0
 40 52  1  0  0  0
 40 53  2  0  0  0
 40 58  1  0  0  0
 41110  1  0  0  0
 41111  1  0  0  0
 41112  1  0  0  0
 41 48  1  0  0  0
 42 43  1  0  0  0
 42 66  1  0  0  0
 42113  1  0  0  0
 42114  1  0  0  0
 43 44  1  0  0  0
 44115  1  0  0  0
 45 46  2  0  0  0
 45116  1  0  0  0
 46117  1  0  0  0
 47118  1  0  0  0
 47119  1  0  0  0
 48 56  1  0  0  0
 48 65  1  0  0  0
 48120  1  0  0  0
 49 50  1  0  0  0
 49 53  1  0  0  0
 49 64  1  0  0  0
 49121  1  0  0  0
 50 51  1  0  0  0
 50122  1  0  0  0
 50123  1  0  0  0
 51 52  1  0  0  0
 51124  1  0  0  0
 51125  1  0  0  0
 52126  1  0  0  0
 52127  1  0  0  0
 53 54  1  0  0  0
 54 55  2  0  0  0
 54128  1  0  0  0
 55 57  1  0  0  0
 55129  1  0  0  0
 56 69  2  0  0  0
 57 58  2  0  0  0
 57130  1  0  0  0
 58131  1  0  0  0
 59 60  1  0  0  0
 59 61  1  0  0  0
 59 62  1  0  0  0
 60132  1  0  0  0
 60133  1  0  0  0
 60134  1  0  0  0
 61135  1  0  0  0
 61136  1  0  0  0
 61137  1  0  0  0
 62138  1  0  0  0
 62139  1  0  0  0
 62140  1  0  0  0
 63 65  1  0  0  0
 63141  1  0  0  0
 63142  1  0  0  0
 63143  1  0  0  0
 64144  1  0  0  0
 65145  1  0  0  0
 68 82  1  0  0  0
 71 72  2  0  0  0
 71 75  1  0  0  0
 71146  1  0  0  0
 72 76  1  0  0  0
 72147  1  0  0  0
 73 74  1  0  0  0
 73 76  2  0  0  0
 73148  1  0  0  0
 74 75  2  0  0  0
 74 79  1  0  0  0
 75 80  1  0  0  0
 76 84  1  0  0  0
 77 78  2  0  0  0
 77149  1  0  0  0
 77150  1  0  0  0
 78 83  1  0  0  0
 78151  1  0  0  0
 79 85  1  0  0  0
 79 86  2  0  0  0
 80152  1  0  0  0
 80153  1  0  0  0
 80154  1  0  0  0
 81 82  1  0  0  0
 81155  1  0  0  0
 81156  1  0  0  0
 81 83  1  0  0  0
 82157  1  0  0  0
 82158  1  0  0  0
 83 85  1  0  0  0
 83159  1  0  0  0
 84160  1  0  0  0
 85161  1  0  0  0
M  ISO  4   1 100  68 101  82 101  84 100
M  END
> <chiral flag>
0

> <version>
0

> <s_m_source_file>
/data/baiqing/PycharmProjects/Reinvent-master-3.2/result/LINK_invent/BTK/process_docking_weight1_custom_product_contain_oxygen_bond_distance_aromatic_linkinvent_7_9_3/rearranged_h_0060.sdf

> <i_m_source_file_index>
31

> <r_mmod_Potential_Energy-OPLS-2005>
-14.8306217193604

> <r_mmod_Stretch_Energy-OPLS-2005>
64.1352691650391

> <r_mmod_Bend_Energy-OPLS-2005>
146.888046264648

> <r_mmod_Torsional_Energy-OPLS-2005>
240.289398193359

> <r_mmod_Improper_Torsional_Energy-OPLS-2005>
6.48214626312256

> <r_mmod_Van_der_Waal_Energy-OPLS-2005>
144.240295410156

> <r_mmod_Electrostatic_Energy-OPLS-2005>
-411.656036376953

> <r_mmod_Solvation_Energy-OPLS-2005>
-230.387115478516

> <b_mmod_Minimization_Converged-OPLS-2005>
0

> <r_mmod_RMS_Derivative-OPLS-2005>
2.35810232162476

$$$$
31
                    3D
 Structure written by MMmdl.
157165  0  0  1  0            999 V2000
  -30.7320  -14.4734   20.5715 C   0  0  0  0  0  0
  -30.4115  -12.3082   19.4293 C   0  0  0  0  0  0
  -29.4915  -12.4988   18.2081 C   0  0  0  0  0  0
  -28.0137  -12.3636   18.6211 C   0  0  0  0  0  0
  -27.6578  -13.2136   19.8706 C   0  0  2  0  0  0
  -28.7009  -13.0258   20.9959 C   0  0  0  0  0  0
  -25.2569  -13.8178   20.5683 C   0  0  0  0  0  0
  -24.1832  -13.0446   20.9185 C   0  0  0  0  0  0
  -24.6395  -11.6913   20.8740 C   0  0  0  0  0  0
  -23.9065  -10.4296   21.0408 C   0  0  0  0  0  0
  -24.3615   -9.4210   21.9189 C   0  0  0  0  0  0
  -23.6289   -8.2247   22.0757 C   0  0  0  0  0  0
  -22.4272   -8.0286   21.3546 C   0  0  0  0  0  0
  -21.9914   -9.0258   20.4644 C   0  0  0  0  0  0
  -22.7241  -10.2138   20.3053 C   0  0  0  0  0  0
  -21.6852   -6.0737   22.5278 C   0  0  0  0  0  0
  -21.4010   -6.5639   23.8212 C   0  0  0  0  0  0
  -21.3657   -5.6794   24.9174 C   0  0  0  0  0  0
  -21.6049   -4.3058   24.7225 C   0  0  0  0  0  0
  -21.8819   -3.8149   23.4347 C   0  0  0  0  0  0
  -21.9191   -4.6965   22.3402 C   0  0  0  0  0  0
  -22.7858  -13.5239   21.1854 C   0  0  0  0  0  0
  -22.1661   -4.2150   21.0980 F   0  0  0  0  0  0
  -21.5632   -3.4543   25.7739 F   0  0  0  0  0  0
  -30.0291  -13.3152   20.4331 N   0  0  0  0  0  0
  -26.3008  -12.9359   20.3356 N   0  0  0  0  0  0
  -25.9323  -11.6513   20.5767 N   0  0  0  0  0  0
  -22.0505  -12.8216   22.0404 N   0  0  0  0  0  0
  -25.4284  -15.1898   20.4076 N   0  0  0  0  0  0
  -31.8633  -14.6102   20.0980 O   0  0  0  0  0  0
  -21.6637   -6.8881   21.4241 O   0  0  0  0  0  0
  -22.3541  -14.5551   20.6714 O   0  0  0  0  0  0
  -24.6175  -31.8680   23.2114 C   0  0  0  0  0  0
  -25.9067  -32.4819   23.8407 C   0  0  1  0  0  0
  -27.2220  -27.4099   20.0939 C   0  0  0  0  0  0
  -25.5917  -33.8619   24.2333 N   0  0  0  0  0  0
  -23.4048  -30.4949   21.5536 C   0  0  2  0  0  0
  -24.8476  -28.9668   20.1109 C   0  0  0  0  0  0
  -22.7424  -29.4660   22.4987 C   0  0  0  0  0  0
  -18.0274  -28.1379   22.8499 C   0  0  0  0  0  0
  -24.1485  -36.7305   23.2641 C   0  0  0  0  0  0
  -25.9386  -30.8252   21.3703 C   0  0  0  0  0  0
  -26.0125  -29.4617   20.7107 C   0  0  0  0  0  0
  -27.2024  -28.6917   20.6991 C   0  0  0  0  0  0
  -26.0369  -26.9521   19.4665 C   0  0  0  0  0  0
  -24.8566  -27.7124   19.4843 C   0  0  0  0  0  0
  -23.6118  -29.8356   20.1661 C   0  0  0  0  0  0
  -25.4112  -36.3111   24.0337 C   0  0  1  0  0  0
  -20.5868  -28.3670   23.1314 C   0  0  2  0  0  0
  -20.6764  -26.9406   22.5415 C   0  0  0  0  0  0
  -19.5735  -26.6382   21.5216 C   0  0  0  0  0  0
  -18.1917  -26.7926   22.1629 C   0  0  0  0  0  0
  -19.1526  -28.8844   23.2897 C   0  0  0  0  0  0
  -18.9453  -30.1452   23.8899 C   0  0  0  0  0  0
  -17.6456  -30.6589   24.0564 C   0  0  0  0  0  0
  -25.9040  -34.9476   23.5130 C   0  0  0  0  0  0
  -16.5345  -29.9087   23.6334 C   0  0  0  0  0  0
  -16.7262  -28.6504   23.0353 C   0  0  0  0  0  0
  -26.4485  -31.6599   25.0739 C   0  0  0  0  0  0
  -25.3741  -31.3672   26.1467 C   0  0  0  0  0  0
  -27.0351  -30.3056   24.6128 C   0  0  0  0  0  0
  -27.6048  -32.4328   25.7514 C   0  0  0  0  0  0
  -27.5579  -37.1808   24.8470 C   0  0  0  0  0  0
  -21.4150  -29.3037   22.3722 N   0  0  0  0  0  0
  -26.4297  -37.3797   23.9410 N   0  0  0  0  0  0
  -24.6721  -31.0766   22.1030 N   0  0  0  0  0  0
  -23.4190  -28.8191   23.3025 O   0  0  0  0  0  0
  -28.3669  -26.6258   20.1435 O   0  0  0  0  0  0
  -26.5594  -34.8926   22.4688 O   0  0  0  0  0  0
  -23.5361  -32.1443   23.7496 O   0  0  0  0  0  0
  -31.7376  -19.3947   21.8193 C   0  0  0  0  0  0
  -31.8960  -16.9648   21.9476 C   0  0  0  0  0  0
  -29.8960  -18.0103   21.0234 C   0  0  0  0  0  0
  -32.4526  -18.2358   22.1772 C   0  0  0  0  0  0
  -30.4456  -19.3069   21.2428 C   0  0  0  0  0  0
  -30.6221  -16.8310   21.3501 C   0  0  0  0  0  0
  -29.9210  -21.7880   21.0438 C   0  0  0  0  0  0
  -33.8320  -18.3508   22.7966 C   0  0  0  0  0  0
  -28.9226  -22.7782   20.4100 C   0  0  0  0  0  0
  -29.2767  -24.2930   20.5529 C   0  0  0  0  0  0
  -28.1698  -25.2032   19.9732 C   0  0  0  0  0  0
  -29.6894  -20.4662   20.8413 N   0  0  0  0  0  0
  -30.0730  -15.5264   21.1066 N   0  0  0  0  0  0
  -30.8559  -22.2341   21.7115 O   0  0  0  0  0  0
  -31.4580  -12.3828   19.1297 H   0  0  0  0  0  0
  -30.2945  -11.3054   19.8433 H   0  0  0  0  0  0
  -29.7312  -11.7647   17.4376 H   0  0  0  0  0  0
  -29.6640  -13.4800   17.7627 H   0  0  0  0  0  0
  -27.8234  -11.3090   18.8247 H   0  0  0  0  0  0
  -27.3640  -12.6321   17.7873 H   0  0  0  0  0  0
  -27.6936  -14.2572   19.5571 H   0  0  0  0  0  0
  -28.6776  -12.0020   21.3723 H   0  0  0  0  0  0
  -28.4672  -13.6590   21.8532 H   0  0  0  0  0  0
  -25.2757   -9.5692   22.4767 H   0  0  0  0  0  0
  -23.9999   -7.4641   22.7478 H   0  0  0  0  0  0
  -21.0851   -8.8777   19.8942 H   0  0  0  0  0  0
  -22.3703  -10.9678   19.6160 H   0  0  0  0  0  0
  -21.1998   -7.6148   23.9714 H   0  0  0  0  0  0
  -21.1482   -6.0525   25.9078 H   0  0  0  0  0  0
  -22.0600   -2.7613   23.2848 H   0  0  0  0  0  0
  -22.4117  -11.9853   22.4756 H   0  0  0  0  0  0
  -21.1127  -13.1240   22.2632 H   0  0  0  0  0  0
  -24.6622  -15.8461   20.5118 H   0  0  0  0  0  0
  -26.2794  -15.6262   20.0764 H   0  0  0  0  0  0
  -26.7133  -32.5526   23.1163 H   0  0  0  0  0  0
  -25.0083  -33.9780   25.0488 H   0  0  0  0  0  0
  -22.6940  -31.3131   21.4190 H   0  0  0  0  0  0
  -23.3761  -35.9624   23.3306 H   0  0  0  0  0  0
  -24.3567  -36.8927   22.2055 H   0  0  0  0  0  0
  -23.7226  -37.6503   23.6662 H   0  0  0  0  0  0
  -26.0596  -31.5945   20.6061 H   0  0  0  0  0  0
  -26.8235  -30.8708   21.9935 H   0  0  0  0  0  0
  -28.0973  -29.0659   21.1765 H   0  0  0  0  0  0
  -25.9931  -26.0004   18.9578 H   0  0  0  0  0  0
  -23.9643  -27.3285   19.0087 H   0  0  0  0  0  0
  -23.7200  -30.6146   19.4107 H   0  0  0  0  0  0
  -22.7332  -29.2593   19.8695 H   0  0  0  0  0  0
  -25.1285  -36.1977   25.0830 H   0  0  0  0  0  0
  -20.9956  -28.3241   24.1435 H   0  0  0  0  0  0
  -20.5692  -26.2270   23.3601 H   0  0  0  0  0  0
  -21.6632  -26.7462   22.1192 H   0  0  0  0  0  0
  -19.6897  -25.6299   21.1233 H   0  0  0  0  0  0
  -19.6672  -27.3198   20.6756 H   0  0  0  0  0  0
  -17.4191  -26.6699   21.4022 H   0  0  0  0  0  0
  -18.0297  -26.0064   22.9016 H   0  0  0  0  0  0
  -19.7931  -30.7272   24.2256 H   0  0  0  0  0  0
  -17.5015  -31.6267   24.5170 H   0  0  0  0  0  0
  -15.5345  -30.2988   23.7662 H   0  0  0  0  0  0
  -15.8664  -28.0825   22.7063 H   0  0  0  0  0  0
  -24.5927  -30.7019   25.7776 H   0  0  0  0  0  0
  -24.8914  -32.2809   26.4942 H   0  0  0  0  0  0
  -25.8091  -30.8811   27.0210 H   0  0  0  0  0  0
  -26.2916  -29.6782   24.1199 H   0  0  0  0  0  0
  -27.4157  -29.7319   25.4590 H   0  0  0  0  0  0
  -27.8726  -30.4396   23.9276 H   0  0  0  0  0  0
  -27.2660  -33.3618   26.2113 H   0  0  0  0  0  0
  -28.3850  -32.6906   25.0339 H   0  0  0  0  0  0
  -28.0727  -31.8443   26.5415 H   0  0  0  0  0  0
  -28.2597  -38.0107   24.7541 H   0  0  0  0  0  0
  -28.1079  -36.2639   24.6287 H   0  0  0  0  0  0
  -27.2285  -37.1450   25.8869 H   0  0  0  0  0  0
  -20.9305  -29.8765   21.6952 H   0  0  0  0  0  0
  -26.0188  -38.2875   24.1420 H   0  0  0  0  0  0
  -32.2161  -20.3455   21.9922 H   0  0  0  0  0  0
  -32.4641  -16.0874   22.2255 H   0  0  0  0  0  0
  -28.9164  -17.9178   20.5750 H   0  0  0  0  0  0
  -34.0383  -19.3678   23.1322 H   0  0  0  0  0  0
  -34.5969  -18.0718   22.0711 H   0  0  0  0  0  0
  -33.9224  -17.6899   23.6594 H   0  0  0  0  0  0
  -27.9484  -22.5928   20.8639 H   0  0  0  0  0  0
  -28.8220  -22.5306   19.3526 H   0  0  0  0  0  0
  -30.2238  -24.5024   20.0547 H   0  0  0  0  0  0
  -29.4192  -24.5370   21.6064 H   0  0  0  0  0  0
  -27.2446  -24.8989   20.4667 H   0  0  0  0  0  0
  -28.0543  -24.9893   18.9092 H   0  0  0  0  0  0
  -28.8474  -20.2697   20.3172 H   0  0  0  0  0  0
  -29.0893  -15.3938   21.2878 H   0  0  0  0  0  0
  1 25  1  0  0  0
  1 30  2  0  0  0
  1 83  1  0  0  0
  2  3  1  0  0  0
  2 25  1  0  0  0
  2 85  1  0  0  0
  2 86  1  0  0  0
  3  4  1  0  0  0
  3 87  1  0  0  0
  3 88  1  0  0  0
  4  5  1  0  0  0
  4 89  1  0  0  0
  4 90  1  0  0  0
  5  6  1  0  0  0
  5 26  1  0  0  0
  5 91  1  0  0  0
  6 25  1  0  0  0
  6 92  1  0  0  0
  6 93  1  0  0  0
  7  8  2  0  0  0
  7 26  1  0  0  0
  7 29  1  0  0  0
  8  9  1  0  0  0
  8 22  1  0  0  0
  9 10  1  0  0  0
  9 27  2  0  0  0
 10 11  2  0  0  0
 10 15  1  0  0  0
 11 12  1  0  0  0
 11 94  1  0  0  0
 12 13  2  0  0  0
 12 95  1  0  0  0
 13 14  1  0  0  0
 13 31  1  0  0  0
 14 15  2  0  0  0
 14 96  1  0  0  0
 15 97  1  0  0  0
 16 17  2  0  0  0
 16 21  1  0  0  0
 16 31  1  0  0  0
 17 18  1  0  0  0
 17 98  1  0  0  0
 18 19  2  0  0  0
 18 99  1  0  0  0
 19 20  1  0  0  0
 19 24  1  0  0  0
 20 21  2  0  0  0
 20100  1  0  0  0
 21 23  1  0  0  0
 22 28  1  0  0  0
 22 32  2  0  0  0
 26 27  1  0  0  0
 28101  1  0  0  0
 28102  1  0  0  0
 29103  1  0  0  0
 29104  1  0  0  0
 33 34  1  0  0  0
 33 66  1  0  0  0
 33 70  2  0  0  0
 34 36  1  0  0  0
 34 59  1  0  0  0
 34105  1  0  0  0
 35 44  2  0  0  0
 35 45  1  0  0  0
 35 68  1  0  0  0
 36 56  1  0  0  0
 36106  1  0  0  0
 37 39  1  0  0  0
 37 47  1  0  0  0
 37 66  1  0  0  0
 37107  1  0  0  0
 38 43  2  0  0  0
 38 46  1  0  0  0
 38 47  1  0  0  0
 39 64  1  0  0  0
 39 67  2  0  0  0
 40 52  1  0  0  0
 40 53  2  0  0  0
 40 58  1  0  0  0
 41108  1  0  0  0
 41109  1  0  0  0
 41110  1  0  0  0
 41 48  1  0  0  0
 42 43  1  0  0  0
 42 66  1  0  0  0
 42111  1  0  0  0
 42112  1  0  0  0
 43 44  1  0  0  0
 44113  1  0  0  0
 45 46  2  0  0  0
 45114  1  0  0  0
 46115  1  0  0  0
 47116  1  0  0  0
 47117  1  0  0  0
 48 56  1  0  0  0
 48 65  1  0  0  0
 48118  1  0  0  0
 49 50  1  0  0  0
 49 53  1  0  0  0
 49 64  1  0  0  0
 49119  1  0  0  0
 50 51  1  0  0  0
 50120  1  0  0  0
 50121  1  0  0  0
 51 52  1  0  0  0
 51122  1  0  0  0
 51123  1  0  0  0
 52124  1  0  0  0
 52125  1  0  0  0
 53 54  1  0  0  0
 54 55  2  0  0  0
 54126  1  0  0  0
 55 57  1  0  0  0
 55127  1  0  0  0
 56 69  2  0  0  0
 57 58  2  0  0  0
 57128  1  0  0  0
 58129  1  0  0  0
 59 60  1  0  0  0
 59 61  1  0  0  0
 59 62  1  0  0  0
 60130  1  0  0  0
 60131  1  0  0  0
 60132  1  0  0  0
 61133  1  0  0  0
 61134  1  0  0  0
 61135  1  0  0  0
 62136  1  0  0  0
 62137  1  0  0  0
 62138  1  0  0  0
 63 65  1  0  0  0
 63139  1  0  0  0
 63140  1  0  0  0
 63141  1  0  0  0
 64142  1  0  0  0
 65143  1  0  0  0
 68 81  1  0  0  0
 71 74  2  0  0  0
 71 75  1  0  0  0
 71144  1  0  0  0
 72 74  1  0  0  0
 72 76  2  0  0  0
 72145  1  0  0  0
 73 75  2  0  0  0
 73 76  1  0  0  0
 73146  1  0  0  0
 74 78  1  0  0  0
 75 82  1  0  0  0
 76 83  1  0  0  0
 77 79  1  0  0  0
 77 82  1  0  0  0
 77 84  2  0  0  0
 78147  1  0  0  0
 78148  1  0  0  0
 78149  1  0  0  0
 79 80  1  0  0  0
 79150  1  0  0  0
 79151  1  0  0  0
 80 81  1  0  0  0
 80152  1  0  0  0
 80153  1  0  0  0
 81154  1  0  0  0
 81155  1  0  0  0
 82156  1  0  0  0
 83157  1  0  0  0
M  ISO  4   1 100  68 101  81 101  83 100
M  END
> <chiral flag>
0

> <version>
0

> <s_m_source_file>
/data/baiqing/PycharmProjects/Reinvent-master-3.2/result/LINK_invent/BTK/process_docking_weight1_custom_product_contain_oxygen_bond_distance_aromatic_linkinvent_7_9_3/rearranged_h_0060.sdf

> <i_m_source_file_index>
32

> <r_mmod_Potential_Energy-OPLS-2005>
-75.9528503417969

> <r_mmod_Stretch_Energy-OPLS-2005>
43.5529899597168

> <r_mmod_Bend_Energy-OPLS-2005>
102.220924377441

> <r_mmod_Torsional_Energy-OPLS-2005>
222.655029296875

> <r_mmod_Improper_Torsional_Energy-OPLS-2005>
3.52967357635498

> <r_mmod_Van_der_Waal_Energy-OPLS-2005>
167.605407714844

> <r_mmod_Electrostatic_Energy-OPLS-2005>
-396.611022949219

> <r_mmod_Solvation_Energy-OPLS-2005>
-236.575576782227

> <b_mmod_Minimization_Converged-OPLS-2005>
0

> <r_mmod_RMS_Derivative-OPLS-2005>
0.693717777729034

$$$$
32
                    3D
 Structure written by MMmdl.
156164  0  0  1  0            999 V2000
  -30.6805  -14.4797   20.5199 C   0  0  0  0  0  0
  -30.4130  -12.2957   19.4409 C   0  0  0  0  0  0
  -29.4948  -12.4897   18.2179 C   0  0  0  0  0  0
  -28.0144  -12.3517   18.6259 C   0  0  0  0  0  0
  -27.6512  -13.2076   19.8689 C   0  0  2  0  0  0
  -28.6861  -13.0169   21.0010 C   0  0  0  0  0  0
  -25.2562  -13.8214   20.5732 C   0  0  0  0  0  0
  -24.1816  -13.0474   20.9237 C   0  0  0  0  0  0
  -24.6379  -11.6952   20.8783 C   0  0  0  0  0  0
  -23.9063  -10.4328   21.0456 C   0  0  0  0  0  0
  -24.3622   -9.4225   21.9213 C   0  0  0  0  0  0
  -23.6307   -8.2244   22.0758 C   0  0  0  0  0  0
  -22.4279   -8.0296   21.3554 C   0  0  0  0  0  0
  -21.9922   -9.0281   20.4657 C   0  0  0  0  0  0
  -22.7257  -10.2166   20.3081 C   0  0  0  0  0  0
  -21.6858   -6.0745   22.5266 C   0  0  0  0  0  0
  -21.4026   -6.5648   23.8203 C   0  0  0  0  0  0
  -21.3662   -5.6792   24.9159 C   0  0  0  0  0  0
  -21.6044   -4.3053   24.7196 C   0  0  0  0  0  0
  -21.8828   -3.8154   23.4311 C   0  0  0  0  0  0
  -21.9207   -4.6978   22.3377 C   0  0  0  0  0  0
  -22.7839  -13.5272   21.1887 C   0  0  0  0  0  0
  -22.1676   -4.2174   21.0950 F   0  0  0  0  0  0
  -21.5621   -3.4529   25.7699 F   0  0  0  0  0  0
  -30.0194  -13.2950   20.4456 N   0  0  0  0  0  0
  -26.2960  -12.9365   20.3348 N   0  0  0  0  0  0
  -25.9283  -11.6536   20.5790 N   0  0  0  0  0  0
  -22.0460  -12.8250   22.0424 N   0  0  0  0  0  0
  -25.4319  -15.1930   20.4173 N   0  0  0  0  0  0
  -31.8444  -14.6200   20.1375 O   0  0  0  0  0  0
  -21.6648   -6.8886   21.4230 O   0  0  0  0  0  0
  -22.3512  -14.5555   20.6716 O   0  0  0  0  0  0
  -24.6146  -31.8675   23.2120 C   0  0  0  0  0  0
  -25.9031  -32.4833   23.8405 C   0  0  1  0  0  0
  -27.2364  -27.4481   20.0860 C   0  0  0  0  0  0
  -25.5906  -33.8631   24.2354 N   0  0  0  0  0  0
  -23.4021  -30.4942   21.5499 C   0  0  2  0  0  0
  -24.8528  -28.9638   20.1120 C   0  0  0  0  0  0
  -22.7378  -29.4690   22.4977 C   0  0  0  0  0  0
  -18.0262  -28.1382   22.8476 C   0  0  0  0  0  0
  -24.1485  -36.7322   23.2646 C   0  0  0  0  0  0
  -25.9311  -30.8372   21.3649 C   0  0  0  0  0  0
  -26.0125  -29.4727   20.7120 C   0  0  0  0  0  0
  -27.2095  -28.7202   20.7017 C   0  0  0  0  0  0
  -26.0683  -26.9640   19.4586 C   0  0  0  0  0  0
  -24.8743  -27.7060   19.4857 C   0  0  0  0  0  0
  -23.6111  -29.8253   20.1651 C   0  0  0  0  0  0
  -25.4102  -36.3135   24.0359 C   0  0  1  0  0  0
  -20.5850  -28.3688   23.1301 C   0  0  2  0  0  0
  -20.6774  -26.9430   22.5412 C   0  0  0  0  0  0
  -19.5766  -26.6393   21.5201 C   0  0  0  0  0  0
  -18.1929  -26.7936   22.1605 C   0  0  0  0  0  0
  -19.1509  -28.8847   23.2898 C   0  0  0  0  0  0
  -18.9463  -30.1449   23.8924 C   0  0  0  0  0  0
  -17.6474  -30.6605   24.0576 C   0  0  0  0  0  0
  -25.9027  -34.9489   23.5145 C   0  0  0  0  0  0
  -16.5356  -29.9118   23.6327 C   0  0  0  0  0  0
  -16.7258  -28.6529   23.0344 C   0  0  0  0  0  0
  -26.4463  -31.6602   25.0724 C   0  0  0  0  0  0
  -25.3713  -31.3727   26.1469 C   0  0  0  0  0  0
  -27.0324  -30.3053   24.6107 C   0  0  0  0  0  0
  -27.6062  -32.4295   25.7480 C   0  0  0  0  0  0
  -27.5580  -37.1819   24.8462 C   0  0  0  0  0  0
  -21.4104  -29.3074   22.3706 N   0  0  0  0  0  0
  -26.4293  -37.3817   23.9411 N   0  0  0  0  0  0
  -24.6668  -31.0778   22.1025 N   0  0  0  0  0  0
  -23.4152  -28.8214   23.3014 O   0  0  0  0  0  0
  -28.3739  -26.6724   20.0983 O   0  0  0  0  0  0
  -26.5568  -34.8944   22.4707 O   0  0  0  0  0  0
  -23.5323  -32.1437   23.7515 O   0  0  0  0  0  0
  -28.0988  -19.1263   22.5641 C   0  0  0  0  0  0
  -28.4273  -20.4113   22.0907 C   0  0  0  0  0  0
  -28.6819  -17.9809   21.9905 C   0  0  0  0  0  0
  -29.8352  -19.4068   20.3849 C   0  0  0  0  0  0
  -29.2776  -20.5764   20.9709 C   0  0  0  0  0  0
  -29.5672  -18.1109   20.9017 C   0  0  0  0  0  0
  -29.7015  -21.9594   20.4880 C   0  0  0  0  0  0
  -29.1475  -24.3058   20.2730 C   0  0  0  0  0  0
  -27.3378  -22.6816   20.3937 C   0  0  0  0  0  0
  -30.2619  -16.8986   20.2712 C   0  0  0  0  0  0
  -28.2040  -25.4224   20.8015 C   0  0  0  0  0  0
  -29.9086  -15.5549   20.7651 N   0  0  0  0  0  0
  -28.7859  -22.9862   20.4210 N   0  0  0  0  0  0
  -30.8991  -22.0782   20.2002 O   0  0  0  0  0  0
  -30.2211  -24.6859   19.7857 O   0  0  0  0  0  0
  -31.4594  -12.3905   19.1420 H   0  0  0  0  0  0
  -30.3070  -11.2885   19.8479 H   0  0  0  0  0  0
  -29.7414  -11.7640   17.4420 H   0  0  0  0  0  0
  -29.6640  -13.4745   17.7811 H   0  0  0  0  0  0
  -27.8276  -11.2974   18.8351 H   0  0  0  0  0  0
  -27.3657  -12.6184   17.7898 H   0  0  0  0  0  0
  -27.6850  -14.2490   19.5478 H   0  0  0  0  0  0
  -28.6467  -11.9961   21.3852 H   0  0  0  0  0  0
  -28.4529  -13.6619   21.8497 H   0  0  0  0  0  0
  -25.2767   -9.5700   22.4807 H   0  0  0  0  0  0
  -24.0050   -7.4612   22.7441 H   0  0  0  0  0  0
  -21.0865   -8.8806   19.8923 H   0  0  0  0  0  0
  -22.3739  -10.9721   19.6193 H   0  0  0  0  0  0
  -21.2018   -7.6153   23.9712 H   0  0  0  0  0  0
  -21.1490   -6.0507   25.9060 H   0  0  0  0  0  0
  -22.0612   -2.7626   23.2785 H   0  0  0  0  0  0
  -22.4065  -11.9906   22.4808 H   0  0  0  0  0  0
  -21.1072  -13.1279   22.2611 H   0  0  0  0  0  0
  -24.6713  -15.8552   20.5285 H   0  0  0  0  0  0
  -26.2881  -15.6316   20.1035 H   0  0  0  0  0  0
  -26.7111  -32.5560   23.1175 H   0  0  0  0  0  0
  -25.0104  -33.9793   25.0531 H   0  0  0  0  0  0
  -22.6942  -31.3138   21.4073 H   0  0  0  0  0  0
  -23.3751  -35.9652   23.3311 H   0  0  0  0  0  0
  -24.3592  -36.8911   22.2062 H   0  0  0  0  0  0
  -23.7221  -37.6534   23.6624 H   0  0  0  0  0  0
  -26.0310  -31.6015   20.5938 H   0  0  0  0  0  0
  -26.8228  -30.8966   21.9775 H   0  0  0  0  0  0
  -28.1008  -29.1018   21.1799 H   0  0  0  0  0  0
  -26.0789  -26.0082   18.9508 H   0  0  0  0  0  0
  -23.9841  -27.3094   19.0173 H   0  0  0  0  0  0
  -23.7209  -30.5984   19.4040 H   0  0  0  0  0  0
  -22.7357  -29.2434   19.8691 H   0  0  0  0  0  0
  -25.1271  -36.2022   25.0854 H   0  0  0  0  0  0
  -20.9950  -28.3276   24.1417 H   0  0  0  0  0  0
  -20.5673  -26.2309   23.3598 H   0  0  0  0  0  0
  -21.6648  -26.7486   22.1215 H   0  0  0  0  0  0
  -19.6954  -25.6300   21.1238 H   0  0  0  0  0  0
  -19.6718  -27.3194   20.6725 H   0  0  0  0  0  0
  -17.4197  -26.6651   21.4004 H   0  0  0  0  0  0
  -18.0369  -26.0070   22.9005 H   0  0  0  0  0  0
  -19.7955  -30.7230   24.2315 H   0  0  0  0  0  0
  -17.5061  -31.6293   24.5169 H   0  0  0  0  0  0
  -15.5375  -30.3061   23.7659 H   0  0  0  0  0  0
  -15.8637  -28.0886   22.7061 H   0  0  0  0  0  0
  -24.5886  -30.7078   25.7785 H   0  0  0  0  0  0
  -24.8910  -32.2908   26.4878 H   0  0  0  0  0  0
  -25.8055  -30.8905   27.0240 H   0  0  0  0  0  0
  -26.2908  -29.6791   24.1140 H   0  0  0  0  0  0
  -27.4092  -29.7309   25.4578 H   0  0  0  0  0  0
  -27.8719  -30.4387   23.9280 H   0  0  0  0  0  0
  -27.2718  -33.3593   26.2091 H   0  0  0  0  0  0
  -28.3866  -32.6838   25.0293 H   0  0  0  0  0  0
  -28.0728  -31.8372   26.5362 H   0  0  0  0  0  0
  -28.2605  -38.0114   24.7524 H   0  0  0  0  0  0
  -28.1065  -36.2646   24.6254 H   0  0  0  0  0  0
  -27.2298  -37.1440   25.8868 H   0  0  0  0  0  0
  -20.9242  -29.8823   21.6949 H   0  0  0  0  0  0
  -26.0183  -38.2898   24.1424 H   0  0  0  0  0  0
  -27.4080  -19.0250   23.3909 H   0  0  0  0  0  0
  -28.0199  -21.2699   22.6048 H   0  0  0  0  0  0
  -28.4484  -17.0104   22.4029 H   0  0  0  0  0  0
  -30.5041  -19.5044   19.5386 H   0  0  0  0  0  0
  -26.8465  -23.2268   19.5854 H   0  0  0  0  0  0
  -26.8542  -22.9491   21.3358 H   0  0  0  0  0  0
  -27.0950  -21.6393   20.1885 H   0  0  0  0  0  0
  -31.3375  -17.0553   20.3642 H   0  0  0  0  0  0
  -30.0410  -16.9179   19.2048 H   0  0  0  0  0  0
  -28.4633  -25.6019   21.8444 H   0  0  0  0  0  0
  -27.1647  -25.1060   20.8130 H   0  0  0  0  0  0
  -28.9494  -15.3815   21.0219 H   0  0  0  0  0  0
  1 25  1  0  0  0
  1 30  2  0  0  0
  1 82  1  0  0  0
  2  3  1  0  0  0
  2 25  1  0  0  0
  2 86  1  0  0  0
  2 87  1  0  0  0
  3  4  1  0  0  0
  3 88  1  0  0  0
  3 89  1  0  0  0
  4  5  1  0  0  0
  4 90  1  0  0  0
  4 91  1  0  0  0
  5  6  1  0  0  0
  5 26  1  0  0  0
  5 92  1  0  0  0
  6 25  1  0  0  0
  6 93  1  0  0  0
  6 94  1  0  0  0
  7  8  2  0  0  0
  7 26  1  0  0  0
  7 29  1  0  0  0
  8  9  1  0  0  0
  8 22  1  0  0  0
  9 10  1  0  0  0
  9 27  2  0  0  0
 10 11  2  0  0  0
 10 15  1  0  0  0
 11 12  1  0  0  0
 11 95  1  0  0  0
 12 13  2  0  0  0
 12 96  1  0  0  0
 13 14  1  0  0  0
 13 31  1  0  0  0
 14 15  2  0  0  0
 14 97  1  0  0  0
 15 98  1  0  0  0
 16 17  2  0  0  0
 16 21  1  0  0  0
 16 31  1  0  0  0
 17 18  1  0  0  0
 17 99  1  0  0  0
 18 19  2  0  0  0
 18100  1  0  0  0
 19 20  1  0  0  0
 19 24  1  0  0  0
 20 21  2  0  0  0
 20101  1  0  0  0
 21 23  1  0  0  0
 22 28  1  0  0  0
 22 32  2  0  0  0
 26 27  1  0  0  0
 28102  1  0  0  0
 28103  1  0  0  0
 29104  1  0  0  0
 29105  1  0  0  0
 33 34  1  0  0  0
 33 66  1  0  0  0
 33 70  2  0  0  0
 34 36  1  0  0  0
 34 59  1  0  0  0
 34106  1  0  0  0
 35 44  2  0  0  0
 35 45  1  0  0  0
 35 68  1  0  0  0
 36 56  1  0  0  0
 36107  1  0  0  0
 37 39  1  0  0  0
 37 47  1  0  0  0
 37 66  1  0  0  0
 37108  1  0  0  0
 38 43  2  0  0  0
 38 46  1  0  0  0
 38 47  1  0  0  0
 39 64  1  0  0  0
 39 67  2  0  0  0
 40 52  1  0  0  0
 40 53  2  0  0  0
 40 58  1  0  0  0
 41109  1  0  0  0
 41110  1  0  0  0
 41111  1  0  0  0
 41 48  1  0  0  0
 42 43  1  0  0  0
 42 66  1  0  0  0
 42112  1  0  0  0
 42113  1  0  0  0
 43 44  1  0  0  0
 44114  1  0  0  0
 45 46  2  0  0  0
 45115  1  0  0  0
 46116  1  0  0  0
 47117  1  0  0  0
 47118  1  0  0  0
 48 56  1  0  0  0
 48 65  1  0  0  0
 48119  1  0  0  0
 49 50  1  0  0  0
 49 53  1  0  0  0
 49 64  1  0  0  0
 49120  1  0  0  0
 50 51  1  0  0  0
 50121  1  0  0  0
 50122  1  0  0  0
 51 52  1  0  0  0
 51123  1  0  0  0
 51124  1  0  0  0
 52125  1  0  0  0
 52126  1  0  0  0
 53 54  1  0  0  0
 54 55  2  0  0  0
 54127  1  0  0  0
 55 57  1  0  0  0
 55128  1  0  0  0
 56 69  2  0  0  0
 57 58  2  0  0  0
 57129  1  0  0  0
 58130  1  0  0  0
 59 60  1  0  0  0
 59 61  1  0  0  0
 59 62  1  0  0  0
 60131  1  0  0  0
 60132  1  0  0  0
 60133  1  0  0  0
 61134  1  0  0  0
 61135  1  0  0  0
 61136  1  0  0  0
 62137  1  0  0  0
 62138  1  0  0  0
 62139  1  0  0  0
 63 65  1  0  0  0
 63140  1  0  0  0
 63141  1  0  0  0
 63142  1  0  0  0
 64143  1  0  0  0
 65144  1  0  0  0
 68 81  1  0  0  0
 71 72  2  0  0  0
 71 73  1  0  0  0
 71145  1  0  0  0
 72 75  1  0  0  0
 72146  1  0  0  0
 73 76  2  0  0  0
 73147  1  0  0  0
 74 75  2  0  0  0
 74 76  1  0  0  0
 74148  1  0  0  0
 75 77  1  0  0  0
 76 80  1  0  0  0
 77 83  1  0  0  0
 77 84  2  0  0  0
 78 81  1  0  0  0
 78 83  1  0  0  0
 78 85  2  0  0  0
 79 83  1  0  0  0
 79149  1  0  0  0
 79150  1  0  0  0
 79151  1  0  0  0
 80 82  1  0  0  0
 80152  1  0  0  0
 80153  1  0  0  0
 81154  1  0  0  0
 81155  1  0  0  0
 82156  1  0  0  0
M  ISO  4   1 100  68 101  81 101  82 100
M  END
> <chiral flag>
0

> <version>
0

> <s_m_source_file>
/data/baiqing/PycharmProjects/Reinvent-master-3.2/result/LINK_invent/BTK/process_docking_weight1_custom_product_contain_oxygen_bond_distance_aromatic_linkinvent_7_9_3/rearranged_h_0060.sdf

> <i_m_source_file_index>
33

> <r_mmod_Potential_Energy-OPLS-2005>
3.30712413787842

> <r_mmod_Stretch_Energy-OPLS-2005>
47.4296188354492

> <r_mmod_Bend_Energy-OPLS-2005>
100.099998474121

> <r_mmod_Torsional_Energy-OPLS-2005>
283.35009765625

> <r_mmod_Improper_Torsional_Energy-OPLS-2005>
8.5278434753418

> <r_mmod_Van_der_Waal_Energy-OPLS-2005>
185.598251342773

> <r_mmod_Electrostatic_Energy-OPLS-2005>
-386.998626708984

> <r_mmod_Solvation_Energy-OPLS-2005>
-250.66357421875

> <b_mmod_Minimization_Converged-OPLS-2005>
0

> <r_mmod_RMS_Derivative-OPLS-2005>
3.73012661933899

$$$$
33
                    3D
 Structure written by MMmdl.
157165  0  0  1  0            999 V2000
  -30.6570  -14.5097   20.5461 C   0  0  0  0  0  0
  -30.4212  -12.3267   19.4255 C   0  0  0  0  0  0
  -29.4904  -12.5291   18.2097 C   0  0  0  0  0  0
  -28.0090  -12.3961   18.6164 C   0  0  0  0  0  0
  -27.6567  -13.2141   19.8865 C   0  0  2  0  0  0
  -28.7027  -12.9805   21.0021 C   0  0  0  0  0  0
  -25.2530  -13.8191   20.5655 C   0  0  0  0  0  0
  -24.1805  -13.0462   20.9142 C   0  0  0  0  0  0
  -24.6351  -11.6920   20.8678 C   0  0  0  0  0  0
  -23.9010  -10.4324   21.0364 C   0  0  0  0  0  0
  -24.3614   -9.4269   21.9148 C   0  0  0  0  0  0
  -23.6307   -8.2304   22.0749 C   0  0  0  0  0  0
  -22.4286   -8.0319   21.3541 C   0  0  0  0  0  0
  -21.9871   -9.0277   20.4623 C   0  0  0  0  0  0
  -22.7181  -10.2158   20.3011 C   0  0  0  0  0  0
  -21.6855   -6.0761   22.5266 C   0  0  0  0  0  0
  -21.4010   -6.5644   23.8208 C   0  0  0  0  0  0
  -21.3671   -5.6797   24.9170 C   0  0  0  0  0  0
  -21.6076   -4.3071   24.7231 C   0  0  0  0  0  0
  -21.8806   -3.8153   23.4343 C   0  0  0  0  0  0
  -21.9181   -4.6982   22.3390 C   0  0  0  0  0  0
  -22.7826  -13.5234   21.1862 C   0  0  0  0  0  0
  -22.1653   -4.2149   21.0982 F   0  0  0  0  0  0
  -21.5657   -3.4561   25.7763 F   0  0  0  0  0  0
  -30.0277  -13.3046   20.4543 N   0  0  0  0  0  0
  -26.2990  -12.9358   20.3419 N   0  0  0  0  0  0
  -25.9289  -11.6505   20.5766 N   0  0  0  0  0  0
  -22.0469  -12.8209   22.0399 N   0  0  0  0  0  0
  -25.4247  -15.1930   20.4099 N   0  0  0  0  0  0
  -31.7849  -14.7076   20.0867 O   0  0  0  0  0  0
  -21.6652   -6.8925   21.4239 O   0  0  0  0  0  0
  -22.3493  -14.5576   20.6766 O   0  0  0  0  0  0
  -24.6142  -31.8707   23.2105 C   0  0  0  0  0  0
  -25.9031  -32.4849   23.8425 C   0  0  1  0  0  0
  -27.2151  -27.4252   20.1106 C   0  0  0  0  0  0
  -25.5888  -33.8650   24.2343 N   0  0  0  0  0  0
  -23.4026  -30.4920   21.5542 C   0  0  2  0  0  0
  -24.8465  -28.9670   20.1077 C   0  0  0  0  0  0
  -22.7420  -29.4651   22.5006 C   0  0  0  0  0  0
  -18.0266  -28.1364   22.8501 C   0  0  0  0  0  0
  -24.1480  -36.7310   23.2640 C   0  0  0  0  0  0
  -25.9330  -30.8349   21.3640 C   0  0  0  0  0  0
  -26.0087  -29.4718   20.7056 C   0  0  0  0  0  0
  -27.2019  -28.7112   20.6985 C   0  0  0  0  0  0
  -26.0446  -26.9405   19.4899 C   0  0  0  0  0  0
  -24.8632  -27.7061   19.4858 C   0  0  0  0  0  0
  -23.6084  -29.8341   20.1646 C   0  0  0  0  0  0
  -25.4101  -36.3113   24.0337 C   0  0  1  0  0  0
  -20.5863  -28.3646   23.1329 C   0  0  2  0  0  0
  -20.6750  -26.9378   22.5431 C   0  0  0  0  0  0
  -19.5726  -26.6359   21.5221 C   0  0  0  0  0  0
  -18.1906  -26.7910   22.1631 C   0  0  0  0  0  0
  -19.1520  -28.8820   23.2903 C   0  0  0  0  0  0
  -18.9444  -30.1431   23.8899 C   0  0  0  0  0  0
  -17.6442  -30.6573   24.0548 C   0  0  0  0  0  0
  -25.9039  -34.9492   23.5140 C   0  0  0  0  0  0
  -16.5334  -29.9069   23.6324 C   0  0  0  0  0  0
  -16.7258  -28.6485   23.0360 C   0  0  0  0  0  0
  -26.4444  -31.6612   25.0758 C   0  0  0  0  0  0
  -25.3696  -31.3716   26.1492 C   0  0  0  0  0  0
  -27.0277  -30.3062   24.6120 C   0  0  0  0  0  0
  -27.6027  -32.4345   25.7520 C   0  0  0  0  0  0
  -27.5578  -37.1796   24.8453 C   0  0  0  0  0  0
  -21.4153  -29.3015   22.3746 N   0  0  0  0  0  0
  -26.4270  -37.3806   23.9425 N   0  0  0  0  0  0
  -24.6689  -31.0783   22.1023 N   0  0  0  0  0  0
  -23.4184  -28.8196   23.3053 O   0  0  0  0  0  0
  -28.3379  -26.6281   20.1611 O   0  0  0  0  0  0
  -26.5604  -34.8930   22.4709 O   0  0  0  0  0  0
  -23.5332  -32.1474   23.7495 O   0  0  0  0  0  0
  -29.2352  -16.6440   18.9240 C   0  0  0  0  0  0
  -29.5493  -18.0230   20.9011 C   0  0  0  0  0  0
  -28.7824  -17.7623   18.1958 C   0  0  0  0  0  0
  -29.6124  -16.7426   20.2803 C   0  0  0  0  0  0
  -29.1313  -19.1813   20.1775 C   0  0  0  0  0  0
  -28.7167  -19.0331   18.8202 C   0  0  0  0  0  0
  -29.4314  -21.6577   20.4549 C   0  0  0  0  0  0
  -28.8908  -22.9130   21.1809 C   0  0  0  0  0  0
  -28.8629  -24.1997   20.2966 C   0  0  0  0  0  0
  -28.1738  -25.4251   20.9444 C   0  0  0  0  0  0
  -28.3119  -17.5666   16.7558 C   0  0  0  0  0  0
  -29.0055  -20.4411   20.8664 N   0  0  0  0  0  0
  -29.9079  -15.5367   21.0130 N   0  0  0  0  0  0
  -30.2507  -21.7914   19.5428 O   0  0  0  0  0  0
  -28.4258  -16.2957   16.3650 F   0  0  0  0  0  0
  -27.0265  -17.8987   16.6365 F   0  0  0  0  0  0
  -29.0386  -18.3113   15.9224 F   0  0  0  0  0  0
  -28.0274  -20.3609   17.9325 Cl  0  0  0  0  0  0
  -31.4660  -12.4296   19.1237 H   0  0  0  0  0  0
  -30.3208  -11.3139   19.8177 H   0  0  0  0  0  0
  -29.7315  -11.8152   17.4223 H   0  0  0  0  0  0
  -29.6594  -13.5168   17.7771 H   0  0  0  0  0  0
  -27.7990  -11.3405   18.7895 H   0  0  0  0  0  0
  -27.3644  -12.7012   17.7915 H   0  0  0  0  0  0
  -27.6940  -14.2664   19.6075 H   0  0  0  0  0  0
  -28.6933  -11.9329   21.3071 H   0  0  0  0  0  0
  -28.4714  -13.5533   21.9000 H   0  0  0  0  0  0
  -25.2780   -9.5818   22.4677 H   0  0  0  0  0  0
  -24.0051   -7.4704   22.7459 H   0  0  0  0  0  0
  -21.0802   -8.8788   19.8911 H   0  0  0  0  0  0
  -22.3626  -10.9711   19.6127 H   0  0  0  0  0  0
  -21.1982   -7.6140   23.9714 H   0  0  0  0  0  0
  -21.1503   -6.0530   25.9077 H   0  0  0  0  0  0
  -22.0557   -2.7605   23.2841 H   0  0  0  0  0  0
  -22.4113  -11.9871   22.4756 H   0  0  0  0  0  0
  -21.1082  -13.1211   22.2652 H   0  0  0  0  0  0
  -24.6611  -15.8464   20.5490 H   0  0  0  0  0  0
  -26.2826  -15.6382   20.1130 H   0  0  0  0  0  0
  -26.7123  -32.5549   23.1204 H   0  0  0  0  0  0
  -25.0016  -33.9837   25.0466 H   0  0  0  0  0  0
  -22.6894  -31.3080   21.4217 H   0  0  0  0  0  0
  -23.3758  -35.9622   23.3281 H   0  0  0  0  0  0
  -24.3571  -36.8964   22.2057 H   0  0  0  0  0  0
  -23.7199  -37.6497   23.6681 H   0  0  0  0  0  0
  -26.0468  -31.6061   20.5993 H   0  0  0  0  0  0
  -26.8197  -30.8875   21.9838 H   0  0  0  0  0  0
  -28.1001  -29.0907   21.1656 H   0  0  0  0  0  0
  -26.0415  -25.9654   19.0196 H   0  0  0  0  0  0
  -23.9737  -27.3209   19.0078 H   0  0  0  0  0  0
  -23.7089  -30.6174   19.4111 H   0  0  0  0  0  0
  -22.7324  -29.2555   19.8696 H   0  0  0  0  0  0
  -25.1275  -36.1991   25.0826 H   0  0  0  0  0  0
  -20.9948  -28.3199   24.1443 H   0  0  0  0  0  0
  -20.5656  -26.2249   23.3618 H   0  0  0  0  0  0
  -21.6620  -26.7405   22.1224 H   0  0  0  0  0  0
  -19.6883  -25.6267   21.1263 H   0  0  0  0  0  0
  -19.6672  -27.3156   20.6747 H   0  0  0  0  0  0
  -17.4185  -26.6670   21.4029 H   0  0  0  0  0  0
  -18.0283  -26.0038   22.9017 H   0  0  0  0  0  0
  -19.7921  -30.7251   24.2284 H   0  0  0  0  0  0
  -17.4997  -31.6259   24.5136 H   0  0  0  0  0  0
  -15.5345  -30.2973   23.7629 H   0  0  0  0  0  0
  -15.8660  -28.0798   22.7084 H   0  0  0  0  0  0
  -24.5905  -30.7025   25.7816 H   0  0  0  0  0  0
  -24.8822  -32.2860   26.4899 H   0  0  0  0  0  0
  -25.8031  -30.8928   27.0279 H   0  0  0  0  0  0
  -26.2822  -29.6873   24.1116 H   0  0  0  0  0  0
  -27.3983  -29.7262   25.4577 H   0  0  0  0  0  0
  -27.8682  -30.4402   23.9312 H   0  0  0  0  0  0
  -27.2663  -33.3664   26.2078 H   0  0  0  0  0  0
  -28.3831  -32.6886   25.0336 H   0  0  0  0  0  0
  -28.0693  -31.8485   26.5447 H   0  0  0  0  0  0
  -28.2562  -38.0127   24.7570 H   0  0  0  0  0  0
  -28.1118  -36.2668   24.6203 H   0  0  0  0  0  0
  -27.2314  -37.1347   25.8857 H   0  0  0  0  0  0
  -20.9310  -29.8761   21.6991 H   0  0  0  0  0  0
  -26.0174  -38.2884   24.1466 H   0  0  0  0  0  0
  -29.2456  -15.6826   18.4358 H   0  0  0  0  0  0
  -29.8210  -18.1238   21.9436 H   0  0  0  0  0  0
  -29.5092  -23.0848   22.0618 H   0  0  0  0  0  0
  -27.8840  -22.6984   21.5491 H   0  0  0  0  0  0
  -28.3595  -23.9813   19.3537 H   0  0  0  0  0  0
  -29.8872  -24.4771   20.0464 H   0  0  0  0  0  0
  -28.5956  -25.6133   21.9343 H   0  0  0  0  0  0
  -27.1221  -25.1826   21.1169 H   0  0  0  0  0  0
  -28.5113  -20.4239   21.7479 H   0  0  0  0  0  0
  -29.1681  -15.2386   21.6329 H   0  0  0  0  0  0
  1 25  1  0  0  0
  1 30  2  0  0  0
  1 83  1  0  0  0
  2  3  1  0  0  0
  2 25  1  0  0  0
  2 89  1  0  0  0
  2 90  1  0  0  0
  3  4  1  0  0  0
  3 91  1  0  0  0
  3 92  1  0  0  0
  4  5  1  0  0  0
  4 93  1  0  0  0
  4 94  1  0  0  0
  5  6  1  0  0  0
  5 26  1  0  0  0
  5 95  1  0  0  0
  6 25  1  0  0  0
  6 96  1  0  0  0
  6 97  1  0  0  0
  7  8  2  0  0  0
  7 26  1  0  0  0
  7 29  1  0  0  0
  8  9  1  0  0  0
  8 22  1  0  0  0
  9 10  1  0  0  0
  9 27  2  0  0  0
 10 11  2  0  0  0
 10 15  1  0  0  0
 11 12  1  0  0  0
 11 98  1  0  0  0
 12 13  2  0  0  0
 12 99  1  0  0  0
 13 14  1  0  0  0
 13 31  1  0  0  0
 14 15  2  0  0  0
 14100  1  0  0  0
 15101  1  0  0  0
 16 17  2  0  0  0
 16 21  1  0  0  0
 16 31  1  0  0  0
 17 18  1  0  0  0
 17102  1  0  0  0
 18 19  2  0  0  0
 18103  1  0  0  0
 19 20  1  0  0  0
 19 24  1  0  0  0
 20 21  2  0  0  0
 20104  1  0  0  0
 21 23  1  0  0  0
 22 28  1  0  0  0
 22 32  2  0  0  0
 26 27  1  0  0  0
 28105  1  0  0  0
 28106  1  0  0  0
 29107  1  0  0  0
 29108  1  0  0  0
 33 34  1  0  0  0
 33 66  1  0  0  0
 33 70  2  0  0  0
 34 36  1  0  0  0
 34 59  1  0  0  0
 34109  1  0  0  0
 35 44  2  0  0  0
 35 45  1  0  0  0
 35 68  1  0  0  0
 36 56  1  0  0  0
 36110  1  0  0  0
 37 39  1  0  0  0
 37 47  1  0  0  0
 37 66  1  0  0  0
 37111  1  0  0  0
 38 43  2  0  0  0
 38 46  1  0  0  0
 38 47  1  0  0  0
 39 64  1  0  0  0
 39 67  2  0  0  0
 40 52  1  0  0  0
 40 53  2  0  0  0
 40 58  1  0  0  0
 41112  1  0  0  0
 41113  1  0  0  0
 41114  1  0  0  0
 41 48  1  0  0  0
 42 43  1  0  0  0
 42 66  1  0  0  0
 42115  1  0  0  0
 42116  1  0  0  0
 43 44  1  0  0  0
 44117  1  0  0  0
 45 46  2  0  0  0
 45118  1  0  0  0
 46119  1  0  0  0
 47120  1  0  0  0
 47121  1  0  0  0
 48 56  1  0  0  0
 48 65  1  0  0  0
 48122  1  0  0  0
 49 50  1  0  0  0
 49 53  1  0  0  0
 49 64  1  0  0  0
 49123  1  0  0  0
 50 51  1  0  0  0
 50124  1  0  0  0
 50125  1  0  0  0
 51 52  1  0  0  0
 51126  1  0  0  0
 51127  1  0  0  0
 52128  1  0  0  0
 52129  1  0  0  0
 53 54  1  0  0  0
 54 55  2  0  0  0
 54130  1  0  0  0
 55 57  1  0  0  0
 55131  1  0  0  0
 56 69  2  0  0  0
 57 58  2  0  0  0
 57132  1  0  0  0
 58133  1  0  0  0
 59 60  1  0  0  0
 59 61  1  0  0  0
 59 62  1  0  0  0
 60134  1  0  0  0
 60135  1  0  0  0
 60136  1  0  0  0
 61137  1  0  0  0
 61138  1  0  0  0
 61139  1  0  0  0
 62140  1  0  0  0
 62141  1  0  0  0
 62142  1  0  0  0
 63 65  1  0  0  0
 63143  1  0  0  0
 63144  1  0  0  0
 63145  1  0  0  0
 64146  1  0  0  0
 65147  1  0  0  0
 68 80  1  0  0  0
 71 73  2  0  0  0
 71 74  1  0  0  0
 71148  1  0  0  0
 72 74  2  0  0  0
 72 75  1  0  0  0
 72149  1  0  0  0
 73 76  1  0  0  0
 73 81  1  0  0  0
 74 83  1  0  0  0
 75 76  2  0  0  0
 75 82  1  0  0  0
 76 88  1  0  0  0
 77 78  1  0  0  0
 77 82  1  0  0  0
 77 84  2  0  0  0
 78 79  1  0  0  0
 78150  1  0  0  0
 78151  1  0  0  0
 79 80  1  0  0  0
 79152  1  0  0  0
 79153  1  0  0  0
 80154  1  0  0  0
 80155  1  0  0  0
 81 85  1  0  0  0
 81 86  1  0  0  0
 81 87  1  0  0  0
 82156  1  0  0  0
 83157  1  0  0  0
M  ISO  4   1 100  68 101  80 101  83 100
M  END
> <chiral flag>
0

> <version>
0

> <s_m_source_file>
/data/baiqing/PycharmProjects/Reinvent-master-3.2/result/LINK_invent/BTK/process_docking_weight1_custom_product_contain_oxygen_bond_distance_aromatic_linkinvent_7_9_3/rearranged_h_0060.sdf

> <i_m_source_file_index>
34

> <r_mmod_Potential_Energy-OPLS-2005>
-37.5255661010742

> <r_mmod_Stretch_Energy-OPLS-2005>
45.5627250671387

> <r_mmod_Bend_Energy-OPLS-2005>
94.3173675537109

> <r_mmod_Torsional_Energy-OPLS-2005>
298.833526611328

> <r_mmod_Improper_Torsional_Energy-OPLS-2005>
7.59793758392334

> <r_mmod_Van_der_Waal_Energy-OPLS-2005>
154.33903503418

> <r_mmod_Electrostatic_Energy-OPLS-2005>
-409.789733886719

> <r_mmod_Solvation_Energy-OPLS-2005>
-246.782196044922

> <b_mmod_Minimization_Converged-OPLS-2005>
0

> <r_mmod_RMS_Derivative-OPLS-2005>
4.60964918136597

$$$$
34
                    3D
 Structure written by MMmdl.
162171  0  0  1  0            999 V2000
  -30.7939  -14.3692   20.6639 C   0  0  0  0  0  0
  -30.4080  -12.2859   19.4069 C   0  0  0  0  0  0
  -29.4793  -12.5124   18.2003 C   0  0  0  0  0  0
  -28.0096  -12.3398   18.6200 C   0  0  0  0  0  0
  -27.6592  -13.1875   19.8660 C   0  0  2  0  0  0
  -28.6997  -12.9905   20.9961 C   0  0  0  0  0  0
  -25.2509  -13.8057   20.5579 C   0  0  0  0  0  0
  -24.1784  -13.0353   20.9117 C   0  0  0  0  0  0
  -24.6373  -11.6841   20.8726 C   0  0  0  0  0  0
  -23.9053  -10.4249   21.0409 C   0  0  0  0  0  0
  -24.3607   -9.4183   21.9201 C   0  0  0  0  0  0
  -23.6278   -8.2228   22.0765 C   0  0  0  0  0  0
  -22.4264   -8.0277   21.3551 C   0  0  0  0  0  0
  -21.9896   -9.0247   20.4649 C   0  0  0  0  0  0
  -22.7229  -10.2115   20.3051 C   0  0  0  0  0  0
  -21.6855   -6.0734   22.5284 C   0  0  0  0  0  0
  -21.4019   -6.5638   23.8219 C   0  0  0  0  0  0
  -21.3650   -5.6784   24.9179 C   0  0  0  0  0  0
  -21.6041   -4.3049   24.7227 C   0  0  0  0  0  0
  -21.8824   -3.8147   23.4349 C   0  0  0  0  0  0
  -21.9197   -4.6962   22.3407 C   0  0  0  0  0  0
  -22.7820  -13.5175   21.1820 C   0  0  0  0  0  0
  -22.1665   -4.2146   21.0980 F   0  0  0  0  0  0
  -21.5621   -3.4531   25.7739 F   0  0  0  0  0  0
  -30.0477  -13.2505   20.4596 N   0  0  0  0  0  0
  -26.2996  -12.9245   20.3331 N   0  0  0  0  0  0
  -25.9296  -11.6420   20.5776 N   0  0  0  0  0  0
  -22.0482  -12.8169   22.0387 N   0  0  0  0  0  0
  -25.4077  -15.1751   20.3965 N   0  0  0  0  0  0
  -31.8326  -14.6060   20.0408 O   0  0  0  0  0  0
  -21.6631   -6.8878   21.4249 O   0  0  0  0  0  0
  -22.3507  -14.5509   20.6716 O   0  0  0  0  0  0
  -24.6096  -31.8715   23.2116 C   0  0  0  0  0  0
  -25.8996  -32.4842   23.8415 C   0  0  1  0  0  0
  -27.2446  -27.4783   20.0774 C   0  0  0  0  0  0
  -25.5863  -33.8642   24.2355 N   0  0  0  0  0  0
  -23.3959  -30.4919   21.5547 C   0  0  2  0  0  0
  -24.8403  -28.9582   20.1226 C   0  0  0  0  0  0
  -22.7383  -29.4653   22.5034 C   0  0  0  0  0  0
  -18.0272  -28.1352   22.8499 C   0  0  0  0  0  0
  -24.1478  -36.7338   23.2644 C   0  0  0  0  0  0
  -25.9184  -30.8500   21.3540 C   0  0  0  0  0  0
  -25.9983  -29.4853   20.7042 C   0  0  0  0  0  0
  -27.2032  -28.7551   20.6719 C   0  0  0  0  0  0
  -26.0619  -26.9442   19.5135 C   0  0  0  0  0  0
  -24.8652  -27.6848   19.5266 C   0  0  0  0  0  0
  -23.6000  -29.8203   20.1708 C   0  0  0  0  0  0
  -25.4094  -36.3141   24.0354 C   0  0  1  0  0  0
  -20.5855  -28.3626   23.1352 C   0  0  2  0  0  0
  -20.6754  -26.9369   22.5430 C   0  0  0  0  0  0
  -19.5740  -26.6366   21.5218 C   0  0  0  0  0  0
  -18.1917  -26.7896   22.1629 C   0  0  0  0  0  0
  -19.1519  -28.8806   23.2922 C   0  0  0  0  0  0
  -18.9439  -30.1418   23.8919 C   0  0  0  0  0  0
  -17.6442  -30.6564   24.0554 C   0  0  0  0  0  0
  -25.9017  -34.9493   23.5159 C   0  0  0  0  0  0
  -16.5336  -29.9060   23.6321 C   0  0  0  0  0  0
  -16.7259  -28.6476   23.0342 C   0  0  0  0  0  0
  -26.4442  -31.6610   25.0724 C   0  0  0  0  0  0
  -25.3730  -31.3673   26.1489 C   0  0  0  0  0  0
  -27.0264  -30.3073   24.6023 C   0  0  0  0  0  0
  -27.6031  -32.4311   25.7485 C   0  0  0  0  0  0
  -27.5579  -37.1835   24.8475 C   0  0  0  0  0  0
  -21.4113  -29.3012   22.3777 N   0  0  0  0  0  0
  -26.4299  -37.3806   23.9403 N   0  0  0  0  0  0
  -24.6599  -31.0840   22.0998 N   0  0  0  0  0  0
  -23.4175  -28.8197   23.3057 O   0  0  0  0  0  0
  -28.4528  -26.8215   20.0476 O   0  0  0  0  0  0
  -26.5580  -34.8941   22.4724 O   0  0  0  0  0  0
  -23.5303  -32.1435   23.7542 O   0  0  0  0  0  0
  -31.1394  -17.5320   21.3949 C   0  0  0  0  0  0
  -28.6183  -18.1776   20.3446 C   0  0  0  0  0  0
  -30.8906  -18.8452   20.9342 C   0  0  0  0  0  0
  -29.6299  -19.1657   20.3419 C   0  0  0  0  0  0
  -30.1400  -16.5404   21.3081 C   0  0  0  0  0  0
  -28.8659  -16.8942   20.8445 C   0  0  0  0  0  0
  -30.0957  -21.0662   18.8676 C   0  0  0  0  0  0
  -27.7216  -22.4759   19.8252 C   0  0  0  0  0  0
  -29.8182  -22.5361   18.5184 C   0  0  0  0  0  0
  -27.9856  -21.0018   20.1282 C   0  0  0  0  0  0
  -32.0002  -19.8708   21.1199 C   0  0  0  0  0  0
  -28.5264  -24.6244   18.9364 C   0  0  0  0  0  0
  -28.4490  -25.4184   20.2603 C   0  0  0  0  0  0
  -29.3109  -20.4538   19.7884 N   0  0  0  0  0  0
  -28.6630  -23.1779   19.1605 N   0  0  0  0  0  0
  -30.4132  -15.1932   21.6471 N   0  0  0  0  0  0
  -31.0165  -20.4970   18.2734 O   0  0  0  0  0  0
  -26.6551  -22.9657   20.2032 O   0  0  0  0  0  0
  -27.8660  -15.9978   20.8761 F   0  0  0  0  0  0
  -31.4510  -12.3711   19.0959 H   0  0  0  0  0  0
  -30.2983  -11.2678   19.7839 H   0  0  0  0  0  0
  -29.7219  -11.8140   17.3986 H   0  0  0  0  0  0
  -29.6345  -13.5133   17.7940 H   0  0  0  0  0  0
  -27.8403  -11.2828   18.8298 H   0  0  0  0  0  0
  -27.3469  -12.5966   17.7924 H   0  0  0  0  0  0
  -27.6974  -14.2155   19.5188 H   0  0  0  0  0  0
  -28.6588  -11.9678   21.3743 H   0  0  0  0  0  0
  -28.4514  -13.6267   21.8454 H   0  0  0  0  0  0
  -25.2759   -9.5659   22.4768 H   0  0  0  0  0  0
  -23.9996   -7.4615   22.7472 H   0  0  0  0  0  0
  -21.0836   -8.8774   19.8944 H   0  0  0  0  0  0
  -22.3721  -10.9661   19.6148 H   0  0  0  0  0  0
  -21.2025   -7.6145   23.9728 H   0  0  0  0  0  0
  -21.1456   -6.0509   25.9078 H   0  0  0  0  0  0
  -22.0612   -2.7609   23.2848 H   0  0  0  0  0  0
  -22.4096  -11.9819   22.4747 H   0  0  0  0  0  0
  -21.1114  -13.1210   22.2635 H   0  0  0  0  0  0
  -24.6728  -15.8349   20.6203 H   0  0  0  0  0  0
  -26.3348  -15.5963   20.3830 H   0  0  0  0  0  0
  -26.7063  -32.5572   23.1194 H   0  0  0  0  0  0
  -25.0015  -33.9809   25.0497 H   0  0  0  0  0  0
  -22.6835  -31.3081   21.4179 H   0  0  0  0  0  0
  -23.3735  -35.9682   23.3316 H   0  0  0  0  0  0
  -24.3574  -36.8926   22.2059 H   0  0  0  0  0  0
  -23.7238  -37.6551   23.6640 H   0  0  0  0  0  0
  -26.0179  -31.6136   20.5817 H   0  0  0  0  0  0
  -26.8128  -30.9125   21.9623 H   0  0  0  0  0  0
  -28.1026  -29.1701   21.1048 H   0  0  0  0  0  0
  -26.0451  -25.9708   19.0492 H   0  0  0  0  0  0
  -23.9712  -27.2703   19.0824 H   0  0  0  0  0  0
  -23.7036  -30.5945   19.4100 H   0  0  0  0  0  0
  -22.7246  -29.2371   19.8788 H   0  0  0  0  0  0
  -25.1272  -36.2032   25.0850 H   0  0  0  0  0  0
  -20.9949  -28.3162   24.1472 H   0  0  0  0  0  0
  -20.5641  -26.2227   23.3597 H   0  0  0  0  0  0
  -21.6620  -26.7402   22.1229 H   0  0  0  0  0  0
  -19.6890  -25.6285   21.1221 H   0  0  0  0  0  0
  -19.6672  -27.3191   20.6757 H   0  0  0  0  0  0
  -17.4184  -26.6655   21.4023 H   0  0  0  0  0  0
  -18.0311  -26.0029   22.9016 H   0  0  0  0  0  0
  -19.7916  -30.7234   24.2282 H   0  0  0  0  0  0
  -17.4997  -31.6247   24.5142 H   0  0  0  0  0  0
  -15.5334  -30.2964   23.7628 H   0  0  0  0  0  0
  -15.8664  -28.0802   22.7039 H   0  0  0  0  0  0
  -24.5910  -30.7008   25.7838 H   0  0  0  0  0  0
  -24.8906  -32.2802   26.4987 H   0  0  0  0  0  0
  -25.8119  -30.8820   27.0218 H   0  0  0  0  0  0
  -26.2778  -29.6852   24.1095 H   0  0  0  0  0  0
  -27.4100  -29.7282   25.4435 H   0  0  0  0  0  0
  -27.8582  -30.4434   23.9105 H   0  0  0  0  0  0
  -27.2660  -33.3600   26.2101 H   0  0  0  0  0  0
  -28.3826  -32.6878   25.0300 H   0  0  0  0  0  0
  -28.0711  -31.8399   26.5364 H   0  0  0  0  0  0
  -28.2637  -38.0094   24.7477 H   0  0  0  0  0  0
  -28.1035  -36.2624   24.6358 H   0  0  0  0  0  0
  -27.2295  -37.1565   25.8881 H   0  0  0  0  0  0
  -20.9257  -29.8763   21.7034 H   0  0  0  0  0  0
  -26.0202  -38.2905   24.1345 H   0  0  0  0  0  0
  -32.1142  -17.2803   21.7892 H   0  0  0  0  0  0
  -27.6332  -18.3696   19.9504 H   0  0  0  0  0  0
  -29.7036  -22.6099   17.4371 H   0  0  0  0  0  0
  -30.7173  -23.0960   18.7766 H   0  0  0  0  0  0
  -27.2225  -20.4540   19.5773 H   0  0  0  0  0  0
  -27.7939  -20.8401   21.1894 H   0  0  0  0  0  0
  -32.6441  -19.6010   21.9568 H   0  0  0  0  0  0
  -31.5970  -20.8601   21.3363 H   0  0  0  0  0  0
  -32.6280  -19.9302   20.2307 H   0  0  0  0  0  0
  -29.3778  -24.9936   18.3627 H   0  0  0  0  0  0
  -27.6565  -24.8012   18.3084 H   0  0  0  0  0  0
  -29.3333  -25.1862   20.8536 H   0  0  0  0  0  0
  -27.5994  -25.1391   20.8839 H   0  0  0  0  0  0
  -31.0169  -15.1013   22.4501 H   0  0  0  0  0  0
  1 25  1  0  0  0
  1 30  2  0  0  0
  1 86  1  0  0  0
  2  3  1  0  0  0
  2 25  1  0  0  0
  2 90  1  0  0  0
  2 91  1  0  0  0
  3  4  1  0  0  0
  3 92  1  0  0  0
  3 93  1  0  0  0
  4  5  1  0  0  0
  4 94  1  0  0  0
  4 95  1  0  0  0
  5  6  1  0  0  0
  5 26  1  0  0  0
  5 96  1  0  0  0
  6 25  1  0  0  0
  6 97  1  0  0  0
  6 98  1  0  0  0
  7  8  2  0  0  0
  7 26  1  0  0  0
  7 29  1  0  0  0
  8  9  1  0  0  0
  8 22  1  0  0  0
  9 10  1  0  0  0
  9 27  2  0  0  0
 10 11  2  0  0  0
 10 15  1  0  0  0
 11 12  1  0  0  0
 11 99  1  0  0  0
 12 13  2  0  0  0
 12100  1  0  0  0
 13 14  1  0  0  0
 13 31  1  0  0  0
 14 15  2  0  0  0
 14101  1  0  0  0
 15102  1  0  0  0
 16 17  2  0  0  0
 16 21  1  0  0  0
 16 31  1  0  0  0
 17 18  1  0  0  0
 17103  1  0  0  0
 18 19  2  0  0  0
 18104  1  0  0  0
 19 20  1  0  0  0
 19 24  1  0  0  0
 20 21  2  0  0  0
 20105  1  0  0  0
 21 23  1  0  0  0
 22 28  1  0  0  0
 22 32  2  0  0  0
 26 27  1  0  0  0
 28106  1  0  0  0
 28107  1  0  0  0
 29108  1  0  0  0
 29109  1  0  0  0
 33 34  1  0  0  0
 33 66  1  0  0  0
 33 70  2  0  0  0
 34 36  1  0  0  0
 34 59  1  0  0  0
 34110  1  0  0  0
 35 44  2  0  0  0
 35 45  1  0  0  0
 35 68  1  0  0  0
 36 56  1  0  0  0
 36111  1  0  0  0
 37 39  1  0  0  0
 37 47  1  0  0  0
 37 66  1  0  0  0
 37112  1  0  0  0
 38 43  2  0  0  0
 38 46  1  0  0  0
 38 47  1  0  0  0
 39 64  1  0  0  0
 39 67  2  0  0  0
 40 52  1  0  0  0
 40 53  2  0  0  0
 40 58  1  0  0  0
 41113  1  0  0  0
 41114  1  0  0  0
 41115  1  0  0  0
 41 48  1  0  0  0
 42 43  1  0  0  0
 42 66  1  0  0  0
 42116  1  0  0  0
 42117  1  0  0  0
 43 44  1  0  0  0
 44118  1  0  0  0
 45 46  2  0  0  0
 45119  1  0  0  0
 46120  1  0  0  0
 47121  1  0  0  0
 47122  1  0  0  0
 48 56  1  0  0  0
 48 65  1  0  0  0
 48123  1  0  0  0
 49 50  1  0  0  0
 49 53  1  0  0  0
 49 64  1  0  0  0
 49124  1  0  0  0
 50 51  1  0  0  0
 50125  1  0  0  0
 50126  1  0  0  0
 51 52  1  0  0  0
 51127  1  0  0  0
 51128  1  0  0  0
 52129  1  0  0  0
 52130  1  0  0  0
 53 54  1  0  0  0
 54 55  2  0  0  0
 54131  1  0  0  0
 55 57  1  0  0  0
 55132  1  0  0  0
 56 69  2  0  0  0
 57 58  2  0  0  0
 57133  1  0  0  0
 58134  1  0  0  0
 59 60  1  0  0  0
 59 61  1  0  0  0
 59 62  1  0  0  0
 60135  1  0  0  0
 60136  1  0  0  0
 60137  1  0  0  0
 61138  1  0  0  0
 61139  1  0  0  0
 61140  1  0  0  0
 62141  1  0  0  0
 62142  1  0  0  0
 62143  1  0  0  0
 63 65  1  0  0  0
 63144  1  0  0  0
 63145  1  0  0  0
 63146  1  0  0  0
 64147  1  0  0  0
 65148  1  0  0  0
 68 83  1  0  0  0
 71 73  2  0  0  0
 71 75  1  0  0  0
 71149  1  0  0  0
 72 74  2  0  0  0
 72 76  1  0  0  0
 72150  1  0  0  0
 73 74  1  0  0  0
 73 81  1  0  0  0
 74 84  1  0  0  0
 75 76  2  0  0  0
 75 86  1  0  0  0
 76 89  1  0  0  0
 77 79  1  0  0  0
 77 84  1  0  0  0
 77 87  2  0  0  0
 78 80  1  0  0  0
 78 85  1  0  0  0
 78 88  2  0  0  0
 79 85  1  0  0  0
 79151  1  0  0  0
 79152  1  0  0  0
 80 84  1  0  0  0
 80153  1  0  0  0
 80154  1  0  0  0
 81155  1  0  0  0
 81156  1  0  0  0
 81157  1  0  0  0
 82 83  1  0  0  0
 82 85  1  0  0  0
 82158  1  0  0  0
 82159  1  0  0  0
 83160  1  0  0  0
 83161  1  0  0  0
 86162  1  0  0  0
M  ISO  4   1 100  68 101  83 101  86 100
M  END
> <chiral flag>
0

> <version>
0

> <s_m_source_file>
/data/baiqing/PycharmProjects/Reinvent-master-3.2/result/LINK_invent/BTK/process_docking_weight1_custom_product_contain_oxygen_bond_distance_aromatic_linkinvent_7_9_3/rearranged_h_0060.sdf

> <i_m_source_file_index>
35

> <r_mmod_Potential_Energy-OPLS-2005>
-25.4867992401123

> <r_mmod_Stretch_Energy-OPLS-2005>
37.7544288635254

> <r_mmod_Bend_Energy-OPLS-2005>
113.142372131348

> <r_mmod_Torsional_Energy-OPLS-2005>
320.605865478516

> <r_mmod_Improper_Torsional_Energy-OPLS-2005>
8.27753353118896

> <r_mmod_Van_der_Waal_Energy-OPLS-2005>
191.228607177734

> <r_mmod_Electrostatic_Energy-OPLS-2005>
-467.296081542969

> <r_mmod_Solvation_Energy-OPLS-2005>
-238.196884155273

> <b_mmod_Minimization_Converged-OPLS-2005>
0

> <r_mmod_RMS_Derivative-OPLS-2005>
1.90535187721252

$$$$
35
                    3D
 Structure written by MMmdl.
162170  0  0  1  0            999 V2000
  -30.1819  -15.0076   20.4151 C   0  0  0  0  0  0
  -30.4282  -12.6158   19.5381 C   0  0  0  0  0  0
  -29.5240  -12.5153   18.2791 C   0  0  0  0  0  0
  -28.0496  -12.2680   18.6681 C   0  0  0  0  0  0
  -27.5982  -13.1949   19.8226 C   0  0  2  0  0  0
  -28.5989  -13.1576   20.9845 C   0  0  0  0  0  0
  -25.2323  -13.8057   20.5441 C   0  0  0  0  0  0
  -24.1694  -13.0388   20.9212 C   0  0  0  0  0  0
  -24.6235  -11.6843   20.8730 C   0  0  0  0  0  0
  -23.8940  -10.4268   21.0435 C   0  0  0  0  0  0
  -24.3515   -9.4196   21.9178 C   0  0  0  0  0  0
  -23.6223   -8.2219   22.0707 C   0  0  0  0  0  0
  -22.4200   -8.0253   21.3547 C   0  0  0  0  0  0
  -21.9849   -9.0217   20.4645 C   0  0  0  0  0  0
  -22.7137  -10.2109   20.3093 C   0  0  0  0  0  0
  -21.6840   -6.0676   22.5277 C   0  0  0  0  0  0
  -21.4004   -6.5563   23.8218 C   0  0  0  0  0  0
  -21.3668   -5.6738   24.9200 C   0  0  0  0  0  0
  -21.6074   -4.3007   24.7248 C   0  0  0  0  0  0
  -21.8848   -3.8087   23.4372 C   0  0  0  0  0  0
  -21.9174   -4.6899   22.3415 C   0  0  0  0  0  0
  -22.7760  -13.5194   21.1933 C   0  0  0  0  0  0
  -22.1639   -4.2062   21.1003 F   0  0  0  0  0  0
  -21.5682   -3.4522   25.7780 F   0  0  0  0  0  0
  -29.8477  -13.6598   20.4360 N   0  0  0  0  0  0
  -26.2606  -12.9162   20.2950 N   0  0  0  0  0  0
  -25.9074  -11.6349   20.5521 N   0  0  0  0  0  0
  -22.0442  -12.8203   22.0558 N   0  0  0  0  0  0
  -25.4039  -15.1679   20.3517 N   0  0  0  0  0  0
  -31.3495  -15.2616   20.0698 O   0  0  0  0  0  0
  -21.6617   -6.8826   21.4238 O   0  0  0  0  0  0
  -22.3423  -14.5448   20.6660 O   0  0  0  0  0  0
  -24.6831  -31.9177   23.1967 C   0  0  0  0  0  0
  -25.9620  -32.4943   23.8417 C   0  0  1  0  0  0
  -26.2336  -27.0883   20.4664 C   0  0  0  0  0  0
  -25.6349  -33.8686   24.2401 N   0  0  0  0  0  0
  -23.4909  -30.5796   21.5534 C   0  0  2  0  0  0
  -24.7740  -29.1505   19.8978 C   0  0  0  0  0  0
  -23.0818  -29.5070   22.5656 C   0  0  0  0  0  0
  -18.5738  -28.1193   22.1146 C   0  0  0  0  0  0
  -24.1524  -36.7349   23.2605 C   0  0  0  0  0  0
  -26.0014  -30.7748   21.3725 C   0  0  0  0  0  0
  -25.9148  -29.4257   20.6682 C   0  0  0  0  0  0
  -26.8154  -28.3526   20.8367 C   0  0  0  0  0  0
  -25.7518  -27.0374   19.1844 C   0  0  0  0  0  0
  -24.7486  -28.0098   19.0507 C   0  0  0  0  0  0
  -23.5978  -30.0479   20.0947 C   0  0  0  0  0  0
  -25.4133  -36.3146   24.0314 C   0  0  1  0  0  0
  -21.2532  -28.3683   23.6038 C   0  0  2  0  0  0
  -21.8729  -26.2248   23.5636 C   0  0  0  0  0  0
  -20.4069  -25.1105   22.1243 C   0  0  0  0  0  0
  -18.9007  -26.3884   21.4161 C   0  0  0  0  0  0
  -19.6177  -28.9446   22.9841 C   0  0  0  0  0  0
  -19.1292  -30.0663   23.7392 C   0  0  0  0  0  0
  -17.7710  -30.4213   23.8585 C   0  0  0  0  0  0
  -25.9146  -34.9538   23.5102 C   0  0  0  0  0  0
  -16.8032  -29.6046   23.2628 C   0  0  0  0  0  0
  -17.1969  -28.4930   22.4501 C   0  0  0  0  0  0
  -26.4629  -31.6591   25.0801 C   0  0  0  0  0  0
  -25.3699  -31.3819   26.1386 C   0  0  0  0  0  0
  -27.0343  -30.2954   24.6274 C   0  0  0  0  0  0
  -27.6174  -32.4197   25.7752 C   0  0  0  0  0  0
  -27.5598  -37.1897   24.8462 C   0  0  0  0  0  0
  -21.8240  -29.4222   22.8082 N   0  0  0  0  0  0
  -26.4282  -37.3859   23.9439 N   0  0  0  0  0  0
  -24.7505  -31.1563   22.0648 N   0  0  0  0  0  0
  -23.8552  -28.7944   23.1935 O   0  0  0  0  0  0
  -25.0881  -26.7320   21.2875 O   0  0  0  0  0  0
  -26.5580  -34.8995   22.4584 O   0  0  0  0  0  0
  -23.5962  -32.1893   23.7394 O   0  0  0  0  0  0
  -28.6986  -19.2828   18.7301 C   0  0  0  0  0  0
  -27.7437  -20.0682   19.4180 C   0  0  0  0  0  0
  -29.1314  -18.0073   19.1700 C   0  0  0  0  0  0
  -27.0661  -19.6282   20.5803 C   0  0  0  0  0  0
  -27.5381  -18.2324   21.0241 C   0  0  0  0  0  0
  -28.6262  -17.4056   20.3516 C   0  0  0  0  0  0
  -25.8442  -20.6166   21.0980 C   0  0  0  0  0  0
  -21.4438  -27.1159   21.4563 C   0  0  0  0  0  0
  -26.8743  -17.4976   22.2148 C   0  0  0  0  0  0
  -19.7205  -26.6538   23.5681 C   0  0  0  0  0  0
  -23.8531  -24.5543   21.6356 C   0  0  0  0  0  0
  -24.4205  -23.1277   20.7363 C   0  0  0  0  0  0
  -23.3517  -26.2174   21.1544 C   0  0  2  0  0  0
  -29.1305  -15.9670   20.7319 N   0  0  0  0  0  0
  -25.6650  -22.0466   20.8505 N   0  0  0  0  0  0
  -24.9596  -20.0522   21.7420 O   0  0  0  0  0  0
  -21.1057  -27.8537   20.5206 O   0  0  0  0  0  0
  -31.4585  -12.8474   19.2659 H   0  0  0  0  0  0
  -30.4650  -11.6525   20.0516 H   0  0  0  0  0  0
  -29.8848  -11.7064   17.6391 H   0  0  0  0  0  0
  -29.5866  -13.4389   17.7027 H   0  0  0  0  0  0
  -27.9716  -11.2222   18.9790 H   0  0  0  0  0  0
  -27.3950  -12.3903   17.8042 H   0  0  0  0  0  0
  -27.5782  -14.1989   19.3948 H   0  0  0  0  0  0
  -28.7179  -12.1448   21.3686 H   0  0  0  0  0  0
  -28.2458  -13.7784   21.8105 H   0  0  0  0  0  0
  -25.2658   -9.5667   22.4720 H   0  0  0  0  0  0
  -23.9952   -7.4605   22.7353 H   0  0  0  0  0  0
  -21.0826   -8.8757   19.8910 H   0  0  0  0  0  0
  -22.3616  -10.9661   19.6223 H   0  0  0  0  0  0
  -21.1977   -7.6060   23.9707 H   0  0  0  0  0  0
  -21.1440   -6.0451   25.9098 H   0  0  0  0  0  0
  -22.0604   -2.7531   23.2916 H   0  0  0  0  0  0
  -22.4050  -11.9883   22.4983 H   0  0  0  0  0  0
  -21.1090  -13.1258   22.2822 H   0  0  0  0  0  0
  -24.6174  -15.8049   20.4082 H   0  0  0  0  0  0
  -26.1923  -15.5567   19.8443 H   0  0  0  0  0  0
  -26.7683  -32.5425   23.1123 H   0  0  0  0  0  0
  -25.0636  -33.9774   25.0626 H   0  0  0  0  0  0
  -22.7231  -31.3550   21.5447 H   0  0  0  0  0  0
  -23.3807  -35.9671   23.3233 H   0  0  0  0  0  0
  -24.3635  -36.9007   22.2042 H   0  0  0  0  0  0
  -23.7299  -37.6530   23.6637 H   0  0  0  0  0  0
  -26.2222  -31.5296   20.6176 H   0  0  0  0  0  0
  -26.8670  -30.7248   22.0212 H   0  0  0  0  0  0
  -27.6273  -28.4235   21.5424 H   0  0  0  0  0  0
  -25.5832  -26.0960   18.6832 H   0  0  0  0  0  0
  -23.9376  -27.8582   18.3524 H   0  0  0  0  0  0
  -23.7194  -30.8946   19.4190 H   0  0  0  0  0  0
  -22.6783  -29.5604   19.7752 H   0  0  0  0  0  0
  -25.1324  -36.1953   25.0798 H   0  0  0  0  0  0
  -21.3527  -28.6988   24.6377 H   0  0  0  0  0  0
  -21.7860  -25.8274   24.5784 H   0  0  0  0  0  0
  -22.9499  -26.1040   23.4751 H   0  0  0  0  0  0
  -19.9492  -24.2645   22.6557 H   0  0  0  0  0  0
  -20.9147  -24.5877   21.3106 H   0  0  0  0  0  0
  -18.9954  -26.4869   20.3336 H   0  0  0  0  0  0
  -17.9639  -25.8402   21.5075 H   0  0  0  0  0  0
  -19.8301  -30.6162   24.3497 H   0  0  0  0  0  0
  -17.4769  -31.2562   24.4809 H   0  0  0  0  0  0
  -15.7537  -29.8216   23.4133 H   0  0  0  0  0  0
  -16.4046  -27.8770   22.0410 H   0  0  0  0  0  0
  -24.5857  -30.7231   25.7631 H   0  0  0  0  0  0
  -24.8902  -32.3013   26.4738 H   0  0  0  0  0  0
  -25.7830  -30.8980   27.0242 H   0  0  0  0  0  0
  -26.2889  -29.6906   24.1088 H   0  0  0  0  0  0
  -27.3725  -29.7049   25.4807 H   0  0  0  0  0  0
  -27.8947  -30.4180   23.9710 H   0  0  0  0  0  0
  -27.2781  -33.3509   26.2319 H   0  0  0  0  0  0
  -28.4097  -32.6708   25.0689 H   0  0  0  0  0  0
  -28.0659  -31.8255   26.5722 H   0  0  0  0  0  0
  -28.2598  -38.0209   24.7510 H   0  0  0  0  0  0
  -28.1117  -36.2756   24.6257 H   0  0  0  0  0  0
  -27.2331  -37.1521   25.8861 H   0  0  0  0  0  0
  -21.1813  -30.0077   22.2959 H   0  0  0  0  0  0
  -26.0152  -38.2911   24.1451 H   0  0  0  0  0  0
  -29.1161  -19.6926   17.8137 H   0  0  0  0  0  0
  -27.5027  -21.0337   18.9925 H   0  0  0  0  0  0
  -29.8424  -17.4961   18.5323 H   0  0  0  0  0  0
  -26.5900  -18.1078   23.0724 H   0  0  0  0  0  0
  -27.5495  -16.7436   22.6349 H   0  0  0  0  0  0
  -25.9728  -16.9605   21.9189 H   0  0  0  0  0  0
  -19.8373  -25.7227   24.1452 H   0  0  0  0  0  0
  -18.6480  -26.4247   23.5318 H   0  0  0  0  0  0
  -19.7080  -27.2289   24.5037 H   0  0  0  0  0  0
  -24.5481  -24.7011   22.4784 H   0  0  0  0  0  0
  -22.9998  -24.1490   22.1935 H   0  0  0  0  0  0
  -24.4668  -23.4672   19.7008 H   0  0  0  0  0  0
  -23.5533  -22.4637   20.7242 H   0  0  0  0  0  0
  -23.2560  -26.0811   20.0802 H   0  0  0  0  0  0
  -28.4180  -15.4644   21.2403 H   0  0  0  0  0  0
  -26.4797  -22.3910   20.3525 H   0  0  0  0  0  0
  1 25  1  0  0  0
  1 30  2  0  0  0
  1 84  1  0  0  0
  2  3  1  0  0  0
  2 25  1  0  0  0
  2 88  1  0  0  0
  2 89  1  0  0  0
  3  4  1  0  0  0
  3 90  1  0  0  0
  3 91  1  0  0  0
  4  5  1  0  0  0
  4 92  1  0  0  0
  4 93  1  0  0  0
  5  6  1  0  0  0
  5 26  1  0  0  0
  5 94  1  0  0  0
  6 25  1  0  0  0
  6 95  1  0  0  0
  6 96  1  0  0  0
  7  8  2  0  0  0
  7 26  1  0  0  0
  7 29  1  0  0  0
  8  9  1  0  0  0
  8 22  1  0  0  0
  9 10  1  0  0  0
  9 27  2  0  0  0
 10 11  2  0  0  0
 10 15  1  0  0  0
 11 12  1  0  0  0
 11 97  1  0  0  0
 12 13  2  0  0  0
 12 98  1  0  0  0
 13 14  1  0  0  0
 13 31  1  0  0  0
 14 15  2  0  0  0
 14 99  1  0  0  0
 15100  1  0  0  0
 16 17  2  0  0  0
 16 21  1  0  0  0
 16 31  1  0  0  0
 17 18  1  0  0  0
 17101  1  0  0  0
 18 19  2  0  0  0
 18102  1  0  0  0
 19 20  1  0  0  0
 19 24  1  0  0  0
 20 21  2  0  0  0
 20103  1  0  0  0
 21 23  1  0  0  0
 22 28  1  0  0  0
 22 32  2  0  0  0
 26 27  1  0  0  0
 28104  1  0  0  0
 28105  1  0  0  0
 29106  1  0  0  0
 29107  1  0  0  0
 33 34  1  0  0  0
 33 66  1  0  0  0
 33 70  2  0  0  0
 34 36  1  0  0  0
 34 59  1  0  0  0
 34108  1  0  0  0
 35 44  2  0  0  0
 35 45  1  0  0  0
 35 68  1  0  0  0
 36 56  1  0  0  0
 36109  1  0  0  0
 37 39  1  0  0  0
 37 47  1  0  0  0
 37 66  1  0  0  0
 37110  1  0  0  0
 38 43  2  0  0  0
 38 46  1  0  0  0
 38 47  1  0  0  0
 39 64  1  0  0  0
 39 67  2  0  0  0
 40 52  1  0  0  0
 40 53  2  0  0  0
 40 58  1  0  0  0
 41111  1  0  0  0
 41112  1  0  0  0
 41113  1  0  0  0
 41 48  1  0  0  0
 42 43  1  0  0  0
 42 66  1  0  0  0
 42114  1  0  0  0
 42115  1  0  0  0
 43 44  1  0  0  0
 44116  1  0  0  0
 45 46  2  0  0  0
 45117  1  0  0  0
 46118  1  0  0  0
 47119  1  0  0  0
 47120  1  0  0  0
 48 56  1  0  0  0
 48 65  1  0  0  0
 48121  1  0  0  0
 49 50  1  0  0  0
 49 53  1  0  0  0
 49 64  1  0  0  0
 49122  1  0  0  0
 50 51  1  0  0  0
 50123  1  0  0  0
 50124  1  0  0  0
 51 52  1  0  0  0
 51125  1  0  0  0
 51126  1  0  0  0
 52127  1  0  0  0
 52128  1  0  0  0
 53 54  1  0  0  0
 54 55  2  0  0  0
 54129  1  0  0  0
 55 57  1  0  0  0
 55130  1  0  0  0
 56 69  2  0  0  0
 57 58  2  0  0  0
 57131  1  0  0  0
 58132  1  0  0  0
 59 60  1  0  0  0
 59 61  1  0  0  0
 59 62  1  0  0  0
 60133  1  0  0  0
 60134  1  0  0  0
 60135  1  0  0  0
 61136  1  0  0  0
 61137  1  0  0  0
 61138  1  0  0  0
 62139  1  0  0  0
 62140  1  0  0  0
 62141  1  0  0  0
 63 65  1  0  0  0
 63142  1  0  0  0
 63143  1  0  0  0
 63144  1  0  0  0
 64145  1  0  0  0
 65146  1  0  0  0
 68 83  1  0  0  0
 71 72  2  0  0  0
 71 73  1  0  0  0
 71147  1  0  0  0
 72 74  1  0  0  0
 72148  1  0  0  0
 73 76  2  0  0  0
 73149  1  0  0  0
 74 75  2  0  0  0
 74 77  1  0  0  0
 75 76  1  0  0  0
 75 79  1  0  0  0
 76 84  1  0  0  0
 77 85  1  0  0  0
 77 86  2  0  0  0
 78 80  1  0  0  0
 78 83  1  0  0  0
 78 87  2  0  0  0
 79150  1  0  0  0
 79151  1  0  0  0
 79152  1  0  0  0
 80153  1  0  0  0
 80154  1  0  0  0
 80155  1  0  0  0
 81 82  1  0  0  0
 81156  1  0  0  0
 81157  1  0  0  0
 81 83  1  0  0  0
 82 85  1  0  0  0
 82158  1  0  0  0
 82159  1  0  0  0
 83160  1  0  0  0
 84161  1  0  0  0
 85162  1  0  0  0
M  ISO  4   1 100  68 101  83 101  84 100
M  END
> <chiral flag>
0

> <version>
0

> <s_m_source_file>
/data/baiqing/PycharmProjects/Reinvent-master-3.2/result/LINK_invent/BTK/process_docking_weight1_custom_product_contain_oxygen_bond_distance_aromatic_linkinvent_7_9_3/rearranged_h_0060.sdf

> <i_m_source_file_index>
36

> <r_mmod_Potential_Energy-OPLS-2005>
11012.455078125

> <r_mmod_Stretch_Energy-OPLS-2005>
5325.85302734375

> <r_mmod_Bend_Energy-OPLS-2005>
874.232238769531

> <r_mmod_Torsional_Energy-OPLS-2005>
532.684326171875

> <r_mmod_Improper_Torsional_Energy-OPLS-2005>
47.8886642456055

> <r_mmod_Van_der_Waal_Energy-OPLS-2005>
2074.10717773438

> <r_mmod_Electrostatic_Energy-OPLS-2005>
-445.160491943359

> <r_mmod_Solvation_Energy-OPLS-2005>
-232.49333190918

> <b_mmod_Minimization_Converged-OPLS-2005>
0

> <r_mmod_RMS_Derivative-OPLS-2005>
17.2989673614502

$$$$
36
                    3D
 Structure written by MMmdl.
157165  0  0  1  0            999 V2000
  -30.5190  -15.0493   20.3739 C   0  0  0  0  0  0
  -30.4371  -12.6533   19.5112 C   0  0  0  0  0  0
  -29.5265  -12.5414   18.2664 C   0  0  0  0  0  0
  -28.0634  -12.3099   18.6862 C   0  0  0  0  0  0
  -27.6222  -13.2603   19.8294 C   0  0  2  0  0  0
  -28.6615  -13.3459   20.9666 C   0  0  0  0  0  0
  -25.2433  -13.8235   20.5721 C   0  0  0  0  0  0
  -24.1764  -13.0443   20.9238 C   0  0  0  0  0  0
  -24.6397  -11.6933   20.8752 C   0  0  0  0  0  0
  -23.9086  -10.4296   21.0407 C   0  0  0  0  0  0
  -24.3632   -9.4209   21.9184 C   0  0  0  0  0  0
  -23.6302   -8.2246   22.0756 C   0  0  0  0  0  0
  -22.4282   -8.0286   21.3546 C   0  0  0  0  0  0
  -21.9922   -9.0260   20.4648 C   0  0  0  0  0  0
  -22.7257  -10.2136   20.3056 C   0  0  0  0  0  0
  -21.6854   -6.0739   22.5279 C   0  0  0  0  0  0
  -21.4018   -6.5642   23.8212 C   0  0  0  0  0  0
  -21.3660   -5.6793   24.9173 C   0  0  0  0  0  0
  -21.6044   -4.3055   24.7222 C   0  0  0  0  0  0
  -21.8819   -3.8148   23.4343 C   0  0  0  0  0  0
  -21.9193   -4.6967   22.3401 C   0  0  0  0  0  0
  -22.7782  -13.5204   21.1889 C   0  0  0  0  0  0
  -22.1661   -4.2152   21.0978 F   0  0  0  0  0  0
  -21.5626   -3.4538   25.7735 F   0  0  0  0  0  0
  -29.9250  -13.7781   20.3560 N   0  0  0  0  0  0
  -26.2856  -12.9487   20.3217 N   0  0  0  0  0  0
  -25.9331  -11.6606   20.5723 N   0  0  0  0  0  0
  -22.0435  -12.8192   22.0444 N   0  0  0  0  0  0
  -25.4086  -15.1968   20.4156 N   0  0  0  0  0  0
  -31.7391  -15.0501   20.1882 O   0  0  0  0  0  0
  -21.6645   -6.8884   21.4243 O   0  0  0  0  0  0
  -22.3460  -14.5503   20.6725 O   0  0  0  0  0  0
  -24.6504  -31.8374   23.1830 C   0  0  0  0  0  0
  -25.9246  -32.4659   23.8243 C   0  0  1  0  0  0
  -27.2111  -27.0609   20.1668 C   0  0  0  0  0  0
  -25.5964  -33.8468   24.2152 N   0  0  0  0  0  0
  -23.4574  -30.4552   21.5305 C   0  0  2  0  0  0
  -24.9071  -28.8680   20.1145 C   0  0  0  0  0  0
  -22.7602  -29.4516   22.4841 C   0  0  0  0  0  0
  -18.0310  -28.1397   22.8474 C   0  0  0  0  0  0
  -24.1493  -36.7239   23.2645 C   0  0  0  0  0  0
  -26.0192  -30.6869   21.3938 C   0  0  0  0  0  0
  -26.0884  -29.2902   20.7381 C   0  0  0  0  0  0
  -27.2416  -28.4053   20.7429 C   0  0  0  0  0  0
  -26.0055  -26.7636   19.4946 C   0  0  0  0  0  0
  -24.8829  -27.6206   19.4751 C   0  0  0  0  0  0
  -23.6885  -29.7805   20.1525 C   0  0  0  0  0  0
  -25.4127  -36.3009   24.0310 C   0  0  1  0  0  0
  -20.5927  -28.3731   23.1218 C   0  0  2  0  0  0
  -20.6790  -26.9426   22.5402 C   0  0  0  0  0  0
  -19.5763  -26.6378   21.5211 C   0  0  0  0  0  0
  -18.1946  -26.7933   22.1623 C   0  0  0  0  0  0
  -19.1569  -28.8883   23.2835 C   0  0  0  0  0  0
  -18.9483  -30.1477   23.8864 C   0  0  0  0  0  0
  -17.6479  -30.6592   24.0556 C   0  0  0  0  0  0
  -25.9083  -34.9387   23.5044 C   0  0  0  0  0  0
  -16.5370  -29.9082   23.6338 C   0  0  0  0  0  0
  -16.7294  -28.6501   23.0359 C   0  0  0  0  0  0
  -26.4538  -31.6555   25.0717 C   0  0  0  0  0  0
  -25.3699  -31.3769   26.1398 C   0  0  0  0  0  0
  -27.0416  -30.2939   24.6360 C   0  0  0  0  0  0
  -27.6052  -32.4338   25.7510 C   0  0  0  0  0  0
  -27.5572  -37.1778   24.8466 C   0  0  0  0  0  0
  -21.4287  -29.3047   22.3586 N   0  0  0  0  0  0
  -26.4284  -37.3729   23.9406 N   0  0  0  0  0  0
  -24.7294  -31.0164   22.0901 N   0  0  0  0  0  0
  -23.4211  -28.8069   23.3021 O   0  0  0  0  0  0
  -28.2401  -26.0264   20.2035 O   0  0  0  0  0  0
  -26.5678  -34.8897   22.4629 O   0  0  0  0  0  0
  -23.5606  -32.1285   23.7006 O   0  0  0  0  0  0
  -30.1522  -20.4892   18.7714 C   0  0  0  0  0  0
  -29.2904  -19.0233   20.4760 C   0  0  0  0  0  0
  -30.7100  -19.3564   18.1386 C   0  0  0  0  0  0
  -30.5775  -18.0229   18.6520 C   0  0  0  0  0  0
  -29.3809  -20.4350   19.9429 C   0  0  0  0  0  0
  -29.9065  -17.7634   19.9012 C   0  0  0  0  0  0
  -28.9216  -23.1887   20.0666 C   0  0  0  0  0  0
  -31.4501  -19.6581   16.8346 C   0  0  0  0  0  0
  -32.6152  -16.7141   17.7483 C   0  0  0  0  0  0
  -31.0846  -16.8829   17.7550 C   0  0  0  0  0  0
  -27.9037  -24.4850   20.4302 C   0  0  0  0  0  0
  -28.7214  -21.7868   20.3937 N   0  0  0  0  0  0
  -29.7537  -16.2812   20.4225 N   0  0  0  0  0  0
  -29.9538  -23.5081   19.4716 O   0  0  0  0  0  0
  -31.4688  -12.8162   19.1956 H   0  0  0  0  0  0
  -30.4447  -11.7187   20.0743 H   0  0  0  0  0  0
  -29.8649  -11.7318   17.6185 H   0  0  0  0  0  0
  -29.5989  -13.4571   17.6775 H   0  0  0  0  0  0
  -27.9785  -11.2743   19.0177 H   0  0  0  0  0  0
  -27.3993  -12.4105   17.8269 H   0  0  0  0  0  0
  -27.5671  -14.2497   19.3736 H   0  0  0  0  0  0
  -28.7719  -12.3881   21.4771 H   0  0  0  0  0  0
  -28.3444  -14.0666   21.7217 H   0  0  0  0  0  0
  -25.2776   -9.5684   22.4761 H   0  0  0  0  0  0
  -24.0008   -7.4637   22.7476 H   0  0  0  0  0  0
  -21.0853   -8.8781   19.8953 H   0  0  0  0  0  0
  -22.3715  -10.9674   19.6165 H   0  0  0  0  0  0
  -21.2015   -7.6150   23.9717 H   0  0  0  0  0  0
  -21.1481   -6.0523   25.9076 H   0  0  0  0  0  0
  -22.0598   -2.7612   23.2841 H   0  0  0  0  0  0
  -22.4061  -11.9863   22.4842 H   0  0  0  0  0  0
  -21.1047  -13.1206   22.2643 H   0  0  0  0  0  0
  -24.6369  -15.8458   20.5267 H   0  0  0  0  0  0
  -26.2482  -15.6387   20.0643 H   0  0  0  0  0  0
  -26.7314  -32.5241   23.0967 H   0  0  0  0  0  0
  -25.0068  -33.9567   25.0273 H   0  0  0  0  0  0
  -22.7636  -31.2833   21.3709 H   0  0  0  0  0  0
  -23.3759  -35.9567   23.3294 H   0  0  0  0  0  0
  -24.3574  -36.8890   22.2062 H   0  0  0  0  0  0
  -23.7248  -37.6429   23.6698 H   0  0  0  0  0  0
  -26.1842  -31.4362   20.6184 H   0  0  0  0  0  0
  -26.8856  -30.7391   22.0414 H   0  0  0  0  0  0
  -28.1403  -28.7252   21.2511 H   0  0  0  0  0  0
  -25.9003  -25.8213   18.9795 H   0  0  0  0  0  0
  -23.9855  -27.2950   18.9669 H   0  0  0  0  0  0
  -23.8338  -30.5527   19.3961 H   0  0  0  0  0  0
  -22.8009  -29.2283   19.8386 H   0  0  0  0  0  0
  -25.1321  -36.1825   25.0802 H   0  0  0  0  0  0
  -21.0015  -28.3325   24.1341 H   0  0  0  0  0  0
  -20.5674  -26.2346   23.3629 H   0  0  0  0  0  0
  -21.6656  -26.7418   22.1206 H   0  0  0  0  0  0
  -19.6922  -25.6280   21.1260 H   0  0  0  0  0  0
  -19.6697  -27.3171   20.6726 H   0  0  0  0  0  0
  -17.4212  -26.6675   21.4030 H   0  0  0  0  0  0
  -18.0347  -26.0082   22.9028 H   0  0  0  0  0  0
  -19.7959  -30.7302   24.2218 H   0  0  0  0  0  0
  -17.5031  -31.6268   24.5164 H   0  0  0  0  0  0
  -15.5367  -30.2972   23.7681 H   0  0  0  0  0  0
  -15.8695  -28.0807   22.7093 H   0  0  0  0  0  0
  -24.5888  -30.7106   25.7717 H   0  0  0  0  0  0
  -24.8877  -32.2959   26.4739 H   0  0  0  0  0  0
  -25.7962  -30.8998   27.0231 H   0  0  0  0  0  0
  -26.3057  -29.6642   24.1347 H   0  0  0  0  0  0
  -27.3976  -29.7265   25.4969 H   0  0  0  0  0  0
  -27.8986  -30.4153   23.9731 H   0  0  0  0  0  0
  -27.2633  -33.3666   26.2006 H   0  0  0  0  0  0
  -28.3905  -32.6854   25.0370 H   0  0  0  0  0  0
  -28.0671  -31.8518   26.5495 H   0  0  0  0  0  0
  -28.2583  -38.0080   24.7505 H   0  0  0  0  0  0
  -28.1074  -36.2607   24.6303 H   0  0  0  0  0  0
  -27.2287  -37.1436   25.8868 H   0  0  0  0  0  0
  -20.9513  -29.8756   21.6751 H   0  0  0  0  0  0
  -26.0144  -38.2795   24.1403 H   0  0  0  0  0  0
  -30.2864  -21.4417   18.2829 H   0  0  0  0  0  0
  -28.7037  -18.8953   21.3742 H   0  0  0  0  0  0
  -31.2027  -20.6503   16.4555 H   0  0  0  0  0  0
  -31.2082  -18.9727   16.0252 H   0  0  0  0  0  0
  -32.5273  -19.6498   16.9962 H   0  0  0  0  0  0
  -32.8962  -15.8042   17.2179 H   0  0  0  0  0  0
  -33.0222  -16.6501   18.7562 H   0  0  0  0  0  0
  -33.1230  -17.5382   17.2534 H   0  0  0  0  0  0
  -30.7405  -17.0454   16.7357 H   0  0  0  0  0  0
  -30.5968  -15.9413   17.9771 H   0  0  0  0  0  0
  -27.6635  -24.3865   21.4890 H   0  0  0  0  0  0
  -26.9756  -24.2483   19.9152 H   0  0  0  0  0  0
  -27.9314  -21.6594   21.0127 H   0  0  0  0  0  0
  -28.8345  -16.1048   20.8002 H   0  0  0  0  0  0
  1 25  1  0  0  0
  1 30  2  0  0  0
  1 83  1  0  0  0
  2  3  1  0  0  0
  2 25  1  0  0  0
  2 85  1  0  0  0
  2 86  1  0  0  0
  3  4  1  0  0  0
  3 87  1  0  0  0
  3 88  1  0  0  0
  4  5  1  0  0  0
  4 89  1  0  0  0
  4 90  1  0  0  0
  5  6  1  0  0  0
  5 26  1  0  0  0
  5 91  1  0  0  0
  6 25  1  0  0  0
  6 92  1  0  0  0
  6 93  1  0  0  0
  7  8  2  0  0  0
  7 26  1  0  0  0
  7 29  1  0  0  0
  8  9  1  0  0  0
  8 22  1  0  0  0
  9 10  1  0  0  0
  9 27  2  0  0  0
 10 11  2  0  0  0
 10 15  1  0  0  0
 11 12  1  0  0  0
 11 94  1  0  0  0
 12 13  2  0  0  0
 12 95  1  0  0  0
 13 14  1  0  0  0
 13 31  1  0  0  0
 14 15  2  0  0  0
 14 96  1  0  0  0
 15 97  1  0  0  0
 16 17  2  0  0  0
 16 21  1  0  0  0
 16 31  1  0  0  0
 17 18  1  0  0  0
 17 98  1  0  0  0
 18 19  2  0  0  0
 18 99  1  0  0  0
 19 20  1  0  0  0
 19 24  1  0  0  0
 20 21  2  0  0  0
 20100  1  0  0  0
 21 23  1  0  0  0
 22 28  1  0  0  0
 22 32  2  0  0  0
 26 27  1  0  0  0
 28101  1  0  0  0
 28102  1  0  0  0
 29103  1  0  0  0
 29104  1  0  0  0
 33 34  1  0  0  0
 33 66  1  0  0  0
 33 70  2  0  0  0
 34 36  1  0  0  0
 34 59  1  0  0  0
 34105  1  0  0  0
 35 44  2  0  0  0
 35 45  1  0  0  0
 35 68  1  0  0  0
 36 56  1  0  0  0
 36106  1  0  0  0
 37 39  1  0  0  0
 37 47  1  0  0  0
 37 66  1  0  0  0
 37107  1  0  0  0
 38 43  2  0  0  0
 38 46  1  0  0  0
 38 47  1  0  0  0
 39 64  1  0  0  0
 39 67  2  0  0  0
 40 52  1  0  0  0
 40 53  2  0  0  0
 40 58  1  0  0  0
 41108  1  0  0  0
 41109  1  0  0  0
 41110  1  0  0  0
 41 48  1  0  0  0
 42 43  1  0  0  0
 42 66  1  0  0  0
 42111  1  0  0  0
 42112  1  0  0  0
 43 44  1  0  0  0
 44113  1  0  0  0
 45 46  2  0  0  0
 45114  1  0  0  0
 46115  1  0  0  0
 47116  1  0  0  0
 47117  1  0  0  0
 48 56  1  0  0  0
 48 65  1  0  0  0
 48118  1  0  0  0
 49 50  1  0  0  0
 49 53  1  0  0  0
 49 64  1  0  0  0
 49119  1  0  0  0
 50 51  1  0  0  0
 50120  1  0  0  0
 50121  1  0  0  0
 51 52  1  0  0  0
 51122  1  0  0  0
 51123  1  0  0  0
 52124  1  0  0  0
 52125  1  0  0  0
 53 54  1  0  0  0
 54 55  2  0  0  0
 54126  1  0  0  0
 55 57  1  0  0  0
 55127  1  0  0  0
 56 69  2  0  0  0
 57 58  2  0  0  0
 57128  1  0  0  0
 58129  1  0  0  0
 59 60  1  0  0  0
 59 61  1  0  0  0
 59 62  1  0  0  0
 60130  1  0  0  0
 60131  1  0  0  0
 60132  1  0  0  0
 61133  1  0  0  0
 61134  1  0  0  0
 61135  1  0  0  0
 62136  1  0  0  0
 62137  1  0  0  0
 62138  1  0  0  0
 63 65  1  0  0  0
 63139  1  0  0  0
 63140  1  0  0  0
 63141  1  0  0  0
 64142  1  0  0  0
 65143  1  0  0  0
 68 81  1  0  0  0
 71 73  2  0  0  0
 71 75  1  0  0  0
 71144  1  0  0  0
 72 75  2  0  0  0
 72 76  1  0  0  0
 72145  1  0  0  0
 73 74  1  0  0  0
 73 78  1  0  0  0
 74 76  2  0  0  0
 74 80  1  0  0  0
 75 82  1  0  0  0
 76 83  1  0  0  0
 77 81  1  0  0  0
 77 82  1  0  0  0
 77 84  2  0  0  0
 78146  1  0  0  0
 78147  1  0  0  0
 78148  1  0  0  0
 79 80  1  0  0  0
 79149  1  0  0  0
 79150  1  0  0  0
 79151  1  0  0  0
 80152  1  0  0  0
 80153  1  0  0  0
 81154  1  0  0  0
 81155  1  0  0  0
 82156  1  0  0  0
 83157  1  0  0  0
M  ISO  4   1 100  68 101  81 101  83 100
M  END
> <chiral flag>
0

> <version>
0

> <s_m_source_file>
/data/baiqing/PycharmProjects/Reinvent-master-3.2/result/LINK_invent/BTK/process_docking_weight1_custom_product_contain_oxygen_bond_distance_aromatic_linkinvent_7_9_3/rearranged_h_0060.sdf

> <i_m_source_file_index>
37

> <r_mmod_Potential_Energy-OPLS-2005>
715.553588867188

> <r_mmod_Stretch_Energy-OPLS-2005>
359.377502441406

> <r_mmod_Bend_Energy-OPLS-2005>
286.014038085938

> <r_mmod_Torsional_Energy-OPLS-2005>
257.302947998047

> <r_mmod_Improper_Torsional_Energy-OPLS-2005>
4.84050798416138

> <r_mmod_Van_der_Waal_Energy-OPLS-2005>
146.530334472656

> <r_mmod_Electrostatic_Energy-OPLS-2005>
-363.284332275391

> <r_mmod_Solvation_Energy-OPLS-2005>
-243.101684570312

> <b_mmod_Minimization_Converged-OPLS-2005>
0

> <r_mmod_RMS_Derivative-OPLS-2005>
0.417818874120712

$$$$
37
                    3D
 Structure written by MMmdl.
161169  0  0  1  0            999 V2000
  -30.6586  -14.5591   20.5893 C   0  0  0  0  0  0
  -30.4488  -12.3673   19.4305 C   0  0  0  0  0  0
  -29.5099  -12.5253   18.2135 C   0  0  0  0  0  0
  -28.0306  -12.3710   18.6246 C   0  0  0  0  0  0
  -27.6665  -13.2131   19.8761 C   0  0  2  0  0  0
  -28.7106  -12.9938   20.9951 C   0  0  0  0  0  0
  -25.2538  -13.8131   20.5569 C   0  0  0  0  0  0
  -24.1817  -13.0417   20.9136 C   0  0  0  0  0  0
  -24.6399  -11.6895   20.8716 C   0  0  0  0  0  0
  -23.9056  -10.4285   21.0394 C   0  0  0  0  0  0
  -24.3585   -9.4201   21.9183 C   0  0  0  0  0  0
  -23.6256   -8.2241   22.0772 C   0  0  0  0  0  0
  -22.4240   -8.0277   21.3558 C   0  0  0  0  0  0
  -21.9873   -9.0250   20.4662 C   0  0  0  0  0  0
  -22.7217  -10.2123   20.3063 C   0  0  0  0  0  0
  -21.6854   -6.0702   22.5264 C   0  0  0  0  0  0
  -21.4013   -6.5608   23.8195 C   0  0  0  0  0  0
  -21.3664   -5.6770   24.9163 C   0  0  0  0  0  0
  -21.6054   -4.3031   24.7221 C   0  0  0  0  0  0
  -21.8816   -3.8115   23.4345 C   0  0  0  0  0  0
  -21.9189   -4.6929   22.3397 C   0  0  0  0  0  0
  -22.7841  -13.5239   21.1812 C   0  0  0  0  0  0
  -22.1652   -4.2106   21.0980 F   0  0  0  0  0  0
  -21.5654   -3.4534   25.7741 F   0  0  0  0  0  0
  -30.0417  -13.3446   20.4601 N   0  0  0  0  0  0
  -26.3040  -12.9345   20.3348 N   0  0  0  0  0  0
  -25.9343  -11.6502   20.5755 N   0  0  0  0  0  0
  -22.0466  -12.8272   22.0396 N   0  0  0  0  0  0
  -25.4115  -15.1822   20.3798 N   0  0  0  0  0  0
  -31.7248  -14.8210   20.0232 O   0  0  0  0  0  0
  -21.6640   -6.8846   21.4226 O   0  0  0  0  0  0
  -22.3528  -14.5547   20.6668 O   0  0  0  0  0  0
  -24.6237  -31.8619   23.2081 C   0  0  0  0  0  0
  -25.9119  -32.4773   23.8365 C   0  0  1  0  0  0
  -27.2191  -27.3529   20.0925 C   0  0  0  0  0  0
  -25.5955  -33.8579   24.2299 N   0  0  0  0  0  0
  -23.4133  -30.4899   21.5487 C   0  0  2  0  0  0
  -24.8568  -28.9532   20.1079 C   0  0  0  0  0  0
  -22.7453  -29.4638   22.4935 C   0  0  0  0  0  0
  -18.0284  -28.1397   22.8471 C   0  0  0  0  0  0
  -24.1495  -36.7297   23.2631 C   0  0  0  0  0  0
  -25.9521  -30.7996   21.3770 C   0  0  0  0  0  0
  -26.0218  -29.4301   20.7191 C   0  0  0  0  0  0
  -27.2031  -28.6357   20.7133 C   0  0  0  0  0  0
  -26.0325  -26.9304   19.4456 C   0  0  0  0  0  0
  -24.8614  -27.7064   19.4664 C   0  0  0  0  0  0
  -23.6263  -29.8327   20.1599 C   0  0  0  0  0  0
  -25.4114  -36.3075   24.0323 C   0  0  1  0  0  0
  -20.5878  -28.3694   23.1292 C   0  0  2  0  0  0
  -20.6780  -26.9424   22.5406 C   0  0  0  0  0  0
  -19.5763  -26.6396   21.5204 C   0  0  0  0  0  0
  -18.1939  -26.7943   22.1607 C   0  0  0  0  0  0
  -19.1531  -28.8860   23.2882 C   0  0  0  0  0  0
  -18.9458  -30.1462   23.8901 C   0  0  0  0  0  0
  -17.6462  -30.6596   24.0571 C   0  0  0  0  0  0
  -25.9055  -34.9445   23.5105 C   0  0  0  0  0  0
  -16.5355  -29.9101   23.6325 C   0  0  0  0  0  0
  -16.7272  -28.6521   23.0338 C   0  0  0  0  0  0
  -26.4527  -31.6571   25.0716 C   0  0  0  0  0  0
  -25.3785  -31.3695   26.1459 C   0  0  0  0  0  0
  -27.0358  -30.2994   24.6147 C   0  0  0  0  0  0
  -27.6091  -32.4286   25.7496 C   0  0  0  0  0  0
  -27.5581  -37.1797   24.8459 C   0  0  0  0  0  0
  -21.4167  -29.3055   22.3691 N   0  0  0  0  0  0
  -26.4278  -37.3772   23.9419 N   0  0  0  0  0  0
  -24.6814  -31.0661   22.1020 N   0  0  0  0  0  0
  -23.4198  -28.8156   23.2987 O   0  0  0  0  0  0
  -28.3541  -26.5371   20.1385 O   0  0  0  0  0  0
  -26.5602  -34.8912   22.4663 O   0  0  0  0  0  0
  -23.5409  -32.1414   23.7427 O   0  0  0  0  0  0
  -30.0385  -17.8979   20.5617 C   0  0  0  0  0  0
  -27.3660  -17.9774   21.4130 C   0  0  0  0  0  0
  -29.2863  -19.1211   20.4110 C   0  0  0  0  0  0
  -27.9096  -19.1046   20.7694 C   0  0  0  0  0  0
  -29.4530  -16.7270   21.1493 C   0  0  0  0  0  0
  -28.1358  -16.8258   21.6323 C   0  0  0  0  0  0
  -29.7132  -21.8041   20.5522 C   0  0  0  0  0  0
  -29.2023  -24.1536   20.4702 C   0  0  0  0  0  0
  -26.9679  -20.2631   20.4684 C   0  0  0  0  0  0
  -31.5255  -22.0707   22.3380 C   0  0  0  0  0  0
  -29.9306  -20.4230   19.8307 C   0  0  0  0  0  0
  -30.0551  -21.7355   22.0461 C   0  0  0  0  0  0
  -28.2251  -25.1267   19.7407 C   0  0  0  0  0  0
  -29.2827  -22.8548   19.9079 N   0  0  0  0  0  0
  -30.0577  -15.4417   21.4218 N   0  0  0  0  0  0
  -29.7967  -24.5798   21.4607 O   0  0  0  0  0  0
  -27.5976  -15.7845   22.3099 F   0  0  0  0  0  0
  -31.4895  -12.4968   19.1253 H   0  0  0  0  0  0
  -30.3819  -11.3556   19.8321 H   0  0  0  0  0  0
  -29.7609  -11.7893   17.4470 H   0  0  0  0  0  0
  -29.6617  -13.5018   17.7521 H   0  0  0  0  0  0
  -27.8525  -11.3159   18.8296 H   0  0  0  0  0  0
  -27.3806  -12.6348   17.7896 H   0  0  0  0  0  0
  -27.7048  -14.2611   19.5794 H   0  0  0  0  0  0
  -28.7064  -11.9491   21.3074 H   0  0  0  0  0  0
  -28.4477  -13.5532   21.8922 H   0  0  0  0  0  0
  -25.2731   -9.5678   22.4749 H   0  0  0  0  0  0
  -23.9972   -7.4638   22.7494 H   0  0  0  0  0  0
  -21.0812   -8.8754   19.8964 H   0  0  0  0  0  0
  -22.3673  -10.9646   19.6165 H   0  0  0  0  0  0
  -21.1979   -7.6107   23.9682 H   0  0  0  0  0  0
  -21.1512   -6.0501   25.9065 H   0  0  0  0  0  0
  -22.0588   -2.7571   23.2860 H   0  0  0  0  0  0
  -22.4066  -11.9934   22.4791 H   0  0  0  0  0  0
  -21.1096  -13.1331   22.2586 H   0  0  0  0  0  0
  -24.6543  -15.8363   20.5339 H   0  0  0  0  0  0
  -26.2738  -15.6267   20.0966 H   0  0  0  0  0  0
  -26.7176  -32.5446   23.1096 H   0  0  0  0  0  0
  -25.0129  -33.9733   25.0457 H   0  0  0  0  0  0
  -22.7046  -31.3096   21.4113 H   0  0  0  0  0  0
  -23.3740  -35.9641   23.3280 H   0  0  0  0  0  0
  -24.3585  -36.8936   22.2048 H   0  0  0  0  0  0
  -23.7272  -37.6504   23.6664 H   0  0  0  0  0  0
  -26.0803  -31.5622   20.6074 H   0  0  0  0  0  0
  -26.8353  -30.8474   22.0024 H   0  0  0  0  0  0
  -28.0950  -28.9921   21.2082 H   0  0  0  0  0  0
  -25.9714  -25.9960   18.9080 H   0  0  0  0  0  0
  -23.9698  -27.3458   18.9727 H   0  0  0  0  0  0
  -23.7518  -30.6148   19.4103 H   0  0  0  0  0  0
  -22.7448  -29.2688   19.8497 H   0  0  0  0  0  0
  -25.1285  -36.1905   25.0804 H   0  0  0  0  0  0
  -20.9958  -28.3275   24.1419 H   0  0  0  0  0  0
  -20.5695  -26.2299   23.3596 H   0  0  0  0  0  0
  -21.6657  -26.7479   22.1206 H   0  0  0  0  0  0
  -19.6941  -25.6307   21.1245 H   0  0  0  0  0  0
  -19.6718  -27.3190   20.6727 H   0  0  0  0  0  0
  -17.4211  -26.6671   21.4015 H   0  0  0  0  0  0
  -18.0357  -26.0094   22.9010 H   0  0  0  0  0  0
  -19.7937  -30.7275   24.2274 H   0  0  0  0  0  0
  -17.5024  -31.6273   24.5184 H   0  0  0  0  0  0
  -15.5363  -30.3012   23.7662 H   0  0  0  0  0  0
  -15.8663  -28.0859   22.7045 H   0  0  0  0  0  0
  -24.5956  -30.7041   25.7811 H   0  0  0  0  0  0
  -24.8982  -32.2853   26.4901 H   0  0  0  0  0  0
  -25.8133  -30.8871   27.0221 H   0  0  0  0  0  0
  -26.2915  -29.6733   24.1213 H   0  0  0  0  0  0
  -27.4123  -29.7252   25.4623 H   0  0  0  0  0  0
  -27.8758  -30.4279   23.9317 H   0  0  0  0  0  0
  -27.2708  -33.3573   26.2099 H   0  0  0  0  0  0
  -28.3903  -32.6862   25.0334 H   0  0  0  0  0  0
  -28.0760  -31.8392   26.5398 H   0  0  0  0  0  0
  -28.2570  -38.0119   24.7516 H   0  0  0  0  0  0
  -28.1102  -36.2651   24.6246 H   0  0  0  0  0  0
  -27.2307  -37.1408   25.8861 H   0  0  0  0  0  0
  -20.9331  -29.8792   21.6919 H   0  0  0  0  0  0
  -26.0151  -38.2830   24.1446 H   0  0  0  0  0  0
  -31.0713  -17.8637   20.2444 H   0  0  0  0  0  0
  -26.3364  -17.9832   21.7419 H   0  0  0  0  0  0
  -25.9310  -19.9268   20.4571 H   0  0  0  0  0  0
  -27.1663  -20.6946   19.4863 H   0  0  0  0  0  0
  -27.0515  -21.0468   21.2211 H   0  0  0  0  0  0
  -31.7055  -22.1017   23.4125 H   0  0  0  0  0  0
  -31.8167  -23.0381   21.9298 H   0  0  0  0  0  0
  -32.1912  -21.3195   21.9124 H   0  0  0  0  0  0
  -29.6004  -20.5177   18.7952 H   0  0  0  0  0  0
  -31.0075  -20.2622   19.7715 H   0  0  0  0  0  0
  -29.8454  -20.7356   22.4225 H   0  0  0  0  0  0
  -29.3838  -22.3764   22.6181 H   0  0  0  0  0  0
  -27.2420  -24.7256   19.9854 H   0  0  0  0  0  0
  -28.3545  -25.0426   18.6612 H   0  0  0  0  0  0
  -29.4465  -14.9260   22.0400 H   0  0  0  0  0  0
  1 25  1  0  0  0
  1 30  2  0  0  0
  1 85  1  0  0  0
  2  3  1  0  0  0
  2 25  1  0  0  0
  2 88  1  0  0  0
  2 89  1  0  0  0
  3  4  1  0  0  0
  3 90  1  0  0  0
  3 91  1  0  0  0
  4  5  1  0  0  0
  4 92  1  0  0  0
  4 93  1  0  0  0
  5  6  1  0  0  0
  5 26  1  0  0  0
  5 94  1  0  0  0
  6 25  1  0  0  0
  6 95  1  0  0  0
  6 96  1  0  0  0
  7  8  2  0  0  0
  7 26  1  0  0  0
  7 29  1  0  0  0
  8  9  1  0  0  0
  8 22  1  0  0  0
  9 10  1  0  0  0
  9 27  2  0  0  0
 10 11  2  0  0  0
 10 15  1  0  0  0
 11 12  1  0  0  0
 11 97  1  0  0  0
 12 13  2  0  0  0
 12 98  1  0  0  0
 13 14  1  0  0  0
 13 31  1  0  0  0
 14 15  2  0  0  0
 14 99  1  0  0  0
 15100  1  0  0  0
 16 17  2  0  0  0
 16 21  1  0  0  0
 16 31  1  0  0  0
 17 18  1  0  0  0
 17101  1  0  0  0
 18 19  2  0  0  0
 18102  1  0  0  0
 19 20  1  0  0  0
 19 24  1  0  0  0
 20 21  2  0  0  0
 20103  1  0  0  0
 21 23  1  0  0  0
 22 28  1  0  0  0
 22 32  2  0  0  0
 26 27  1  0  0  0
 28104  1  0  0  0
 28105  1  0  0  0
 29106  1  0  0  0
 29107  1  0  0  0
 33 34  1  0  0  0
 33 66  1  0  0  0
 33 70  2  0  0  0
 34 36  1  0  0  0
 34 59  1  0  0  0
 34108  1  0  0  0
 35 44  2  0  0  0
 35 45  1  0  0  0
 35 68  1  0  0  0
 36 56  1  0  0  0
 36109  1  0  0  0
 37 39  1  0  0  0
 37 47  1  0  0  0
 37 66  1  0  0  0
 37110  1  0  0  0
 38 43  2  0  0  0
 38 46  1  0  0  0
 38 47  1  0  0  0
 39 64  1  0  0  0
 39 67  2  0  0  0
 40 52  1  0  0  0
 40 53  2  0  0  0
 40 58  1  0  0  0
 41111  1  0  0  0
 41112  1  0  0  0
 41113  1  0  0  0
 41 48  1  0  0  0
 42 43  1  0  0  0
 42 66  1  0  0  0
 42114  1  0  0  0
 42115  1  0  0  0
 43 44  1  0  0  0
 44116  1  0  0  0
 45 46  2  0  0  0
 45117  1  0  0  0
 46118  1  0  0  0
 47119  1  0  0  0
 47120  1  0  0  0
 48 56  1  0  0  0
 48 65  1  0  0  0
 48121  1  0  0  0
 49 50  1  0  0  0
 49 53  1  0  0  0
 49 64  1  0  0  0
 49122  1  0  0  0
 50 51  1  0  0  0
 50123  1  0  0  0
 50124  1  0  0  0
 51 52  1  0  0  0
 51125  1  0  0  0
 51126  1  0  0  0
 52127  1  0  0  0
 52128  1  0  0  0
 53 54  1  0  0  0
 54 55  2  0  0  0
 54129  1  0  0  0
 55 57  1  0  0  0
 55130  1  0  0  0
 56 69  2  0  0  0
 57 58  2  0  0  0
 57131  1  0  0  0
 58132  1  0  0  0
 59 60  1  0  0  0
 59 61  1  0  0  0
 59 62  1  0  0  0
 60133  1  0  0  0
 60134  1  0  0  0
 60135  1  0  0  0
 61136  1  0  0  0
 61137  1  0  0  0
 61138  1  0  0  0
 62139  1  0  0  0
 62140  1  0  0  0
 62141  1  0  0  0
 63 65  1  0  0  0
 63142  1  0  0  0
 63143  1  0  0  0
 63144  1  0  0  0
 64145  1  0  0  0
 65146  1  0  0  0
 68 83  1  0  0  0
 71 73  2  0  0  0
 71 75  1  0  0  0
 71147  1  0  0  0
 72 74  2  0  0  0
 72 76  1  0  0  0
 72148  1  0  0  0
 73 74  1  0  0  0
 73 81  1  0  0  0
 74 79  1  0  0  0
 75 76  2  0  0  0
 75 85  1  0  0  0
 76 87  1  0  0  0
 77 81  1  0  0  0
 77 82  1  0  0  0
 77 84  2  0  0  0
 78 83  1  0  0  0
 78 84  1  0  0  0
 78 86  2  0  0  0
 79149  1  0  0  0
 79150  1  0  0  0
 79151  1  0  0  0
 80 82  1  0  0  0
 80152  1  0  0  0
 80153  1  0  0  0
 80154  1  0  0  0
 81155  1  0  0  0
 81156  1  0  0  0
 82157  1  0  0  0
 82158  1  0  0  0
 83159  1  0  0  0
 83160  1  0  0  0
 85161  1  0  0  0
M  ISO  4   1 100  68 101  83 101  85 100
M  END
> <chiral flag>
0

> <version>
0

> <s_m_source_file>
/data/baiqing/PycharmProjects/Reinvent-master-3.2/result/LINK_invent/BTK/process_docking_weight1_custom_product_contain_oxygen_bond_distance_aromatic_linkinvent_7_9_3/rearranged_h_0060.sdf

> <i_m_source_file_index>
38

> <r_mmod_Potential_Energy-OPLS-2005>
63.9475250244141

> <r_mmod_Stretch_Energy-OPLS-2005>
71.4678802490234

> <r_mmod_Bend_Energy-OPLS-2005>
153.494171142578

> <r_mmod_Torsional_Energy-OPLS-2005>
238.964401245117

> <r_mmod_Improper_Torsional_Energy-OPLS-2005>
6.60913181304932

> <r_mmod_Van_der_Waal_Energy-OPLS-2005>
156.034393310547

> <r_mmod_Electrostatic_Energy-OPLS-2005>
-395.524291992188

> <r_mmod_Solvation_Energy-OPLS-2005>
-198.49479675293

> <b_mmod_Minimization_Converged-OPLS-2005>
0

> <r_mmod_RMS_Derivative-OPLS-2005>
2.58993458747864

$$$$
38
                    3D
 Structure written by MMmdl.
157165  0  0  1  0            999 V2000
  -30.5763  -14.7745   20.3870 C   0  0  0  0  0  0
  -30.4230  -12.4412   19.4372 C   0  0  0  0  0  0
  -29.4738  -12.4548   18.2155 C   0  0  0  0  0  0
  -28.0151  -12.2815   18.6695 C   0  0  0  0  0  0
  -27.6356  -13.2269   19.8398 C   0  0  2  0  0  0
  -28.6973  -13.2019   20.9630 C   0  0  0  0  0  0
  -25.2535  -13.8299   20.5730 C   0  0  0  0  0  0
  -24.1804  -13.0515   20.9257 C   0  0  0  0  0  0
  -24.6405  -11.7004   20.8853 C   0  0  0  0  0  0
  -23.9095  -10.4369   21.0535 C   0  0  0  0  0  0
  -24.3656   -9.4254   21.9253 C   0  0  0  0  0  0
  -23.6339   -8.2290   22.0763 C   0  0  0  0  0  0
  -22.4339   -8.0362   21.3539 C   0  0  0  0  0  0
  -21.9987   -9.0330   20.4640 C   0  0  0  0  0  0
  -22.7310  -10.2235   20.3113 C   0  0  0  0  0  0
  -21.6865   -6.0826   22.5258 C   0  0  0  0  0  0
  -21.4003   -6.5712   23.8195 C   0  0  0  0  0  0
  -21.3647   -5.6874   24.9150 C   0  0  0  0  0  0
  -21.6011   -4.3122   24.7213 C   0  0  0  0  0  0
  -21.8781   -3.8234   23.4322 C   0  0  0  0  0  0
  -21.9197   -4.7046   22.3401 C   0  0  0  0  0  0
  -22.7835  -13.5305   21.1859 C   0  0  0  0  0  0
  -22.1664   -4.2231   21.0974 F   0  0  0  0  0  0
  -21.5609   -3.4600   25.7715 F   0  0  0  0  0  0
  -29.9913  -13.5262   20.3540 N   0  0  0  0  0  0
  -26.2941  -12.9445   20.3402 N   0  0  0  0  0  0
  -25.9327  -11.6596   20.5929 N   0  0  0  0  0  0
  -22.0481  -12.8295   22.0433 N   0  0  0  0  0  0
  -25.4225  -15.2005   20.4029 N   0  0  0  0  0  0
  -31.7807  -14.9020   20.1399 O   0  0  0  0  0  0
  -21.6648   -6.8985   21.4254 O   0  0  0  0  0  0
  -22.3575  -14.5597   20.6689 O   0  0  0  0  0  0
  -24.6222  -31.8545   23.1979 C   0  0  0  0  0  0
  -25.9056  -32.4733   23.8296 C   0  0  1  0  0  0
  -27.2744  -27.3003   20.1311 C   0  0  0  0  0  0
  -25.5865  -33.8509   24.2234 N   0  0  0  0  0  0
  -23.4329  -30.4687   21.5319 C   0  0  2  0  0  0
  -24.9031  -28.9232   20.1134 C   0  0  0  0  0  0
  -22.7531  -29.4541   22.4847 C   0  0  0  0  0  0
  -18.0340  -28.1386   22.8473 C   0  0  0  0  0  0
  -24.1538  -36.7310   23.2627 C   0  0  0  0  0  0
  -25.9736  -30.7767   21.3944 C   0  0  0  0  0  0
  -26.0646  -29.4043   20.7288 C   0  0  0  0  0  0
  -27.2499  -28.6052   20.7322 C   0  0  0  0  0  0
  -26.1014  -26.9033   19.4511 C   0  0  0  0  0  0
  -24.9259  -27.6794   19.4612 C   0  0  0  0  0  0
  -23.6653  -29.7929   20.1542 C   0  0  0  0  0  0
  -25.4155  -36.3023   24.0307 C   0  0  1  0  0  0
  -20.5928  -28.3664   23.1271 C   0  0  2  0  0  0
  -20.6821  -26.9369   22.5422 C   0  0  0  0  0  0
  -19.5802  -26.6402   21.5232 C   0  0  0  0  0  0
  -18.1975  -26.7949   22.1594 C   0  0  0  0  0  0
  -19.1592  -28.8851   23.2873 C   0  0  0  0  0  0
  -18.9496  -30.1482   23.8857 C   0  0  0  0  0  0
  -17.6495  -30.6595   24.0526 C   0  0  0  0  0  0
  -25.9080  -34.9418   23.5106 C   0  0  0  0  0  0
  -16.5410  -29.9035   23.6360 C   0  0  0  0  0  0
  -16.7350  -28.6496   23.0325 C   0  0  0  0  0  0
  -26.4493  -31.6454   25.0617 C   0  0  0  0  0  0
  -25.3710  -31.3502   26.1297 C   0  0  0  0  0  0
  -27.0374  -30.2856   24.6174 C   0  0  0  0  0  0
  -27.6161  -32.4104   25.7303 C   0  0  0  0  0  0
  -27.5617  -37.1843   24.8452 C   0  0  0  0  0  0
  -21.4222  -29.3002   22.3612 N   0  0  0  0  0  0
  -26.4315  -37.3757   23.9406 N   0  0  0  0  0  0
  -24.6896  -31.0522   22.0937 N   0  0  0  0  0  0
  -23.4257  -28.8073   23.2914 O   0  0  0  0  0  0
  -28.3851  -26.4271   20.2325 O   0  0  0  0  0  0
  -26.5685  -34.8893   22.4677 O   0  0  0  0  0  0
  -23.5385  -32.1310   23.7293 O   0  0  0  0  0  0
  -29.1447  -18.5463   22.8855 C   0  0  0  0  0  0
  -29.2279  -19.7672   22.1888 C   0  0  0  0  0  0
  -29.3476  -17.3190   22.2373 C   0  0  0  0  0  0
  -29.5246  -19.8441   20.8092 C   0  0  0  0  0  0
  -29.7776  -18.5343   20.1461 C   0  0  0  0  0  0
  -29.6992  -17.2513   20.8766 C   0  0  0  0  0  0
  -29.6987  -21.3068   20.2371 C   0  0  0  0  0  0
  -30.0948  -18.4711   18.6510 C   0  0  0  0  0  0
  -28.6684  -24.9222   18.3762 C   0  0  0  0  0  0
  -29.1985  -23.8926   20.7038 C   0  0  0  0  0  0
  -28.3058  -24.9661   19.8750 C   0  0  1  0  0  0
  -29.6973  -15.8560   20.3378 N   0  0  0  0  0  0
  -28.9055  -22.3755   20.6504 N   0  0  0  0  0  0
  -30.6359  -21.5176   19.4619 O   0  0  0  0  0  0
  -31.4586  -12.5423   19.1135 H   0  0  0  0  0  0
  -30.3573  -11.4762   19.9457 H   0  0  0  0  0  0
  -29.7355  -11.6639   17.5044 H   0  0  0  0  0  0
  -29.5760  -13.3952   17.6788 H   0  0  0  0  0  0
  -27.8996  -11.2469   18.9899 H   0  0  0  0  0  0
  -27.3188  -12.4140   17.8378 H   0  0  0  0  0  0
  -27.6143  -14.2303   19.4138 H   0  0  0  0  0  0
  -28.7346  -12.2223   21.4473 H   0  0  0  0  0  0
  -28.4559  -13.9439   21.7324 H   0  0  0  0  0  0
  -25.2789   -9.5748   22.4850 H   0  0  0  0  0  0
  -23.9992   -7.4742   22.7519 H   0  0  0  0  0  0
  -21.0890   -8.8899   19.9014 H   0  0  0  0  0  0
  -22.3750  -10.9782   19.6251 H   0  0  0  0  0  0
  -21.1951   -7.6214   23.9703 H   0  0  0  0  0  0
  -21.1504   -6.0614   25.9055 H   0  0  0  0  0  0
  -22.0556   -2.7696   23.2798 H   0  0  0  0  0  0
  -22.4122  -11.9935   22.4735 H   0  0  0  0  0  0
  -21.1131  -13.1378   22.2658 H   0  0  0  0  0  0
  -24.6461  -15.8478   20.4740 H   0  0  0  0  0  0
  -26.2513  -15.6419   20.0244 H   0  0  0  0  0  0
  -26.7072  -32.5434   23.0996 H   0  0  0  0  0  0
  -24.9823  -33.9628   25.0248 H   0  0  0  0  0  0
  -22.7181  -31.2762   21.3668 H   0  0  0  0  0  0
  -23.3759  -35.9682   23.3260 H   0  0  0  0  0  0
  -24.3655  -36.8970   22.2048 H   0  0  0  0  0  0
  -23.7362  -37.6542   23.6676 H   0  0  0  0  0  0
  -26.1494  -31.5612   20.6544 H   0  0  0  0  0  0
  -26.8344  -30.8008   22.0532 H   0  0  0  0  0  0
  -28.1335  -28.9776   21.2363 H   0  0  0  0  0  0
  -26.0739  -25.9795   18.8959 H   0  0  0  0  0  0
  -24.0502  -27.3134   18.9484 H   0  0  0  0  0  0
  -23.7796  -30.5578   19.3837 H   0  0  0  0  0  0
  -22.8041  -29.1941   19.8600 H   0  0  0  0  0  0
  -25.1341  -36.1866   25.0810 H   0  0  0  0  0  0
  -21.0035  -28.3211   24.1401 H   0  0  0  0  0  0
  -20.5675  -26.2251   23.3621 H   0  0  0  0  0  0
  -21.6661  -26.7334   22.1237 H   0  0  0  0  0  0
  -19.6938  -25.6310   21.1238 H   0  0  0  0  0  0
  -19.6758  -27.3199   20.6745 H   0  0  0  0  0  0
  -17.4227  -26.6575   21.4023 H   0  0  0  0  0  0
  -18.0376  -26.0150   22.9050 H   0  0  0  0  0  0
  -19.7965  -30.7316   24.2115 H   0  0  0  0  0  0
  -17.5053  -31.6304   24.5000 H   0  0  0  0  0  0
  -15.5362  -30.2853   23.7778 H   0  0  0  0  0  0
  -15.8797  -28.0822   22.6945 H   0  0  0  0  0  0
  -24.5995  -30.6785   25.7499 H   0  0  0  0  0  0
  -24.8746  -32.2593   26.4703 H   0  0  0  0  0  0
  -25.8016  -30.8612   27.0049 H   0  0  0  0  0  0
  -26.3013  -29.6479   24.1282 H   0  0  0  0  0  0
  -27.4089  -29.7229   25.4743 H   0  0  0  0  0  0
  -27.8871  -30.4042   23.9454 H   0  0  0  0  0  0
  -27.2946  -33.3412   26.1983 H   0  0  0  0  0  0
  -28.3892  -32.6618   25.0008 H   0  0  0  0  0  0
  -28.0926  -31.8087   26.5046 H   0  0  0  0  0  0
  -28.2574  -38.0192   24.7476 H   0  0  0  0  0  0
  -28.1162  -36.2708   24.6267 H   0  0  0  0  0  0
  -27.2339  -37.1498   25.8858 H   0  0  0  0  0  0
  -20.9395  -29.8671   21.6808 H   0  0  0  0  0  0
  -26.0150  -38.2803   24.1470 H   0  0  0  0  0  0
  -28.9106  -18.5529   23.9406 H   0  0  0  0  0  0
  -29.0939  -20.6728   22.7590 H   0  0  0  0  0  0
  -29.2008  -16.4157   22.8061 H   0  0  0  0  0  0
  -30.5745  -19.3669   18.2589 H   0  0  0  0  0  0
  -30.7613  -17.6366   18.4229 H   0  0  0  0  0  0
  -29.1837  -18.3065   18.0752 H   0  0  0  0  0  0
  -27.9912  -25.4897   17.7357 H   0  0  0  0  0  0
  -28.6800  -23.9003   18.0024 H   0  0  0  0  0  0
  -29.6676  -25.3475   18.2163 H   0  0  0  0  0  0
  -29.0984  -24.1756   21.7582 H   0  0  0  0  0  0
  -30.2586  -24.0750   20.5018 H   0  0  0  0  0  0
  -27.2811  -24.6364   20.0424 H   0  0  0  0  0  0
  -28.7747  -15.4486   20.3426 H   0  0  0  0  0  0
  -28.0596  -22.1211   21.1514 H   0  0  0  0  0  0
  1 25  1  0  0  0
  1 30  2  0  0  0
  1 82  1  0  0  0
  2  3  1  0  0  0
  2 25  1  0  0  0
  2 85  1  0  0  0
  2 86  1  0  0  0
  3  4  1  0  0  0
  3 87  1  0  0  0
  3 88  1  0  0  0
  4  5  1  0  0  0
  4 89  1  0  0  0
  4 90  1  0  0  0
  5  6  1  0  0  0
  5 26  1  0  0  0
  5 91  1  0  0  0
  6 25  1  0  0  0
  6 92  1  0  0  0
  6 93  1  0  0  0
  7  8  2  0  0  0
  7 26  1  0  0  0
  7 29  1  0  0  0
  8  9  1  0  0  0
  8 22  1  0  0  0
  9 10  1  0  0  0
  9 27  2  0  0  0
 10 11  2  0  0  0
 10 15  1  0  0  0
 11 12  1  0  0  0
 11 94  1  0  0  0
 12 13  2  0  0  0
 12 95  1  0  0  0
 13 14  1  0  0  0
 13 31  1  0  0  0
 14 15  2  0  0  0
 14 96  1  0  0  0
 15 97  1  0  0  0
 16 17  2  0  0  0
 16 21  1  0  0  0
 16 31  1  0  0  0
 17 18  1  0  0  0
 17 98  1  0  0  0
 18 19  2  0  0  0
 18 99  1  0  0  0
 19 20  1  0  0  0
 19 24  1  0  0  0
 20 21  2  0  0  0
 20100  1  0  0  0
 21 23  1  0  0  0
 22 28  1  0  0  0
 22 32  2  0  0  0
 26 27  1  0  0  0
 28101  1  0  0  0
 28102  1  0  0  0
 29103  1  0  0  0
 29104  1  0  0  0
 33 34  1  0  0  0
 33 66  1  0  0  0
 33 70  2  0  0  0
 34 36  1  0  0  0
 34 59  1  0  0  0
 34105  1  0  0  0
 35 44  2  0  0  0
 35 45  1  0  0  0
 35 68  1  0  0  0
 36 56  1  0  0  0
 36106  1  0  0  0
 37 39  1  0  0  0
 37 47  1  0  0  0
 37 66  1  0  0  0
 37107  1  0  0  0
 38 43  2  0  0  0
 38 46  1  0  0  0
 38 47  1  0  0  0
 39 64  1  0  0  0
 39 67  2  0  0  0
 40 52  1  0  0  0
 40 53  2  0  0  0
 40 58  1  0  0  0
 41108  1  0  0  0
 41109  1  0  0  0
 41110  1  0  0  0
 41 48  1  0  0  0
 42 43  1  0  0  0
 42 66  1  0  0  0
 42111  1  0  0  0
 42112  1  0  0  0
 43 44  1  0  0  0
 44113  1  0  0  0
 45 46  2  0  0  0
 45114  1  0  0  0
 46115  1  0  0  0
 47116  1  0  0  0
 47117  1  0  0  0
 48 56  1  0  0  0
 48 65  1  0  0  0
 48118  1  0  0  0
 49 50  1  0  0  0
 49 53  1  0  0  0
 49 64  1  0  0  0
 49119  1  0  0  0
 50 51  1  0  0  0
 50120  1  0  0  0
 50121  1  0  0  0
 51 52  1  0  0  0
 51122  1  0  0  0
 51123  1  0  0  0
 52124  1  0  0  0
 52125  1  0  0  0
 53 54  1  0  0  0
 54 55  2  0  0  0
 54126  1  0  0  0
 55 57  1  0  0  0
 55127  1  0  0  0
 56 69  2  0  0  0
 57 58  2  0  0  0
 57128  1  0  0  0
 58129  1  0  0  0
 59 60  1  0  0  0
 59 61  1  0  0  0
 59 62  1  0  0  0
 60130  1  0  0  0
 60131  1  0  0  0
 60132  1  0  0  0
 61133  1  0  0  0
 61134  1  0  0  0
 61135  1  0  0  0
 62136  1  0  0  0
 62137  1  0  0  0
 62138  1  0  0  0
 63 65  1  0  0  0
 63139  1  0  0  0
 63140  1  0  0  0
 63141  1  0  0  0
 64142  1  0  0  0
 65143  1  0  0  0
 68 81  1  0  0  0
 71 72  2  0  0  0
 71 73  1  0  0  0
 71144  1  0  0  0
 72 74  1  0  0  0
 72145  1  0  0  0
 73 76  2  0  0  0
 73146  1  0  0  0
 74 75  2  0  0  0
 74 77  1  0  0  0
 75 76  1  0  0  0
 75 78  1  0  0  0
 76 82  1  0  0  0
 77 83  1  0  0  0
 77 84  2  0  0  0
 78147  1  0  0  0
 78148  1  0  0  0
 78149  1  0  0  0
 79150  1  0  0  0
 79151  1  0  0  0
 79152  1  0  0  0
 79 81  1  0  0  0
 80 81  1  0  0  0
 80 83  1  0  0  0
 80153  1  0  0  0
 80154  1  0  0  0
 81155  1  0  0  0
 82156  1  0  0  0
 83157  1  0  0  0
M  ISO  4   1 100  68 101  81 101  82 100
M  END
> <chiral flag>
0

> <version>
0

> <s_m_source_file>
/data/baiqing/PycharmProjects/Reinvent-master-3.2/result/LINK_invent/BTK/process_docking_weight1_custom_product_contain_oxygen_bond_distance_aromatic_linkinvent_7_9_3/rearranged_h_0060.sdf

> <i_m_source_file_index>
39

> <r_mmod_Potential_Energy-OPLS-2005>
162.842407226562

> <r_mmod_Stretch_Energy-OPLS-2005>
148.270202636719

> <r_mmod_Bend_Energy-OPLS-2005>
193.881393432617

> <r_mmod_Torsional_Energy-OPLS-2005>
273.801727294922

> <r_mmod_Improper_Torsional_Energy-OPLS-2005>
15.9147701263428

> <r_mmod_Van_der_Waal_Energy-OPLS-2005>
134.460311889648

> <r_mmod_Electrostatic_Energy-OPLS-2005>
-459.710540771484

> <r_mmod_Solvation_Energy-OPLS-2005>
-236.347747802734

> <b_mmod_Minimization_Converged-OPLS-2005>
0

> <r_mmod_RMS_Derivative-OPLS-2005>
11.3432807922363

$$$$
39
                    3D
 Structure written by MMmdl.
157165  0  0  1  0            999 V2000
  -30.7096  -14.4749   20.6069 C   0  0  0  0  0  0
  -30.4248  -12.3257   19.4187 C   0  0  0  0  0  0
  -29.4915  -12.5090   18.2043 C   0  0  0  0  0  0
  -28.0167  -12.3567   18.6222 C   0  0  0  0  0  0
  -27.6597  -13.2046   19.8720 C   0  0  2  0  0  0
  -28.7006  -12.9960   20.9945 C   0  0  0  0  0  0
  -25.2584  -13.8151   20.5663 C   0  0  0  0  0  0
  -24.1843  -13.0434   20.9180 C   0  0  0  0  0  0
  -24.6396  -11.6897   20.8735 C   0  0  0  0  0  0
  -23.9062  -10.4291   21.0413 C   0  0  0  0  0  0
  -24.3618   -9.4204   21.9182 C   0  0  0  0  0  0
  -23.6295   -8.2238   22.0755 C   0  0  0  0  0  0
  -22.4275   -8.0279   21.3544 C   0  0  0  0  0  0
  -21.9907   -9.0256   20.4647 C   0  0  0  0  0  0
  -22.7240  -10.2135   20.3059 C   0  0  0  0  0  0
  -21.6848   -6.0738   22.5279 C   0  0  0  0  0  0
  -21.4011   -6.5639   23.8216 C   0  0  0  0  0  0
  -21.3654   -5.6791   24.9175 C   0  0  0  0  0  0
  -21.6046   -4.3059   24.7224 C   0  0  0  0  0  0
  -21.8819   -3.8148   23.4349 C   0  0  0  0  0  0
  -21.9194   -4.6963   22.3403 C   0  0  0  0  0  0
  -22.7873  -13.5237   21.1853 C   0  0  0  0  0  0
  -22.1661   -4.2156   21.0974 F   0  0  0  0  0  0
  -21.5631   -3.4544   25.7740 F   0  0  0  0  0  0
  -30.0284  -13.3077   20.4408 N   0  0  0  0  0  0
  -26.3015  -12.9313   20.3345 N   0  0  0  0  0  0
  -25.9317  -11.6477   20.5761 N   0  0  0  0  0  0
  -22.0515  -12.8224   22.0406 N   0  0  0  0  0  0
  -25.4316  -15.1866   20.4043 N   0  0  0  0  0  0
  -31.8346  -14.6582   20.1310 O   0  0  0  0  0  0
  -21.6637   -6.8882   21.4240 O   0  0  0  0  0  0
  -22.3558  -14.5550   20.6718 O   0  0  0  0  0  0
  -24.6186  -31.8686   23.2126 C   0  0  0  0  0  0
  -25.9081  -32.4818   23.8403 C   0  0  1  0  0  0
  -27.2167  -27.4071   20.0782 C   0  0  0  0  0  0
  -25.5934  -33.8619   24.2317 N   0  0  0  0  0  0
  -23.4055  -30.4970   21.5556 C   0  0  2  0  0  0
  -24.8461  -28.9720   20.1101 C   0  0  0  0  0  0
  -22.7421  -29.4671   22.4997 C   0  0  0  0  0  0
  -18.0276  -28.1389   22.8486 C   0  0  0  0  0  0
  -24.1484  -36.7293   23.2618 C   0  0  0  0  0  0
  -25.9430  -30.8213   21.3779 C   0  0  0  0  0  0
  -26.0143  -29.4612   20.7092 C   0  0  0  0  0  0
  -27.2025  -28.6872   20.6893 C   0  0  0  0  0  0
  -26.0250  -26.9559   19.4585 C   0  0  0  0  0  0
  -24.8487  -27.7191   19.4831 C   0  0  0  0  0  0
  -23.6128  -29.8429   20.1668 C   0  0  0  0  0  0
  -25.4109  -36.3105   24.0332 C   0  0  1  0  0  0
  -20.5870  -28.3684   23.1315 C   0  0  2  0  0  0
  -20.6776  -26.9416   22.5428 C   0  0  0  0  0  0
  -19.5763  -26.6388   21.5216 C   0  0  0  0  0  0
  -18.1923  -26.7941   22.1593 C   0  0  0  0  0  0
  -19.1528  -28.8851   23.2890 C   0  0  0  0  0  0
  -18.9452  -30.1449   23.8916 C   0  0  0  0  0  0
  -17.6460  -30.6593   24.0571 C   0  0  0  0  0  0
  -25.9063  -34.9475   23.5123 C   0  0  0  0  0  0
  -16.5349  -29.9101   23.6331 C   0  0  0  0  0  0
  -16.7265  -28.6513   23.0356 C   0  0  0  0  0  0
  -26.4484  -31.6614   25.0750 C   0  0  0  0  0  0
  -25.3721  -31.3772   26.1488 C   0  0  0  0  0  0
  -27.0285  -30.3018   24.6194 C   0  0  0  0  0  0
  -27.6068  -32.4331   25.7496 C   0  0  0  0  0  0
  -27.5617  -37.1747   24.8423 C   0  0  0  0  0  0
  -21.4153  -29.3043   22.3712 N   0  0  0  0  0  0
  -26.4273  -37.3816   23.9458 N   0  0  0  0  0  0
  -24.6736  -31.0760   22.1053 N   0  0  0  0  0  0
  -23.4171  -28.8202   23.3043 O   0  0  0  0  0  0
  -28.3601  -26.6174   20.1102 O   0  0  0  0  0  0
  -26.5621  -34.8930   22.4685 O   0  0  0  0  0  0
  -23.5374  -32.1457   23.7497 O   0  0  0  0  0  0
  -31.4837  -19.3891   22.0546 C   0  0  0  0  0  0
  -31.7056  -16.9684   22.1734 C   0  0  0  0  0  0
  -29.7370  -17.9661   21.1103 C   0  0  0  0  0  0
  -30.2613  -19.2783   21.3464 C   0  0  0  0  0  0
  -30.4892  -16.8045   21.4747 C   0  0  0  0  0  0
  -32.1893  -18.2500   22.4750 C   0  0  0  0  0  0
  -29.9150  -21.7468   20.8102 C   0  0  0  0  0  0
  -28.3673  -17.8103   20.4580 C   0  0  0  0  0  0
  -28.8886  -22.7537   20.2479 C   0  0  0  0  0  0
  -29.2878  -24.2623   20.3534 C   0  0  0  0  0  0
  -28.1629  -25.2041   19.8640 C   0  0  0  0  0  0
  -29.5396  -20.4422   20.8798 N   0  0  0  0  0  0
  -30.0206  -15.4754   21.1998 N   0  0  0  0  0  0
  -31.0198  -22.1663   21.1571 O   0  0  0  0  0  0
  -33.3433  -18.3896   23.1706 F   0  0  0  0  0  0
  -31.4663  -12.4371   19.1129 H   0  0  0  0  0  0
  -30.3400  -11.3146   19.8203 H   0  0  0  0  0  0
  -29.7360  -11.7820   17.4282 H   0  0  0  0  0  0
  -29.6466  -13.4935   17.7598 H   0  0  0  0  0  0
  -27.8437  -11.3007   18.8297 H   0  0  0  0  0  0
  -27.3598  -12.6160   17.7913 H   0  0  0  0  0  0
  -27.7012  -14.2502   19.5656 H   0  0  0  0  0  0
  -28.6848  -11.9618   21.3411 H   0  0  0  0  0  0
  -28.4559  -13.5993   21.8697 H   0  0  0  0  0  0
  -25.2764   -9.5669   22.4751 H   0  0  0  0  0  0
  -24.0003   -7.4625   22.7465 H   0  0  0  0  0  0
  -21.0838   -8.8779   19.8951 H   0  0  0  0  0  0
  -22.3705  -10.9678   19.6170 H   0  0  0  0  0  0
  -21.1999   -7.6146   23.9715 H   0  0  0  0  0  0
  -21.1474   -6.0523   25.9072 H   0  0  0  0  0  0
  -22.0604   -2.7610   23.2845 H   0  0  0  0  0  0
  -22.4147  -11.9877   22.4758 H   0  0  0  0  0  0
  -21.1136  -13.1241   22.2639 H   0  0  0  0  0  0
  -24.6618  -15.8396   20.4985 H   0  0  0  0  0  0
  -26.2702  -15.6137   20.0346 H   0  0  0  0  0  0
  -26.7148  -32.5503   23.1153 H   0  0  0  0  0  0
  -25.0108  -33.9787   25.0479 H   0  0  0  0  0  0
  -22.6945  -31.3151   21.4220 H   0  0  0  0  0  0
  -23.3804  -35.9558   23.3175 H   0  0  0  0  0  0
  -24.3605  -36.9031   22.2057 H   0  0  0  0  0  0
  -23.7138  -37.6419   23.6709 H   0  0  0  0  0  0
  -26.0766  -31.5983   20.6249 H   0  0  0  0  0  0
  -26.8219  -30.8519   22.0108 H   0  0  0  0  0  0
  -28.1025  -29.0584   21.1607 H   0  0  0  0  0  0
  -25.9679  -26.0079   18.9454 H   0  0  0  0  0  0
  -23.9532  -27.3397   19.0100 H   0  0  0  0  0  0
  -23.7248  -30.6269   19.4166 H   0  0  0  0  0  0
  -22.7341  -29.2716   19.8632 H   0  0  0  0  0  0
  -25.1264  -36.1950   25.0816 H   0  0  0  0  0  0
  -20.9945  -28.3264   24.1447 H   0  0  0  0  0  0
  -20.5698  -26.2290   23.3619 H   0  0  0  0  0  0
  -21.6644  -26.7457   22.1215 H   0  0  0  0  0  0
  -19.6934  -25.6300   21.1239 H   0  0  0  0  0  0
  -19.6733  -27.3206   20.6760 H   0  0  0  0  0  0
  -17.4211  -26.6727   21.3961 H   0  0  0  0  0  0
  -18.0282  -26.0058   22.8957 H   0  0  0  0  0  0
  -19.7929  -30.7251   24.2298 H   0  0  0  0  0  0
  -17.5018  -31.6280   24.5161 H   0  0  0  0  0  0
  -15.5358  -30.3016   23.7663 H   0  0  0  0  0  0
  -15.8655  -28.0845   22.7086 H   0  0  0  0  0  0
  -24.5970  -30.7014   25.7853 H   0  0  0  0  0  0
  -24.8825  -32.2942   26.4788 H   0  0  0  0  0  0
  -25.8064  -30.9080   27.0323 H   0  0  0  0  0  0
  -26.2837  -29.6814   24.1200 H   0  0  0  0  0  0
  -27.3933  -29.7255   25.4705 H   0  0  0  0  0  0
  -27.8743  -30.4273   23.9432 H   0  0  0  0  0  0
  -27.2697  -33.3632   26.2080 H   0  0  0  0  0  0
  -28.3872  -32.6886   25.0312 H   0  0  0  0  0  0
  -28.0741  -31.8451   26.5402 H   0  0  0  0  0  0
  -28.2498  -38.0178   24.7707 H   0  0  0  0  0  0
  -28.1250  -36.2738   24.5936 H   0  0  0  0  0  0
  -27.2374  -37.1026   25.8818 H   0  0  0  0  0  0
  -20.9323  -29.8746   21.6913 H   0  0  0  0  0  0
  -26.0156  -38.2854   24.1629 H   0  0  0  0  0  0
  -31.9148  -20.3421   22.3111 H   0  0  0  0  0  0
  -32.2753  -16.1104   22.4991 H   0  0  0  0  0  0
  -27.6478  -18.4955   20.9061 H   0  0  0  0  0  0
  -27.9520  -16.8128   20.5907 H   0  0  0  0  0  0
  -28.4234  -18.0136   19.3892 H   0  0  0  0  0  0
  -27.9461  -22.5946   20.7729 H   0  0  0  0  0  0
  -28.7030  -22.5009   19.2034 H   0  0  0  0  0  0
  -30.1945  -24.4493   19.7769 H   0  0  0  0  0  0
  -29.5264  -24.5046   21.3888 H   0  0  0  0  0  0
  -27.2539  -24.8720   20.3683 H   0  0  0  0  0  0
  -28.0130  -25.0484   18.7934 H   0  0  0  0  0  0
  -28.6202  -20.2542   20.5038 H   0  0  0  0  0  0
  -29.0502  -15.2805   21.3918 H   0  0  0  0  0  0
  1 25  1  0  0  0
  1 30  2  0  0  0
  1 83  1  0  0  0
  2  3  1  0  0  0
  2 25  1  0  0  0
  2 86  1  0  0  0
  2 87  1  0  0  0
  3  4  1  0  0  0
  3 88  1  0  0  0
  3 89  1  0  0  0
  4  5  1  0  0  0
  4 90  1  0  0  0
  4 91  1  0  0  0
  5  6  1  0  0  0
  5 26  1  0  0  0
  5 92  1  0  0  0
  6 25  1  0  0  0
  6 93  1  0  0  0
  6 94  1  0  0  0
  7  8  2  0  0  0
  7 26  1  0  0  0
  7 29  1  0  0  0
  8  9  1  0  0  0
  8 22  1  0  0  0
  9 10  1  0  0  0
  9 27  2  0  0  0
 10 11  2  0  0  0
 10 15  1  0  0  0
 11 12  1  0  0  0
 11 95  1  0  0  0
 12 13  2  0  0  0
 12 96  1  0  0  0
 13 14  1  0  0  0
 13 31  1  0  0  0
 14 15  2  0  0  0
 14 97  1  0  0  0
 15 98  1  0  0  0
 16 17  2  0  0  0
 16 21  1  0  0  0
 16 31  1  0  0  0
 17 18  1  0  0  0
 17 99  1  0  0  0
 18 19  2  0  0  0
 18100  1  0  0  0
 19 20  1  0  0  0
 19 24  1  0  0  0
 20 21  2  0  0  0
 20101  1  0  0  0
 21 23  1  0  0  0
 22 28  1  0  0  0
 22 32  2  0  0  0
 26 27  1  0  0  0
 28102  1  0  0  0
 28103  1  0  0  0
 29104  1  0  0  0
 29105  1  0  0  0
 33 34  1  0  0  0
 33 66  1  0  0  0
 33 70  2  0  0  0
 34 36  1  0  0  0
 34 59  1  0  0  0
 34106  1  0  0  0
 35 44  2  0  0  0
 35 45  1  0  0  0
 35 68  1  0  0  0
 36 56  1  0  0  0
 36107  1  0  0  0
 37 39  1  0  0  0
 37 47  1  0  0  0
 37 66  1  0  0  0
 37108  1  0  0  0
 38 43  2  0  0  0
 38 46  1  0  0  0
 38 47  1  0  0  0
 39 64  1  0  0  0
 39 67  2  0  0  0
 40 52  1  0  0  0
 40 53  2  0  0  0
 40 58  1  0  0  0
 41109  1  0  0  0
 41110  1  0  0  0
 41111  1  0  0  0
 41 48  1  0  0  0
 42 43  1  0  0  0
 42 66  1  0  0  0
 42112  1  0  0  0
 42113  1  0  0  0
 43 44  1  0  0  0
 44114  1  0  0  0
 45 46  2  0  0  0
 45115  1  0  0  0
 46116  1  0  0  0
 47117  1  0  0  0
 47118  1  0  0  0
 48 56  1  0  0  0
 48 65  1  0  0  0
 48119  1  0  0  0
 49 50  1  0  0  0
 49 53  1  0  0  0
 49 64  1  0  0  0
 49120  1  0  0  0
 50 51  1  0  0  0
 50121  1  0  0  0
 50122  1  0  0  0
 51 52  1  0  0  0
 51123  1  0  0  0
 51124  1  0  0  0
 52125  1  0  0  0
 52126  1  0  0  0
 53 54  1  0  0  0
 54 55  2  0  0  0
 54127  1  0  0  0
 55 57  1  0  0  0
 55128  1  0  0  0
 56 69  2  0  0  0
 57 58  2  0  0  0
 57129  1  0  0  0
 58130  1  0  0  0
 59 60  1  0  0  0
 59 61  1  0  0  0
 59 62  1  0  0  0
 60131  1  0  0  0
 60132  1  0  0  0
 60133  1  0  0  0
 61134  1  0  0  0
 61135  1  0  0  0
 61136  1  0  0  0
 62137  1  0  0  0
 62138  1  0  0  0
 62139  1  0  0  0
 63 65  1  0  0  0
 63140  1  0  0  0
 63141  1  0  0  0
 63142  1  0  0  0
 64143  1  0  0  0
 65144  1  0  0  0
 68 81  1  0  0  0
 71 74  2  0  0  0
 71 76  1  0  0  0
 71145  1  0  0  0
 72 75  1  0  0  0
 72 76  2  0  0  0
 72146  1  0  0  0
 73 74  1  0  0  0
 73 75  2  0  0  0
 73 78  1  0  0  0
 74 82  1  0  0  0
 75 83  1  0  0  0
 76 85  1  0  0  0
 77 79  1  0  0  0
 77 82  1  0  0  0
 77 84  2  0  0  0
 78147  1  0  0  0
 78148  1  0  0  0
 78149  1  0  0  0
 79 80  1  0  0  0
 79150  1  0  0  0
 79151  1  0  0  0
 80 81  1  0  0  0
 80152  1  0  0  0
 80153  1  0  0  0
 81154  1  0  0  0
 81155  1  0  0  0
 82156  1  0  0  0
 83157  1  0  0  0
M  ISO  4   1 100  68 101  81 101  83 100
M  END
> <chiral flag>
0

> <version>
0

> <s_m_source_file>
/data/baiqing/PycharmProjects/Reinvent-master-3.2/result/LINK_invent/BTK/process_docking_weight1_custom_product_contain_oxygen_bond_distance_aromatic_linkinvent_7_9_3/rearranged_h_0060.sdf

> <i_m_source_file_index>
40

> <r_mmod_Potential_Energy-OPLS-2005>
-84.7662887573242

> <r_mmod_Stretch_Energy-OPLS-2005>
46.5299453735352

> <r_mmod_Bend_Energy-OPLS-2005>
101.608932495117

> <r_mmod_Torsional_Energy-OPLS-2005>
225.838531494141

> <r_mmod_Improper_Torsional_Energy-OPLS-2005>
3.3509476184845

> <r_mmod_Van_der_Waal_Energy-OPLS-2005>
169.608108520508

> <r_mmod_Electrostatic_Energy-OPLS-2005>
-412.264404296875

> <r_mmod_Solvation_Energy-OPLS-2005>
-236.804077148438

> <b_mmod_Minimization_Converged-OPLS-2005>
0

> <r_mmod_RMS_Derivative-OPLS-2005>
1.83152377605438

$$$$
40
                    3D
 Structure written by MMmdl.
160169  0  0  1  0            999 V2000
  -30.5961  -14.7839   20.5117 C   0  0  0  0  0  0
  -30.4422  -12.5005   19.4637 C   0  0  0  0  0  0
  -29.5168  -12.5618   18.2280 C   0  0  0  0  0  0
  -28.0346  -12.3866   18.6205 C   0  0  0  0  0  0
  -27.6399  -13.2473   19.8507 C   0  0  2  0  0  0
  -28.6895  -13.1689   20.9806 C   0  0  0  0  0  0
  -25.2483  -13.8200   20.5709 C   0  0  0  0  0  0
  -24.1814  -13.0449   20.9203 C   0  0  0  0  0  0
  -24.6419  -11.6916   20.8744 C   0  0  0  0  0  0
  -23.9094  -10.4300   21.0367 C   0  0  0  0  0  0
  -24.3631   -9.4218   21.9154 C   0  0  0  0  0  0
  -23.6321   -8.2255   22.0731 C   0  0  0  0  0  0
  -22.4296   -8.0281   21.3535 C   0  0  0  0  0  0
  -21.9926   -9.0239   20.4625 C   0  0  0  0  0  0
  -22.7254  -10.2125   20.3025 C   0  0  0  0  0  0
  -21.6853   -6.0733   22.5282 C   0  0  0  0  0  0
  -21.4004   -6.5629   23.8216 C   0  0  0  0  0  0
  -21.3672   -5.6775   24.9171 C   0  0  0  0  0  0
  -21.6057   -4.3042   24.7213 C   0  0  0  0  0  0
  -21.8822   -3.8141   23.4329 C   0  0  0  0  0  0
  -21.9190   -4.6966   22.3390 C   0  0  0  0  0  0
  -22.7815  -13.5212   21.1855 C   0  0  0  0  0  0
  -22.1675   -4.2147   21.0972 F   0  0  0  0  0  0
  -21.5630   -3.4529   25.7730 F   0  0  0  0  0  0
  -29.9835  -13.5495   20.4025 N   0  0  0  0  0  0
  -26.2944  -12.9459   20.3273 N   0  0  0  0  0  0
  -25.9366  -11.6575   20.5708 N   0  0  0  0  0  0
  -22.0449  -12.8229   22.0402 N   0  0  0  0  0  0
  -25.4095  -15.1958   20.4159 N   0  0  0  0  0  0
  -31.7914  -14.8994   20.2281 O   0  0  0  0  0  0
  -21.6666   -6.8881   21.4240 O   0  0  0  0  0  0
  -22.3514  -14.5505   20.6673 O   0  0  0  0  0  0
  -24.6275  -31.8552   23.1954 C   0  0  0  0  0  0
  -25.9098  -32.4770   23.8292 C   0  0  1  0  0  0
  -27.2482  -27.2948   20.1407 C   0  0  0  0  0  0
  -25.5902  -33.8568   24.2204 N   0  0  0  0  0  0
  -23.4220  -30.4749   21.5361 C   0  0  2  0  0  0
  -24.8810  -28.9138   20.1177 C   0  0  0  0  0  0
  -22.7462  -29.4616   22.4910 C   0  0  0  0  0  0
  -18.0271  -28.1387   22.8482 C   0  0  0  0  0  0
  -24.1490  -36.7327   23.2639 C   0  0  0  0  0  0
  -25.9619  -30.7868   21.3595 C   0  0  0  0  0  0
  -26.0478  -29.4023   20.7199 C   0  0  0  0  0  0
  -27.2370  -28.6091   20.7120 C   0  0  0  0  0  0
  -26.0578  -26.8532   19.5271 C   0  0  0  0  0  0
  -24.8907  -27.6473   19.5067 C   0  0  0  0  0  0
  -23.6440  -29.7922   20.1572 C   0  0  0  0  0  0
  -25.4114  -36.3098   24.0329 C   0  0  1  0  0  0
  -20.5874  -28.3681   23.1284 C   0  0  2  0  0  0
  -20.6750  -26.9390   22.5413 C   0  0  0  0  0  0
  -19.5740  -26.6368   21.5206 C   0  0  0  0  0  0
  -18.1920  -26.7924   22.1620 C   0  0  0  0  0  0
  -19.1526  -28.8842   23.2890 C   0  0  0  0  0  0
  -18.9459  -30.1439   23.8911 C   0  0  0  0  0  0
  -17.6469  -30.6590   24.0557 C   0  0  0  0  0  0
  -25.9047  -34.9462   23.5075 C   0  0  0  0  0  0
  -16.5351  -29.9103   23.6322 C   0  0  0  0  0  0
  -16.7261  -28.6523   23.0329 C   0  0  0  0  0  0
  -26.4431  -31.6604   25.0685 C   0  0  0  0  0  0
  -25.3647  -31.3773   26.1402 C   0  0  0  0  0  0
  -27.0236  -30.3039   24.6119 C   0  0  0  0  0  0
  -27.5990  -32.4295   25.7506 C   0  0  0  0  0  0
  -27.5587  -37.1835   24.8442 C   0  0  0  0  0  0
  -21.4165  -29.3077   22.3703 N   0  0  0  0  0  0
  -26.4283  -37.3802   23.9412 N   0  0  0  0  0  0
  -24.6901  -31.0555   22.0897 N   0  0  0  0  0  0
  -23.4195  -28.8140   23.2965 O   0  0  0  0  0  0
  -28.3776  -26.4542   20.1219 O   0  0  0  0  0  0
  -26.5609  -34.8945   22.4639 O   0  0  0  0  0  0
  -23.5436  -32.1316   23.7295 O   0  0  0  0  0  0
  -30.6127  -18.8425   22.9199 C   0  0  0  0  0  0
  -30.1844  -19.9812   22.2081 C   0  0  0  0  0  0
  -30.5548  -17.5472   22.3610 C   0  0  0  0  0  0
  -29.5898  -18.5193   20.3566 C   0  0  0  0  0  0
  -29.7070  -19.8834   20.8821 C   0  0  0  0  0  0
  -30.0165  -17.3169   21.0749 C   0  0  0  0  0  0
  -30.3068  -21.3588   18.9922 C   0  0  0  0  0  0
  -31.3839  -20.6217   18.6623 C   0  0  0  0  0  0
  -29.9794  -22.6035   18.1752 C   0  0  0  0  0  0
  -29.9299  -23.8693   19.0479 C   0  0  0  0  0  0
  -28.9711  -22.3656   20.8375 C   0  0  0  0  0  0
  -28.7296  -23.7267   19.9859 C   0  0  1  0  0  0
  -28.3214  -25.0990   20.7550 C   0  0  0  0  0  0
  -29.5135  -21.1224   20.1287 N   0  0  0  0  0  0
  -29.7743  -15.9011   20.6611 N   0  0  0  0  0  0
  -31.4780  -12.6505   19.1522 H   0  0  0  0  0  0
  -30.4058  -11.5168   19.9347 H   0  0  0  0  0  0
  -29.8102  -11.8115   17.4946 H   0  0  0  0  0  0
  -29.6466  -13.5271   17.7359 H   0  0  0  0  0  0
  -27.8595  -11.3313   18.8225 H   0  0  0  0  0  0
  -27.3958  -12.6418   17.7730 H   0  0  0  0  0  0
  -27.6305  -14.2801   19.4988 H   0  0  0  0  0  0
  -28.7393  -12.1660   21.4067 H   0  0  0  0  0  0
  -28.4194  -13.8369   21.8016 H   0  0  0  0  0  0
  -25.2755   -9.5720   22.4741 H   0  0  0  0  0  0
  -24.0026   -7.4648   22.7453 H   0  0  0  0  0  0
  -21.0846   -8.8733   19.8961 H   0  0  0  0  0  0
  -22.3661  -10.9649   19.6146 H   0  0  0  0  0  0
  -21.2000   -7.6140   23.9719 H   0  0  0  0  0  0
  -21.1501   -6.0506   25.9081 H   0  0  0  0  0  0
  -22.0600   -2.7604   23.2816 H   0  0  0  0  0  0
  -22.4040  -11.9921   22.4861 H   0  0  0  0  0  0
  -21.1039  -13.1234   22.2501 H   0  0  0  0  0  0
  -24.6283  -15.8316   20.5323 H   0  0  0  0  0  0
  -26.2370  -15.6554   20.0652 H   0  0  0  0  0  0
  -26.7158  -32.5425   23.1038 H   0  0  0  0  0  0
  -25.0025  -33.9674   25.0325 H   0  0  0  0  0  0
  -22.7180  -31.2961   21.3785 H   0  0  0  0  0  0
  -23.3756  -35.9653   23.3255 H   0  0  0  0  0  0
  -24.3604  -36.8996   22.2066 H   0  0  0  0  0  0
  -23.7215  -37.6514   23.6671 H   0  0  0  0  0  0
  -26.0585  -31.5354   20.5718 H   0  0  0  0  0  0
  -26.8571  -30.8706   21.9638 H   0  0  0  0  0  0
  -28.1397  -28.9886   21.1748 H   0  0  0  0  0  0
  -26.0233  -25.8789   19.0612 H   0  0  0  0  0  0
  -24.0028  -27.2688   19.0169 H   0  0  0  0  0  0
  -23.7612  -30.5549   19.3884 H   0  0  0  0  0  0
  -22.7665  -29.2174   19.8588 H   0  0  0  0  0  0
  -25.1297  -36.1949   25.0822 H   0  0  0  0  0  0
  -20.9962  -28.3241   24.1402 H   0  0  0  0  0  0
  -20.5602  -26.2276   23.3607 H   0  0  0  0  0  0
  -21.6618  -26.7384   22.1212 H   0  0  0  0  0  0
  -19.6890  -25.6275   21.1239 H   0  0  0  0  0  0
  -19.6703  -27.3164   20.6731 H   0  0  0  0  0  0
  -17.4169  -26.6630   21.4048 H   0  0  0  0  0  0
  -18.0364  -26.0071   22.9026 H   0  0  0  0  0  0
  -19.7943  -30.7235   24.2290 H   0  0  0  0  0  0
  -17.5040  -31.6284   24.5131 H   0  0  0  0  0  0
  -15.5358  -30.3024   23.7661 H   0  0  0  0  0  0
  -15.8644  -28.0879   22.7022 H   0  0  0  0  0  0
  -24.5813  -30.7129   25.7730 H   0  0  0  0  0  0
  -24.8834  -32.2952   26.4807 H   0  0  0  0  0  0
  -25.7964  -30.8956   27.0181 H   0  0  0  0  0  0
  -26.2788  -29.6858   24.1100 H   0  0  0  0  0  0
  -27.3872  -29.7266   25.4622 H   0  0  0  0  0  0
  -27.8674  -30.4336   23.9343 H   0  0  0  0  0  0
  -27.2607  -33.3594   26.2090 H   0  0  0  0  0  0
  -28.3862  -32.6840   25.0397 H   0  0  0  0  0  0
  -28.0554  -31.8368   26.5442 H   0  0  0  0  0  0
  -28.2556  -38.0178   24.7538 H   0  0  0  0  0  0
  -28.1125  -36.2716   24.6186 H   0  0  0  0  0  0
  -27.2319  -37.1390   25.8842 H   0  0  0  0  0  0
  -20.9312  -29.8908   21.7020 H   0  0  0  0  0  0
  -26.0167  -38.2870   24.1449 H   0  0  0  0  0  0
  -31.0147  -18.9776   23.9152 H   0  0  0  0  0  0
  -30.3075  -20.9441   22.6783 H   0  0  0  0  0  0
  -30.9078  -16.7188   22.9569 H   0  0  0  0  0  0
  -29.1873  -18.4020   19.3618 H   0  0  0  0  0  0
  -32.0033  -20.8934   17.8196 H   0  0  0  0  0  0
  -31.7059  -19.7613   19.2314 H   0  0  0  0  0  0
  -29.0155  -22.4416   17.6898 H   0  0  0  0  0  0
  -30.6914  -22.7294   17.3577 H   0  0  0  0  0  0
  -29.8379  -24.7568   18.4187 H   0  0  0  0  0  0
  -30.8605  -23.9774   19.6136 H   0  0  0  0  0  0
  -28.0417  -22.1050   21.3460 H   0  0  0  0  0  0
  -29.6874  -22.6261   21.6152 H   0  0  0  0  0  0
  -27.8791  -23.5224   19.3388 H   0  0  0  0  0  0
  -28.9660  -25.1800   21.6289 H   0  0  0  0  0  0
  -27.3224  -24.9627   21.1736 H   0  0  0  0  0  0
  -28.7998  -15.6470   20.6547 H   0  0  0  0  0  0
  1 25  1  0  0  0
  1 30  2  0  0  0
  1 85  1  0  0  0
  2  3  1  0  0  0
  2 25  1  0  0  0
  2 86  1  0  0  0
  2 87  1  0  0  0
  3  4  1  0  0  0
  3 88  1  0  0  0
  3 89  1  0  0  0
  4  5  1  0  0  0
  4 90  1  0  0  0
  4 91  1  0  0  0
  5  6  1  0  0  0
  5 26  1  0  0  0
  5 92  1  0  0  0
  6 25  1  0  0  0
  6 93  1  0  0  0
  6 94  1  0  0  0
  7  8  2  0  0  0
  7 26  1  0  0  0
  7 29  1  0  0  0
  8  9  1  0  0  0
  8 22  1  0  0  0
  9 10  1  0  0  0
  9 27  2  0  0  0
 10 11  2  0  0  0
 10 15  1  0  0  0
 11 12  1  0  0  0
 11 95  1  0  0  0
 12 13  2  0  0  0
 12 96  1  0  0  0
 13 14  1  0  0  0
 13 31  1  0  0  0
 14 15  2  0  0  0
 14 97  1  0  0  0
 15 98  1  0  0  0
 16 17  2  0  0  0
 16 21  1  0  0  0
 16 31  1  0  0  0
 17 18  1  0  0  0
 17 99  1  0  0  0
 18 19  2  0  0  0
 18100  1  0  0  0
 19 20  1  0  0  0
 19 24  1  0  0  0
 20 21  2  0  0  0
 20101  1  0  0  0
 21 23  1  0  0  0
 22 28  1  0  0  0
 22 32  2  0  0  0
 26 27  1  0  0  0
 28102  1  0  0  0
 28103  1  0  0  0
 29104  1  0  0  0
 29105  1  0  0  0
 33 34  1  0  0  0
 33 66  1  0  0  0
 33 70  2  0  0  0
 34 36  1  0  0  0
 34 59  1  0  0  0
 34106  1  0  0  0
 35 44  2  0  0  0
 35 45  1  0  0  0
 35 68  1  0  0  0
 36 56  1  0  0  0
 36107  1  0  0  0
 37 39  1  0  0  0
 37 47  1  0  0  0
 37 66  1  0  0  0
 37108  1  0  0  0
 38 43  2  0  0  0
 38 46  1  0  0  0
 38 47  1  0  0  0
 39 64  1  0  0  0
 39 67  2  0  0  0
 40 52  1  0  0  0
 40 53  2  0  0  0
 40 58  1  0  0  0
 41109  1  0  0  0
 41110  1  0  0  0
 41111  1  0  0  0
 41 48  1  0  0  0
 42 43  1  0  0  0
 42 66  1  0  0  0
 42112  1  0  0  0
 42113  1  0  0  0
 43 44  1  0  0  0
 44114  1  0  0  0
 45 46  2  0  0  0
 45115  1  0  0  0
 46116  1  0  0  0
 47117  1  0  0  0
 47118  1  0  0  0
 48 56  1  0  0  0
 48 65  1  0  0  0
 48119  1  0  0  0
 49 50  1  0  0  0
 49 53  1  0  0  0
 49 64  1  0  0  0
 49120  1  0  0  0
 50 51  1  0  0  0
 50121  1  0  0  0
 50122  1  0  0  0
 51 52  1  0  0  0
 51123  1  0  0  0
 51124  1  0  0  0
 52125  1  0  0  0
 52126  1  0  0  0
 53 54  1  0  0  0
 54 55  2  0  0  0
 54127  1  0  0  0
 55 57  1  0  0  0
 55128  1  0  0  0
 56 69  2  0  0  0
 57 58  2  0  0  0
 57129  1  0  0  0
 58130  1  0  0  0
 59 60  1  0  0  0
 59 61  1  0  0  0
 59 62  1  0  0  0
 60131  1  0  0  0
 60132  1  0  0  0
 60133  1  0  0  0
 61134  1  0  0  0
 61135  1  0  0  0
 61136  1  0  0  0
 62137  1  0  0  0
 62138  1  0  0  0
 62139  1  0  0  0
 63 65  1  0  0  0
 63140  1  0  0  0
 63141  1  0  0  0
 63142  1  0  0  0
 64143  1  0  0  0
 65144  1  0  0  0
 68 83  1  0  0  0
 71 72  2  0  0  0
 71 73  1  0  0  0
 71145  1  0  0  0
 72 75  1  0  0  0
 72146  1  0  0  0
 73 76  2  0  0  0
 73147  1  0  0  0
 74 75  2  0  0  0
 74 76  1  0  0  0
 74148  1  0  0  0
 75 84  1  0  0  0
 76 85  1  0  0  0
 77 78  2  0  0  0
 77 79  1  0  0  0
 77 84  1  0  0  0
 78149  1  0  0  0
 78150  1  0  0  0
 79 80  1  0  0  0
 79151  1  0  0  0
 79152  1  0  0  0
 80 82  1  0  0  0
 80153  1  0  0  0
 80154  1  0  0  0
 81 82  1  0  0  0
 81 84  1  0  0  0
 81155  1  0  0  0
 81156  1  0  0  0
 82 83  1  0  0  0
 82157  1  0  0  0
 83158  1  0  0  0
 83159  1  0  0  0
 85160  1  0  0  0
M  ISO  4   1 100  68 101  83 101  85 100
M  END
> <chiral flag>
0

> <version>
0

> <s_m_source_file>
/data/baiqing/PycharmProjects/Reinvent-master-3.2/result/LINK_invent/BTK/process_docking_weight1_custom_product_contain_oxygen_bond_distance_aromatic_linkinvent_7_9_3/rearranged_h_0060.sdf

> <i_m_source_file_index>
41

> <r_mmod_Potential_Energy-OPLS-2005>
271.969635009766

> <r_mmod_Stretch_Energy-OPLS-2005>
132.773254394531

> <r_mmod_Bend_Energy-OPLS-2005>
174.570602416992

> <r_mmod_Torsional_Energy-OPLS-2005>
302.018005371094

> <r_mmod_Improper_Torsional_Energy-OPLS-2005>
10.194299697876

> <r_mmod_Van_der_Waal_Energy-OPLS-2005>
145.095397949219

> <r_mmod_Electrostatic_Energy-OPLS-2005>
-367.560333251953

> <r_mmod_Solvation_Energy-OPLS-2005>
-208.61799621582

> <b_mmod_Minimization_Converged-OPLS-2005>
0

> <r_mmod_RMS_Derivative-OPLS-2005>
5.44284152984619

$$$$
41
                    3D
 Structure written by MMmdl.
155163  0  0  1  0            999 V2000
  -30.6296  -14.7509   20.4480 C   0  0  0  0  0  0
  -30.4250  -12.4557   19.4792 C   0  0  0  0  0  0
  -29.5068  -12.5029   18.2391 C   0  0  0  0  0  0
  -28.0334  -12.3306   18.6523 C   0  0  0  0  0  0
  -27.6386  -13.2366   19.8488 C   0  0  2  0  0  0
  -28.6836  -13.1888   20.9853 C   0  0  0  0  0  0
  -25.2478  -13.8201   20.5673 C   0  0  0  0  0  0
  -24.1791  -13.0441   20.9228 C   0  0  0  0  0  0
  -24.6395  -11.6922   20.8771 C   0  0  0  0  0  0
  -23.9076  -10.4291   21.0420 C   0  0  0  0  0  0
  -24.3624   -9.4201   21.9191 C   0  0  0  0  0  0
  -23.6295   -8.2239   22.0757 C   0  0  0  0  0  0
  -22.4277   -8.0281   21.3547 C   0  0  0  0  0  0
  -21.9918   -9.0256   20.4649 C   0  0  0  0  0  0
  -22.7252  -10.2133   20.3062 C   0  0  0  0  0  0
  -21.6853   -6.0733   22.5275 C   0  0  0  0  0  0
  -21.4015   -6.5638   23.8208 C   0  0  0  0  0  0
  -21.3658   -5.6793   24.9173 C   0  0  0  0  0  0
  -21.6046   -4.3056   24.7224 C   0  0  0  0  0  0
  -21.8818   -3.8144   23.4347 C   0  0  0  0  0  0
  -21.9191   -4.6960   22.3402 C   0  0  0  0  0  0
  -22.7809  -13.5215   21.1881 C   0  0  0  0  0  0
  -22.1660   -4.2146   21.0981 F   0  0  0  0  0  0
  -21.5627   -3.4541   25.7737 F   0  0  0  0  0  0
  -29.9848  -13.5326   20.3994 N   0  0  0  0  0  0
  -26.2919  -12.9423   20.3276 N   0  0  0  0  0  0
  -25.9327  -11.6565   20.5775 N   0  0  0  0  0  0
  -22.0458  -12.8198   22.0437 N   0  0  0  0  0  0
  -25.4124  -15.1913   20.3983 N   0  0  0  0  0  0
  -31.8234  -14.7907   20.1437 O   0  0  0  0  0  0
  -21.6642   -6.8877   21.4239 O   0  0  0  0  0  0
  -22.3491  -14.5519   20.6726 O   0  0  0  0  0  0
  -24.6305  -31.8533   23.1961 C   0  0  0  0  0  0
  -25.9126  -32.4745   23.8315 C   0  0  1  0  0  0
  -27.2249  -27.2569   20.1240 C   0  0  0  0  0  0
  -25.5914  -33.8548   24.2234 N   0  0  0  0  0  0
  -23.4275  -30.4739   21.5390 C   0  0  2  0  0  0
  -24.8749  -28.9168   20.1077 C   0  0  0  0  0  0
  -22.7501  -29.4581   22.4906 C   0  0  0  0  0  0
  -18.0285  -28.1391   22.8486 C   0  0  0  0  0  0
  -24.1488  -36.7277   23.2643 C   0  0  0  0  0  0
  -25.9729  -30.7631   21.3768 C   0  0  0  0  0  0
  -26.0440  -29.3857   20.7174 C   0  0  0  0  0  0
  -27.2170  -28.5667   20.7149 C   0  0  0  0  0  0
  -26.0282  -26.8479   19.4951 C   0  0  0  0  0  0
  -24.8722  -27.6567   19.4878 C   0  0  0  0  0  0
  -23.6458  -29.8044   20.1556 C   0  0  0  0  0  0
  -25.4115  -36.3061   24.0325 C   0  0  1  0  0  0
  -20.5890  -28.3694   23.1275 C   0  0  2  0  0  0
  -20.6772  -26.9411   22.5415 C   0  0  0  0  0  0
  -19.5747  -26.6377   21.5221 C   0  0  0  0  0  0
  -18.1924  -26.7929   22.1626 C   0  0  0  0  0  0
  -19.1539  -28.8858   23.2873 C   0  0  0  0  0  0
  -18.9467  -30.1460   23.8891 C   0  0  0  0  0  0
  -17.6468  -30.6592   24.0564 C   0  0  0  0  0  0
  -25.9057  -34.9434   23.5087 C   0  0  0  0  0  0
  -16.5355  -29.9089   23.6339 C   0  0  0  0  0  0
  -16.7272  -28.6506   23.0360 C   0  0  0  0  0  0
  -26.4496  -31.6583   25.0713 C   0  0  0  0  0  0
  -25.3718  -31.3735   26.1435 C   0  0  0  0  0  0
  -27.0349  -30.2997   24.6207 C   0  0  0  0  0  0
  -27.6035  -32.4345   25.7483 C   0  0  0  0  0  0
  -27.5580  -37.1786   24.8461 C   0  0  0  0  0  0
  -21.4205  -29.3036   22.3662 N   0  0  0  0  0  0
  -26.4285  -37.3765   23.9415 N   0  0  0  0  0  0
  -24.6960  -31.0488   22.0937 N   0  0  0  0  0  0
  -23.4199  -28.8127   23.3010 O   0  0  0  0  0  0
  -28.3479  -26.4013   20.2109 O   0  0  0  0  0  0
  -26.5642  -34.8914   22.4664 O   0  0  0  0  0  0
  -23.5452  -32.1356   23.7254 O   0  0  0  0  0  0
  -31.9005  -19.1045   19.9493 C   0  0  0  0  0  0
  -30.9828  -20.1518   20.1450 C   0  0  0  0  0  0
  -31.5326  -17.7572   20.1158 C   0  0  0  0  0  0
  -29.6423  -19.9007   20.5035 C   0  0  0  0  0  0
  -29.2656  -18.4797   20.6419 C   0  0  0  0  0  0
  -30.2147  -17.3715   20.4683 C   0  0  0  0  0  0
  -28.8045  -21.1656   20.8225 C   0  0  0  0  0  0
  -28.2750  -23.7408   20.5641 C   0  0  0  0  0  0
  -27.8287  -18.1109   20.9862 C   0  0  0  0  0  0
  -28.4439  -25.0204   19.6115 C   0  0  0  0  0  0
  -29.8812  -15.9152   20.6392 N   0  0  0  0  0  0
  -28.8958  -22.4148   20.1935 N   0  0  0  0  0  0
  -27.9717  -21.0548   21.8603 N   0  3  0  0  0  0
  -27.6119  -23.8367   21.6040 O   0  0  0  0  0  0
  -31.4671  -12.5641   19.1742 H   0  0  0  0  0  0
  -30.3612  -11.4838   19.9712 H   0  0  0  0  0  0
  -29.7884  -11.7250   17.5287 H   0  0  0  0  0  0
  -29.6350  -13.4539   17.7196 H   0  0  0  0  0  0
  -27.8889  -11.2828   18.9192 H   0  0  0  0  0  0
  -27.3765  -12.5192   17.8023 H   0  0  0  0  0  0
  -27.6285  -14.2550   19.4602 H   0  0  0  0  0  0
  -28.7183  -12.1988   21.4415 H   0  0  0  0  0  0
  -28.4187  -13.8842   21.7834 H   0  0  0  0  0  0
  -25.2767   -9.5673   22.4769 H   0  0  0  0  0  0
  -23.9998   -7.4629   22.7475 H   0  0  0  0  0  0
  -21.0849   -8.8781   19.8953 H   0  0  0  0  0  0
  -22.3715  -10.9675   19.6170 H   0  0  0  0  0  0
  -21.2010   -7.6144   23.9711 H   0  0  0  0  0  0
  -21.1481   -6.0523   25.9074 H   0  0  0  0  0  0
  -22.0596   -2.7606   23.2849 H   0  0  0  0  0  0
  -22.4080  -11.9854   22.4815 H   0  0  0  0  0  0
  -21.1074  -13.1213   22.2656 H   0  0  0  0  0  0
  -24.6264  -15.8286   20.4689 H   0  0  0  0  0  0
  -26.2205  -15.6089   19.9584 H   0  0  0  0  0  0
  -26.7183  -32.5387   23.1046 H   0  0  0  0  0  0
  -25.0048  -33.9689   25.0369 H   0  0  0  0  0  0
  -22.7234  -31.2955   21.3905 H   0  0  0  0  0  0
  -23.3759  -35.9600   23.3289 H   0  0  0  0  0  0
  -24.3577  -36.8924   22.2062 H   0  0  0  0  0  0
  -23.7235  -37.6466   23.6688 H   0  0  0  0  0  0
  -26.1154  -31.5243   20.6087 H   0  0  0  0  0  0
  -26.8493  -30.8089   22.0122 H   0  0  0  0  0  0
  -28.1137  -28.9206   21.2037 H   0  0  0  0  0  0
  -25.9448  -25.8779   19.0312 H   0  0  0  0  0  0
  -23.9730  -27.2893   19.0127 H   0  0  0  0  0  0
  -23.7703  -30.5797   19.3987 H   0  0  0  0  0  0
  -22.7642  -29.2376   19.8512 H   0  0  0  0  0  0
  -25.1296  -36.1897   25.0816 H   0  0  0  0  0  0
  -20.9980  -28.3274   24.1399 H   0  0  0  0  0  0
  -20.5680  -26.2301   23.3620 H   0  0  0  0  0  0
  -21.6636  -26.7436   22.1203 H   0  0  0  0  0  0
  -19.6910  -25.6287   21.1254 H   0  0  0  0  0  0
  -19.6690  -27.3186   20.6753 H   0  0  0  0  0  0
  -17.4197  -26.6691   21.4023 H   0  0  0  0  0  0
  -18.0310  -26.0068   22.9018 H   0  0  0  0  0  0
  -19.7946  -30.7278   24.2253 H   0  0  0  0  0  0
  -17.5023  -31.6274   24.5163 H   0  0  0  0  0  0
  -15.5358  -30.2995   23.7666 H   0  0  0  0  0  0
  -15.8667  -28.0825   22.7084 H   0  0  0  0  0  0
  -24.5891  -30.7082   25.7768 H   0  0  0  0  0  0
  -24.8911  -32.2908   26.4851 H   0  0  0  0  0  0
  -25.8035  -30.8922   27.0221 H   0  0  0  0  0  0
  -26.2932  -29.6734   24.1234 H   0  0  0  0  0  0
  -27.4036  -29.7266   25.4726 H   0  0  0  0  0  0
  -27.8808  -30.4267   23.9443 H   0  0  0  0  0  0
  -27.2625  -33.3659   26.2012 H   0  0  0  0  0  0
  -28.3864  -32.6890   25.0326 H   0  0  0  0  0  0
  -28.0678  -31.8508   26.5440 H   0  0  0  0  0  0
  -28.2574  -38.0106   24.7536 H   0  0  0  0  0  0
  -28.1102  -36.2640   24.6253 H   0  0  0  0  0  0
  -27.2302  -37.1385   25.8864 H   0  0  0  0  0  0
  -20.9389  -29.8761   21.6872 H   0  0  0  0  0  0
  -26.0160  -38.2833   24.1441 H   0  0  0  0  0  0
  -32.9231  -19.3394   19.6872 H   0  0  0  0  0  0
  -31.3447  -21.1674   20.0506 H   0  0  0  0  0  0
  -32.3193  -17.0389   19.9612 H   0  0  0  0  0  0
  -27.1181  -18.8137   20.5517 H   0  0  0  0  0  0
  -27.6846  -18.0862   22.0662 H   0  0  0  0  0  0
  -27.5630  -17.1319   20.5915 H   0  0  0  0  0  0
  -27.7956  -24.9058   18.7449 H   0  0  0  0  0  0
  -29.4519  -24.9544   19.2027 H   0  0  0  0  0  0
  -28.9207  -15.7290   20.8773 H   0  0  0  0  0  0
  -29.4555  -22.3526   19.3564 H   0  0  0  0  0  0
  -27.9370  -20.2016   22.3935 H   0  0  0  0  0  0
  -27.4703  -21.8741   22.1791 H   0  0  0  0  0  0
  1 25  1  0  0  0
  1 30  2  0  0  0
  1 81  1  0  0  0
  2  3  1  0  0  0
  2 25  1  0  0  0
  2 85  1  0  0  0
  2 86  1  0  0  0
  3  4  1  0  0  0
  3 87  1  0  0  0
  3 88  1  0  0  0
  4  5  1  0  0  0
  4 89  1  0  0  0
  4 90  1  0  0  0
  5  6  1  0  0  0
  5 26  1  0  0  0
  5 91  1  0  0  0
  6 25  1  0  0  0
  6 92  1  0  0  0
  6 93  1  0  0  0
  7  8  2  0  0  0
  7 26  1  0  0  0
  7 29  1  0  0  0
  8  9  1  0  0  0
  8 22  1  0  0  0
  9 10  1  0  0  0
  9 27  2  0  0  0
 10 11  2  0  0  0
 10 15  1  0  0  0
 11 12  1  0  0  0
 11 94  1  0  0  0
 12 13  2  0  0  0
 12 95  1  0  0  0
 13 14  1  0  0  0
 13 31  1  0  0  0
 14 15  2  0  0  0
 14 96  1  0  0  0
 15 97  1  0  0  0
 16 17  2  0  0  0
 16 21  1  0  0  0
 16 31  1  0  0  0
 17 18  1  0  0  0
 17 98  1  0  0  0
 18 19  2  0  0  0
 18 99  1  0  0  0
 19 20  1  0  0  0
 19 24  1  0  0  0
 20 21  2  0  0  0
 20100  1  0  0  0
 21 23  1  0  0  0
 22 28  1  0  0  0
 22 32  2  0  0  0
 26 27  1  0  0  0
 28101  1  0  0  0
 28102  1  0  0  0
 29103  1  0  0  0
 29104  1  0  0  0
 33 34  1  0  0  0
 33 66  1  0  0  0
 33 70  2  0  0  0
 34 36  1  0  0  0
 34 59  1  0  0  0
 34105  1  0  0  0
 35 44  2  0  0  0
 35 45  1  0  0  0
 35 68  1  0  0  0
 36 56  1  0  0  0
 36106  1  0  0  0
 37 39  1  0  0  0
 37 47  1  0  0  0
 37 66  1  0  0  0
 37107  1  0  0  0
 38 43  2  0  0  0
 38 46  1  0  0  0
 38 47  1  0  0  0
 39 64  1  0  0  0
 39 67  2  0  0  0
 40 52  1  0  0  0
 40 53  2  0  0  0
 40 58  1  0  0  0
 41108  1  0  0  0
 41109  1  0  0  0
 41110  1  0  0  0
 41 48  1  0  0  0
 42 43  1  0  0  0
 42 66  1  0  0  0
 42111  1  0  0  0
 42112  1  0  0  0
 43 44  1  0  0  0
 44113  1  0  0  0
 45 46  2  0  0  0
 45114  1  0  0  0
 46115  1  0  0  0
 47116  1  0  0  0
 47117  1  0  0  0
 48 56  1  0  0  0
 48 65  1  0  0  0
 48118  1  0  0  0
 49 50  1  0  0  0
 49 53  1  0  0  0
 49 64  1  0  0  0
 49119  1  0  0  0
 50 51  1  0  0  0
 50120  1  0  0  0
 50121  1  0  0  0
 51 52  1  0  0  0
 51122  1  0  0  0
 51123  1  0  0  0
 52124  1  0  0  0
 52125  1  0  0  0
 53 54  1  0  0  0
 54 55  2  0  0  0
 54126  1  0  0  0
 55 57  1  0  0  0
 55127  1  0  0  0
 56 69  2  0  0  0
 57 58  2  0  0  0
 57128  1  0  0  0
 58129  1  0  0  0
 59 60  1  0  0  0
 59 61  1  0  0  0
 59 62  1  0  0  0
 60130  1  0  0  0
 60131  1  0  0  0
 60132  1  0  0  0
 61133  1  0  0  0
 61134  1  0  0  0
 61135  1  0  0  0
 62136  1  0  0  0
 62137  1  0  0  0
 62138  1  0  0  0
 63 65  1  0  0  0
 63139  1  0  0  0
 63140  1  0  0  0
 63141  1  0  0  0
 64142  1  0  0  0
 65143  1  0  0  0
 68 80  1  0  0  0
 71 72  2  0  0  0
 71 73  1  0  0  0
 71144  1  0  0  0
 72 74  1  0  0  0
 72145  1  0  0  0
 73 76  2  0  0  0
 73146  1  0  0  0
 74 75  2  0  0  0
 74 77  1  0  0  0
 75 76  1  0  0  0
 75 79  1  0  0  0
 76 81  1  0  0  0
 77 82  1  0  0  0
 77 83  2  0  0  0
 78 80  1  0  0  0
 78 82  1  0  0  0
 78 84  2  0  0  0
 79147  1  0  0  0
 79148  1  0  0  0
 79149  1  0  0  0
 80150  1  0  0  0
 80151  1  0  0  0
 81152  1  0  0  0
 82153  1  0  0  0
 83154  1  0  0  0
 83155  1  0  0  0
M  CHG  1  83   1
M  ISO  4   1 100  68 101  80 101  81 100
M  END
> <chiral flag>
0

> <version>
0

> <s_m_source_file>
/data/baiqing/PycharmProjects/Reinvent-master-3.2/result/LINK_invent/BTK/process_docking_weight1_custom_product_contain_oxygen_bond_distance_aromatic_linkinvent_7_9_3/rearranged_h_0060.sdf

> <i_m_source_file_index>
42

> <r_mmod_Potential_Energy-OPLS-2005>
-103.323135375977

> <r_mmod_Stretch_Energy-OPLS-2005>
142.944686889648

> <r_mmod_Bend_Energy-OPLS-2005>
184.875427246094

> <r_mmod_Torsional_Energy-OPLS-2005>
205.046127319336

> <r_mmod_Improper_Torsional_Energy-OPLS-2005>
6.14705324172974

> <r_mmod_Van_der_Waal_Energy-OPLS-2005>
153.370239257812

> <r_mmod_Electrostatic_Energy-OPLS-2005>
-427.433807373047

> <r_mmod_Solvation_Energy-OPLS-2005>
-454.296508789062

> <b_mmod_Minimization_Converged-OPLS-2005>
0

> <r_mmod_RMS_Derivative-OPLS-2005>
0.859805643558502

$$$$
42
                    3D
 Structure written by MMmdl.
152160  0  0  1  0            999 V2000
  -30.5854  -14.8189   20.4611 C   0  0  0  0  0  0
  -30.4335  -12.5085   19.4809 C   0  0  0  0  0  0
  -29.5126  -12.5195   18.2411 C   0  0  0  0  0  0
  -28.0409  -12.3263   18.6546 C   0  0  0  0  0  0
  -27.6340  -13.2365   19.8441 C   0  0  2  0  0  0
  -28.6775  -13.2058   20.9812 C   0  0  0  0  0  0
  -25.2467  -13.8191   20.5682 C   0  0  0  0  0  0
  -24.1774  -13.0430   20.9218 C   0  0  0  0  0  0
  -24.6374  -11.6909   20.8743 C   0  0  0  0  0  0
  -23.9054  -10.4291   21.0399 C   0  0  0  0  0  0
  -24.3610   -9.4215   21.9182 C   0  0  0  0  0  0
  -23.6296   -8.2245   22.0754 C   0  0  0  0  0  0
  -22.4280   -8.0274   21.3547 C   0  0  0  0  0  0
  -21.9908   -9.0239   20.4645 C   0  0  0  0  0  0
  -22.7223  -10.2124   20.3048 C   0  0  0  0  0  0
  -21.6856   -6.0730   22.5282 C   0  0  0  0  0  0
  -21.4015   -6.5638   23.8214 C   0  0  0  0  0  0
  -21.3658   -5.6793   24.9185 C   0  0  0  0  0  0
  -21.6046   -4.3056   24.7229 C   0  0  0  0  0  0
  -21.8816   -3.8145   23.4353 C   0  0  0  0  0  0
  -21.9191   -4.6960   22.3415 C   0  0  0  0  0  0
  -22.7798  -13.5208   21.1887 C   0  0  0  0  0  0
  -22.1661   -4.2142   21.0992 F   0  0  0  0  0  0
  -21.5626   -3.4545   25.7743 F   0  0  0  0  0  0
  -29.9663  -13.5842   20.3905 N   0  0  0  0  0  0
  -26.2892  -12.9405   20.3250 N   0  0  0  0  0  0
  -25.9301  -11.6545   20.5739 N   0  0  0  0  0  0
  -22.0447  -12.8187   22.0434 N   0  0  0  0  0  0
  -25.4140  -15.1918   20.4085 N   0  0  0  0  0  0
  -31.7857  -14.8851   20.1752 O   0  0  0  0  0  0
  -21.6646   -6.8865   21.4240 O   0  0  0  0  0  0
  -22.3485  -14.5516   20.6735 O   0  0  0  0  0  0
  -24.6341  -31.8538   23.1961 C   0  0  0  0  0  0
  -25.9156  -32.4749   23.8313 C   0  0  1  0  0  0
  -27.2121  -27.2234   20.1482 C   0  0  0  0  0  0
  -25.5939  -33.8546   24.2231 N   0  0  0  0  0  0
  -23.4312  -30.4741   21.5422 C   0  0  2  0  0  0
  -24.8766  -28.9050   20.1215 C   0  0  0  0  0  0
  -22.7510  -29.4595   22.4927 C   0  0  0  0  0  0
  -18.0290  -28.1402   22.8499 C   0  0  0  0  0  0
  -24.1477  -36.7261   23.2641 C   0  0  0  0  0  0
  -25.9798  -30.7529   21.3804 C   0  0  0  0  0  0
  -26.0517  -29.3678   20.7298 C   0  0  0  0  0  0
  -27.2249  -28.5398   20.7302 C   0  0  0  0  0  0
  -26.0158  -26.8306   19.5151 C   0  0  0  0  0  0
  -24.8630  -27.6429   19.5055 C   0  0  0  0  0  0
  -23.6531  -29.8019   20.1614 C   0  0  0  0  0  0
  -25.4115  -36.3053   24.0319 C   0  0  1  0  0  0
  -20.5904  -28.3703   23.1282 C   0  0  2  0  0  0
  -20.6784  -26.9422   22.5417 C   0  0  0  0  0  0
  -19.5746  -26.6390   21.5228 C   0  0  0  0  0  0
  -18.1927  -26.7941   22.1642 C   0  0  0  0  0  0
  -19.1550  -28.8876   23.2874 C   0  0  0  0  0  0
  -18.9462  -30.1483   23.8874 C   0  0  0  0  0  0
  -17.6460  -30.6604   24.0572 C   0  0  0  0  0  0
  -25.9064  -34.9432   23.5084 C   0  0  0  0  0  0
  -16.5354  -29.9096   23.6351 C   0  0  0  0  0  0
  -16.7276  -28.6521   23.0363 C   0  0  0  0  0  0
  -26.4501  -31.6595   25.0730 C   0  0  0  0  0  0
  -25.3707  -31.3787   26.1445 C   0  0  0  0  0  0
  -27.0348  -30.3001   24.6247 C   0  0  0  0  0  0
  -27.6043  -32.4348   25.7505 C   0  0  0  0  0  0
  -27.5565  -37.1801   24.8475 C   0  0  0  0  0  0
  -21.4215  -29.3042   22.3661 N   0  0  0  0  0  0
  -26.4290  -37.3757   23.9401 N   0  0  0  0  0  0
  -24.7013  -31.0462   22.0957 N   0  0  0  0  0  0
  -23.4189  -28.8151   23.3058 O   0  0  0  0  0  0
  -28.2920  -26.3043   20.1259 O   0  0  0  0  0  0
  -26.5628  -34.8915   22.4639 O   0  0  0  0  0  0
  -23.5491  -32.1369   23.7247 O   0  0  0  0  0  0
  -31.8852  -19.0611   21.4617 C   0  0  0  0  0  0
  -31.4503  -17.7366   21.2749 C   0  0  0  0  0  0
  -29.3486  -18.6148   20.4288 C   0  0  0  0  0  0
  -31.0864  -20.1775   21.1332 C   0  0  0  0  0  0
  -30.1784  -17.4358   20.7437 C   0  0  0  0  0  0
  -29.7716  -20.0158   20.6161 C   0  0  0  0  0  0
  -28.7211  -23.7730   20.1529 C   0  0  0  0  0  0
  -28.1510  -24.9624   20.6254 C   0  0  0  0  0  0
  -28.6870  -22.4182   20.8516 C   0  0  0  0  0  0
  -31.7150  -21.5528   21.3113 C   0  0  0  0  0  0
  -29.0684  -21.2674   20.1529 N   0  0  0  0  0  0
  -29.8046  -15.9800   20.6062 N   0  0  0  0  0  0
  -28.3422  -22.3108   22.0304 O   0  0  0  0  0  0
  -31.4704  -12.6494   19.1728 H   0  0  0  0  0  0
  -30.4016  -11.5407   19.9828 H   0  0  0  0  0  0
  -29.8122  -11.7405   17.5385 H   0  0  0  0  0  0
  -29.6241  -13.4679   17.7128 H   0  0  0  0  0  0
  -27.9099  -11.2785   18.9284 H   0  0  0  0  0  0
  -27.3832  -12.5024   17.8027 H   0  0  0  0  0  0
  -27.6162  -14.2514   19.4463 H   0  0  0  0  0  0
  -28.7356  -12.2139   21.4339 H   0  0  0  0  0  0
  -28.3969  -13.8943   21.7808 H   0  0  0  0  0  0
  -25.2749   -9.5706   22.4766 H   0  0  0  0  0  0
  -24.0013   -7.4635   22.7472 H   0  0  0  0  0  0
  -21.0844   -8.8740   19.8949 H   0  0  0  0  0  0
  -22.3667  -10.9656   19.6161 H   0  0  0  0  0  0
  -21.2008   -7.6143   23.9714 H   0  0  0  0  0  0
  -21.1482   -6.0529   25.9084 H   0  0  0  0  0  0
  -22.0590   -2.7602   23.2861 H   0  0  0  0  0  0
  -22.4069  -11.9850   22.4814 H   0  0  0  0  0  0
  -21.1058  -13.1200   22.2637 H   0  0  0  0  0  0
  -24.6375  -15.8380   20.5026 H   0  0  0  0  0  0
  -26.2509  -15.6319   20.0484 H   0  0  0  0  0  0
  -26.7212  -32.5373   23.1043 H   0  0  0  0  0  0
  -25.0100  -33.9673   25.0392 H   0  0  0  0  0  0
  -22.7286  -31.2978   21.3944 H   0  0  0  0  0  0
  -23.3737  -35.9599   23.3349 H   0  0  0  0  0  0
  -24.3557  -36.8837   22.2048 H   0  0  0  0  0  0
  -23.7253  -37.6484   23.6640 H   0  0  0  0  0  0
  -26.1216  -31.5078   20.6059 H   0  0  0  0  0  0
  -26.8573  -30.8062   22.0154 H   0  0  0  0  0  0
  -28.1269  -28.8918   21.2120 H   0  0  0  0  0  0
  -25.9662  -25.8631   19.0365 H   0  0  0  0  0  0
  -23.9603  -27.2765   19.0351 H   0  0  0  0  0  0
  -23.7848  -30.5762   19.4048 H   0  0  0  0  0  0
  -22.7686  -29.2418   19.8541 H   0  0  0  0  0  0
  -25.1308  -36.1889   25.0818 H   0  0  0  0  0  0
  -20.9981  -28.3262   24.1412 H   0  0  0  0  0  0
  -20.5702  -26.2304   23.3614 H   0  0  0  0  0  0
  -21.6647  -26.7453   22.1206 H   0  0  0  0  0  0
  -19.6894  -25.6295   21.1267 H   0  0  0  0  0  0
  -19.6688  -27.3205   20.6762 H   0  0  0  0  0  0
  -17.4210  -26.6712   21.4041 H   0  0  0  0  0  0
  -18.0309  -26.0087   22.9042 H   0  0  0  0  0  0
  -19.7935  -30.7327   24.2209 H   0  0  0  0  0  0
  -17.5017  -31.6274   24.5183 H   0  0  0  0  0  0
  -15.5359  -30.2989   23.7696 H   0  0  0  0  0  0
  -15.8675  -28.0839   22.7070 H   0  0  0  0  0  0
  -24.5846  -30.7163   25.7790 H   0  0  0  0  0  0
  -24.8937  -32.2989   26.4829 H   0  0  0  0  0  0
  -25.8000  -30.8983   27.0244 H   0  0  0  0  0  0
  -26.2947  -29.6760   24.1216 H   0  0  0  0  0  0
  -27.3966  -29.7255   25.4787 H   0  0  0  0  0  0
  -27.8853  -30.4281   23.9541 H   0  0  0  0  0  0
  -27.2629  -33.3672   26.2006 H   0  0  0  0  0  0
  -28.3876  -32.6867   25.0347 H   0  0  0  0  0  0
  -28.0663  -31.8521   26.5478 H   0  0  0  0  0  0
  -28.2618  -38.0060   24.7459 H   0  0  0  0  0  0
  -28.1012  -36.2591   24.6369 H   0  0  0  0  0  0
  -27.2271  -37.1534   25.8876 H   0  0  0  0  0  0
  -20.9404  -29.8740   21.6843 H   0  0  0  0  0  0
  -26.0151  -38.2829   24.1382 H   0  0  0  0  0  0
  -32.8819  -19.2193   21.8539 H   0  0  0  0  0  0
  -32.1306  -16.9464   21.5560 H   0  0  0  0  0  0
  -28.3662  -18.4408   20.0143 H   0  0  0  0  0  0
  -29.2885  -23.8328   19.2364 H   0  0  0  0  0  0
  -27.5432  -24.9613   21.5212 H   0  0  0  0  0  0
  -31.2580  -22.0726   22.1542 H   0  0  0  0  0  0
  -31.5925  -22.1611   20.4152 H   0  0  0  0  0  0
  -32.7856  -21.4851   21.5051 H   0  0  0  0  0  0
  -29.1092  -21.4039   19.1528 H   0  0  0  0  0  0
  -28.8139  -15.7957   20.6419 H   0  0  0  0  0  0
  1 25  1  0  0  0
  1 30  2  0  0  0
  1 82  1  0  0  0
  2  3  1  0  0  0
  2 25  1  0  0  0
  2 84  1  0  0  0
  2 85  1  0  0  0
  3  4  1  0  0  0
  3 86  1  0  0  0
  3 87  1  0  0  0
  4  5  1  0  0  0
  4 88  1  0  0  0
  4 89  1  0  0  0
  5  6  1  0  0  0
  5 26  1  0  0  0
  5 90  1  0  0  0
  6 25  1  0  0  0
  6 91  1  0  0  0
  6 92  1  0  0  0
  7  8  2  0  0  0
  7 26  1  0  0  0
  7 29  1  0  0  0
  8  9  1  0  0  0
  8 22  1  0  0  0
  9 10  1  0  0  0
  9 27  2  0  0  0
 10 11  2  0  0  0
 10 15  1  0  0  0
 11 12  1  0  0  0
 11 93  1  0  0  0
 12 13  2  0  0  0
 12 94  1  0  0  0
 13 14  1  0  0  0
 13 31  1  0  0  0
 14 15  2  0  0  0
 14 95  1  0  0  0
 15 96  1  0  0  0
 16 17  2  0  0  0
 16 21  1  0  0  0
 16 31  1  0  0  0
 17 18  1  0  0  0
 17 97  1  0  0  0
 18 19  2  0  0  0
 18 98  1  0  0  0
 19 20  1  0  0  0
 19 24  1  0  0  0
 20 21  2  0  0  0
 20 99  1  0  0  0
 21 23  1  0  0  0
 22 28  1  0  0  0
 22 32  2  0  0  0
 26 27  1  0  0  0
 28100  1  0  0  0
 28101  1  0  0  0
 29102  1  0  0  0
 29103  1  0  0  0
 33 34  1  0  0  0
 33 66  1  0  0  0
 33 70  2  0  0  0
 34 36  1  0  0  0
 34 59  1  0  0  0
 34104  1  0  0  0
 35 44  2  0  0  0
 35 45  1  0  0  0
 35 68  1  0  0  0
 36 56  1  0  0  0
 36105  1  0  0  0
 37 39  1  0  0  0
 37 47  1  0  0  0
 37 66  1  0  0  0
 37106  1  0  0  0
 38 43  2  0  0  0
 38 46  1  0  0  0
 38 47  1  0  0  0
 39 64  1  0  0  0
 39 67  2  0  0  0
 40 52  1  0  0  0
 40 53  2  0  0  0
 40 58  1  0  0  0
 41107  1  0  0  0
 41108  1  0  0  0
 41109  1  0  0  0
 41 48  1  0  0  0
 42 43  1  0  0  0
 42 66  1  0  0  0
 42110  1  0  0  0
 42111  1  0  0  0
 43 44  1  0  0  0
 44112  1  0  0  0
 45 46  2  0  0  0
 45113  1  0  0  0
 46114  1  0  0  0
 47115  1  0  0  0
 47116  1  0  0  0
 48 56  1  0  0  0
 48 65  1  0  0  0
 48117  1  0  0  0
 49 50  1  0  0  0
 49 53  1  0  0  0
 49 64  1  0  0  0
 49118  1  0  0  0
 50 51  1  0  0  0
 50119  1  0  0  0
 50120  1  0  0  0
 51 52  1  0  0  0
 51121  1  0  0  0
 51122  1  0  0  0
 52123  1  0  0  0
 52124  1  0  0  0
 53 54  1  0  0  0
 54 55  2  0  0  0
 54125  1  0  0  0
 55 57  1  0  0  0
 55126  1  0  0  0
 56 69  2  0  0  0
 57 58  2  0  0  0
 57127  1  0  0  0
 58128  1  0  0  0
 59 60  1  0  0  0
 59 61  1  0  0  0
 59 62  1  0  0  0
 60129  1  0  0  0
 60130  1  0  0  0
 60131  1  0  0  0
 61132  1  0  0  0
 61133  1  0  0  0
 61134  1  0  0  0
 62135  1  0  0  0
 62136  1  0  0  0
 62137  1  0  0  0
 63 65  1  0  0  0
 63138  1  0  0  0
 63139  1  0  0  0
 63140  1  0  0  0
 64141  1  0  0  0
 65142  1  0  0  0
 68 78  1  0  0  0
 71 72  2  0  0  0
 71 74  1  0  0  0
 71143  1  0  0  0
 72 75  1  0  0  0
 72144  1  0  0  0
 73 75  2  0  0  0
 73 76  1  0  0  0
 73145  1  0  0  0
 74 76  2  0  0  0
 74 80  1  0  0  0
 75 82  1  0  0  0
 76 81  1  0  0  0
 77 78  2  0  0  0
 77 79  1  0  0  0
 77146  1  0  0  0
 78147  1  0  0  0
 79 81  1  0  0  0
 79 83  2  0  0  0
 80148  1  0  0  0
 80149  1  0  0  0
 80150  1  0  0  0
 81151  1  0  0  0
 82152  1  0  0  0
M  ISO  4   1 100  68 101  78 101  82 100
M  END
> <chiral flag>
0

> <version>
0

> <s_m_source_file>
/data/baiqing/PycharmProjects/Reinvent-master-3.2/result/LINK_invent/BTK/process_docking_weight1_custom_product_contain_oxygen_bond_distance_aromatic_linkinvent_7_9_3/rearranged_h_0060.sdf

> <i_m_source_file_index>
43

> <r_mmod_Potential_Energy-OPLS-2005>
224.224456787109

> <r_mmod_Stretch_Energy-OPLS-2005>
153.590927124023

> <r_mmod_Bend_Energy-OPLS-2005>
169.149063110352

> <r_mmod_Torsional_Energy-OPLS-2005>
271.826141357422

> <r_mmod_Improper_Torsional_Energy-OPLS-2005>
8.25431823730469

> <r_mmod_Van_der_Waal_Energy-OPLS-2005>
140.354797363281

> <r_mmod_Electrostatic_Energy-OPLS-2005>
-403.116027832031

> <r_mmod_Solvation_Energy-OPLS-2005>
-230.445190429688

> <b_mmod_Minimization_Converged-OPLS-2005>
0

> <r_mmod_RMS_Derivative-OPLS-2005>
2.43646192550659

$$$$
43
                    3D
 Structure written by MMmdl.
162170  0  0  1  0            999 V2000
  -30.6725  -14.5119   20.6284 C   0  0  0  0  0  0
  -30.4492  -12.3525   19.4126 C   0  0  0  0  0  0
  -29.4980  -12.5137   18.2055 C   0  0  0  0  0  0
  -28.0201  -12.3648   18.6209 C   0  0  0  0  0  0
  -27.6663  -13.1996   19.8789 C   0  0  2  0  0  0
  -28.7122  -12.9588   20.9894 C   0  0  0  0  0  0
  -25.2628  -13.8155   20.5694 C   0  0  0  0  0  0
  -24.1845  -13.0462   20.9176 C   0  0  0  0  0  0
  -24.6377  -11.6916   20.8739 C   0  0  0  0  0  0
  -23.9034  -10.4308   21.0402 C   0  0  0  0  0  0
  -24.3587   -9.4215   21.9178 C   0  0  0  0  0  0
  -23.6270   -8.2246   22.0746 C   0  0  0  0  0  0
  -22.4262   -8.0277   21.3531 C   0  0  0  0  0  0
  -21.9887   -9.0256   20.4641 C   0  0  0  0  0  0
  -22.7204  -10.2141   20.3052 C   0  0  0  0  0  0
  -21.6848   -6.0725   22.5276 C   0  0  0  0  0  0
  -21.3999   -6.5627   23.8209 C   0  0  0  0  0  0
  -21.3652   -5.6782   24.9175 C   0  0  0  0  0  0
  -21.6050   -4.3039   24.7216 C   0  0  0  0  0  0
  -21.8826   -3.8138   23.4338 C   0  0  0  0  0  0
  -21.9189   -4.6962   22.3394 C   0  0  0  0  0  0
  -22.7867  -13.5272   21.1839 C   0  0  0  0  0  0
  -22.1662   -4.2148   21.0969 F   0  0  0  0  0  0
  -21.5639   -3.4523   25.7724 F   0  0  0  0  0  0
  -30.0383  -13.3150   20.4496 N   0  0  0  0  0  0
  -26.3058  -12.9304   20.3399 N   0  0  0  0  0  0
  -25.9302  -11.6476   20.5769 N   0  0  0  0  0  0
  -22.0481  -12.8282   22.0386 N   0  0  0  0  0  0
  -25.4435  -15.1877   20.4105 N   0  0  0  0  0  0
  -31.7773  -14.7629   20.1372 O   0  0  0  0  0  0
  -21.6632   -6.8868   21.4235 O   0  0  0  0  0  0
  -22.3558  -14.5568   20.6654 O   0  0  0  0  0  0
  -24.6210  -31.8649   23.2122 C   0  0  0  0  0  0
  -25.9080  -32.4813   23.8411 C   0  0  1  0  0  0
  -27.2192  -27.3805   20.1012 C   0  0  0  0  0  0
  -25.5923  -33.8610   24.2337 N   0  0  0  0  0  0
  -23.4088  -30.4991   21.5487 C   0  0  2  0  0  0
  -24.8517  -28.9654   20.1035 C   0  0  0  0  0  0
  -22.7417  -29.4687   22.4900 C   0  0  0  0  0  0
  -18.0292  -28.1405   22.8492 C   0  0  0  0  0  0
  -24.1468  -36.7287   23.2642 C   0  0  0  0  0  0
  -25.9460  -30.8132   21.3755 C   0  0  0  0  0  0
  -26.0162  -29.4492   20.7122 C   0  0  0  0  0  0
  -27.1996  -28.6655   20.7093 C   0  0  0  0  0  0
  -26.0367  -26.9450   19.4550 C   0  0  0  0  0  0
  -24.8602  -27.7166   19.4667 C   0  0  0  0  0  0
  -23.6210  -29.8447   20.1588 C   0  0  0  0  0  0
  -25.4092  -36.3100   24.0362 C   0  0  1  0  0  0
  -20.5881  -28.3685   23.1288 C   0  0  2  0  0  0
  -20.6753  -26.9407   22.5417 C   0  0  0  0  0  0
  -19.5748  -26.6392   21.5197 C   0  0  0  0  0  0
  -18.1934  -26.7956   22.1616 C   0  0  0  0  0  0
  -19.1543  -28.8855   23.2905 C   0  0  0  0  0  0
  -18.9473  -30.1454   23.8927 C   0  0  0  0  0  0
  -17.6478  -30.6600   24.0592 C   0  0  0  0  0  0
  -25.9034  -34.9473   23.5142 C   0  0  0  0  0  0
  -16.5368  -29.9117   23.6329 C   0  0  0  0  0  0
  -16.7283  -28.6537   23.0348 C   0  0  0  0  0  0
  -26.4497  -31.6621   25.0748 C   0  0  0  0  0  0
  -25.3780  -31.3761   26.1511 C   0  0  0  0  0  0
  -27.0299  -30.3049   24.6146 C   0  0  0  0  0  0
  -27.6055  -32.4362   25.7504 C   0  0  0  0  0  0
  -27.5579  -37.1798   24.8484 C   0  0  0  0  0  0
  -21.4141  -29.3065   22.3672 N   0  0  0  0  0  0
  -26.4269  -37.3795   23.9451 N   0  0  0  0  0  0
  -24.6771  -31.0737   22.1029 N   0  0  0  0  0  0
  -23.4171  -28.8199   23.2935 O   0  0  0  0  0  0
  -28.3585  -26.5749   20.1685 O   0  0  0  0  0  0
  -26.5566  -34.8926   22.4683 O   0  0  0  0  0  0
  -23.5404  -32.1407   23.7513 O   0  0  0  0  0  0
  -30.1795  -17.8981   20.8742 C   0  0  0  0  0  0
  -30.3313  -16.9948   23.1233 C   0  0  0  0  0  0
  -30.1890  -19.2438   21.3716 C   0  0  0  0  0  0
  -30.2350  -16.7679   21.7376 C   0  0  0  0  0  0
  -30.2975  -19.4257   22.7871 C   0  0  0  0  0  0
  -30.3588  -18.3024   23.6375 C   0  0  0  0  0  0
  -30.0534  -20.4021   20.3813 C   0  0  0  0  0  0
  -32.5853  -21.8943   22.4326 C   0  0  0  0  0  0
  -29.2018  -24.1421   20.5394 C   0  0  0  0  0  0
  -29.0089  -22.6842   19.9915 C   0  0  0  0  0  0
  -28.1966  -25.1516   19.8907 C   0  0  0  0  0  0
  -29.9419  -15.4305   21.3033 N   0  0  0  0  0  0
  -30.2744  -20.6710   23.4309 N   0  0  0  0  0  0
  -29.5508  -21.5804   20.8200 N   0  0  0  0  0  0
  -30.3231  -20.2239   19.1911 O   0  0  0  0  0  0
  -31.1089  -22.8331   24.4741 O   0  0  0  0  0  0
  -32.4269  -20.6710   24.8219 O   0  0  0  0  0  0
  -30.3943  -18.4815   24.9817 F   0  0  0  0  0  0
  -31.6478  -21.5680   23.9537 S   0  0  0  0  0  0
  -31.4814  -12.5097   19.0932 H   0  0  0  0  0  0
  -30.4136  -11.3339   19.8047 H   0  0  0  0  0  0
  -29.7443  -11.7824   17.4341 H   0  0  0  0  0  0
  -29.6472  -13.4957   17.7546 H   0  0  0  0  0  0
  -27.8329  -11.3079   18.8143 H   0  0  0  0  0  0
  -27.3656  -12.6390   17.7928 H   0  0  0  0  0  0
  -27.7185  -14.2489   19.5901 H   0  0  0  0  0  0
  -28.7105  -11.9067   21.2800 H   0  0  0  0  0  0
  -28.4561  -13.5022   21.8988 H   0  0  0  0  0  0
  -25.2738   -9.5697   22.4739 H   0  0  0  0  0  0
  -23.9993   -7.4635   22.7456 H   0  0  0  0  0  0
  -21.0818   -8.8759   19.8943 H   0  0  0  0  0  0
  -22.3658  -10.9669   19.6148 H   0  0  0  0  0  0
  -21.1975   -7.6135   23.9707 H   0  0  0  0  0  0
  -21.1472   -6.0507   25.9075 H   0  0  0  0  0  0
  -22.0610   -2.7604   23.2829 H   0  0  0  0  0  0
  -22.4053  -11.9938   22.4798 H   0  0  0  0  0  0
  -21.1092  -13.1319   22.2557 H   0  0  0  0  0  0
  -24.6937  -15.8608   20.5295 H   0  0  0  0  0  0
  -26.3118  -15.6135   20.1109 H   0  0  0  0  0  0
  -26.7121  -32.5469   23.1136 H   0  0  0  0  0  0
  -25.0136  -33.9782   25.0527 H   0  0  0  0  0  0
  -22.7037  -31.3234   21.4190 H   0  0  0  0  0  0
  -23.3735  -35.9617   23.3338 H   0  0  0  0  0  0
  -24.3551  -36.8852   22.2046 H   0  0  0  0  0  0
  -23.7209  -37.6504   23.6613 H   0  0  0  0  0  0
  -26.0773  -31.5855   20.6163 H   0  0  0  0  0  0
  -26.8287  -30.8534   22.0025 H   0  0  0  0  0  0
  -28.0882  -29.0313   21.2029 H   0  0  0  0  0  0
  -25.9881  -26.0009   18.9341 H   0  0  0  0  0  0
  -23.9687  -27.3467   18.9768 H   0  0  0  0  0  0
  -23.7491  -30.6336   19.4167 H   0  0  0  0  0  0
  -22.7374  -29.2859   19.8443 H   0  0  0  0  0  0
  -25.1275  -36.1959   25.0860 H   0  0  0  0  0  0
  -21.0025  -28.3253   24.1388 H   0  0  0  0  0  0
  -20.5585  -26.2309   23.3624 H   0  0  0  0  0  0
  -21.6635  -26.7423   22.1256 H   0  0  0  0  0  0
  -19.6901  -25.6301   21.1223 H   0  0  0  0  0  0
  -19.6701  -27.3190   20.6719 H   0  0  0  0  0  0
  -17.4211  -26.6728   21.4015 H   0  0  0  0  0  0
  -18.0343  -26.0100   22.9017 H   0  0  0  0  0  0
  -19.7956  -30.7257   24.2298 H   0  0  0  0  0  0
  -17.5054  -31.6275   24.5215 H   0  0  0  0  0  0
  -15.5371  -30.3047   23.7635 H   0  0  0  0  0  0
  -15.8689  -28.0873   22.7035 H   0  0  0  0  0  0
  -24.5981  -30.7047   25.7909 H   0  0  0  0  0  0
  -24.8939  -32.2925   26.4900 H   0  0  0  0  0  0
  -25.8178  -30.9025   27.0296 H   0  0  0  0  0  0
  -26.2825  -29.6822   24.1194 H   0  0  0  0  0  0
  -27.4039  -29.7293   25.4622 H   0  0  0  0  0  0
  -27.8710  -30.4365   23.9327 H   0  0  0  0  0  0
  -27.2643  -33.3656   26.2084 H   0  0  0  0  0  0
  -28.3849  -32.6924   25.0317 H   0  0  0  0  0  0
  -28.0720  -31.8482   26.5414 H   0  0  0  0  0  0
  -28.2630  -38.0058   24.7492 H   0  0  0  0  0  0
  -28.1034  -36.2593   24.6344 H   0  0  0  0  0  0
  -27.2314  -37.1525   25.8890 H   0  0  0  0  0  0
  -20.9249  -29.8853   21.6993 H   0  0  0  0  0  0
  -26.0162  -38.2881   24.1432 H   0  0  0  0  0  0
  -30.0581  -17.7329   19.8142 H   0  0  0  0  0  0
  -30.3417  -16.1681   23.8182 H   0  0  0  0  0  0
  -31.9723  -22.4635   21.7400 H   0  0  0  0  0  0
  -32.8955  -20.9548   21.9824 H   0  0  0  0  0  0
  -33.4695  -22.4790   22.6809 H   0  0  0  0  0  0
  -30.2290  -24.4672   20.3664 H   0  0  0  0  0  0
  -29.0559  -24.1538   21.6203 H   0  0  0  0  0  0
  -29.4040  -22.6297   18.9755 H   0  0  0  0  0  0
  -27.9405  -22.4860   19.8932 H   0  0  0  0  0  0
  -27.2197  -24.8129   20.2398 H   0  0  0  0  0  0
  -28.2019  -25.0229   18.8081 H   0  0  0  0  0  0
  -29.0862  -15.0437   21.6715 H   0  0  0  0  0  0
  -29.6727  -20.5982   24.2442 H   0  0  0  0  0  0
  -29.3926  -21.6266   21.8212 H   0  0  0  0  0  0
  1 25  1  0  0  0
  1 30  2  0  0  0
  1 82  1  0  0  0
  2  3  1  0  0  0
  2 25  1  0  0  0
  2 90  1  0  0  0
  2 91  1  0  0  0
  3  4  1  0  0  0
  3 92  1  0  0  0
  3 93  1  0  0  0
  4  5  1  0  0  0
  4 94  1  0  0  0
  4 95  1  0  0  0
  5  6  1  0  0  0
  5 26  1  0  0  0
  5 96  1  0  0  0
  6 25  1  0  0  0
  6 97  1  0  0  0
  6 98  1  0  0  0
  7  8  2  0  0  0
  7 26  1  0  0  0
  7 29  1  0  0  0
  8  9  1  0  0  0
  8 22  1  0  0  0
  9 10  1  0  0  0
  9 27  2  0  0  0
 10 11  2  0  0  0
 10 15  1  0  0  0
 11 12  1  0  0  0
 11 99  1  0  0  0
 12 13  2  0  0  0
 12100  1  0  0  0
 13 14  1  0  0  0
 13 31  1  0  0  0
 14 15  2  0  0  0
 14101  1  0  0  0
 15102  1  0  0  0
 16 17  2  0  0  0
 16 21  1  0  0  0
 16 31  1  0  0  0
 17 18  1  0  0  0
 17103  1  0  0  0
 18 19  2  0  0  0
 18104  1  0  0  0
 19 20  1  0  0  0
 19 24  1  0  0  0
 20 21  2  0  0  0
 20105  1  0  0  0
 21 23  1  0  0  0
 22 28  1  0  0  0
 22 32  2  0  0  0
 26 27  1  0  0  0
 28106  1  0  0  0
 28107  1  0  0  0
 29108  1  0  0  0
 29109  1  0  0  0
 33 34  1  0  0  0
 33 66  1  0  0  0
 33 70  2  0  0  0
 34 36  1  0  0  0
 34 59  1  0  0  0
 34110  1  0  0  0
 35 44  2  0  0  0
 35 45  1  0  0  0
 35 68  1  0  0  0
 36 56  1  0  0  0
 36111  1  0  0  0
 37 39  1  0  0  0
 37 47  1  0  0  0
 37 66  1  0  0  0
 37112  1  0  0  0
 38 43  2  0  0  0
 38 46  1  0  0  0
 38 47  1  0  0  0
 39 64  1  0  0  0
 39 67  2  0  0  0
 40 52  1  0  0  0
 40 53  2  0  0  0
 40 58  1  0  0  0
 41113  1  0  0  0
 41114  1  0  0  0
 41115  1  0  0  0
 41 48  1  0  0  0
 42 43  1  0  0  0
 42 66  1  0  0  0
 42116  1  0  0  0
 42117  1  0  0  0
 43 44  1  0  0  0
 44118  1  0  0  0
 45 46  2  0  0  0
 45119  1  0  0  0
 46120  1  0  0  0
 47121  1  0  0  0
 47122  1  0  0  0
 48 56  1  0  0  0
 48 65  1  0  0  0
 48123  1  0  0  0
 49 50  1  0  0  0
 49 53  1  0  0  0
 49 64  1  0  0  0
 49124  1  0  0  0
 50 51  1  0  0  0
 50125  1  0  0  0
 50126  1  0  0  0
 51 52  1  0  0  0
 51127  1  0  0  0
 51128  1  0  0  0
 52129  1  0  0  0
 52130  1  0  0  0
 53 54  1  0  0  0
 54 55  2  0  0  0
 54131  1  0  0  0
 55 57  1  0  0  0
 55132  1  0  0  0
 56 69  2  0  0  0
 57 58  2  0  0  0
 57133  1  0  0  0
 58134  1  0  0  0
 59 60  1  0  0  0
 59 61  1  0  0  0
 59 62  1  0  0  0
 60135  1  0  0  0
 60136  1  0  0  0
 60137  1  0  0  0
 61138  1  0  0  0
 61139  1  0  0  0
 61140  1  0  0  0
 62141  1  0  0  0
 62142  1  0  0  0
 62143  1  0  0  0
 63 65  1  0  0  0
 63144  1  0  0  0
 63145  1  0  0  0
 63146  1  0  0  0
 64147  1  0  0  0
 65148  1  0  0  0
 68 81  1  0  0  0
 71 73  2  0  0  0
 71 74  1  0  0  0
 71149  1  0  0  0
 72 74  2  0  0  0
 72 76  1  0  0  0
 72150  1  0  0  0
 73 75  1  0  0  0
 73 77  1  0  0  0
 74 82  1  0  0  0
 75 76  2  0  0  0
 75 83  1  0  0  0
 76 88  1  0  0  0
 77 84  1  0  0  0
 77 85  2  0  0  0
 78151  1  0  0  0
 78152  1  0  0  0
 78153  1  0  0  0
 78 89  1  0  0  0
 79 80  1  0  0  0
 79 81  1  0  0  0
 79154  1  0  0  0
 79155  1  0  0  0
 80 84  1  0  0  0
 80156  1  0  0  0
 80157  1  0  0  0
 81158  1  0  0  0
 81159  1  0  0  0
 82160  1  0  0  0
 83 89  1  0  0  0
 83161  1  0  0  0
 84162  1  0  0  0
 86 89  2  0  0  0
 87 89  2  0  0  0
M  ISO  4   1 100  68 101  81 101  82 100
M  END
> <chiral flag>
0

> <version>
0

> <s_m_source_file>
/data/baiqing/PycharmProjects/Reinvent-master-3.2/result/LINK_invent/BTK/process_docking_weight1_custom_product_contain_oxygen_bond_distance_aromatic_linkinvent_7_9_3/rearranged_h_0060.sdf

> <i_m_source_file_index>
44

> <r_mmod_Potential_Energy-OPLS-2005>
-314.098449707031

> <r_mmod_Stretch_Energy-OPLS-2005>
53.8434219360352

> <r_mmod_Bend_Energy-OPLS-2005>
126.775062561035

> <r_mmod_Torsional_Energy-OPLS-2005>
263.101287841797

> <r_mmod_Improper_Torsional_Energy-OPLS-2005>
10.5034790039062

> <r_mmod_Van_der_Waal_Energy-OPLS-2005>
149.660491943359

> <r_mmod_Electrostatic_Energy-OPLS-2005>
-669.714538574219

> <r_mmod_Solvation_Energy-OPLS-2005>
-271.881927490234

> <b_mmod_Minimization_Converged-OPLS-2005>
0

> <r_mmod_RMS_Derivative-OPLS-2005>
3.22150111198425

$$$$
44
                    3D
 Structure written by MMmdl.
164172  0  0  1  0            999 V2000
  -30.7453  -14.4149   20.5933 C   0  0  0  0  0  0
  -30.4205  -12.2625   19.4475 C   0  0  0  0  0  0
  -29.5154  -12.5153   18.2260 C   0  0  0  0  0  0
  -28.0295  -12.3822   18.6182 C   0  0  0  0  0  0
  -27.6743  -13.2133   19.8796 C   0  0  2  0  0  0
  -28.7078  -12.9811   21.0024 C   0  0  0  0  0  0
  -25.2623  -13.8216   20.5708 C   0  0  0  0  0  0
  -24.1863  -13.0445   20.9140 C   0  0  0  0  0  0
  -24.6440  -11.6918   20.8630 C   0  0  0  0  0  0
  -23.9154  -10.4288   21.0312 C   0  0  0  0  0  0
  -24.3700   -9.4224   21.9118 C   0  0  0  0  0  0
  -23.6356   -8.2270   22.0723 C   0  0  0  0  0  0
  -22.4320   -8.0318   21.3553 C   0  0  0  0  0  0
  -21.9963   -9.0279   20.4636 C   0  0  0  0  0  0
  -22.7303  -10.2145   20.3009 C   0  0  0  0  0  0
  -21.6858   -6.0777   22.5280 C   0  0  0  0  0  0
  -21.4029   -6.5672   23.8221 C   0  0  0  0  0  0
  -21.3652   -5.6808   24.9161 C   0  0  0  0  0  0
  -21.6026   -4.3067   24.7189 C   0  0  0  0  0  0
  -21.8822   -3.8176   23.4299 C   0  0  0  0  0  0
  -21.9206   -4.7004   22.3379 C   0  0  0  0  0  0
  -22.7855  -13.5157   21.1824 C   0  0  0  0  0  0
  -22.1670   -4.2203   21.0953 F   0  0  0  0  0  0
  -21.5613   -3.4549   25.7698 F   0  0  0  0  0  0
  -30.0569  -13.2481   20.4721 N   0  0  0  0  0  0
  -26.3095  -12.9395   20.3346 N   0  0  0  0  0  0
  -25.9380  -11.6526   20.5664 N   0  0  0  0  0  0
  -22.0604  -12.8122   22.0416 N   0  0  0  0  0  0
  -25.4320  -15.1952   20.4282 N   0  0  0  0  0  0
  -31.8443  -14.6024   20.0669 O   0  0  0  0  0  0
  -21.6647   -6.8939   21.4264 O   0  0  0  0  0  0
  -22.3444  -14.5434   20.6688 O   0  0  0  0  0  0
  -24.6088  -31.8667   23.2086 C   0  0  0  0  0  0
  -25.8978  -32.4808   23.8363 C   0  0  1  0  0  0
  -27.2366  -27.4788   20.0956 C   0  0  0  0  0  0
  -25.5870  -33.8612   24.2301 N   0  0  0  0  0  0
  -23.3969  -30.4807   21.5524 C   0  0  2  0  0  0
  -24.8474  -28.9621   20.1203 C   0  0  0  0  0  0
  -22.7440  -29.4472   22.4990 C   0  0  0  0  0  0
  -18.0306  -28.1466   22.8593 C   0  0  0  0  0  0
  -24.1491  -36.7344   23.2632 C   0  0  0  0  0  0
  -25.9195  -30.8602   21.3432 C   0  0  0  0  0  0
  -26.0087  -29.4963   20.6909 C   0  0  0  0  0  0
  -27.2129  -28.7663   20.6673 C   0  0  0  0  0  0
  -26.0621  -26.9436   19.5316 C   0  0  0  0  0  0
  -24.8624  -27.6773   19.5506 C   0  0  0  0  0  0
  -23.6092  -29.8237   20.1637 C   0  0  0  0  0  0
  -25.4090  -36.3125   24.0327 C   0  0  1  0  0  0
  -20.5868  -28.3579   23.1460 C   0  0  2  0  0  0
  -20.6643  -26.9233   22.5617 C   0  0  0  0  0  0
  -19.5685  -26.6379   21.5349 C   0  0  0  0  0  0
  -18.1938  -26.7960   22.1910 C   0  0  0  0  0  0
  -19.1566  -28.8893   23.2952 C   0  0  0  0  0  0
  -18.9591  -30.1516   23.8899 C   0  0  0  0  0  0
  -17.6627  -30.6653   24.0610 C   0  0  0  0  0  0
  -25.8999  -34.9484   23.5103 C   0  0  0  0  0  0
  -16.5455  -29.9233   23.6422 C   0  0  0  0  0  0
  -16.7294  -28.6658   23.0466 C   0  0  0  0  0  0
  -26.4431  -31.6594   25.0682 C   0  0  0  0  0  0
  -25.3705  -31.3723   26.1431 C   0  0  0  0  0  0
  -27.0250  -30.3066   24.5981 C   0  0  0  0  0  0
  -27.6007  -32.4292   25.7443 C   0  0  0  0  0  0
  -27.5582  -37.1790   24.8452 C   0  0  0  0  0  0
  -21.4151  -29.2868   22.3778 N   0  0  0  0  0  0
  -26.4305  -37.3791   23.9391 N   0  0  0  0  0  0
  -24.6594  -31.0779   22.0963 N   0  0  0  0  0  0
  -23.4244  -28.8020   23.3019 O   0  0  0  0  0  0
  -28.3784  -26.7269   20.1576 O   0  0  0  0  0  0
  -26.5591  -34.8944   22.4677 O   0  0  0  0  0  0
  -23.5293  -32.1349   23.7512 O   0  0  0  0  0  0
  -30.5043  -18.7225   19.6436 C   0  0  0  0  0  0
  -29.5090  -19.4459   20.3109 C   0  0  0  0  0  0
  -30.7540  -17.3902   19.9859 C   0  0  0  0  0  0
  -28.7587  -18.8685   21.3637 C   0  0  0  0  0  0
  -29.0431  -17.5140   21.7367 C   0  0  0  0  0  0
  -30.0109  -16.7614   21.0112 C   0  0  0  0  0  0
  -27.6437  -19.6709   22.0126 C   0  0  0  0  0  0
  -26.0004  -21.6885   20.4815 C   0  0  0  0  0  0
  -28.3222  -16.8093   22.8871 C   0  0  0  0  0  0
  -27.9944  -24.4006   20.7509 C   0  0  0  0  0  0
  -27.4204  -23.4207   21.7909 C   0  0  0  0  0  0
  -28.3514  -25.8054   21.2556 C   0  0  0  0  0  0
  -27.3366  -21.9967   21.1914 C   0  0  1  0  0  0
  -24.9579  -21.3542   21.2360 N   0  0  0  0  0  0
  -30.1279  -15.3689   21.3115 N   0  0  0  0  0  0
  -27.8086  -20.9929   22.1565 N   0  0  0  0  0  0
  -26.6560  -19.1308   22.5030 O   0  0  0  0  0  0
  -25.9124  -21.7177   19.2560 O   0  0  0  0  0  0
  -31.4747  -12.3197   19.1719 H   0  0  0  0  0  0
  -30.2643  -11.2516   19.8285 H   0  0  0  0  0  0
  -29.7618  -11.8151   17.4299 H   0  0  0  0  0  0
  -29.7081  -13.5156   17.8309 H   0  0  0  0  0  0
  -27.8277  -11.3277   18.8068 H   0  0  0  0  0  0
  -27.3934  -12.6763   17.7795 H   0  0  0  0  0  0
  -27.7339  -14.2666   19.5989 H   0  0  0  0  0  0
  -28.6466  -11.9546   21.3628 H   0  0  0  0  0  0
  -28.4676  -13.5988   21.8652 H   0  0  0  0  0  0
  -25.2851   -9.5662   22.4706 H   0  0  0  0  0  0
  -24.0037   -7.4644   22.7451 H   0  0  0  0  0  0
  -21.0884   -8.8790   19.8971 H   0  0  0  0  0  0
  -22.3732  -10.9684   19.6119 H   0  0  0  0  0  0
  -21.2041   -7.6189   23.9716 H   0  0  0  0  0  0
  -21.1475   -6.0546   25.9059 H   0  0  0  0  0  0
  -22.0616   -2.7653   23.2763 H   0  0  0  0  0  0
  -22.4274  -11.9792   22.4791 H   0  0  0  0  0  0
  -21.1235  -13.1141   22.2668 H   0  0  0  0  0  0
  -24.6777  -15.8478   20.6111 H   0  0  0  0  0  0
  -26.3045  -15.6653   20.2222 H   0  0  0  0  0  0
  -26.7068  -32.5598   23.1161 H   0  0  0  0  0  0
  -24.9970  -33.9737   25.0413 H   0  0  0  0  0  0
  -22.6749  -31.2845   21.4130 H   0  0  0  0  0  0
  -23.3760  -35.9688   23.3301 H   0  0  0  0  0  0
  -24.3588  -36.8943   22.2060 H   0  0  0  0  0  0
  -23.7285  -37.6548   23.6643 H   0  0  0  0  0  0
  -26.0016  -31.6310   20.5719 H   0  0  0  0  0  0
  -26.8219  -30.9313   21.9379 H   0  0  0  0  0  0
  -28.1172  -29.1700   21.0973 H   0  0  0  0  0  0
  -26.0599  -25.9582   19.0929 H   0  0  0  0  0  0
  -23.9581  -27.2362   19.1475 H   0  0  0  0  0  0
  -23.7436  -30.6075   19.4186 H   0  0  0  0  0  0
  -22.7385  -29.2439   19.8424 H   0  0  0  0  0  0
  -25.1287  -36.1948   25.0833 H   0  0  0  0  0  0
  -20.9909  -28.3177   24.1578 H   0  0  0  0  0  0
  -20.5284  -26.2213   23.3869 H   0  0  0  0  0  0
  -21.6586  -26.7031   22.1687 H   0  0  0  0  0  0
  -19.6666  -25.6323   21.1314 H   0  0  0  0  0  0
  -19.6607  -27.3343   20.7002 H   0  0  0  0  0  0
  -17.4114  -26.6558   21.4457 H   0  0  0  0  0  0
  -18.0462  -26.0339   22.9592 H   0  0  0  0  0  0
  -19.8127  -30.7306   24.2176 H   0  0  0  0  0  0
  -17.5197  -31.6281   24.5315 H   0  0  0  0  0  0
  -15.5454  -30.3149   23.7831 H   0  0  0  0  0  0
  -15.8592  -28.1064   22.7365 H   0  0  0  0  0  0
  -24.5831  -30.7108   25.7792 H   0  0  0  0  0  0
  -24.8949  -32.2915   26.4877 H   0  0  0  0  0  0
  -25.8056  -30.8891   27.0186 H   0  0  0  0  0  0
  -26.2791  -29.6834   24.1019 H   0  0  0  0  0  0
  -27.4090  -29.7263   25.4379 H   0  0  0  0  0  0
  -27.8592  -30.4470   23.9094 H   0  0  0  0  0  0
  -27.2621  -33.3548   26.2110 H   0  0  0  0  0  0
  -28.3791  -32.6872   25.0264 H   0  0  0  0  0  0
  -28.0701  -31.8334   26.5268 H   0  0  0  0  0  0
  -28.2560  -38.0115   24.7497 H   0  0  0  0  0  0
  -28.1102  -36.2625   24.6280 H   0  0  0  0  0  0
  -27.2291  -37.1473   25.8852 H   0  0  0  0  0  0
  -20.9271  -29.8525   21.6972 H   0  0  0  0  0  0
  -26.0183  -38.2855   24.1436 H   0  0  0  0  0  0
  -31.0587  -19.1873   18.8384 H   0  0  0  0  0  0
  -29.3354  -20.4496   19.9617 H   0  0  0  0  0  0
  -31.5084  -16.8697   19.4115 H   0  0  0  0  0  0
  -27.5075  -16.2035   22.4873 H   0  0  0  0  0  0
  -27.9027  -17.4709   23.6393 H   0  0  0  0  0  0
  -28.9994  -16.1678   23.4492 H   0  0  0  0  0  0
  -28.9096  -23.9803   20.3384 H   0  0  0  0  0  0
  -27.2958  -24.4488   19.9169 H   0  0  0  0  0  0
  -26.4325  -23.7603   22.1171 H   0  0  0  0  0  0
  -28.0430  -23.4178   22.6845 H   0  0  0  0  0  0
  -29.3437  -25.7777   21.7067 H   0  0  0  0  0  0
  -27.6761  -26.1282   22.0519 H   0  0  0  0  0  0
  -28.0664  -21.9649   20.3926 H   0  0  0  0  0  0
  -25.0354  -21.3382   22.2405 H   0  0  0  0  0  0
  -24.0815  -21.0911   20.8105 H   0  0  0  0  0  0
  -29.3986  -15.0172   21.9024 H   0  0  0  0  0  0
  -27.5545  -21.2765   23.0895 H   0  0  0  0  0  0
  1 25  1  0  0  0
  1 30  2  0  0  0
  1 85  1  0  0  0
  2  3  1  0  0  0
  2 25  1  0  0  0
  2 89  1  0  0  0
  2 90  1  0  0  0
  3  4  1  0  0  0
  3 91  1  0  0  0
  3 92  1  0  0  0
  4  5  1  0  0  0
  4 93  1  0  0  0
  4 94  1  0  0  0
  5  6  1  0  0  0
  5 26  1  0  0  0
  5 95  1  0  0  0
  6 25  1  0  0  0
  6 96  1  0  0  0
  6 97  1  0  0  0
  7  8  2  0  0  0
  7 26  1  0  0  0
  7 29  1  0  0  0
  8  9  1  0  0  0
  8 22  1  0  0  0
  9 10  1  0  0  0
  9 27  2  0  0  0
 10 11  2  0  0  0
 10 15  1  0  0  0
 11 12  1  0  0  0
 11 98  1  0  0  0
 12 13  2  0  0  0
 12 99  1  0  0  0
 13 14  1  0  0  0
 13 31  1  0  0  0
 14 15  2  0  0  0
 14100  1  0  0  0
 15101  1  0  0  0
 16 17  2  0  0  0
 16 21  1  0  0  0
 16 31  1  0  0  0
 17 18  1  0  0  0
 17102  1  0  0  0
 18 19  2  0  0  0
 18103  1  0  0  0
 19 20  1  0  0  0
 19 24  1  0  0  0
 20 21  2  0  0  0
 20104  1  0  0  0
 21 23  1  0  0  0
 22 28  1  0  0  0
 22 32  2  0  0  0
 26 27  1  0  0  0
 28105  1  0  0  0
 28106  1  0  0  0
 29107  1  0  0  0
 29108  1  0  0  0
 33 34  1  0  0  0
 33 66  1  0  0  0
 33 70  2  0  0  0
 34 36  1  0  0  0
 34 59  1  0  0  0
 34109  1  0  0  0
 35 44  2  0  0  0
 35 45  1  0  0  0
 35 68  1  0  0  0
 36 56  1  0  0  0
 36110  1  0  0  0
 37 39  1  0  0  0
 37 47  1  0  0  0
 37 66  1  0  0  0
 37111  1  0  0  0
 38 43  2  0  0  0
 38 46  1  0  0  0
 38 47  1  0  0  0
 39 64  1  0  0  0
 39 67  2  0  0  0
 40 52  1  0  0  0
 40 53  2  0  0  0
 40 58  1  0  0  0
 41112  1  0  0  0
 41113  1  0  0  0
 41114  1  0  0  0
 41 48  1  0  0  0
 42 43  1  0  0  0
 42 66  1  0  0  0
 42115  1  0  0  0
 42116  1  0  0  0
 43 44  1  0  0  0
 44117  1  0  0  0
 45 46  2  0  0  0
 45118  1  0  0  0
 46119  1  0  0  0
 47120  1  0  0  0
 47121  1  0  0  0
 48 56  1  0  0  0
 48 65  1  0  0  0
 48122  1  0  0  0
 49 50  1  0  0  0
 49 53  1  0  0  0
 49 64  1  0  0  0
 49123  1  0  0  0
 50 51  1  0  0  0
 50124  1  0  0  0
 50125  1  0  0  0
 51 52  1  0  0  0
 51126  1  0  0  0
 51127  1  0  0  0
 52128  1  0  0  0
 52129  1  0  0  0
 53 54  1  0  0  0
 54 55  2  0  0  0
 54130  1  0  0  0
 55 57  1  0  0  0
 55131  1  0  0  0
 56 69  2  0  0  0
 57 58  2  0  0  0
 57132  1  0  0  0
 58133  1  0  0  0
 59 60  1  0  0  0
 59 61  1  0  0  0
 59 62  1  0  0  0
 60134  1  0  0  0
 60135  1  0  0  0
 60136  1  0  0  0
 61137  1  0  0  0
 61138  1  0  0  0
 61139  1  0  0  0
 62140  1  0  0  0
 62141  1  0  0  0
 62142  1  0  0  0
 63 65  1  0  0  0
 63143  1  0  0  0
 63144  1  0  0  0
 63145  1  0  0  0
 64146  1  0  0  0
 65147  1  0  0  0
 68 82  1  0  0  0
 71 72  2  0  0  0
 71 73  1  0  0  0
 71148  1  0  0  0
 72 74  1  0  0  0
 72149  1  0  0  0
 73 76  2  0  0  0
 73150  1  0  0  0
 74 75  2  0  0  0
 74 77  1  0  0  0
 75 76  1  0  0  0
 75 79  1  0  0  0
 76 85  1  0  0  0
 77 86  1  0  0  0
 77 87  2  0  0  0
 78 83  1  0  0  0
 78 84  1  0  0  0
 78 88  2  0  0  0
 79151  1  0  0  0
 79152  1  0  0  0
 79153  1  0  0  0
 80 81  1  0  0  0
 80 82  1  0  0  0
 80154  1  0  0  0
 80155  1  0  0  0
 81156  1  0  0  0
 81157  1  0  0  0
 81 83  1  0  0  0
 82158  1  0  0  0
 82159  1  0  0  0
 83 86  1  0  0  0
 83160  1  0  0  0
 84161  1  0  0  0
 84162  1  0  0  0
 85163  1  0  0  0
 86164  1  0  0  0
M  ISO  4   1 100  68 101  82 101  85 100
M  END
> <chiral flag>
0

> <version>
0

> <s_m_source_file>
/data/baiqing/PycharmProjects/Reinvent-master-3.2/result/LINK_invent/BTK/process_docking_weight1_custom_product_contain_oxygen_bond_distance_aromatic_linkinvent_7_9_3/rearranged_h_0060.sdf

> <i_m_source_file_index>
45

> <r_mmod_Potential_Energy-OPLS-2005>
-207.773361206055

> <r_mmod_Stretch_Energy-OPLS-2005>
38.8698692321777

> <r_mmod_Bend_Energy-OPLS-2005>
115.254135131836

> <r_mmod_Torsional_Energy-OPLS-2005>
329.01171875

> <r_mmod_Improper_Torsional_Energy-OPLS-2005>
9.51161003112793

> <r_mmod_Van_der_Waal_Energy-OPLS-2005>
180.159866333008

> <r_mmod_Electrostatic_Energy-OPLS-2005>
-640.804382324219

> <r_mmod_Solvation_Energy-OPLS-2005>
-251.756591796875

> <b_mmod_Minimization_Converged-OPLS-2005>
0

> <r_mmod_RMS_Derivative-OPLS-2005>
9.29232883453369

$$$$
45
                    3D
 Structure written by MMmdl.
174183  0  0  1  0            999 V2000
  -30.7123  -14.4199   20.5838 C   0  0  0  0  0  0
  -30.3994  -12.2748   19.4223 C   0  0  0  0  0  0
  -29.4909  -12.5257   18.2037 C   0  0  0  0  0  0
  -28.0073  -12.4007   18.5970 C   0  0  0  0  0  0
  -27.6559  -13.2171   19.8736 C   0  0  2  0  0  0
  -28.6896  -12.9676   20.9942 C   0  0  0  0  0  0
  -25.2509  -13.8202   20.5662 C   0  0  0  0  0  0
  -24.1797  -13.0443   20.9184 C   0  0  0  0  0  0
  -24.6390  -11.6915   20.8731 C   0  0  0  0  0  0
  -23.9057  -10.4286   21.0393 C   0  0  0  0  0  0
  -24.3643   -9.4211   21.9175 C   0  0  0  0  0  0
  -23.6329   -8.2241   22.0731 C   0  0  0  0  0  0
  -22.4300   -8.0265   21.3545 C   0  0  0  0  0  0
  -21.9935   -9.0219   20.4627 C   0  0  0  0  0  0
  -22.7256  -10.2110   20.3024 C   0  0  0  0  0  0
  -21.6865   -6.0725   22.5274 C   0  0  0  0  0  0
  -21.4027   -6.5625   23.8212 C   0  0  0  0  0  0
  -21.3698   -5.6776   24.9169 C   0  0  0  0  0  0
  -21.6045   -4.3031   24.7227 C   0  0  0  0  0  0
  -21.8818   -3.8130   23.4354 C   0  0  0  0  0  0
  -21.9200   -4.6954   22.3411 C   0  0  0  0  0  0
  -22.7815  -13.5211   21.1868 C   0  0  0  0  0  0
  -22.1639   -4.2125   21.0990 F   0  0  0  0  0  0
  -21.5663   -3.4533   25.7760 F   0  0  0  0  0  0
  -30.0295  -13.2521   20.4558 N   0  0  0  0  0  0
  -26.2972  -12.9399   20.3332 N   0  0  0  0  0  0
  -25.9308  -11.6551   20.5738 N   0  0  0  0  0  0
  -22.0457  -12.8177   22.0414 N   0  0  0  0  0  0
  -25.4175  -15.1923   20.4054 N   0  0  0  0  0  0
  -31.8294  -14.5888   20.0830 O   0  0  0  0  0  0
  -21.6660   -6.8874   21.4234 O   0  0  0  0  0  0
  -22.3487  -14.5517   20.6724 O   0  0  0  0  0  0
  -24.6163  -31.8668   23.2135 C   0  0  0  0  0  0
  -25.9087  -32.4795   23.8387 C   0  0  1  0  0  0
  -27.2286  -27.4262   20.0771 C   0  0  0  0  0  0
  -25.5942  -33.8593   24.2321 N   0  0  0  0  0  0
  -23.4021  -30.4940   21.5543 C   0  0  2  0  0  0
  -24.8423  -28.9604   20.1175 C   0  0  0  0  0  0
  -22.7431  -29.4636   22.4993 C   0  0  0  0  0  0
  -18.0278  -28.1365   22.8476 C   0  0  0  0  0  0
  -24.1481  -36.7300   23.2638 C   0  0  0  0  0  0
  -25.9349  -30.8244   21.3729 C   0  0  0  0  0  0
  -26.0064  -29.4609   20.7146 C   0  0  0  0  0  0
  -27.1995  -28.7011   20.6941 C   0  0  0  0  0  0
  -26.0287  -26.9273   19.5172 C   0  0  0  0  0  0
  -24.8474  -27.6898   19.5207 C   0  0  0  0  0  0
  -23.6107  -29.8373   20.1645 C   0  0  0  0  0  0
  -25.4108  -36.3086   24.0328 C   0  0  1  0  0  0
  -20.5868  -28.3652   23.1321 C   0  0  2  0  0  0
  -20.6781  -26.9384   22.5441 C   0  0  0  0  0  0
  -19.5760  -26.6370   21.5235 C   0  0  0  0  0  0
  -18.1923  -26.7916   22.1602 C   0  0  0  0  0  0
  -19.1522  -28.8828   23.2888 C   0  0  0  0  0  0
  -18.9438  -30.1441   23.8890 C   0  0  0  0  0  0
  -17.6435  -30.6565   24.0562 C   0  0  0  0  0  0
  -25.9042  -34.9460   23.5117 C   0  0  0  0  0  0
  -16.5331  -29.9061   23.6326 C   0  0  0  0  0  0
  -16.7263  -28.6486   23.0331 C   0  0  0  0  0  0
  -26.4530  -31.6573   25.0721 C   0  0  0  0  0  0
  -25.3824  -31.3660   26.1482 C   0  0  0  0  0  0
  -27.0368  -30.2993   24.6144 C   0  0  0  0  0  0
  -27.6073  -32.4327   25.7502 C   0  0  0  0  0  0
  -27.5584  -37.1811   24.8465 C   0  0  0  0  0  0
  -21.4158  -29.3003   22.3730 N   0  0  0  0  0  0
  -26.4283  -37.3788   23.9415 N   0  0  0  0  0  0
  -24.6690  -31.0773   22.1037 N   0  0  0  0  0  0
  -23.4215  -28.8181   23.3031 O   0  0  0  0  0  0
  -28.4055  -26.6962   20.0571 O   0  0  0  0  0  0
  -26.5594  -34.8922   22.4673 O   0  0  0  0  0  0
  -23.5367  -32.1422   23.7553 O   0  0  0  0  0  0
  -32.0441  -18.5802   21.0700 C   0  0  0  0  0  0
  -31.6785  -17.2589   21.3640 C   0  0  0  0  0  0
  -29.4391  -17.7419   20.5757 C   0  0  0  0  0  0
  -31.1433  -19.4836   20.4578 C   0  0  0  0  0  0
  -29.7799  -19.0918   20.2825 C   0  0  0  0  0  0
  -30.3876  -16.8062   21.0489 C   0  0  0  0  0  0
  -28.3891  -22.2218   20.6973 C   0  0  0  0  0  0
  -34.2263  -20.9556   19.8006 C   0  0  0  0  0  0
  -28.1787  -23.7422   20.5002 C   0  0  0  0  0  0
  -28.4766  -23.4523   18.0510 C   0  0  0  0  0  0
  -28.7159  -21.9392   18.2333 C   0  0  0  0  0  0
  -28.8926  -24.3110   19.2578 C   0  0  1  0  0  0
  -35.5442  -20.5861   19.1082 C   0  0  0  0  0  0
  -32.9261  -19.8674   17.9811 C   0  0  0  0  0  0
  -28.6181  -19.9451   19.7082 C   0  0  0  0  0  0
  -31.7512  -20.7913   19.9465 C   0  0  0  0  0  0
  -28.6353  -25.8173   18.9399 C   0  0  0  0  0  0
  -28.6595  -21.4306   19.6236 N   0  0  0  0  0  0
  -30.0473  -15.4273   21.1826 N   0  0  0  0  0  0
  -33.0397  -20.5863   19.2574 N   0  0  0  0  0  0
  -28.2504  -21.7662   21.8357 O   0  0  0  0  0  0
  -34.3005  -21.5668   20.8701 O   0  0  0  0  0  0
  -31.4496  -12.3344   19.1338 H   0  0  0  0  0  0
  -30.2534  -11.2590   19.7951 H   0  0  0  0  0  0
  -29.7288  -11.8182   17.4110 H   0  0  0  0  0  0
  -29.6806  -13.5211   17.7926 H   0  0  0  0  0  0
  -27.7928  -11.3431   18.7536 H   0  0  0  0  0  0
  -27.3713  -12.7131   17.7670 H   0  0  0  0  0  0
  -27.7046  -14.2737   19.6099 H   0  0  0  0  0  0
  -28.6415  -11.9257   21.3132 H   0  0  0  0  0  0
  -28.4572  -13.5553   21.8841 H   0  0  0  0  0  0
  -25.2784   -9.5688   22.4740 H   0  0  0  0  0  0
  -24.0033   -7.4641   22.7464 H   0  0  0  0  0  0
  -21.0866   -8.8746   19.8944 H   0  0  0  0  0  0
  -22.3717  -10.9643   19.6123 H   0  0  0  0  0  0
  -21.1969   -7.6133   23.9716 H   0  0  0  0  0  0
  -21.1554   -6.0503   25.9078 H   0  0  0  0  0  0
  -22.0565   -2.7595   23.2872 H   0  0  0  0  0  0
  -22.4091  -11.9853   22.4828 H   0  0  0  0  0  0
  -21.1048  -13.1130   22.2615 H   0  0  0  0  0  0
  -24.6436  -15.8427   20.5024 H   0  0  0  0  0  0
  -26.2645  -15.6346   20.0756 H   0  0  0  0  0  0
  -26.7141  -32.5489   23.1122 H   0  0  0  0  0  0
  -25.0161  -33.9749   25.0509 H   0  0  0  0  0  0
  -22.6887  -31.3102   21.4242 H   0  0  0  0  0  0
  -23.3741  -35.9636   23.3296 H   0  0  0  0  0  0
  -24.3572  -36.8927   22.2054 H   0  0  0  0  0  0
  -23.7235  -37.6499   23.6661 H   0  0  0  0  0  0
  -26.0731  -31.5973   20.6145 H   0  0  0  0  0  0
  -26.8116  -30.8545   22.0071 H   0  0  0  0  0  0
  -28.0997  -29.0944   21.1447 H   0  0  0  0  0  0
  -25.9803  -25.9395   19.0828 H   0  0  0  0  0  0
  -23.9488  -27.2895   19.0714 H   0  0  0  0  0  0
  -23.7383  -30.6213   19.4164 H   0  0  0  0  0  0
  -22.7279  -29.2736   19.8543 H   0  0  0  0  0  0
  -25.1288  -36.1933   25.0817 H   0  0  0  0  0  0
  -20.9943  -28.3226   24.1446 H   0  0  0  0  0  0
  -20.5713  -26.2252   23.3637 H   0  0  0  0  0  0
  -21.6648  -26.7460   22.1206 H   0  0  0  0  0  0
  -19.6931  -25.6291   21.1242 H   0  0  0  0  0  0
  -19.6710  -27.3205   20.6788 H   0  0  0  0  0  0
  -17.4236  -26.6719   21.3956 H   0  0  0  0  0  0
  -18.0246  -26.0031   22.8952 H   0  0  0  0  0  0
  -19.7909  -30.7272   24.2235 H   0  0  0  0  0  0
  -17.4978  -31.6234   24.5177 H   0  0  0  0  0  0
  -15.5327  -30.2955   23.7642 H   0  0  0  0  0  0
  -15.8665  -28.0816   22.7019 H   0  0  0  0  0  0
  -24.5981  -30.7033   25.7828 H   0  0  0  0  0  0
  -24.9071  -32.2807   26.5008 H   0  0  0  0  0  0
  -25.8213  -30.8773   27.0183 H   0  0  0  0  0  0
  -26.2903  -29.6706   24.1274 H   0  0  0  0  0  0
  -27.4170  -29.7278   25.4621 H   0  0  0  0  0  0
  -27.8738  -30.4248   23.9274 H   0  0  0  0  0  0
  -27.2628  -33.3584   26.2120 H   0  0  0  0  0  0
  -28.3874  -32.6963   25.0351 H   0  0  0  0  0  0
  -28.0762  -31.8453   26.5404 H   0  0  0  0  0  0
  -28.2594  -38.0118   24.7509 H   0  0  0  0  0  0
  -28.1080  -36.2646   24.6268 H   0  0  0  0  0  0
  -27.2312  -37.1445   25.8873 H   0  0  0  0  0  0
  -20.9341  -29.8681   21.6900 H   0  0  0  0  0  0
  -26.0157  -38.2854   24.1425 H   0  0  0  0  0  0
  -33.0665  -18.8665   21.2632 H   0  0  0  0  0  0
  -32.4142  -16.5821   21.7787 H   0  0  0  0  0  0
  -28.4380  -17.3940   20.3647 H   0  0  0  0  0  0
  -28.5185  -24.2600   21.3986 H   0  0  0  0  0  0
  -27.1063  -23.9226   20.4289 H   0  0  0  0  0  0
  -27.4146  -23.6163   17.8520 H   0  0  0  0  0  0
  -28.9940  -23.7863   17.1518 H   0  0  0  0  0  0
  -29.6674  -21.6738   17.7725 H   0  0  0  0  0  0
  -27.9648  -21.4181   17.6369 H   0  0  0  0  0  0
  -29.9653  -24.1930   19.4235 H   0  0  0  0  0  0
  -35.4368  -20.2175   18.0895 H   0  0  0  0  0  0
  -36.0600  -19.8174   19.6865 H   0  0  0  0  0  0
  -36.1914  -21.4616   19.0651 H   0  0  0  0  0  0
  -33.3873  -18.8807   18.0502 H   0  0  0  0  0  0
  -33.4056  -20.4240   17.1762 H   0  0  0  0  0  0
  -31.8875  -19.7108   17.6874 H   0  0  0  0  0  0
  -27.7230  -19.6848   20.2798 H   0  0  0  0  0  0
  -28.4176  -19.5378   18.7160 H   0  0  0  0  0  0
  -31.8212  -21.4946   20.7770 H   0  0  0  0  0  0
  -31.1205  -21.2689   19.2152 H   0  0  0  0  0  0
  -27.8796  -25.9093   18.1605 H   0  0  0  0  0  0
  -29.5270  -26.2040   18.4460 H   0  0  0  0  0  0
  -29.1199  -15.1969   21.5056 H   0  0  0  0  0  0
  1 25  1  0  0  0
  1 30  2  0  0  0
  1 89  1  0  0  0
  2  3  1  0  0  0
  2 25  1  0  0  0
  2 93  1  0  0  0
  2 94  1  0  0  0
  3  4  1  0  0  0
  3 95  1  0  0  0
  3 96  1  0  0  0
  4  5  1  0  0  0
  4 97  1  0  0  0
  4 98  1  0  0  0
  5  6  1  0  0  0
  5 26  1  0  0  0
  5 99  1  0  0  0
  6 25  1  0  0  0
  6100  1  0  0  0
  6101  1  0  0  0
  7  8  2  0  0  0
  7 26  1  0  0  0
  7 29  1  0  0  0
  8  9  1  0  0  0
  8 22  1  0  0  0
  9 10  1  0  0  0
  9 27  2  0  0  0
 10 11  2  0  0  0
 10 15  1  0  0  0
 11 12  1  0  0  0
 11102  1  0  0  0
 12 13  2  0  0  0
 12103  1  0  0  0
 13 14  1  0  0  0
 13 31  1  0  0  0
 14 15  2  0  0  0
 14104  1  0  0  0
 15105  1  0  0  0
 16 17  2  0  0  0
 16 21  1  0  0  0
 16 31  1  0  0  0
 17 18  1  0  0  0
 17106  1  0  0  0
 18 19  2  0  0  0
 18107  1  0  0  0
 19 20  1  0  0  0
 19 24  1  0  0  0
 20 21  2  0  0  0
 20108  1  0  0  0
 21 23  1  0  0  0
 22 28  1  0  0  0
 22 32  2  0  0  0
 26 27  1  0  0  0
 28109  1  0  0  0
 28110  1  0  0  0
 29111  1  0  0  0
 29112  1  0  0  0
 33 34  1  0  0  0
 33 66  1  0  0  0
 33 70  2  0  0  0
 34 36  1  0  0  0
 34 59  1  0  0  0
 34113  1  0  0  0
 35 44  2  0  0  0
 35 45  1  0  0  0
 35 68  1  0  0  0
 36 56  1  0  0  0
 36114  1  0  0  0
 37 39  1  0  0  0
 37 47  1  0  0  0
 37 66  1  0  0  0
 37115  1  0  0  0
 38 43  2  0  0  0
 38 46  1  0  0  0
 38 47  1  0  0  0
 39 64  1  0  0  0
 39 67  2  0  0  0
 40 52  1  0  0  0
 40 53  2  0  0  0
 40 58  1  0  0  0
 41116  1  0  0  0
 41117  1  0  0  0
 41118  1  0  0  0
 41 48  1  0  0  0
 42 43  1  0  0  0
 42 66  1  0  0  0
 42119  1  0  0  0
 42120  1  0  0  0
 43 44  1  0  0  0
 44121  1  0  0  0
 45 46  2  0  0  0
 45122  1  0  0  0
 46123  1  0  0  0
 47124  1  0  0  0
 47125  1  0  0  0
 48 56  1  0  0  0
 48 65  1  0  0  0
 48126  1  0  0  0
 49 50  1  0  0  0
 49 53  1  0  0  0
 49 64  1  0  0  0
 49127  1  0  0  0
 50 51  1  0  0  0
 50128  1  0  0  0
 50129  1  0  0  0
 51 52  1  0  0  0
 51130  1  0  0  0
 51131  1  0  0  0
 52132  1  0  0  0
 52133  1  0  0  0
 53 54  1  0  0  0
 54 55  2  0  0  0
 54134  1  0  0  0
 55 57  1  0  0  0
 55135  1  0  0  0
 56 69  2  0  0  0
 57 58  2  0  0  0
 57136  1  0  0  0
 58137  1  0  0  0
 59 60  1  0  0  0
 59 61  1  0  0  0
 59 62  1  0  0  0
 60138  1  0  0  0
 60139  1  0  0  0
 60140  1  0  0  0
 61141  1  0  0  0
 61142  1  0  0  0
 61143  1  0  0  0
 62144  1  0  0  0
 62145  1  0  0  0
 62146  1  0  0  0
 63 65  1  0  0  0
 63147  1  0  0  0
 63148  1  0  0  0
 63149  1  0  0  0
 64150  1  0  0  0
 65151  1  0  0  0
 68 87  1  0  0  0
 71 72  2  0  0  0
 71 74  1  0  0  0
 71152  1  0  0  0
 72 76  1  0  0  0
 72153  1  0  0  0
 73 75  1  0  0  0
 73 76  2  0  0  0
 73154  1  0  0  0
 74 75  2  0  0  0
 74 86  1  0  0  0
 75 85  1  0  0  0
 76 89  1  0  0  0
 77 79  1  0  0  0
 77 88  1  0  0  0
 77 91  2  0  0  0
 78 83  1  0  0  0
 78 90  1  0  0  0
 78 92  2  0  0  0
 79 82  1  0  0  0
 79155  1  0  0  0
 79156  1  0  0  0
 80 81  1  0  0  0
 80 82  1  0  0  0
 80157  1  0  0  0
 80158  1  0  0  0
 81 88  1  0  0  0
 81159  1  0  0  0
 81160  1  0  0  0
 82 87  1  0  0  0
 82161  1  0  0  0
 83162  1  0  0  0
 83163  1  0  0  0
 83164  1  0  0  0
 84 90  1  0  0  0
 84165  1  0  0  0
 84166  1  0  0  0
 84167  1  0  0  0
 85 88  1  0  0  0
 85168  1  0  0  0
 85169  1  0  0  0
 86 90  1  0  0  0
 86170  1  0  0  0
 86171  1  0  0  0
 87172  1  0  0  0
 87173  1  0  0  0
 89174  1  0  0  0
M  ISO  4   1 100  68 101  87 101  89 100
M  END
> <chiral flag>
0

> <version>
0

> <s_m_source_file>
/data/baiqing/PycharmProjects/Reinvent-master-3.2/result/LINK_invent/BTK/process_docking_weight1_custom_product_contain_oxygen_bond_distance_aromatic_linkinvent_7_9_3/rearranged_h_0060.sdf

> <i_m_source_file_index>
46

> <r_mmod_Potential_Energy-OPLS-2005>
-15.0023469924927

> <r_mmod_Stretch_Energy-OPLS-2005>
49.5068893432617

> <r_mmod_Bend_Energy-OPLS-2005>
139.720169067383

> <r_mmod_Torsional_Energy-OPLS-2005>
277.159362792969

> <r_mmod_Improper_Torsional_Energy-OPLS-2005>
5.22220373153687

> <r_mmod_Van_der_Waal_Energy-OPLS-2005>
181.581497192383

> <r_mmod_Electrostatic_Energy-OPLS-2005>
-420.977935791016

> <r_mmod_Solvation_Energy-OPLS-2005>
-258.536926269531

> <b_mmod_Minimization_Converged-OPLS-2005>
0

> <r_mmod_RMS_Derivative-OPLS-2005>
4.80343914031982

$$$$
46
                    3D
 Structure written by MMmdl.
159168  0  0  1  0            999 V2000
  -30.6137  -14.7117   20.4809 C   0  0  0  0  0  0
  -30.4372  -12.4330   19.4846 C   0  0  0  0  0  0
  -29.5172  -12.5157   18.2455 C   0  0  0  0  0  0
  -28.0413  -12.3425   18.6524 C   0  0  0  0  0  0
  -27.6510  -13.2269   19.8671 C   0  0  2  0  0  0
  -28.6925  -13.1285   21.0055 C   0  0  0  0  0  0
  -25.2543  -13.8188   20.5711 C   0  0  0  0  0  0
  -24.1809  -13.0445   20.9188 C   0  0  0  0  0  0
  -24.6393  -11.6921   20.8747 C   0  0  0  0  0  0
  -23.9070  -10.4298   21.0409 C   0  0  0  0  0  0
  -24.3622   -9.4208   21.9183 C   0  0  0  0  0  0
  -23.6295   -8.2247   22.0752 C   0  0  0  0  0  0
  -22.4276   -8.0286   21.3548 C   0  0  0  0  0  0
  -21.9912   -9.0262   20.4651 C   0  0  0  0  0  0
  -22.7244  -10.2137   20.3061 C   0  0  0  0  0  0
  -21.6850   -6.0740   22.5278 C   0  0  0  0  0  0
  -21.4014   -6.5642   23.8214 C   0  0  0  0  0  0
  -21.3659   -5.6792   24.9174 C   0  0  0  0  0  0
  -21.6042   -4.3054   24.7222 C   0  0  0  0  0  0
  -21.8819   -3.8152   23.4342 C   0  0  0  0  0  0
  -21.9188   -4.6969   22.3400 C   0  0  0  0  0  0
  -22.7833  -13.5240   21.1842 C   0  0  0  0  0  0
  -22.1659   -4.2158   21.0976 F   0  0  0  0  0  0
  -21.5627   -3.4539   25.7735 F   0  0  0  0  0  0
  -30.0051  -13.4769   20.4434 N   0  0  0  0  0  0
  -26.2980  -12.9386   20.3346 N   0  0  0  0  0  0
  -25.9327  -11.6532   20.5767 N   0  0  0  0  0  0
  -22.0468  -12.8244   22.0404 N   0  0  0  0  0  0
  -25.4267  -15.1914   20.4167 N   0  0  0  0  0  0
  -31.7621  -14.8498   20.0489 O   0  0  0  0  0  0
  -21.6637   -6.8885   21.4241 O   0  0  0  0  0  0
  -22.3520  -14.5542   20.6688 O   0  0  0  0  0  0
  -24.6296  -31.8557   23.2002 C   0  0  0  0  0  0
  -25.9128  -32.4759   23.8343 C   0  0  1  0  0  0
  -27.2223  -27.2697   20.1225 C   0  0  0  0  0  0
  -25.5925  -33.8563   24.2261 N   0  0  0  0  0  0
  -23.4262  -30.4786   21.5425 C   0  0  2  0  0  0
  -24.8738  -28.9284   20.1076 C   0  0  0  0  0  0
  -22.7496  -29.4601   22.4911 C   0  0  0  0  0  0
  -18.0287  -28.1385   22.8478 C   0  0  0  0  0  0
  -24.1483  -36.7286   23.2641 C   0  0  0  0  0  0
  -25.9709  -30.7697   21.3808 C   0  0  0  0  0  0
  -26.0426  -29.3929   20.7224 C   0  0  0  0  0  0
  -27.2149  -28.5727   20.7251 C   0  0  0  0  0  0
  -26.0353  -26.8835   19.4571 C   0  0  0  0  0  0
  -24.8754  -27.6821   19.4647 C   0  0  0  0  0  0
  -23.6443  -29.8140   20.1574 C   0  0  0  0  0  0
  -25.4109  -36.3073   24.0328 C   0  0  1  0  0  0
  -20.5891  -28.3691   23.1266 C   0  0  2  0  0  0
  -20.6773  -26.9411   22.5405 C   0  0  0  0  0  0
  -19.5751  -26.6379   21.5206 C   0  0  0  0  0  0
  -18.1930  -26.7926   22.1619 C   0  0  0  0  0  0
  -19.1541  -28.8855   23.2867 C   0  0  0  0  0  0
  -18.9467  -30.1455   23.8888 C   0  0  0  0  0  0
  -17.6465  -30.6589   24.0558 C   0  0  0  0  0  0
  -25.9048  -34.9443   23.5095 C   0  0  0  0  0  0
  -16.5355  -29.9086   23.6328 C   0  0  0  0  0  0
  -16.7272  -28.6504   23.0349 C   0  0  0  0  0  0
  -26.4495  -31.6589   25.0735 C   0  0  0  0  0  0
  -25.3722  -31.3746   26.1462 C   0  0  0  0  0  0
  -27.0350  -30.3008   24.6228 C   0  0  0  0  0  0
  -27.6049  -32.4333   25.7506 C   0  0  0  0  0  0
  -27.5573  -37.1796   24.8464 C   0  0  0  0  0  0
  -21.4201  -29.3044   22.3664 N   0  0  0  0  0  0
  -26.4282  -37.3773   23.9412 N   0  0  0  0  0  0
  -24.6944  -31.0530   22.0972 N   0  0  0  0  0  0
  -23.4195  -28.8143   23.3013 O   0  0  0  0  0  0
  -28.3291  -26.3921   20.2141 O   0  0  0  0  0  0
  -26.5625  -34.8918   22.4667 O   0  0  0  0  0  0
  -23.5449  -32.1377   23.7295 O   0  0  0  0  0  0
  -28.7377  -19.4422   18.8488 C   0  0  0  0  0  0
  -28.9828  -17.0007   18.9773 C   0  0  0  0  0  0
  -29.8076  -18.4171   20.7743 C   0  0  0  0  0  0
  -28.5360  -18.1551   18.3053 C   0  0  0  0  0  0
  -29.4060  -19.6440   20.0808 C   0  0  0  0  0  0
  -29.6227  -17.0802   20.2306 C   0  0  0  0  0  0
  -31.3187  -22.7681   21.0122 C   0  0  0  0  0  0
  -30.5445  -23.8802   20.7680 C   0  0  0  0  0  0
  -30.8772  -21.3753   21.0631 C   0  0  0  0  0  0
  -28.8017  -22.2257   19.9952 C   0  0  0  0  0  0
  -29.0347  -23.7174   20.5672 C   0  0  2  0  0  0
  -27.8181  -18.0098   16.9780 C   0  0  0  0  0  0
  -28.2412  -24.9378   19.8219 C   0  0  0  0  0  0
  -29.6742  -21.0658   20.4921 N   0  0  0  0  0  0
  -29.8852  -15.8004   20.9219 N   0  0  0  0  0  0
  -30.9235  -25.0683   20.6816 O   0  5  0  0  0  0
  -31.6127  -20.5420   21.5914 O   0  0  0  0  0  0
  -31.4811  -12.5496   19.1884 H   0  0  0  0  0  0
  -30.3720  -11.4480   19.9487 H   0  0  0  0  0  0
  -29.7979  -11.7549   17.5167 H   0  0  0  0  0  0
  -29.6509  -13.4781   17.7495 H   0  0  0  0  0  0
  -27.8906  -11.2911   18.9004 H   0  0  0  0  0  0
  -27.3873  -12.5513   17.8047 H   0  0  0  0  0  0
  -27.6556  -14.2550   19.5089 H   0  0  0  0  0  0
  -28.7151  -12.1193   21.4197 H   0  0  0  0  0  0
  -28.4250  -13.7863   21.8334 H   0  0  0  0  0  0
  -25.2771   -9.5686   22.4753 H   0  0  0  0  0  0
  -24.0007   -7.4639   22.7476 H   0  0  0  0  0  0
  -21.0838   -8.8786   19.8965 H   0  0  0  0  0  0
  -22.3706  -10.9675   19.6172 H   0  0  0  0  0  0
  -21.2013   -7.6154   23.9723 H   0  0  0  0  0  0
  -21.1478   -6.0520   25.9076 H   0  0  0  0  0  0
  -22.0599   -2.7617   23.2835 H   0  0  0  0  0  0
  -22.4088  -11.9920   22.4817 H   0  0  0  0  0  0
  -21.1094  -13.1292   22.2608 H   0  0  0  0  0  0
  -24.6654  -15.8492   20.5422 H   0  0  0  0  0  0
  -26.2860  -15.6339   20.1153 H   0  0  0  0  0  0
  -26.7194  -32.5410   23.1085 H   0  0  0  0  0  0
  -25.0067  -33.9700   25.0403 H   0  0  0  0  0  0
  -22.7220  -31.3002   21.3970 H   0  0  0  0  0  0
  -23.3744  -35.9618   23.3299 H   0  0  0  0  0  0
  -24.3578  -36.8914   22.2058 H   0  0  0  0  0  0
  -23.7236  -37.6485   23.6668 H   0  0  0  0  0  0
  -26.1090  -31.5303   20.6113 H   0  0  0  0  0  0
  -26.8488  -30.8182   22.0132 H   0  0  0  0  0  0
  -28.1059  -28.9198   21.2298 H   0  0  0  0  0  0
  -25.9642  -25.9483   18.9248 H   0  0  0  0  0  0
  -23.9842  -27.3273   18.9657 H   0  0  0  0  0  0
  -23.7682  -30.5907   19.4016 H   0  0  0  0  0  0
  -22.7629  -29.2466   19.8528 H   0  0  0  0  0  0
  -25.1288  -36.1919   25.0819 H   0  0  0  0  0  0
  -20.9972  -28.3270   24.1390 H   0  0  0  0  0  0
  -20.5661  -26.2308   23.3609 H   0  0  0  0  0  0
  -21.6643  -26.7431   22.1211 H   0  0  0  0  0  0
  -19.6913  -25.6286   21.1246 H   0  0  0  0  0  0
  -19.6687  -27.3180   20.6728 H   0  0  0  0  0  0
  -17.4198  -26.6660   21.4026 H   0  0  0  0  0  0
  -18.0340  -26.0071   22.9021 H   0  0  0  0  0  0
  -19.7947  -30.7270   24.2252 H   0  0  0  0  0  0
  -17.5028  -31.6269   24.5160 H   0  0  0  0  0  0
  -15.5359  -30.2987   23.7659 H   0  0  0  0  0  0
  -15.8672  -28.0823   22.7064 H   0  0  0  0  0  0
  -24.5885  -30.7105   25.7798 H   0  0  0  0  0  0
  -24.8924  -32.2919   26.4884 H   0  0  0  0  0  0
  -25.8041  -30.8928   27.0242 H   0  0  0  0  0  0
  -26.2943  -29.6752   24.1232 H   0  0  0  0  0  0
  -27.4011  -29.7279   25.4756 H   0  0  0  0  0  0
  -27.8826  -30.4287   23.9493 H   0  0  0  0  0  0
  -27.2653  -33.3631   26.2082 H   0  0  0  0  0  0
  -28.3857  -32.6899   25.0336 H   0  0  0  0  0  0
  -28.0718  -31.8463   26.5423 H   0  0  0  0  0  0
  -28.2589  -38.0093   24.7511 H   0  0  0  0  0  0
  -28.1067  -36.2625   24.6279 H   0  0  0  0  0  0
  -27.2299  -37.1443   25.8869 H   0  0  0  0  0  0
  -20.9386  -29.8779   21.6880 H   0  0  0  0  0  0
  -26.0157  -38.2844   24.1417 H   0  0  0  0  0  0
  -28.3926  -20.2861   18.2705 H   0  0  0  0  0  0
  -28.7928  -16.0345   18.5318 H   0  0  0  0  0  0
  -30.2729  -18.4948   21.7461 H   0  0  0  0  0  0
  -32.3783  -22.9247   21.1625 H   0  0  0  0  0  0
  -28.9560  -22.2906   18.9188 H   0  0  0  0  0  0
  -27.7564  -21.9522   20.1373 H   0  0  0  0  0  0
  -28.6092  -23.7015   21.5722 H   0  0  0  0  0  0
  -28.0134  -18.8642   16.3299 H   0  0  0  0  0  0
  -26.7413  -17.9385   17.1366 H   0  0  0  0  0  0
  -28.1439  -17.1129   16.4507 H   0  0  0  0  0  0
  -27.2047  -24.6186   19.8927 H   0  0  0  0  0  0
  -28.4870  -24.8978   18.7604 H   0  0  0  0  0  0
  -29.1148  -15.5123   21.5069 H   0  0  0  0  0  0
  1 25  1  0  0  0
  1 30  2  0  0  0
  1 85  1  0  0  0
  2  3  1  0  0  0
  2 25  1  0  0  0
  2 88  1  0  0  0
  2 89  1  0  0  0
  3  4  1  0  0  0
  3 90  1  0  0  0
  3 91  1  0  0  0
  4  5  1  0  0  0
  4 92  1  0  0  0
  4 93  1  0  0  0
  5  6  1  0  0  0
  5 26  1  0  0  0
  5 94  1  0  0  0
  6 25  1  0  0  0
  6 95  1  0  0  0
  6 96  1  0  0  0
  7  8  2  0  0  0
  7 26  1  0  0  0
  7 29  1  0  0  0
  8  9  1  0  0  0
  8 22  1  0  0  0
  9 10  1  0  0  0
  9 27  2  0  0  0
 10 11  2  0  0  0
 10 15  1  0  0  0
 11 12  1  0  0  0
 11 97  1  0  0  0
 12 13  2  0  0  0
 12 98  1  0  0  0
 13 14  1  0  0  0
 13 31  1  0  0  0
 14 15  2  0  0  0
 14 99  1  0  0  0
 15100  1  0  0  0
 16 17  2  0  0  0
 16 21  1  0  0  0
 16 31  1  0  0  0
 17 18  1  0  0  0
 17101  1  0  0  0
 18 19  2  0  0  0
 18102  1  0  0  0
 19 20  1  0  0  0
 19 24  1  0  0  0
 20 21  2  0  0  0
 20103  1  0  0  0
 21 23  1  0  0  0
 22 28  1  0  0  0
 22 32  2  0  0  0
 26 27  1  0  0  0
 28104  1  0  0  0
 28105  1  0  0  0
 29106  1  0  0  0
 29107  1  0  0  0
 33 34  1  0  0  0
 33 66  1  0  0  0
 33 70  2  0  0  0
 34 36  1  0  0  0
 34 59  1  0  0  0
 34108  1  0  0  0
 35 44  2  0  0  0
 35 45  1  0  0  0
 35 68  1  0  0  0
 36 56  1  0  0  0
 36109  1  0  0  0
 37 39  1  0  0  0
 37 47  1  0  0  0
 37 66  1  0  0  0
 37110  1  0  0  0
 38 43  2  0  0  0
 38 46  1  0  0  0
 38 47  1  0  0  0
 39 64  1  0  0  0
 39 67  2  0  0  0
 40 52  1  0  0  0
 40 53  2  0  0  0
 40 58  1  0  0  0
 41111  1  0  0  0
 41112  1  0  0  0
 41113  1  0  0  0
 41 48  1  0  0  0
 42 43  1  0  0  0
 42 66  1  0  0  0
 42114  1  0  0  0
 42115  1  0  0  0
 43 44  1  0  0  0
 44116  1  0  0  0
 45 46  2  0  0  0
 45117  1  0  0  0
 46118  1  0  0  0
 47119  1  0  0  0
 47120  1  0  0  0
 48 56  1  0  0  0
 48 65  1  0  0  0
 48121  1  0  0  0
 49 50  1  0  0  0
 49 53  1  0  0  0
 49 64  1  0  0  0
 49122  1  0  0  0
 50 51  1  0  0  0
 50123  1  0  0  0
 50124  1  0  0  0
 51 52  1  0  0  0
 51125  1  0  0  0
 51126  1  0  0  0
 52127  1  0  0  0
 52128  1  0  0  0
 53 54  1  0  0  0
 54 55  2  0  0  0
 54129  1  0  0  0
 55 57  1  0  0  0
 55130  1  0  0  0
 56 69  2  0  0  0
 57 58  2  0  0  0
 57131  1  0  0  0
 58132  1  0  0  0
 59 60  1  0  0  0
 59 61  1  0  0  0
 59 62  1  0  0  0
 60133  1  0  0  0
 60134  1  0  0  0
 60135  1  0  0  0
 61136  1  0  0  0
 61137  1  0  0  0
 61138  1  0  0  0
 62139  1  0  0  0
 62140  1  0  0  0
 62141  1  0  0  0
 63 65  1  0  0  0
 63142  1  0  0  0
 63143  1  0  0  0
 63144  1  0  0  0
 64145  1  0  0  0
 65146  1  0  0  0
 68 83  1  0  0  0
 71 74  2  0  0  0
 71 75  1  0  0  0
 71147  1  0  0  0
 72 74  1  0  0  0
 72 76  2  0  0  0
 72148  1  0  0  0
 73 75  2  0  0  0
 73 76  1  0  0  0
 73149  1  0  0  0
 74 82  1  0  0  0
 75 84  1  0  0  0
 76 85  1  0  0  0
 77 78  2  0  0  0
 77 79  1  0  0  0
 77150  1  0  0  0
 78 81  1  0  0  0
 78 86  1  0  0  0
 79 84  1  0  0  0
 79 87  2  0  0  0
 80 81  1  0  0  0
 80 84  1  0  0  0
 80151  1  0  0  0
 80152  1  0  0  0
 81 83  1  0  0  0
 81153  1  0  0  0
 82154  1  0  0  0
 82155  1  0  0  0
 82156  1  0  0  0
 83157  1  0  0  0
 83158  1  0  0  0
 85159  1  0  0  0
M  CHG  1  86  -1
M  ISO  4   1 100  68 101  83 101  85 100
M  END
> <chiral flag>
0

> <version>
0

> <s_m_source_file>
/data/baiqing/PycharmProjects/Reinvent-master-3.2/result/LINK_invent/BTK/process_docking_weight1_custom_product_contain_oxygen_bond_distance_aromatic_linkinvent_7_9_3/rearranged_h_0060.sdf

> <i_m_source_file_index>
47

> <r_mmod_Potential_Energy-OPLS-2005>
-8.12779426574707

> <r_mmod_Stretch_Energy-OPLS-2005>
133.363647460938

> <r_mmod_Bend_Energy-OPLS-2005>
192.103225708008

> <r_mmod_Torsional_Energy-OPLS-2005>
292.539886474609

> <r_mmod_Improper_Torsional_Energy-OPLS-2005>
6.29977703094482

> <r_mmod_Van_der_Waal_Energy-OPLS-2005>
158.441070556641

> <r_mmod_Electrostatic_Energy-OPLS-2005>
-348.33349609375

> <r_mmod_Solvation_Energy-OPLS-2005>
-517.293884277344

> <b_mmod_Minimization_Converged-OPLS-2005>
0

> <r_mmod_RMS_Derivative-OPLS-2005>
1.22679650783539

$$$$
47
                    3D
 Structure written by MMmdl.
154163  0  0  1  0            999 V2000
  -30.5998  -14.7721   20.4665 C   0  0  0  0  0  0
  -30.4267  -12.4702   19.4855 C   0  0  0  0  0  0
  -29.5107  -12.5177   18.2427 C   0  0  0  0  0  0
  -28.0364  -12.3400   18.6528 C   0  0  0  0  0  0
  -27.6388  -13.2366   19.8561 C   0  0  2  0  0  0
  -28.6813  -13.1794   20.9932 C   0  0  0  0  0  0
  -25.2487  -13.8202   20.5712 C   0  0  0  0  0  0
  -24.1793  -13.0436   20.9233 C   0  0  0  0  0  0
  -24.6397  -11.6915   20.8767 C   0  0  0  0  0  0
  -23.9078  -10.4297   21.0424 C   0  0  0  0  0  0
  -24.3630   -9.4210   21.9200 C   0  0  0  0  0  0
  -23.6301   -8.2245   22.0762 C   0  0  0  0  0  0
  -22.4282   -8.0287   21.3552 C   0  0  0  0  0  0
  -21.9922   -9.0269   20.4660 C   0  0  0  0  0  0
  -22.7250  -10.2147   20.3076 C   0  0  0  0  0  0
  -21.6849   -6.0750   22.5289 C   0  0  0  0  0  0
  -21.4019   -6.5656   23.8228 C   0  0  0  0  0  0
  -21.3661   -5.6808   24.9189 C   0  0  0  0  0  0
  -21.6037   -4.3074   24.7233 C   0  0  0  0  0  0
  -21.8807   -3.8160   23.4357 C   0  0  0  0  0  0
  -21.9190   -4.6977   22.3411 C   0  0  0  0  0  0
  -22.7818  -13.5215   21.1889 C   0  0  0  0  0  0
  -22.1657   -4.2162   21.0989 F   0  0  0  0  0  0
  -21.5626   -3.4555   25.7747 F   0  0  0  0  0  0
  -29.9756  -13.5426   20.4062 N   0  0  0  0  0  0
  -26.2925  -12.9420   20.3321 N   0  0  0  0  0  0
  -25.9335  -11.6558   20.5783 N   0  0  0  0  0  0
  -22.0478  -12.8204   22.0457 N   0  0  0  0  0  0
  -25.4120  -15.1929   20.4096 N   0  0  0  0  0  0
  -31.7965  -14.8416   20.1677 O   0  0  0  0  0  0
  -21.6635   -6.8890   21.4250 O   0  0  0  0  0  0
  -22.3502  -14.5527   20.6744 O   0  0  0  0  0  0
  -24.6345  -31.8547   23.1994 C   0  0  0  0  0  0
  -25.9170  -32.4741   23.8345 C   0  0  1  0  0  0
  -27.2136  -27.2389   20.1302 C   0  0  0  0  0  0
  -25.5969  -33.8552   24.2263 N   0  0  0  0  0  0
  -23.4317  -30.4783   21.5432 C   0  0  2  0  0  0
  -24.8759  -28.9254   20.1062 C   0  0  0  0  0  0
  -22.7526  -29.4606   22.4921 C   0  0  0  0  0  0
  -18.0297  -28.1403   22.8480 C   0  0  0  0  0  0
  -24.1490  -36.7274   23.2640 C   0  0  0  0  0  0
  -25.9801  -30.7562   21.3860 C   0  0  0  0  0  0
  -26.0479  -29.3787   20.7251 C   0  0  0  0  0  0
  -27.2159  -28.5472   20.7290 C   0  0  0  0  0  0
  -26.0220  -26.8690   19.4632 C   0  0  0  0  0  0
  -24.8705  -27.6801   19.4621 C   0  0  0  0  0  0
  -23.6510  -29.8199   20.1561 C   0  0  0  0  0  0
  -25.4119  -36.3068   24.0327 C   0  0  1  0  0  0
  -20.5902  -28.3726   23.1269 C   0  0  2  0  0  0
  -20.6797  -26.9443   22.5417 C   0  0  0  0  0  0
  -19.5767  -26.6394   21.5229 C   0  0  0  0  0  0
  -18.1941  -26.7943   22.1630 C   0  0  0  0  0  0
  -19.1548  -28.8885   23.2867 C   0  0  0  0  0  0
  -18.9464  -30.1478   23.8891 C   0  0  0  0  0  0
  -17.6461  -30.6600   24.0570 C   0  0  0  0  0  0
  -25.9063  -34.9435   23.5098 C   0  0  0  0  0  0
  -16.5358  -29.9095   23.6333 C   0  0  0  0  0  0
  -16.7282  -28.6520   23.0350 C   0  0  0  0  0  0
  -26.4522  -31.6567   25.0744 C   0  0  0  0  0  0
  -25.3735  -31.3727   26.1459 C   0  0  0  0  0  0
  -27.0373  -30.2977   24.6251 C   0  0  0  0  0  0
  -27.6066  -32.4324   25.7516 C   0  0  0  0  0  0
  -27.5582  -37.1802   24.8471 C   0  0  0  0  0  0
  -21.4234  -29.3056   22.3653 N   0  0  0  0  0  0
  -26.4298  -37.3766   23.9412 N   0  0  0  0  0  0
  -24.7008  -31.0492   22.0978 N   0  0  0  0  0  0
  -23.4218  -28.8150   23.3031 O   0  0  0  0  0  0
  -28.2948  -26.3215   20.2182 O   0  0  0  0  0  0
  -26.5628  -34.8907   22.4659 O   0  0  0  0  0  0
  -23.5491  -32.1395   23.7269 O   0  0  0  0  0  0
  -32.7125  -19.9910   20.9773 C   0  0  0  0  0  0
  -32.7886  -21.3661   20.7876 C   0  0  0  0  0  0
  -31.4122  -17.8224   20.8827 C   0  0  0  0  0  0
  -31.5173  -19.2798   20.8097 C   0  0  0  0  0  0
  -31.6499  -22.1163   20.4653 C   0  0  0  0  0  0
  -30.3410  -21.5186   20.4292 C   0  0  0  0  0  0
  -30.3047  -20.0306   20.5371 C   0  0  0  0  0  0
  -30.1661  -17.2982   20.6441 C   0  0  0  0  0  0
  -28.9946  -23.7641   20.6539 C   0  0  0  0  0  0
  -31.9621  -23.5680   20.0998 C   0  0  0  0  0  0
  -28.0782  -24.8519   19.9083 C   0  0  0  0  0  0
  -29.2074  -22.4643   20.1688 N   0  0  0  0  0  0
  -29.8225  -15.9244   20.6366 N   0  0  0  0  0  0
  -29.4717  -24.1034   21.7407 O   0  0  0  0  0  0
  -29.0459  -18.7084   20.4044 S   0  0  0  0  0  0
  -31.4693  -12.5910   19.1894 H   0  0  0  0  0  0
  -30.3665  -11.4952   19.9734 H   0  0  0  0  0  0
  -29.7969  -11.7424   17.5303 H   0  0  0  0  0  0
  -29.6393  -13.4723   17.7290 H   0  0  0  0  0  0
  -27.8904  -11.2901   18.9100 H   0  0  0  0  0  0
  -27.3820  -12.5399   17.8045 H   0  0  0  0  0  0
  -27.6293  -14.2582   19.4764 H   0  0  0  0  0  0
  -28.7237  -12.1837   21.4376 H   0  0  0  0  0  0
  -28.4109  -13.8648   21.7984 H   0  0  0  0  0  0
  -25.2773   -9.5685   22.4782 H   0  0  0  0  0  0
  -24.0013   -7.4630   22.7477 H   0  0  0  0  0  0
  -21.0858   -8.8797   19.8957 H   0  0  0  0  0  0
  -22.3716  -10.9699   19.6196 H   0  0  0  0  0  0
  -21.2017   -7.6164   23.9739 H   0  0  0  0  0  0
  -21.1492   -6.0541   25.9094 H   0  0  0  0  0  0
  -22.0578   -2.7621   23.2857 H   0  0  0  0  0  0
  -22.4090  -11.9840   22.4802 H   0  0  0  0  0  0
  -21.1112  -13.1238   22.2714 H   0  0  0  0  0  0
  -24.6312  -15.8326   20.5099 H   0  0  0  0  0  0
  -26.2456  -15.6428   20.0549 H   0  0  0  0  0  0
  -26.7239  -32.5369   23.1082 H   0  0  0  0  0  0
  -25.0162  -33.9689   25.0444 H   0  0  0  0  0  0
  -22.7280  -31.3015   21.4016 H   0  0  0  0  0  0
  -23.3758  -35.9602   23.3307 H   0  0  0  0  0  0
  -24.3585  -36.8893   22.2054 H   0  0  0  0  0  0
  -23.7230  -37.6473   23.6657 H   0  0  0  0  0  0
  -26.1316  -31.5157   20.6179 H   0  0  0  0  0  0
  -26.8541  -30.7977   22.0252 H   0  0  0  0  0  0
  -28.1067  -28.8859   21.2391 H   0  0  0  0  0  0
  -25.9418  -25.9273   18.9418 H   0  0  0  0  0  0
  -23.9777  -27.3337   18.9592 H   0  0  0  0  0  0
  -23.7852  -30.6045   19.4092 H   0  0  0  0  0  0
  -22.7646  -29.2652   19.8428 H   0  0  0  0  0  0
  -25.1292  -36.1927   25.0821 H   0  0  0  0  0  0
  -20.9982  -28.3311   24.1396 H   0  0  0  0  0  0
  -20.5734  -26.2335   23.3626 H   0  0  0  0  0  0
  -21.6657  -26.7489   22.1185 H   0  0  0  0  0  0
  -19.6935  -25.6301   21.1271 H   0  0  0  0  0  0
  -19.6699  -27.3197   20.6753 H   0  0  0  0  0  0
  -17.4217  -26.6702   21.4025 H   0  0  0  0  0  0
  -18.0327  -26.0089   22.9028 H   0  0  0  0  0  0
  -19.7940  -30.7305   24.2252 H   0  0  0  0  0  0
  -17.5013  -31.6266   24.5192 H   0  0  0  0  0  0
  -15.5358  -30.2997   23.7652 H   0  0  0  0  0  0
  -15.8686  -28.0838   22.7057 H   0  0  0  0  0  0
  -24.5924  -30.7051   25.7801 H   0  0  0  0  0  0
  -24.8904  -32.2890   26.4859 H   0  0  0  0  0  0
  -25.8051  -30.8937   27.0256 H   0  0  0  0  0  0
  -26.2965  -29.6719   24.1255 H   0  0  0  0  0  0
  -27.4025  -29.7246   25.4785 H   0  0  0  0  0  0
  -27.8860  -30.4247   23.9527 H   0  0  0  0  0  0
  -27.2668  -33.3641   26.2052 H   0  0  0  0  0  0
  -28.3886  -32.6861   25.0345 H   0  0  0  0  0  0
  -28.0719  -31.8479   26.5462 H   0  0  0  0  0  0
  -28.2597  -38.0098   24.7510 H   0  0  0  0  0  0
  -28.1077  -36.2630   24.6305 H   0  0  0  0  0  0
  -27.2306  -37.1458   25.8876 H   0  0  0  0  0  0
  -20.9446  -29.8762   21.6829 H   0  0  0  0  0  0
  -26.0176  -38.2846   24.1403 H   0  0  0  0  0  0
  -33.6177  -19.4434   21.2019 H   0  0  0  0  0  0
  -33.7600  -21.8403   20.8509 H   0  0  0  0  0  0
  -32.2855  -17.2182   21.0862 H   0  0  0  0  0  0
  -31.8806  -24.2178   20.9702 H   0  0  0  0  0  0
  -31.3252  -23.9432   19.2995 H   0  0  0  0  0  0
  -32.9827  -23.6712   19.7302 H   0  0  0  0  0  0
  -27.0605  -24.5624   20.1672 H   0  0  0  0  0  0
  -28.1835  -24.7103   18.8319 H   0  0  0  0  0  0
  -28.5742  -22.1782   19.4341 H   0  0  0  0  0  0
  -28.8363  -15.7327   20.7350 H   0  0  0  0  0  0
  1 25  1  0  0  0
  1 30  2  0  0  0
  1 83  1  0  0  0
  2  3  1  0  0  0
  2 25  1  0  0  0
  2 86  1  0  0  0
  2 87  1  0  0  0
  3  4  1  0  0  0
  3 88  1  0  0  0
  3 89  1  0  0  0
  4  5  1  0  0  0
  4 90  1  0  0  0
  4 91  1  0  0  0
  5  6  1  0  0  0
  5 26  1  0  0  0
  5 92  1  0  0  0
  6 25  1  0  0  0
  6 93  1  0  0  0
  6 94  1  0  0  0
  7  8  2  0  0  0
  7 26  1  0  0  0
  7 29  1  0  0  0
  8  9  1  0  0  0
  8 22  1  0  0  0
  9 10  1  0  0  0
  9 27  2  0  0  0
 10 11  2  0  0  0
 10 15  1  0  0  0
 11 12  1  0  0  0
 11 95  1  0  0  0
 12 13  2  0  0  0
 12 96  1  0  0  0
 13 14  1  0  0  0
 13 31  1  0  0  0
 14 15  2  0  0  0
 14 97  1  0  0  0
 15 98  1  0  0  0
 16 17  2  0  0  0
 16 21  1  0  0  0
 16 31  1  0  0  0
 17 18  1  0  0  0
 17 99  1  0  0  0
 18 19  2  0  0  0
 18100  1  0  0  0
 19 20  1  0  0  0
 19 24  1  0  0  0
 20 21  2  0  0  0
 20101  1  0  0  0
 21 23  1  0  0  0
 22 28  1  0  0  0
 22 32  2  0  0  0
 26 27  1  0  0  0
 28102  1  0  0  0
 28103  1  0  0  0
 29104  1  0  0  0
 29105  1  0  0  0
 33 34  1  0  0  0
 33 66  1  0  0  0
 33 70  2  0  0  0
 34 36  1  0  0  0
 34 59  1  0  0  0
 34106  1  0  0  0
 35 44  2  0  0  0
 35 45  1  0  0  0
 35 68  1  0  0  0
 36 56  1  0  0  0
 36107  1  0  0  0
 37 39  1  0  0  0
 37 47  1  0  0  0
 37 66  1  0  0  0
 37108  1  0  0  0
 38 43  2  0  0  0
 38 46  1  0  0  0
 38 47  1  0  0  0
 39 64  1  0  0  0
 39 67  2  0  0  0
 40 52  1  0  0  0
 40 53  2  0  0  0
 40 58  1  0  0  0
 41109  1  0  0  0
 41110  1  0  0  0
 41111  1  0  0  0
 41 48  1  0  0  0
 42 43  1  0  0  0
 42 66  1  0  0  0
 42112  1  0  0  0
 42113  1  0  0  0
 43 44  1  0  0  0
 44114  1  0  0  0
 45 46  2  0  0  0
 45115  1  0  0  0
 46116  1  0  0  0
 47117  1  0  0  0
 47118  1  0  0  0
 48 56  1  0  0  0
 48 65  1  0  0  0
 48119  1  0  0  0
 49 50  1  0  0  0
 49 53  1  0  0  0
 49 64  1  0  0  0
 49120  1  0  0  0
 50 51  1  0  0  0
 50121  1  0  0  0
 50122  1  0  0  0
 51 52  1  0  0  0
 51123  1  0  0  0
 51124  1  0  0  0
 52125  1  0  0  0
 52126  1  0  0  0
 53 54  1  0  0  0
 54 55  2  0  0  0
 54127  1  0  0  0
 55 57  1  0  0  0
 55128  1  0  0  0
 56 69  2  0  0  0
 57 58  2  0  0  0
 57129  1  0  0  0
 58130  1  0  0  0
 59 60  1  0  0  0
 59 61  1  0  0  0
 59 62  1  0  0  0
 60131  1  0  0  0
 60132  1  0  0  0
 60133  1  0  0  0
 61134  1  0  0  0
 61135  1  0  0  0
 61136  1  0  0  0
 62137  1  0  0  0
 62138  1  0  0  0
 62139  1  0  0  0
 63 65  1  0  0  0
 63140  1  0  0  0
 63141  1  0  0  0
 63142  1  0  0  0
 64143  1  0  0  0
 65144  1  0  0  0
 68 81  1  0  0  0
 71 72  2  0  0  0
 71 74  1  0  0  0
 71145  1  0  0  0
 72 75  1  0  0  0
 72146  1  0  0  0
 73 74  1  0  0  0
 73 78  2  0  0  0
 73147  1  0  0  0
 74 77  2  0  0  0
 75 76  2  0  0  0
 75 80  1  0  0  0
 76 77  1  0  0  0
 76 82  1  0  0  0
 77 85  1  0  0  0
 78 83  1  0  0  0
 78 85  1  0  0  0
 79 81  1  0  0  0
 79 82  1  0  0  0
 79 84  2  0  0  0
 80148  1  0  0  0
 80149  1  0  0  0
 80150  1  0  0  0
 81151  1  0  0  0
 81152  1  0  0  0
 82153  1  0  0  0
 83154  1  0  0  0
M  ISO  4   1 100  68 101  81 101  83 100
M  END
> <chiral flag>
0

> <version>
0

> <s_m_source_file>
/data/baiqing/PycharmProjects/Reinvent-master-3.2/result/LINK_invent/BTK/process_docking_weight1_custom_product_contain_oxygen_bond_distance_aromatic_linkinvent_7_9_3/rearranged_h_0060.sdf

> <i_m_source_file_index>
48

> <r_mmod_Potential_Energy-OPLS-2005>
240.690490722656

> <r_mmod_Stretch_Energy-OPLS-2005>
145.713470458984

> <r_mmod_Bend_Energy-OPLS-2005>
207.085647583008

> <r_mmod_Torsional_Energy-OPLS-2005>
245.830322265625

> <r_mmod_Improper_Torsional_Energy-OPLS-2005>
6.26356935501099

> <r_mmod_Van_der_Waal_Energy-OPLS-2005>
151.221267700195

> <r_mmod_Electrostatic_Energy-OPLS-2005>
-367.687469482422

> <r_mmod_Solvation_Energy-OPLS-2005>
-247.794815063477

> <b_mmod_Minimization_Converged-OPLS-2005>
0

> <r_mmod_RMS_Derivative-OPLS-2005>
1.96843385696411

$$$$
48
                    3D
 Structure written by MMmdl.
155164  0  0  1  0            999 V2000
  -30.6218  -14.6379   20.5086 C   0  0  0  0  0  0
  -30.4433  -12.3922   19.4553 C   0  0  0  0  0  0
  -29.5102  -12.5047   18.2287 C   0  0  0  0  0  0
  -28.0344  -12.3374   18.6433 C   0  0  0  0  0  0
  -27.6559  -13.2131   19.8668 C   0  0  2  0  0  0
  -28.7001  -13.0647   20.9971 C   0  0  0  0  0  0
  -25.2573  -13.8165   20.5690 C   0  0  0  0  0  0
  -24.1832  -13.0437   20.9192 C   0  0  0  0  0  0
  -24.6396  -11.6905   20.8751 C   0  0  0  0  0  0
  -23.9063  -10.4288   21.0411 C   0  0  0  0  0  0
  -24.3618   -9.4204   21.9189 C   0  0  0  0  0  0
  -23.6291   -8.2243   22.0760 C   0  0  0  0  0  0
  -22.4274   -8.0277   21.3548 C   0  0  0  0  0  0
  -21.9910   -9.0252   20.4653 C   0  0  0  0  0  0
  -22.7239  -10.2129   20.3057 C   0  0  0  0  0  0
  -21.6847   -6.0732   22.5279 C   0  0  0  0  0  0
  -21.4003   -6.5635   23.8212 C   0  0  0  0  0  0
  -21.3662   -5.6791   24.9177 C   0  0  0  0  0  0
  -21.6045   -4.3053   24.7226 C   0  0  0  0  0  0
  -21.8817   -3.8142   23.4347 C   0  0  0  0  0  0
  -21.9191   -4.6958   22.3403 C   0  0  0  0  0  0
  -22.7856  -13.5239   21.1851 C   0  0  0  0  0  0
  -22.1659   -4.2146   21.0979 F   0  0  0  0  0  0
  -21.5639   -3.4536   25.7742 F   0  0  0  0  0  0
  -30.0176  -13.4096   20.4370 N   0  0  0  0  0  0
  -26.3002  -12.9338   20.3340 N   0  0  0  0  0  0
  -25.9322  -11.6494   20.5779 N   0  0  0  0  0  0
  -22.0490  -12.8236   22.0406 N   0  0  0  0  0  0
  -25.4298  -15.1888   20.4095 N   0  0  0  0  0  0
  -31.7786  -14.8083   20.1122 O   0  0  0  0  0  0
  -21.6638   -6.8874   21.4241 O   0  0  0  0  0  0
  -22.3550  -14.5555   20.6714 O   0  0  0  0  0  0
  -24.6256  -31.8595   23.2014 C   0  0  0  0  0  0
  -25.9108  -32.4783   23.8336 C   0  0  1  0  0  0
  -27.2325  -27.3252   20.1137 C   0  0  0  0  0  0
  -25.5928  -33.8581   24.2258 N   0  0  0  0  0  0
  -23.4199  -30.4830   21.5442 C   0  0  2  0  0  0
  -24.8674  -28.9387   20.1110 C   0  0  0  0  0  0
  -22.7475  -29.4625   22.4935 C   0  0  0  0  0  0
  -18.0291  -28.1390   22.8490 C   0  0  0  0  0  0
  -24.1479  -36.7274   23.2638 C   0  0  0  0  0  0
  -25.9597  -30.7928   21.3706 C   0  0  0  0  0  0
  -26.0362  -29.4201   20.7141 C   0  0  0  0  0  0
  -27.2214  -28.6258   20.7048 C   0  0  0  0  0  0
  -26.0376  -26.8981   19.4861 C   0  0  0  0  0  0
  -24.8696  -27.6826   19.4876 C   0  0  0  0  0  0
  -23.6344  -29.8170   20.1603 C   0  0  0  0  0  0
  -25.4109  -36.3076   24.0327 C   0  0  1  0  0  0
  -20.5896  -28.3691   23.1277 C   0  0  2  0  0  0
  -20.6776  -26.9416   22.5397 C   0  0  0  0  0  0
  -19.5753  -26.6391   21.5205 C   0  0  0  0  0  0
  -18.1934  -26.7934   22.1623 C   0  0  0  0  0  0
  -19.1546  -28.8858   23.2880 C   0  0  0  0  0  0
  -18.9478  -30.1468   23.8886 C   0  0  0  0  0  0
  -17.6480  -30.6590   24.0581 C   0  0  0  0  0  0
  -25.9055  -34.9455   23.5090 C   0  0  0  0  0  0
  -16.5366  -29.9097   23.6342 C   0  0  0  0  0  0
  -16.7281  -28.6518   23.0352 C   0  0  0  0  0  0
  -26.4494  -31.6595   25.0703 C   0  0  0  0  0  0
  -25.3728  -31.3743   26.1431 C   0  0  0  0  0  0
  -27.0348  -30.3032   24.6133 C   0  0  0  0  0  0
  -27.6042  -32.4349   25.7479 C   0  0  0  0  0  0
  -27.5575  -37.1793   24.8478 C   0  0  0  0  0  0
  -21.4189  -29.3046   22.3677 N   0  0  0  0  0  0
  -26.4277  -37.3781   23.9431 N   0  0  0  0  0  0
  -24.6870  -31.0613   22.0961 N   0  0  0  0  0  0
  -23.4201  -28.8168   23.3013 O   0  0  0  0  0  0
  -28.3544  -26.4791   20.1660 O   0  0  0  0  0  0
  -26.5629  -34.8936   22.4663 O   0  0  0  0  0  0
  -23.5417  -32.1388   23.7343 O   0  0  0  0  0  0
  -28.6928  -19.3192   20.9354 C   0  0  0  0  0  0
  -28.7337  -17.9009   21.0717 C   0  0  0  0  0  0
  -30.9921  -17.8727   20.2779 C   0  0  0  0  0  0
  -29.7995  -20.0807   20.4601 C   0  0  0  0  0  0
  -29.8762  -17.1276   20.7396 C   0  0  0  0  0  0
  -30.9591  -19.2961   20.1463 C   0  0  0  0  0  0
  -28.8191  -22.4768   20.6912 C   0  0  0  0  0  0
  -30.3915  -23.7682   19.4773 C   0  0  0  0  0  0
  -30.8626  -22.3107   19.6813 C   0  0  0  0  0  0
  -29.2424  -23.9689   20.4644 C   0  0  1  0  0  0
  -28.1254  -25.0205   20.0289 C   0  0  0  0  0  0
  -29.7636  -21.5606   20.3010 N   0  0  0  0  0  0
  -29.8092  -15.6714   20.8950 N   0  0  0  0  0  0
  -27.7255  -22.2068   21.1947 O   0  0  0  0  0  0
  -32.0954  -19.8918   19.7131 F   0  0  0  0  0  0
  -31.4841  -12.5223   19.1528 H   0  0  0  0  0  0
  -30.3841  -11.3959   19.8966 H   0  0  0  0  0  0
  -29.7762  -11.7505   17.4864 H   0  0  0  0  0  0
  -29.6481  -13.4730   17.7447 H   0  0  0  0  0  0
  -27.8817  -11.2850   18.8859 H   0  0  0  0  0  0
  -27.3744  -12.5524   17.8023 H   0  0  0  0  0  0
  -27.6757  -14.2487   19.5253 H   0  0  0  0  0  0
  -28.7115  -12.0417   21.3767 H   0  0  0  0  0  0
  -28.4428  -13.6909   21.8526 H   0  0  0  0  0  0
  -25.2760   -9.5677   22.4770 H   0  0  0  0  0  0
  -23.9994   -7.4631   22.7476 H   0  0  0  0  0  0
  -21.0843   -8.8768   19.8955 H   0  0  0  0  0  0
  -22.3699  -10.9670   19.6168 H   0  0  0  0  0  0
  -21.1980   -7.6143   23.9714 H   0  0  0  0  0  0
  -21.1491   -6.0522   25.9083 H   0  0  0  0  0  0
  -22.0595   -2.7603   23.2848 H   0  0  0  0  0  0
  -22.4082  -11.9880   22.4775 H   0  0  0  0  0  0
  -21.1119  -13.1283   22.2627 H   0  0  0  0  0  0
  -24.6588  -15.8405   20.5079 H   0  0  0  0  0  0
  -26.2740  -15.6247   20.0614 H   0  0  0  0  0  0
  -26.7170  -32.5456   23.1077 H   0  0  0  0  0  0
  -25.0116  -33.9736   25.0431 H   0  0  0  0  0  0
  -22.7141  -31.3036   21.4007 H   0  0  0  0  0  0
  -23.3760  -35.9590   23.3293 H   0  0  0  0  0  0
  -24.3565  -36.8890   22.2052 H   0  0  0  0  0  0
  -23.7205  -37.6461   23.6661 H   0  0  0  0  0  0
  -26.0872  -31.5552   20.6008 H   0  0  0  0  0  0
  -26.8402  -30.8437   21.9985 H   0  0  0  0  0  0
  -28.1179  -28.9926   21.1855 H   0  0  0  0  0  0
  -25.9751  -25.9408   18.9919 H   0  0  0  0  0  0
  -23.9756  -27.3073   19.0088 H   0  0  0  0  0  0
  -23.7542  -30.5931   19.4033 H   0  0  0  0  0  0
  -22.7546  -29.2459   19.8571 H   0  0  0  0  0  0
  -25.1282  -36.1903   25.0815 H   0  0  0  0  0  0
  -20.9993  -28.3247   24.1397 H   0  0  0  0  0  0
  -20.5675  -26.2304   23.3596 H   0  0  0  0  0  0
  -21.6645  -26.7443   22.1190 H   0  0  0  0  0  0
  -19.6917  -25.6302   21.1237 H   0  0  0  0  0  0
  -19.6684  -27.3202   20.6736 H   0  0  0  0  0  0
  -17.4203  -26.6693   21.4025 H   0  0  0  0  0  0
  -18.0335  -26.0061   22.9004 H   0  0  0  0  0  0
  -19.7961  -30.7298   24.2220 H   0  0  0  0  0  0
  -17.5043  -31.6271   24.5188 H   0  0  0  0  0  0
  -15.5370  -30.3013   23.7673 H   0  0  0  0  0  0
  -15.8676  -28.0853   22.7055 H   0  0  0  0  0  0
  -24.5902  -30.7089   25.7764 H   0  0  0  0  0  0
  -24.8937  -32.2925   26.4844 H   0  0  0  0  0  0
  -25.8049  -30.8931   27.0215 H   0  0  0  0  0  0
  -26.2919  -29.6778   24.1169 H   0  0  0  0  0  0
  -27.4091  -29.7273   25.4607 H   0  0  0  0  0  0
  -27.8755  -30.4343   23.9318 H   0  0  0  0  0  0
  -27.2630  -33.3660   26.2018 H   0  0  0  0  0  0
  -28.3867  -32.6893   25.0319 H   0  0  0  0  0  0
  -28.0688  -31.8506   26.5427 H   0  0  0  0  0  0
  -28.2583  -38.0104   24.7550 H   0  0  0  0  0  0
  -28.1074  -36.2637   24.6254 H   0  0  0  0  0  0
  -27.2309  -37.1368   25.8886 H   0  0  0  0  0  0
  -20.9359  -29.8787   21.6905 H   0  0  0  0  0  0
  -26.0144  -38.2841   24.1475 H   0  0  0  0  0  0
  -27.7698  -19.8063   21.2068 H   0  0  0  0  0  0
  -27.8469  -17.4031   21.4406 H   0  0  0  0  0  0
  -31.9073  -17.3635   20.0159 H   0  0  0  0  0  0
  -30.0375  -23.8998   18.4538 H   0  0  0  0  0  0
  -31.1996  -24.4830   19.6357 H   0  0  0  0  0  0
  -31.7276  -22.2858   20.3463 H   0  0  0  0  0  0
  -31.1560  -21.8727   18.7266 H   0  0  0  0  0  0
  -29.6506  -24.2932   21.4219 H   0  0  0  0  0  0
  -27.2345  -24.7818   20.6121 H   0  0  0  0  0  0
  -27.8708  -24.8153   18.9884 H   0  0  0  0  0  0
  -28.9202  -15.3348   21.2328 H   0  0  0  0  0  0
  1 25  1  0  0  0
  1 30  2  0  0  0
  1 83  1  0  0  0
  2  3  1  0  0  0
  2 25  1  0  0  0
  2 86  1  0  0  0
  2 87  1  0  0  0
  3  4  1  0  0  0
  3 88  1  0  0  0
  3 89  1  0  0  0
  4  5  1  0  0  0
  4 90  1  0  0  0
  4 91  1  0  0  0
  5  6  1  0  0  0
  5 26  1  0  0  0
  5 92  1  0  0  0
  6 25  1  0  0  0
  6 93  1  0  0  0
  6 94  1  0  0  0
  7  8  2  0  0  0
  7 26  1  0  0  0
  7 29  1  0  0  0
  8  9  1  0  0  0
  8 22  1  0  0  0
  9 10  1  0  0  0
  9 27  2  0  0  0
 10 11  2  0  0  0
 10 15  1  0  0  0
 11 12  1  0  0  0
 11 95  1  0  0  0
 12 13  2  0  0  0
 12 96  1  0  0  0
 13 14  1  0  0  0
 13 31  1  0  0  0
 14 15  2  0  0  0
 14 97  1  0  0  0
 15 98  1  0  0  0
 16 17  2  0  0  0
 16 21  1  0  0  0
 16 31  1  0  0  0
 17 18  1  0  0  0
 17 99  1  0  0  0
 18 19  2  0  0  0
 18100  1  0  0  0
 19 20  1  0  0  0
 19 24  1  0  0  0
 20 21  2  0  0  0
 20101  1  0  0  0
 21 23  1  0  0  0
 22 28  1  0  0  0
 22 32  2  0  0  0
 26 27  1  0  0  0
 28102  1  0  0  0
 28103  1  0  0  0
 29104  1  0  0  0
 29105  1  0  0  0
 33 34  1  0  0  0
 33 66  1  0  0  0
 33 70  2  0  0  0
 34 36  1  0  0  0
 34 59  1  0  0  0
 34106  1  0  0  0
 35 44  2  0  0  0
 35 45  1  0  0  0
 35 68  1  0  0  0
 36 56  1  0  0  0
 36107  1  0  0  0
 37 39  1  0  0  0
 37 47  1  0  0  0
 37 66  1  0  0  0
 37108  1  0  0  0
 38 43  2  0  0  0
 38 46  1  0  0  0
 38 47  1  0  0  0
 39 64  1  0  0  0
 39 67  2  0  0  0
 40 52  1  0  0  0
 40 53  2  0  0  0
 40 58  1  0  0  0
 41109  1  0  0  0
 41110  1  0  0  0
 41111  1  0  0  0
 41 48  1  0  0  0
 42 43  1  0  0  0
 42 66  1  0  0  0
 42112  1  0  0  0
 42113  1  0  0  0
 43 44  1  0  0  0
 44114  1  0  0  0
 45 46  2  0  0  0
 45115  1  0  0  0
 46116  1  0  0  0
 47117  1  0  0  0
 47118  1  0  0  0
 48 56  1  0  0  0
 48 65  1  0  0  0
 48119  1  0  0  0
 49 50  1  0  0  0
 49 53  1  0  0  0
 49 64  1  0  0  0
 49120  1  0  0  0
 50 51  1  0  0  0
 50121  1  0  0  0
 50122  1  0  0  0
 51 52  1  0  0  0
 51123  1  0  0  0
 51124  1  0  0  0
 52125  1  0  0  0
 52126  1  0  0  0
 53 54  1  0  0  0
 54 55  2  0  0  0
 54127  1  0  0  0
 55 57  1  0  0  0
 55128  1  0  0  0
 56 69  2  0  0  0
 57 58  2  0  0  0
 57129  1  0  0  0
 58130  1  0  0  0
 59 60  1  0  0  0
 59 61  1  0  0  0
 59 62  1  0  0  0
 60131  1  0  0  0
 60132  1  0  0  0
 60133  1  0  0  0
 61134  1  0  0  0
 61135  1  0  0  0
 61136  1  0  0  0
 62137  1  0  0  0
 62138  1  0  0  0
 62139  1  0  0  0
 63 65  1  0  0  0
 63140  1  0  0  0
 63141  1  0  0  0
 63142  1  0  0  0
 64143  1  0  0  0
 65144  1  0  0  0
 68 81  1  0  0  0
 71 72  2  0  0  0
 71 74  1  0  0  0
 71145  1  0  0  0
 72 75  1  0  0  0
 72146  1  0  0  0
 73 75  2  0  0  0
 73 76  1  0  0  0
 73147  1  0  0  0
 74 76  2  0  0  0
 74 82  1  0  0  0
 75 83  1  0  0  0
 76 85  1  0  0  0
 77 80  1  0  0  0
 77 82  1  0  0  0
 77 84  2  0  0  0
 78 79  1  0  0  0
 78 80  1  0  0  0
 78148  1  0  0  0
 78149  1  0  0  0
 79 82  1  0  0  0
 79150  1  0  0  0
 79151  1  0  0  0
 80 81  1  0  0  0
 80152  1  0  0  0
 81153  1  0  0  0
 81154  1  0  0  0
 83155  1  0  0  0
M  ISO  4   1 100  68 101  81 101  83 100
M  END
> <chiral flag>
0

> <version>
0

> <s_m_source_file>
/data/baiqing/PycharmProjects/Reinvent-master-3.2/result/LINK_invent/BTK/process_docking_weight1_custom_product_contain_oxygen_bond_distance_aromatic_linkinvent_7_9_3/rearranged_h_0060.sdf

> <i_m_source_file_index>
49

> <r_mmod_Potential_Energy-OPLS-2005>
135.948196411133

> <r_mmod_Stretch_Energy-OPLS-2005>
83.4098434448242

> <r_mmod_Bend_Energy-OPLS-2005>
168.991851806641

> <r_mmod_Torsional_Energy-OPLS-2005>
252.532943725586

> <r_mmod_Improper_Torsional_Energy-OPLS-2005>
3.93975591659546

> <r_mmod_Van_der_Waal_Energy-OPLS-2005>
152.924697875977

> <r_mmod_Electrostatic_Energy-OPLS-2005>
-359.209838867188

> <r_mmod_Solvation_Energy-OPLS-2005>
-213.683441162109

> <b_mmod_Minimization_Converged-OPLS-2005>
0

> <r_mmod_RMS_Derivative-OPLS-2005>
1.26658821105957

$$$$
49
                    3D
 Structure written by MMmdl.
156164  0  0  1  0            999 V2000
  -30.5919  -14.7958   20.4312 C   0  0  0  0  0  0
  -30.4287  -12.4837   19.4863 C   0  0  0  0  0  0
  -29.5127  -12.5385   18.2419 C   0  0  0  0  0  0
  -28.0373  -12.3535   18.6476 C   0  0  0  0  0  0
  -27.6407  -13.2431   19.8541 C   0  0  2  0  0  0
  -28.6853  -13.1908   20.9925 C   0  0  0  0  0  0
  -25.2508  -13.8212   20.5677 C   0  0  0  0  0  0
  -24.1802  -13.0438   20.9161 C   0  0  0  0  0  0
  -24.6401  -11.6921   20.8684 C   0  0  0  0  0  0
  -23.9047  -10.4309   21.0324 C   0  0  0  0  0  0
  -24.3585   -9.4239   21.9136 C   0  0  0  0  0  0
  -23.6254   -8.2284   22.0728 C   0  0  0  0  0  0
  -22.4262   -8.0287   21.3502 C   0  0  0  0  0  0
  -21.9876   -9.0255   20.4618 C   0  0  0  0  0  0
  -22.7195  -10.2138   20.2988 C   0  0  0  0  0  0
  -21.6862   -6.0732   22.5256 C   0  0  0  0  0  0
  -21.4034   -6.5633   23.8193 C   0  0  0  0  0  0
  -21.3662   -5.6782   24.9147 C   0  0  0  0  0  0
  -21.6056   -4.3046   24.7194 C   0  0  0  0  0  0
  -21.8819   -3.8140   23.4307 C   0  0  0  0  0  0
  -21.9201   -4.6961   22.3373 C   0  0  0  0  0  0
  -22.7830  -13.5219   21.1812 C   0  0  0  0  0  0
  -22.1636   -4.2151   21.0940 F   0  0  0  0  0  0
  -21.5634   -3.4523   25.7695 F   0  0  0  0  0  0
  -29.9900  -13.5515   20.4208 N   0  0  0  0  0  0
  -26.2943  -12.9444   20.3293 N   0  0  0  0  0  0
  -25.9351  -11.6569   20.5741 N   0  0  0  0  0  0
  -22.0470  -12.8222   22.0364 N   0  0  0  0  0  0
  -25.4213  -15.1929   20.4094 N   0  0  0  0  0  0
  -31.7547  -14.9030   20.0313 O   0  0  0  0  0  0
  -21.6630   -6.8883   21.4226 O   0  0  0  0  0  0
  -22.3522  -14.5540   20.6662 O   0  0  0  0  0  0
  -24.6427  -31.8513   23.2026 C   0  0  0  0  0  0
  -25.9234  -32.4724   23.8382 C   0  0  1  0  0  0
  -27.2141  -27.2112   20.1491 C   0  0  0  0  0  0
  -25.6015  -33.8528   24.2300 N   0  0  0  0  0  0
  -23.4409  -30.4807   21.5402 C   0  0  2  0  0  0
  -24.8885  -28.9221   20.1111 C   0  0  0  0  0  0
  -22.7542  -29.4638   22.4857 C   0  0  0  0  0  0
  -18.0316  -28.1436   22.8500 C   0  0  0  0  0  0
  -24.1497  -36.7237   23.2652 C   0  0  0  0  0  0
  -25.9942  -30.7421   21.3991 C   0  0  0  0  0  0
  -26.0598  -29.3653   20.7383 C   0  0  0  0  0  0
  -27.2227  -28.5207   20.7548 C   0  0  0  0  0  0
  -26.0279  -26.8685   19.4579 C   0  0  0  0  0  0
  -24.8825  -27.6843   19.4576 C   0  0  0  0  0  0
  -23.6652  -29.8193   20.1553 C   0  0  0  0  0  0
  -25.4127  -36.3049   24.0351 C   0  0  1  0  0  0
  -20.5932  -28.3776   23.1216 C   0  0  2  0  0  0
  -20.6825  -26.9466   22.5392 C   0  0  0  0  0  0
  -19.5750  -26.6411   21.5242 C   0  0  0  0  0  0
  -18.1949  -26.7999   22.1635 C   0  0  0  0  0  0
  -19.1577  -28.8915   23.2869 C   0  0  0  0  0  0
  -18.9484  -30.1517   23.8887 C   0  0  0  0  0  0
  -17.6469  -30.6621   24.0593 C   0  0  0  0  0  0
  -25.9068  -34.9412   23.5107 C   0  0  0  0  0  0
  -16.5363  -29.9111   23.6364 C   0  0  0  0  0  0
  -16.7303  -28.6539   23.0382 C   0  0  0  0  0  0
  -26.4585  -31.6589   25.0791 C   0  0  0  0  0  0
  -25.3799  -31.3681   26.1470 C   0  0  0  0  0  0
  -27.0525  -30.3033   24.6355 C   0  0  0  0  0  0
  -27.6126  -32.4380   25.7522 C   0  0  0  0  0  0
  -27.5578  -37.1771   24.8482 C   0  0  0  0  0  0
  -21.4254  -29.3107   22.3576 N   0  0  0  0  0  0
  -26.4299  -37.3758   23.9423 N   0  0  0  0  0  0
  -24.7112  -31.0451   22.1018 N   0  0  0  0  0  0
  -23.4190  -28.8180   23.2995 O   0  0  0  0  0  0
  -28.2760  -26.2578   20.2194 O   0  0  0  0  0  0
  -26.5585  -34.8909   22.4638 O   0  0  0  0  0  0
  -23.5559  -32.1325   23.7296 O   0  0  0  0  0  0
  -28.6912  -19.5345   18.6238 C   0  0  0  0  0  0
  -29.1454  -17.1247   18.7549 C   0  0  0  0  0  0
  -29.6351  -18.5816   20.6503 C   0  0  0  0  0  0
  -28.6715  -18.2473   18.0337 C   0  0  0  0  0  0
  -29.1831  -19.7782   19.9287 C   0  0  0  0  0  0
  -29.6167  -17.2224   20.0840 C   0  0  0  0  0  0
  -28.0876  -18.0301   16.6911 C   0  0  0  0  0  0
  -28.8725  -23.7328   20.2786 C   0  0  0  0  0  0
  -27.2232  -18.8530   16.0622 C   0  0  0  0  0  0
  -28.0147  -24.8358   20.1988 C   0  0  0  0  0  0
  -28.4124  -22.2945   20.0874 C   0  0  0  0  0  0
  -26.6455  -18.6074   14.6815 C   0  0  0  0  0  0
  -29.2574  -21.2160   20.3827 N   0  0  0  0  0  0
  -29.8568  -15.9267   20.8007 N   0  0  0  0  0  0
  -27.2767  -22.0595   19.6674 O   0  0  0  0  0  0
  -31.4707  -12.5981   19.1868 H   0  0  0  0  0  0
  -30.3623  -11.5047   19.9634 H   0  0  0  0  0  0
  -29.8006  -11.7721   17.5220 H   0  0  0  0  0  0
  -29.6365  -13.4944   17.7296 H   0  0  0  0  0  0
  -27.8952  -11.3019   18.8979 H   0  0  0  0  0  0
  -27.3837  -12.5530   17.7981 H   0  0  0  0  0  0
  -27.6310  -14.2647   19.4756 H   0  0  0  0  0  0
  -28.7295  -12.2001   21.4448 H   0  0  0  0  0  0
  -28.4082  -13.8799   21.7916 H   0  0  0  0  0  0
  -25.2707   -9.5731   22.4730 H   0  0  0  0  0  0
  -23.9954   -7.4705   22.7465 H   0  0  0  0  0  0
  -21.0807   -8.8756   19.8941 H   0  0  0  0  0  0
  -22.3614  -10.9664   19.6098 H   0  0  0  0  0  0
  -21.2034   -7.6133   23.9699 H   0  0  0  0  0  0
  -21.1473   -6.0491   25.9057 H   0  0  0  0  0  0
  -22.0602   -2.7599   23.2789 H   0  0  0  0  0  0
  -22.4043  -11.9850   22.4707 H   0  0  0  0  0  0
  -21.1104  -13.1294   22.2547 H   0  0  0  0  0  0
  -24.6574  -15.8513   20.5171 H   0  0  0  0  0  0
  -26.2771  -15.6279   20.0929 H   0  0  0  0  0  0
  -26.7301  -32.5330   23.1114 H   0  0  0  0  0  0
  -25.0393  -33.9685   25.0600 H   0  0  0  0  0  0
  -22.7464  -31.3107   21.3931 H   0  0  0  0  0  0
  -23.3809  -35.9518   23.3306 H   0  0  0  0  0  0
  -24.3595  -36.8848   22.2063 H   0  0  0  0  0  0
  -23.7189  -37.6415   23.6670 H   0  0  0  0  0  0
  -26.1672  -31.5036   20.6384 H   0  0  0  0  0  0
  -26.8578  -30.7695   22.0500 H   0  0  0  0  0  0
  -28.1109  -28.8530   21.2759 H   0  0  0  0  0  0
  -25.9516  -25.9371   18.9179 H   0  0  0  0  0  0
  -23.9904  -27.3447   18.9466 H   0  0  0  0  0  0
  -23.8029  -30.5977   19.4028 H   0  0  0  0  0  0
  -22.7826  -29.2597   19.8393 H   0  0  0  0  0  0
  -25.1330  -36.1899   25.0856 H   0  0  0  0  0  0
  -21.0061  -28.3370   24.1320 H   0  0  0  0  0  0
  -20.5807  -26.2377   23.3633 H   0  0  0  0  0  0
  -21.6672  -26.7540   22.1098 H   0  0  0  0  0  0
  -19.6913  -25.6314   21.1293 H   0  0  0  0  0  0
  -19.6703  -27.3219   20.6774 H   0  0  0  0  0  0
  -17.4250  -26.6836   21.4013 H   0  0  0  0  0  0
  -18.0280  -26.0103   22.8981 H   0  0  0  0  0  0
  -19.7950  -30.7386   24.2215 H   0  0  0  0  0  0
  -17.5011  -31.6298   24.5204 H   0  0  0  0  0  0
  -15.5370  -30.3009   23.7700 H   0  0  0  0  0  0
  -15.8702  -28.0860   22.7088 H   0  0  0  0  0  0
  -24.6029  -30.6995   25.7746 H   0  0  0  0  0  0
  -24.8940  -32.2814   26.4918 H   0  0  0  0  0  0
  -25.8108  -30.8825   27.0238 H   0  0  0  0  0  0
  -26.3173  -29.6668   24.1415 H   0  0  0  0  0  0
  -27.4260  -29.7411   25.4937 H   0  0  0  0  0  0
  -27.9029  -30.4373   23.9657 H   0  0  0  0  0  0
  -27.2771  -33.3746   26.1988 H   0  0  0  0  0  0
  -28.3947  -32.6814   25.0317 H   0  0  0  0  0  0
  -28.0790  -31.8575   26.5490 H   0  0  0  0  0  0
  -28.2589  -38.0078   24.7570 H   0  0  0  0  0  0
  -28.1086  -36.2609   24.6299 H   0  0  0  0  0  0
  -27.2282  -37.1385   25.8880 H   0  0  0  0  0  0
  -20.9466  -29.8751   21.6694 H   0  0  0  0  0  0
  -26.0179  -38.2834   24.1424 H   0  0  0  0  0  0
  -28.3364  -20.3719   18.0424 H   0  0  0  0  0  0
  -29.0850  -16.1484   18.2929 H   0  0  0  0  0  0
  -29.9857  -18.7063   21.6637 H   0  0  0  0  0  0
  -28.4044  -17.1304   16.1789 H   0  0  0  0  0  0
  -29.9272  -23.9090   20.4373 H   0  0  0  0  0  0
  -26.8694  -19.7544   16.5437 H   0  0  0  0  0  0
  -26.9641  -24.6221   20.0963 H   0  0  0  0  0  0
  -27.1064  -17.7478   14.1948 H   0  0  0  0  0  0
  -26.7926  -19.4791   14.0420 H   0  0  0  0  0  0
  -25.5719  -18.4250   14.7564 H   0  0  0  0  0  0
  -30.0894  -21.4608   20.9039 H   0  0  0  0  0  0
  -29.0969  -15.6856   21.4192 H   0  0  0  0  0  0
  1 25  1  0  0  0
  1 30  2  0  0  0
  1 84  1  0  0  0
  2  3  1  0  0  0
  2 25  1  0  0  0
  2 86  1  0  0  0
  2 87  1  0  0  0
  3  4  1  0  0  0
  3 88  1  0  0  0
  3 89  1  0  0  0
  4  5  1  0  0  0
  4 90  1  0  0  0
  4 91  1  0  0  0
  5  6  1  0  0  0
  5 26  1  0  0  0
  5 92  1  0  0  0
  6 25  1  0  0  0
  6 93  1  0  0  0
  6 94  1  0  0  0
  7  8  2  0  0  0
  7 26  1  0  0  0
  7 29  1  0  0  0
  8  9  1  0  0  0
  8 22  1  0  0  0
  9 10  1  0  0  0
  9 27  2  0  0  0
 10 11  2  0  0  0
 10 15  1  0  0  0
 11 12  1  0  0  0
 11 95  1  0  0  0
 12 13  2  0  0  0
 12 96  1  0  0  0
 13 14  1  0  0  0
 13 31  1  0  0  0
 14 15  2  0  0  0
 14 97  1  0  0  0
 15 98  1  0  0  0
 16 17  2  0  0  0
 16 21  1  0  0  0
 16 31  1  0  0  0
 17 18  1  0  0  0
 17 99  1  0  0  0
 18 19  2  0  0  0
 18100  1  0  0  0
 19 20  1  0  0  0
 19 24  1  0  0  0
 20 21  2  0  0  0
 20101  1  0  0  0
 21 23  1  0  0  0
 22 28  1  0  0  0
 22 32  2  0  0  0
 26 27  1  0  0  0
 28102  1  0  0  0
 28103  1  0  0  0
 29104  1  0  0  0
 29105  1  0  0  0
 33 34  1  0  0  0
 33 66  1  0  0  0
 33 70  2  0  0  0
 34 36  1  0  0  0
 34 59  1  0  0  0
 34106  1  0  0  0
 35 44  2  0  0  0
 35 45  1  0  0  0
 35 68  1  0  0  0
 36 56  1  0  0  0
 36107  1  0  0  0
 37 39  1  0  0  0
 37 47  1  0  0  0
 37 66  1  0  0  0
 37108  1  0  0  0
 38 43  2  0  0  0
 38 46  1  0  0  0
 38 47  1  0  0  0
 39 64  1  0  0  0
 39 67  2  0  0  0
 40 52  1  0  0  0
 40 53  2  0  0  0
 40 58  1  0  0  0
 41109  1  0  0  0
 41110  1  0  0  0
 41111  1  0  0  0
 41 48  1  0  0  0
 42 43  1  0  0  0
 42 66  1  0  0  0
 42112  1  0  0  0
 42113  1  0  0  0
 43 44  1  0  0  0
 44114  1  0  0  0
 45 46  2  0  0  0
 45115  1  0  0  0
 46116  1  0  0  0
 47117  1  0  0  0
 47118  1  0  0  0
 48 56  1  0  0  0
 48 65  1  0  0  0
 48119  1  0  0  0
 49 50  1  0  0  0
 49 53  1  0  0  0
 49 64  1  0  0  0
 49120  1  0  0  0
 50 51  1  0  0  0
 50121  1  0  0  0
 50122  1  0  0  0
 51 52  1  0  0  0
 51123  1  0  0  0
 51124  1  0  0  0
 52125  1  0  0  0
 52126  1  0  0  0
 53 54  1  0  0  0
 54 55  2  0  0  0
 54127  1  0  0  0
 55 57  1  0  0  0
 55128  1  0  0  0
 56 69  2  0  0  0
 57 58  2  0  0  0
 57129  1  0  0  0
 58130  1  0  0  0
 59 60  1  0  0  0
 59 61  1  0  0  0
 59 62  1  0  0  0
 60131  1  0  0  0
 60132  1  0  0  0
 60133  1  0  0  0
 61134  1  0  0  0
 61135  1  0  0  0
 61136  1  0  0  0
 62137  1  0  0  0
 62138  1  0  0  0
 62139  1  0  0  0
 63 65  1  0  0  0
 63140  1  0  0  0
 63141  1  0  0  0
 63142  1  0  0  0
 64143  1  0  0  0
 65144  1  0  0  0
 68 80  1  0  0  0
 71 74  2  0  0  0
 71 75  1  0  0  0
 71145  1  0  0  0
 72 74  1  0  0  0
 72 76  2  0  0  0
 72146  1  0  0  0
 73 75  2  0  0  0
 73 76  1  0  0  0
 73147  1  0  0  0
 74 77  1  0  0  0
 75 83  1  0  0  0
 76 84  1  0  0  0
 77 79  2  0  0  0
 77148  1  0  0  0
 78 80  2  0  0  0
 78 81  1  0  0  0
 78149  1  0  0  0
 79 82  1  0  0  0
 79150  1  0  0  0
 80151  1  0  0  0
 81 83  1  0  0  0
 81 85  2  0  0  0
 82152  1  0  0  0
 82153  1  0  0  0
 82154  1  0  0  0
 83155  1  0  0  0
 84156  1  0  0  0
M  ISO  4   1 100  68 101  80 101  84 100
M  END
> <chiral flag>
0

> <version>
0

> <s_m_source_file>
/data/baiqing/PycharmProjects/Reinvent-master-3.2/result/LINK_invent/BTK/process_docking_weight1_custom_product_contain_oxygen_bond_distance_aromatic_linkinvent_7_9_3/rearranged_h_0060.sdf

> <i_m_source_file_index>
50

> <r_mmod_Potential_Energy-OPLS-2005>
268.264007568359

> <r_mmod_Stretch_Energy-OPLS-2005>
151.804489135742

> <r_mmod_Bend_Energy-OPLS-2005>
172.003036499023

> <r_mmod_Torsional_Energy-OPLS-2005>
279.339172363281

> <r_mmod_Improper_Torsional_Energy-OPLS-2005>
6.07164812088013

> <r_mmod_Van_der_Waal_Energy-OPLS-2005>
142.29328918457

> <r_mmod_Electrostatic_Energy-OPLS-2005>
-372.901702880859

> <r_mmod_Solvation_Energy-OPLS-2005>
-227.974151611328

> <b_mmod_Minimization_Converged-OPLS-2005>
0

> <r_mmod_RMS_Derivative-OPLS-2005>
3.99359965324402

$$$$
50
                    3D
 Structure written by MMmdl.
164172  0  0  1  0            999 V2000
  -30.6825  -14.4908   20.5310 C   0  0  0  0  0  0
  -30.4297  -12.3092   19.4299 C   0  0  0  0  0  0
  -29.5045  -12.5034   18.2069 C   0  0  0  0  0  0
  -28.0233  -12.3756   18.6154 C   0  0  0  0  0  0
  -27.6655  -13.2081   19.8750 C   0  0  2  0  0  0
  -28.7059  -12.9985   20.9996 C   0  0  0  0  0  0
  -25.2613  -13.8152   20.5662 C   0  0  0  0  0  0
  -24.1850  -13.0439   20.9146 C   0  0  0  0  0  0
  -24.6409  -11.6906   20.8693 C   0  0  0  0  0  0
  -23.9072  -10.4298   21.0367 C   0  0  0  0  0  0
  -24.3608   -9.4222   21.9161 C   0  0  0  0  0  0
  -23.6277   -8.2260   22.0753 C   0  0  0  0  0  0
  -22.4250   -8.0295   21.3550 C   0  0  0  0  0  0
  -21.9882   -9.0267   20.4654 C   0  0  0  0  0  0
  -22.7228  -10.2133   20.3047 C   0  0  0  0  0  0
  -21.6860   -6.0725   22.5256 C   0  0  0  0  0  0
  -21.4032   -6.5619   23.8194 C   0  0  0  0  0  0
  -21.3663   -5.6775   24.9151 C   0  0  0  0  0  0
  -21.6029   -4.3036   24.7202 C   0  0  0  0  0  0
  -21.8828   -3.8144   23.4325 C   0  0  0  0  0  0
  -21.9202   -4.6955   22.3387 C   0  0  0  0  0  0
  -22.7877  -13.5238   21.1796 C   0  0  0  0  0  0
  -22.1664   -4.2147   21.0960 F   0  0  0  0  0  0
  -21.5631   -3.4523   25.7714 F   0  0  0  0  0  0
  -30.0385  -13.2951   20.4506 N   0  0  0  0  0  0
  -26.3041  -12.9330   20.3349 N   0  0  0  0  0  0
  -25.9331  -11.6486   20.5713 N   0  0  0  0  0  0
  -22.0508  -12.8265   22.0369 N   0  0  0  0  0  0
  -25.4378  -15.1859   20.4067 N   0  0  0  0  0  0
  -31.8217  -14.6717   20.0917 O   0  0  0  0  0  0
  -21.6641   -6.8868   21.4228 O   0  0  0  0  0  0
  -22.3576  -14.5555   20.6652 O   0  0  0  0  0  0
  -24.6156  -31.8679   23.2092 C   0  0  0  0  0  0
  -25.9041  -32.4828   23.8393 C   0  0  1  0  0  0
  -27.2231  -27.4198   20.1121 C   0  0  0  0  0  0
  -25.5886  -33.8622   24.2320 N   0  0  0  0  0  0
  -23.4048  -30.4927   21.5490 C   0  0  2  0  0  0
  -24.8508  -28.9598   20.1115 C   0  0  0  0  0  0
  -22.7427  -29.4664   22.4970 C   0  0  0  0  0  0
  -18.0275  -28.1381   22.8493 C   0  0  0  0  0  0
  -24.1483  -36.7312   23.2637 C   0  0  0  0  0  0
  -25.9359  -30.8307   21.3650 C   0  0  0  0  0  0
  -26.0127  -29.4657   20.7105 C   0  0  0  0  0  0
  -27.2058  -28.7028   20.7050 C   0  0  0  0  0  0
  -26.0503  -26.9380   19.4937 C   0  0  0  0  0  0
  -24.8654  -27.6965   19.4967 C   0  0  0  0  0  0
  -23.6140  -29.8281   20.1623 C   0  0  0  0  0  0
  -25.4104  -36.3113   24.0335 C   0  0  1  0  0  0
  -20.5871  -28.3679   23.1310 C   0  0  2  0  0  0
  -20.6770  -26.9411   22.5415 C   0  0  0  0  0  0
  -19.5742  -26.6391   21.5208 C   0  0  0  0  0  0
  -18.1922  -26.7929   22.1623 C   0  0  0  0  0  0
  -19.1529  -28.8849   23.2898 C   0  0  0  0  0  0
  -18.9458  -30.1450   23.8927 C   0  0  0  0  0  0
  -17.6461  -30.6589   24.0570 C   0  0  0  0  0  0
  -25.9029  -34.9478   23.5127 C   0  0  0  0  0  0
  -16.5354  -29.9094   23.6322 C   0  0  0  0  0  0
  -16.7267  -28.6505   23.0358 C   0  0  0  0  0  0
  -26.4458  -31.6618   25.0737 C   0  0  0  0  0  0
  -25.3722  -31.3752   26.1492 C   0  0  0  0  0  0
  -27.0283  -30.3056   24.6135 C   0  0  0  0  0  0
  -27.6050  -32.4329   25.7483 C   0  0  0  0  0  0
  -27.5582  -37.1801   24.8459 C   0  0  0  0  0  0
  -21.4152  -29.3041   22.3714 N   0  0  0  0  0  0
  -26.4292  -37.3801   23.9404 N   0  0  0  0  0  0
  -24.6700  -31.0778   22.0997 N   0  0  0  0  0  0
  -23.4196  -28.8196   23.3009 O   0  0  0  0  0  0
  -28.3520  -26.6246   20.1519 O   0  0  0  0  0  0
  -26.5615  -34.8939   22.4696 O   0  0  0  0  0  0
  -23.5334  -32.1433   23.7482 O   0  0  0  0  0  0
  -29.6530  -18.0003   18.1368 C   0  0  0  0  0  0
  -29.7489  -16.7907   18.8405 C   0  0  0  0  0  0
  -29.8035  -18.0203   20.9426 C   0  0  0  0  0  0
  -29.7111  -19.2582   20.2413 C   0  0  0  0  0  0
  -29.6598  -19.2381   18.8155 C   0  0  0  0  0  0
  -29.8522  -16.7816   20.2495 C   0  0  0  0  0  0
  -29.6863  -20.5317   21.0036 C   0  0  0  0  0  0
  -28.0644  -23.8464   18.9087 C   0  0  0  0  0  0
  -29.6383  -20.5015   17.9633 C   0  0  0  0  0  0
  -28.8285  -24.2800   17.6668 C   0  0  0  0  0  0
  -28.5942  -22.8764   21.2538 C   0  0  0  0  0  0
  -28.1763  -25.4030   20.9123 C   0  0  0  0  0  0
  -28.7289  -24.0941   20.2691 C   0  0  2  0  0  0
  -30.5326  -20.7161   22.0129 N   0  0  0  0  0  0
  -29.9326  -15.5340   20.9483 N   0  0  0  0  0  0
  -28.8262  -21.5176   20.6701 N   0  3  0  0  0  0
  -26.9623  -23.2999   18.8094 O   0  0  0  0  0  0
  -31.4757  -12.4044   19.1361 H   0  0  0  0  0  0
  -30.3272  -11.2996   19.8282 H   0  0  0  0  0  0
  -29.7403  -11.7664   17.4368 H   0  0  0  0  0  0
  -29.6846  -13.4790   17.7525 H   0  0  0  0  0  0
  -27.8214  -11.3208   18.8013 H   0  0  0  0  0  0
  -27.3813  -12.6679   17.7824 H   0  0  0  0  0  0
  -27.7089  -14.2544   19.5750 H   0  0  0  0  0  0
  -28.6785  -11.9670   21.3526 H   0  0  0  0  0  0
  -28.4714  -13.6131   21.8691 H   0  0  0  0  0  0
  -25.2760   -9.5695   22.4733 H   0  0  0  0  0  0
  -23.9990   -7.4642   22.7458 H   0  0  0  0  0  0
  -21.0820   -8.8777   19.8947 H   0  0  0  0  0  0
  -22.3683  -10.9661   19.6146 H   0  0  0  0  0  0
  -21.2045   -7.6122   23.9688 H   0  0  0  0  0  0
  -21.1463   -6.0503   25.9046 H   0  0  0  0  0  0
  -22.0614   -2.7606   23.2820 H   0  0  0  0  0  0
  -22.4108  -11.9939   22.4801 H   0  0  0  0  0  0
  -21.1130  -13.1321   22.2519 H   0  0  0  0  0  0
  -24.6758  -15.8464   20.5193 H   0  0  0  0  0  0
  -26.2962  -15.6230   20.0985 H   0  0  0  0  0  0
  -26.7129  -32.5545   23.1167 H   0  0  0  0  0  0
  -25.0031  -33.9766   25.0470 H   0  0  0  0  0  0
  -22.6935  -31.3102   21.4117 H   0  0  0  0  0  0
  -23.3749  -35.9639   23.3298 H   0  0  0  0  0  0
  -24.3592  -36.8942   22.2056 H   0  0  0  0  0  0
  -23.7238  -37.6512   23.6662 H   0  0  0  0  0  0
  -26.0535  -31.5975   20.5977 H   0  0  0  0  0  0
  -26.8214  -30.8809   21.9873 H   0  0  0  0  0  0
  -28.1001  -29.0815   21.1781 H   0  0  0  0  0  0
  -26.0432  -25.9657   19.0239 H   0  0  0  0  0  0
  -23.9731  -27.3031   19.0279 H   0  0  0  0  0  0
  -23.7242  -30.6051   19.4047 H   0  0  0  0  0  0
  -22.7373  -29.2499   19.8646 H   0  0  0  0  0  0
  -25.1274  -36.1972   25.0829 H   0  0  0  0  0  0
  -20.9960  -28.3244   24.1430 H   0  0  0  0  0  0
  -20.5666  -26.2284   23.3600 H   0  0  0  0  0  0
  -21.6643  -26.7442   22.1215 H   0  0  0  0  0  0
  -19.6894  -25.6297   21.1247 H   0  0  0  0  0  0
  -19.6670  -27.3206   20.6737 H   0  0  0  0  0  0
  -17.4173  -26.6684   21.4031 H   0  0  0  0  0  0
  -18.0315  -26.0074   22.9024 H   0  0  0  0  0  0
  -19.7939  -30.7251   24.2320 H   0  0  0  0  0  0
  -17.5023  -31.6278   24.5153 H   0  0  0  0  0  0
  -15.5357  -30.3010   23.7628 H   0  0  0  0  0  0
  -15.8666  -28.0825   22.7076 H   0  0  0  0  0  0
  -24.5816  -30.7194   25.7822 H   0  0  0  0  0  0
  -24.9005  -32.2933   26.5003 H   0  0  0  0  0  0
  -25.8048  -30.8841   27.0218 H   0  0  0  0  0  0
  -26.2838  -29.6827   24.1168 H   0  0  0  0  0  0
  -27.4021  -29.7280   25.4601 H   0  0  0  0  0  0
  -27.8686  -30.4358   23.9314 H   0  0  0  0  0  0
  -27.2682  -33.3625   26.2083 H   0  0  0  0  0  0
  -28.3835  -32.6902   25.0286 H   0  0  0  0  0  0
  -28.0746  -31.8445   26.5378 H   0  0  0  0  0  0
  -28.2588  -38.0109   24.7531 H   0  0  0  0  0  0
  -28.1091  -36.2642   24.6246 H   0  0  0  0  0  0
  -27.2315  -37.1431   25.8870 H   0  0  0  0  0  0
  -20.9301  -29.8782   21.6963 H   0  0  0  0  0  0
  -26.0177  -38.2874   24.1419 H   0  0  0  0  0  0
  -29.5843  -17.9650   17.0581 H   0  0  0  0  0  0
  -29.7365  -15.8674   18.2762 H   0  0  0  0  0  0
  -29.8493  -18.0209   22.0235 H   0  0  0  0  0  0
  -29.8843  -20.2792   16.9245 H   0  0  0  0  0  0
  -30.3727  -21.2295   18.3125 H   0  0  0  0  0  0
  -28.6478  -20.9577   17.9726 H   0  0  0  0  0  0
  -29.8823  -24.0210   17.7647 H   0  0  0  0  0  0
  -28.7464  -25.3570   17.5194 H   0  0  0  0  0  0
  -28.4328  -23.7754   16.7862 H   0  0  0  0  0  0
  -27.5881  -22.8804   21.6756 H   0  0  0  0  0  0
  -29.2588  -23.0393   22.1023 H   0  0  0  0  0  0
  -28.6891  -25.5581   21.8619 H   0  0  0  0  0  0
  -27.1330  -25.2380   21.1883 H   0  0  0  0  0  0
  -29.7907  -24.2449   20.0809 H   0  0  0  0  0  0
  -31.2429  -20.0210   22.1940 H   0  0  0  0  0  0
  -30.5479  -21.5592   22.5611 H   0  0  0  0  0  0
  -29.1187  -15.2886   21.4927 H   0  0  0  0  0  0
  -28.1442  -21.2386   19.9735 H   0  0  0  0  0  0
  1 25  1  0  0  0
  1 30  2  0  0  0
  1 85  1  0  0  0
  2  3  1  0  0  0
  2 25  1  0  0  0
  2 88  1  0  0  0
  2 89  1  0  0  0
  3  4  1  0  0  0
  3 90  1  0  0  0
  3 91  1  0  0  0
  4  5  1  0  0  0
  4 92  1  0  0  0
  4 93  1  0  0  0
  5  6  1  0  0  0
  5 26  1  0  0  0
  5 94  1  0  0  0
  6 25  1  0  0  0
  6 95  1  0  0  0
  6 96  1  0  0  0
  7  8  2  0  0  0
  7 26  1  0  0  0
  7 29  1  0  0  0
  8  9  1  0  0  0
  8 22  1  0  0  0
  9 10  1  0  0  0
  9 27  2  0  0  0
 10 11  2  0  0  0
 10 15  1  0  0  0
 11 12  1  0  0  0
 11 97  1  0  0  0
 12 13  2  0  0  0
 12 98  1  0  0  0
 13 14  1  0  0  0
 13 31  1  0  0  0
 14 15  2  0  0  0
 14 99  1  0  0  0
 15100  1  0  0  0
 16 17  2  0  0  0
 16 21  1  0  0  0
 16 31  1  0  0  0
 17 18  1  0  0  0
 17101  1  0  0  0
 18 19  2  0  0  0
 18102  1  0  0  0
 19 20  1  0  0  0
 19 24  1  0  0  0
 20 21  2  0  0  0
 20103  1  0  0  0
 21 23  1  0  0  0
 22 28  1  0  0  0
 22 32  2  0  0  0
 26 27  1  0  0  0
 28104  1  0  0  0
 28105  1  0  0  0
 29106  1  0  0  0
 29107  1  0  0  0
 33 34  1  0  0  0
 33 66  1  0  0  0
 33 70  2  0  0  0
 34 36  1  0  0  0
 34 59  1  0  0  0
 34108  1  0  0  0
 35 44  2  0  0  0
 35 45  1  0  0  0
 35 68  1  0  0  0
 36 56  1  0  0  0
 36109  1  0  0  0
 37 39  1  0  0  0
 37 47  1  0  0  0
 37 66  1  0  0  0
 37110  1  0  0  0
 38 43  2  0  0  0
 38 46  1  0  0  0
 38 47  1  0  0  0
 39 64  1  0  0  0
 39 67  2  0  0  0
 40 52  1  0  0  0
 40 53  2  0  0  0
 40 58  1  0  0  0
 41111  1  0  0  0
 41112  1  0  0  0
 41113  1  0  0  0
 41 48  1  0  0  0
 42 43  1  0  0  0
 42 66  1  0  0  0
 42114  1  0  0  0
 42115  1  0  0  0
 43 44  1  0  0  0
 44116  1  0  0  0
 45 46  2  0  0  0
 45117  1  0  0  0
 46118  1  0  0  0
 47119  1  0  0  0
 47120  1  0  0  0
 48 56  1  0  0  0
 48 65  1  0  0  0
 48121  1  0  0  0
 49 50  1  0  0  0
 49 53  1  0  0  0
 49 64  1  0  0  0
 49122  1  0  0  0
 50 51  1  0  0  0
 50123  1  0  0  0
 50124  1  0  0  0
 51 52  1  0  0  0
 51125  1  0  0  0
 51126  1  0  0  0
 52127  1  0  0  0
 52128  1  0  0  0
 53 54  1  0  0  0
 54 55  2  0  0  0
 54129  1  0  0  0
 55 57  1  0  0  0
 55130  1  0  0  0
 56 69  2  0  0  0
 57 58  2  0  0  0
 57131  1  0  0  0
 58132  1  0  0  0
 59 60  1  0  0  0
 59 61  1  0  0  0
 59 62  1  0  0  0
 60133  1  0  0  0
 60134  1  0  0  0
 60135  1  0  0  0
 61136  1  0  0  0
 61137  1  0  0  0
 61138  1  0  0  0
 62139  1  0  0  0
 62140  1  0  0  0
 62141  1  0  0  0
 63 65  1  0  0  0
 63142  1  0  0  0
 63143  1  0  0  0
 63144  1  0  0  0
 64145  1  0  0  0
 65146  1  0  0  0
 68 82  1  0  0  0
 71 72  2  0  0  0
 71 75  1  0  0  0
 71147  1  0  0  0
 72 76  1  0  0  0
 72148  1  0  0  0
 73 74  1  0  0  0
 73 76  2  0  0  0
 73149  1  0  0  0
 74 75  2  0  0  0
 74 77  1  0  0  0
 75 79  1  0  0  0
 76 85  1  0  0  0
 77 84  1  0  0  0
 77 86  2  0  0  0
 78 80  1  0  0  0
 78 83  1  0  0  0
 78 87  2  0  0  0
 79150  1  0  0  0
 79151  1  0  0  0
 79152  1  0  0  0
 80153  1  0  0  0
 80154  1  0  0  0
 80155  1  0  0  0
 81 86  1  0  0  0
 81156  1  0  0  0
 81157  1  0  0  0
 81 83  1  0  0  0
 82 83  1  0  0  0
 82158  1  0  0  0
 82159  1  0  0  0
 83160  1  0  0  0
 84161  1  0  0  0
 84162  1  0  0  0
 85163  1  0  0  0
 86164  1  0  0  0
M  CHG  1  86   1
M  ISO  4   1 100  68 101  82 101  85 100
M  END
> <chiral flag>
0

> <version>
0

> <s_m_source_file>
/data/baiqing/PycharmProjects/Reinvent-master-3.2/result/LINK_invent/BTK/process_docking_weight1_custom_product_contain_oxygen_bond_distance_aromatic_linkinvent_7_9_3/rearranged_h_0060.sdf

> <i_m_source_file_index>
51

> <r_mmod_Potential_Energy-OPLS-2005>
-202.718383789062

> <r_mmod_Stretch_Energy-OPLS-2005>
45.1626586914062

> <r_mmod_Bend_Energy-OPLS-2005>
102.346076965332

> <r_mmod_Torsional_Energy-OPLS-2005>
249.581024169922

> <r_mmod_Improper_Torsional_Energy-OPLS-2005>
6.601402759552

> <r_mmod_Van_der_Waal_Energy-OPLS-2005>
148.988128662109

> <r_mmod_Electrostatic_Energy-OPLS-2005>
-354.002349853516

> <r_mmod_Solvation_Energy-OPLS-2005>
-418.713806152344

> <b_mmod_Minimization_Converged-OPLS-2005>
0

> <r_mmod_RMS_Derivative-OPLS-2005>
3.07390642166138

$$$$
51
                    3D
 Structure written by MMmdl.
161170  0  0  1  0            999 V2000
  -30.6126  -14.6403   20.5061 C   0  0  0  0  0  0
  -30.4424  -12.3930   19.4539 C   0  0  0  0  0  0
  -29.5119  -12.5105   18.2254 C   0  0  0  0  0  0
  -28.0332  -12.3455   18.6334 C   0  0  0  0  0  0
  -27.6549  -13.2135   19.8634 C   0  0  2  0  0  0
  -28.6979  -13.0579   20.9935 C   0  0  0  0  0  0
  -25.2573  -13.8160   20.5684 C   0  0  0  0  0  0
  -24.1831  -13.0433   20.9182 C   0  0  0  0  0  0
  -24.6389  -11.6902   20.8723 C   0  0  0  0  0  0
  -23.9054  -10.4288   21.0391 C   0  0  0  0  0  0
  -24.3611   -9.4206   21.9170 C   0  0  0  0  0  0
  -23.6296   -8.2237   22.0748 C   0  0  0  0  0  0
  -22.4273   -8.0273   21.3542 C   0  0  0  0  0  0
  -21.9904   -9.0237   20.4642 C   0  0  0  0  0  0
  -22.7226  -10.2122   20.3041 C   0  0  0  0  0  0
  -21.6848   -6.0733   22.5280 C   0  0  0  0  0  0
  -21.4012   -6.5634   23.8215 C   0  0  0  0  0  0
  -21.3662   -5.6782   24.9176 C   0  0  0  0  0  0
  -21.6046   -4.3045   24.7222 C   0  0  0  0  0  0
  -21.8821   -3.8140   23.4340 C   0  0  0  0  0  0
  -21.9194   -4.6961   22.3400 C   0  0  0  0  0  0
  -22.7854  -13.5235   21.1846 C   0  0  0  0  0  0
  -22.1664   -4.2147   21.0978 F   0  0  0  0  0  0
  -21.5632   -3.4531   25.7739 F   0  0  0  0  0  0
  -30.0155  -13.4076   20.4376 N   0  0  0  0  0  0
  -26.2992  -12.9333   20.3296 N   0  0  0  0  0  0
  -25.9317  -11.6492   20.5733 N   0  0  0  0  0  0
  -22.0493  -12.8235   22.0404 N   0  0  0  0  0  0
  -25.4287  -15.1883   20.4124 N   0  0  0  0  0  0
  -31.7686  -14.8138   20.1075 O   0  0  0  0  0  0
  -21.6638   -6.8871   21.4240 O   0  0  0  0  0  0
  -22.3542  -14.5539   20.6687 O   0  0  0  0  0  0
  -24.6259  -31.8598   23.2045 C   0  0  0  0  0  0
  -25.9110  -32.4779   23.8363 C   0  0  1  0  0  0
  -27.2206  -27.3228   20.1183 C   0  0  0  0  0  0
  -25.5921  -33.8577   24.2284 N   0  0  0  0  0  0
  -23.4186  -30.4841   21.5482 C   0  0  2  0  0  0
  -24.8644  -28.9404   20.1125 C   0  0  0  0  0  0
  -22.7475  -29.4621   22.4962 C   0  0  0  0  0  0
  -18.0278  -28.1391   22.8484 C   0  0  0  0  0  0
  -24.1489  -36.7293   23.2642 C   0  0  0  0  0  0
  -25.9599  -30.7911   21.3751 C   0  0  0  0  0  0
  -26.0337  -29.4187   20.7182 C   0  0  0  0  0  0
  -27.2169  -28.6220   20.7109 C   0  0  0  0  0  0
  -26.0347  -26.9043   19.4737 C   0  0  0  0  0  0
  -24.8665  -27.6882   19.4809 C   0  0  0  0  0  0
  -23.6312  -29.8192   20.1633 C   0  0  0  0  0  0
  -25.4115  -36.3086   24.0333 C   0  0  1  0  0  0
  -20.5879  -28.3684   23.1292 C   0  0  2  0  0  0
  -20.6772  -26.9411   22.5418 C   0  0  0  0  0  0
  -19.5749  -26.6385   21.5219 C   0  0  0  0  0  0
  -18.1928  -26.7934   22.1627 C   0  0  0  0  0  0
  -19.1534  -28.8856   23.2880 C   0  0  0  0  0  0
  -18.9459  -30.1462   23.8887 C   0  0  0  0  0  0
  -17.6461  -30.6591   24.0563 C   0  0  0  0  0  0
  -25.9052  -34.9452   23.5109 C   0  0  0  0  0  0
  -16.5350  -29.9089   23.6339 C   0  0  0  0  0  0
  -16.7266  -28.6514   23.0346 C   0  0  0  0  0  0
  -26.4489  -31.6590   25.0734 C   0  0  0  0  0  0
  -25.3723  -31.3736   26.1466 C   0  0  0  0  0  0
  -27.0324  -30.3010   24.6193 C   0  0  0  0  0  0
  -27.6052  -32.4318   25.7503 C   0  0  0  0  0  0
  -27.5581  -37.1807   24.8468 C   0  0  0  0  0  0
  -21.4191  -29.3037   22.3699 N   0  0  0  0  0  0
  -26.4293  -37.3782   23.9412 N   0  0  0  0  0  0
  -24.6871  -31.0616   22.0992 N   0  0  0  0  0  0
  -23.4203  -28.8161   23.3038 O   0  0  0  0  0  0
  -28.3299  -26.4659   20.1473 O   0  0  0  0  0  0
  -26.5628  -34.8919   22.4682 O   0  0  0  0  0  0
  -23.5426  -32.1386   23.7387 O   0  0  0  0  0  0
  -28.5674  -19.2780   20.8241 C   0  0  0  0  0  0
  -28.6562  -17.8695   21.0239 C   0  0  0  0  0  0
  -30.9093  -17.8739   20.1971 C   0  0  0  0  0  0
  -30.8336  -19.2907   19.9989 C   0  0  0  0  0  0
  -29.6362  -20.0321   20.2739 C   0  0  0  0  0  0
  -29.8176  -17.1185   20.6987 C   0  0  0  0  0  0
  -29.6208  -22.0421   18.7733 C   0  0  0  0  0  0
  -28.8706  -22.4911   20.8836 C   0  0  0  0  0  0
  -29.3033  -23.5497   18.7696 C   0  0  1  0  0  0
  -29.1363  -23.9170   20.2535 C   0  0  1  0  0  0
  -32.0908  -19.9892   19.5047 C   0  0  0  0  0  0
  -30.3786  -24.3770   18.0412 C   0  0  0  0  0  0
  -28.0779  -25.0651   20.5641 C   0  0  0  0  0  0
  -29.4787  -21.4713   19.9894 N   0  0  0  0  0  0
  -29.7968  -15.6673   20.9047 N   0  0  0  0  0  0
  -29.9574  -21.4586   17.7379 O   0  0  0  0  0  0
  -31.4836  -12.5235   19.1539 H   0  0  0  0  0  0
  -30.3821  -11.3949   19.8903 H   0  0  0  0  0  0
  -29.7811  -11.7635   17.4774 H   0  0  0  0  0  0
  -29.6521  -13.4827   17.7502 H   0  0  0  0  0  0
  -27.8694  -11.2914   18.8614 H   0  0  0  0  0  0
  -27.3805  -12.5779   17.7908 H   0  0  0  0  0  0
  -27.6760  -14.2505   19.5272 H   0  0  0  0  0  0
  -28.7100  -12.0315   21.3625 H   0  0  0  0  0  0
  -28.4393  -13.6769   21.8538 H   0  0  0  0  0  0
  -25.2760   -9.5687   22.4732 H   0  0  0  0  0  0
  -24.0012   -7.4624   22.7463 H   0  0  0  0  0  0
  -21.0836   -8.8743   19.8945 H   0  0  0  0  0  0
  -22.3679  -10.9650   19.6141 H   0  0  0  0  0  0
  -21.1997   -7.6141   23.9724 H   0  0  0  0  0  0
  -21.1488   -6.0508   25.9083 H   0  0  0  0  0  0
  -22.0600   -2.7602   23.2837 H   0  0  0  0  0  0
  -22.4103  -11.9903   22.4805 H   0  0  0  0  0  0
  -21.1105  -13.1262   22.2598 H   0  0  0  0  0  0
  -24.6586  -15.8393   20.5206 H   0  0  0  0  0  0
  -26.2722  -15.6280   20.0673 H   0  0  0  0  0  0
  -26.7179  -32.5443   23.1113 H   0  0  0  0  0  0
  -25.0040  -33.9719   25.0409 H   0  0  0  0  0  0
  -22.7116  -31.3043   21.4075 H   0  0  0  0  0  0
  -23.3751  -35.9626   23.3303 H   0  0  0  0  0  0
  -24.3583  -36.8914   22.2057 H   0  0  0  0  0  0
  -23.7239  -37.6495   23.6657 H   0  0  0  0  0  0
  -26.0904  -31.5539   20.6063 H   0  0  0  0  0  0
  -26.8409  -30.8393   22.0037 H   0  0  0  0  0  0
  -28.1148  -28.9830   21.1926 H   0  0  0  0  0  0
  -25.9928  -25.9591   18.9528 H   0  0  0  0  0  0
  -23.9738  -27.3216   18.9925 H   0  0  0  0  0  0
  -23.7464  -30.5945   19.4050 H   0  0  0  0  0  0
  -22.7508  -29.2465   19.8656 H   0  0  0  0  0  0
  -25.1299  -36.1939   25.0826 H   0  0  0  0  0  0
  -20.9959  -28.3254   24.1417 H   0  0  0  0  0  0
  -20.5679  -26.2293   23.3615 H   0  0  0  0  0  0
  -21.6639  -26.7456   22.1204 H   0  0  0  0  0  0
  -19.6911  -25.6298   21.1246 H   0  0  0  0  0  0
  -19.6690  -27.3197   20.6751 H   0  0  0  0  0  0
  -17.4201  -26.6673   21.4026 H   0  0  0  0  0  0
  -18.0329  -26.0080   22.9027 H   0  0  0  0  0  0
  -19.7937  -30.7284   24.2244 H   0  0  0  0  0  0
  -17.5017  -31.6273   24.5167 H   0  0  0  0  0  0
  -15.5350  -30.2987   23.7679 H   0  0  0  0  0  0
  -15.8665  -28.0840   22.7052 H   0  0  0  0  0  0
  -24.5889  -30.7092   25.7804 H   0  0  0  0  0  0
  -24.8925  -32.2905   26.4900 H   0  0  0  0  0  0
  -25.8046  -30.8907   27.0239 H   0  0  0  0  0  0
  -26.2898  -29.6769   24.1208 H   0  0  0  0  0  0
  -27.4002  -29.7264   25.4704 H   0  0  0  0  0  0
  -27.8777  -30.4291   23.9429 H   0  0  0  0  0  0
  -27.2670  -33.3626   26.2073 H   0  0  0  0  0  0
  -28.3871  -32.6863   25.0334 H   0  0  0  0  0  0
  -28.0704  -31.8442   26.5429 H   0  0  0  0  0  0
  -28.2608  -38.0097   24.7514 H   0  0  0  0  0  0
  -28.1069  -36.2631   24.6291 H   0  0  0  0  0  0
  -27.2300  -37.1456   25.8872 H   0  0  0  0  0  0
  -20.9376  -29.8750   21.6896 H   0  0  0  0  0  0
  -26.0173  -38.2858   24.1409 H   0  0  0  0  0  0
  -27.6385  -19.7751   21.0676 H   0  0  0  0  0  0
  -27.7908  -17.3595   21.4246 H   0  0  0  0  0  0
  -31.8337  -17.3674   19.9581 H   0  0  0  0  0  0
  -27.7988  -22.2982   20.9481 H   0  0  0  0  0  0
  -29.2767  -22.4183   21.8931 H   0  0  0  0  0  0
  -28.3483  -23.6703   18.2567 H   0  0  0  0  0  0
  -30.1019  -24.2540   20.6331 H   0  0  0  0  0  0
  -32.9842  -19.4505   19.8216 H   0  0  0  0  0  0
  -32.1698  -21.0019   19.9002 H   0  0  0  0  0  0
  -32.1004  -20.0385   18.4158 H   0  0  0  0  0  0
  -31.3672  -24.2168   18.4740 H   0  0  0  0  0  0
  -30.1598  -25.4436   18.0943 H   0  0  0  0  0  0
  -30.4353  -24.1066   16.9861 H   0  0  0  0  0  0
  -27.9603  -25.1055   21.6479 H   0  0  0  0  0  0
  -27.1197  -24.7000   20.2023 H   0  0  0  0  0  0
  -28.9247  -15.3208   21.2739 H   0  0  0  0  0  0
  1 25  1  0  0  0
  1 30  2  0  0  0
  1 85  1  0  0  0
  2  3  1  0  0  0
  2 25  1  0  0  0
  2 87  1  0  0  0
  2 88  1  0  0  0
  3  4  1  0  0  0
  3 89  1  0  0  0
  3 90  1  0  0  0
  4  5  1  0  0  0
  4 91  1  0  0  0
  4 92  1  0  0  0
  5  6  1  0  0  0
  5 26  1  0  0  0
  5 93  1  0  0  0
  6 25  1  0  0  0
  6 94  1  0  0  0
  6 95  1  0  0  0
  7  8  2  0  0  0
  7 26  1  0  0  0
  7 29  1  0  0  0
  8  9  1  0  0  0
  8 22  1  0  0  0
  9 10  1  0  0  0
  9 27  2  0  0  0
 10 11  2  0  0  0
 10 15  1  0  0  0
 11 12  1  0  0  0
 11 96  1  0  0  0
 12 13  2  0  0  0
 12 97  1  0  0  0
 13 14  1  0  0  0
 13 31  1  0  0  0
 14 15  2  0  0  0
 14 98  1  0  0  0
 15 99  1  0  0  0
 16 17  2  0  0  0
 16 21  1  0  0  0
 16 31  1  0  0  0
 17 18  1  0  0  0
 17100  1  0  0  0
 18 19  2  0  0  0
 18101  1  0  0  0
 19 20  1  0  0  0
 19 24  1  0  0  0
 20 21  2  0  0  0
 20102  1  0  0  0
 21 23  1  0  0  0
 22 28  1  0  0  0
 22 32  2  0  0  0
 26 27  1  0  0  0
 28103  1  0  0  0
 28104  1  0  0  0
 29105  1  0  0  0
 29106  1  0  0  0
 33 34  1  0  0  0
 33 66  1  0  0  0
 33 70  2  0  0  0
 34 36  1  0  0  0
 34 59  1  0  0  0
 34107  1  0  0  0
 35 44  2  0  0  0
 35 45  1  0  0  0
 35 68  1  0  0  0
 36 56  1  0  0  0
 36108  1  0  0  0
 37 39  1  0  0  0
 37 47  1  0  0  0
 37 66  1  0  0  0
 37109  1  0  0  0
 38 43  2  0  0  0
 38 46  1  0  0  0
 38 47  1  0  0  0
 39 64  1  0  0  0
 39 67  2  0  0  0
 40 52  1  0  0  0
 40 53  2  0  0  0
 40 58  1  0  0  0
 41110  1  0  0  0
 41111  1  0  0  0
 41112  1  0  0  0
 41 48  1  0  0  0
 42 43  1  0  0  0
 42 66  1  0  0  0
 42113  1  0  0  0
 42114  1  0  0  0
 43 44  1  0  0  0
 44115  1  0  0  0
 45 46  2  0  0  0
 45116  1  0  0  0
 46117  1  0  0  0
 47118  1  0  0  0
 47119  1  0  0  0
 48 56  1  0  0  0
 48 65  1  0  0  0
 48120  1  0  0  0
 49 50  1  0  0  0
 49 53  1  0  0  0
 49 64  1  0  0  0
 49121  1  0  0  0
 50 51  1  0  0  0
 50122  1  0  0  0
 50123  1  0  0  0
 51 52  1  0  0  0
 51124  1  0  0  0
 51125  1  0  0  0
 52126  1  0  0  0
 52127  1  0  0  0
 53 54  1  0  0  0
 54 55  2  0  0  0
 54128  1  0  0  0
 55 57  1  0  0  0
 55129  1  0  0  0
 56 69  2  0  0  0
 57 58  2  0  0  0
 57130  1  0  0  0
 58131  1  0  0  0
 59 60  1  0  0  0
 59 61  1  0  0  0
 59 62  1  0  0  0
 60132  1  0  0  0
 60133  1  0  0  0
 60134  1  0  0  0
 61135  1  0  0  0
 61136  1  0  0  0
 61137  1  0  0  0
 62138  1  0  0  0
 62139  1  0  0  0
 62140  1  0  0  0
 63 65  1  0  0  0
 63141  1  0  0  0
 63142  1  0  0  0
 63143  1  0  0  0
 64144  1  0  0  0
 65145  1  0  0  0
 68 83  1  0  0  0
 71 72  2  0  0  0
 71 75  1  0  0  0
 71146  1  0  0  0
 72 76  1  0  0  0
 72147  1  0  0  0
 73 74  1  0  0  0
 73 76  2  0  0  0
 73148  1  0  0  0
 74 75  2  0  0  0
 74 81  1  0  0  0
 75 84  1  0  0  0
 76 85  1  0  0  0
 77 79  1  0  0  0
 77 84  1  0  0  0
 77 86  2  0  0  0
 78 80  1  0  0  0
 78 84  1  0  0  0
 78149  1  0  0  0
 78150  1  0  0  0
 79 80  1  0  0  0
 79 82  1  0  0  0
 79151  1  0  0  0
 80 83  1  0  0  0
 80152  1  0  0  0
 81153  1  0  0  0
 81154  1  0  0  0
 81155  1  0  0  0
 82156  1  0  0  0
 82157  1  0  0  0
 82158  1  0  0  0
 83159  1  0  0  0
 83160  1  0  0  0
 85161  1  0  0  0
M  ISO  4   1 100  68 101  83 101  85 100
M  END
> <chiral flag>
0

> <version>
0

> <s_m_source_file>
/data/baiqing/PycharmProjects/Reinvent-master-3.2/result/LINK_invent/BTK/process_docking_weight1_custom_product_contain_oxygen_bond_distance_aromatic_linkinvent_7_9_3/rearranged_h_0060.sdf

> <i_m_source_file_index>
52

> <r_mmod_Potential_Energy-OPLS-2005>
151.157867431641

> <r_mmod_Stretch_Energy-OPLS-2005>
79.1880035400391

> <r_mmod_Bend_Energy-OPLS-2005>
161.505706787109

> <r_mmod_Torsional_Energy-OPLS-2005>
296.054290771484

> <r_mmod_Improper_Torsional_Energy-OPLS-2005>
4.16788721084595

> <r_mmod_Van_der_Waal_Energy-OPLS-2005>
138.672698974609

> <r_mmod_Electrostatic_Energy-OPLS-2005>
-357.121887207031

> <r_mmod_Solvation_Energy-OPLS-2005>
-219.23828125

> <b_mmod_Minimization_Converged-OPLS-2005>
0

> <r_mmod_RMS_Derivative-OPLS-2005>
1.00159871578217

$$$$
52
                    3D
 Structure written by MMmdl.
160168  0  0  1  0            999 V2000
  -30.5921  -14.7027   20.4600 C   0  0  0  0  0  0
  -30.4493  -12.4066   19.4823 C   0  0  0  0  0  0
  -29.5247  -12.4307   18.2436 C   0  0  0  0  0  0
  -28.0361  -12.3236   18.6411 C   0  0  0  0  0  0
  -27.6489  -13.2151   19.8525 C   0  0  2  0  0  0
  -28.6923  -13.1102   20.9867 C   0  0  0  0  0  0
  -25.2552  -13.8161   20.5670 C   0  0  0  0  0  0
  -24.1840  -13.0431   20.9242 C   0  0  0  0  0  0
  -24.6396  -11.6900   20.8761 C   0  0  0  0  0  0
  -23.9064  -10.4287   21.0415 C   0  0  0  0  0  0
  -24.3617   -9.4203   21.9190 C   0  0  0  0  0  0
  -23.6292   -8.2239   22.0757 C   0  0  0  0  0  0
  -22.4275   -8.0280   21.3544 C   0  0  0  0  0  0
  -21.9911   -9.0253   20.4646 C   0  0  0  0  0  0
  -22.7239  -10.2131   20.3059 C   0  0  0  0  0  0
  -21.6853   -6.0731   22.5273 C   0  0  0  0  0  0
  -21.4013   -6.5636   23.8205 C   0  0  0  0  0  0
  -21.3662   -5.6790   24.9170 C   0  0  0  0  0  0
  -21.6048   -4.3052   24.7220 C   0  0  0  0  0  0
  -21.8821   -3.8142   23.4341 C   0  0  0  0  0  0
  -21.9192   -4.6958   22.3395 C   0  0  0  0  0  0
  -22.7858  -13.5228   21.1881 C   0  0  0  0  0  0
  -22.1662   -4.2142   21.0971 F   0  0  0  0  0  0
  -21.5631   -3.4537   25.7736 F   0  0  0  0  0  0
  -30.0012  -13.4618   20.4152 N   0  0  0  0  0  0
  -26.2962  -12.9337   20.3242 N   0  0  0  0  0  0
  -25.9316  -11.6498   20.5750 N   0  0  0  0  0  0
  -22.0488  -12.8222   22.0427 N   0  0  0  0  0  0
  -25.4172  -15.1881   20.4024 N   0  0  0  0  0  0
  -31.7718  -14.8582   20.1308 O   0  0  0  0  0  0
  -21.6642   -6.8877   21.4238 O   0  0  0  0  0  0
  -22.3556  -14.5528   20.6710 O   0  0  0  0  0  0
  -24.6269  -31.8587   23.2012 C   0  0  0  0  0  0
  -25.9111  -32.4773   23.8350 C   0  0  1  0  0  0
  -27.2284  -27.3076   20.1292 C   0  0  0  0  0  0
  -25.5917  -33.8574   24.2273 N   0  0  0  0  0  0
  -23.4225  -30.4808   21.5433 C   0  0  2  0  0  0
  -24.8721  -28.9323   20.1116 C   0  0  0  0  0  0
  -22.7484  -29.4615   22.4926 C   0  0  0  0  0  0
  -18.0291  -28.1390   22.8482 C   0  0  0  0  0  0
  -24.1486  -36.7295   23.2640 C   0  0  0  0  0  0
  -25.9637  -30.7855   21.3753 C   0  0  0  0  0  0
  -26.0394  -29.4100   20.7219 C   0  0  0  0  0  0
  -27.2208  -28.6077   20.7241 C   0  0  0  0  0  0
  -26.0433  -26.8892   19.4841 C   0  0  0  0  0  0
  -24.8756  -27.6769   19.4836 C   0  0  0  0  0  0
  -23.6398  -29.8138   20.1591 C   0  0  0  0  0  0
  -25.4110  -36.3080   24.0328 C   0  0  1  0  0  0
  -20.5892  -28.3693   23.1277 C   0  0  2  0  0  0
  -20.6780  -26.9414   22.5411 C   0  0  0  0  0  0
  -19.5755  -26.6386   21.5214 C   0  0  0  0  0  0
  -18.1935  -26.7930   22.1625 C   0  0  0  0  0  0
  -19.1544  -28.8857   23.2877 C   0  0  0  0  0  0
  -18.9465  -30.1456   23.8900 C   0  0  0  0  0  0
  -17.6465  -30.6586   24.0571 C   0  0  0  0  0  0
  -25.9048  -34.9450   23.5102 C   0  0  0  0  0  0
  -16.5357  -29.9090   23.6328 C   0  0  0  0  0  0
  -16.7278  -28.6509   23.0345 C   0  0  0  0  0  0
  -26.4486  -31.6588   25.0727 C   0  0  0  0  0  0
  -25.3712  -31.3734   26.1449 C   0  0  0  0  0  0
  -27.0332  -30.3010   24.6191 C   0  0  0  0  0  0
  -27.6045  -32.4323   25.7500 C   0  0  0  0  0  0
  -27.5576  -37.1805   24.8461 C   0  0  0  0  0  0
  -21.4197  -29.3037   22.3663 N   0  0  0  0  0  0
  -26.4287  -37.3775   23.9405 N   0  0  0  0  0  0
  -24.6897  -31.0588   22.0968 N   0  0  0  0  0  0
  -23.4196  -28.8164   23.3023 O   0  0  0  0  0  0
  -28.3328  -26.4378   20.1585 O   0  0  0  0  0  0
  -26.5625  -34.8919   22.4674 O   0  0  0  0  0  0
  -23.5428  -32.1391   23.7328 O   0  0  0  0  0  0
  -30.3690  -19.4901   21.3516 C   0  0  0  0  0  0
  -30.4557  -18.0670   21.4126 C   0  0  0  0  0  0
  -28.9632  -19.3480   19.3942 C   0  0  0  0  0  0
  -29.6003  -20.1744   20.3729 C   0  0  0  0  0  0
  -29.8333  -17.2188   20.4586 C   0  0  0  0  0  0
  -29.1208  -17.9021   19.4034 C   0  0  0  0  0  0
  -27.8397  -17.9145   15.5261 C   0  0  0  0  0  0
  -28.9970  -24.0152   20.2509 C   0  0  0  0  0  0
  -28.1190  -25.0633   20.4340 C   0  0  0  0  0  0
  -28.7592  -17.7602   16.4943 C   0  0  0  0  0  0
  -28.6580  -22.5882   20.5606 C   0  0  0  0  0  0
  -28.1373  -20.0600   18.3209 C   0  0  0  0  0  0
  -26.8302  -16.8789   18.1788 N   0  0  0  0  0  0
  -29.6309  -21.6501   20.3006 N   0  0  0  0  0  0
  -29.7489  -15.7625   20.7185 N   0  0  0  0  0  0
  -27.5662  -22.2428   21.0193 O   0  0  0  0  0  0
  -29.1259  -15.6401   17.9252 O   0  0  0  0  0  0
  -28.3930  -16.9056   18.0516 S   0  0  2  0  0  0
  -31.4884  -12.5438   19.1785 H   0  0  0  0  0  0
  -30.4076  -11.4328   19.9725 H   0  0  0  0  0  0
  -29.7820  -11.6059   17.5778 H   0  0  0  0  0  0
  -29.7043  -13.3306   17.6618 H   0  0  0  0  0  0
  -27.8459  -11.2779   18.8836 H   0  0  0  0  0  0
  -27.4011  -12.5547   17.7848 H   0  0  0  0  0  0
  -27.6492  -14.2417   19.4926 H   0  0  0  0  0  0
  -28.7152  -12.0996   21.3970 H   0  0  0  0  0  0
  -28.4292  -13.7646   21.8198 H   0  0  0  0  0  0
  -25.2763   -9.5680   22.4762 H   0  0  0  0  0  0
  -23.9997   -7.4633   22.7480 H   0  0  0  0  0  0
  -21.0840   -8.8776   19.8952 H   0  0  0  0  0  0
  -22.3703  -10.9673   19.6167 H   0  0  0  0  0  0
  -21.2005   -7.6144   23.9706 H   0  0  0  0  0  0
  -21.1487   -6.0520   25.9072 H   0  0  0  0  0  0
  -22.0597   -2.7605   23.2844 H   0  0  0  0  0  0
  -22.4099  -11.9886   22.4823 H   0  0  0  0  0  0
  -21.1100  -13.1244   22.2616 H   0  0  0  0  0  0
  -24.5839  -15.7652   20.4219 H   0  0  0  0  0  0
  -26.1058  -15.5641   19.7518 H   0  0  0  0  0  0
  -26.7182  -32.5443   23.1105 H   0  0  0  0  0  0
  -25.0042  -33.9713   25.0400 H   0  0  0  0  0  0
  -22.7172  -31.3017   21.3982 H   0  0  0  0  0  0
  -23.3741  -35.9635   23.3304 H   0  0  0  0  0  0
  -24.3578  -36.8915   22.2054 H   0  0  0  0  0  0
  -23.7248  -37.6503   23.6660 H   0  0  0  0  0  0
  -26.0945  -31.5456   20.6040 H   0  0  0  0  0  0
  -26.8444  -30.8382   22.0036 H   0  0  0  0  0  0
  -28.1164  -28.9667   21.2113 H   0  0  0  0  0  0
  -26.0095  -25.9277   18.9920 H   0  0  0  0  0  0
  -23.9825  -27.3066   18.9987 H   0  0  0  0  0  0
  -23.7610  -30.5898   19.4024 H   0  0  0  0  0  0
  -22.7598  -29.2443   19.8548 H   0  0  0  0  0  0
  -25.1289  -36.1934   25.0821 H   0  0  0  0  0  0
  -20.9984  -28.3276   24.1400 H   0  0  0  0  0  0
  -20.5679  -26.2305   23.3613 H   0  0  0  0  0  0
  -21.6652  -26.7444   22.1209 H   0  0  0  0  0  0
  -19.6920  -25.6298   21.1243 H   0  0  0  0  0  0
  -19.6691  -27.3197   20.6744 H   0  0  0  0  0  0
  -17.4202  -26.6668   21.4033 H   0  0  0  0  0  0
  -18.0342  -26.0077   22.9028 H   0  0  0  0  0  0
  -19.7940  -30.7270   24.2275 H   0  0  0  0  0  0
  -17.5020  -31.6262   24.5181 H   0  0  0  0  0  0
  -15.5357  -30.2995   23.7649 H   0  0  0  0  0  0
  -15.8678  -28.0832   22.7056 H   0  0  0  0  0  0
  -24.5879  -30.7094   25.7772 H   0  0  0  0  0  0
  -24.8911  -32.2906   26.4874 H   0  0  0  0  0  0
  -25.8024  -30.8905   27.0226 H   0  0  0  0  0  0
  -26.2912  -29.6765   24.1201 H   0  0  0  0  0  0
  -27.4008  -29.7264   25.4703 H   0  0  0  0  0  0
  -27.8789  -30.4293   23.9432 H   0  0  0  0  0  0
  -27.2653  -33.3620   26.2080 H   0  0  0  0  0  0
  -28.3857  -32.6886   25.0331 H   0  0  0  0  0  0
  -28.0710  -31.8448   26.5418 H   0  0  0  0  0  0
  -28.2592  -38.0103   24.7505 H   0  0  0  0  0  0
  -28.1073  -36.2635   24.6285 H   0  0  0  0  0  0
  -27.2296  -37.1454   25.8865 H   0  0  0  0  0  0
  -20.9382  -29.8745   21.6855 H   0  0  0  0  0  0
  -26.0167  -38.2849   24.1405 H   0  0  0  0  0  0
  -30.8929  -20.0671   22.1006 H   0  0  0  0  0  0
  -30.9983  -17.6220   22.2346 H   0  0  0  0  0  0
  -28.0834  -18.4295   14.6093 H   0  0  0  0  0  0
  -26.8363  -17.5292   15.6331 H   0  0  0  0  0  0
  -29.9767  -24.2384   19.8552 H   0  0  0  0  0  0
  -27.1307  -24.8853   20.8376 H   0  0  0  0  0  0
  -29.7705  -18.1306   16.4150 H   0  0  0  0  0  0
  -27.6519  -20.9564   18.6939 H   0  0  0  0  0  0
  -27.3139  -19.4612   17.9442 H   0  0  0  0  0  0
  -28.7721  -20.3572   17.4862 H   0  0  0  0  0  0
  -26.4534  -17.8279   18.2758 H   0  0  0  0  0  0
  -30.5230  -22.0432   20.0335 H   0  0  0  0  0  0
  -28.8146  -15.4397   20.9196 H   0  0  0  0  0  0
  1 25  1  0  0  0
  1 30  2  0  0  0
  1 85  1  0  0  0
  2  3  1  0  0  0
  2 25  1  0  0  0
  2 89  1  0  0  0
  2 90  1  0  0  0
  3  4  1  0  0  0
  3 91  1  0  0  0
  3 92  1  0  0  0
  4  5  1  0  0  0
  4 93  1  0  0  0
  4 94  1  0  0  0
  5  6  1  0  0  0
  5 26  1  0  0  0
  5 95  1  0  0  0
  6 25  1  0  0  0
  6 96  1  0  0  0
  6 97  1  0  0  0
  7  8  2  0  0  0
  7 26  1  0  0  0
  7 29  1  0  0  0
  8  9  1  0  0  0
  8 22  1  0  0  0
  9 10  1  0  0  0
  9 27  2  0  0  0
 10 11  2  0  0  0
 10 15  1  0  0  0
 11 12  1  0  0  0
 11 98  1  0  0  0
 12 13  2  0  0  0
 12 99  1  0  0  0
 13 14  1  0  0  0
 13 31  1  0  0  0
 14 15  2  0  0  0
 14100  1  0  0  0
 15101  1  0  0  0
 16 17  2  0  0  0
 16 21  1  0  0  0
 16 31  1  0  0  0
 17 18  1  0  0  0
 17102  1  0  0  0
 18 19  2  0  0  0
 18103  1  0  0  0
 19 20  1  0  0  0
 19 24  1  0  0  0
 20 21  2  0  0  0
 20104  1  0  0  0
 21 23  1  0  0  0
 22 28  1  0  0  0
 22 32  2  0  0  0
 26 27  1  0  0  0
 28105  1  0  0  0
 28106  1  0  0  0
 29107  1  0  0  0
 29108  1  0  0  0
 33 34  1  0  0  0
 33 66  1  0  0  0
 33 70  2  0  0  0
 34 36  1  0  0  0
 34 59  1  0  0  0
 34109  1  0  0  0
 35 44  2  0  0  0
 35 45  1  0  0  0
 35 68  1  0  0  0
 36 56  1  0  0  0
 36110  1  0  0  0
 37 39  1  0  0  0
 37 47  1  0  0  0
 37 66  1  0  0  0
 37111  1  0  0  0
 38 43  2  0  0  0
 38 46  1  0  0  0
 38 47  1  0  0  0
 39 64  1  0  0  0
 39 67  2  0  0  0
 40 52  1  0  0  0
 40 53  2  0  0  0
 40 58  1  0  0  0
 41112  1  0  0  0
 41113  1  0  0  0
 41114  1  0  0  0
 41 48  1  0  0  0
 42 43  1  0  0  0
 42 66  1  0  0  0
 42115  1  0  0  0
 42116  1  0  0  0
 43 44  1  0  0  0
 44117  1  0  0  0
 45 46  2  0  0  0
 45118  1  0  0  0
 46119  1  0  0  0
 47120  1  0  0  0
 47121  1  0  0  0
 48 56  1  0  0  0
 48 65  1  0  0  0
 48122  1  0  0  0
 49 50  1  0  0  0
 49 53  1  0  0  0
 49 64  1  0  0  0
 49123  1  0  0  0
 50 51  1  0  0  0
 50124  1  0  0  0
 50125  1  0  0  0
 51 52  1  0  0  0
 51126  1  0  0  0
 51127  1  0  0  0
 52128  1  0  0  0
 52129  1  0  0  0
 53 54  1  0  0  0
 54 55  2  0  0  0
 54130  1  0  0  0
 55 57  1  0  0  0
 55131  1  0  0  0
 56 69  2  0  0  0
 57 58  2  0  0  0
 57132  1  0  0  0
 58133  1  0  0  0
 59 60  1  0  0  0
 59 61  1  0  0  0
 59 62  1  0  0  0
 60134  1  0  0  0
 60135  1  0  0  0
 60136  1  0  0  0
 61137  1  0  0  0
 61138  1  0  0  0
 61139  1  0  0  0
 62140  1  0  0  0
 62141  1  0  0  0
 62142  1  0  0  0
 63 65  1  0  0  0
 63143  1  0  0  0
 63144  1  0  0  0
 63145  1  0  0  0
 64146  1  0  0  0
 65147  1  0  0  0
 68 79  1  0  0  0
 71 72  2  0  0  0
 71 74  1  0  0  0
 71148  1  0  0  0
 72 75  1  0  0  0
 72149  1  0  0  0
 73 74  2  0  0  0
 73 76  1  0  0  0
 73 82  1  0  0  0
 74 84  1  0  0  0
 75 76  2  0  0  0
 75 85  1  0  0  0
 76 88  1  0  0  0
 77 80  2  0  0  0
 77150  1  0  0  0
 77151  1  0  0  0
 78 79  2  0  0  0
 78 81  1  0  0  0
 78152  1  0  0  0
 79153  1  0  0  0
 80154  1  0  0  0
 80 88  1  0  0  0
 81 84  1  0  0  0
 81 86  2  0  0  0
 82155  1  0  0  0
 82156  1  0  0  0
 82157  1  0  0  0
 83 88  2  0  0  0
 83158  1  0  0  0
 84159  1  0  0  0
 85160  1  0  0  0
 87 88  2  0  0  0
M  ISO  4   1 100  68 101  79 101  85 100
M  END
> <chiral flag>
0

> <version>
0

> <s_m_source_file>
/data/baiqing/PycharmProjects/Reinvent-master-3.2/result/LINK_invent/BTK/process_docking_weight1_custom_product_contain_oxygen_bond_distance_aromatic_linkinvent_7_9_3/rearranged_h_0060.sdf

> <i_m_source_file_index>
53

> <r_mmod_Potential_Energy-OPLS-2005>
75.0207061767578

> <r_mmod_Stretch_Energy-OPLS-2005>
96.7331924438477

> <r_mmod_Bend_Energy-OPLS-2005>
139.706329345703

> <r_mmod_Torsional_Energy-OPLS-2005>
279.216461181641

> <r_mmod_Improper_Torsional_Energy-OPLS-2005>
9.63033676147461

> <r_mmod_Van_der_Waal_Energy-OPLS-2005>
143.286468505859

> <r_mmod_Electrostatic_Energy-OPLS-2005>
-404.885437011719

> <r_mmod_Solvation_Energy-OPLS-2005>
-254.708267211914

> <b_mmod_Minimization_Converged-OPLS-2005>
0

> <r_mmod_RMS_Derivative-OPLS-2005>
0.754724860191345

$$$$
53
                    3D
 Structure written by MMmdl.
169178  0  0  1  0            999 V2000
  -30.6835  -14.5678   20.5012 C   0  0  0  0  0  0
  -30.4402  -12.3551   19.4348 C   0  0  0  0  0  0
  -29.5108  -12.5226   18.2140 C   0  0  0  0  0  0
  -28.0260  -12.3897   18.6107 C   0  0  0  0  0  0
  -27.6635  -13.2067   19.8791 C   0  0  2  0  0  0
  -28.7184  -13.0355   20.9981 C   0  0  0  0  0  0
  -25.2649  -13.8122   20.5630 C   0  0  0  0  0  0
  -24.1893  -13.0420   20.9100 C   0  0  0  0  0  0
  -24.6445  -11.6889   20.8711 C   0  0  0  0  0  0
  -23.9081  -10.4313   21.0360 C   0  0  0  0  0  0
  -24.3626   -9.4227   21.9136 C   0  0  0  0  0  0
  -23.6312   -8.2248   22.0711 C   0  0  0  0  0  0
  -22.4284   -8.0288   21.3515 C   0  0  0  0  0  0
  -21.9936   -9.0268   20.4594 C   0  0  0  0  0  0
  -22.7254  -10.2158   20.3019 C   0  0  0  0  0  0
  -21.6897   -6.0726   22.5257 C   0  0  0  0  0  0
  -21.4019   -6.5628   23.8182 C   0  0  0  0  0  0
  -21.3673   -5.6785   24.9155 C   0  0  0  0  0  0
  -21.6031   -4.3048   24.7196 C   0  0  0  0  0  0
  -21.8841   -3.8135   23.4339 C   0  0  0  0  0  0
  -21.9213   -4.6948   22.3404 C   0  0  0  0  0  0
  -22.7923  -13.5237   21.1716 C   0  0  0  0  0  0
  -22.1654   -4.2141   21.0975 F   0  0  0  0  0  0
  -21.5659   -3.4523   25.7716 F   0  0  0  0  0  0
  -30.0403  -13.3610   20.4364 N   0  0  0  0  0  0
  -26.3072  -12.9258   20.3405 N   0  0  0  0  0  0
  -25.9416  -11.6423   20.5809 N   0  0  0  0  0  0
  -22.0536  -12.8304   22.0307 N   0  0  0  0  0  0
  -25.4439  -15.1829   20.4034 N   0  0  0  0  0  0
  -31.8220  -14.7296   20.0526 O   0  0  0  0  0  0
  -21.6663   -6.8869   21.4226 O   0  0  0  0  0  0
  -22.3640  -14.5533   20.6515 O   0  0  0  0  0  0
  -24.6215  -31.8600   23.2066 C   0  0  0  0  0  0
  -25.9101  -32.4778   23.8348 C   0  0  1  0  0  0
  -27.2466  -27.3639   20.1383 C   0  0  0  0  0  0
  -25.5926  -33.8575   24.2253 N   0  0  0  0  0  0
  -23.4144  -30.4805   21.5452 C   0  0  2  0  0  0
  -24.8670  -28.9384   20.1190 C   0  0  0  0  0  0
  -22.7460  -29.4586   22.4957 C   0  0  0  0  0  0
  -18.0273  -28.1367   22.8502 C   0  0  0  0  0  0
  -24.1482  -36.7315   23.2635 C   0  0  0  0  0  0
  -25.9483  -30.8095   21.3691 C   0  0  0  0  0  0
  -26.0298  -29.4398   20.7169 C   0  0  0  0  0  0
  -27.2217  -28.6645   20.7145 C   0  0  0  0  0  0
  -26.0636  -26.9042   19.5130 C   0  0  0  0  0  0
  -24.8829  -27.6736   19.5077 C   0  0  0  0  0  0
  -23.6303  -29.8106   20.1626 C   0  0  0  0  0  0
  -25.4109  -36.3076   24.0312 C   0  0  1  0  0  0
  -20.5870  -28.3656   23.1324 C   0  0  2  0  0  0
  -20.6754  -26.9390   22.5426 C   0  0  0  0  0  0
  -19.5730  -26.6365   21.5223 C   0  0  0  0  0  0
  -18.1912  -26.7915   22.1633 C   0  0  0  0  0  0
  -19.1529  -28.8825   23.2899 C   0  0  0  0  0  0
  -18.9452  -30.1439   23.8881 C   0  0  0  0  0  0
  -17.6453  -30.6582   24.0545 C   0  0  0  0  0  0
  -25.9045  -34.9453   23.5075 C   0  0  0  0  0  0
  -16.5337  -29.9075   23.6336 C   0  0  0  0  0  0
  -16.7262  -28.6494   23.0358 C   0  0  0  0  0  0
  -26.4501  -31.6596   25.0727 C   0  0  0  0  0  0
  -25.3764  -31.3760   26.1485 C   0  0  0  0  0  0
  -27.0336  -30.3013   24.6179 C   0  0  0  0  0  0
  -27.6041  -32.4358   25.7517 C   0  0  0  0  0  0
  -27.5571  -37.1811   24.8448 C   0  0  0  0  0  0
  -21.4171  -29.3016   22.3733 N   0  0  0  0  0  0
  -26.4278  -37.3785   23.9403 N   0  0  0  0  0  0
  -24.6790  -31.0659   22.0979 N   0  0  0  0  0  0
  -23.4208  -28.8131   23.3030 O   0  0  0  0  0  0
  -28.3904  -26.5634   20.2146 O   0  0  0  0  0  0
  -26.5617  -34.8926   22.4639 O   0  0  0  0  0  0
  -23.5398  -32.1353   23.7455 O   0  0  0  0  0  0
  -28.6111  -17.8235   18.2496 C   0  0  0  0  0  0
  -29.0117  -16.6994   18.9766 C   0  0  0  0  0  0
  -30.1139  -18.1597   20.5911 C   0  0  0  0  0  0
  -28.9595  -19.1258   18.6628 C   0  0  0  0  0  0
  -29.7681  -19.3207   19.8182 C   0  0  0  0  0  0
  -29.7298  -16.8327   20.1821 C   0  0  0  0  0  0
  -29.4402  -24.5900   22.3943 C   0  0  0  0  0  0
  -30.5363  -21.4963   22.4069 C   0  0  0  0  0  0
  -30.5415  -23.9296   23.2181 C   0  0  0  0  0  0
  -30.1825  -22.4682   23.5408 C   0  0  0  0  0  0
  -28.9150  -22.6616   20.8635 C   0  0  0  0  0  0
  -29.3209  -24.1993   20.9042 C   0  0  2  0  0  0
  -28.4740  -20.2767   17.7996 C   0  0  0  0  0  0
  -30.6651  -24.4238   20.1685 C   0  0  0  0  0  0
  -30.3912  -20.7334   20.0705 C   0  0  0  0  0  0
  -28.2183  -25.1049   20.2011 C   0  0  0  0  0  0
  -29.9286  -21.6030   21.1931 N   0  0  0  0  0  0
  -29.9684  -15.6304   20.9506 N   0  0  0  0  0  0
  -28.6250  -25.3307   22.9490 O   0  0  0  0  0  0
  -31.3857  -20.6343   22.6472 O   0  0  0  0  0  0
  -31.4824  -12.4708   19.1224 H   0  0  0  0  0  0
  -30.3626  -11.3491   19.8470 H   0  0  0  0  0  0
  -29.7682  -11.7937   17.4434 H   0  0  0  0  0  0
  -29.6804  -13.5074   17.7734 H   0  0  0  0  0  0
  -27.8099  -11.3346   18.7726 H   0  0  0  0  0  0
  -27.3945  -12.7046   17.7764 H   0  0  0  0  0  0
  -27.6681  -14.2507   19.5908 H   0  0  0  0  0  0
  -28.7173  -12.0082   21.3627 H   0  0  0  0  0  0
  -28.4824  -13.6688   21.8540 H   0  0  0  0  0  0
  -25.2747   -9.5730   22.4725 H   0  0  0  0  0  0
  -24.0008   -7.4683   22.7490 H   0  0  0  0  0  0
  -21.0819   -8.8819   19.8961 H   0  0  0  0  0  0
  -22.3659  -10.9718   19.6160 H   0  0  0  0  0  0
  -21.1982   -7.6135   23.9687 H   0  0  0  0  0  0
  -21.1461   -6.0494   25.9055 H   0  0  0  0  0  0
  -22.0602   -2.7597   23.2836 H   0  0  0  0  0  0
  -22.4073  -12.0025   22.4884 H   0  0  0  0  0  0
  -21.1153  -13.1381   22.2377 H   0  0  0  0  0  0
  -24.6907  -15.8544   20.4916 H   0  0  0  0  0  0
  -26.3171  -15.6133   20.1269 H   0  0  0  0  0  0
  -26.7164  -32.5470   23.1084 H   0  0  0  0  0  0
  -25.0067  -33.9700   25.0388 H   0  0  0  0  0  0
  -22.7082  -31.3005   21.4020 H   0  0  0  0  0  0
  -23.3731  -35.9663   23.3274 H   0  0  0  0  0  0
  -24.3558  -36.8976   22.2055 H   0  0  0  0  0  0
  -23.7268  -37.6516   23.6684 H   0  0  0  0  0  0
  -26.0738  -31.5742   20.6013 H   0  0  0  0  0  0
  -26.8294  -30.8561   21.9967 H   0  0  0  0  0  0
  -28.1123  -29.0484   21.1912 H   0  0  0  0  0  0
  -26.0349  -25.9319   19.0404 H   0  0  0  0  0  0
  -23.9911  -27.2823   19.0361 H   0  0  0  0  0  0
  -23.7568  -30.5834   19.4059 H   0  0  0  0  0  0
  -22.7545  -29.2355   19.8554 H   0  0  0  0  0  0
  -25.1302  -36.1883   25.0810 H   0  0  0  0  0  0
  -20.9950  -28.3195   24.1446 H   0  0  0  0  0  0
  -20.5665  -26.2245   23.3606 H   0  0  0  0  0  0
  -21.6622  -26.7437   22.1196 H   0  0  0  0  0  0
  -19.6891  -25.6280   21.1228 H   0  0  0  0  0  0
  -19.6680  -27.3187   20.6768 H   0  0  0  0  0  0
  -17.4208  -26.6710   21.4010 H   0  0  0  0  0  0
  -18.0289  -26.0023   22.8986 H   0  0  0  0  0  0
  -19.7922  -30.7262   24.2242 H   0  0  0  0  0  0
  -17.5006  -31.6277   24.5138 H   0  0  0  0  0  0
  -15.5334  -30.2972   23.7670 H   0  0  0  0  0  0
  -15.8661  -28.0808   22.7079 H   0  0  0  0  0  0
  -24.5886  -30.7150   25.7848 H   0  0  0  0  0  0
  -24.9028  -32.2949   26.4947 H   0  0  0  0  0  0
  -25.8104  -30.8913   27.0230 H   0  0  0  0  0  0
  -26.2902  -29.6777   24.1197 H   0  0  0  0  0  0
  -27.4004  -29.7257   25.4678 H   0  0  0  0  0  0
  -27.8772  -30.4270   23.9398 H   0  0  0  0  0  0
  -27.2588  -33.3622   26.2108 H   0  0  0  0  0  0
  -28.3857  -32.6983   25.0385 H   0  0  0  0  0  0
  -28.0692  -31.8497   26.5438 H   0  0  0  0  0  0
  -28.2578  -38.0122   24.7508 H   0  0  0  0  0  0
  -28.1074  -36.2649   24.6230 H   0  0  0  0  0  0
  -27.2291  -37.1426   25.8855 H   0  0  0  0  0  0
  -20.9350  -29.8739   21.6937 H   0  0  0  0  0  0
  -26.0130  -38.2843   24.1442 H   0  0  0  0  0  0
  -28.0391  -17.6802   17.3421 H   0  0  0  0  0  0
  -28.7527  -15.7278   18.5868 H   0  0  0  0  0  0
  -30.7116  -18.2789   21.4827 H   0  0  0  0  0  0
  -30.6448  -24.4971   24.1429 H   0  0  0  0  0  0
  -31.5095  -24.0072   22.7221 H   0  0  0  0  0  0
  -30.7621  -22.1847   24.4231 H   0  0  0  0  0  0
  -29.1389  -22.3493   23.8328 H   0  0  0  0  0  0
  -28.4913  -22.4493   19.8874 H   0  0  0  0  0  0
  -28.0769  -22.5054   21.5457 H   0  0  0  0  0  0
  -27.7308  -19.9382   17.0791 H   0  0  0  0  0  0
  -29.2968  -20.7314   17.2451 H   0  0  0  0  0  0
  -27.9825  -21.0386   18.3999 H   0  0  0  0  0  0
  -31.4945  -23.8457   20.5800 H   0  0  0  0  0  0
  -30.9585  -25.4738   20.2024 H   0  0  0  0  0  0
  -30.5886  -24.1441   19.1170 H   0  0  0  0  0  0
  -30.3328  -21.3303   19.1593 H   0  0  0  0  0  0
  -31.4690  -20.5901   20.1580 H   0  0  0  0  0  0
  -27.2495  -24.8342   20.6260 H   0  0  0  0  0  0
  -28.1629  -24.8077   19.1524 H   0  0  0  0  0  0
  -29.1671  -15.3284   21.4835 H   0  0  0  0  0  0
  1 25  1  0  0  0
  1 30  2  0  0  0
  1 88  1  0  0  0
  2  3  1  0  0  0
  2 25  1  0  0  0
  2 91  1  0  0  0
  2 92  1  0  0  0
  3  4  1  0  0  0
  3 93  1  0  0  0
  3 94  1  0  0  0
  4  5  1  0  0  0
  4 95  1  0  0  0
  4 96  1  0  0  0
  5  6  1  0  0  0
  5 26  1  0  0  0
  5 97  1  0  0  0
  6 25  1  0  0  0
  6 98  1  0  0  0
  6 99  1  0  0  0
  7  8  2  0  0  0
  7 26  1  0  0  0
  7 29  1  0  0  0
  8  9  1  0  0  0
  8 22  1  0  0  0
  9 10  1  0  0  0
  9 27  2  0  0  0
 10 11  2  0  0  0
 10 15  1  0  0  0
 11 12  1  0  0  0
 11100  1  0  0  0
 12 13  2  0  0  0
 12101  1  0  0  0
 13 14  1  0  0  0
 13 31  1  0  0  0
 14 15  2  0  0  0
 14102  1  0  0  0
 15103  1  0  0  0
 16 17  2  0  0  0
 16 21  1  0  0  0
 16 31  1  0  0  0
 17 18  1  0  0  0
 17104  1  0  0  0
 18 19  2  0  0  0
 18105  1  0  0  0
 19 20  1  0  0  0
 19 24  1  0  0  0
 20 21  2  0  0  0
 20106  1  0  0  0
 21 23  1  0  0  0
 22 28  1  0  0  0
 22 32  2  0  0  0
 26 27  1  0  0  0
 28107  1  0  0  0
 28108  1  0  0  0
 29109  1  0  0  0
 29110  1  0  0  0
 33 34  1  0  0  0
 33 66  1  0  0  0
 33 70  2  0  0  0
 34 36  1  0  0  0
 34 59  1  0  0  0
 34111  1  0  0  0
 35 44  2  0  0  0
 35 45  1  0  0  0
 35 68  1  0  0  0
 36 56  1  0  0  0
 36112  1  0  0  0
 37 39  1  0  0  0
 37 47  1  0  0  0
 37 66  1  0  0  0
 37113  1  0  0  0
 38 43  2  0  0  0
 38 46  1  0  0  0
 38 47  1  0  0  0
 39 64  1  0  0  0
 39 67  2  0  0  0
 40 52  1  0  0  0
 40 53  2  0  0  0
 40 58  1  0  0  0
 41114  1  0  0  0
 41115  1  0  0  0
 41116  1  0  0  0
 41 48  1  0  0  0
 42 43  1  0  0  0
 42 66  1  0  0  0
 42117  1  0  0  0
 42118  1  0  0  0
 43 44  1  0  0  0
 44119  1  0  0  0
 45 46  2  0  0  0
 45120  1  0  0  0
 46121  1  0  0  0
 47122  1  0  0  0
 47123  1  0  0  0
 48 56  1  0  0  0
 48 65  1  0  0  0
 48124  1  0  0  0
 49 50  1  0  0  0
 49 53  1  0  0  0
 49 64  1  0  0  0
 49125  1  0  0  0
 50 51  1  0  0  0
 50126  1  0  0  0
 50127  1  0  0  0
 51 52  1  0  0  0
 51128  1  0  0  0
 51129  1  0  0  0
 52130  1  0  0  0
 52131  1  0  0  0
 53 54  1  0  0  0
 54 55  2  0  0  0
 54132  1  0  0  0
 55 57  1  0  0  0
 55133  1  0  0  0
 56 69  2  0  0  0
 57 58  2  0  0  0
 57134  1  0  0  0
 58135  1  0  0  0
 59 60  1  0  0  0
 59 61  1  0  0  0
 59 62  1  0  0  0
 60136  1  0  0  0
 60137  1  0  0  0
 60138  1  0  0  0
 61139  1  0  0  0
 61140  1  0  0  0
 61141  1  0  0  0
 62142  1  0  0  0
 62143  1  0  0  0
 62144  1  0  0  0
 63 65  1  0  0  0
 63145  1  0  0  0
 63146  1  0  0  0
 63147  1  0  0  0
 64148  1  0  0  0
 65149  1  0  0  0
 68 86  1  0  0  0
 71 72  2  0  0  0
 71 74  1  0  0  0
 71150  1  0  0  0
 72 76  1  0  0  0
 72151  1  0  0  0
 73 75  1  0  0  0
 73 76  2  0  0  0
 73152  1  0  0  0
 74 75  2  0  0  0
 74 83  1  0  0  0
 75 85  1  0  0  0
 76 88  1  0  0  0
 77 79  1  0  0  0
 77 82  1  0  0  0
 77 89  2  0  0  0
 78 80  1  0  0  0
 78 87  1  0  0  0
 78 90  2  0  0  0
 79 80  1  0  0  0
 79153  1  0  0  0
 79154  1  0  0  0
 80155  1  0  0  0
 80156  1  0  0  0
 81 82  1  0  0  0
 81 87  1  0  0  0
 81157  1  0  0  0
 81158  1  0  0  0
 82 84  1  0  0  0
 82 86  1  0  0  0
 83159  1  0  0  0
 83160  1  0  0  0
 83161  1  0  0  0
 84162  1  0  0  0
 84163  1  0  0  0
 84164  1  0  0  0
 85 87  1  0  0  0
 85165  1  0  0  0
 85166  1  0  0  0
 86167  1  0  0  0
 86168  1  0  0  0
 88169  1  0  0  0
M  ISO  4   1 100  68 101  86 101  88 100
M  END
> <chiral flag>
0

> <version>
0

> <s_m_source_file>
/data/baiqing/PycharmProjects/Reinvent-master-3.2/result/LINK_invent/BTK/process_docking_weight1_custom_product_contain_oxygen_bond_distance_aromatic_linkinvent_7_9_3/rearranged_h_0060.sdf

> <i_m_source_file_index>
54

> <r_mmod_Potential_Energy-OPLS-2005>
25.9956588745117

> <r_mmod_Stretch_Energy-OPLS-2005>
73.2855758666992

> <r_mmod_Bend_Energy-OPLS-2005>
137.499114990234

> <r_mmod_Torsional_Energy-OPLS-2005>
291.932281494141

> <r_mmod_Improper_Torsional_Energy-OPLS-2005>
8.46569633483887

> <r_mmod_Van_der_Waal_Energy-OPLS-2005>
156.982284545898

> <r_mmod_Electrostatic_Energy-OPLS-2005>
-425.414184570312

> <r_mmod_Solvation_Energy-OPLS-2005>
-247.559494018555

> <b_mmod_Minimization_Converged-OPLS-2005>
0

> <r_mmod_RMS_Derivative-OPLS-2005>
6.39248943328857

$$$$
54
                    3D
 Structure written by MMmdl.
165174  0  0  1  0            999 V2000
  -30.6572  -14.5130   20.4643 C   0  0  0  0  0  0
  -30.4246  -12.3073   19.4240 C   0  0  0  0  0  0
  -29.4937  -12.4693   18.2044 C   0  0  0  0  0  0
  -28.0139  -12.3375   18.6204 C   0  0  0  0  0  0
  -27.6497  -13.2015   19.8592 C   0  0  2  0  0  0
  -28.6962  -13.0366   20.9820 C   0  0  0  0  0  0
  -25.2570  -13.8179   20.5742 C   0  0  0  0  0  0
  -24.1812  -13.0443   20.9183 C   0  0  0  0  0  0
  -24.6358  -11.6908   20.8727 C   0  0  0  0  0  0
  -23.9029  -10.4300   21.0400 C   0  0  0  0  0  0
  -24.3592   -9.4229   21.9178 C   0  0  0  0  0  0
  -23.6281   -8.2263   22.0745 C   0  0  0  0  0  0
  -22.4257   -8.0292   21.3554 C   0  0  0  0  0  0
  -21.9897   -9.0255   20.4649 C   0  0  0  0  0  0
  -22.7210  -10.2142   20.3059 C   0  0  0  0  0  0
  -21.6849   -6.0745   22.5287 C   0  0  0  0  0  0
  -21.4003   -6.5640   23.8221 C   0  0  0  0  0  0
  -21.3650   -5.6791   24.9170 C   0  0  0  0  0  0
  -21.6042   -4.3055   24.7210 C   0  0  0  0  0  0
  -21.8825   -3.8153   23.4329 C   0  0  0  0  0  0
  -21.9193   -4.6977   22.3388 C   0  0  0  0  0  0
  -22.7847  -13.5246   21.1844 C   0  0  0  0  0  0
  -22.1673   -4.2170   21.0964 F   0  0  0  0  0  0
  -21.5622   -3.4527   25.7713 F   0  0  0  0  0  0
  -30.0179  -13.3169   20.4090 N   0  0  0  0  0  0
  -26.2970  -12.9312   20.3335 N   0  0  0  0  0  0
  -25.9268  -11.6481   20.5745 N   0  0  0  0  0  0
  -22.0466  -12.8253   22.0387 N   0  0  0  0  0  0
  -25.4296  -15.1914   20.4248 N   0  0  0  0  0  0
  -31.8603  -14.6405   20.2249 O   0  0  0  0  0  0
  -21.6634   -6.8887   21.4254 O   0  0  0  0  0  0
  -22.3534  -14.5538   20.6676 O   0  0  0  0  0  0
  -24.6140  -31.8658   23.2096 C   0  0  0  0  0  0
  -25.9033  -32.4809   23.8377 C   0  0  1  0  0  0
  -27.2332  -27.4112   20.0970 C   0  0  0  0  0  0
  -25.5894  -33.8612   24.2312 N   0  0  0  0  0  0
  -23.4008  -30.4884   21.5512 C   0  0  2  0  0  0
  -24.8472  -28.9501   20.1138 C   0  0  0  0  0  0
  -22.7398  -29.4635   22.4996 C   0  0  0  0  0  0
  -18.0265  -28.1330   22.8519 C   0  0  0  0  0  0
  -24.1481  -36.7317   23.2640 C   0  0  0  0  0  0
  -25.9304  -30.8231   21.3646 C   0  0  0  0  0  0
  -26.0058  -29.4537   20.7158 C   0  0  0  0  0  0
  -27.1962  -28.6881   20.7095 C   0  0  0  0  0  0
  -26.0541  -26.9281   19.4851 C   0  0  0  0  0  0
  -24.8681  -27.6882   19.4957 C   0  0  0  0  0  0
  -23.6090  -29.8181   20.1661 C   0  0  0  0  0  0
  -25.4102  -36.3120   24.0338 C   0  0  1  0  0  0
  -20.5844  -28.3638   23.1326 C   0  0  2  0  0  0
  -20.6727  -26.9367   22.5442 C   0  0  0  0  0  0
  -19.5716  -26.6404   21.5209 C   0  0  0  0  0  0
  -18.1918  -26.7868   22.1659 C   0  0  0  0  0  0
  -19.1506  -28.8800   23.2922 C   0  0  0  0  0  0
  -18.9433  -30.1409   23.8921 C   0  0  0  0  0  0
  -17.6433  -30.6558   24.0532 C   0  0  0  0  0  0
  -25.9032  -34.9478   23.5126 C   0  0  0  0  0  0
  -16.5326  -29.9075   23.6276 C   0  0  0  0  0  0
  -16.7253  -28.6458   23.0341 C   0  0  0  0  0  0
  -26.4448  -31.6602   25.0718 C   0  0  0  0  0  0
  -25.3698  -31.3725   26.1461 C   0  0  0  0  0  0
  -27.0284  -30.3052   24.6093 C   0  0  0  0  0  0
  -27.6019  -32.4331   25.7481 C   0  0  0  0  0  0
  -27.5573  -37.1824   24.8465 C   0  0  0  0  0  0
  -21.4118  -29.3000   22.3728 N   0  0  0  0  0  0
  -26.4289  -37.3805   23.9407 N   0  0  0  0  0  0
  -24.6666  -31.0747   22.0998 N   0  0  0  0  0  0
  -23.4177  -28.8179   23.3040 O   0  0  0  0  0  0
  -28.4171  -26.6964   20.1453 O   0  0  0  0  0  0
  -26.5597  -34.8924   22.4692 O   0  0  0  0  0  0
  -23.5340  -32.1410   23.7512 O   0  0  0  0  0  0
  -29.1344  -24.2584   21.5179 C   0  0  0  0  0  0
  -28.6071  -17.4796   23.1302 C   0  0  0  0  0  0
  -29.2285  -16.4596   22.3817 C   0  0  0  0  0  0
  -28.6961  -17.6829   20.3453 C   0  0  0  0  0  0
  -28.0180  -18.5967   22.4974 C   0  0  0  0  0  0
  -28.0563  -18.7104   21.0850 C   0  0  0  0  0  0
  -29.2752  -16.5524   20.9771 C   0  0  0  0  0  0
  -29.0251  -21.5631   19.7980 C   0  0  0  0  0  0
  -29.2909  -23.0328   19.4118 C   0  0  0  0  0  0
  -27.0516  -23.6304   20.3322 C   0  0  0  0  0  0
  -26.9767  -22.2440   21.0117 C   0  0  0  0  0  0
  -28.5064  -24.1216   20.1902 C   0  0  1  0  0  0
  -27.3223  -19.6334   23.3625 C   0  0  0  0  0  0
  -27.3281  -19.8423   20.3276 C   0  0  0  0  0  0
  -28.6099  -25.4742   19.4048 C   0  0  0  0  0  0
  -29.6304  -24.3565   22.5623 N   0  0  0  0  0  0
  -27.8619  -21.2275   20.4049 N   0  0  0  0  0  0
  -29.8566  -15.5493   20.1472 N   0  0  0  0  0  0
  -29.8448  -20.7192   19.4276 O   0  0  0  0  0  0
  -31.4659  -12.4263   19.1177 H   0  0  0  0  0  0
  -30.3448  -11.3055   19.8481 H   0  0  0  0  0  0
  -29.7364  -11.7236   17.4459 H   0  0  0  0  0  0
  -29.6601  -13.4399   17.7322 H   0  0  0  0  0  0
  -27.8304  -11.2847   18.8382 H   0  0  0  0  0  0
  -27.3665  -12.5917   17.7812 H   0  0  0  0  0  0
  -27.6674  -14.2376   19.5239 H   0  0  0  0  0  0
  -28.6761  -12.0243   21.3875 H   0  0  0  0  0  0
  -28.4718  -13.7067   21.8120 H   0  0  0  0  0  0
  -25.2752   -9.5706   22.4730 H   0  0  0  0  0  0
  -24.0009   -7.4655   22.7448 H   0  0  0  0  0  0
  -21.0843   -8.8767   19.8933 H   0  0  0  0  0  0
  -22.3689  -10.9674   19.6154 H   0  0  0  0  0  0
  -21.1998   -7.6150   23.9721 H   0  0  0  0  0  0
  -21.1460   -6.0512   25.9076 H   0  0  0  0  0  0
  -22.0610   -2.7618   23.2809 H   0  0  0  0  0  0
  -22.4083  -11.9945   22.4854 H   0  0  0  0  0  0
  -21.1059  -13.1266   22.2505 H   0  0  0  0  0  0
  -24.6740  -15.8523   20.5701 H   0  0  0  0  0  0
  -26.3056  -15.6398   20.1899 H   0  0  0  0  0  0
  -26.7090  -32.5502   23.1127 H   0  0  0  0  0  0
  -25.0053  -33.9756   25.0465 H   0  0  0  0  0  0
  -22.6872  -31.3041   21.4129 H   0  0  0  0  0  0
  -23.3746  -35.9651   23.3326 H   0  0  0  0  0  0
  -24.3569  -36.8916   22.2051 H   0  0  0  0  0  0
  -23.7226  -37.6527   23.6635 H   0  0  0  0  0  0
  -26.0392  -31.5846   20.5906 H   0  0  0  0  0  0
  -26.8202  -30.8828   21.9803 H   0  0  0  0  0  0
  -28.0890  -29.0745   21.1812 H   0  0  0  0  0  0
  -26.0186  -25.9637   19.0027 H   0  0  0  0  0  0
  -23.9757  -27.2964   19.0273 H   0  0  0  0  0  0
  -23.7165  -30.5920   19.4066 H   0  0  0  0  0  0
  -22.7315  -29.2398   19.8707 H   0  0  0  0  0  0
  -25.1289  -36.1989   25.0833 H   0  0  0  0  0  0
  -20.9968  -28.3204   24.1438 H   0  0  0  0  0  0
  -20.5576  -26.2221   23.3595 H   0  0  0  0  0  0
  -21.6643  -26.7443   22.1316 H   0  0  0  0  0  0
  -19.6872  -25.6334   21.1168 H   0  0  0  0  0  0
  -19.6655  -27.3290   20.6808 H   0  0  0  0  0  0
  -17.4175  -26.6587   21.4090 H   0  0  0  0  0  0
  -18.0372  -25.9993   22.9070 H   0  0  0  0  0  0
  -19.7889  -30.7223   24.2362 H   0  0  0  0  0  0
  -17.4996  -31.6266   24.5087 H   0  0  0  0  0  0
  -15.5340  -30.3005   23.7534 H   0  0  0  0  0  0
  -15.8673  -28.0765   22.7010 H   0  0  0  0  0  0
  -24.5856  -30.7097   25.7790 H   0  0  0  0  0  0
  -24.8898  -32.2888   26.4907 H   0  0  0  0  0  0
  -25.8026  -30.8879   27.0218 H   0  0  0  0  0  0
  -26.2835  -29.6836   24.1111 H   0  0  0  0  0  0
  -27.4028  -29.7275   25.4552 H   0  0  0  0  0  0
  -27.8675  -30.4395   23.9264 H   0  0  0  0  0  0
  -27.2623  -33.3617   26.2076 H   0  0  0  0  0  0
  -28.3802  -32.6918   25.0292 H   0  0  0  0  0  0
  -28.0695  -31.8443   26.5375 H   0  0  0  0  0  0
  -28.2624  -38.0097   24.7514 H   0  0  0  0  0  0
  -28.1047  -36.2637   24.6305 H   0  0  0  0  0  0
  -27.2290  -37.1488   25.8870 H   0  0  0  0  0  0
  -20.9288  -29.8774   21.6993 H   0  0  0  0  0  0
  -26.0192  -38.2894   24.1408 H   0  0  0  0  0  0
  -28.5742  -17.3841   24.2073 H   0  0  0  0  0  0
  -29.6554  -15.6186   22.9078 H   0  0  0  0  0  0
  -28.7202  -17.7549   19.2667 H   0  0  0  0  0  0
  -29.0548  -23.1079   18.3501 H   0  0  0  0  0  0
  -30.3622  -23.2225   19.4920 H   0  0  0  0  0  0
  -26.4665  -24.3498   20.9057 H   0  0  0  0  0  0
  -26.5802  -23.5738   19.3506 H   0  0  0  0  0  0
  -25.9358  -21.9135   21.0104 H   0  0  0  0  0  0
  -27.2560  -22.3429   22.0602 H   0  0  0  0  0  0
  -27.2881  -19.3150   24.4047 H   0  0  0  0  0  0
  -26.2930  -19.7946   23.0380 H   0  0  0  0  0  0
  -27.8607  -20.5786   23.3313 H   0  0  0  0  0  0
  -26.2848  -19.8172   20.6404 H   0  0  0  0  0  0
  -27.2819  -19.5761   19.2704 H   0  0  0  0  0  0
  -28.0323  -25.4463   18.4822 H   0  0  0  0  0  0
  -29.6387  -25.5603   19.0532 H   0  0  0  0  0  0
  -30.0643  -15.8936   19.2220 H   0  0  0  0  0  0
  1 25  1  0  0  0
  1 30  2  0  0  0
  1 88  1  0  0  0
  2  3  1  0  0  0
  2 25  1  0  0  0
  2 90  1  0  0  0
  2 91  1  0  0  0
  3  4  1  0  0  0
  3 92  1  0  0  0
  3 93  1  0  0  0
  4  5  1  0  0  0
  4 94  1  0  0  0
  4 95  1  0  0  0
  5  6  1  0  0  0
  5 26  1  0  0  0
  5 96  1  0  0  0
  6 25  1  0  0  0
  6 97  1  0  0  0
  6 98  1  0  0  0
  7  8  2  0  0  0
  7 26  1  0  0  0
  7 29  1  0  0  0
  8  9  1  0  0  0
  8 22  1  0  0  0
  9 10  1  0  0  0
  9 27  2  0  0  0
 10 11  2  0  0  0
 10 15  1  0  0  0
 11 12  1  0  0  0
 11 99  1  0  0  0
 12 13  2  0  0  0
 12100  1  0  0  0
 13 14  1  0  0  0
 13 31  1  0  0  0
 14 15  2  0  0  0
 14101  1  0  0  0
 15102  1  0  0  0
 16 17  2  0  0  0
 16 21  1  0  0  0
 16 31  1  0  0  0
 17 18  1  0  0  0
 17103  1  0  0  0
 18 19  2  0  0  0
 18104  1  0  0  0
 19 20  1  0  0  0
 19 24  1  0  0  0
 20 21  2  0  0  0
 20105  1  0  0  0
 21 23  1  0  0  0
 22 28  1  0  0  0
 22 32  2  0  0  0
 26 27  1  0  0  0
 28106  1  0  0  0
 28107  1  0  0  0
 29108  1  0  0  0
 29109  1  0  0  0
 33 34  1  0  0  0
 33 66  1  0  0  0
 33 70  2  0  0  0
 34 36  1  0  0  0
 34 59  1  0  0  0
 34110  1  0  0  0
 35 44  2  0  0  0
 35 45  1  0  0  0
 35 68  1  0  0  0
 36 56  1  0  0  0
 36111  1  0  0  0
 37 39  1  0  0  0
 37 47  1  0  0  0
 37 66  1  0  0  0
 37112  1  0  0  0
 38 43  2  0  0  0
 38 46  1  0  0  0
 38 47  1  0  0  0
 39 64  1  0  0  0
 39 67  2  0  0  0
 40 52  1  0  0  0
 40 53  2  0  0  0
 40 58  1  0  0  0
 41113  1  0  0  0
 41114  1  0  0  0
 41115  1  0  0  0
 41 48  1  0  0  0
 42 43  1  0  0  0
 42 66  1  0  0  0
 42116  1  0  0  0
 42117  1  0  0  0
 43 44  1  0  0  0
 44118  1  0  0  0
 45 46  2  0  0  0
 45119  1  0  0  0
 46120  1  0  0  0
 47121  1  0  0  0
 47122  1  0  0  0
 48 56  1  0  0  0
 48 65  1  0  0  0
 48123  1  0  0  0
 49 50  1  0  0  0
 49 53  1  0  0  0
 49 64  1  0  0  0
 49124  1  0  0  0
 50 51  1  0  0  0
 50125  1  0  0  0
 50126  1  0  0  0
 51 52  1  0  0  0
 51127  1  0  0  0
 51128  1  0  0  0
 52129  1  0  0  0
 52130  1  0  0  0
 53 54  1  0  0  0
 54 55  2  0  0  0
 54131  1  0  0  0
 55 57  1  0  0  0
 55132  1  0  0  0
 56 69  2  0  0  0
 57 58  2  0  0  0
 57133  1  0  0  0
 58134  1  0  0  0
 59 60  1  0  0  0
 59 61  1  0  0  0
 59 62  1  0  0  0
 60135  1  0  0  0
 60136  1  0  0  0
 60137  1  0  0  0
 61138  1  0  0  0
 61139  1  0  0  0
 61140  1  0  0  0
 62141  1  0  0  0
 62142  1  0  0  0
 62143  1  0  0  0
 63 65  1  0  0  0
 63144  1  0  0  0
 63145  1  0  0  0
 63146  1  0  0  0
 64147  1  0  0  0
 65148  1  0  0  0
 68 85  1  0  0  0
 71 86  3  0  0  0
 71 82  1  0  0  0
 72 73  2  0  0  0
 72 75  1  0  0  0
 72149  1  0  0  0
 73 77  1  0  0  0
 73150  1  0  0  0
 74 76  1  0  0  0
 74 77  2  0  0  0
 74151  1  0  0  0
 75 76  2  0  0  0
 75 83  1  0  0  0
 76 84  1  0  0  0
 77 88  1  0  0  0
 78 79  1  0  0  0
 78 87  1  0  0  0
 78 89  2  0  0  0
 79 82  1  0  0  0
 79152  1  0  0  0
 79153  1  0  0  0
 80 81  1  0  0  0
 80 82  1  0  0  0
 80154  1  0  0  0
 80155  1  0  0  0
 81 87  1  0  0  0
 81156  1  0  0  0
 81157  1  0  0  0
 82 85  1  0  0  0
 83158  1  0  0  0
 83159  1  0  0  0
 83160  1  0  0  0
 84 87  1  0  0  0
 84161  1  0  0  0
 84162  1  0  0  0
 85163  1  0  0  0
 85164  1  0  0  0
 88165  1  0  0  0
M  ISO  4   1 100  68 101  85 101  88 100
M  END
> <chiral flag>
0

> <version>
0

> <s_m_source_file>
/data/baiqing/PycharmProjects/Reinvent-master-3.2/result/LINK_invent/BTK/process_docking_weight1_custom_product_contain_oxygen_bond_distance_aromatic_linkinvent_7_9_3/rearranged_h_0060.sdf

> <i_m_source_file_index>
55

> <r_mmod_Potential_Energy-OPLS-2005>
-4.95896577835083

> <r_mmod_Stretch_Energy-OPLS-2005>
43.2262115478516

> <r_mmod_Bend_Energy-OPLS-2005>
135.932861328125

> <r_mmod_Torsional_Energy-OPLS-2005>
294.412445068359

> <r_mmod_Improper_Torsional_Energy-OPLS-2005>
26.2942543029785

> <r_mmod_Van_der_Waal_Energy-OPLS-2005>
145.245880126953

> <r_mmod_Electrostatic_Energy-OPLS-2005>
-433.411102294922

> <r_mmod_Solvation_Energy-OPLS-2005>
-241.273498535156

> <b_mmod_Minimization_Converged-OPLS-2005>
0

> <r_mmod_RMS_Derivative-OPLS-2005>
3.10948514938354

$$$$
55
                    3D
 Structure written by MMmdl.
159168  0  0  1  0            999 V2000
  -30.6069  -14.7848   20.3840 C   0  0  0  0  0  0
  -30.4345  -12.4591   19.4851 C   0  0  0  0  0  0
  -29.5120  -12.4623   18.2461 C   0  0  0  0  0  0
  -28.0340  -12.3240   18.6617 C   0  0  0  0  0  0
  -27.6440  -13.2376   19.8554 C   0  0  2  0  0  0
  -28.6970  -13.1971   20.9855 C   0  0  0  0  0  0
  -25.2533  -13.8225   20.5778 C   0  0  0  0  0  0
  -24.1803  -13.0456   20.9243 C   0  0  0  0  0  0
  -24.6404  -11.6935   20.8774 C   0  0  0  0  0  0
  -23.9071  -10.4302   21.0410 C   0  0  0  0  0  0
  -24.3615   -9.4206   21.9179 C   0  0  0  0  0  0
  -23.6285   -8.2244   22.0750 C   0  0  0  0  0  0
  -22.4269   -8.0294   21.3544 C   0  0  0  0  0  0
  -21.9911   -9.0261   20.4640 C   0  0  0  0  0  0
  -22.7243  -10.2145   20.3058 C   0  0  0  0  0  0
  -21.6855   -6.0731   22.5268 C   0  0  0  0  0  0
  -21.4000   -6.5628   23.8199 C   0  0  0  0  0  0
  -21.3663   -5.6796   24.9166 C   0  0  0  0  0  0
  -21.6052   -4.3062   24.7226 C   0  0  0  0  0  0
  -21.8814   -3.8141   23.4346 C   0  0  0  0  0  0
  -21.9189   -4.6947   22.3402 C   0  0  0  0  0  0
  -22.7821  -13.5211   21.1905 C   0  0  0  0  0  0
  -22.1652   -4.2122   21.0980 F   0  0  0  0  0  0
  -21.5657   -3.4561   25.7749 F   0  0  0  0  0  0
  -29.9907  -13.5488   20.3863 N   0  0  0  0  0  0
  -26.2964  -12.9443   20.3368 N   0  0  0  0  0  0
  -25.9345  -11.6577   20.5817 N   0  0  0  0  0  0
  -22.0474  -12.8165   22.0449 N   0  0  0  0  0  0
  -25.4234  -15.1945   20.4231 N   0  0  0  0  0  0
  -31.8076  -14.8579   20.1077 O   0  0  0  0  0  0
  -21.6650   -6.8875   21.4233 O   0  0  0  0  0  0
  -22.3481  -14.5528   20.6784 O   0  0  0  0  0  0
  -24.6358  -31.8531   23.1978 C   0  0  0  0  0  0
  -25.9170  -32.4743   23.8331 C   0  0  1  0  0  0
  -27.2174  -27.2382   20.1291 C   0  0  0  0  0  0
  -25.5956  -33.8550   24.2248 N   0  0  0  0  0  0
  -23.4335  -30.4784   21.5429 C   0  0  2  0  0  0
  -24.8799  -28.9307   20.1093 C   0  0  0  0  0  0
  -22.7523  -29.4601   22.4895 C   0  0  0  0  0  0
  -18.0297  -28.1389   22.8479 C   0  0  0  0  0  0
  -24.1482  -36.7271   23.2634 C   0  0  0  0  0  0
  -25.9832  -30.7611   21.3804 C   0  0  0  0  0  0
  -26.0561  -29.3838   20.7198 C   0  0  0  0  0  0
  -27.2276  -28.5528   20.7167 C   0  0  0  0  0  0
  -26.0139  -26.8717   19.4744 C   0  0  0  0  0  0
  -24.8656  -27.6823   19.4759 C   0  0  0  0  0  0
  -23.6514  -29.8185   20.1583 C   0  0  0  0  0  0
  -25.4106  -36.3055   24.0323 C   0  0  1  0  0  0
  -20.5906  -28.3715   23.1247 C   0  0  2  0  0  0
  -20.6782  -26.9427   22.5399 C   0  0  0  0  0  0
  -19.5754  -26.6378   21.5208 C   0  0  0  0  0  0
  -18.1931  -26.7928   22.1618 C   0  0  0  0  0  0
  -19.1551  -28.8868   23.2854 C   0  0  0  0  0  0
  -18.9470  -30.1468   23.8879 C   0  0  0  0  0  0
  -17.6470  -30.6591   24.0566 C   0  0  0  0  0  0
  -25.9067  -34.9433   23.5082 C   0  0  0  0  0  0
  -16.5363  -29.9086   23.6340 C   0  0  0  0  0  0
  -16.7284  -28.6504   23.0359 C   0  0  0  0  0  0
  -26.4518  -31.6585   25.0739 C   0  0  0  0  0  0
  -25.3717  -31.3749   26.1440 C   0  0  0  0  0  0
  -27.0368  -30.2989   24.6256 C   0  0  0  0  0  0
  -27.6056  -32.4336   25.7527 C   0  0  0  0  0  0
  -27.5581  -37.1759   24.8443 C   0  0  0  0  0  0
  -21.4230  -29.3052   22.3634 N   0  0  0  0  0  0
  -26.4258  -37.3773   23.9445 N   0  0  0  0  0  0
  -24.7042  -31.0478   22.0970 N   0  0  0  0  0  0
  -23.4203  -28.8136   23.3004 O   0  0  0  0  0  0
  -28.2876  -26.2993   20.2154 O   0  0  0  0  0  0
  -26.5641  -34.8924   22.4654 O   0  0  0  0  0  0
  -23.5498  -32.1377   23.7246 O   0  0  0  0  0  0
  -30.0474  -18.6071   17.7650 C   0  0  0  0  0  0
  -29.8316  -19.8153   18.4390 C   0  0  0  0  0  0
  -29.6536  -18.5650   20.5196 C   0  0  0  0  0  0
  -30.0584  -17.3629   18.4313 C   0  0  0  0  0  0
  -29.5998  -19.8565   19.8269 C   0  0  0  0  0  0
  -29.9012  -17.2809   19.8502 C   0  0  0  0  0  0
  -28.8349  -23.5635   20.3304 C   0  0  0  0  0  0
  -29.9469  -23.4119   21.0650 C   0  0  0  0  0  0
  -28.4818  -22.1787   19.8946 C   0  0  0  0  0  0
  -30.3777  -21.9484   21.1659 C   0  0  0  0  0  0
  -30.1562  -16.1423   17.5335 C   0  0  0  0  0  0
  -30.7528  -24.4841   21.7699 C   0  0  0  0  0  0
  -27.9590  -24.8469   19.9374 C   0  0  0  0  0  0
  -29.3698  -21.2280   20.3774 N   0  0  0  0  0  0
  -29.8293  -15.9371   20.5187 N   0  0  0  0  0  0
  -27.4976  -21.8937   19.2048 O   0  0  0  0  0  0
  -31.4766  -12.5737   19.1801 H   0  0  0  0  0  0
  -30.3768  -11.4980   19.9986 H   0  0  0  0  0  0
  -29.7824  -11.6427   17.5791 H   0  0  0  0  0  0
  -29.6568  -13.3716   17.6665 H   0  0  0  0  0  0
  -27.8754  -11.2808   18.9362 H   0  0  0  0  0  0
  -27.3799  -12.5147   17.8100 H   0  0  0  0  0  0
  -27.6307  -14.2545   19.4637 H   0  0  0  0  0  0
  -28.7442  -12.2072   21.4409 H   0  0  0  0  0  0
  -28.4428  -13.8923   21.7872 H   0  0  0  0  0  0
  -25.2745   -9.5702   22.4762 H   0  0  0  0  0  0
  -23.9998   -7.4640   22.7467 H   0  0  0  0  0  0
  -21.0851   -8.8767   19.8933 H   0  0  0  0  0  0
  -22.3671  -10.9686   19.6187 H   0  0  0  0  0  0
  -21.1959   -7.6134   23.9691 H   0  0  0  0  0  0
  -21.1509   -6.0532   25.9069 H   0  0  0  0  0  0
  -22.0588   -2.7596   23.2873 H   0  0  0  0  0  0
  -22.4093  -11.9780   22.4748 H   0  0  0  0  0  0
  -21.1104  -13.1182   22.2731 H   0  0  0  0  0  0
  -24.6645  -15.8549   20.5534 H   0  0  0  0  0  0
  -26.2825  -15.6349   20.1200 H   0  0  0  0  0  0
  -26.7239  -32.5384   23.1077 H   0  0  0  0  0  0
  -25.0101  -33.9694   25.0385 H   0  0  0  0  0  0
  -22.7325  -31.3019   21.3971 H   0  0  0  0  0  0
  -23.3771  -35.9565   23.3214 H   0  0  0  0  0  0
  -24.3588  -36.8990   22.2067 H   0  0  0  0  0  0
  -23.7195  -37.6426   23.6720 H   0  0  0  0  0  0
  -26.1216  -31.5213   20.6109 H   0  0  0  0  0  0
  -26.8606  -30.8107   22.0137 H   0  0  0  0  0  0
  -28.1269  -28.8958   21.2086 H   0  0  0  0  0  0
  -25.9078  -25.9243   18.9679 H   0  0  0  0  0  0
  -23.9651  -27.3295   18.9925 H   0  0  0  0  0  0
  -23.7788  -30.5971   19.4052 H   0  0  0  0  0  0
  -22.7683  -29.2545   19.8521 H   0  0  0  0  0  0
  -25.1269  -36.1879   25.0804 H   0  0  0  0  0  0
  -20.9993  -28.3299   24.1371 H   0  0  0  0  0  0
  -20.5682  -26.2329   23.3608 H   0  0  0  0  0  0
  -21.6650  -26.7435   22.1204 H   0  0  0  0  0  0
  -19.6925  -25.6279   21.1257 H   0  0  0  0  0  0
  -19.6698  -27.3173   20.6725 H   0  0  0  0  0  0
  -17.4204  -26.6687   21.4015 H   0  0  0  0  0  0
  -18.0326  -26.0065   22.9010 H   0  0  0  0  0  0
  -19.7954  -30.7282   24.2240 H   0  0  0  0  0  0
  -17.5032  -31.6268   24.5168 H   0  0  0  0  0  0
  -15.5369  -30.2983   23.7669 H   0  0  0  0  0  0
  -15.8684  -28.0820   22.7079 H   0  0  0  0  0  0
  -24.5922  -30.7065   25.7769 H   0  0  0  0  0  0
  -24.8873  -32.2923   26.4794 H   0  0  0  0  0  0
  -25.8015  -30.8986   27.0263 H   0  0  0  0  0  0
  -26.2972  -29.6729   24.1257 H   0  0  0  0  0  0
  -27.4007  -29.7264   25.4800 H   0  0  0  0  0  0
  -27.8861  -30.4244   23.9537 H   0  0  0  0  0  0
  -27.2663  -33.3667   26.2038 H   0  0  0  0  0  0
  -28.3908  -32.6849   25.0386 H   0  0  0  0  0  0
  -28.0671  -31.8504   26.5506 H   0  0  0  0  0  0
  -28.2496  -38.0158   24.7635 H   0  0  0  0  0  0
  -28.1181  -36.2697   24.6069 H   0  0  0  0  0  0
  -27.2329  -37.1171   25.8846 H   0  0  0  0  0  0
  -20.9417  -29.8786   21.6850 H   0  0  0  0  0  0
  -26.0119  -38.2811   24.1558 H   0  0  0  0  0  0
  -30.1743  -18.6542   16.6909 H   0  0  0  0  0  0
  -29.8294  -20.7302   17.8621 H   0  0  0  0  0  0
  -29.4767  -18.5548   21.5856 H   0  0  0  0  0  0
  -30.3912  -21.6124   22.2029 H   0  0  0  0  0  0
  -31.3707  -21.8097   20.7362 H   0  0  0  0  0  0
  -30.2518  -16.4277   16.4850 H   0  0  0  0  0  0
  -29.2499  -15.5439   17.6210 H   0  0  0  0  0  0
  -31.0304  -15.5380   17.7625 H   0  0  0  0  0  0
  -30.3704  -25.4800   21.5506 H   0  0  0  0  0  0
  -31.7962  -24.4445   21.4530 H   0  0  0  0  0  0
  -30.7173  -24.3372   22.8503 H   0  0  0  0  0  0
  -26.9972  -24.6337   20.4054 H   0  0  0  0  0  0
  -27.8055  -24.7656   18.8611 H   0  0  0  0  0  0
  -28.9494  -15.7596   20.9776 H   0  0  0  0  0  0
  1 25  1  0  0  0
  1 30  2  0  0  0
  1 85  1  0  0  0
  2  3  1  0  0  0
  2 25  1  0  0  0
  2 87  1  0  0  0
  2 88  1  0  0  0
  3  4  1  0  0  0
  3 89  1  0  0  0
  3 90  1  0  0  0
  4  5  1  0  0  0
  4 91  1  0  0  0
  4 92  1  0  0  0
  5  6  1  0  0  0
  5 26  1  0  0  0
  5 93  1  0  0  0
  6 25  1  0  0  0
  6 94  1  0  0  0
  6 95  1  0  0  0
  7  8  2  0  0  0
  7 26  1  0  0  0
  7 29  1  0  0  0
  8  9  1  0  0  0
  8 22  1  0  0  0
  9 10  1  0  0  0
  9 27  2  0  0  0
 10 11  2  0  0  0
 10 15  1  0  0  0
 11 12  1  0  0  0
 11 96  1  0  0  0
 12 13  2  0  0  0
 12 97  1  0  0  0
 13 14  1  0  0  0
 13 31  1  0  0  0
 14 15  2  0  0  0
 14 98  1  0  0  0
 15 99  1  0  0  0
 16 17  2  0  0  0
 16 21  1  0  0  0
 16 31  1  0  0  0
 17 18  1  0  0  0
 17100  1  0  0  0
 18 19  2  0  0  0
 18101  1  0  0  0
 19 20  1  0  0  0
 19 24  1  0  0  0
 20 21  2  0  0  0
 20102  1  0  0  0
 21 23  1  0  0  0
 22 28  1  0  0  0
 22 32  2  0  0  0
 26 27  1  0  0  0
 28103  1  0  0  0
 28104  1  0  0  0
 29105  1  0  0  0
 29106  1  0  0  0
 33 34  1  0  0  0
 33 66  1  0  0  0
 33 70  2  0  0  0
 34 36  1  0  0  0
 34 59  1  0  0  0
 34107  1  0  0  0
 35 44  2  0  0  0
 35 45  1  0  0  0
 35 68  1  0  0  0
 36 56  1  0  0  0
 36108  1  0  0  0
 37 39  1  0  0  0
 37 47  1  0  0  0
 37 66  1  0  0  0
 37109  1  0  0  0
 38 43  2  0  0  0
 38 46  1  0  0  0
 38 47  1  0  0  0
 39 64  1  0  0  0
 39 67  2  0  0  0
 40 52  1  0  0  0
 40 53  2  0  0  0
 40 58  1  0  0  0
 41110  1  0  0  0
 41111  1  0  0  0
 41112  1  0  0  0
 41 48  1  0  0  0
 42 43  1  0  0  0
 42 66  1  0  0  0
 42113  1  0  0  0
 42114  1  0  0  0
 43 44  1  0  0  0
 44115  1  0  0  0
 45 46  2  0  0  0
 45116  1  0  0  0
 46117  1  0  0  0
 47118  1  0  0  0
 47119  1  0  0  0
 48 56  1  0  0  0
 48 65  1  0  0  0
 48120  1  0  0  0
 49 50  1  0  0  0
 49 53  1  0  0  0
 49 64  1  0  0  0
 49121  1  0  0  0
 50 51  1  0  0  0
 50122  1  0  0  0
 50123  1  0  0  0
 51 52  1  0  0  0
 51124  1  0  0  0
 51125  1  0  0  0
 52126  1  0  0  0
 52127  1  0  0  0
 53 54  1  0  0  0
 54 55  2  0  0  0
 54128  1  0  0  0
 55 57  1  0  0  0
 55129  1  0  0  0
 56 69  2  0  0  0
 57 58  2  0  0  0
 57130  1  0  0  0
 58131  1  0  0  0
 59 60  1  0  0  0
 59 61  1  0  0  0
 59 62  1  0  0  0
 60132  1  0  0  0
 60133  1  0  0  0
 60134  1  0  0  0
 61135  1  0  0  0
 61136  1  0  0  0
 61137  1  0  0  0
 62138  1  0  0  0
 62139  1  0  0  0
 62140  1  0  0  0
 63 65  1  0  0  0
 63141  1  0  0  0
 63142  1  0  0  0
 63143  1  0  0  0
 64144  1  0  0  0
 65145  1  0  0  0
 68 83  1  0  0  0
 71 72  2  0  0  0
 71 74  1  0  0  0
 71146  1  0  0  0
 72 75  1  0  0  0
 72147  1  0  0  0
 73 75  2  0  0  0
 73 76  1  0  0  0
 73148  1  0  0  0
 74 76  2  0  0  0
 74 81  1  0  0  0
 75 84  1  0  0  0
 76 85  1  0  0  0
 77 78  2  0  0  0
 77 79  1  0  0  0
 77 83  1  0  0  0
 78 80  1  0  0  0
 78 82  1  0  0  0
 79 84  1  0  0  0
 79 86  2  0  0  0
 80 84  1  0  0  0
 80149  1  0  0  0
 80150  1  0  0  0
 81151  1  0  0  0
 81152  1  0  0  0
 81153  1  0  0  0
 82154  1  0  0  0
 82155  1  0  0  0
 82156  1  0  0  0
 83157  1  0  0  0
 83158  1  0  0  0
 85159  1  0  0  0
M  ISO  4   1 100  68 101  83 101  85 100
M  END
> <chiral flag>
0

> <version>
0

> <s_m_source_file>
/data/baiqing/PycharmProjects/Reinvent-master-3.2/result/LINK_invent/BTK/process_docking_weight1_custom_product_contain_oxygen_bond_distance_aromatic_linkinvent_7_9_3/rearranged_h_0060.sdf

> <i_m_source_file_index>
56

> <r_mmod_Potential_Energy-OPLS-2005>
364.174133300781

> <r_mmod_Stretch_Energy-OPLS-2005>
140.15510559082

> <r_mmod_Bend_Energy-OPLS-2005>
226.487228393555

> <r_mmod_Torsional_Energy-OPLS-2005>
300.747406005859

> <r_mmod_Improper_Torsional_Energy-OPLS-2005>
6.40294361114502

> <r_mmod_Van_der_Waal_Energy-OPLS-2005>
139.028289794922

> <r_mmod_Electrostatic_Energy-OPLS-2005>
-340.602386474609

> <r_mmod_Solvation_Energy-OPLS-2005>
-215.84553527832

> <b_mmod_Minimization_Converged-OPLS-2005>
0

> <r_mmod_RMS_Derivative-OPLS-2005>
2.39584493637085

$$$$
56
                    3D
 Structure written by MMmdl.
157165  0  0  1  0            999 V2000
  -30.6888  -14.5703   20.5306 C   0  0  0  0  0  0
  -30.4206  -12.3607   19.4360 C   0  0  0  0  0  0
  -29.4915  -12.4768   18.2121 C   0  0  0  0  0  0
  -28.0174  -12.3298   18.6329 C   0  0  0  0  0  0
  -27.6480  -13.2161   19.8533 C   0  0  2  0  0  0
  -28.6915  -13.0845   20.9828 C   0  0  0  0  0  0
  -25.2562  -13.8189   20.5677 C   0  0  0  0  0  0
  -24.1816  -13.0455   20.9207 C   0  0  0  0  0  0
  -24.6377  -11.6929   20.8763 C   0  0  0  0  0  0
  -23.9061  -10.4308   21.0422 C   0  0  0  0  0  0
  -24.3607   -9.4232   21.9200 C   0  0  0  0  0  0
  -23.6288   -8.2259   22.0766 C   0  0  0  0  0  0
  -22.4273   -8.0299   21.3544 C   0  0  0  0  0  0
  -21.9908   -9.0273   20.4639 C   0  0  0  0  0  0
  -22.7229  -10.2159   20.3064 C   0  0  0  0  0  0
  -21.6854   -6.0744   22.5288 C   0  0  0  0  0  0
  -21.4001   -6.5643   23.8216 C   0  0  0  0  0  0
  -21.3654   -5.6797   24.9177 C   0  0  0  0  0  0
  -21.6040   -4.3061   24.7218 C   0  0  0  0  0  0
  -21.8824   -3.8155   23.4337 C   0  0  0  0  0  0
  -21.9187   -4.6977   22.3394 C   0  0  0  0  0  0
  -22.7833  -13.5263   21.1854 C   0  0  0  0  0  0
  -22.1664   -4.2163   21.0979 F   0  0  0  0  0  0
  -21.5628   -3.4547   25.7725 F   0  0  0  0  0  0
  -30.0087  -13.3932   20.4059 N   0  0  0  0  0  0
  -26.2965  -12.9359   20.3263 N   0  0  0  0  0  0
  -25.9305  -11.6519   20.5749 N   0  0  0  0  0  0
  -22.0463  -12.8248   22.0403 N   0  0  0  0  0  0
  -25.4276  -15.1897   20.4067 N   0  0  0  0  0  0
  -31.8605  -14.6747   20.1567 O   0  0  0  0  0  0
  -21.6634   -6.8886   21.4238 O   0  0  0  0  0  0
  -22.3540  -14.5564   20.6712 O   0  0  0  0  0  0
  -24.6218  -31.8640   23.2086 C   0  0  0  0  0  0
  -25.9099  -32.4808   23.8411 C   0  0  1  0  0  0
  -27.2265  -27.3573   20.0886 C   0  0  0  0  0  0
  -25.5886  -33.8608   24.2325 N   0  0  0  0  0  0
  -23.4151  -30.4899   21.5468 C   0  0  2  0  0  0
  -24.8590  -28.9441   20.1150 C   0  0  0  0  0  0
  -22.7467  -29.4644   22.4919 C   0  0  0  0  0  0
  -18.0293  -28.1364   22.8458 C   0  0  0  0  0  0
  -24.1497  -36.7318   23.2634 C   0  0  0  0  0  0
  -25.9528  -30.8026   21.3753 C   0  0  0  0  0  0
  -26.0247  -29.4327   20.7161 C   0  0  0  0  0  0
  -27.2072  -28.6439   20.7025 C   0  0  0  0  0  0
  -26.0278  -26.8966   19.4984 C   0  0  0  0  0  0
  -24.8568  -27.6796   19.5066 C   0  0  0  0  0  0
  -23.6313  -29.8270   20.1606 C   0  0  0  0  0  0
  -25.4123  -36.3105   24.0326 C   0  0  1  0  0  0
  -20.5897  -28.3679   23.1277 C   0  0  2  0  0  0
  -20.6797  -26.9392   22.5385 C   0  0  0  0  0  0
  -19.5764  -26.6358   21.5175 C   0  0  0  0  0  0
  -18.1937  -26.7896   22.1607 C   0  0  0  0  0  0
  -19.1539  -28.8823   23.2884 C   0  0  0  0  0  0
  -18.9467  -30.1410   23.8911 C   0  0  0  0  0  0
  -17.6477  -30.6572   24.0520 C   0  0  0  0  0  0
  -25.9047  -34.9465   23.5145 C   0  0  0  0  0  0
  -16.5369  -29.9070   23.6286 C   0  0  0  0  0  0
  -16.7285  -28.6478   23.0314 C   0  0  0  0  0  0
  -26.4491  -31.6610   25.0755 C   0  0  0  0  0  0
  -25.3722  -31.3688   26.1472 C   0  0  0  0  0  0
  -27.0329  -30.3030   24.6183 C   0  0  0  0  0  0
  -27.6067  -32.4318   25.7523 C   0  0  0  0  0  0
  -27.5618  -37.1834   24.8463 C   0  0  0  0  0  0
  -21.4174  -29.3064   22.3699 N   0  0  0  0  0  0
  -26.4335  -37.3780   23.9392 N   0  0  0  0  0  0
  -24.6810  -31.0689   22.1003 N   0  0  0  0  0  0
  -23.4240  -28.8155   23.2942 O   0  0  0  0  0  0
  -28.3832  -26.5811   20.1195 O   0  0  0  0  0  0
  -26.5610  -34.8904   22.4712 O   0  0  0  0  0  0
  -23.5384  -32.1414   23.7428 O   0  0  0  0  0  0
  -30.0398  -18.2331   20.7252 C   0  0  0  0  0  0
  -31.5891  -17.0081   22.1587 C   0  0  0  0  0  0
  -31.7584  -19.4464   21.9922 C   0  0  0  0  0  0
  -30.5257  -16.9770   21.2307 C   0  0  0  0  0  0
  -30.6644  -19.4775   21.0803 C   0  0  0  0  0  0
  -32.1925  -18.2177   22.5375 C   0  0  0  0  0  0
  -29.2693  -21.5510   20.5869 C   0  0  0  0  0  0
  -32.5107  -20.7168   22.3844 C   0  0  0  0  0  0
  -29.4670  -23.0787   20.2908 C   0  0  0  0  0  0
  -28.2119  -23.9571   19.9128 C   0  0  0  0  0  0
  -28.5135  -25.3787   19.2999 C   0  0  0  0  0  0
  -30.3661  -20.7567   20.4674 N   0  0  0  0  0  0
  -29.9776  -15.6834   20.8678 N   0  0  0  0  0  0
  -28.1569  -21.1151   20.8980 O   0  0  0  0  0  0
  -33.2206  -18.1876   23.4222 F   0  0  0  0  0  0
  -31.4618  -12.4674   19.1277 H   0  0  0  0  0  0
  -30.3440  -11.3711   19.8883 H   0  0  0  0  0  0
  -29.7430  -11.7115   17.4776 H   0  0  0  0  0  0
  -29.6445  -13.4367   17.7165 H   0  0  0  0  0  0
  -27.8518  -11.2799   18.8749 H   0  0  0  0  0  0
  -27.3588  -12.5499   17.7911 H   0  0  0  0  0  0
  -27.6647  -14.2452   19.4994 H   0  0  0  0  0  0
  -28.6907  -12.0733   21.3932 H   0  0  0  0  0  0
  -28.4474  -13.7478   21.8150 H   0  0  0  0  0  0
  -25.2745   -9.5708   22.4791 H   0  0  0  0  0  0
  -23.9992   -7.4647   22.7505 H   0  0  0  0  0  0
  -21.0840   -8.8787   19.8942 H   0  0  0  0  0  0
  -22.3684  -10.9702   19.6187 H   0  0  0  0  0  0
  -21.1995   -7.6160   23.9715 H   0  0  0  0  0  0
  -21.1466   -6.0531   25.9076 H   0  0  0  0  0  0
  -22.0603   -2.7625   23.2834 H   0  0  0  0  0  0
  -22.4045  -11.9894   22.4768 H   0  0  0  0  0  0
  -21.1100  -13.1307   22.2604 H   0  0  0  0  0  0
  -24.6646  -15.8482   20.5211 H   0  0  0  0  0  0
  -26.2704  -15.6238   20.0509 H   0  0  0  0  0  0
  -26.7179  -32.5480   23.1155 H   0  0  0  0  0  0
  -24.9969  -33.9743   25.0436 H   0  0  0  0  0  0
  -22.7067  -31.3092   21.4089 H   0  0  0  0  0  0
  -23.3753  -35.9665   23.3282 H   0  0  0  0  0  0
  -24.3547  -36.8925   22.2042 H   0  0  0  0  0  0
  -23.7266  -37.6526   23.6666 H   0  0  0  0  0  0
  -26.0823  -31.5705   20.6151 H   0  0  0  0  0  0
  -26.8349  -30.8484   22.0018 H   0  0  0  0  0  0
  -28.1081  -29.0114   21.1724 H   0  0  0  0  0  0
  -25.9581  -25.9162   19.0492 H   0  0  0  0  0  0
  -23.9519  -27.2932   19.0565 H   0  0  0  0  0  0
  -23.7645  -30.6086   19.4104 H   0  0  0  0  0  0
  -22.7520  -29.2608   19.8495 H   0  0  0  0  0  0
  -25.1313  -36.1974   25.0811 H   0  0  0  0  0  0
  -20.9977  -28.3233   24.1395 H   0  0  0  0  0  0
  -20.5632  -26.2270   23.3588 H   0  0  0  0  0  0
  -21.6690  -26.7410   22.1214 H   0  0  0  0  0  0
  -19.6916  -25.6263   21.1208 H   0  0  0  0  0  0
  -19.6703  -27.3179   20.6699 H   0  0  0  0  0  0
  -17.4208  -26.6578   21.4010 H   0  0  0  0  0  0
  -18.0385  -26.0051   22.9013 H   0  0  0  0  0  0
  -19.7954  -30.7185   24.2329 H   0  0  0  0  0  0
  -17.5044  -31.6246   24.5145 H   0  0  0  0  0  0
  -15.5356  -30.2979   23.7617 H   0  0  0  0  0  0
  -15.8664  -28.0805   22.7025 H   0  0  0  0  0  0
  -24.5942  -30.6979   25.7777 H   0  0  0  0  0  0
  -24.8838  -32.2802   26.4934 H   0  0  0  0  0  0
  -25.8042  -30.8852   27.0236 H   0  0  0  0  0  0
  -26.2894  -29.6783   24.1209 H   0  0  0  0  0  0
  -27.4016  -29.7286   25.4700 H   0  0  0  0  0  0
  -27.8772  -30.4309   23.9401 H   0  0  0  0  0  0
  -27.2738  -33.3637   26.2113 H   0  0  0  0  0  0
  -28.3901  -32.6824   25.0354 H   0  0  0  0  0  0
  -28.0729  -31.8404   26.5423 H   0  0  0  0  0  0
  -28.2630  -38.0144   24.7522 H   0  0  0  0  0  0
  -28.1120  -36.2666   24.6307 H   0  0  0  0  0  0
  -27.2294  -37.1472   25.8851 H   0  0  0  0  0  0
  -20.9335  -29.8844   21.6964 H   0  0  0  0  0  0
  -26.0214  -38.2845   24.1366 H   0  0  0  0  0  0
  -29.2235  -18.2424   20.0124 H   0  0  0  0  0  0
  -31.9673  -16.0898   22.5823 H   0  0  0  0  0  0
  -31.8448  -21.5692   22.5141 H   0  0  0  0  0  0
  -33.2482  -20.9659   21.6207 H   0  0  0  0  0  0
  -33.0452  -20.5922   23.3259 H   0  0  0  0  0  0
  -30.1958  -23.1586   19.4824 H   0  0  0  0  0  0
  -29.9478  -23.5316   21.1608 H   0  0  0  0  0  0
  -27.5123  -24.0392   20.7440 H   0  0  0  0  0  0
  -27.6700  -23.3946   19.1496 H   0  0  0  0  0  0
  -27.9461  -25.4898   18.3750 H   0  0  0  0  0  0
  -29.5457  -25.3709   18.9464 H   0  0  0  0  0  0
  -31.1891  -21.2632   20.1606 H   0  0  0  0  0  0
  -28.9741  -15.5777   20.9171 H   0  0  0  0  0  0
  1 25  1  0  0  0
  1 30  2  0  0  0
  1 83  1  0  0  0
  2  3  1  0  0  0
  2 25  1  0  0  0
  2 86  1  0  0  0
  2 87  1  0  0  0
  3  4  1  0  0  0
  3 88  1  0  0  0
  3 89  1  0  0  0
  4  5  1  0  0  0
  4 90  1  0  0  0
  4 91  1  0  0  0
  5  6  1  0  0  0
  5 26  1  0  0  0
  5 92  1  0  0  0
  6 25  1  0  0  0
  6 93  1  0  0  0
  6 94  1  0  0  0
  7  8  2  0  0  0
  7 26  1  0  0  0
  7 29  1  0  0  0
  8  9  1  0  0  0
  8 22  1  0  0  0
  9 10  1  0  0  0
  9 27  2  0  0  0
 10 11  2  0  0  0
 10 15  1  0  0  0
 11 12  1  0  0  0
 11 95  1  0  0  0
 12 13  2  0  0  0
 12 96  1  0  0  0
 13 14  1  0  0  0
 13 31  1  0  0  0
 14 15  2  0  0  0
 14 97  1  0  0  0
 15 98  1  0  0  0
 16 17  2  0  0  0
 16 21  1  0  0  0
 16 31  1  0  0  0
 17 18  1  0  0  0
 17 99  1  0  0  0
 18 19  2  0  0  0
 18100  1  0  0  0
 19 20  1  0  0  0
 19 24  1  0  0  0
 20 21  2  0  0  0
 20101  1  0  0  0
 21 23  1  0  0  0
 22 28  1  0  0  0
 22 32  2  0  0  0
 26 27  1  0  0  0
 28102  1  0  0  0
 28103  1  0  0  0
 29104  1  0  0  0
 29105  1  0  0  0
 33 34  1  0  0  0
 33 66  1  0  0  0
 33 70  2  0  0  0
 34 36  1  0  0  0
 34 59  1  0  0  0
 34106  1  0  0  0
 35 44  2  0  0  0
 35 45  1  0  0  0
 35 68  1  0  0  0
 36 56  1  0  0  0
 36107  1  0  0  0
 37 39  1  0  0  0
 37 47  1  0  0  0
 37 66  1  0  0  0
 37108  1  0  0  0
 38 43  2  0  0  0
 38 46  1  0  0  0
 38 47  1  0  0  0
 39 64  1  0  0  0
 39 67  2  0  0  0
 40 52  1  0  0  0
 40 53  2  0  0  0
 40 58  1  0  0  0
 41109  1  0  0  0
 41110  1  0  0  0
 41111  1  0  0  0
 41 48  1  0  0  0
 42 43  1  0  0  0
 42 66  1  0  0  0
 42112  1  0  0  0
 42113  1  0  0  0
 43 44  1  0  0  0
 44114  1  0  0  0
 45 46  2  0  0  0
 45115  1  0  0  0
 46116  1  0  0  0
 47117  1  0  0  0
 47118  1  0  0  0
 48 56  1  0  0  0
 48 65  1  0  0  0
 48119  1  0  0  0
 49 50  1  0  0  0
 49 53  1  0  0  0
 49 64  1  0  0  0
 49120  1  0  0  0
 50 51  1  0  0  0
 50121  1  0  0  0
 50122  1  0  0  0
 51 52  1  0  0  0
 51123  1  0  0  0
 51124  1  0  0  0
 52125  1  0  0  0
 52126  1  0  0  0
 53 54  1  0  0  0
 54 55  2  0  0  0
 54127  1  0  0  0
 55 57  1  0  0  0
 55128  1  0  0  0
 56 69  2  0  0  0
 57 58  2  0  0  0
 57129  1  0  0  0
 58130  1  0  0  0
 59 60  1  0  0  0
 59 61  1  0  0  0
 59 62  1  0  0  0
 60131  1  0  0  0
 60132  1  0  0  0
 60133  1  0  0  0
 61134  1  0  0  0
 61135  1  0  0  0
 61136  1  0  0  0
 62137  1  0  0  0
 62138  1  0  0  0
 62139  1  0  0  0
 63 65  1  0  0  0
 63140  1  0  0  0
 63141  1  0  0  0
 63142  1  0  0  0
 64143  1  0  0  0
 65144  1  0  0  0
 68 81  1  0  0  0
 71 74  2  0  0  0
 71 75  1  0  0  0
 71145  1  0  0  0
 72 74  1  0  0  0
 72 76  2  0  0  0
 72146  1  0  0  0
 73 75  2  0  0  0
 73 76  1  0  0  0
 73 78  1  0  0  0
 74 83  1  0  0  0
 75 82  1  0  0  0
 76 85  1  0  0  0
 77 79  1  0  0  0
 77 82  1  0  0  0
 77 84  2  0  0  0
 78147  1  0  0  0
 78148  1  0  0  0
 78149  1  0  0  0
 79 80  1  0  0  0
 79150  1  0  0  0
 79151  1  0  0  0
 80 81  1  0  0  0
 80152  1  0  0  0
 80153  1  0  0  0
 81154  1  0  0  0
 81155  1  0  0  0
 82156  1  0  0  0
 83157  1  0  0  0
M  ISO  4   1 100  68 101  81 101  83 100
M  END
> <chiral flag>
0

> <version>
0

> <s_m_source_file>
/data/baiqing/PycharmProjects/Reinvent-master-3.2/result/LINK_invent/BTK/process_docking_weight1_custom_product_contain_oxygen_bond_distance_aromatic_linkinvent_7_9_3/rearranged_h_0060.sdf

> <i_m_source_file_index>
57

> <r_mmod_Potential_Energy-OPLS-2005>
9.05043506622314

> <r_mmod_Stretch_Energy-OPLS-2005>
62.8039703369141

> <r_mmod_Bend_Energy-OPLS-2005>
131.006454467773

> <r_mmod_Torsional_Energy-OPLS-2005>
262.756042480469

> <r_mmod_Improper_Torsional_Energy-OPLS-2005>
6.60676527023315

> <r_mmod_Van_der_Waal_Energy-OPLS-2005>
148.134582519531

> <r_mmod_Electrostatic_Energy-OPLS-2005>
-403.952056884766

> <r_mmod_Solvation_Energy-OPLS-2005>
-230.674926757812

> <b_mmod_Minimization_Converged-OPLS-2005>
0

> <r_mmod_RMS_Derivative-OPLS-2005>
4.88745355606079

$$$$
57
                    3D
 Structure written by MMmdl.
153161  0  0  1  0            999 V2000
  -30.6501  -14.5055   20.5864 C   0  0  0  0  0  0
  -30.4398  -12.3338   19.4145 C   0  0  0  0  0  0
  -29.4981  -12.5115   18.2036 C   0  0  0  0  0  0
  -28.0202  -12.3555   18.6190 C   0  0  0  0  0  0
  -27.6626  -13.1944   19.8742 C   0  0  2  0  0  0
  -28.7040  -12.9584   20.9915 C   0  0  0  0  0  0
  -25.2605  -13.8136   20.5646 C   0  0  0  0  0  0
  -24.1854  -13.0439   20.9179 C   0  0  0  0  0  0
  -24.6384  -11.6899   20.8735 C   0  0  0  0  0  0
  -23.9053  -10.4293   21.0417 C   0  0  0  0  0  0
  -24.3609   -9.4212   21.9197 C   0  0  0  0  0  0
  -23.6286   -8.2245   22.0768 C   0  0  0  0  0  0
  -22.4268   -8.0279   21.3553 C   0  0  0  0  0  0
  -21.9905   -9.0250   20.4651 C   0  0  0  0  0  0
  -22.7229  -10.2133   20.3063 C   0  0  0  0  0  0
  -21.6851   -6.0728   22.5272 C   0  0  0  0  0  0
  -21.4008   -6.5629   23.8202 C   0  0  0  0  0  0
  -21.3660   -5.6785   24.9169 C   0  0  0  0  0  0
  -21.6043   -4.3050   24.7221 C   0  0  0  0  0  0
  -21.8821   -3.8144   23.4340 C   0  0  0  0  0  0
  -21.9196   -4.6959   22.3391 C   0  0  0  0  0  0
  -22.7880  -13.5245   21.1833 C   0  0  0  0  0  0
  -22.1681   -4.2146   21.0970 F   0  0  0  0  0  0
  -21.5632   -3.4541   25.7739 F   0  0  0  0  0  0
  -30.0313  -13.2997   20.4455 N   0  0  0  0  0  0
  -26.3022  -12.9275   20.3340 N   0  0  0  0  0  0
  -25.9301  -11.6448   20.5751 N   0  0  0  0  0  0
  -22.0509  -12.8233   22.0372 N   0  0  0  0  0  0
  -25.4337  -15.1852   20.3997 N   0  0  0  0  0  0
  -31.7813  -14.7329   20.1428 O   0  0  0  0  0  0
  -21.6640   -6.8873   21.4234 O   0  0  0  0  0  0
  -22.3580  -14.5550   20.6668 O   0  0  0  0  0  0
  -24.6148  -31.8687   23.2094 C   0  0  0  0  0  0
  -25.9037  -32.4831   23.8392 C   0  0  1  0  0  0
  -27.2373  -27.4292   20.1074 C   0  0  0  0  0  0
  -25.5888  -33.8629   24.2326 N   0  0  0  0  0  0
  -23.4040  -30.4902   21.5503 C   0  0  2  0  0  0
  -24.8528  -28.9478   20.1253 C   0  0  0  0  0  0
  -22.7404  -29.4669   22.4995 C   0  0  0  0  0  0
  -18.0270  -28.1389   22.8492 C   0  0  0  0  0  0
  -24.1474  -36.7302   23.2633 C   0  0  0  0  0  0
  -25.9324  -30.8323   21.3630 C   0  0  0  0  0  0
  -26.0129  -29.4612   20.7209 C   0  0  0  0  0  0
  -27.2125  -28.7091   20.7096 C   0  0  0  0  0  0
  -26.0628  -26.9267   19.5148 C   0  0  0  0  0  0
  -24.8713  -27.6774   19.5219 C   0  0  0  0  0  0
  -23.6152  -29.8172   20.1678 C   0  0  0  0  0  0
  -25.4102  -36.3111   24.0330 C   0  0  1  0  0  0
  -20.5858  -28.3683   23.1319 C   0  0  2  0  0  0
  -20.6757  -26.9422   22.5413 C   0  0  0  0  0  0
  -19.5737  -26.6409   21.5201 C   0  0  0  0  0  0
  -18.1914  -26.7939   22.1617 C   0  0  0  0  0  0
  -19.1519  -28.8851   23.2899 C   0  0  0  0  0  0
  -18.9453  -30.1450   23.8920 C   0  0  0  0  0  0
  -17.6460  -30.6594   24.0577 C   0  0  0  0  0  0
  -25.9038  -34.9481   23.5128 C   0  0  0  0  0  0
  -16.5348  -29.9101   23.6327 C   0  0  0  0  0  0
  -16.7262  -28.6510   23.0360 C   0  0  0  0  0  0
  -26.4463  -31.6609   25.0722 C   0  0  0  0  0  0
  -25.3728  -31.3685   26.1462 C   0  0  0  0  0  0
  -27.0324  -30.3065   24.6098 C   0  0  0  0  0  0
  -27.6033  -32.4331   25.7492 C   0  0  0  0  0  0
  -27.5586  -37.1803   24.8452 C   0  0  0  0  0  0
  -21.4133  -29.3048   22.3722 N   0  0  0  0  0  0
  -26.4280  -37.3806   23.9418 N   0  0  0  0  0  0
  -24.6685  -31.0788   22.0995 N   0  0  0  0  0  0
  -23.4160  -28.8216   23.3053 O   0  0  0  0  0  0
  -28.3897  -26.6829   20.0126 O   0  0  0  0  0  0
  -26.5613  -34.8931   22.4693 O   0  0  0  0  0  0
  -23.5338  -32.1449   23.7470 O   0  0  0  0  0  0
  -28.8307  -19.0496   21.4871 C   0  0  0  0  0  0
  -31.2550  -18.9528   21.5871 C   0  0  0  0  0  0
  -28.7961  -17.6503   21.2775 C   0  0  0  0  0  0
  -31.2202  -17.5551   21.3527 C   0  0  0  0  0  0
  -30.0622  -19.7143   21.6743 C   0  0  0  0  0  0
  -29.9833  -16.8803   21.2183 C   0  0  0  0  0  0
  -28.9814  -24.4521   20.6906 C   0  0  0  0  0  0
  -28.6353  -25.7319   20.9759 C   0  0  0  0  0  0
  -30.1036  -21.1378   22.0848 C   0  0  0  0  0  0
  -29.3658  -23.5292   21.7588 C   0  0  0  0  0  0
  -29.8482  -15.4585   21.1115 N   0  0  0  0  0  0
  -29.5025  -22.1342   21.3759 N   0  0  0  0  0  0
  -30.7739  -21.3914   23.2157 N   0  3  0  0  0  0
  -29.6168  -23.8830   22.9191 O   0  0  0  0  0  0
  -31.4782  -12.4684   19.1070 H   0  0  0  0  0  0
  -30.3733  -11.3183   19.8059 H   0  0  0  0  0  0
  -29.7472  -11.7886   17.4256 H   0  0  0  0  0  0
  -29.6482  -13.4984   17.7631 H   0  0  0  0  0  0
  -27.8424  -11.2980   18.8205 H   0  0  0  0  0  0
  -27.3646  -12.6210   17.7893 H   0  0  0  0  0  0
  -27.7092  -14.2427   19.5784 H   0  0  0  0  0  0
  -28.6936  -11.9125   21.3014 H   0  0  0  0  0  0
  -28.4547  -13.5224   21.8915 H   0  0  0  0  0  0
  -25.2763   -9.5688   22.4759 H   0  0  0  0  0  0
  -24.0001   -7.4638   22.7490 H   0  0  0  0  0  0
  -21.0845   -8.8754   19.8950 H   0  0  0  0  0  0
  -22.3692  -10.9666   19.6160 H   0  0  0  0  0  0
  -21.1996   -7.6137   23.9695 H   0  0  0  0  0  0
  -21.1487   -6.0528   25.9072 H   0  0  0  0  0  0
  -22.0599   -2.7605   23.2838 H   0  0  0  0  0  0
  -22.4110  -11.9872   22.4733 H   0  0  0  0  0  0
  -21.1122  -13.1250   22.2570 H   0  0  0  0  0  0
  -24.6510  -15.8270   20.4667 H   0  0  0  0  0  0
  -26.2513  -15.6033   19.9759 H   0  0  0  0  0  0
  -26.7108  -32.5552   23.1166 H   0  0  0  0  0  0
  -25.0016  -33.9788   25.0457 H   0  0  0  0  0  0
  -22.6919  -31.3055   21.4062 H   0  0  0  0  0  0
  -23.3757  -35.9608   23.3263 H   0  0  0  0  0  0
  -24.3570  -36.8970   22.2055 H   0  0  0  0  0  0
  -23.7202  -37.6478   23.6690 H   0  0  0  0  0  0
  -26.0398  -31.5914   20.5869 H   0  0  0  0  0  0
  -26.8220  -30.8947   21.9774 H   0  0  0  0  0  0
  -28.1153  -29.1075   21.1505 H   0  0  0  0  0  0
  -26.0797  -25.9553   19.0413 H   0  0  0  0  0  0
  -23.9796  -27.2745   19.0615 H   0  0  0  0  0  0
  -23.7240  -30.5846   19.4006 H   0  0  0  0  0  0
  -22.7395  -29.2352   19.8772 H   0  0  0  0  0  0
  -25.1262  -36.1974   25.0823 H   0  0  0  0  0  0
  -20.9966  -28.3272   24.1437 H   0  0  0  0  0  0
  -20.5674  -26.2286   23.3593 H   0  0  0  0  0  0
  -21.6634  -26.7479   22.1224 H   0  0  0  0  0  0
  -19.6897  -25.6331   21.1213 H   0  0  0  0  0  0
  -19.6664  -27.3223   20.6729 H   0  0  0  0  0  0
  -17.4191  -26.6705   21.4009 H   0  0  0  0  0  0
  -18.0291  -26.0076   22.9002 H   0  0  0  0  0  0
  -19.7934  -30.7241   24.2316 H   0  0  0  0  0  0
  -17.5025  -31.6275   24.5186 H   0  0  0  0  0  0
  -15.5351  -30.3019   23.7634 H   0  0  0  0  0  0
  -15.8659  -28.0825   22.7093 H   0  0  0  0  0  0
  -24.5907  -30.7035   25.7785 H   0  0  0  0  0  0
  -24.8897  -32.2819   26.4932 H   0  0  0  0  0  0
  -25.8078  -30.8834   27.0207 H   0  0  0  0  0  0
  -26.2879  -29.6800   24.1169 H   0  0  0  0  0  0
  -27.4143  -29.7324   25.4550 H   0  0  0  0  0  0
  -27.8679  -30.4415   23.9222 H   0  0  0  0  0  0
  -27.2674  -33.3667   26.2021 H   0  0  0  0  0  0
  -28.3868  -32.6837   25.0331 H   0  0  0  0  0  0
  -28.0660  -31.8478   26.5453 H   0  0  0  0  0  0
  -28.2562  -38.0142   24.7602 H   0  0  0  0  0  0
  -28.1134  -36.2687   24.6167 H   0  0  0  0  0  0
  -27.2302  -37.1335   25.8849 H   0  0  0  0  0  0
  -20.9295  -29.8757   21.6932 H   0  0  0  0  0  0
  -26.0161  -38.2867   24.1485 H   0  0  0  0  0  0
  -27.9000  -19.5956   21.5709 H   0  0  0  0  0  0
  -32.2118  -19.4348   21.7372 H   0  0  0  0  0  0
  -27.8323  -17.1677   21.1922 H   0  0  0  0  0  0
  -32.1504  -17.0067   21.3266 H   0  0  0  0  0  0
  -29.0084  -24.1254   19.6614 H   0  0  0  0  0  0
  -28.5581  -26.1351   21.9788 H   0  0  0  0  0  0
  -28.9349  -15.1039   21.3480 H   0  0  0  0  0  0
  -29.2090  -21.8130   20.4671 H   0  0  0  0  0  0
  -31.1595  -20.6356   23.7604 H   0  0  0  0  0  0
  -30.7497  -22.3287   23.5982 H   0  0  0  0  0  0
  1 25  1  0  0  0
  1 30  2  0  0  0
  1 81  1  0  0  0
  2  3  1  0  0  0
  2 25  1  0  0  0
  2 85  1  0  0  0
  2 86  1  0  0  0
  3  4  1  0  0  0
  3 87  1  0  0  0
  3 88  1  0  0  0
  4  5  1  0  0  0
  4 89  1  0  0  0
  4 90  1  0  0  0
  5  6  1  0  0  0
  5 26  1  0  0  0
  5 91  1  0  0  0
  6 25  1  0  0  0
  6 92  1  0  0  0
  6 93  1  0  0  0
  7  8  2  0  0  0
  7 26  1  0  0  0
  7 29  1  0  0  0
  8  9  1  0  0  0
  8 22  1  0  0  0
  9 10  1  0  0  0
  9 27  2  0  0  0
 10 11  2  0  0  0
 10 15  1  0  0  0
 11 12  1  0  0  0
 11 94  1  0  0  0
 12 13  2  0  0  0
 12 95  1  0  0  0
 13 14  1  0  0  0
 13 31  1  0  0  0
 14 15  2  0  0  0
 14 96  1  0  0  0
 15 97  1  0  0  0
 16 17  2  0  0  0
 16 21  1  0  0  0
 16 31  1  0  0  0
 17 18  1  0  0  0
 17 98  1  0  0  0
 18 19  2  0  0  0
 18 99  1  0  0  0
 19 20  1  0  0  0
 19 24  1  0  0  0
 20 21  2  0  0  0
 20100  1  0  0  0
 21 23  1  0  0  0
 22 28  1  0  0  0
 22 32  2  0  0  0
 26 27  1  0  0  0
 28101  1  0  0  0
 28102  1  0  0  0
 29103  1  0  0  0
 29104  1  0  0  0
 33 34  1  0  0  0
 33 66  1  0  0  0
 33 70  2  0  0  0
 34 36  1  0  0  0
 34 59  1  0  0  0
 34105  1  0  0  0
 35 44  2  0  0  0
 35 45  1  0  0  0
 35 68  1  0  0  0
 36 56  1  0  0  0
 36106  1  0  0  0
 37 39  1  0  0  0
 37 47  1  0  0  0
 37 66  1  0  0  0
 37107  1  0  0  0
 38 43  2  0  0  0
 38 46  1  0  0  0
 38 47  1  0  0  0
 39 64  1  0  0  0
 39 67  2  0  0  0
 40 52  1  0  0  0
 40 53  2  0  0  0
 40 58  1  0  0  0
 41108  1  0  0  0
 41109  1  0  0  0
 41110  1  0  0  0
 41 48  1  0  0  0
 42 43  1  0  0  0
 42 66  1  0  0  0
 42111  1  0  0  0
 42112  1  0  0  0
 43 44  1  0  0  0
 44113  1  0  0  0
 45 46  2  0  0  0
 45114  1  0  0  0
 46115  1  0  0  0
 47116  1  0  0  0
 47117  1  0  0  0
 48 56  1  0  0  0
 48 65  1  0  0  0
 48118  1  0  0  0
 49 50  1  0  0  0
 49 53  1  0  0  0
 49 64  1  0  0  0
 49119  1  0  0  0
 50 51  1  0  0  0
 50120  1  0  0  0
 50121  1  0  0  0
 51 52  1  0  0  0
 51122  1  0  0  0
 51123  1  0  0  0
 52124  1  0  0  0
 52125  1  0  0  0
 53 54  1  0  0  0
 54 55  2  0  0  0
 54126  1  0  0  0
 55 57  1  0  0  0
 55127  1  0  0  0
 56 69  2  0  0  0
 57 58  2  0  0  0
 57128  1  0  0  0
 58129  1  0  0  0
 59 60  1  0  0  0
 59 61  1  0  0  0
 59 62  1  0  0  0
 60130  1  0  0  0
 60131  1  0  0  0
 60132  1  0  0  0
 61133  1  0  0  0
 61134  1  0  0  0
 61135  1  0  0  0
 62136  1  0  0  0
 62137  1  0  0  0
 62138  1  0  0  0
 63 65  1  0  0  0
 63139  1  0  0  0
 63140  1  0  0  0
 63141  1  0  0  0
 64142  1  0  0  0
 65143  1  0  0  0
 68 78  1  0  0  0
 71 73  2  0  0  0
 71 75  1  0  0  0
 71144  1  0  0  0
 72 74  1  0  0  0
 72 75  2  0  0  0
 72145  1  0  0  0
 73 76  1  0  0  0
 73146  1  0  0  0
 74 76  2  0  0  0
 74147  1  0  0  0
 75 79  1  0  0  0
 76 81  1  0  0  0
 77 78  2  0  0  0
 77 80  1  0  0  0
 77148  1  0  0  0
 78149  1  0  0  0
 79 82  1  0  0  0
 79 83  2  0  0  0
 80 82  1  0  0  0
 80 84  2  0  0  0
 81150  1  0  0  0
 82151  1  0  0  0
 83152  1  0  0  0
 83153  1  0  0  0
M  CHG  1  83   1
M  ISO  4   1 100  68 101  78 101  81 100
M  END
> <chiral flag>
0

> <version>
0

> <s_m_source_file>
/data/baiqing/PycharmProjects/Reinvent-master-3.2/result/LINK_invent/BTK/process_docking_weight1_custom_product_contain_oxygen_bond_distance_aromatic_linkinvent_7_9_3/rearranged_h_0060.sdf

> <i_m_source_file_index>
58

> <r_mmod_Potential_Energy-OPLS-2005>
-306.989715576172

> <r_mmod_Stretch_Energy-OPLS-2005>
40.2303695678711

> <r_mmod_Bend_Energy-OPLS-2005>
110.760200500488

> <r_mmod_Torsional_Energy-OPLS-2005>
238.029724121094

> <r_mmod_Improper_Torsional_Energy-OPLS-2005>
6.03558015823364

> <r_mmod_Van_der_Waal_Energy-OPLS-2005>
159.960098266602

> <r_mmod_Electrostatic_Energy-OPLS-2005>
-433.643676757812

> <r_mmod_Solvation_Energy-OPLS-2005>
-442.910858154297

> <b_mmod_Minimization_Converged-OPLS-2005>
0

> <r_mmod_RMS_Derivative-OPLS-2005>
1.81829357147217

$$$$
58
                    3D
 Structure written by MMmdl.
154162  0  0  1  0            999 V2000
  -30.6372  -14.6386   20.5192 C   0  0  0  0  0  0
  -30.4312  -12.3962   19.4451 C   0  0  0  0  0  0
  -29.5000  -12.5160   18.2172 C   0  0  0  0  0  0
  -28.0261  -12.3381   18.6360 C   0  0  0  0  0  0
  -27.6491  -13.2149   19.8609 C   0  0  2  0  0  0
  -28.6985  -13.0832   20.9884 C   0  0  0  0  0  0
  -25.2544  -13.8169   20.5676 C   0  0  0  0  0  0
  -24.1823  -13.0428   20.9183 C   0  0  0  0  0  0
  -24.6402  -11.6908   20.8767 C   0  0  0  0  0  0
  -23.9080  -10.4298   21.0427 C   0  0  0  0  0  0
  -24.3635   -9.4212   21.9197 C   0  0  0  0  0  0
  -23.6307   -8.2251   22.0761 C   0  0  0  0  0  0
  -22.4287   -8.0300   21.3554 C   0  0  0  0  0  0
  -21.9932   -9.0280   20.4653 C   0  0  0  0  0  0
  -22.7261  -10.2152   20.3069 C   0  0  0  0  0  0
  -21.6849   -6.0756   22.5276 C   0  0  0  0  0  0
  -21.4012   -6.5651   23.8214 C   0  0  0  0  0  0
  -21.3668   -5.6795   24.9173 C   0  0  0  0  0  0
  -21.6044   -4.3057   24.7209 C   0  0  0  0  0  0
  -21.8816   -3.8159   23.4328 C   0  0  0  0  0  0
  -21.9191   -4.6986   22.3393 C   0  0  0  0  0  0
  -22.7848  -13.5234   21.1834 C   0  0  0  0  0  0
  -22.1653   -4.2176   21.0970 F   0  0  0  0  0  0
  -21.5640   -3.4536   25.7723 F   0  0  0  0  0  0
  -30.0069  -13.4252   20.4145 N   0  0  0  0  0  0
  -26.2985  -12.9349   20.3336 N   0  0  0  0  0  0
  -25.9328  -11.6507   20.5795 N   0  0  0  0  0  0
  -22.0478  -12.8243   22.0393 N   0  0  0  0  0  0
  -25.4196  -15.1900   20.4055 N   0  0  0  0  0  0
  -31.8173  -14.7744   20.1827 O   0  0  0  0  0  0
  -21.6640   -6.8902   21.4249 O   0  0  0  0  0  0
  -22.3544  -14.5555   20.6688 O   0  0  0  0  0  0
  -24.6279  -31.8583   23.2020 C   0  0  0  0  0  0
  -25.9102  -32.4803   23.8352 C   0  0  1  0  0  0
  -27.2218  -27.3036   20.1482 C   0  0  0  0  0  0
  -25.5898  -33.8594   24.2285 N   0  0  0  0  0  0
  -23.4258  -30.4834   21.5411 C   0  0  2  0  0  0
  -24.8742  -28.9348   20.1131 C   0  0  0  0  0  0
  -22.7516  -29.4624   22.4874 C   0  0  0  0  0  0
  -18.0294  -28.1406   22.8509 C   0  0  0  0  0  0
  -24.1471  -36.7281   23.2646 C   0  0  0  0  0  0
  -25.9659  -30.7891   21.3732 C   0  0  0  0  0  0
  -26.0423  -29.4132   20.7217 C   0  0  0  0  0  0
  -27.2226  -28.6104   20.7266 C   0  0  0  0  0  0
  -26.0415  -26.8864   19.4966 C   0  0  0  0  0  0
  -24.8778  -27.6774   19.4883 C   0  0  0  0  0  0
  -23.6483  -29.8227   20.1543 C   0  0  0  0  0  0
  -25.4081  -36.3097   24.0352 C   0  0  1  0  0  0
  -20.5919  -28.3705   23.1268 C   0  0  2  0  0  0
  -20.6784  -26.9414   22.5410 C   0  0  0  0  0  0
  -19.5748  -26.6377   21.5235 C   0  0  0  0  0  0
  -18.1929  -26.7956   22.1646 C   0  0  0  0  0  0
  -19.1561  -28.8863   23.2898 C   0  0  0  0  0  0
  -18.9493  -30.1467   23.8910 C   0  0  0  0  0  0
  -17.6493  -30.6603   24.0587 C   0  0  0  0  0  0
  -25.9023  -34.9468   23.5121 C   0  0  0  0  0  0
  -16.5376  -29.9116   23.6336 C   0  0  0  0  0  0
  -16.7286  -28.6544   23.0341 C   0  0  0  0  0  0
  -26.4470  -31.6619   25.0722 C   0  0  0  0  0  0
  -25.3701  -31.3787   26.1465 C   0  0  0  0  0  0
  -27.0307  -30.3048   24.6148 C   0  0  0  0  0  0
  -27.6052  -32.4317   25.7492 C   0  0  0  0  0  0
  -27.5559  -37.1792   24.8473 C   0  0  0  0  0  0
  -21.4210  -29.3089   22.3668 N   0  0  0  0  0  0
  -26.4264  -37.3780   23.9433 N   0  0  0  0  0  0
  -24.6928  -31.0597   22.0982 N   0  0  0  0  0  0
  -23.4248  -28.8128   23.2927 O   0  0  0  0  0  0
  -28.3155  -26.4275   20.1979 O   0  0  0  0  0  0
  -26.5592  -34.8948   22.4694 O   0  0  0  0  0  0
  -23.5431  -32.1346   23.7339 O   0  0  0  0  0  0
  -31.4830  -18.7634   22.2980 C   0  0  0  0  0  0
  -31.1838  -17.4280   21.9563 C   0  0  0  0  0  0
  -29.4603  -18.2417   20.4523 C   0  0  0  0  0  0
  -30.8049  -19.8584   21.7065 C   0  0  0  0  0  0
  -30.1722  -17.1246   21.0217 C   0  0  0  0  0  0
  -29.7739  -19.6182   20.7571 C   0  0  0  0  0  0
  -28.9398  -23.8778   20.1385 C   0  0  0  0  0  0
  -31.2511  -21.2599   22.0882 C   0  0  0  0  0  0
  -28.0577  -25.0542   20.7279 C   0  0  0  0  0  0
  -29.8316  -15.7262   20.7568 N   0  0  0  0  0  0
  -28.7975  -22.5489   20.6755 N   0  0  0  0  0  0
  -29.7167  -24.1069   19.2063 O   0  0  0  0  0  0
  -27.5185  -20.5623   19.5960 O   0  0  0  0  0  0
  -29.7385  -21.2300   18.6027 O   0  0  0  0  0  0
  -28.9114  -20.9938   19.8001 S   0  0  0  0  0  0
  -31.4748  -12.5111   19.1477 H   0  0  0  0  0  0
  -30.3533  -11.4016   19.8880 H   0  0  0  0  0  0
  -29.7656  -11.7779   17.4598 H   0  0  0  0  0  0
  -29.6308  -13.4930   17.7494 H   0  0  0  0  0  0
  -27.8760  -11.2832   18.8736 H   0  0  0  0  0  0
  -27.3615  -12.5534   17.7979 H   0  0  0  0  0  0
  -27.6612  -14.2457   19.5102 H   0  0  0  0  0  0
  -28.7178  -12.0642   21.3799 H   0  0  0  0  0  0
  -28.4521  -13.7256   21.8355 H   0  0  0  0  0  0
  -25.2783   -9.5679   22.4773 H   0  0  0  0  0  0
  -24.0007   -7.4640   22.7482 H   0  0  0  0  0  0
  -21.0859   -8.8820   19.8957 H   0  0  0  0  0  0
  -22.3735  -10.9710   19.6187 H   0  0  0  0  0  0
  -21.1994   -7.6153   23.9731 H   0  0  0  0  0  0
  -21.1497   -6.0517   25.9083 H   0  0  0  0  0  0
  -22.0587   -2.7621   23.2811 H   0  0  0  0  0  0
  -22.4081  -11.9881   22.4749 H   0  0  0  0  0  0
  -21.1124  -13.1323   22.2642 H   0  0  0  0  0  0
  -24.6385  -15.8302   20.4992 H   0  0  0  0  0  0
  -26.2561  -15.6421   20.0581 H   0  0  0  0  0  0
  -26.7195  -32.5464   23.1131 H   0  0  0  0  0  0
  -25.0095  -33.9746   25.0465 H   0  0  0  0  0  0
  -22.7218  -31.3044   21.3947 H   0  0  0  0  0  0
  -23.3758  -35.9597   23.3296 H   0  0  0  0  0  0
  -24.3576  -36.8876   22.2068 H   0  0  0  0  0  0
  -23.7192  -37.6466   23.6654 H   0  0  0  0  0  0
  -26.0875  -31.5475   20.5969 H   0  0  0  0  0  0
  -26.8533  -30.8499   21.9925 H   0  0  0  0  0  0
  -28.1162  -28.9712   21.2199 H   0  0  0  0  0  0
  -26.0099  -25.9279   18.9991 H   0  0  0  0  0  0
  -23.9872  -27.3046   19.0027 H   0  0  0  0  0  0
  -23.7879  -30.6017   19.4040 H   0  0  0  0  0  0
  -22.7681  -29.2641   19.8359 H   0  0  0  0  0  0
  -25.1260  -36.1956   25.0841 H   0  0  0  0  0  0
  -21.0024  -28.3270   24.1385 H   0  0  0  0  0  0
  -20.5670  -26.2313   23.3610 H   0  0  0  0  0  0
  -21.6644  -26.7411   22.1198 H   0  0  0  0  0  0
  -19.6884  -25.6282   21.1252 H   0  0  0  0  0  0
  -19.6677  -27.3205   20.6786 H   0  0  0  0  0  0
  -17.4188  -26.6722   21.4051 H   0  0  0  0  0  0
  -18.0305  -26.0095   22.9044 H   0  0  0  0  0  0
  -19.7970  -30.7286   24.2253 H   0  0  0  0  0  0
  -17.5063  -31.6282   24.5201 H   0  0  0  0  0  0
  -15.5398  -30.3044   23.7636 H   0  0  0  0  0  0
  -15.8693  -28.0890   22.7007 H   0  0  0  0  0  0
  -24.5908  -30.7084   25.7809 H   0  0  0  0  0  0
  -24.8871  -32.2980   26.4800 H   0  0  0  0  0  0
  -25.8032  -30.9048   27.0288 H   0  0  0  0  0  0
  -26.2873  -29.6819   24.1164 H   0  0  0  0  0  0
  -27.4034  -29.7273   25.4615 H   0  0  0  0  0  0
  -27.8723  -30.4359   23.9345 H   0  0  0  0  0  0
  -27.2724  -33.3697   26.1943 H   0  0  0  0  0  0
  -28.3945  -32.6692   25.0354 H   0  0  0  0  0  0
  -28.0603  -31.8483   26.5505 H   0  0  0  0  0  0
  -28.2571  -38.0095   24.7521 H   0  0  0  0  0  0
  -28.1059  -36.2620   24.6287 H   0  0  0  0  0  0
  -27.2292  -37.1416   25.8884 H   0  0  0  0  0  0
  -20.9357  -29.8910   21.6980 H   0  0  0  0  0  0
  -26.0150  -38.2849   24.1477 H   0  0  0  0  0  0
  -32.2667  -18.9408   23.0225 H   0  0  0  0  0  0
  -31.7348  -16.6310   22.4395 H   0  0  0  0  0  0
  -28.6789  -18.0465   19.7312 H   0  0  0  0  0  0
  -30.4594  -21.7961   22.6104 H   0  0  0  0  0  0
  -31.5369  -21.8247   21.2010 H   0  0  0  0  0  0
  -32.1152  -21.2380   22.7531 H   0  0  0  0  0  0
  -28.2244  -25.0786   21.8053 H   0  0  0  0  0  0
  -27.0168  -24.7576   20.6063 H   0  0  0  0  0  0
  -28.8484  -15.5119   20.7773 H   0  0  0  0  0  0
  -28.1919  -22.4271   21.4855 H   0  0  0  0  0  0
  1 25  1  0  0  0
  1 30  2  0  0  0
  1 80  1  0  0  0
  2  3  1  0  0  0
  2 25  1  0  0  0
  2 86  1  0  0  0
  2 87  1  0  0  0
  3  4  1  0  0  0
  3 88  1  0  0  0
  3 89  1  0  0  0
  4  5  1  0  0  0
  4 90  1  0  0  0
  4 91  1  0  0  0
  5  6  1  0  0  0
  5 26  1  0  0  0
  5 92  1  0  0  0
  6 25  1  0  0  0
  6 93  1  0  0  0
  6 94  1  0  0  0
  7  8  2  0  0  0
  7 26  1  0  0  0
  7 29  1  0  0  0
  8  9  1  0  0  0
  8 22  1  0  0  0
  9 10  1  0  0  0
  9 27  2  0  0  0
 10 11  2  0  0  0
 10 15  1  0  0  0
 11 12  1  0  0  0
 11 95  1  0  0  0
 12 13  2  0  0  0
 12 96  1  0  0  0
 13 14  1  0  0  0
 13 31  1  0  0  0
 14 15  2  0  0  0
 14 97  1  0  0  0
 15 98  1  0  0  0
 16 17  2  0  0  0
 16 21  1  0  0  0
 16 31  1  0  0  0
 17 18  1  0  0  0
 17 99  1  0  0  0
 18 19  2  0  0  0
 18100  1  0  0  0
 19 20  1  0  0  0
 19 24  1  0  0  0
 20 21  2  0  0  0
 20101  1  0  0  0
 21 23  1  0  0  0
 22 28  1  0  0  0
 22 32  2  0  0  0
 26 27  1  0  0  0
 28102  1  0  0  0
 28103  1  0  0  0
 29104  1  0  0  0
 29105  1  0  0  0
 33 34  1  0  0  0
 33 66  1  0  0  0
 33 70  2  0  0  0
 34 36  1  0  0  0
 34 59  1  0  0  0
 34106  1  0  0  0
 35 44  2  0  0  0
 35 45  1  0  0  0
 35 68  1  0  0  0
 36 56  1  0  0  0
 36107  1  0  0  0
 37 39  1  0  0  0
 37 47  1  0  0  0
 37 66  1  0  0  0
 37108  1  0  0  0
 38 43  2  0  0  0
 38 46  1  0  0  0
 38 47  1  0  0  0
 39 64  1  0  0  0
 39 67  2  0  0  0
 40 52  1  0  0  0
 40 53  2  0  0  0
 40 58  1  0  0  0
 41109  1  0  0  0
 41110  1  0  0  0
 41111  1  0  0  0
 41 48  1  0  0  0
 42 43  1  0  0  0
 42 66  1  0  0  0
 42112  1  0  0  0
 42113  1  0  0  0
 43 44  1  0  0  0
 44114  1  0  0  0
 45 46  2  0  0  0
 45115  1  0  0  0
 46116  1  0  0  0
 47117  1  0  0  0
 47118  1  0  0  0
 48 56  1  0  0  0
 48 65  1  0  0  0
 48119  1  0  0  0
 49 50  1  0  0  0
 49 53  1  0  0  0
 49 64  1  0  0  0
 49120  1  0  0  0
 50 51  1  0  0  0
 50121  1  0  0  0
 50122  1  0  0  0
 51 52  1  0  0  0
 51123  1  0  0  0
 51124  1  0  0  0
 52125  1  0  0  0
 52126  1  0  0  0
 53 54  1  0  0  0
 54 55  2  0  0  0
 54127  1  0  0  0
 55 57  1  0  0  0
 55128  1  0  0  0
 56 69  2  0  0  0
 57 58  2  0  0  0
 57129  1  0  0  0
 58130  1  0  0  0
 59 60  1  0  0  0
 59 61  1  0  0  0
 59 62  1  0  0  0
 60131  1  0  0  0
 60132  1  0  0  0
 60133  1  0  0  0
 61134  1  0  0  0
 61135  1  0  0  0
 61136  1  0  0  0
 62137  1  0  0  0
 62138  1  0  0  0
 62139  1  0  0  0
 63 65  1  0  0  0
 63140  1  0  0  0
 63141  1  0  0  0
 63142  1  0  0  0
 64143  1  0  0  0
 65144  1  0  0  0
 68 79  1  0  0  0
 71 72  2  0  0  0
 71 74  1  0  0  0
 71145  1  0  0  0
 72 75  1  0  0  0
 72146  1  0  0  0
 73 75  2  0  0  0
 73 76  1  0  0  0
 73147  1  0  0  0
 74 76  2  0  0  0
 74 78  1  0  0  0
 75 80  1  0  0  0
 76 85  1  0  0  0
 77 79  1  0  0  0
 77 81  1  0  0  0
 77 82  2  0  0  0
 78148  1  0  0  0
 78149  1  0  0  0
 78150  1  0  0  0
 79151  1  0  0  0
 79152  1  0  0  0
 80153  1  0  0  0
 81154  1  0  0  0
 81 85  1  0  0  0
 83 85  2  0  0  0
 84 85  2  0  0  0
M  ISO  4   1 100  68 101  79 101  80 100
M  END
> <chiral flag>
0

> <version>
0

> <s_m_source_file>
/data/baiqing/PycharmProjects/Reinvent-master-3.2/result/LINK_invent/BTK/process_docking_weight1_custom_product_contain_oxygen_bond_distance_aromatic_linkinvent_7_9_3/rearranged_h_0060.sdf

> <i_m_source_file_index>
59

> <r_mmod_Potential_Energy-OPLS-2005>
-50.6278114318848

> <r_mmod_Stretch_Energy-OPLS-2005>
88.5259399414062

> <r_mmod_Bend_Energy-OPLS-2005>
142.232803344727

> <r_mmod_Torsional_Energy-OPLS-2005>
267.983001708984

> <r_mmod_Improper_Torsional_Energy-OPLS-2005>
8.3713264465332

> <r_mmod_Van_der_Waal_Energy-OPLS-2005>
133.759979248047

> <r_mmod_Electrostatic_Energy-OPLS-2005>
-461.402923583984

> <r_mmod_Solvation_Energy-OPLS-2005>
-284.739044189453

> <b_mmod_Minimization_Converged-OPLS-2005>
0

> <r_mmod_RMS_Derivative-OPLS-2005>
3.87414288520813

$$$$
59
                    3D
 Structure written by MMmdl.
152160  0  0  1  0            999 V2000
  -30.6330  -14.6753   20.4888 C   0  0  0  0  0  0
  -30.4275  -12.4066   19.4991 C   0  0  0  0  0  0
  -29.5197  -12.5386   18.2567 C   0  0  0  0  0  0
  -28.0408  -12.3563   18.6535 C   0  0  0  0  0  0
  -27.6475  -13.2346   19.8726 C   0  0  2  0  0  0
  -28.6837  -13.1256   21.0123 C   0  0  0  0  0  0
  -25.2481  -13.8196   20.5721 C   0  0  0  0  0  0
  -24.1770  -13.0426   20.9221 C   0  0  0  0  0  0
  -24.6382  -11.6910   20.8766 C   0  0  0  0  0  0
  -23.9074  -10.4281   21.0424 C   0  0  0  0  0  0
  -24.3619   -9.4199   21.9198 C   0  0  0  0  0  0
  -23.6282   -8.2244   22.0749 C   0  0  0  0  0  0
  -22.4263   -8.0281   21.3557 C   0  0  0  0  0  0
  -21.9917   -9.0255   20.4660 C   0  0  0  0  0  0
  -22.7258  -10.2131   20.3062 C   0  0  0  0  0  0
  -21.6846   -6.0733   22.5280 C   0  0  0  0  0  0
  -21.4006   -6.5631   23.8214 C   0  0  0  0  0  0
  -21.3668   -5.6787   24.9180 C   0  0  0  0  0  0
  -21.6056   -4.3043   24.7232 C   0  0  0  0  0  0
  -21.8819   -3.8140   23.4348 C   0  0  0  0  0  0
  -21.9191   -4.6962   22.3406 C   0  0  0  0  0  0
  -22.7780  -13.5193   21.1904 C   0  0  0  0  0  0
  -22.1667   -4.2147   21.0979 F   0  0  0  0  0  0
  -21.5665   -3.4526   25.7750 F   0  0  0  0  0  0
  -30.0038  -13.4541   20.4553 N   0  0  0  0  0  0
  -26.2952  -12.9435   20.3378 N   0  0  0  0  0  0
  -25.9316  -11.6572   20.5779 N   0  0  0  0  0  0
  -22.0442  -12.8148   22.0451 N   0  0  0  0  0  0
  -25.4098  -15.1918   20.4099 N   0  0  0  0  0  0
  -31.8006  -14.7787   20.1028 O   0  0  0  0  0  0
  -21.6642   -6.8875   21.4238 O   0  0  0  0  0  0
  -22.3459  -14.5507   20.6780 O   0  0  0  0  0  0
  -24.6255  -31.8595   23.2050 C   0  0  0  0  0  0
  -25.9115  -32.4773   23.8358 C   0  0  1  0  0  0
  -27.2056  -27.2949   20.1143 C   0  0  0  0  0  0
  -25.5940  -33.8573   24.2294 N   0  0  0  0  0  0
  -23.4171  -30.4863   21.5491 C   0  0  2  0  0  0
  -24.8590  -28.9441   20.1121 C   0  0  0  0  0  0
  -22.7465  -29.4628   22.4941 C   0  0  0  0  0  0
  -18.0306  -28.1334   22.8490 C   0  0  0  0  0  0
  -24.1496  -36.7323   23.2633 C   0  0  0  0  0  0
  -25.9591  -30.7874   21.3771 C   0  0  0  0  0  0
  -26.0314  -29.4126   20.7185 C   0  0  0  0  0  0
  -27.2071  -28.5990   20.7102 C   0  0  0  0  0  0
  -26.0052  -26.8881   19.4868 C   0  0  0  0  0  0
  -24.8481  -27.6876   19.4902 C   0  0  0  0  0  0
  -23.6324  -29.8337   20.1594 C   0  0  0  0  0  0
  -25.4104  -36.3080   24.0321 C   0  0  1  0  0  0
  -20.5884  -28.3658   23.1355 C   0  0  2  0  0  0
  -20.6784  -26.9382   22.5473 C   0  0  0  0  0  0
  -19.5777  -26.6402   21.5193 C   0  0  0  0  0  0
  -18.1970  -26.7894   22.1615 C   0  0  0  0  0  0
  -19.1534  -28.8822   23.2935 C   0  0  0  0  0  0
  -18.9486  -30.1439   23.8918 C   0  0  0  0  0  0
  -17.6473  -30.6567   24.0549 C   0  0  0  0  0  0
  -25.9042  -34.9443   23.5098 C   0  0  0  0  0  0
  -16.5392  -29.9039   23.6294 C   0  0  0  0  0  0
  -16.7293  -28.6450   23.0335 C   0  0  0  0  0  0
  -26.4490  -31.6569   25.0727 C   0  0  0  0  0  0
  -25.3751  -31.3717   26.1489 C   0  0  0  0  0  0
  -27.0320  -30.2974   24.6172 C   0  0  0  0  0  0
  -27.6026  -32.4293   25.7550 C   0  0  0  0  0  0
  -27.5567  -37.1828   24.8463 C   0  0  0  0  0  0
  -21.4170  -29.3051   22.3750 N   0  0  0  0  0  0
  -26.4281  -37.3768   23.9407 N   0  0  0  0  0  0
  -24.6865  -31.0584   22.1022 N   0  0  0  0  0  0
  -23.4216  -28.8195   23.3014 O   0  0  0  0  0  0
  -28.3218  -26.4383   20.1361 O   0  0  0  0  0  0
  -26.5600  -34.8899   22.4657 O   0  0  0  0  0  0
  -23.5434  -32.1423   23.7378 O   0  0  0  0  0  0
  -30.5018  -18.5068   18.2125 C   0  0  0  0  0  0
  -30.4998  -17.2796   18.9002 C   0  0  0  0  0  0
  -30.0039  -19.6816   18.8095 C   0  0  0  0  0  0
  -29.5010  -18.3810   20.8241 C   0  0  0  0  0  0
  -29.9901  -17.1564   20.2191 C   0  0  0  0  0  0
  -29.5176  -19.6558   20.1273 C   0  0  0  0  0  0
  -29.3913  -24.0942   19.9328 C   0  0  0  0  0  0
  -29.7319  -22.7625   20.1077 C   0  0  0  0  0  0
  -28.1168  -24.9582   20.1805 C   0  0  0  0  0  0
  -29.0955  -21.3723   22.3035 N   0  0  0  0  0  0
  -29.8954  -15.8027   20.8083 N   0  0  0  0  0  0
  -27.4150  -21.3872   20.2821 O   0  0  0  0  0  0
  -28.8016  -21.2698   20.7674 S   0  0  2  0  0  0
  -31.4781  -12.4872   19.2130 H   0  0  0  0  0  0
  -30.3259  -11.4185   19.9556 H   0  0  0  0  0  0
  -29.8095  -11.8145   17.4941 H   0  0  0  0  0  0
  -29.6628  -13.5241   17.8092 H   0  0  0  0  0  0
  -27.8863  -11.3044   18.8965 H   0  0  0  0  0  0
  -27.3881  -12.5731   17.8075 H   0  0  0  0  0  0
  -27.6515  -14.2686   19.5200 H   0  0  0  0  0  0
  -28.6889  -12.1174   21.4294 H   0  0  0  0  0  0
  -28.4166  -13.7895   21.8366 H   0  0  0  0  0  0
  -25.2778   -9.5666   22.4763 H   0  0  0  0  0  0
  -24.0027   -7.4606   22.7400 H   0  0  0  0  0  0
  -21.0888   -8.8751   19.8909 H   0  0  0  0  0  0
  -22.3737  -10.9661   19.6138 H   0  0  0  0  0  0
  -21.1978   -7.6130   23.9712 H   0  0  0  0  0  0
  -21.1509   -6.0522   25.9088 H   0  0  0  0  0  0
  -22.0587   -2.7602   23.2850 H   0  0  0  0  0  0
  -22.4053  -11.9821   22.4888 H   0  0  0  0  0  0
  -21.1035  -13.1112   22.2617 H   0  0  0  0  0  0
  -24.6275  -15.8326   20.4941 H   0  0  0  0  0  0
  -26.2665  -15.6442   20.1157 H   0  0  0  0  0  0
  -26.7183  -32.5453   23.1105 H   0  0  0  0  0  0
  -25.0083  -33.9725   25.0425 H   0  0  0  0  0  0
  -22.7087  -31.3052   21.4120 H   0  0  0  0  0  0
  -23.3718  -35.9699   23.3303 H   0  0  0  0  0  0
  -24.3590  -36.8942   22.2047 H   0  0  0  0  0  0
  -23.7302  -37.6535   23.6668 H   0  0  0  0  0  0
  -26.0753  -31.5534   20.6114 H   0  0  0  0  0  0
  -26.8408  -30.8421   22.0016 H   0  0  0  0  0  0
  -28.1072  -28.9463   21.1993 H   0  0  0  0  0  0
  -25.9241  -25.9408   18.9780 H   0  0  0  0  0  0
  -23.9523  -27.3184   19.0083 H   0  0  0  0  0  0
  -23.7665  -30.6194   19.4154 H   0  0  0  0  0  0
  -22.7500  -29.2760   19.8425 H   0  0  0  0  0  0
  -25.1286  -36.1887   25.0808 H   0  0  0  0  0  0
  -20.9965  -28.3278   24.1468 H   0  0  0  0  0  0
  -20.5609  -26.2185   23.3595 H   0  0  0  0  0  0
  -21.6668  -26.7464   22.1275 H   0  0  0  0  0  0
  -19.6947  -25.6327   21.1219 H   0  0  0  0  0  0
  -19.6683  -27.3284   20.6757 H   0  0  0  0  0  0
  -17.4214  -26.6673   21.4044 H   0  0  0  0  0  0
  -18.0382  -26.0023   22.9017 H   0  0  0  0  0  0
  -19.7966  -30.7270   24.2297 H   0  0  0  0  0  0
  -17.5041  -31.6276   24.5087 H   0  0  0  0  0  0
  -15.5404  -30.2978   23.7488 H   0  0  0  0  0  0
  -15.8698  -28.0776   22.7021 H   0  0  0  0  0  0
  -24.5965  -30.6973   25.7923 H   0  0  0  0  0  0
  -24.8899  -32.2880   26.4856 H   0  0  0  0  0  0
  -25.8133  -30.9015   27.0306 H   0  0  0  0  0  0
  -26.2897  -29.6751   24.1164 H   0  0  0  0  0  0
  -27.3976  -29.7188   25.4674 H   0  0  0  0  0  0
  -27.8788  -30.4252   23.9423 H   0  0  0  0  0  0
  -27.2589  -33.3592   26.2092 H   0  0  0  0  0  0
  -28.3889  -32.6831   25.0438 H   0  0  0  0  0  0
  -28.0615  -31.8424   26.5520 H   0  0  0  0  0  0
  -28.2583  -38.0126   24.7460 H   0  0  0  0  0  0
  -28.1060  -36.2643   24.6325 H   0  0  0  0  0  0
  -27.2307  -37.1534   25.8877 H   0  0  0  0  0  0
  -20.9288  -29.8879   21.7091 H   0  0  0  0  0  0
  -26.0143  -38.2846   24.1349 H   0  0  0  0  0  0
  -30.8692  -18.5387   17.1968 H   0  0  0  0  0  0
  -30.8663  -16.4166   18.3673 H   0  0  0  0  0  0
  -29.9806  -20.6025   18.2476 H   0  0  0  0  0  0
  -29.0890  -18.3571   21.8225 H   0  0  0  0  0  0
  -30.1817  -24.6920   19.5040 H   0  0  0  0  0  0
  -30.7316  -22.4734   19.8141 H   0  0  0  0  0  0
  -27.6601  -24.6827   21.1305 H   0  0  0  0  0  0
  -27.4327  -24.6363   19.4003 H   0  0  0  0  0  0
  -28.7422  -20.5444   22.7950 H   0  0  0  0  0  0
  -29.0521  -15.6272   21.3372 H   0  0  0  0  0  0
  1 25  1  0  0  0
  1 30  2  0  0  0
  1 81  1  0  0  0
  2  3  1  0  0  0
  2 25  1  0  0  0
  2 84  1  0  0  0
  2 85  1  0  0  0
  3  4  1  0  0  0
  3 86  1  0  0  0
  3 87  1  0  0  0
  4  5  1  0  0  0
  4 88  1  0  0  0
  4 89  1  0  0  0
  5  6  1  0  0  0
  5 26  1  0  0  0
  5 90  1  0  0  0
  6 25  1  0  0  0
  6 91  1  0  0  0
  6 92  1  0  0  0
  7  8  2  0  0  0
  7 26  1  0  0  0
  7 29  1  0  0  0
  8  9  1  0  0  0
  8 22  1  0  0  0
  9 10  1  0  0  0
  9 27  2  0  0  0
 10 11  2  0  0  0
 10 15  1  0  0  0
 11 12  1  0  0  0
 11 93  1  0  0  0
 12 13  2  0  0  0
 12 94  1  0  0  0
 13 14  1  0  0  0
 13 31  1  0  0  0
 14 15  2  0  0  0
 14 95  1  0  0  0
 15 96  1  0  0  0
 16 17  2  0  0  0
 16 21  1  0  0  0
 16 31  1  0  0  0
 17 18  1  0  0  0
 17 97  1  0  0  0
 18 19  2  0  0  0
 18 98  1  0  0  0
 19 20  1  0  0  0
 19 24  1  0  0  0
 20 21  2  0  0  0
 20 99  1  0  0  0
 21 23  1  0  0  0
 22 28  1  0  0  0
 22 32  2  0  0  0
 26 27  1  0  0  0
 28100  1  0  0  0
 28101  1  0  0  0
 29102  1  0  0  0
 29103  1  0  0  0
 33 34  1  0  0  0
 33 66  1  0  0  0
 33 70  2  0  0  0
 34 36  1  0  0  0
 34 59  1  0  0  0
 34104  1  0  0  0
 35 44  2  0  0  0
 35 45  1  0  0  0
 35 68  1  0  0  0
 36 56  1  0  0  0
 36105  1  0  0  0
 37 39  1  0  0  0
 37 47  1  0  0  0
 37 66  1  0  0  0
 37106  1  0  0  0
 38 43  2  0  0  0
 38 46  1  0  0  0
 38 47  1  0  0  0
 39 64  1  0  0  0
 39 67  2  0  0  0
 40 52  1  0  0  0
 40 53  2  0  0  0
 40 58  1  0  0  0
 41107  1  0  0  0
 41108  1  0  0  0
 41109  1  0  0  0
 41 48  1  0  0  0
 42 43  1  0  0  0
 42 66  1  0  0  0
 42110  1  0  0  0
 42111  1  0  0  0
 43 44  1  0  0  0
 44112  1  0  0  0
 45 46  2  0  0  0
 45113  1  0  0  0
 46114  1  0  0  0
 47115  1  0  0  0
 47116  1  0  0  0
 48 56  1  0  0  0
 48 65  1  0  0  0
 48117  1  0  0  0
 49 50  1  0  0  0
 49 53  1  0  0  0
 49 64  1  0  0  0
 49118  1  0  0  0
 50 51  1  0  0  0
 50119  1  0  0  0
 50120  1  0  0  0
 51 52  1  0  0  0
 51121  1  0  0  0
 51122  1  0  0  0
 52123  1  0  0  0
 52124  1  0  0  0
 53 54  1  0  0  0
 54 55  2  0  0  0
 54125  1  0  0  0
 55 57  1  0  0  0
 55126  1  0  0  0
 56 69  2  0  0  0
 57 58  2  0  0  0
 57127  1  0  0  0
 58128  1  0  0  0
 59 60  1  0  0  0
 59 61  1  0  0  0
 59 62  1  0  0  0
 60129  1  0  0  0
 60130  1  0  0  0
 60131  1  0  0  0
 61132  1  0  0  0
 61133  1  0  0  0
 61134  1  0  0  0
 62135  1  0  0  0
 62136  1  0  0  0
 62137  1  0  0  0
 63 65  1  0  0  0
 63138  1  0  0  0
 63139  1  0  0  0
 63140  1  0  0  0
 64141  1  0  0  0
 65142  1  0  0  0
 68 79  1  0  0  0
 71 72  2  0  0  0
 71 73  1  0  0  0
 71143  1  0  0  0
 72 75  1  0  0  0
 72144  1  0  0  0
 73 76  2  0  0  0
 73145  1  0  0  0
 74 75  2  0  0  0
 74 76  1  0  0  0
 74146  1  0  0  0
 75 81  1  0  0  0
 76 83  1  0  0  0
 77 78  2  0  0  0
 77 79  1  0  0  0
 77147  1  0  0  0
 78148  1  0  0  0
 78 83  1  0  0  0
 79149  1  0  0  0
 79150  1  0  0  0
 80 83  2  0  0  0
 80151  1  0  0  0
 81152  1  0  0  0
 82 83  2  0  0  0
M  ISO  4   1 100  68 101  79 101  81 100
M  END
> <chiral flag>
0

> <version>
0

> <s_m_source_file>
/data/baiqing/PycharmProjects/Reinvent-master-3.2/result/LINK_invent/BTK/process_docking_weight1_custom_product_contain_oxygen_bond_distance_aromatic_linkinvent_7_9_3/rearranged_h_0060.sdf

> <i_m_source_file_index>
60

> <r_mmod_Potential_Energy-OPLS-2005>
2.86491203308105

> <r_mmod_Stretch_Energy-OPLS-2005>
96.9244003295898

> <r_mmod_Bend_Energy-OPLS-2005>
163.278579711914

> <r_mmod_Torsional_Energy-OPLS-2005>
233.573501586914

> <r_mmod_Improper_Torsional_Energy-OPLS-2005>
4.91158103942871

> <r_mmod_Van_der_Waal_Energy-OPLS-2005>
138.21223449707

> <r_mmod_Electrostatic_Energy-OPLS-2005>
-434.635925292969

> <r_mmod_Solvation_Energy-OPLS-2005>
-258.475524902344

> <b_mmod_Minimization_Converged-OPLS-2005>
0

> <r_mmod_RMS_Derivative-OPLS-2005>
5.59716558456421

$$$$
60
                    3D
 Structure written by MMmdl.
160168  0  0  1  0            999 V2000
  -30.6358  -14.4884   20.6362 C   0  0  0  0  0  0
  -30.4468  -12.3430   19.4145 C   0  0  0  0  0  0
  -29.4997  -12.5514   18.2142 C   0  0  0  0  0  0
  -28.0182  -12.4028   18.6183 C   0  0  0  0  0  0
  -27.6603  -13.2037   19.8941 C   0  0  2  0  0  0
  -28.6962  -12.9286   20.9996 C   0  0  0  0  0  0
  -25.2545  -13.8137   20.5671 C   0  0  0  0  0  0
  -24.1782  -13.0420   20.9180 C   0  0  0  0  0  0
  -24.6347  -11.6883   20.8770 C   0  0  0  0  0  0
  -23.9013  -10.4294   21.0451 C   0  0  0  0  0  0
  -24.3594   -9.4194   21.9211 C   0  0  0  0  0  0
  -23.6297   -8.2206   22.0760 C   0  0  0  0  0  0
  -22.4289   -8.0254   21.3534 C   0  0  0  0  0  0
  -21.9908   -9.0226   20.4640 C   0  0  0  0  0  0
  -22.7205  -10.2135   20.3066 C   0  0  0  0  0  0
  -21.6840   -6.0728   22.5254 C   0  0  0  0  0  0
  -21.4029   -6.5657   23.8193 C   0  0  0  0  0  0
  -21.3676   -5.6827   24.9159 C   0  0  0  0  0  0
  -21.6037   -4.3086   24.7228 C   0  0  0  0  0  0
  -21.8826   -3.8155   23.4381 C   0  0  0  0  0  0
  -21.9189   -4.6952   22.3410 C   0  0  0  0  0  0
  -22.7800  -13.5180   21.1814 C   0  0  0  0  0  0
  -22.1632   -4.2125   21.0992 F   0  0  0  0  0  0
  -21.5650   -3.4558   25.7757 F   0  0  0  0  0  0
  -30.0277  -13.2868   20.4604 N   0  0  0  0  0  0
  -26.2978  -12.9277   20.3404 N   0  0  0  0  0  0
  -25.9272  -11.6459   20.5802 N   0  0  0  0  0  0
  -22.0506  -12.8110   22.0426 N   0  0  0  0  0  0
  -25.4304  -15.1816   20.3985 N   0  0  0  0  0  0
  -31.7684  -14.7537   20.2073 O   0  0  0  0  0  0
  -21.6651   -6.8847   21.4224 O   0  0  0  0  0  0
  -22.3406  -14.5453   20.6694 O   0  0  0  0  0  0
  -24.6086  -31.8732   23.2152 C   0  0  0  0  0  0
  -25.8987  -32.4848   23.8466 C   0  0  1  0  0  0
  -27.2303  -27.4886   20.0840 C   0  0  0  0  0  0
  -25.5865  -33.8642   24.2397 N   0  0  0  0  0  0
  -23.3922  -30.4953   21.5597 C   0  0  2  0  0  0
  -24.8314  -28.9647   20.1185 C   0  0  0  0  0  0
  -22.7371  -29.4698   22.5080 C   0  0  0  0  0  0
  -18.0271  -28.1370   22.8526 C   0  0  0  0  0  0
  -24.1467  -36.7317   23.2653 C   0  0  0  0  0  0
  -25.9124  -30.8544   21.3602 C   0  0  0  0  0  0
  -25.9864  -29.4921   20.7057 C   0  0  0  0  0  0
  -27.1891  -28.7631   20.6784 C   0  0  0  0  0  0
  -26.0597  -26.9519   19.5037 C   0  0  0  0  0  0
  -24.8601  -27.6909   19.5174 C   0  0  0  0  0  0
  -23.5925  -29.8283   20.1724 C   0  0  0  0  0  0
  -25.4075  -36.3120   24.0368 C   0  0  1  0  0  0
  -20.5864  -28.3647   23.1374 C   0  0  2  0  0  0
  -20.6768  -26.9400   22.5458 C   0  0  0  0  0  0
  -19.5741  -26.6394   21.5243 C   0  0  0  0  0  0
  -18.1902  -26.7928   22.1642 C   0  0  0  0  0  0
  -19.1527  -28.8829   23.2934 C   0  0  0  0  0  0
  -18.9426  -30.1435   23.8949 C   0  0  0  0  0  0
  -17.6433  -30.6584   24.0568 C   0  0  0  0  0  0
  -25.8998  -34.9487   23.5164 C   0  0  0  0  0  0
  -16.5327  -29.9093   23.6336 C   0  0  0  0  0  0
  -16.7260  -28.6503   23.0373 C   0  0  0  0  0  0
  -26.4481  -31.6631   25.0772 C   0  0  0  0  0  0
  -25.3783  -31.3713   26.1550 C   0  0  0  0  0  0
  -27.0354  -30.3097   24.6147 C   0  0  0  0  0  0
  -27.6067  -32.4390   25.7496 C   0  0  0  0  0  0
  -27.5576  -37.1802   24.8465 C   0  0  0  0  0  0
  -21.4121  -29.3014   22.3801 N   0  0  0  0  0  0
  -26.4257  -37.3796   23.9432 N   0  0  0  0  0  0
  -24.6566  -31.0884   22.1054 N   0  0  0  0  0  0
  -23.4168  -28.8239   23.3103 O   0  0  0  0  0  0
  -28.4400  -26.8504   20.0586 O   0  0  0  0  0  0
  -26.5558  -34.8937   22.4730 O   0  0  0  0  0  0
  -23.5302  -32.1477   23.7586 O   0  0  0  0  0  0
  -30.7429  -18.3023   23.3240 C   0  0  0  0  0  0
  -30.0122  -19.3450   22.7210 C   0  0  0  0  0  0
  -30.7180  -17.0066   22.7703 C   0  0  0  0  0  0
  -29.2962  -19.1280   21.5194 C   0  0  0  0  0  0
  -29.3102  -17.8280   20.9348 C   0  0  0  0  0  0
  -29.9987  -16.7579   21.5762 C   0  0  0  0  0  0
  -29.2265  -22.6659   21.3491 C   0  0  0  0  0  0
  -28.6263  -17.6090   19.5871 C   0  0  0  0  0  0
  -28.5407  -20.3058   20.8889 C   0  0  0  0  0  0
  -30.2604  -23.7227   20.9703 C   0  0  0  0  0  0
  -29.7446  -25.1678   20.9880 C   0  0  0  0  0  0
  -28.4749  -25.4409   20.1663 C   0  0  0  0  0  0
  -29.7930  -15.4184   21.1310 N   0  0  0  0  0  0
  -29.3764  -21.4897   20.7372 N   0  0  0  0  0  0
  -28.3260  -22.9077   22.1542 O   0  0  0  0  0  0
  -31.4848  -12.5004   19.1112 H   0  0  0  0  0  0
  -30.3866  -11.3207   19.7861 H   0  0  0  0  0  0
  -29.7444  -11.8541   17.4125 H   0  0  0  0  0  0
  -29.6478  -13.5517   17.8037 H   0  0  0  0  0  0
  -27.8032  -11.3465   18.7758 H   0  0  0  0  0  0
  -27.3738  -12.7281   17.7997 H   0  0  0  0  0  0
  -27.7152  -14.2590   19.6433 H   0  0  0  0  0  0
  -28.6837  -11.8728   21.2763 H   0  0  0  0  0  0
  -28.4408  -13.4659   21.9132 H   0  0  0  0  0  0
  -25.2761   -9.5699   22.4733 H   0  0  0  0  0  0
  -24.0031   -7.4611   22.7456 H   0  0  0  0  0  0
  -21.0826   -8.8727   19.8937 H   0  0  0  0  0  0
  -22.3644  -10.9660   19.6173 H   0  0  0  0  0  0
  -21.2045   -7.6170   23.9687 H   0  0  0  0  0  0
  -21.1466   -6.0566   25.9054 H   0  0  0  0  0  0
  -22.0604   -2.7605   23.2881 H   0  0  0  0  0  0
  -22.4220  -11.9787   22.4759 H   0  0  0  0  0  0
  -21.1165  -13.1120   22.2766 H   0  0  0  0  0  0
  -24.6598  -15.8354   20.4478 H   0  0  0  0  0  0
  -26.2552  -15.5771   19.9742 H   0  0  0  0  0  0
  -26.7052  -32.5584   23.1244 H   0  0  0  0  0  0
  -25.0037  -33.9858   25.0563 H   0  0  0  0  0  0
  -22.6752  -31.3066   21.4284 H   0  0  0  0  0  0
  -23.3731  -35.9638   23.3290 H   0  0  0  0  0  0
  -24.3542  -36.8962   22.2069 H   0  0  0  0  0  0
  -23.7208  -37.6521   23.6661 H   0  0  0  0  0  0
  -26.0198  -31.6284   20.6001 H   0  0  0  0  0  0
  -26.8023  -30.9047   21.9757 H   0  0  0  0  0  0
  -28.0920  -29.1739   21.1117 H   0  0  0  0  0  0
  -26.0721  -25.9833   19.0221 H   0  0  0  0  0  0
  -23.9713  -27.2845   19.0561 H   0  0  0  0  0  0
  -23.6862  -30.6086   19.4149 H   0  0  0  0  0  0
  -22.7164  -29.2448   19.8847 H   0  0  0  0  0  0
  -25.1239  -36.2014   25.0854 H   0  0  0  0  0  0
  -20.9928  -28.3181   24.1491 H   0  0  0  0  0  0
  -20.5704  -26.2225   23.3611 H   0  0  0  0  0  0
  -21.6611  -26.7459   22.1198 H   0  0  0  0  0  0
  -19.6873  -25.6298   21.1257 H   0  0  0  0  0  0
  -19.6686  -27.3217   20.6768 H   0  0  0  0  0  0
  -17.4197  -26.6749   21.4012 H   0  0  0  0  0  0
  -18.0240  -26.0048   22.9005 H   0  0  0  0  0  0
  -19.7886  -30.7243   24.2342 H   0  0  0  0  0  0
  -17.4973  -31.6255   24.5149 H   0  0  0  0  0  0
  -15.5325  -30.2992   23.7592 H   0  0  0  0  0  0
  -15.8665  -28.0791   22.7091 H   0  0  0  0  0  0
  -24.5851  -30.7200   25.7868 H   0  0  0  0  0  0
  -24.9091  -32.2867   26.5162 H   0  0  0  0  0  0
  -25.8141  -30.8730   27.0221 H   0  0  0  0  0  0
  -26.2907  -29.6808   24.1246 H   0  0  0  0  0  0
  -27.4212  -29.7395   25.4621 H   0  0  0  0  0  0
  -27.8688  -30.4470   23.9240 H   0  0  0  0  0  0
  -27.2667  -33.3652   26.2154 H   0  0  0  0  0  0
  -28.3778  -32.7061   25.0246 H   0  0  0  0  0  0
  -28.0853  -31.8496   26.5352 H   0  0  0  0  0  0
  -28.2585  -38.0128   24.7510 H   0  0  0  0  0  0
  -28.1103  -36.2643   24.6250 H   0  0  0  0  0  0
  -27.2306  -37.1401   25.8885 H   0  0  0  0  0  0
  -20.9262  -29.8689   21.7002 H   0  0  0  0  0  0
  -26.0182  -38.2877   24.1453 H   0  0  0  0  0  0
  -31.3021  -18.5000   24.2325 H   0  0  0  0  0  0
  -30.0112  -20.3283   23.1803 H   0  0  0  0  0  0
  -31.2268  -16.2024   23.2791 H   0  0  0  0  0  0
  -27.5633  -17.8511   19.6307 H   0  0  0  0  0  0
  -28.7202  -16.5938   19.2070 H   0  0  0  0  0  0
  -29.1050  -18.2605   18.8511 H   0  0  0  0  0  0
  -27.6591  -20.5398   21.4901 H   0  0  0  0  0  0
  -28.1655  -20.0811   19.8913 H   0  0  0  0  0  0
  -30.6473  -23.5114   19.9782 H   0  0  0  0  0  0
  -31.1077  -23.6239   21.6484 H   0  0  0  0  0  0
  -30.5523  -25.7873   20.5952 H   0  0  0  0  0  0
  -29.6046  -25.5013   22.0145 H   0  0  0  0  0  0
  -27.5950  -25.0441   20.6801 H   0  0  0  0  0  0
  -28.5263  -24.9977   19.1715 H   0  0  0  0  0  0
  -28.8395  -15.0949   21.1775 H   0  0  0  0  0  0
  -30.1186  -21.4215   20.0547 H   0  0  0  0  0  0
  1 25  1  0  0  0
  1 30  2  0  0  0
  1 83  1  0  0  0
  2  3  1  0  0  0
  2 25  1  0  0  0
  2 86  1  0  0  0
  2 87  1  0  0  0
  3  4  1  0  0  0
  3 88  1  0  0  0
  3 89  1  0  0  0
  4  5  1  0  0  0
  4 90  1  0  0  0
  4 91  1  0  0  0
  5  6  1  0  0  0
  5 26  1  0  0  0
  5 92  1  0  0  0
  6 25  1  0  0  0
  6 93  1  0  0  0
  6 94  1  0  0  0
  7  8  2  0  0  0
  7 26  1  0  0  0
  7 29  1  0  0  0
  8  9  1  0  0  0
  8 22  1  0  0  0
  9 10  1  0  0  0
  9 27  2  0  0  0
 10 11  2  0  0  0
 10 15  1  0  0  0
 11 12  1  0  0  0
 11 95  1  0  0  0
 12 13  2  0  0  0
 12 96  1  0  0  0
 13 14  1  0  0  0
 13 31  1  0  0  0
 14 15  2  0  0  0
 14 97  1  0  0  0
 15 98  1  0  0  0
 16 17  2  0  0  0
 16 21  1  0  0  0
 16 31  1  0  0  0
 17 18  1  0  0  0
 17 99  1  0  0  0
 18 19  2  0  0  0
 18100  1  0  0  0
 19 20  1  0  0  0
 19 24  1  0  0  0
 20 21  2  0  0  0
 20101  1  0  0  0
 21 23  1  0  0  0
 22 28  1  0  0  0
 22 32  2  0  0  0
 26 27  1  0  0  0
 28102  1  0  0  0
 28103  1  0  0  0
 29104  1  0  0  0
 29105  1  0  0  0
 33 34  1  0  0  0
 33 66  1  0  0  0
 33 70  2  0  0  0
 34 36  1  0  0  0
 34 59  1  0  0  0
 34106  1  0  0  0
 35 44  2  0  0  0
 35 45  1  0  0  0
 35 68  1  0  0  0
 36 56  1  0  0  0
 36107  1  0  0  0
 37 39  1  0  0  0
 37 47  1  0  0  0
 37 66  1  0  0  0
 37108  1  0  0  0
 38 43  2  0  0  0
 38 46  1  0  0  0
 38 47  1  0  0  0
 39 64  1  0  0  0
 39 67  2  0  0  0
 40 52  1  0  0  0
 40 53  2  0  0  0
 40 58  1  0  0  0
 41109  1  0  0  0
 41110  1  0  0  0
 41111  1  0  0  0
 41 48  1  0  0  0
 42 43  1  0  0  0
 42 66  1  0  0  0
 42112  1  0  0  0
 42113  1  0  0  0
 43 44  1  0  0  0
 44114  1  0  0  0
 45 46  2  0  0  0
 45115  1  0  0  0
 46116  1  0  0  0
 47117  1  0  0  0
 47118  1  0  0  0
 48 56  1  0  0  0
 48 65  1  0  0  0
 48119  1  0  0  0
 49 50  1  0  0  0
 49 53  1  0  0  0
 49 64  1  0  0  0
 49120  1  0  0  0
 50 51  1  0  0  0
 50121  1  0  0  0
 50122  1  0  0  0
 51 52  1  0  0  0
 51123  1  0  0  0
 51124  1  0  0  0
 52125  1  0  0  0
 52126  1  0  0  0
 53 54  1  0  0  0
 54 55  2  0  0  0
 54127  1  0  0  0
 55 57  1  0  0  0
 55128  1  0  0  0
 56 69  2  0  0  0
 57 58  2  0  0  0
 57129  1  0  0  0
 58130  1  0  0  0
 59 60  1  0  0  0
 59 61  1  0  0  0
 59 62  1  0  0  0
 60131  1  0  0  0
 60132  1  0  0  0
 60133  1  0  0  0
 61134  1  0  0  0
 61135  1  0  0  0
 61136  1  0  0  0
 62137  1  0  0  0
 62138  1  0  0  0
 62139  1  0  0  0
 63 65  1  0  0  0
 63140  1  0  0  0
 63141  1  0  0  0
 63142  1  0  0  0
 64143  1  0  0  0
 65144  1  0  0  0
 68 82  1  0  0  0
 71 72  2  0  0  0
 71 73  1  0  0  0
 71145  1  0  0  0
 72 74  1  0  0  0
 72146  1  0  0  0
 73 76  2  0  0  0
 73147  1  0  0  0
 74 75  2  0  0  0
 74 79  1  0  0  0
 75 76  1  0  0  0
 75 78  1  0  0  0
 76 83  1  0  0  0
 77 80  1  0  0  0
 77 84  1  0  0  0
 77 85  2  0  0  0
 78148  1  0  0  0
 78149  1  0  0  0
 78150  1  0  0  0
 79 84  1  0  0  0
 79151  1  0  0  0
 79152  1  0  0  0
 80 81  1  0  0  0
 80153  1  0  0  0
 80154  1  0  0  0
 81 82  1  0  0  0
 81155  1  0  0  0
 81156  1  0  0  0
 82157  1  0  0  0
 82158  1  0  0  0
 83159  1  0  0  0
 84160  1  0  0  0
M  ISO  4   1 100  68 101  82 101  83 100
M  END
> <chiral flag>
0

> <version>
0

> <s_m_source_file>
/data/baiqing/PycharmProjects/Reinvent-master-3.2/result/LINK_invent/BTK/process_docking_weight1_custom_product_contain_oxygen_bond_distance_aromatic_linkinvent_7_9_3/rearranged_h_0060.sdf

> <i_m_source_file_index>
61

> <r_mmod_Potential_Energy-OPLS-2005>
-167.195510864258

> <r_mmod_Stretch_Energy-OPLS-2005>
34.2859649658203

> <r_mmod_Bend_Energy-OPLS-2005>
106.567176818848

> <r_mmod_Torsional_Energy-OPLS-2005>
234.587554931641

> <r_mmod_Improper_Torsional_Energy-OPLS-2005>
6.43892765045166

> <r_mmod_Van_der_Waal_Energy-OPLS-2005>
158.637084960938

> <r_mmod_Electrostatic_Energy-OPLS-2005>
-487.646575927734

> <r_mmod_Solvation_Energy-OPLS-2005>
-236.4072265625

> <b_mmod_Minimization_Converged-OPLS-2005>
0

> <r_mmod_RMS_Derivative-OPLS-2005>
7.95747947692871

$$$$
61
                    3D
 Structure written by MMmdl.
152160  0  0  1  0            999 V2000
  -30.7119  -14.5878   20.4912 C   0  0  0  0  0  0
  -30.4088  -12.3571   19.4611 C   0  0  0  0  0  0
  -29.5010  -12.4996   18.2232 C   0  0  0  0  0  0
  -28.0238  -12.3536   18.6331 C   0  0  0  0  0  0
  -27.6497  -13.2304   19.8589 C   0  0  2  0  0  0
  -28.6940  -13.1211   20.9943 C   0  0  0  0  0  0
  -25.2538  -13.8203   20.5702 C   0  0  0  0  0  0
  -24.1816  -13.0456   20.9195 C   0  0  0  0  0  0
  -24.6403  -11.6927   20.8728 C   0  0  0  0  0  0
  -23.9077  -10.4307   21.0395 C   0  0  0  0  0  0
  -24.3619   -9.4218   21.9179 C   0  0  0  0  0  0
  -23.6290   -8.2250   22.0750 C   0  0  0  0  0  0
  -22.4272   -8.0286   21.3555 C   0  0  0  0  0  0
  -21.9916   -9.0260   20.4659 C   0  0  0  0  0  0
  -22.7243  -10.2139   20.3055 C   0  0  0  0  0  0
  -21.6864   -6.0732   22.5279 C   0  0  0  0  0  0
  -21.4022   -6.5633   23.8212 C   0  0  0  0  0  0
  -21.3663   -5.6780   24.9171 C   0  0  0  0  0  0
  -21.6035   -4.3044   24.7228 C   0  0  0  0  0  0
  -21.8815   -3.8143   23.4351 C   0  0  0  0  0  0
  -21.9199   -4.6956   22.3406 C   0  0  0  0  0  0
  -22.7836  -13.5246   21.1841 C   0  0  0  0  0  0
  -22.1663   -4.2139   21.0991 F   0  0  0  0  0  0
  -21.5629   -3.4533   25.7748 F   0  0  0  0  0  0
  -30.0141  -13.4111   20.4193 N   0  0  0  0  0  0
  -26.2982  -12.9419   20.3318 N   0  0  0  0  0  0
  -25.9338  -11.6556   20.5738 N   0  0  0  0  0  0
  -22.0466  -12.8243   22.0400 N   0  0  0  0  0  0
  -25.4221  -15.1924   20.4115 N   0  0  0  0  0  0
  -31.8779  -14.6245   20.0984 O   0  0  0  0  0  0
  -21.6639   -6.8875   21.4246 O   0  0  0  0  0  0
  -22.3528  -14.5549   20.6678 O   0  0  0  0  0  0
  -24.6237  -31.8629   23.2053 C   0  0  0  0  0  0
  -25.9098  -32.4796   23.8374 C   0  0  1  0  0  0
  -27.2225  -27.3634   20.1052 C   0  0  0  0  0  0
  -25.5923  -33.8591   24.2303 N   0  0  0  0  0  0
  -23.4166  -30.4877   21.5463 C   0  0  2  0  0  0
  -24.8658  -28.9564   20.0997 C   0  0  0  0  0  0
  -22.7478  -29.4639   22.4940 C   0  0  0  0  0  0
  -18.0287  -28.1378   22.8486 C   0  0  0  0  0  0
  -24.1490  -36.7296   23.2639 C   0  0  0  0  0  0
  -25.9554  -30.8056   21.3730 C   0  0  0  0  0  0
  -26.0324  -29.4398   20.7084 C   0  0  0  0  0  0
  -27.2185  -28.6521   20.7092 C   0  0  0  0  0  0
  -26.0446  -26.9287   19.4608 C   0  0  0  0  0  0
  -24.8717  -27.7036   19.4650 C   0  0  0  0  0  0
  -23.6301  -29.8280   20.1578 C   0  0  0  0  0  0
  -25.4107  -36.3094   24.0343 C   0  0  1  0  0  0
  -20.5891  -28.3682   23.1288 C   0  0  2  0  0  0
  -20.6777  -26.9409   22.5413 C   0  0  0  0  0  0
  -19.5755  -26.6382   21.5207 C   0  0  0  0  0  0
  -18.1929  -26.7921   22.1617 C   0  0  0  0  0  0
  -19.1540  -28.8846   23.2878 C   0  0  0  0  0  0
  -18.9466  -30.1451   23.8890 C   0  0  0  0  0  0
  -17.6468  -30.6578   24.0566 C   0  0  0  0  0  0
  -25.9045  -34.9464   23.5120 C   0  0  0  0  0  0
  -16.5356  -29.9082   23.6335 C   0  0  0  0  0  0
  -16.7276  -28.6503   23.0345 C   0  0  0  0  0  0
  -26.4481  -31.6585   25.0729 C   0  0  0  0  0  0
  -25.3729  -31.3715   26.1470 C   0  0  0  0  0  0
  -27.0314  -30.3014   24.6159 C   0  0  0  0  0  0
  -27.6068  -32.4296   25.7481 C   0  0  0  0  0  0
  -27.5579  -37.1802   24.8464 C   0  0  0  0  0  0
  -21.4195  -29.3039   22.3689 N   0  0  0  0  0  0
  -26.4286  -37.3787   23.9416 N   0  0  0  0  0  0
  -24.6837  -31.0669   22.0988 N   0  0  0  0  0  0
  -23.4217  -28.8184   23.3010 O   0  0  0  0  0  0
  -28.2567  -26.4365   20.2321 O   0  0  0  0  0  0
  -26.5620  -34.8926   22.4690 O   0  0  0  0  0  0
  -23.5411  -32.1407   23.7402 O   0  0  0  0  0  0
  -31.8493  -17.4825   20.5889 C   0  0  0  0  0  0
  -32.2726  -18.8222   20.5115 C   0  0  0  0  0  0
  -29.5606  -18.2374   20.8544 C   0  0  0  0  0  0
  -29.9825  -19.6141   20.7983 C   0  0  0  0  0  0
  -30.4800  -17.1360   20.7425 C   0  0  0  0  0  0
  -31.3545  -19.8779   20.6191 C   0  0  0  0  0  0
  -28.1898  -24.0016   21.0088 C   0  0  0  0  0  0
  -27.8656  -25.3332   21.0019 C   0  0  0  0  0  0
  -29.1768  -23.2258   20.2488 C   0  0  0  0  0  0
  -29.0311  -20.8112   21.0984 C   0  0  0  0  0  0
  -30.0356  -15.7368   20.8163 N   0  0  0  0  0  0
  -28.8413  -21.9114   20.1027 N   0  0  0  0  0  0
  -30.2187  -23.6850   19.7812 O   0  0  0  0  0  0
  -31.8134  -21.1501   20.6095 F   0  0  0  0  0  0
  -31.4576  -12.4175   19.1652 H   0  0  0  0  0  0
  -30.2884  -11.3704   19.9122 H   0  0  0  0  0  0
  -29.7586  -11.7496   17.4751 H   0  0  0  0  0  0
  -29.6646  -13.4702   17.7516 H   0  0  0  0  0  0
  -27.8517  -11.3023   18.8676 H   0  0  0  0  0  0
  -27.3725  -12.5869   17.7893 H   0  0  0  0  0  0
  -27.6628  -14.2611   19.5049 H   0  0  0  0  0  0
  -28.6846  -12.1217   21.4330 H   0  0  0  0  0  0
  -28.4540  -13.8128   21.8030 H   0  0  0  0  0  0
  -25.2760   -9.5683   22.4756 H   0  0  0  0  0  0
  -23.9999   -7.4640   22.7476 H   0  0  0  0  0  0
  -21.0839   -8.8778   19.8977 H   0  0  0  0  0  0
  -22.3698  -10.9666   19.6154 H   0  0  0  0  0  0
  -21.2014   -7.6136   23.9706 H   0  0  0  0  0  0
  -21.1489   -6.0517   25.9069 H   0  0  0  0  0  0
  -22.0595   -2.7605   23.2855 H   0  0  0  0  0  0
  -22.4072  -11.9918   22.4815 H   0  0  0  0  0  0
  -21.1084  -13.1275   22.2602 H   0  0  0  0  0  0
  -24.6527  -15.8451   20.5124 H   0  0  0  0  0  0
  -26.2687  -15.6316   20.0731 H   0  0  0  0  0  0
  -26.7183  -32.5477   23.1142 H   0  0  0  0  0  0
  -25.0087  -33.9746   25.0461 H   0  0  0  0  0  0
  -22.7084  -31.3070   21.4077 H   0  0  0  0  0  0
  -23.3765  -35.9616   23.3292 H   0  0  0  0  0  0
  -24.3591  -36.8913   22.2056 H   0  0  0  0  0  0
  -23.7231  -37.6494   23.6656 H   0  0  0  0  0  0
  -26.0876  -31.5755   20.6112 H   0  0  0  0  0  0
  -26.8364  -30.8503   22.0025 H   0  0  0  0  0  0
  -28.1038  -29.0014   21.2213 H   0  0  0  0  0  0
  -26.0198  -25.9513   18.9983 H   0  0  0  0  0  0
  -23.9783  -27.3263   18.9865 H   0  0  0  0  0  0
  -23.7459  -30.6073   19.4033 H   0  0  0  0  0  0
  -22.7519  -29.2535   19.8567 H   0  0  0  0  0  0
  -25.1281  -36.1955   25.0835 H   0  0  0  0  0  0
  -20.9968  -28.3245   24.1414 H   0  0  0  0  0  0
  -20.5662  -26.2298   23.3609 H   0  0  0  0  0  0
  -21.6655  -26.7438   22.1223 H   0  0  0  0  0  0
  -19.6919  -25.6292   21.1237 H   0  0  0  0  0  0
  -19.6674  -27.3195   20.6737 H   0  0  0  0  0  0
  -17.4203  -26.6674   21.4012 H   0  0  0  0  0  0
  -18.0321  -26.0052   22.9008 H   0  0  0  0  0  0
  -19.7942  -30.7269   24.2241 H   0  0  0  0  0  0
  -17.5027  -31.6256   24.5175 H   0  0  0  0  0  0
  -15.5358  -30.2985   23.7650 H   0  0  0  0  0  0
  -15.8678  -28.0821   22.7052 H   0  0  0  0  0  0
  -24.5907  -30.7056   25.7803 H   0  0  0  0  0  0
  -24.8924  -32.2882   26.4900 H   0  0  0  0  0  0
  -25.8071  -30.8894   27.0241 H   0  0  0  0  0  0
  -26.2880  -29.6776   24.1192 H   0  0  0  0  0  0
  -27.4035  -29.7247   25.4634 H   0  0  0  0  0  0
  -27.8734  -30.4298   23.9358 H   0  0  0  0  0  0
  -27.2707  -33.3596   26.2067 H   0  0  0  0  0  0
  -28.3861  -32.6842   25.0289 H   0  0  0  0  0  0
  -28.0756  -31.8417   26.5378 H   0  0  0  0  0  0
  -28.2605  -38.0096   24.7539 H   0  0  0  0  0  0
  -28.1071  -36.2641   24.6247 H   0  0  0  0  0  0
  -27.2323  -37.1413   25.8874 H   0  0  0  0  0  0
  -20.9371  -29.8758   21.6904 H   0  0  0  0  0  0
  -26.0172  -38.2867   24.1417 H   0  0  0  0  0  0
  -32.6337  -16.7461   20.5439 H   0  0  0  0  0  0
  -33.3239  -19.0465   20.4005 H   0  0  0  0  0  0
  -28.5126  -18.0288   21.0164 H   0  0  0  0  0  0
  -27.6312  -23.4247   21.7330 H   0  0  0  0  0  0
  -27.1190  -25.6406   21.7244 H   0  0  0  0  0  0
  -29.3557  -21.2461   22.0453 H   0  0  0  0  0  0
  -28.0415  -20.4002   21.3017 H   0  0  0  0  0  0
  -29.0672  -15.5931   21.0607 H   0  0  0  0  0  0
  -27.9018  -21.8401   19.7374 H   0  0  0  0  0  0
  1 25  1  0  0  0
  1 30  2  0  0  0
  1 81  1  0  0  0
  2  3  1  0  0  0
  2 25  1  0  0  0
  2 85  1  0  0  0
  2 86  1  0  0  0
  3  4  1  0  0  0
  3 87  1  0  0  0
  3 88  1  0  0  0
  4  5  1  0  0  0
  4 89  1  0  0  0
  4 90  1  0  0  0
  5  6  1  0  0  0
  5 26  1  0  0  0
  5 91  1  0  0  0
  6 25  1  0  0  0
  6 92  1  0  0  0
  6 93  1  0  0  0
  7  8  2  0  0  0
  7 26  1  0  0  0
  7 29  1  0  0  0
  8  9  1  0  0  0
  8 22  1  0  0  0
  9 10  1  0  0  0
  9 27  2  0  0  0
 10 11  2  0  0  0
 10 15  1  0  0  0
 11 12  1  0  0  0
 11 94  1  0  0  0
 12 13  2  0  0  0
 12 95  1  0  0  0
 13 14  1  0  0  0
 13 31  1  0  0  0
 14 15  2  0  0  0
 14 96  1  0  0  0
 15 97  1  0  0  0
 16 17  2  0  0  0
 16 21  1  0  0  0
 16 31  1  0  0  0
 17 18  1  0  0  0
 17 98  1  0  0  0
 18 19  2  0  0  0
 18 99  1  0  0  0
 19 20  1  0  0  0
 19 24  1  0  0  0
 20 21  2  0  0  0
 20100  1  0  0  0
 21 23  1  0  0  0
 22 28  1  0  0  0
 22 32  2  0  0  0
 26 27  1  0  0  0
 28101  1  0  0  0
 28102  1  0  0  0
 29103  1  0  0  0
 29104  1  0  0  0
 33 34  1  0  0  0
 33 66  1  0  0  0
 33 70  2  0  0  0
 34 36  1  0  0  0
 34 59  1  0  0  0
 34105  1  0  0  0
 35 44  2  0  0  0
 35 45  1  0  0  0
 35 68  1  0  0  0
 36 56  1  0  0  0
 36106  1  0  0  0
 37 39  1  0  0  0
 37 47  1  0  0  0
 37 66  1  0  0  0
 37107  1  0  0  0
 38 43  2  0  0  0
 38 46  1  0  0  0
 38 47  1  0  0  0
 39 64  1  0  0  0
 39 67  2  0  0  0
 40 52  1  0  0  0
 40 53  2  0  0  0
 40 58  1  0  0  0
 41108  1  0  0  0
 41109  1  0  0  0
 41110  1  0  0  0
 41 48  1  0  0  0
 42 43  1  0  0  0
 42 66  1  0  0  0
 42111  1  0  0  0
 42112  1  0  0  0
 43 44  1  0  0  0
 44113  1  0  0  0
 45 46  2  0  0  0
 45114  1  0  0  0
 46115  1  0  0  0
 47116  1  0  0  0
 47117  1  0  0  0
 48 56  1  0  0  0
 48 65  1  0  0  0
 48118  1  0  0  0
 49 50  1  0  0  0
 49 53  1  0  0  0
 49 64  1  0  0  0
 49119  1  0  0  0
 50 51  1  0  0  0
 50120  1  0  0  0
 50121  1  0  0  0
 51 52  1  0  0  0
 51122  1  0  0  0
 51123  1  0  0  0
 52124  1  0  0  0
 52125  1  0  0  0
 53 54  1  0  0  0
 54 55  2  0  0  0
 54126  1  0  0  0
 55 57  1  0  0  0
 55127  1  0  0  0
 56 69  2  0  0  0
 57 58  2  0  0  0
 57128  1  0  0  0
 58129  1  0  0  0
 59 60  1  0  0  0
 59 61  1  0  0  0
 59 62  1  0  0  0
 60130  1  0  0  0
 60131  1  0  0  0
 60132  1  0  0  0
 61133  1  0  0  0
 61134  1  0  0  0
 61135  1  0  0  0
 62136  1  0  0  0
 62137  1  0  0  0
 62138  1  0  0  0
 63 65  1  0  0  0
 63139  1  0  0  0
 63140  1  0  0  0
 63141  1  0  0  0
 64142  1  0  0  0
 65143  1  0  0  0
 68 78  1  0  0  0
 71 72  2  0  0  0
 71 75  1  0  0  0
 71144  1  0  0  0
 72 76  1  0  0  0
 72145  1  0  0  0
 73 74  1  0  0  0
 73 75  2  0  0  0
 73146  1  0  0  0
 74 76  2  0  0  0
 74 80  1  0  0  0
 75 81  1  0  0  0
 76 84  1  0  0  0
 77 78  2  0  0  0
 77 79  1  0  0  0
 77147  1  0  0  0
 78148  1  0  0  0
 79 82  1  0  0  0
 79 83  2  0  0  0
 80 82  1  0  0  0
 80149  1  0  0  0
 80150  1  0  0  0
 81151  1  0  0  0
 82152  1  0  0  0
M  ISO  4   1 100  68 101  78 101  81 100
M  END
> <chiral flag>
0

> <version>
0

> <s_m_source_file>
/data/baiqing/PycharmProjects/Reinvent-master-3.2/result/LINK_invent/BTK/process_docking_weight1_custom_product_contain_oxygen_bond_distance_aromatic_linkinvent_7_9_3/rearranged_h_0060.sdf

> <i_m_source_file_index>
62

> <r_mmod_Potential_Energy-OPLS-2005>
63.2520904541016

> <r_mmod_Stretch_Energy-OPLS-2005>
65.3802032470703

> <r_mmod_Bend_Energy-OPLS-2005>
162.840927124023

> <r_mmod_Torsional_Energy-OPLS-2005>
295.722229003906

> <r_mmod_Improper_Torsional_Energy-OPLS-2005>
10.3752660751343

> <r_mmod_Van_der_Waal_Energy-OPLS-2005>
152.109527587891

> <r_mmod_Electrostatic_Energy-OPLS-2005>
-412.183746337891

> <r_mmod_Solvation_Energy-OPLS-2005>
-258.097076416016

> <b_mmod_Minimization_Converged-OPLS-2005>
0

> <r_mmod_RMS_Derivative-OPLS-2005>
1.90391862392426

$$$$
62
                    3D
 Structure written by MMmdl.
159167  0  0  1  0            999 V2000
  -30.5863  -14.6539   20.5192 C   0  0  0  0  0  0
  -30.4482  -12.4020   19.4538 C   0  0  0  0  0  0
  -29.5130  -12.5115   18.2265 C   0  0  0  0  0  0
  -28.0358  -12.3408   18.6344 C   0  0  0  0  0  0
  -27.6562  -13.2075   19.8650 C   0  0  2  0  0  0
  -28.6974  -13.0392   20.9952 C   0  0  0  0  0  0
  -25.2601  -13.8161   20.5676 C   0  0  0  0  0  0
  -24.1847  -13.0444   20.9173 C   0  0  0  0  0  0
  -24.6401  -11.6907   20.8728 C   0  0  0  0  0  0
  -23.9068  -10.4297   21.0410 C   0  0  0  0  0  0
  -24.3624   -9.4213   21.9193 C   0  0  0  0  0  0
  -23.6301   -8.2247   22.0757 C   0  0  0  0  0  0
  -22.4283   -8.0285   21.3548 C   0  0  0  0  0  0
  -21.9919   -9.0257   20.4651 C   0  0  0  0  0  0
  -22.7239  -10.2137   20.3063 C   0  0  0  0  0  0
  -21.6850   -6.0747   22.5284 C   0  0  0  0  0  0
  -21.4005   -6.5650   23.8218 C   0  0  0  0  0  0
  -21.3654   -5.6803   24.9181 C   0  0  0  0  0  0
  -21.6039   -4.3064   24.7227 C   0  0  0  0  0  0
  -21.8819   -3.8156   23.4346 C   0  0  0  0  0  0
  -21.9194   -4.6975   22.3405 C   0  0  0  0  0  0
  -22.7864  -13.5244   21.1833 C   0  0  0  0  0  0
  -22.1662   -4.2165   21.0979 F   0  0  0  0  0  0
  -21.5636   -3.4541   25.7734 F   0  0  0  0  0  0
  -30.0143  -13.4070   20.4455 N   0  0  0  0  0  0
  -26.3000  -12.9314   20.3290 N   0  0  0  0  0  0
  -25.9325  -11.6480   20.5736 N   0  0  0  0  0  0
  -22.0506  -12.8231   22.0382 N   0  0  0  0  0  0
  -25.4373  -15.1889   20.4134 N   0  0  0  0  0  0
  -31.7235  -14.8680   20.0850 O   0  0  0  0  0  0
  -21.6642   -6.8884   21.4244 O   0  0  0  0  0  0
  -22.3555  -14.5557   20.6685 O   0  0  0  0  0  0
  -24.6251  -31.8583   23.2016 C   0  0  0  0  0  0
  -25.9100  -32.4769   23.8342 C   0  0  1  0  0  0
  -27.2246  -27.3143   20.1315 C   0  0  0  0  0  0
  -25.5910  -33.8563   24.2267 N   0  0  0  0  0  0
  -23.4188  -30.4799   21.5446 C   0  0  2  0  0  0
  -24.8675  -28.9306   20.1145 C   0  0  0  0  0  0
  -22.7477  -29.4595   22.4944 C   0  0  0  0  0  0
  -18.0314  -28.1381   22.8491 C   0  0  0  0  0  0
  -24.1484  -36.7297   23.2642 C   0  0  0  0  0  0
  -25.9586  -30.7887   21.3731 C   0  0  0  0  0  0
  -26.0349  -29.4144   20.7190 C   0  0  0  0  0  0
  -27.2188  -28.6189   20.7137 C   0  0  0  0  0  0
  -26.0389  -26.8821   19.5010 C   0  0  0  0  0  0
  -24.8711  -27.6698   19.4958 C   0  0  0  0  0  0
  -23.6354  -29.8124   20.1605 C   0  0  0  0  0  0
  -25.4109  -36.3074   24.0330 C   0  0  1  0  0  0
  -20.5913  -28.3651   23.1296 C   0  0  2  0  0  0
  -20.6776  -26.9374   22.5417 C   0  0  0  0  0  0
  -19.5757  -26.6384   21.5209 C   0  0  0  0  0  0
  -18.1948  -26.7921   22.1634 C   0  0  0  0  0  0
  -19.1565  -28.8836   23.2889 C   0  0  0  0  0  0
  -18.9495  -30.1444   23.8902 C   0  0  0  0  0  0
  -17.6495  -30.6566   24.0602 C   0  0  0  0  0  0
  -25.9041  -34.9439   23.5101 C   0  0  0  0  0  0
  -16.5380  -29.9050   23.6393 C   0  0  0  0  0  0
  -16.7297  -28.6484   23.0380 C   0  0  0  0  0  0
  -26.4487  -31.6578   25.0708 C   0  0  0  0  0  0
  -25.3733  -31.3712   26.1448 C   0  0  0  0  0  0
  -27.0347  -30.3004   24.6165 C   0  0  0  0  0  0
  -27.6037  -32.4332   25.7482 C   0  0  0  0  0  0
  -27.5578  -37.1803   24.8466 C   0  0  0  0  0  0
  -21.4188  -29.3009   22.3686 N   0  0  0  0  0  0
  -26.4286  -37.3773   23.9408 N   0  0  0  0  0  0
  -24.6862  -31.0585   22.0975 N   0  0  0  0  0  0
  -23.4200  -28.8152   23.3035 O   0  0  0  0  0  0
  -28.3479  -26.4764   20.1489 O   0  0  0  0  0  0
  -26.5618  -34.8914   22.4670 O   0  0  0  0  0  0
  -23.5415  -32.1387   23.7350 O   0  0  0  0  0  0
  -30.1300  -19.3363   19.8761 C   0  0  0  0  0  0
  -30.4547  -17.9476   20.0633 C   0  0  0  0  0  0
  -28.4863  -17.6966   21.4128 C   0  0  0  0  0  0
  -28.9545  -19.9355   20.4201 C   0  0  0  0  0  0
  -28.1531  -19.0735   21.2335 C   0  0  0  0  0  0
  -29.6169  -17.0783   20.8176 C   0  0  0  0  0  0
  -28.4799  -21.3257   20.0045 C   0  0  0  0  0  0
  -26.8927  -19.5765   21.9289 C   0  0  0  0  0  0
  -28.3066  -23.9538   18.1987 C   0  0  0  0  0  0
  -28.1822  -25.0497   20.5354 C   0  0  0  0  0  0
  -28.8881  -23.9465   19.6255 C   0  0  1  0  0  0
  -27.3059  -21.3679   19.3817 N   0  0  0  0  0  0
  -29.7664  -15.6325   21.0167 N   0  0  0  0  0  0
  -29.1198  -22.5291   20.1824 N   0  3  0  0  0  0
  -31.4874  -12.5483   19.1533 H   0  0  0  0  0  0
  -30.4012  -11.4014   19.8867 H   0  0  0  0  0  0
  -29.7825  -11.7649   17.4781 H   0  0  0  0  0  0
  -29.6454  -13.4838   17.7484 H   0  0  0  0  0  0
  -27.8778  -11.2858   18.8655 H   0  0  0  0  0  0
  -27.3814  -12.5685   17.7916 H   0  0  0  0  0  0
  -27.6827  -14.2458   19.5355 H   0  0  0  0  0  0
  -28.7129  -12.0054   21.3451 H   0  0  0  0  0  0
  -28.4273  -13.6350   21.8688 H   0  0  0  0  0  0
  -25.2780   -9.5679   22.4758 H   0  0  0  0  0  0
  -24.0020   -7.4633   22.7469 H   0  0  0  0  0  0
  -21.0857   -8.8772   19.8951 H   0  0  0  0  0  0
  -22.3710  -10.9679   19.6168 H   0  0  0  0  0  0
  -21.1985   -7.6156   23.9724 H   0  0  0  0  0  0
  -21.1477   -6.0529   25.9086 H   0  0  0  0  0  0
  -22.0603   -2.7620   23.2837 H   0  0  0  0  0  0
  -22.4137  -11.9886   22.4750 H   0  0  0  0  0  0
  -21.1125  -13.1243   22.2617 H   0  0  0  0  0  0
  -24.6698  -15.8424   20.5226 H   0  0  0  0  0  0
  -26.2757  -15.6221   20.0488 H   0  0  0  0  0  0
  -26.7164  -32.5434   23.1088 H   0  0  0  0  0  0
  -25.0028  -33.9697   25.0393 H   0  0  0  0  0  0
  -22.7134  -31.3003   21.3992 H   0  0  0  0  0  0
  -23.3736  -35.9642   23.3301 H   0  0  0  0  0  0
  -24.3581  -36.8912   22.2058 H   0  0  0  0  0  0
  -23.7249  -37.6500   23.6672 H   0  0  0  0  0  0
  -26.0877  -31.5511   20.6040 H   0  0  0  0  0  0
  -26.8398  -30.8400   22.0006 H   0  0  0  0  0  0
  -28.1158  -28.9871   21.1915 H   0  0  0  0  0  0
  -26.0036  -25.9192   19.0134 H   0  0  0  0  0  0
  -23.9767  -27.2931   19.0182 H   0  0  0  0  0  0
  -23.7610  -30.5889   19.4041 H   0  0  0  0  0  0
  -22.7543  -29.2445   19.8562 H   0  0  0  0  0  0
  -25.1296  -36.1922   25.0825 H   0  0  0  0  0  0
  -21.0032  -28.3208   24.1404 H   0  0  0  0  0  0
  -20.5644  -26.2258   23.3606 H   0  0  0  0  0  0
  -21.6653  -26.7370   22.1243 H   0  0  0  0  0  0
  -19.6881  -25.6305   21.1198 H   0  0  0  0  0  0
  -19.6689  -27.3234   20.6764 H   0  0  0  0  0  0
  -17.4219  -26.6635   21.4052 H   0  0  0  0  0  0
  -18.0342  -26.0067   22.9033 H   0  0  0  0  0  0
  -19.7986  -30.7273   24.2206 H   0  0  0  0  0  0
  -17.5066  -31.6242   24.5221 H   0  0  0  0  0  0
  -15.5374  -30.2923   23.7773 H   0  0  0  0  0  0
  -15.8715  -28.0780   22.7127 H   0  0  0  0  0  0
  -24.5889  -30.7082   25.7781 H   0  0  0  0  0  0
  -24.8951  -32.2878   26.4908 H   0  0  0  0  0  0
  -25.8068  -30.8859   27.0198 H   0  0  0  0  0  0
  -26.2920  -29.6733   24.1214 H   0  0  0  0  0  0
  -27.4071  -29.7281   25.4670 H   0  0  0  0  0  0
  -27.8778  -30.4282   23.9373 H   0  0  0  0  0  0
  -27.2618  -33.3618   26.2067 H   0  0  0  0  0  0
  -28.3842  -32.6915   25.0314 H   0  0  0  0  0  0
  -28.0722  -31.8459   26.5387 H   0  0  0  0  0  0
  -28.2599  -38.0095   24.7504 H   0  0  0  0  0  0
  -28.1065  -36.2623   24.6302 H   0  0  0  0  0  0
  -27.2297  -37.1472   25.8869 H   0  0  0  0  0  0
  -20.9359  -29.8708   21.6885 H   0  0  0  0  0  0
  -26.0159  -38.2843   24.1407 H   0  0  0  0  0  0
  -30.7691  -19.9341   19.2417 H   0  0  0  0  0  0
  -31.3387  -17.5502   19.5851 H   0  0  0  0  0  0
  -27.8245  -17.0849   22.0116 H   0  0  0  0  0  0
  -26.6359  -18.9485   22.7823 H   0  0  0  0  0  0
  -26.0425  -19.5610   21.2470 H   0  0  0  0  0  0
  -27.0162  -20.5907   22.3098 H   0  0  0  0  0  0
  -28.6251  -24.8494   17.6631 H   0  0  0  0  0  0
  -27.2171  -23.9549   18.2073 H   0  0  0  0  0  0
  -28.6426  -23.0983   17.6116 H   0  0  0  0  0  0
  -27.1293  -24.7909   20.6428 H   0  0  0  0  0  0
  -28.5834  -24.9574   21.5449 H   0  0  0  0  0  0
  -29.9110  -24.3079   19.5111 H   0  0  0  0  0  0
  -26.8369  -20.4994   19.1707 H   0  0  0  0  0  0
  -26.9074  -22.2268   19.0469 H   0  0  0  0  0  0
  -28.9693  -15.2171   21.4713 H   0  0  0  0  0  0
  -29.9472  -22.4577   20.7649 H   0  0  0  0  0  0
  1 25  1  0  0  0
  1 30  2  0  0  0
  1 83  1  0  0  0
  2  3  1  0  0  0
  2 25  1  0  0  0
  2 85  1  0  0  0
  2 86  1  0  0  0
  3  4  1  0  0  0
  3 87  1  0  0  0
  3 88  1  0  0  0
  4  5  1  0  0  0
  4 89  1  0  0  0
  4 90  1  0  0  0
  5  6  1  0  0  0
  5 26  1  0  0  0
  5 91  1  0  0  0
  6 25  1  0  0  0
  6 92  1  0  0  0
  6 93  1  0  0  0
  7  8  2  0  0  0
  7 26  1  0  0  0
  7 29  1  0  0  0
  8  9  1  0  0  0
  8 22  1  0  0  0
  9 10  1  0  0  0
  9 27  2  0  0  0
 10 11  2  0  0  0
 10 15  1  0  0  0
 11 12  1  0  0  0
 11 94  1  0  0  0
 12 13  2  0  0  0
 12 95  1  0  0  0
 13 14  1  0  0  0
 13 31  1  0  0  0
 14 15  2  0  0  0
 14 96  1  0  0  0
 15 97  1  0  0  0
 16 17  2  0  0  0
 16 21  1  0  0  0
 16 31  1  0  0  0
 17 18  1  0  0  0
 17 98  1  0  0  0
 18 19  2  0  0  0
 18 99  1  0  0  0
 19 20  1  0  0  0
 19 24  1  0  0  0
 20 21  2  0  0  0
 20100  1  0  0  0
 21 23  1  0  0  0
 22 28  1  0  0  0
 22 32  2  0  0  0
 26 27  1  0  0  0
 28101  1  0  0  0
 28102  1  0  0  0
 29103  1  0  0  0
 29104  1  0  0  0
 33 34  1  0  0  0
 33 66  1  0  0  0
 33 70  2  0  0  0
 34 36  1  0  0  0
 34 59  1  0  0  0
 34105  1  0  0  0
 35 44  2  0  0  0
 35 45  1  0  0  0
 35 68  1  0  0  0
 36 56  1  0  0  0
 36106  1  0  0  0
 37 39  1  0  0  0
 37 47  1  0  0  0
 37 66  1  0  0  0
 37107  1  0  0  0
 38 43  2  0  0  0
 38 46  1  0  0  0
 38 47  1  0  0  0
 39 64  1  0  0  0
 39 67  2  0  0  0
 40 52  1  0  0  0
 40 53  2  0  0  0
 40 58  1  0  0  0
 41108  1  0  0  0
 41109  1  0  0  0
 41110  1  0  0  0
 41 48  1  0  0  0
 42 43  1  0  0  0
 42 66  1  0  0  0
 42111  1  0  0  0
 42112  1  0  0  0
 43 44  1  0  0  0
 44113  1  0  0  0
 45 46  2  0  0  0
 45114  1  0  0  0
 46115  1  0  0  0
 47116  1  0  0  0
 47117  1  0  0  0
 48 56  1  0  0  0
 48 65  1  0  0  0
 48118  1  0  0  0
 49 50  1  0  0  0
 49 53  1  0  0  0
 49 64  1  0  0  0
 49119  1  0  0  0
 50 51  1  0  0  0
 50120  1  0  0  0
 50121  1  0  0  0
 51 52  1  0  0  0
 51122  1  0  0  0
 51123  1  0  0  0
 52124  1  0  0  0
 52125  1  0  0  0
 53 54  1  0  0  0
 54 55  2  0  0  0
 54126  1  0  0  0
 55 57  1  0  0  0
 55127  1  0  0  0
 56 69  2  0  0  0
 57 58  2  0  0  0
 57128  1  0  0  0
 58129  1  0  0  0
 59 60  1  0  0  0
 59 61  1  0  0  0
 59 62  1  0  0  0
 60130  1  0  0  0
 60131  1  0  0  0
 60132  1  0  0  0
 61133  1  0  0  0
 61134  1  0  0  0
 61135  1  0  0  0
 62136  1  0  0  0
 62137  1  0  0  0
 62138  1  0  0  0
 63 65  1  0  0  0
 63139  1  0  0  0
 63140  1  0  0  0
 63141  1  0  0  0
 64142  1  0  0  0
 65143  1  0  0  0
 68 80  1  0  0  0
 71 72  2  0  0  0
 71 74  1  0  0  0
 71144  1  0  0  0
 72 76  1  0  0  0
 72145  1  0  0  0
 73 75  1  0  0  0
 73 76  2  0  0  0
 73146  1  0  0  0
 74 75  2  0  0  0
 74 77  1  0  0  0
 75 78  1  0  0  0
 76 83  1  0  0  0
 77 82  1  0  0  0
 77 84  2  0  0  0
 78147  1  0  0  0
 78148  1  0  0  0
 78149  1  0  0  0
 79150  1  0  0  0
 79151  1  0  0  0
 79152  1  0  0  0
 79 81  1  0  0  0
 80 81  1  0  0  0
 80153  1  0  0  0
 80154  1  0  0  0
 81 84  1  0  0  0
 81155  1  0  0  0
 82156  1  0  0  0
 82157  1  0  0  0
 83158  1  0  0  0
 84159  1  0  0  0
M  CHG  1  84   1
M  ISO  4   1 100  68 101  80 101  83 100
M  END
> <chiral flag>
0

> <version>
0

> <s_m_source_file>
/data/baiqing/PycharmProjects/Reinvent-master-3.2/result/LINK_invent/BTK/process_docking_weight1_custom_product_contain_oxygen_bond_distance_aromatic_linkinvent_7_9_3/rearranged_h_0060.sdf

> <i_m_source_file_index>
63

> <r_mmod_Potential_Energy-OPLS-2005>
-83.7112121582031

> <r_mmod_Stretch_Energy-OPLS-2005>
88.0141067504883

> <r_mmod_Bend_Energy-OPLS-2005>
162.532272338867

> <r_mmod_Torsional_Energy-OPLS-2005>
239.141723632812

> <r_mmod_Improper_Torsional_Energy-OPLS-2005>
4.4536452293396

> <r_mmod_Van_der_Waal_Energy-OPLS-2005>
142.43212890625

> <r_mmod_Electrostatic_Energy-OPLS-2005>
-364.515686035156

> <r_mmod_Solvation_Energy-OPLS-2005>
-406.960174560547

> <b_mmod_Minimization_Converged-OPLS-2005>
0

> <r_mmod_RMS_Derivative-OPLS-2005>
1.85542821884155

$$$$
63
                    3D
 Structure written by MMmdl.
157165  0  0  1  0            999 V2000
  -30.5870  -14.7422   20.4734 C   0  0  0  0  0  0
  -30.4274  -12.4521   19.4955 C   0  0  0  0  0  0
  -29.5135  -12.5255   18.2510 C   0  0  0  0  0  0
  -28.0366  -12.3464   18.6505 C   0  0  0  0  0  0
  -27.6418  -13.2338   19.8617 C   0  0  2  0  0  0
  -28.6774  -13.1467   21.0060 C   0  0  0  0  0  0
  -25.2486  -13.8227   20.5692 C   0  0  0  0  0  0
  -24.1783  -13.0464   20.9196 C   0  0  0  0  0  0
  -24.6383  -11.6948   20.8755 C   0  0  0  0  0  0
  -23.9077  -10.4315   21.0400 C   0  0  0  0  0  0
  -24.3634   -9.4225   21.9172 C   0  0  0  0  0  0
  -23.6309   -8.2255   22.0738 C   0  0  0  0  0  0
  -22.4295   -8.0281   21.3533 C   0  0  0  0  0  0
  -21.9927   -9.0254   20.4636 C   0  0  0  0  0  0
  -22.7250  -10.2146   20.3047 C   0  0  0  0  0  0
  -21.6862   -6.0737   22.5282 C   0  0  0  0  0  0
  -21.4014   -6.5636   23.8216 C   0  0  0  0  0  0
  -21.3662   -5.6786   24.9172 C   0  0  0  0  0  0
  -21.6053   -4.3045   24.7225 C   0  0  0  0  0  0
  -21.8812   -3.8140   23.4335 C   0  0  0  0  0  0
  -21.9191   -4.6963   22.3403 C   0  0  0  0  0  0
  -22.7801  -13.5237   21.1855 C   0  0  0  0  0  0
  -22.1652   -4.2152   21.0979 F   0  0  0  0  0  0
  -21.5643   -3.4525   25.7730 F   0  0  0  0  0  0
  -29.9875  -13.5031   20.4464 N   0  0  0  0  0  0
  -26.2907  -12.9429   20.3287 N   0  0  0  0  0  0
  -25.9314  -11.6576   20.5769 N   0  0  0  0  0  0
  -22.0435  -12.8242   22.0418 N   0  0  0  0  0  0
  -25.4204  -15.1950   20.4165 N   0  0  0  0  0  0
  -31.7472  -14.8658   20.0643 O   0  0  0  0  0  0
  -21.6643   -6.8877   21.4244 O   0  0  0  0  0  0
  -22.3486  -14.5521   20.6675 O   0  0  0  0  0  0
  -24.6291  -31.8556   23.2010 C   0  0  0  0  0  0
  -25.9121  -32.4750   23.8335 C   0  0  1  0  0  0
  -27.2204  -27.2702   20.1376 C   0  0  0  0  0  0
  -25.5921  -33.8557   24.2253 N   0  0  0  0  0  0
  -23.4268  -30.4805   21.5411 C   0  0  2  0  0  0
  -24.8764  -28.9352   20.1078 C   0  0  0  0  0  0
  -22.7506  -29.4592   22.4883 C   0  0  0  0  0  0
  -18.0292  -28.1404   22.8486 C   0  0  0  0  0  0
  -24.1493  -36.7305   23.2631 C   0  0  0  0  0  0
  -25.9724  -30.7725   21.3837 C   0  0  0  0  0  0
  -26.0452  -29.3953   20.7292 C   0  0  0  0  0  0
  -27.2157  -28.5715   20.7432 C   0  0  0  0  0  0
  -26.0358  -26.8938   19.4614 C   0  0  0  0  0  0
  -24.8783  -27.6922   19.4612 C   0  0  0  0  0  0
  -23.6477  -29.8208   20.1548 C   0  0  0  0  0  0
  -25.4118  -36.3063   24.0318 C   0  0  1  0  0  0
  -20.5906  -28.3703   23.1283 C   0  0  2  0  0  0
  -20.6784  -26.9414   22.5426 C   0  0  0  0  0  0
  -19.5750  -26.6390   21.5241 C   0  0  0  0  0  0
  -18.1929  -26.7939   22.1642 C   0  0  0  0  0  0
  -19.1553  -28.8874   23.2877 C   0  0  0  0  0  0
  -18.9469  -30.1490   23.8865 C   0  0  0  0  0  0
  -17.6461  -30.6593   24.0576 C   0  0  0  0  0  0
  -25.9054  -34.9436   23.5085 C   0  0  0  0  0  0
  -16.5354  -29.9098   23.6329 C   0  0  0  0  0  0
  -16.7277  -28.6541   23.0305 C   0  0  0  0  0  0
  -26.4481  -31.6571   25.0731 C   0  0  0  0  0  0
  -25.3706  -31.3756   26.1464 C   0  0  0  0  0  0
  -27.0316  -30.2961   24.6249 C   0  0  0  0  0  0
  -27.6018  -32.4316   25.7521 C   0  0  0  0  0  0
  -27.5583  -37.1812   24.8455 C   0  0  0  0  0  0
  -21.4211  -29.3049   22.3664 N   0  0  0  0  0  0
  -26.4277  -37.3779   23.9408 N   0  0  0  0  0  0
  -24.6944  -31.0555   22.0967 N   0  0  0  0  0  0
  -23.4222  -28.8103   23.2945 O   0  0  0  0  0  0
  -28.3064  -26.3654   20.2269 O   0  0  0  0  0  0
  -26.5635  -34.8907   22.4659 O   0  0  0  0  0  0
  -23.5453  -32.1344   23.7340 O   0  0  0  0  0  0
  -29.7037  -17.1045   18.7056 C   0  0  0  0  0  0
  -29.5404  -18.4907   20.6872 C   0  0  0  0  0  0
  -29.5780  -18.2517   17.8933 C   0  0  0  0  0  0
  -29.5289  -19.5527   18.4762 C   0  0  0  0  0  0
  -29.7357  -17.1644   20.1096 C   0  0  0  0  0  0
  -29.4236  -19.7130   19.8946 C   0  0  0  0  0  0
  -28.5954  -22.1949   20.1055 C   0  0  0  0  0  0
  -29.6596  -20.7696   17.5578 C   0  0  0  0  0  0
  -28.9615  -23.6918   20.5487 C   0  0  0  0  0  0
  -28.0650  -24.9047   19.9571 C   0  0  0  0  0  0
  -29.5115  -18.0403   16.3781 C   0  0  0  0  0  0
  -29.3393  -21.0829   20.4871 N   0  0  0  0  0  0
  -29.8410  -15.8636   20.8262 N   0  0  0  0  0  0
  -27.5824  -22.0475   19.4188 O   0  0  0  0  0  0
  -29.2160  -16.7753   16.0712 F   0  0  0  0  0  0
  -28.5613  -18.8004   15.8319 F   0  0  0  0  0  0
  -30.6863  -18.3311   15.8186 F   0  0  0  0  0  0
  -31.4706  -12.5747   19.2016 H   0  0  0  0  0  0
  -30.3642  -11.4683   19.9645 H   0  0  0  0  0  0
  -29.8046  -11.7672   17.5233 H   0  0  0  0  0  0
  -29.6413  -13.4896   17.7565 H   0  0  0  0  0  0
  -27.8828  -11.2959   18.8989 H   0  0  0  0  0  0
  -27.3879  -12.5539   17.7974 H   0  0  0  0  0  0
  -27.6445  -14.2607   19.4958 H   0  0  0  0  0  0
  -28.7037  -12.1402   21.4269 H   0  0  0  0  0  0
  -28.4038  -13.8129   21.8263 H   0  0  0  0  0  0
  -25.2764   -9.5718   22.4753 H   0  0  0  0  0  0
  -24.0020   -7.4649   22.7464 H   0  0  0  0  0  0
  -21.0840   -8.8764   19.8954 H   0  0  0  0  0  0
  -22.3666  -10.9683   19.6155 H   0  0  0  0  0  0
  -21.1995   -7.6142   23.9726 H   0  0  0  0  0  0
  -21.1498   -6.0509   25.9086 H   0  0  0  0  0  0
  -22.0593   -2.7606   23.2838 H   0  0  0  0  0  0
  -22.4033  -11.9927   22.4869 H   0  0  0  0  0  0
  -21.1046  -13.1264   22.2580 H   0  0  0  0  0  0
  -24.6593  -15.8529   20.5354 H   0  0  0  0  0  0
  -26.2831  -15.6340   20.1198 H   0  0  0  0  0  0
  -26.7196  -32.5413   23.1092 H   0  0  0  0  0  0
  -25.0019  -33.9683   25.0361 H   0  0  0  0  0  0
  -22.7209  -31.3020   21.3965 H   0  0  0  0  0  0
  -23.3739  -35.9656   23.3274 H   0  0  0  0  0  0
  -24.3570  -36.8949   22.2046 H   0  0  0  0  0  0
  -23.7274  -37.6507   23.6677 H   0  0  0  0  0  0
  -26.1130  -31.5349   20.6162 H   0  0  0  0  0  0
  -26.8482  -30.8191   22.0193 H   0  0  0  0  0  0
  -28.0996  -28.9071   21.2674 H   0  0  0  0  0  0
  -25.9723  -25.9570   18.9302 H   0  0  0  0  0  0
  -23.9928  -27.3392   18.9504 H   0  0  0  0  0  0
  -23.7760  -30.5981   19.4004 H   0  0  0  0  0  0
  -22.7663  -29.2580   19.8397 H   0  0  0  0  0  0
  -25.1310  -36.1879   25.0812 H   0  0  0  0  0  0
  -21.0021  -28.3288   24.1397 H   0  0  0  0  0  0
  -20.5711  -26.2301   23.3632 H   0  0  0  0  0  0
  -21.6643  -26.7442   22.1202 H   0  0  0  0  0  0
  -19.6896  -25.6310   21.1251 H   0  0  0  0  0  0
  -19.6683  -27.3219   20.6790 H   0  0  0  0  0  0
  -17.4205  -26.6701   21.4036 H   0  0  0  0  0  0
  -18.0299  -26.0091   22.9042 H   0  0  0  0  0  0
  -19.7947  -30.7345   24.2172 H   0  0  0  0  0  0
  -17.5007  -31.6247   24.5222 H   0  0  0  0  0  0
  -15.5355  -30.2981   23.7683 H   0  0  0  0  0  0
  -15.8680  -28.0896   22.6941 H   0  0  0  0  0  0
  -24.5890  -30.7073   25.7838 H   0  0  0  0  0  0
  -24.8901  -32.2944   26.4832 H   0  0  0  0  0  0
  -25.8047  -30.9001   27.0265 H   0  0  0  0  0  0
  -26.2910  -29.6724   24.1237 H   0  0  0  0  0  0
  -27.3891  -29.7216   25.4800 H   0  0  0  0  0  0
  -27.8834  -30.4170   23.9559 H   0  0  0  0  0  0
  -27.2581  -33.3602   26.2089 H   0  0  0  0  0  0
  -28.3855  -32.6890   25.0387 H   0  0  0  0  0  0
  -28.0642  -31.8440   26.5457 H   0  0  0  0  0  0
  -28.2585  -38.0120   24.7493 H   0  0  0  0  0  0
  -28.1086  -36.2648   24.6279 H   0  0  0  0  0  0
  -27.2297  -37.1470   25.8851 H   0  0  0  0  0  0
  -20.9372  -29.8792   21.6908 H   0  0  0  0  0  0
  -26.0143  -38.2841   24.1411 H   0  0  0  0  0  0
  -29.7689  -16.1411   18.2227 H   0  0  0  0  0  0
  -29.4950  -18.5794   21.7635 H   0  0  0  0  0  0
  -30.1675  -20.5446   16.6238 H   0  0  0  0  0  0
  -30.2623  -21.5511   18.0204 H   0  0  0  0  0  0
  -28.6834  -21.1789   17.3020 H   0  0  0  0  0  0
  -30.0044  -23.8634   20.2794 H   0  0  0  0  0  0
  -28.9233  -23.7320   21.6370 H   0  0  0  0  0  0
  -27.0527  -24.6620   20.2800 H   0  0  0  0  0  0
  -28.0641  -24.8043   18.8712 H   0  0  0  0  0  0
  -29.9727  -21.2526   21.2569 H   0  0  0  0  0  0
  -29.0802  -15.6743   21.4636 H   0  0  0  0  0  0
  1 25  1  0  0  0
  1 30  2  0  0  0
  1 83  1  0  0  0
  2  3  1  0  0  0
  2 25  1  0  0  0
  2 88  1  0  0  0
  2 89  1  0  0  0
  3  4  1  0  0  0
  3 90  1  0  0  0
  3 91  1  0  0  0
  4  5  1  0  0  0
  4 92  1  0  0  0
  4 93  1  0  0  0
  5  6  1  0  0  0
  5 26  1  0  0  0
  5 94  1  0  0  0
  6 25  1  0  0  0
  6 95  1  0  0  0
  6 96  1  0  0  0
  7  8  2  0  0  0
  7 26  1  0  0  0
  7 29  1  0  0  0
  8  9  1  0  0  0
  8 22  1  0  0  0
  9 10  1  0  0  0
  9 27  2  0  0  0
 10 11  2  0  0  0
 10 15  1  0  0  0
 11 12  1  0  0  0
 11 97  1  0  0  0
 12 13  2  0  0  0
 12 98  1  0  0  0
 13 14  1  0  0  0
 13 31  1  0  0  0
 14 15  2  0  0  0
 14 99  1  0  0  0
 15100  1  0  0  0
 16 17  2  0  0  0
 16 21  1  0  0  0
 16 31  1  0  0  0
 17 18  1  0  0  0
 17101  1  0  0  0
 18 19  2  0  0  0
 18102  1  0  0  0
 19 20  1  0  0  0
 19 24  1  0  0  0
 20 21  2  0  0  0
 20103  1  0  0  0
 21 23  1  0  0  0
 22 28  1  0  0  0
 22 32  2  0  0  0
 26 27  1  0  0  0
 28104  1  0  0  0
 28105  1  0  0  0
 29106  1  0  0  0
 29107  1  0  0  0
 33 34  1  0  0  0
 33 66  1  0  0  0
 33 70  2  0  0  0
 34 36  1  0  0  0
 34 59  1  0  0  0
 34108  1  0  0  0
 35 44  2  0  0  0
 35 45  1  0  0  0
 35 68  1  0  0  0
 36 56  1  0  0  0
 36109  1  0  0  0
 37 39  1  0  0  0
 37 47  1  0  0  0
 37 66  1  0  0  0
 37110  1  0  0  0
 38 43  2  0  0  0
 38 46  1  0  0  0
 38 47  1  0  0  0
 39 64  1  0  0  0
 39 67  2  0  0  0
 40 52  1  0  0  0
 40 53  2  0  0  0
 40 58  1  0  0  0
 41111  1  0  0  0
 41112  1  0  0  0
 41113  1  0  0  0
 41 48  1  0  0  0
 42 43  1  0  0  0
 42 66  1  0  0  0
 42114  1  0  0  0
 42115  1  0  0  0
 43 44  1  0  0  0
 44116  1  0  0  0
 45 46  2  0  0  0
 45117  1  0  0  0
 46118  1  0  0  0
 47119  1  0  0  0
 47120  1  0  0  0
 48 56  1  0  0  0
 48 65  1  0  0  0
 48121  1  0  0  0
 49 50  1  0  0  0
 49 53  1  0  0  0
 49 64  1  0  0  0
 49122  1  0  0  0
 50 51  1  0  0  0
 50123  1  0  0  0
 50124  1  0  0  0
 51 52  1  0  0  0
 51125  1  0  0  0
 51126  1  0  0  0
 52127  1  0  0  0
 52128  1  0  0  0
 53 54  1  0  0  0
 54 55  2  0  0  0
 54129  1  0  0  0
 55 57  1  0  0  0
 55130  1  0  0  0
 56 69  2  0  0  0
 57 58  2  0  0  0
 57131  1  0  0  0
 58132  1  0  0  0
 59 60  1  0  0  0
 59 61  1  0  0  0
 59 62  1  0  0  0
 60133  1  0  0  0
 60134  1  0  0  0
 60135  1  0  0  0
 61136  1  0  0  0
 61137  1  0  0  0
 61138  1  0  0  0
 62139  1  0  0  0
 62140  1  0  0  0
 62141  1  0  0  0
 63 65  1  0  0  0
 63142  1  0  0  0
 63143  1  0  0  0
 63144  1  0  0  0
 64145  1  0  0  0
 65146  1  0  0  0
 68 80  1  0  0  0
 71 73  2  0  0  0
 71 75  1  0  0  0
 71147  1  0  0  0
 72 75  2  0  0  0
 72 76  1  0  0  0
 72148  1  0  0  0
 73 74  1  0  0  0
 73 81  1  0  0  0
 74 76  2  0  0  0
 74 78  1  0  0  0
 75 83  1  0  0  0
 76 82  1  0  0  0
 77 79  1  0  0  0
 77 82  1  0  0  0
 77 84  2  0  0  0
 78149  1  0  0  0
 78150  1  0  0  0
 78151  1  0  0  0
 79 80  1  0  0  0
 79152  1  0  0  0
 79153  1  0  0  0
 80154  1  0  0  0
 80155  1  0  0  0
 81 85  1  0  0  0
 81 86  1  0  0  0
 81 87  1  0  0  0
 82156  1  0  0  0
 83157  1  0  0  0
M  ISO  4   1 100  68 101  80 101  83 100
M  END
> <chiral flag>
0

> <version>
0

> <s_m_source_file>
/data/baiqing/PycharmProjects/Reinvent-master-3.2/result/LINK_invent/BTK/process_docking_weight1_custom_product_contain_oxygen_bond_distance_aromatic_linkinvent_7_9_3/rearranged_h_0060.sdf

> <i_m_source_file_index>
64

> <r_mmod_Potential_Energy-OPLS-2005>
198.206893920898

> <r_mmod_Stretch_Energy-OPLS-2005>
128.771118164062

> <r_mmod_Bend_Energy-OPLS-2005>
157.978469848633

> <r_mmod_Torsional_Energy-OPLS-2005>
272.837707519531

> <r_mmod_Improper_Torsional_Energy-OPLS-2005>
5.27803516387939

> <r_mmod_Van_der_Waal_Energy-OPLS-2005>
158.309509277344

> <r_mmod_Electrostatic_Energy-OPLS-2005>
-378.026306152344

> <r_mmod_Solvation_Energy-OPLS-2005>
-231.862731933594

> <b_mmod_Minimization_Converged-OPLS-2005>
0

> <r_mmod_RMS_Derivative-OPLS-2005>
2.99827837944031

$$$$
64
                    3D
 Structure written by MMmdl.
160169  0  0  1  0            999 V2000
  -30.6180  -14.6447   20.4973 C   0  0  0  0  0  0
  -30.4409  -12.3945   19.4512 C   0  0  0  0  0  0
  -29.5084  -12.5057   18.2238 C   0  0  0  0  0  0
  -28.0315  -12.3417   18.6362 C   0  0  0  0  0  0
  -27.6535  -13.2142   19.8627 C   0  0  2  0  0  0
  -28.6990  -13.0706   20.9921 C   0  0  0  0  0  0
  -25.2565  -13.8164   20.5679 C   0  0  0  0  0  0
  -24.1831  -13.0436   20.9198 C   0  0  0  0  0  0
  -24.6394  -11.6905   20.8745 C   0  0  0  0  0  0
  -23.9062  -10.4291   21.0407 C   0  0  0  0  0  0
  -24.3614   -9.4208   21.9185 C   0  0  0  0  0  0
  -23.6291   -8.2242   22.0754 C   0  0  0  0  0  0
  -22.4273   -8.0280   21.3544 C   0  0  0  0  0  0
  -21.9907   -9.0253   20.4646 C   0  0  0  0  0  0
  -22.7235  -10.2134   20.3056 C   0  0  0  0  0  0
  -21.6852   -6.0735   22.5280 C   0  0  0  0  0  0
  -21.4013   -6.5640   23.8213 C   0  0  0  0  0  0
  -21.3660   -5.6792   24.9175 C   0  0  0  0  0  0
  -21.6043   -4.3054   24.7225 C   0  0  0  0  0  0
  -21.8820   -3.8146   23.4345 C   0  0  0  0  0  0
  -21.9193   -4.6964   22.3402 C   0  0  0  0  0  0
  -22.7854  -13.5233   21.1858 C   0  0  0  0  0  0
  -22.1661   -4.2149   21.0980 F   0  0  0  0  0  0
  -21.5630   -3.4538   25.7737 F   0  0  0  0  0  0
  -30.0139  -13.4158   20.4281 N   0  0  0  0  0  0
  -26.2990  -12.9339   20.3313 N   0  0  0  0  0  0
  -25.9322  -11.6498   20.5757 N   0  0  0  0  0  0
  -22.0493  -12.8226   22.0413 N   0  0  0  0  0  0
  -25.4275  -15.1883   20.4062 N   0  0  0  0  0  0
  -31.7850  -14.8043   20.1272 O   0  0  0  0  0  0
  -21.6639   -6.8877   21.4240 O   0  0  0  0  0  0
  -22.3543  -14.5542   20.6709 O   0  0  0  0  0  0
  -24.6269  -31.8597   23.2031 C   0  0  0  0  0  0
  -25.9115  -32.4780   23.8357 C   0  0  1  0  0  0
  -27.2240  -27.3187   20.1121 C   0  0  0  0  0  0
  -25.5930  -33.8581   24.2286 N   0  0  0  0  0  0
  -23.4201  -30.4852   21.5456 C   0  0  2  0  0  0
  -24.8657  -28.9412   20.1127 C   0  0  0  0  0  0
  -22.7476  -29.4630   22.4931 C   0  0  0  0  0  0
  -18.0287  -28.1387   22.8487 C   0  0  0  0  0  0
  -24.1489  -36.7294   23.2640 C   0  0  0  0  0  0
  -25.9624  -30.7914   21.3734 C   0  0  0  0  0  0
  -26.0366  -29.4193   20.7143 C   0  0  0  0  0  0
  -27.2198  -28.6213   20.7016 C   0  0  0  0  0  0
  -26.0254  -26.8938   19.4922 C   0  0  0  0  0  0
  -24.8621  -27.6838   19.4935 C   0  0  0  0  0  0
  -23.6349  -29.8222   20.1606 C   0  0  0  0  0  0
  -25.4114  -36.3086   24.0332 C   0  0  1  0  0  0
  -20.5887  -28.3692   23.1279 C   0  0  2  0  0  0
  -20.6778  -26.9416   22.5405 C   0  0  0  0  0  0
  -19.5753  -26.6385   21.5210 C   0  0  0  0  0  0
  -18.1932  -26.7931   22.1622 C   0  0  0  0  0  0
  -19.1540  -28.8855   23.2882 C   0  0  0  0  0  0
  -18.9464  -30.1456   23.8899 C   0  0  0  0  0  0
  -17.6465  -30.6590   24.0564 C   0  0  0  0  0  0
  -25.9049  -34.9454   23.5108 C   0  0  0  0  0  0
  -16.5355  -29.9090   23.6330 C   0  0  0  0  0  0
  -16.7274  -28.6507   23.0351 C   0  0  0  0  0  0
  -26.4497  -31.6589   25.0725 C   0  0  0  0  0  0
  -25.3734  -31.3721   26.1454 C   0  0  0  0  0  0
  -27.0340  -30.3015   24.6172 C   0  0  0  0  0  0
  -27.6056  -32.4319   25.7498 C   0  0  0  0  0  0
  -27.5580  -37.1804   24.8467 C   0  0  0  0  0  0
  -21.4190  -29.3051   22.3675 N   0  0  0  0  0  0
  -26.4293  -37.3780   23.9410 N   0  0  0  0  0  0
  -24.6889  -31.0616   22.0978 N   0  0  0  0  0  0
  -23.4203  -28.8160   23.3001 O   0  0  0  0  0  0
  -28.3447  -26.4710   20.1465 O   0  0  0  0  0  0
  -26.5613  -34.8922   22.4671 O   0  0  0  0  0  0
  -23.5432  -32.1388   23.7365 O   0  0  0  0  0  0
  -31.1269  -19.2937   20.4678 C   0  0  0  0  0  0
  -28.7792  -19.3785   20.9434 C   0  0  0  0  0  0
  -31.0980  -17.8667   20.4601 C   0  0  0  0  0  0
  -28.7484  -17.9496   20.9459 C   0  0  0  0  0  0
  -29.9853  -20.1019   20.7522 C   0  0  0  0  0  0
  -29.9054  -17.1481   20.7298 C   0  0  0  0  0  0
  -31.1407  -22.0701   21.7243 C   0  0  0  0  0  0
  -31.8041  -21.3722   22.6668 C   0  0  0  0  0  0
  -31.4623  -23.5466   21.5349 C   0  0  0  0  0  0
  -30.2107  -24.4248   21.5031 C   0  0  0  0  0  0
  -28.9797  -22.4377   20.5079 C   0  0  0  0  0  0
  -29.3221  -23.9966   20.3399 C   0  0  1  0  0  0
  -28.1038  -25.0056   20.1624 C   0  0  0  0  0  0
  -30.1090  -21.5339   20.9294 N   0  0  0  0  0  0
  -29.7892  -15.6894   20.8202 N   0  0  0  0  0  0
  -31.4812  -12.5243   19.1477 H   0  0  0  0  0  0
  -30.3807  -11.3988   19.8935 H   0  0  0  0  0  0
  -29.7737  -11.7538   17.4796 H   0  0  0  0  0  0
  -29.6481  -13.4749   17.7421 H   0  0  0  0  0  0
  -27.8700  -11.2886   18.8692 H   0  0  0  0  0  0
  -27.3762  -12.5692   17.7946 H   0  0  0  0  0  0
  -27.6704  -14.2484   19.5190 H   0  0  0  0  0  0
  -28.7119  -12.0490   21.3748 H   0  0  0  0  0  0
  -28.4442  -13.7024   21.8445 H   0  0  0  0  0  0
  -25.2760   -9.5684   22.4759 H   0  0  0  0  0  0
  -24.0002   -7.4632   22.7470 H   0  0  0  0  0  0
  -21.0840   -8.8772   19.8950 H   0  0  0  0  0  0
  -22.3695  -10.9673   19.6165 H   0  0  0  0  0  0
  -21.2005   -7.6148   23.9717 H   0  0  0  0  0  0
  -21.1482   -6.0522   25.9078 H   0  0  0  0  0  0
  -22.0599   -2.7608   23.2845 H   0  0  0  0  0  0
  -22.4103  -11.9883   22.4798 H   0  0  0  0  0  0
  -21.1112  -13.1254   22.2619 H   0  0  0  0  0  0
  -24.6539  -15.8373   20.5006 H   0  0  0  0  0  0
  -26.2608  -15.6206   20.0290 H   0  0  0  0  0  0
  -26.7182  -32.5445   23.1104 H   0  0  0  0  0  0
  -25.0087  -33.9725   25.0436 H   0  0  0  0  0  0
  -22.7144  -31.3062   21.4034 H   0  0  0  0  0  0
  -23.3751  -35.9626   23.3302 H   0  0  0  0  0  0
  -24.3582  -36.8911   22.2054 H   0  0  0  0  0  0
  -23.7242  -37.6498   23.6655 H   0  0  0  0  0  0
  -26.0935  -31.5559   20.6064 H   0  0  0  0  0  0
  -26.8435  -30.8389   22.0019 H   0  0  0  0  0  0
  -28.1194  -28.9862   21.1773 H   0  0  0  0  0  0
  -25.9517  -25.9381   18.9982 H   0  0  0  0  0  0
  -23.9649  -27.3118   19.0179 H   0  0  0  0  0  0
  -23.7567  -30.5998   19.4055 H   0  0  0  0  0  0
  -22.7547  -29.2533   19.8561 H   0  0  0  0  0  0
  -25.1295  -36.1939   25.0825 H   0  0  0  0  0  0
  -20.9980  -28.3266   24.1399 H   0  0  0  0  0  0
  -20.5676  -26.2304   23.3606 H   0  0  0  0  0  0
  -21.6646  -26.7445   22.1196 H   0  0  0  0  0  0
  -19.6917  -25.6295   21.1240 H   0  0  0  0  0  0
  -19.6691  -27.3193   20.6738 H   0  0  0  0  0  0
  -17.4201  -26.6675   21.4027 H   0  0  0  0  0  0
  -18.0337  -26.0075   22.9022 H   0  0  0  0  0  0
  -19.7942  -30.7269   24.2270 H   0  0  0  0  0  0
  -17.5023  -31.6272   24.5163 H   0  0  0  0  0  0
  -15.5356  -30.2996   23.7655 H   0  0  0  0  0  0
  -15.8673  -28.0829   22.7063 H   0  0  0  0  0  0
  -24.5918  -30.7061   25.7785 H   0  0  0  0  0  0
  -24.8917  -32.2885   26.4874 H   0  0  0  0  0  0
  -25.8067  -30.8908   27.0231 H   0  0  0  0  0  0
  -26.2912  -29.6767   24.1198 H   0  0  0  0  0  0
  -27.4049  -29.7268   25.4667 H   0  0  0  0  0  0
  -27.8775  -30.4309   23.9386 H   0  0  0  0  0  0
  -27.2667  -33.3620   26.2072 H   0  0  0  0  0  0
  -28.3871  -32.6875   25.0330 H   0  0  0  0  0  0
  -28.0717  -31.8444   26.5419 H   0  0  0  0  0  0
  -28.2597  -38.0100   24.7510 H   0  0  0  0  0  0
  -28.1074  -36.2632   24.6294 H   0  0  0  0  0  0
  -27.2297  -37.1455   25.8869 H   0  0  0  0  0  0
  -20.9362  -29.8794   21.6906 H   0  0  0  0  0  0
  -26.0175  -38.2856   24.1408 H   0  0  0  0  0  0
  -32.0768  -19.7787   20.2952 H   0  0  0  0  0  0
  -27.8661  -19.9123   21.1626 H   0  0  0  0  0  0
  -32.0208  -17.3371   20.2730 H   0  0  0  0  0  0
  -27.8026  -17.4672   21.1481 H   0  0  0  0  0  0
  -32.5757  -21.8374   23.2646 H   0  0  0  0  0  0
  -31.5957  -20.3341   22.8818 H   0  0  0  0  0  0
  -32.0378  -23.6651   20.6154 H   0  0  0  0  0  0
  -32.1112  -23.8950   22.3405 H   0  0  0  0  0  0
  -30.5001  -25.4705   21.3931 H   0  0  0  0  0  0
  -29.6669  -24.3459   22.4456 H   0  0  0  0  0  0
  -28.5552  -22.0639   19.5750 H   0  0  0  0  0  0
  -28.1919  -22.3382   21.2556 H   0  0  0  0  0  0
  -29.9226  -24.0902   19.4340 H   0  0  0  0  0  0
  -27.3782  -24.8003   20.9509 H   0  0  0  0  0  0
  -27.6306  -24.7162   19.2251 H   0  0  0  0  0  0
  -28.8736  -15.3655   21.0905 H   0  0  0  0  0  0
  1 25  1  0  0  0
  1 30  2  0  0  0
  1 85  1  0  0  0
  2  3  1  0  0  0
  2 25  1  0  0  0
  2 86  1  0  0  0
  2 87  1  0  0  0
  3  4  1  0  0  0
  3 88  1  0  0  0
  3 89  1  0  0  0
  4  5  1  0  0  0
  4 90  1  0  0  0
  4 91  1  0  0  0
  5  6  1  0  0  0
  5 26  1  0  0  0
  5 92  1  0  0  0
  6 25  1  0  0  0
  6 93  1  0  0  0
  6 94  1  0  0  0
  7  8  2  0  0  0
  7 26  1  0  0  0
  7 29  1  0  0  0
  8  9  1  0  0  0
  8 22  1  0  0  0
  9 10  1  0  0  0
  9 27  2  0  0  0
 10 11  2  0  0  0
 10 15  1  0  0  0
 11 12  1  0  0  0
 11 95  1  0  0  0
 12 13  2  0  0  0
 12 96  1  0  0  0
 13 14  1  0  0  0
 13 31  1  0  0  0
 14 15  2  0  0  0
 14 97  1  0  0  0
 15 98  1  0  0  0
 16 17  2  0  0  0
 16 21  1  0  0  0
 16 31  1  0  0  0
 17 18  1  0  0  0
 17 99  1  0  0  0
 18 19  2  0  0  0
 18100  1  0  0  0
 19 20  1  0  0  0
 19 24  1  0  0  0
 20 21  2  0  0  0
 20101  1  0  0  0
 21 23  1  0  0  0
 22 28  1  0  0  0
 22 32  2  0  0  0
 26 27  1  0  0  0
 28102  1  0  0  0
 28103  1  0  0  0
 29104  1  0  0  0
 29105  1  0  0  0
 33 34  1  0  0  0
 33 66  1  0  0  0
 33 70  2  0  0  0
 34 36  1  0  0  0
 34 59  1  0  0  0
 34106  1  0  0  0
 35 44  2  0  0  0
 35 45  1  0  0  0
 35 68  1  0  0  0
 36 56  1  0  0  0
 36107  1  0  0  0
 37 39  1  0  0  0
 37 47  1  0  0  0
 37 66  1  0  0  0
 37108  1  0  0  0
 38 43  2  0  0  0
 38 46  1  0  0  0
 38 47  1  0  0  0
 39 64  1  0  0  0
 39 67  2  0  0  0
 40 52  1  0  0  0
 40 53  2  0  0  0
 40 58  1  0  0  0
 41109  1  0  0  0
 41110  1  0  0  0
 41111  1  0  0  0
 41 48  1  0  0  0
 42 43  1  0  0  0
 42 66  1  0  0  0
 42112  1  0  0  0
 42113  1  0  0  0
 43 44  1  0  0  0
 44114  1  0  0  0
 45 46  2  0  0  0
 45115  1  0  0  0
 46116  1  0  0  0
 47117  1  0  0  0
 47118  1  0  0  0
 48 56  1  0  0  0
 48 65  1  0  0  0
 48119  1  0  0  0
 49 50  1  0  0  0
 49 53  1  0  0  0
 49 64  1  0  0  0
 49120  1  0  0  0
 50 51  1  0  0  0
 50121  1  0  0  0
 50122  1  0  0  0
 51 52  1  0  0  0
 51123  1  0  0  0
 51124  1  0  0  0
 52125  1  0  0  0
 52126  1  0  0  0
 53 54  1  0  0  0
 54 55  2  0  0  0
 54127  1  0  0  0
 55 57  1  0  0  0
 55128  1  0  0  0
 56 69  2  0  0  0
 57 58  2  0  0  0
 57129  1  0  0  0
 58130  1  0  0  0
 59 60  1  0  0  0
 59 61  1  0  0  0
 59 62  1  0  0  0
 60131  1  0  0  0
 60132  1  0  0  0
 60133  1  0  0  0
 61134  1  0  0  0
 61135  1  0  0  0
 61136  1  0  0  0
 62137  1  0  0  0
 62138  1  0  0  0
 62139  1  0  0  0
 63 65  1  0  0  0
 63140  1  0  0  0
 63141  1  0  0  0
 63142  1  0  0  0
 64143  1  0  0  0
 65144  1  0  0  0
 68 83  1  0  0  0
 71 73  2  0  0  0
 71 75  1  0  0  0
 71145  1  0  0  0
 72 74  1  0  0  0
 72 75  2  0  0  0
 72146  1  0  0  0
 73 76  1  0  0  0
 73147  1  0  0  0
 74 76  2  0  0  0
 74148  1  0  0  0
 75 84  1  0  0  0
 76 85  1  0  0  0
 77 78  2  0  0  0
 77 79  1  0  0  0
 77 84  1  0  0  0
 78149  1  0  0  0
 78150  1  0  0  0
 79 80  1  0  0  0
 79151  1  0  0  0
 79152  1  0  0  0
 80 82  1  0  0  0
 80153  1  0  0  0
 80154  1  0  0  0
 81 82  1  0  0  0
 81 84  1  0  0  0
 81155  1  0  0  0
 81156  1  0  0  0
 82 83  1  0  0  0
 82157  1  0  0  0
 83158  1  0  0  0
 83159  1  0  0  0
 85160  1  0  0  0
M  ISO  4   1 100  68 101  83 101  85 100
M  END
> <chiral flag>
0

> <version>
0

> <s_m_source_file>
/data/baiqing/PycharmProjects/Reinvent-master-3.2/result/LINK_invent/BTK/process_docking_weight1_custom_product_contain_oxygen_bond_distance_aromatic_linkinvent_7_9_3/rearranged_h_0060.sdf

> <i_m_source_file_index>
65

> <r_mmod_Potential_Energy-OPLS-2005>
72.0507278442383

> <r_mmod_Stretch_Energy-OPLS-2005>
85.6437835693359

> <r_mmod_Bend_Energy-OPLS-2005>
141.382995605469

> <r_mmod_Torsional_Energy-OPLS-2005>
245.549240112305

> <r_mmod_Improper_Torsional_Energy-OPLS-2005>
5.22834300994873

> <r_mmod_Van_der_Waal_Energy-OPLS-2005>
158.449188232422

> <r_mmod_Electrostatic_Energy-OPLS-2005>
-405.534210205078

> <r_mmod_Solvation_Energy-OPLS-2005>
-207.594863891602

> <b_mmod_Minimization_Converged-OPLS-2005>
0

> <r_mmod_RMS_Derivative-OPLS-2005>
0.369404077529907

$$$$
65
                    3D
 Structure written by MMmdl.
162170  0  0  1  0            999 V2000
  -30.6878  -14.4912   20.5514 C   0  0  0  0  0  0
  -30.4169  -12.3119   19.4273 C   0  0  0  0  0  0
  -29.4931  -12.4945   18.2048 C   0  0  0  0  0  0
  -28.0105  -12.3676   18.6188 C   0  0  0  0  0  0
  -27.6510  -13.2156   19.8673 C   0  0  2  0  0  0
  -28.6925  -13.0145   20.9904 C   0  0  0  0  0  0
  -25.2467  -13.8231   20.5617 C   0  0  0  0  0  0
  -24.1729  -13.0475   20.9150 C   0  0  0  0  0  0
  -24.6311  -11.6950   20.8716 C   0  0  0  0  0  0
  -23.9016  -10.4308   21.0383 C   0  0  0  0  0  0
  -24.3578   -9.4228   21.9154 C   0  0  0  0  0  0
  -23.6261   -8.2259   22.0734 C   0  0  0  0  0  0
  -22.4240   -8.0284   21.3537 C   0  0  0  0  0  0
  -21.9879   -9.0257   20.4631 C   0  0  0  0  0  0
  -22.7206  -10.2133   20.3028 C   0  0  0  0  0  0
  -21.6864   -6.0711   22.5279 C   0  0  0  0  0  0
  -21.4034   -6.5614   23.8211 C   0  0  0  0  0  0
  -21.3673   -5.6770   24.9170 C   0  0  0  0  0  0
  -21.6044   -4.3039   24.7229 C   0  0  0  0  0  0
  -21.8821   -3.8125   23.4357 C   0  0  0  0  0  0
  -21.9195   -4.6938   22.3402 C   0  0  0  0  0  0
  -22.7761  -13.5253   21.1860 C   0  0  0  0  0  0
  -22.1653   -4.2124   21.0982 F   0  0  0  0  0  0
  -21.5602   -3.4520   25.7742 F   0  0  0  0  0  0
  -30.0219  -13.3112   20.4332 N   0  0  0  0  0  0
  -26.2913  -12.9400   20.3291 N   0  0  0  0  0  0
  -25.9234  -11.6558   20.5741 N   0  0  0  0  0  0
  -22.0413  -12.8235   22.0443 N   0  0  0  0  0  0
  -25.4137  -15.1963   20.4076 N   0  0  0  0  0  0
  -31.8310  -14.6637   20.1251 O   0  0  0  0  0  0
  -21.6638   -6.8855   21.4240 O   0  0  0  0  0  0
  -22.3416  -14.5551   20.6735 O   0  0  0  0  0  0
  -24.6164  -31.8686   23.2102 C   0  0  0  0  0  0
  -25.9064  -32.4825   23.8368 C   0  0  1  0  0  0
  -27.2244  -27.4008   20.0973 C   0  0  0  0  0  0
  -25.5919  -33.8619   24.2310 N   0  0  0  0  0  0
  -23.4013  -30.4944   21.5530 C   0  0  2  0  0  0
  -24.8450  -28.9588   20.1130 C   0  0  0  0  0  0
  -22.7402  -29.4676   22.4997 C   0  0  0  0  0  0
  -18.0281  -28.1378   22.8503 C   0  0  0  0  0  0
  -24.1491  -36.7296   23.2637 C   0  0  0  0  0  0
  -25.9353  -30.8234   21.3673 C   0  0  0  0  0  0
  -26.0070  -29.4577   20.7098 C   0  0  0  0  0  0
  -27.1966  -28.6875   20.6964 C   0  0  0  0  0  0
  -26.0322  -26.9250   19.4996 C   0  0  0  0  0  0
  -24.8554  -27.6957   19.5027 C   0  0  0  0  0  0
  -23.6072  -29.8276   20.1672 C   0  0  0  0  0  0
  -25.4120  -36.3111   24.0337 C   0  0  1  0  0  0
  -20.5868  -28.3677   23.1321 C   0  0  2  0  0  0
  -20.6777  -26.9405   22.5431 C   0  0  0  0  0  0
  -19.5759  -26.6393   21.5226 C   0  0  0  0  0  0
  -18.1938  -26.7927   22.1634 C   0  0  0  0  0  0
  -19.1524  -28.8846   23.2913 C   0  0  0  0  0  0
  -18.9447  -30.1454   23.8915 C   0  0  0  0  0  0
  -17.6444  -30.6589   24.0559 C   0  0  0  0  0  0
  -25.9052  -34.9477   23.5124 C   0  0  0  0  0  0
  -16.5340  -29.9085   23.6320 C   0  0  0  0  0  0
  -16.7266  -28.6505   23.0345 C   0  0  0  0  0  0
  -26.4466  -31.6597   25.0693 C   0  0  0  0  0  0
  -25.3705  -31.3713   26.1418 C   0  0  0  0  0  0
  -27.0295  -30.3040   24.6072 C   0  0  0  0  0  0
  -27.6053  -32.4304   25.7442 C   0  0  0  0  0  0
  -27.5583  -37.1804   24.8466 C   0  0  0  0  0  0
  -21.4139  -29.3049   22.3731 N   0  0  0  0  0  0
  -26.4303  -37.3796   23.9402 N   0  0  0  0  0  0
  -24.6695  -31.0761   22.1019 N   0  0  0  0  0  0
  -23.4174  -28.8212   23.3038 O   0  0  0  0  0  0
  -28.4097  -26.6753   20.1253 O   0  0  0  0  0  0
  -26.5608  -34.8935   22.4684 O   0  0  0  0  0  0
  -23.5369  -32.1451   23.7509 O   0  0  0  0  0  0
  -30.7775  -20.9575   22.8242 C   0  0  0  0  0  0
  -30.4175  -19.6440   22.4986 C   0  0  0  0  0  0
  -30.2496  -22.0282   22.0935 C   0  0  0  0  0  0
  -29.5159  -19.3685   21.4460 C   0  0  0  0  0  0
  -28.9325  -20.4718   20.7138 C   0  0  0  0  0  0
  -29.3273  -21.8190   21.0448 C   0  0  0  0  0  0
  -29.2020  -17.9031   21.2733 C   0  0  0  0  0  0
  -28.7013  -24.2509   20.6951 C   0  0  0  0  0  0
  -28.2141  -19.2486   18.5091 C   0  0  0  0  0  0
  -26.4696  -20.0264   20.2087 C   0  0  0  0  0  0
  -30.3764  -16.9451   20.9640 C   0  0  0  0  0  0
  -28.5080  -25.3266   19.5926 C   0  0  0  0  0  0
  -27.8665  -20.2649   19.6125 C   0  0  0  0  0  0
  -28.8807  -22.9667   20.2893 N   0  0  0  0  0  0
  -29.9575  -15.5286   20.9923 N   0  0  0  0  0  0
  -28.0708  -17.4249   21.3888 O   0  0  0  0  0  0
  -28.6667  -24.5826   21.8847 O   0  0  0  0  0  0
  -31.4613  -12.4161   19.1259 H   0  0  0  0  0  0
  -30.3163  -11.3080   19.8437 H   0  0  0  0  0  0
  -29.7235  -11.7530   17.4364 H   0  0  0  0  0  0
  -29.6805  -13.4700   17.7516 H   0  0  0  0  0  0
  -27.8098  -11.3177   18.8318 H   0  0  0  0  0  0
  -27.3577  -12.6344   17.7873 H   0  0  0  0  0  0
  -27.6873  -14.2607   19.5588 H   0  0  0  0  0  0
  -28.6739  -11.9838   21.3499 H   0  0  0  0  0  0
  -28.4521  -13.6352   21.8560 H   0  0  0  0  0  0
  -25.2699   -9.5745   22.4742 H   0  0  0  0  0  0
  -23.9987   -7.4661   22.7452 H   0  0  0  0  0  0
  -21.0801   -8.8788   19.8932 H   0  0  0  0  0  0
  -22.3646  -10.9682   19.6157 H   0  0  0  0  0  0
  -21.2038   -7.6127   23.9724 H   0  0  0  0  0  0
  -21.1483   -6.0484   25.9074 H   0  0  0  0  0  0
  -22.0578   -2.7584   23.2872 H   0  0  0  0  0  0
  -22.3980  -11.9933   22.4925 H   0  0  0  0  0  0
  -21.1043  -13.1308   22.2615 H   0  0  0  0  0  0
  -24.6486  -15.8506   20.5318 H   0  0  0  0  0  0
  -26.2906  -15.6615   20.2039 H   0  0  0  0  0  0
  -26.7116  -32.5504   23.1105 H   0  0  0  0  0  0
  -25.0036  -33.9754   25.0431 H   0  0  0  0  0  0
  -22.6894  -31.3113   21.4188 H   0  0  0  0  0  0
  -23.3765  -35.9617   23.3329 H   0  0  0  0  0  0
  -24.3576  -36.8879   22.2043 H   0  0  0  0  0  0
  -23.7231  -37.6505   23.6632 H   0  0  0  0  0  0
  -26.0521  -31.5912   20.6009 H   0  0  0  0  0  0
  -26.8219  -30.8716   21.9878 H   0  0  0  0  0  0
  -28.0927  -29.0772   21.1590 H   0  0  0  0  0  0
  -25.9527  -25.9590   19.0303 H   0  0  0  0  0  0
  -23.9604  -27.3049   19.0387 H   0  0  0  0  0  0
  -23.7085  -30.6028   19.4074 H   0  0  0  0  0  0
  -22.7307  -29.2466   19.8746 H   0  0  0  0  0  0
  -25.1302  -36.1974   25.0831 H   0  0  0  0  0  0
  -20.9964  -28.3275   24.1437 H   0  0  0  0  0  0
  -20.5708  -26.2280   23.3625 H   0  0  0  0  0  0
  -21.6647  -26.7477   22.1199 H   0  0  0  0  0  0
  -19.6928  -25.6319   21.1232 H   0  0  0  0  0  0
  -19.6693  -27.3227   20.6778 H   0  0  0  0  0  0
  -17.4206  -26.6685   21.4031 H   0  0  0  0  0  0
  -18.0334  -26.0057   22.9021 H   0  0  0  0  0  0
  -19.7920  -30.7272   24.2290 H   0  0  0  0  0  0
  -17.4997  -31.6265   24.5159 H   0  0  0  0  0  0
  -15.5341  -30.2980   23.7644 H   0  0  0  0  0  0
  -15.8672  -28.0826   22.7040 H   0  0  0  0  0  0
  -24.5877  -30.7076   25.7725 H   0  0  0  0  0  0
  -24.8883  -32.2874   26.4845 H   0  0  0  0  0  0
  -25.8017  -30.8867   27.0182 H   0  0  0  0  0  0
  -26.2850  -29.6800   24.1119 H   0  0  0  0  0  0
  -27.4064  -29.7271   25.4522 H   0  0  0  0  0  0
  -27.8678  -30.4356   23.9227 H   0  0  0  0  0  0
  -27.2694  -33.3598   26.2049 H   0  0  0  0  0  0
  -28.3835  -32.6875   25.0244 H   0  0  0  0  0  0
  -28.0745  -31.8396   26.5315 H   0  0  0  0  0  0
  -28.2627  -38.0076   24.7513 H   0  0  0  0  0  0
  -28.1054  -36.2615   24.6315 H   0  0  0  0  0  0
  -27.2283  -37.1475   25.8861 H   0  0  0  0  0  0
  -20.9327  -29.8732   21.6899 H   0  0  0  0  0  0
  -26.0202  -38.2876   24.1404 H   0  0  0  0  0  0
  -31.4694  -21.1465   23.6339 H   0  0  0  0  0  0
  -30.8411  -18.8425   23.0903 H   0  0  0  0  0  0
  -30.5749  -23.0241   22.3555 H   0  0  0  0  0  0
  -28.1824  -18.2156   18.8445 H   0  0  0  0  0  0
  -27.4753  -19.3112   17.7077 H   0  0  0  0  0  0
  -29.1907  -19.4426   18.0652 H   0  0  0  0  0  0
  -26.1795  -20.8450   20.8658 H   0  0  0  0  0  0
  -26.4115  -19.1104   20.7911 H   0  0  0  0  0  0
  -25.7152  -19.9586   19.4260 H   0  0  0  0  0  0
  -30.7631  -17.2039   19.9774 H   0  0  0  0  0  0
  -31.1879  -17.0916   21.6763 H   0  0  0  0  0  0
  -27.7244  -25.0233   18.9031 H   0  0  0  0  0  0
  -29.4136  -25.3160   18.9861 H   0  0  0  0  0  0
  -27.7718  -21.1888   19.0481 H   0  0  0  0  0  0
  -28.7202  -22.8072   19.3047 H   0  0  0  0  0  0
  -28.9971  -15.3583   21.2516 H   0  0  0  0  0  0
  1 25  1  0  0  0
  1 30  2  0  0  0
  1 85  1  0  0  0
  2  3  1  0  0  0
  2 25  1  0  0  0
  2 88  1  0  0  0
  2 89  1  0  0  0
  3  4  1  0  0  0
  3 90  1  0  0  0
  3 91  1  0  0  0
  4  5  1  0  0  0
  4 92  1  0  0  0
  4 93  1  0  0  0
  5  6  1  0  0  0
  5 26  1  0  0  0
  5 94  1  0  0  0
  6 25  1  0  0  0
  6 95  1  0  0  0
  6 96  1  0  0  0
  7  8  2  0  0  0
  7 26  1  0  0  0
  7 29  1  0  0  0
  8  9  1  0  0  0
  8 22  1  0  0  0
  9 10  1  0  0  0
  9 27  2  0  0  0
 10 11  2  0  0  0
 10 15  1  0  0  0
 11 12  1  0  0  0
 11 97  1  0  0  0
 12 13  2  0  0  0
 12 98  1  0  0  0
 13 14  1  0  0  0
 13 31  1  0  0  0
 14 15  2  0  0  0
 14 99  1  0  0  0
 15100  1  0  0  0
 16 17  2  0  0  0
 16 21  1  0  0  0
 16 31  1  0  0  0
 17 18  1  0  0  0
 17101  1  0  0  0
 18 19  2  0  0  0
 18102  1  0  0  0
 19 20  1  0  0  0
 19 24  1  0  0  0
 20 21  2  0  0  0
 20103  1  0  0  0
 21 23  1  0  0  0
 22 28  1  0  0  0
 22 32  2  0  0  0
 26 27  1  0  0  0
 28104  1  0  0  0
 28105  1  0  0  0
 29106  1  0  0  0
 29107  1  0  0  0
 33 34  1  0  0  0
 33 66  1  0  0  0
 33 70  2  0  0  0
 34 36  1  0  0  0
 34 59  1  0  0  0
 34108  1  0  0  0
 35 44  2  0  0  0
 35 45  1  0  0  0
 35 68  1  0  0  0
 36 56  1  0  0  0
 36109  1  0  0  0
 37 39  1  0  0  0
 37 47  1  0  0  0
 37 66  1  0  0  0
 37110  1  0  0  0
 38 43  2  0  0  0
 38 46  1  0  0  0
 38 47  1  0  0  0
 39 64  1  0  0  0
 39 67  2  0  0  0
 40 52  1  0  0  0
 40 53  2  0  0  0
 40 58  1  0  0  0
 41111  1  0  0  0
 41112  1  0  0  0
 41113  1  0  0  0
 41 48  1  0  0  0
 42 43  1  0  0  0
 42 66  1  0  0  0
 42114  1  0  0  0
 42115  1  0  0  0
 43 44  1  0  0  0
 44116  1  0  0  0
 45 46  2  0  0  0
 45117  1  0  0  0
 46118  1  0  0  0
 47119  1  0  0  0
 47120  1  0  0  0
 48 56  1  0  0  0
 48 65  1  0  0  0
 48121  1  0  0  0
 49 50  1  0  0  0
 49 53  1  0  0  0
 49 64  1  0  0  0
 49122  1  0  0  0
 50 51  1  0  0  0
 50123  1  0  0  0
 50124  1  0  0  0
 51 52  1  0  0  0
 51125  1  0  0  0
 51126  1  0  0  0
 52127  1  0  0  0
 52128  1  0  0  0
 53 54  1  0  0  0
 54 55  2  0  0  0
 54129  1  0  0  0
 55 57  1  0  0  0
 55130  1  0  0  0
 56 69  2  0  0  0
 57 58  2  0  0  0
 57131  1  0  0  0
 58132  1  0  0  0
 59 60  1  0  0  0
 59 61  1  0  0  0
 59 62  1  0  0  0
 60133  1  0  0  0
 60134  1  0  0  0
 60135  1  0  0  0
 61136  1  0  0  0
 61137  1  0  0  0
 61138  1  0  0  0
 62139  1  0  0  0
 62140  1  0  0  0
 62141  1  0  0  0
 63 65  1  0  0  0
 63142  1  0  0  0
 63143  1  0  0  0
 63144  1  0  0  0
 64145  1  0  0  0
 65146  1  0  0  0
 68 82  1  0  0  0
 71 72  2  0  0  0
 71 73  1  0  0  0
 71147  1  0  0  0
 72 74  1  0  0  0
 72148  1  0  0  0
 73 76  2  0  0  0
 73149  1  0  0  0
 74 75  2  0  0  0
 74 77  1  0  0  0
 75 76  1  0  0  0
 75 83  1  0  0  0
 76 84  1  0  0  0
 77 81  1  0  0  0
 77 86  2  0  0  0
 78 82  1  0  0  0
 78 84  1  0  0  0
 78 87  2  0  0  0
 79150  1  0  0  0
 79151  1  0  0  0
 79152  1  0  0  0
 79 83  1  0  0  0
 80 83  1  0  0  0
 80153  1  0  0  0
 80154  1  0  0  0
 80155  1  0  0  0
 81 85  1  0  0  0
 81156  1  0  0  0
 81157  1  0  0  0
 82158  1  0  0  0
 82159  1  0  0  0
 83160  1  0  0  0
 84161  1  0  0  0
 85162  1  0  0  0
M  ISO  4   1 100  68 101  82 101  85 100
M  END
> <chiral flag>
0

> <version>
0

> <s_m_source_file>
/data/baiqing/PycharmProjects/Reinvent-master-3.2/result/LINK_invent/BTK/process_docking_weight1_custom_product_contain_oxygen_bond_distance_aromatic_linkinvent_7_9_3/rearranged_h_0060.sdf

> <i_m_source_file_index>
66

> <r_mmod_Potential_Energy-OPLS-2005>
-84.4526519775391

> <r_mmod_Stretch_Energy-OPLS-2005>
53.1911125183105

> <r_mmod_Bend_Energy-OPLS-2005>
123.715797424316

> <r_mmod_Torsional_Energy-OPLS-2005>
253.284286499023

> <r_mmod_Improper_Torsional_Energy-OPLS-2005>
4.56891345977783

> <r_mmod_Van_der_Waal_Energy-OPLS-2005>
162.965148925781

> <r_mmod_Electrostatic_Energy-OPLS-2005>
-459.311248779297

> <r_mmod_Solvation_Energy-OPLS-2005>
-240.268936157227

> <b_mmod_Minimization_Converged-OPLS-2005>
0

> <r_mmod_RMS_Derivative-OPLS-2005>
3.64763426780701

$$$$
66
                    3D
 Structure written by MMmdl.
154162  0  0  1  0            999 V2000
  -30.7249  -14.4759   20.5726 C   0  0  0  0  0  0
  -30.4145  -12.3115   19.4256 C   0  0  0  0  0  0
  -29.4911  -12.4991   18.2062 C   0  0  0  0  0  0
  -28.0132  -12.3622   18.6199 C   0  0  0  0  0  0
  -27.6577  -13.2118   19.8695 C   0  0  2  0  0  0
  -28.7011  -13.0209   20.9936 C   0  0  0  0  0  0
  -25.2574  -13.8174   20.5682 C   0  0  0  0  0  0
  -24.1835  -13.0443   20.9185 C   0  0  0  0  0  0
  -24.6395  -11.6910   20.8736 C   0  0  0  0  0  0
  -23.9064  -10.4294   21.0409 C   0  0  0  0  0  0
  -24.3616   -9.4209   21.9188 C   0  0  0  0  0  0
  -23.6290   -8.2244   22.0755 C   0  0  0  0  0  0
  -22.4273   -8.0285   21.3545 C   0  0  0  0  0  0
  -21.9914   -9.0257   20.4644 C   0  0  0  0  0  0
  -22.7239  -10.2137   20.3055 C   0  0  0  0  0  0
  -21.6851   -6.0739   22.5279 C   0  0  0  0  0  0
  -21.4012   -6.5642   23.8213 C   0  0  0  0  0  0
  -21.3658   -5.6794   24.9175 C   0  0  0  0  0  0
  -21.6044   -4.3058   24.7225 C   0  0  0  0  0  0
  -21.8820   -3.8151   23.4346 C   0  0  0  0  0  0
  -21.9192   -4.6967   22.3402 C   0  0  0  0  0  0
  -22.7860  -13.5236   21.1854 C   0  0  0  0  0  0
  -22.1662   -4.2152   21.0979 F   0  0  0  0  0  0
  -21.5629   -3.4542   25.7737 F   0  0  0  0  0  0
  -30.0280  -13.3148   20.4309 N   0  0  0  0  0  0
  -26.3007  -12.9352   20.3352 N   0  0  0  0  0  0
  -25.9321  -11.6507   20.5765 N   0  0  0  0  0  0
  -22.0507  -12.8218   22.0405 N   0  0  0  0  0  0
  -25.4294  -15.1894   20.4081 N   0  0  0  0  0  0
  -31.8599  -14.6200   20.1097 O   0  0  0  0  0  0
  -21.6638   -6.8881   21.4241 O   0  0  0  0  0  0
  -22.3544  -14.5547   20.6708 O   0  0  0  0  0  0
  -24.6175  -31.8680   23.2113 C   0  0  0  0  0  0
  -25.9064  -32.4821   23.8408 C   0  0  1  0  0  0
  -27.2230  -27.4091   20.0931 C   0  0  0  0  0  0
  -25.5913  -33.8621   24.2336 N   0  0  0  0  0  0
  -23.4052  -30.4949   21.5532 C   0  0  2  0  0  0
  -24.8485  -28.9664   20.1110 C   0  0  0  0  0  0
  -22.7424  -29.4664   22.4984 C   0  0  0  0  0  0
  -18.0275  -28.1380   22.8497 C   0  0  0  0  0  0
  -24.1487  -36.7309   23.2641 C   0  0  0  0  0  0
  -25.9393  -30.8250   21.3705 C   0  0  0  0  0  0
  -26.0133  -29.4610   20.7110 C   0  0  0  0  0  0
  -27.2031  -28.6908   20.6988 C   0  0  0  0  0  0
  -26.0372  -26.9509   19.4672 C   0  0  0  0  0  0
  -24.8574  -27.7120   19.4846 C   0  0  0  0  0  0
  -23.6127  -29.8351   20.1657 C   0  0  0  0  0  0
  -25.4109  -36.3112   24.0339 C   0  0  1  0  0  0
  -20.5870  -28.3676   23.1310 C   0  0  2  0  0  0
  -20.6766  -26.9410   22.5414 C   0  0  0  0  0  0
  -19.5738  -26.6385   21.5215 C   0  0  0  0  0  0
  -18.1919  -26.7927   22.1626 C   0  0  0  0  0  0
  -19.1527  -28.8845   23.2898 C   0  0  0  0  0  0
  -18.9452  -30.1452   23.8905 C   0  0  0  0  0  0
  -17.6455  -30.6589   24.0564 C   0  0  0  0  0  0
  -25.9038  -34.9476   23.5132 C   0  0  0  0  0  0
  -16.5345  -29.9089   23.6330 C   0  0  0  0  0  0
  -16.7263  -28.6504   23.0355 C   0  0  0  0  0  0
  -26.4481  -31.6598   25.0740 C   0  0  0  0  0  0
  -25.3737  -31.3685   26.1473 C   0  0  0  0  0  0
  -27.0334  -30.3048   24.6131 C   0  0  0  0  0  0
  -27.6052  -32.4324   25.7505 C   0  0  0  0  0  0
  -27.5582  -37.1808   24.8468 C   0  0  0  0  0  0
  -21.4151  -29.3041   22.3718 N   0  0  0  0  0  0
  -26.4298  -37.3797   23.9409 N   0  0  0  0  0  0
  -24.6726  -31.0766   22.1027 N   0  0  0  0  0  0
  -23.4190  -28.8195   23.3023 O   0  0  0  0  0  0
  -28.3698  -26.6268   20.1398 O   0  0  0  0  0  0
  -26.5596  -34.8927   22.4690 O   0  0  0  0  0  0
  -23.5360  -32.1444   23.7492 O   0  0  0  0  0  0
  -32.3618  -18.2138   22.3260 C   0  0  0  0  0  0
  -31.6787  -19.3798   21.9369 C   0  0  0  0  0  0
  -31.8242  -16.9463   22.0475 C   0  0  0  0  0  0
  -29.8919  -18.0102   21.0063 C   0  0  0  0  0  0
  -30.4306  -19.3036   21.2693 C   0  0  0  0  0  0
  -30.5904  -16.8247   21.3706 C   0  0  0  0  0  0
  -29.9674  -21.7907   20.9767 C   0  0  0  0  0  0
  -28.9618  -22.7790   20.3497 C   0  0  0  0  0  0
  -29.2974  -24.2959   20.5163 C   0  0  0  0  0  0
  -28.1820  -25.2051   19.9495 C   0  0  0  0  0  0
  -29.6984  -20.4679   20.8360 N   0  0  0  0  0  0
  -30.0502  -15.5250   21.0947 N   0  0  0  0  0  0
  -30.9474  -22.2404   21.5735 O   0  0  0  0  0  0
  -31.4601  -12.3951   19.1240 H   0  0  0  0  0  0
  -30.3055  -11.3077   19.8391 H   0  0  0  0  0  0
  -29.7316  -11.7660   17.4350 H   0  0  0  0  0  0
  -29.6607  -13.4807   17.7602 H   0  0  0  0  0  0
  -27.8242  -11.3075   18.8235 H   0  0  0  0  0  0
  -27.3627  -12.6302   17.7866 H   0  0  0  0  0  0
  -27.6938  -14.2556   19.5566 H   0  0  0  0  0  0
  -28.6796  -11.9950   21.3645 H   0  0  0  0  0  0
  -28.4660  -13.6492   21.8540 H   0  0  0  0  0  0
  -25.2761   -9.5687   22.4761 H   0  0  0  0  0  0
  -24.0002   -7.4638   22.7476 H   0  0  0  0  0  0
  -21.0849   -8.8774   19.8947 H   0  0  0  0  0  0
  -22.3701  -10.9676   19.6161 H   0  0  0  0  0  0
  -21.2005   -7.6151   23.9716 H   0  0  0  0  0  0
  -21.1479   -6.0526   25.9077 H   0  0  0  0  0  0
  -22.0601   -2.7614   23.2844 H   0  0  0  0  0  0
  -22.4124  -11.9861   22.4760 H   0  0  0  0  0  0
  -21.1129  -13.1243   22.2632 H   0  0  0  0  0  0
  -24.6633  -15.8459   20.5134 H   0  0  0  0  0  0
  -26.2799  -15.6257   20.0751 H   0  0  0  0  0  0
  -26.7130  -32.5527   23.1167 H   0  0  0  0  0  0
  -25.0075  -33.9782   25.0487 H   0  0  0  0  0  0
  -22.6944  -31.3130   21.4179 H   0  0  0  0  0  0
  -23.3758  -35.9633   23.3305 H   0  0  0  0  0  0
  -24.3574  -36.8926   22.2053 H   0  0  0  0  0  0
  -23.7230  -37.6510   23.6655 H   0  0  0  0  0  0
  -26.0600  -31.5943   20.6063 H   0  0  0  0  0  0
  -26.8241  -30.8712   21.9935 H   0  0  0  0  0  0
  -28.0986  -29.0652   21.1752 H   0  0  0  0  0  0
  -25.9925  -25.9991   18.9587 H   0  0  0  0  0  0
  -23.9649  -27.3288   19.0090 H   0  0  0  0  0  0
  -23.7214  -30.6138   19.4097 H   0  0  0  0  0  0
  -22.7348  -29.2583   19.8690 H   0  0  0  0  0  0
  -25.1284  -36.1980   25.0833 H   0  0  0  0  0  0
  -20.9961  -28.3245   24.1430 H   0  0  0  0  0  0
  -20.5684  -26.2279   23.3602 H   0  0  0  0  0  0
  -21.6634  -26.7459   22.1197 H   0  0  0  0  0  0
  -19.6900  -25.6299   21.1235 H   0  0  0  0  0  0
  -19.6675  -27.3198   20.6749 H   0  0  0  0  0  0
  -17.4193  -26.6696   21.4021 H   0  0  0  0  0  0
  -18.0304  -26.0064   22.9015 H   0  0  0  0  0  0
  -19.7930  -30.7267   24.2272 H   0  0  0  0  0  0
  -17.5013  -31.6269   24.5168 H   0  0  0  0  0  0
  -15.5345  -30.2993   23.7650 H   0  0  0  0  0  0
  -15.8665  -28.0822   22.7066 H   0  0  0  0  0  0
  -24.5923  -30.7027   25.7791 H   0  0  0  0  0  0
  -24.8910  -32.2829   26.4934 H   0  0  0  0  0  0
  -25.8086  -30.8839   27.0225 H   0  0  0  0  0  0
  -26.2896  -29.6789   24.1192 H   0  0  0  0  0  0
  -27.4118  -29.7302   25.4596 H   0  0  0  0  0  0
  -27.8719  -30.4377   23.9290 H   0  0  0  0  0  0
  -27.2672  -33.3617   26.2105 H   0  0  0  0  0  0
  -28.3848  -32.6898   25.0322 H   0  0  0  0  0  0
  -28.0738  -31.8438   26.5402 H   0  0  0  0  0  0
  -28.2601  -38.0107   24.7534 H   0  0  0  0  0  0
  -28.1082  -36.2640   24.6284 H   0  0  0  0  0  0
  -27.2295  -37.1449   25.8870 H   0  0  0  0  0  0
  -20.9308  -29.8772   21.6950 H   0  0  0  0  0  0
  -26.0191  -38.2877   24.1413 H   0  0  0  0  0  0
  -33.3101  -18.2927   22.8387 H   0  0  0  0  0  0
  -32.1516  -20.3206   22.1691 H   0  0  0  0  0  0
  -32.3733  -16.0678   22.3580 H   0  0  0  0  0  0
  -28.9424  -17.9244   20.4971 H   0  0  0  0  0  0
  -27.9860  -22.5773   20.7934 H   0  0  0  0  0  0
  -28.8721  -22.5442   19.2886 H   0  0  0  0  0  0
  -30.2427  -24.5241   20.0228 H   0  0  0  0  0  0
  -29.4366  -24.5237   21.5737 H   0  0  0  0  0  0
  -27.2592  -24.8875   20.4387 H   0  0  0  0  0  0
  -28.0679  -25.0057   18.8828 H   0  0  0  0  0  0
  -28.8428  -20.2730   20.3335 H   0  0  0  0  0  0
  -29.0649  -15.3863   21.2601 H   0  0  0  0  0  0
  1 25  1  0  0  0
  1 30  2  0  0  0
  1 82  1  0  0  0
  2  3  1  0  0  0
  2 25  1  0  0  0
  2 84  1  0  0  0
  2 85  1  0  0  0
  3  4  1  0  0  0
  3 86  1  0  0  0
  3 87  1  0  0  0
  4  5  1  0  0  0
  4 88  1  0  0  0
  4 89  1  0  0  0
  5  6  1  0  0  0
  5 26  1  0  0  0
  5 90  1  0  0  0
  6 25  1  0  0  0
  6 91  1  0  0  0
  6 92  1  0  0  0
  7  8  2  0  0  0
  7 26  1  0  0  0
  7 29  1  0  0  0
  8  9  1  0  0  0
  8 22  1  0  0  0
  9 10  1  0  0  0
  9 27  2  0  0  0
 10 11  2  0  0  0
 10 15  1  0  0  0
 11 12  1  0  0  0
 11 93  1  0  0  0
 12 13  2  0  0  0
 12 94  1  0  0  0
 13 14  1  0  0  0
 13 31  1  0  0  0
 14 15  2  0  0  0
 14 95  1  0  0  0
 15 96  1  0  0  0
 16 17  2  0  0  0
 16 21  1  0  0  0
 16 31  1  0  0  0
 17 18  1  0  0  0
 17 97  1  0  0  0
 18 19  2  0  0  0
 18 98  1  0  0  0
 19 20  1  0  0  0
 19 24  1  0  0  0
 20 21  2  0  0  0
 20 99  1  0  0  0
 21 23  1  0  0  0
 22 28  1  0  0  0
 22 32  2  0  0  0
 26 27  1  0  0  0
 28100  1  0  0  0
 28101  1  0  0  0
 29102  1  0  0  0
 29103  1  0  0  0
 33 34  1  0  0  0
 33 66  1  0  0  0
 33 70  2  0  0  0
 34 36  1  0  0  0
 34 59  1  0  0  0
 34104  1  0  0  0
 35 44  2  0  0  0
 35 45  1  0  0  0
 35 68  1  0  0  0
 36 56  1  0  0  0
 36105  1  0  0  0
 37 39  1  0  0  0
 37 47  1  0  0  0
 37 66  1  0  0  0
 37106  1  0  0  0
 38 43  2  0  0  0
 38 46  1  0  0  0
 38 47  1  0  0  0
 39 64  1  0  0  0
 39 67  2  0  0  0
 40 52  1  0  0  0
 40 53  2  0  0  0
 40 58  1  0  0  0
 41107  1  0  0  0
 41108  1  0  0  0
 41109  1  0  0  0
 41 48  1  0  0  0
 42 43  1  0  0  0
 42 66  1  0  0  0
 42110  1  0  0  0
 42111  1  0  0  0
 43 44  1  0  0  0
 44112  1  0  0  0
 45 46  2  0  0  0
 45113  1  0  0  0
 46114  1  0  0  0
 47115  1  0  0  0
 47116  1  0  0  0
 48 56  1  0  0  0
 48 65  1  0  0  0
 48117  1  0  0  0
 49 50  1  0  0  0
 49 53  1  0  0  0
 49 64  1  0  0  0
 49118  1  0  0  0
 50 51  1  0  0  0
 50119  1  0  0  0
 50120  1  0  0  0
 51 52  1  0  0  0
 51121  1  0  0  0
 51122  1  0  0  0
 52123  1  0  0  0
 52124  1  0  0  0
 53 54  1  0  0  0
 54 55  2  0  0  0
 54125  1  0  0  0
 55 57  1  0  0  0
 55126  1  0  0  0
 56 69  2  0  0  0
 57 58  2  0  0  0
 57127  1  0  0  0
 58128  1  0  0  0
 59 60  1  0  0  0
 59 61  1  0  0  0
 59 62  1  0  0  0
 60129  1  0  0  0
 60130  1  0  0  0
 60131  1  0  0  0
 61132  1  0  0  0
 61133  1  0  0  0
 61134  1  0  0  0
 62135  1  0  0  0
 62136  1  0  0  0
 62137  1  0  0  0
 63 65  1  0  0  0
 63138  1  0  0  0
 63139  1  0  0  0
 63140  1  0  0  0
 64141  1  0  0  0
 65142  1  0  0  0
 68 80  1  0  0  0
 71 72  2  0  0  0
 71 73  1  0  0  0
 71143  1  0  0  0
 72 75  1  0  0  0
 72144  1  0  0  0
 73 76  2  0  0  0
 73145  1  0  0  0
 74 75  2  0  0  0
 74 76  1  0  0  0
 74146  1  0  0  0
 75 81  1  0  0  0
 76 82  1  0  0  0
 77 78  1  0  0  0
 77 81  1  0  0  0
 77 83  2  0  0  0
 78 79  1  0  0  0
 78147  1  0  0  0
 78148  1  0  0  0
 79 80  1  0  0  0
 79149  1  0  0  0
 79150  1  0  0  0
 80151  1  0  0  0
 80152  1  0  0  0
 81153  1  0  0  0
 82154  1  0  0  0
M  ISO  4   1 100  68 101  80 101  82 100
M  END
> <chiral flag>
0

> <version>
0

> <s_m_source_file>
/data/baiqing/PycharmProjects/Reinvent-master-3.2/result/LINK_invent/BTK/process_docking_weight1_custom_product_contain_oxygen_bond_distance_aromatic_linkinvent_7_9_3/rearranged_h_0060.sdf

> <i_m_source_file_index>
67

> <r_mmod_Potential_Energy-OPLS-2005>
-82.9036636352539

> <r_mmod_Stretch_Energy-OPLS-2005>
43.5146064758301

> <r_mmod_Bend_Energy-OPLS-2005>
102.434417724609

> <r_mmod_Torsional_Energy-OPLS-2005>
222.946380615234

> <r_mmod_Improper_Torsional_Energy-OPLS-2005>
3.56133818626404

> <r_mmod_Van_der_Waal_Energy-OPLS-2005>
167.015167236328

> <r_mmod_Electrostatic_Energy-OPLS-2005>
-401.277069091797

> <r_mmod_Solvation_Energy-OPLS-2005>
-238.666366577148

> <b_mmod_Minimization_Converged-OPLS-2005>
0

> <r_mmod_RMS_Derivative-OPLS-2005>
0.538797676563263

$$$$
67
                    3D
 Structure written by MMmdl.
157165  0  0  1  0            999 V2000
  -30.7468  -14.4474   20.5615 C   0  0  0  0  0  0
  -30.4049  -12.2827   19.4436 C   0  0  0  0  0  0
  -29.4972  -12.5078   18.2200 C   0  0  0  0  0  0
  -28.0164  -12.3837   18.6215 C   0  0  0  0  0  0
  -27.6632  -13.2198   19.8813 C   0  0  2  0  0  0
  -28.7013  -13.0306   21.0113 C   0  0  0  0  0  0
  -25.2615  -13.8164   20.5738 C   0  0  0  0  0  0
  -24.1851  -13.0414   20.9182 C   0  0  0  0  0  0
  -24.6422  -11.6891   20.8751 C   0  0  0  0  0  0
  -23.9065  -10.4280   21.0411 C   0  0  0  0  0  0
  -24.3601   -9.4193   21.9188 C   0  0  0  0  0  0
  -23.6283   -8.2232   22.0754 C   0  0  0  0  0  0
  -22.4282   -8.0263   21.3538 C   0  0  0  0  0  0
  -21.9905   -9.0242   20.4658 C   0  0  0  0  0  0
  -22.7222  -10.2131   20.3080 C   0  0  0  0  0  0
  -21.6880   -6.0712   22.5277 C   0  0  0  0  0  0
  -21.4008   -6.5623   23.8193 C   0  0  0  0  0  0
  -21.3666   -5.6790   24.9161 C   0  0  0  0  0  0
  -21.6052   -4.3054   24.7227 C   0  0  0  0  0  0
  -21.8825   -3.8124   23.4359 C   0  0  0  0  0  0
  -21.9187   -4.6930   22.3398 C   0  0  0  0  0  0
  -22.7878  -13.5213   21.1857 C   0  0  0  0  0  0
  -22.1680   -4.2101   21.0988 F   0  0  0  0  0  0
  -21.5625   -3.4554   25.7751 F   0  0  0  0  0  0
  -30.0374  -13.2913   20.4547 N   0  0  0  0  0  0
  -26.3049  -12.9367   20.3416 N   0  0  0  0  0  0
  -25.9355  -11.6509   20.5765 N   0  0  0  0  0  0
  -22.0514  -12.8233   22.0440 N   0  0  0  0  0  0
  -25.4402  -15.1861   20.4206 N   0  0  0  0  0  0
  -31.8880  -14.5371   20.1029 O   0  0  0  0  0  0
  -21.6662   -6.8856   21.4239 O   0  0  0  0  0  0
  -22.3584  -14.5541   20.6734 O   0  0  0  0  0  0
  -24.6062  -31.8725   23.2142 C   0  0  0  0  0  0
  -25.8983  -32.4836   23.8437 C   0  0  1  0  0  0
  -27.2378  -27.4866   20.0844 C   0  0  0  0  0  0
  -25.5907  -33.8641   24.2382 N   0  0  0  0  0  0
  -23.3905  -30.4988   21.5535 C   0  0  2  0  0  0
  -24.8402  -28.9758   20.1076 C   0  0  0  0  0  0
  -22.7432  -29.4660   22.5021 C   0  0  0  0  0  0
  -18.0319  -28.1460   22.8467 C   0  0  0  0  0  0
  -24.1501  -36.7290   23.2650 C   0  0  0  0  0  0
  -25.9155  -30.8546   21.3613 C   0  0  0  0  0  0
  -25.9927  -29.4946   20.7061 C   0  0  0  0  0  0
  -27.1924  -28.7549   20.6967 C   0  0  0  0  0  0
  -26.0645  -26.9714   19.4805 C   0  0  0  0  0  0
  -24.8682  -27.7123   19.4924 C   0  0  0  0  0  0
  -23.5943  -29.8318   20.1632 C   0  0  0  0  0  0
  -25.4106  -36.3088   24.0354 C   0  0  1  0  0  0
  -20.5881  -28.3660   23.1368 C   0  0  2  0  0  0
  -20.6756  -26.9415   22.5432 C   0  0  0  0  0  0
  -19.5817  -26.6576   21.5110 C   0  0  0  0  0  0
  -18.1928  -26.8100   22.1404 C   0  0  0  0  0  0
  -19.1576  -28.8838   23.2972 C   0  0  0  0  0  0
  -18.9524  -30.1412   23.9056 C   0  0  0  0  0  0
  -17.6536  -30.6584   24.0732 C   0  0  0  0  0  0
  -25.9023  -34.9470   23.5148 C   0  0  0  0  0  0
  -16.5408  -29.9129   23.6457 C   0  0  0  0  0  0
  -16.7304  -28.6593   23.0384 C   0  0  0  0  0  0
  -26.4464  -31.6562   25.0715 C   0  0  0  0  0  0
  -25.3779  -31.3659   26.1491 C   0  0  0  0  0  0
  -27.0325  -30.3024   24.6054 C   0  0  0  0  0  0
  -27.6069  -32.4249   25.7447 C   0  0  0  0  0  0
  -27.5571  -37.1791   24.8464 C   0  0  0  0  0  0
  -21.4152  -29.3045   22.3807 N   0  0  0  0  0  0
  -26.4276  -37.3760   23.9422 N   0  0  0  0  0  0
  -24.6552  -31.0885   22.1013 N   0  0  0  0  0  0
  -23.4270  -28.8181   23.2995 O   0  0  0  0  0  0
  -28.4384  -26.8202   20.0799 O   0  0  0  0  0  0
  -26.5613  -34.8908   22.4725 O   0  0  0  0  0  0
  -23.5289  -32.1457   23.7580 O   0  0  0  0  0  0
  -31.6838  -18.7515   19.8876 C   0  0  0  0  0  0
  -30.7932  -19.6871   20.4235 C   0  0  0  0  0  0
  -31.4881  -17.3850   20.1207 C   0  0  0  0  0  0
  -29.4781  -17.8777   21.4050 C   0  0  0  0  0  0
  -29.6756  -19.2641   21.1795 C   0  0  0  0  0  0
  -30.3794  -16.9119   20.8792 C   0  0  0  0  0  0
  -29.3099  -22.6686   21.2539 C   0  0  0  0  0  0
  -28.6771  -20.2993   21.7082 C   0  0  0  0  0  0
  -30.0011  -23.4061   20.1024 C   0  0  0  0  0  0
  -29.8561  -24.9309   20.0940 C   0  0  0  0  0  0
  -28.4139  -25.4106   19.9342 C   0  0  0  0  0  0
  -30.1089  -15.5115   21.0941 N   0  0  0  0  0  0
  -28.7115  -21.5233   20.9082 N   0  0  0  0  0  0
  -29.4021  -23.0698   22.4160 O   0  0  0  0  0  0
  -31.4548  -12.3328   19.1477 H   0  0  0  0  0  0
  -30.2648  -11.2780   19.8442 H   0  0  0  0  0  0
  -29.7361  -11.7941   17.4291 H   0  0  0  0  0  0
  -29.6853  -13.4978   17.8046 H   0  0  0  0  0  0
  -27.8042  -11.3295   18.7929 H   0  0  0  0  0  0
  -27.3805  -12.6915   17.7903 H   0  0  0  0  0  0
  -27.7026  -14.2684   19.5820 H   0  0  0  0  0  0
  -28.6666  -12.0130   21.4024 H   0  0  0  0  0  0
  -28.4742  -13.6802   21.8563 H   0  0  0  0  0  0
  -25.2750   -9.5691   22.4752 H   0  0  0  0  0  0
  -24.0002   -7.4641   22.7490 H   0  0  0  0  0  0
  -21.0818   -8.8746   19.8999 H   0  0  0  0  0  0
  -22.3642  -10.9661   19.6204 H   0  0  0  0  0  0
  -21.2026   -7.6143   23.9672 H   0  0  0  0  0  0
  -21.1492   -6.0543   25.9058 H   0  0  0  0  0  0
  -22.0610   -2.7589   23.2883 H   0  0  0  0  0  0
  -22.4115  -11.9858   22.4770 H   0  0  0  0  0  0
  -21.1143  -13.1298   22.2681 H   0  0  0  0  0  0
  -24.6869  -15.8531   20.5413 H   0  0  0  0  0  0
  -26.3098  -15.6159   20.1264 H   0  0  0  0  0  0
  -26.7065  -32.5596   23.1232 H   0  0  0  0  0  0
  -24.9980  -33.9831   25.0466 H   0  0  0  0  0  0
  -22.6760  -31.3159   21.4206 H   0  0  0  0  0  0
  -23.3731  -35.9647   23.3302 H   0  0  0  0  0  0
  -24.3583  -36.8905   22.2062 H   0  0  0  0  0  0
  -23.7299  -37.6511   23.6664 H   0  0  0  0  0  0
  -26.0342  -31.6227   20.5943 H   0  0  0  0  0  0
  -26.7993  -30.9005   21.9821 H   0  0  0  0  0  0
  -28.0862  -29.1553   21.1595 H   0  0  0  0  0  0
  -26.0657  -26.0165   18.9764 H   0  0  0  0  0  0
  -23.9799  -27.3094   19.0241 H   0  0  0  0  0  0
  -23.6817  -30.6095   19.4041 H   0  0  0  0  0  0
  -22.7263  -29.2357   19.8759 H   0  0  0  0  0  0
  -25.1280  -36.1947   25.0844 H   0  0  0  0  0  0
  -20.9989  -28.3191   24.1480 H   0  0  0  0  0  0
  -20.5591  -26.2198   23.3539 H   0  0  0  0  0  0
  -21.6674  -26.7540   22.1301 H   0  0  0  0  0  0
  -19.7067  -25.6605   21.0882 H   0  0  0  0  0  0
  -19.6942  -27.3605   20.6848 H   0  0  0  0  0  0
  -17.4259  -26.6973   21.3719 H   0  0  0  0  0  0
  -18.0191  -26.0179   22.8678 H   0  0  0  0  0  0
  -19.8014  -30.7192   24.2451 H   0  0  0  0  0  0
  -17.5097  -31.6252   24.5327 H   0  0  0  0  0  0
  -15.5432  -30.3053   23.7804 H   0  0  0  0  0  0
  -15.8671  -28.0987   22.7010 H   0  0  0  0  0  0
  -24.5949  -30.7010   25.7836 H   0  0  0  0  0  0
  -24.8984  -32.2817   26.4953 H   0  0  0  0  0  0
  -25.8153  -30.8828   27.0236 H   0  0  0  0  0  0
  -26.2894  -29.6737   24.1132 H   0  0  0  0  0  0
  -27.4192  -29.7281   25.4488 H   0  0  0  0  0  0
  -27.8672  -30.4387   23.9169 H   0  0  0  0  0  0
  -27.2732  -33.3540   26.2073 H   0  0  0  0  0  0
  -28.3815  -32.6791   25.0201 H   0  0  0  0  0  0
  -28.0778  -31.8319   26.5299 H   0  0  0  0  0  0
  -28.2585  -38.0080   24.7461 H   0  0  0  0  0  0
  -28.1066  -36.2612   24.6313 H   0  0  0  0  0  0
  -27.2306  -37.1471   25.8870 H   0  0  0  0  0  0
  -20.9226  -29.8921   21.7214 H   0  0  0  0  0  0
  -26.0156  -38.2845   24.1336 H   0  0  0  0  0  0
  -32.5171  -19.0940   19.2896 H   0  0  0  0  0  0
  -30.9927  -20.7295   20.2218 H   0  0  0  0  0  0
  -32.2229  -16.7379   19.6697 H   0  0  0  0  0  0
  -28.6085  -17.5660   21.9705 H   0  0  0  0  0  0
  -28.8797  -20.5003   22.7631 H   0  0  0  0  0  0
  -27.6673  -19.8873   21.6562 H   0  0  0  0  0  0
  -29.6539  -23.0064   19.1492 H   0  0  0  0  0  0
  -31.0647  -23.1691   20.1509 H   0  0  0  0  0  0
  -30.4380  -25.3055   19.2486 H   0  0  0  0  0  0
  -30.3091  -25.3668   20.9858 H   0  0  0  0  0  0
  -27.7641  -24.9753   20.6957 H   0  0  0  0  0  0
  -28.0476  -25.1165   18.9495 H   0  0  0  0  0  0
  -29.2335  -15.2924   21.5456 H   0  0  0  0  0  0
  -28.6265  -21.3630   19.9130 H   0  0  0  0  0  0
  1 25  1  0  0  0
  1 30  2  0  0  0
  1 82  1  0  0  0
  2  3  1  0  0  0
  2 25  1  0  0  0
  2 85  1  0  0  0
  2 86  1  0  0  0
  3  4  1  0  0  0
  3 87  1  0  0  0
  3 88  1  0  0  0
  4  5  1  0  0  0
  4 89  1  0  0  0
  4 90  1  0  0  0
  5  6  1  0  0  0
  5 26  1  0  0  0
  5 91  1  0  0  0
  6 25  1  0  0  0
  6 92  1  0  0  0
  6 93  1  0  0  0
  7  8  2  0  0  0
  7 26  1  0  0  0
  7 29  1  0  0  0
  8  9  1  0  0  0
  8 22  1  0  0  0
  9 10  1  0  0  0
  9 27  2  0  0  0
 10 11  2  0  0  0
 10 15  1  0  0  0
 11 12  1  0  0  0
 11 94  1  0  0  0
 12 13  2  0  0  0
 12 95  1  0  0  0
 13 14  1  0  0  0
 13 31  1  0  0  0
 14 15  2  0  0  0
 14 96  1  0  0  0
 15 97  1  0  0  0
 16 17  2  0  0  0
 16 21  1  0  0  0
 16 31  1  0  0  0
 17 18  1  0  0  0
 17 98  1  0  0  0
 18 19  2  0  0  0
 18 99  1  0  0  0
 19 20  1  0  0  0
 19 24  1  0  0  0
 20 21  2  0  0  0
 20100  1  0  0  0
 21 23  1  0  0  0
 22 28  1  0  0  0
 22 32  2  0  0  0
 26 27  1  0  0  0
 28101  1  0  0  0
 28102  1  0  0  0
 29103  1  0  0  0
 29104  1  0  0  0
 33 34  1  0  0  0
 33 66  1  0  0  0
 33 70  2  0  0  0
 34 36  1  0  0  0
 34 59  1  0  0  0
 34105  1  0  0  0
 35 44  2  0  0  0
 35 45  1  0  0  0
 35 68  1  0  0  0
 36 56  1  0  0  0
 36106  1  0  0  0
 37 39  1  0  0  0
 37 47  1  0  0  0
 37 66  1  0  0  0
 37107  1  0  0  0
 38 43  2  0  0  0
 38 46  1  0  0  0
 38 47  1  0  0  0
 39 64  1  0  0  0
 39 67  2  0  0  0
 40 52  1  0  0  0
 40 53  2  0  0  0
 40 58  1  0  0  0
 41108  1  0  0  0
 41109  1  0  0  0
 41110  1  0  0  0
 41 48  1  0  0  0
 42 43  1  0  0  0
 42 66  1  0  0  0
 42111  1  0  0  0
 42112  1  0  0  0
 43 44  1  0  0  0
 44113  1  0  0  0
 45 46  2  0  0  0
 45114  1  0  0  0
 46115  1  0  0  0
 47116  1  0  0  0
 47117  1  0  0  0
 48 56  1  0  0  0
 48 65  1  0  0  0
 48118  1  0  0  0
 49 50  1  0  0  0
 49 53  1  0  0  0
 49 64  1  0  0  0
 49119  1  0  0  0
 50 51  1  0  0  0
 50120  1  0  0  0
 50121  1  0  0  0
 51 52  1  0  0  0
 51122  1  0  0  0
 51123  1  0  0  0
 52124  1  0  0  0
 52125  1  0  0  0
 53 54  1  0  0  0
 54 55  2  0  0  0
 54126  1  0  0  0
 55 57  1  0  0  0
 55127  1  0  0  0
 56 69  2  0  0  0
 57 58  2  0  0  0
 57128  1  0  0  0
 58129  1  0  0  0
 59 60  1  0  0  0
 59 61  1  0  0  0
 59 62  1  0  0  0
 60130  1  0  0  0
 60131  1  0  0  0
 60132  1  0  0  0
 61133  1  0  0  0
 61134  1  0  0  0
 61135  1  0  0  0
 62136  1  0  0  0
 62137  1  0  0  0
 62138  1  0  0  0
 63 65  1  0  0  0
 63139  1  0  0  0
 63140  1  0  0  0
 63141  1  0  0  0
 64142  1  0  0  0
 65143  1  0  0  0
 68 81  1  0  0  0
 71 72  2  0  0  0
 71 73  1  0  0  0
 71144  1  0  0  0
 72 75  1  0  0  0
 72145  1  0  0  0
 73 76  2  0  0  0
 73146  1  0  0  0
 74 75  2  0  0  0
 74 76  1  0  0  0
 74147  1  0  0  0
 75 78  1  0  0  0
 76 82  1  0  0  0
 77 79  1  0  0  0
 77 83  1  0  0  0
 77 84  2  0  0  0
 78 83  1  0  0  0
 78148  1  0  0  0
 78149  1  0  0  0
 79 80  1  0  0  0
 79150  1  0  0  0
 79151  1  0  0  0
 80 81  1  0  0  0
 80152  1  0  0  0
 80153  1  0  0  0
 81154  1  0  0  0
 81155  1  0  0  0
 82156  1  0  0  0
 83157  1  0  0  0
M  ISO  4   1 100  68 101  81 101  82 100
M  END
> <chiral flag>
0

> <version>
0

> <s_m_source_file>
/data/baiqing/PycharmProjects/Reinvent-master-3.2/result/LINK_invent/BTK/process_docking_weight1_custom_product_contain_oxygen_bond_distance_aromatic_linkinvent_7_9_3/rearranged_h_0060.sdf

> <i_m_source_file_index>
68

> <r_mmod_Potential_Energy-OPLS-2005>
-165.289016723633

> <r_mmod_Stretch_Energy-OPLS-2005>
35.4242286682129

> <r_mmod_Bend_Energy-OPLS-2005>
102.426948547363

> <r_mmod_Torsional_Energy-OPLS-2005>
210.467224121094

> <r_mmod_Improper_Torsional_Energy-OPLS-2005>
5.59003734588623

> <r_mmod_Van_der_Waal_Energy-OPLS-2005>
172.608367919922

> <r_mmod_Electrostatic_Energy-OPLS-2005>
-465.573211669922

> <r_mmod_Solvation_Energy-OPLS-2005>
-240.933349609375

> <b_mmod_Minimization_Converged-OPLS-2005>
0

> <r_mmod_RMS_Derivative-OPLS-2005>
6.16086769104004

$$$$
68
                    3D
 Structure written by MMmdl.
161170  0  0  1  0            999 V2000
  -30.6608  -14.6216   20.4916 C   0  0  0  0  0  0
  -30.4371  -12.3796   19.4521 C   0  0  0  0  0  0
  -29.5155  -12.5173   18.2229 C   0  0  0  0  0  0
  -28.0354  -12.3706   18.6283 C   0  0  0  0  0  0
  -27.6590  -13.2315   19.8673 C   0  0  2  0  0  0
  -28.7069  -13.0829   20.9951 C   0  0  0  0  0  0
  -25.2565  -13.8195   20.5702 C   0  0  0  0  0  0
  -24.1857  -13.0440   20.9215 C   0  0  0  0  0  0
  -24.6445  -11.6908   20.8748 C   0  0  0  0  0  0
  -23.9120  -10.4286   21.0390 C   0  0  0  0  0  0
  -24.3657   -9.4201   21.9151 C   0  0  0  0  0  0
  -23.6323   -8.2245   22.0719 C   0  0  0  0  0  0
  -22.4291   -8.0276   21.3536 C   0  0  0  0  0  0
  -21.9959   -9.0256   20.4630 C   0  0  0  0  0  0
  -22.7295  -10.2135   20.3046 C   0  0  0  0  0  0
  -21.6867   -6.0752   22.5277 C   0  0  0  0  0  0
  -21.4019   -6.5642   23.8209 C   0  0  0  0  0  0
  -21.3674   -5.6784   24.9168 C   0  0  0  0  0  0
  -21.6062   -4.3048   24.7217 C   0  0  0  0  0  0
  -21.8819   -3.8157   23.4329 C   0  0  0  0  0  0
  -21.9196   -4.6985   22.3398 C   0  0  0  0  0  0
  -22.7863  -13.5195   21.1898 C   0  0  0  0  0  0
  -22.1652   -4.2185   21.0970 F   0  0  0  0  0  0
  -21.5652   -3.4523   25.7724 F   0  0  0  0  0  0
  -30.0282  -13.4074   20.4306 N   0  0  0  0  0  0
  -26.3036  -12.9414   20.3337 N   0  0  0  0  0  0
  -25.9379  -11.6552   20.5762 N   0  0  0  0  0  0
  -22.0518  -12.8151   22.0444 N   0  0  0  0  0  0
  -25.4278  -15.1918   20.4083 N   0  0  0  0  0  0
  -31.8163  -14.7604   20.0818 O   0  0  0  0  0  0
  -21.6653   -6.8874   21.4225 O   0  0  0  0  0  0
  -22.3510  -14.5493   20.6739 O   0  0  0  0  0  0
  -24.6266  -31.8614   23.2009 C   0  0  0  0  0  0
  -25.9095  -32.4809   23.8325 C   0  0  1  0  0  0
  -27.2328  -27.3221   20.1137 C   0  0  0  0  0  0
  -25.5885  -33.8604   24.2237 N   0  0  0  0  0  0
  -23.4206  -30.4839   21.5458 C   0  0  2  0  0  0
  -24.8683  -28.9401   20.1154 C   0  0  0  0  0  0
  -22.7500  -29.4629   22.4947 C   0  0  0  0  0  0
  -18.0287  -28.1382   22.8465 C   0  0  0  0  0  0
  -24.1487  -36.7320   23.2618 C   0  0  0  0  0  0
  -25.9641  -30.7943   21.3716 C   0  0  0  0  0  0
  -26.0410  -29.4223   20.7115 C   0  0  0  0  0  0
  -27.2276  -28.6290   20.6926 C   0  0  0  0  0  0
  -26.0319  -26.8936   19.4991 C   0  0  0  0  0  0
  -24.8664  -27.6803   19.5005 C   0  0  0  0  0  0
  -23.6362  -29.8187   20.1628 C   0  0  0  0  0  0
  -25.4117  -36.3121   24.0307 C   0  0  1  0  0  0
  -20.5892  -28.3680   23.1291 C   0  0  2  0  0  0
  -20.6780  -26.9395   22.5426 C   0  0  0  0  0  0
  -19.5749  -26.6372   21.5228 C   0  0  0  0  0  0
  -18.1927  -26.7921   22.1629 C   0  0  0  0  0  0
  -19.1533  -28.8843   23.2875 C   0  0  0  0  0  0
  -18.9456  -30.1452   23.8885 C   0  0  0  0  0  0
  -17.6448  -30.6571   24.0562 C   0  0  0  0  0  0
  -25.9054  -34.9482   23.5085 C   0  0  0  0  0  0
  -16.5347  -29.9073   23.6320 C   0  0  0  0  0  0
  -16.7274  -28.6508   23.0315 C   0  0  0  0  0  0
  -26.4418  -31.6625   25.0719 C   0  0  0  0  0  0
  -25.3616  -31.3825   26.1428 C   0  0  0  0  0  0
  -27.0170  -30.3002   24.6206 C   0  0  0  0  0  0
  -27.5977  -32.4311   25.7513 C   0  0  0  0  0  0
  -27.5590  -37.1822   24.8435 C   0  0  0  0  0  0
  -21.4202  -29.3043   22.3702 N   0  0  0  0  0  0
  -26.4285  -37.3829   23.9403 N   0  0  0  0  0  0
  -24.6888  -31.0622   22.0968 N   0  0  0  0  0  0
  -23.4227  -28.8153   23.3009 O   0  0  0  0  0  0
  -28.3549  -26.4735   20.1526 O   0  0  0  0  0  0
  -26.5664  -34.8949   22.4682 O   0  0  0  0  0  0
  -23.5428  -32.1358   23.7355 O   0  0  0  0  0  0
  -30.1827  -19.1329   19.1686 C   0  0  0  0  0  0
  -29.6082  -19.4412   21.4772 C   0  0  0  0  0  0
  -30.2640  -17.7167   19.3474 C   0  0  0  0  0  0
  -29.8459  -20.0471   20.2123 C   0  0  0  0  0  0
  -30.0157  -17.1233   20.6255 C   0  0  0  0  0  0
  -29.6898  -18.0284   21.6725 C   0  0  0  0  0  0
  -30.4025  -22.2253   19.0518 C   0  0  0  0  0  0
  -30.0792  -23.7234   19.0945 C   0  0  0  0  0  0
  -28.8815  -22.4664   20.7452 C   0  0  0  0  0  0
  -29.2978  -23.9641   20.3980 C   0  0  1  0  0  0
  -30.5784  -16.8871   18.1090 C   0  0  0  0  0  0
  -30.2326  -24.4811   21.5118 C   0  0  0  0  0  0
  -28.1043  -25.0104   20.2018 C   0  0  0  0  0  0
  -29.7433  -21.5103   19.9900 N   0  0  0  0  0  0
  -29.9099  -15.6873   20.8928 N   0  0  0  0  0  0
  -31.2054  -21.7858   18.2226 O   0  0  0  0  0  0
  -29.4293  -17.5271   22.9061 F   0  0  0  0  0  0
  -31.4813  -12.4791   19.1502 H   0  0  0  0  0  0
  -30.3464  -11.3867   19.8917 H   0  0  0  0  0  0
  -29.7730  -11.7686   17.4717 H   0  0  0  0  0  0
  -29.6815  -13.4904   17.7560 H   0  0  0  0  0  0
  -27.8570  -11.3164   18.8413 H   0  0  0  0  0  0
  -27.3914  -12.6219   17.7842 H   0  0  0  0  0  0
  -27.6772  -14.2712   19.5406 H   0  0  0  0  0  0
  -28.7093  -12.0651   21.3863 H   0  0  0  0  0  0
  -28.4617  -13.7246   21.8422 H   0  0  0  0  0  0
  -25.2809   -9.5682   22.4699 H   0  0  0  0  0  0
  -24.0069   -7.4639   22.7415 H   0  0  0  0  0  0
  -21.0901   -8.8767   19.8915 H   0  0  0  0  0  0
  -22.3752  -10.9664   19.6143 H   0  0  0  0  0  0
  -21.1986   -7.6139   23.9727 H   0  0  0  0  0  0
  -21.1507   -6.0504   25.9073 H   0  0  0  0  0  0
  -22.0597   -2.7625   23.2818 H   0  0  0  0  0  0
  -22.4153  -11.9845   22.4878 H   0  0  0  0  0  0
  -21.1109  -13.1113   22.2606 H   0  0  0  0  0  0
  -24.6684  -15.8528   20.5181 H   0  0  0  0  0  0
  -26.2809  -15.6264   20.0791 H   0  0  0  0  0  0
  -26.7196  -32.5471   23.1102 H   0  0  0  0  0  0
  -24.9956  -33.9744   25.0330 H   0  0  0  0  0  0
  -22.7135  -31.3025   21.4014 H   0  0  0  0  0  0
  -23.3773  -35.9628   23.3256 H   0  0  0  0  0  0
  -24.3584  -36.8979   22.2038 H   0  0  0  0  0  0
  -23.7203  -37.6493   23.6667 H   0  0  0  0  0  0
  -26.0931  -31.5584   20.6038 H   0  0  0  0  0  0
  -26.8456  -30.8452   21.9997 H   0  0  0  0  0  0
  -28.1317  -28.9972   21.1563 H   0  0  0  0  0  0
  -25.9586  -25.9353   19.0117 H   0  0  0  0  0  0
  -23.9678  -27.3050   19.0291 H   0  0  0  0  0  0
  -23.7553  -30.5903   19.4012 H   0  0  0  0  0  0
  -22.7565  -29.2462   19.8620 H   0  0  0  0  0  0
  -25.1309  -36.1965   25.0800 H   0  0  0  0  0  0
  -20.9968  -28.3235   24.1417 H   0  0  0  0  0  0
  -20.5676  -26.2278   23.3629 H   0  0  0  0  0  0
  -21.6648  -26.7425   22.1210 H   0  0  0  0  0  0
  -19.6910  -25.6279   21.1256 H   0  0  0  0  0  0
  -19.6687  -27.3187   20.6756 H   0  0  0  0  0  0
  -17.4210  -26.6647   21.4039 H   0  0  0  0  0  0
  -18.0319  -26.0072   22.9027 H   0  0  0  0  0  0
  -19.7927  -30.7278   24.2250 H   0  0  0  0  0  0
  -17.5002  -31.6256   24.5150 H   0  0  0  0  0  0
  -15.5347  -30.2979   23.7644 H   0  0  0  0  0  0
  -15.8681  -28.0862   22.6990 H   0  0  0  0  0  0
  -24.5803  -30.7148   25.7775 H   0  0  0  0  0  0
  -24.8793  -32.3025   26.4750 H   0  0  0  0  0  0
  -25.7894  -30.9080   27.0272 H   0  0  0  0  0  0
  -26.2742  -29.6892   24.1062 H   0  0  0  0  0  0
  -27.3586  -29.7141   25.4749 H   0  0  0  0  0  0
  -27.8757  -30.4192   23.9589 H   0  0  0  0  0  0
  -27.2571  -33.3568   26.2156 H   0  0  0  0  0  0
  -28.3786  -32.6930   25.0366 H   0  0  0  0  0  0
  -28.0647  -31.8394   26.5403 H   0  0  0  0  0  0
  -28.2590  -38.0141   24.7558 H   0  0  0  0  0  0
  -28.1111  -36.2688   24.6172 H   0  0  0  0  0  0
  -27.2323  -37.1373   25.8837 H   0  0  0  0  0  0
  -20.9370  -29.8799   21.6943 H   0  0  0  0  0  0
  -26.0169  -38.2893   24.1460 H   0  0  0  0  0  0
  -30.3601  -19.5076   18.1717 H   0  0  0  0  0  0
  -29.3592  -20.0556   22.3298 H   0  0  0  0  0  0
  -29.4780  -23.9617   18.2157 H   0  0  0  0  0  0
  -30.9903  -24.3199   19.0441 H   0  0  0  0  0  0
  -27.8478  -22.2807   20.4537 H   0  0  0  0  0  0
  -28.9407  -22.2701   21.8140 H   0  0  0  0  0  0
  -30.2947  -17.4201   17.2005 H   0  0  0  0  0  0
  -30.0373  -15.9416   18.0928 H   0  0  0  0  0  0
  -31.6480  -16.6773   18.0431 H   0  0  0  0  0  0
  -31.0978  -23.8312   21.6515 H   0  0  0  0  0  0
  -29.7089  -24.5511   22.4672 H   0  0  0  0  0  0
  -30.6067  -25.4785   21.2772 H   0  0  0  0  0  0
  -27.3853  -24.8393   21.0038 H   0  0  0  0  0  0
  -27.6017  -24.7137   19.2832 H   0  0  0  0  0  0
  -29.1004  -15.4282   21.4354 H   0  0  0  0  0  0
  1 25  1  0  0  0
  1 30  2  0  0  0
  1 85  1  0  0  0
  2  3  1  0  0  0
  2 25  1  0  0  0
  2 88  1  0  0  0
  2 89  1  0  0  0
  3  4  1  0  0  0
  3 90  1  0  0  0
  3 91  1  0  0  0
  4  5  1  0  0  0
  4 92  1  0  0  0
  4 93  1  0  0  0
  5  6  1  0  0  0
  5 26  1  0  0  0
  5 94  1  0  0  0
  6 25  1  0  0  0
  6 95  1  0  0  0
  6 96  1  0  0  0
  7  8  2  0  0  0
  7 26  1  0  0  0
  7 29  1  0  0  0
  8  9  1  0  0  0
  8 22  1  0  0  0
  9 10  1  0  0  0
  9 27  2  0  0  0
 10 11  2  0  0  0
 10 15  1  0  0  0
 11 12  1  0  0  0
 11 97  1  0  0  0
 12 13  2  0  0  0
 12 98  1  0  0  0
 13 14  1  0  0  0
 13 31  1  0  0  0
 14 15  2  0  0  0
 14 99  1  0  0  0
 15100  1  0  0  0
 16 17  2  0  0  0
 16 21  1  0  0  0
 16 31  1  0  0  0
 17 18  1  0  0  0
 17101  1  0  0  0
 18 19  2  0  0  0
 18102  1  0  0  0
 19 20  1  0  0  0
 19 24  1  0  0  0
 20 21  2  0  0  0
 20103  1  0  0  0
 21 23  1  0  0  0
 22 28  1  0  0  0
 22 32  2  0  0  0
 26 27  1  0  0  0
 28104  1  0  0  0
 28105  1  0  0  0
 29106  1  0  0  0
 29107  1  0  0  0
 33 34  1  0  0  0
 33 66  1  0  0  0
 33 70  2  0  0  0
 34 36  1  0  0  0
 34 59  1  0  0  0
 34108  1  0  0  0
 35 44  2  0  0  0
 35 45  1  0  0  0
 35 68  1  0  0  0
 36 56  1  0  0  0
 36109  1  0  0  0
 37 39  1  0  0  0
 37 47  1  0  0  0
 37 66  1  0  0  0
 37110  1  0  0  0
 38 43  2  0  0  0
 38 46  1  0  0  0
 38 47  1  0  0  0
 39 64  1  0  0  0
 39 67  2  0  0  0
 40 52  1  0  0  0
 40 53  2  0  0  0
 40 58  1  0  0  0
 41111  1  0  0  0
 41112  1  0  0  0
 41113  1  0  0  0
 41 48  1  0  0  0
 42 43  1  0  0  0
 42 66  1  0  0  0
 42114  1  0  0  0
 42115  1  0  0  0
 43 44  1  0  0  0
 44116  1  0  0  0
 45 46  2  0  0  0
 45117  1  0  0  0
 46118  1  0  0  0
 47119  1  0  0  0
 47120  1  0  0  0
 48 56  1  0  0  0
 48 65  1  0  0  0
 48121  1  0  0  0
 49 50  1  0  0  0
 49 53  1  0  0  0
 49 64  1  0  0  0
 49122  1  0  0  0
 50 51  1  0  0  0
 50123  1  0  0  0
 50124  1  0  0  0
 51 52  1  0  0  0
 51125  1  0  0  0
 51126  1  0  0  0
 52127  1  0  0  0
 52128  1  0  0  0
 53 54  1  0  0  0
 54 55  2  0  0  0
 54129  1  0  0  0
 55 57  1  0  0  0
 55130  1  0  0  0
 56 69  2  0  0  0
 57 58  2  0  0  0
 57131  1  0  0  0
 58132  1  0  0  0
 59 60  1  0  0  0
 59 61  1  0  0  0
 59 62  1  0  0  0
 60133  1  0  0  0
 60134  1  0  0  0
 60135  1  0  0  0
 61136  1  0  0  0
 61137  1  0  0  0
 61138  1  0  0  0
 62139  1  0  0  0
 62140  1  0  0  0
 62141  1  0  0  0
 63 65  1  0  0  0
 63142  1  0  0  0
 63143  1  0  0  0
 63144  1  0  0  0
 64145  1  0  0  0
 65146  1  0  0  0
 68 83  1  0  0  0
 71 73  2  0  0  0
 71 74  1  0  0  0
 71147  1  0  0  0
 72 74  2  0  0  0
 72 76  1  0  0  0
 72148  1  0  0  0
 73 75  1  0  0  0
 73 81  1  0  0  0
 74 84  1  0  0  0
 75 76  2  0  0  0
 75 85  1  0  0  0
 76 87  1  0  0  0
 77 78  1  0  0  0
 77 84  1  0  0  0
 77 86  2  0  0  0
 78 80  1  0  0  0
 78149  1  0  0  0
 78150  1  0  0  0
 79 80  1  0  0  0
 79 84  1  0  0  0
 79151  1  0  0  0
 79152  1  0  0  0
 80 82  1  0  0  0
 80 83  1  0  0  0
 81153  1  0  0  0
 81154  1  0  0  0
 81155  1  0  0  0
 82156  1  0  0  0
 82157  1  0  0  0
 82158  1  0  0  0
 83159  1  0  0  0
 83160  1  0  0  0
 85161  1  0  0  0
M  ISO  4   1 100  68 101  83 101  85 100
M  END
> <chiral flag>
0

> <version>
0

> <s_m_source_file>
/data/baiqing/PycharmProjects/Reinvent-master-3.2/result/LINK_invent/BTK/process_docking_weight1_custom_product_contain_oxygen_bond_distance_aromatic_linkinvent_7_9_3/rearranged_h_0060.sdf

> <i_m_source_file_index>
69

> <r_mmod_Potential_Energy-OPLS-2005>
128.687149047852

> <r_mmod_Stretch_Energy-OPLS-2005>
85.3519439697266

> <r_mmod_Bend_Energy-OPLS-2005>
163.212097167969

> <r_mmod_Torsional_Energy-OPLS-2005>
297.263031005859

> <r_mmod_Improper_Torsional_Energy-OPLS-2005>
3.96374893188477

> <r_mmod_Van_der_Waal_Energy-OPLS-2005>
147.059310913086

> <r_mmod_Electrostatic_Energy-OPLS-2005>
-398.688720703125

> <r_mmod_Solvation_Energy-OPLS-2005>
-213.941131591797

> <b_mmod_Minimization_Converged-OPLS-2005>
0

> <r_mmod_RMS_Derivative-OPLS-2005>
4.33889102935791

$$$$
69
                    3D
 Structure written by MMmdl.
167175  0  0  1  0            999 V2000
  -30.7285  -14.5078   20.5684 C   0  0  0  0  0  0
  -30.4092  -12.3362   19.4357 C   0  0  0  0  0  0
  -29.4844  -12.4867   18.2131 C   0  0  0  0  0  0
  -28.0142  -12.3220   18.6350 C   0  0  0  0  0  0
  -27.6446  -13.1977   19.8606 C   0  0  2  0  0  0
  -28.6897  -13.0696   20.9922 C   0  0  0  0  0  0
  -25.2596  -13.8107   20.5800 C   0  0  0  0  0  0
  -24.1803  -13.0423   20.9221 C   0  0  0  0  0  0
  -24.6335  -11.6882   20.8750 C   0  0  0  0  0  0
  -23.9018  -10.4287   21.0403 C   0  0  0  0  0  0
  -24.3590   -9.4220   21.9177 C   0  0  0  0  0  0
  -23.6283   -8.2254   22.0751 C   0  0  0  0  0  0
  -22.4276   -8.0282   21.3534 C   0  0  0  0  0  0
  -21.9887   -9.0259   20.4646 C   0  0  0  0  0  0
  -22.7200  -10.2139   20.3055 C   0  0  0  0  0  0
  -21.6865   -6.0743   22.5280 C   0  0  0  0  0  0
  -21.4016   -6.5649   23.8211 C   0  0  0  0  0  0
  -21.3646   -5.6799   24.9173 C   0  0  0  0  0  0
  -21.6041   -4.3064   24.7225 C   0  0  0  0  0  0
  -21.8822   -3.8155   23.4347 C   0  0  0  0  0  0
  -21.9197   -4.6970   22.3403 C   0  0  0  0  0  0
  -22.7835  -13.5254   21.1868 C   0  0  0  0  0  0
  -22.1661   -4.2161   21.0979 F   0  0  0  0  0  0
  -21.5625   -3.4539   25.7729 F   0  0  0  0  0  0
  -30.0156  -13.3552   20.4214 N   0  0  0  0  0  0
  -26.2945  -12.9231   20.3337 N   0  0  0  0  0  0
  -25.9238  -11.6409   20.5741 N   0  0  0  0  0  0
  -22.0439  -12.8260   22.0409 N   0  0  0  0  0  0
  -25.4427  -15.1818   20.4409 N   0  0  0  0  0  0
  -31.8651  -14.6465   20.1144 O   0  0  0  0  0  0
  -21.6646   -6.8878   21.4238 O   0  0  0  0  0  0
  -22.3547  -14.5590   20.6746 O   0  0  0  0  0  0
  -24.6158  -31.8657   23.2059 C   0  0  0  0  0  0
  -25.9058  -32.4807   23.8361 C   0  0  1  0  0  0
  -27.2325  -27.4175   20.0980 C   0  0  0  0  0  0
  -25.5902  -33.8597   24.2310 N   0  0  0  0  0  0
  -23.4067  -30.4877   21.5485 C   0  0  2  0  0  0
  -24.8524  -28.9467   20.1184 C   0  0  0  0  0  0
  -22.7424  -29.4648   22.4986 C   0  0  0  0  0  0
  -18.0294  -28.1373   22.8475 C   0  0  0  0  0  0
  -24.1496  -36.7314   23.2636 C   0  0  0  0  0  0
  -25.9348  -30.8305   21.3553 C   0  0  0  0  0  0
  -26.0171  -29.4614   20.7049 C   0  0  0  0  0  0
  -27.2153  -28.7067   20.6847 C   0  0  0  0  0  0
  -26.0545  -26.9183   19.5088 C   0  0  0  0  0  0
  -24.8673  -27.6753   19.5152 C   0  0  0  0  0  0
  -23.6142  -29.8143   20.1657 C   0  0  0  0  0  0
  -25.4104  -36.3092   24.0337 C   0  0  1  0  0  0
  -20.5881  -28.3671   23.1322 C   0  0  2  0  0  0
  -20.6796  -26.9411   22.5388 C   0  0  0  0  0  0
  -19.5779  -26.6455   21.5154 C   0  0  0  0  0  0
  -18.1950  -26.7943   22.1561 C   0  0  0  0  0  0
  -19.1531  -28.8831   23.2936 C   0  0  0  0  0  0
  -18.9444  -30.1420   23.8958 C   0  0  0  0  0  0
  -17.6442  -30.6558   24.0574 C   0  0  0  0  0  0
  -25.9032  -34.9462   23.5120 C   0  0  0  0  0  0
  -16.5338  -29.9057   23.6319 C   0  0  0  0  0  0
  -16.7274  -28.6494   23.0325 C   0  0  0  0  0  0
  -26.4477  -31.6580   25.0690 C   0  0  0  0  0  0
  -25.3737  -31.3710   26.1443 C   0  0  0  0  0  0
  -27.0295  -30.3028   24.6058 C   0  0  0  0  0  0
  -27.6056  -32.4277   25.7459 C   0  0  0  0  0  0
  -27.5585  -37.1809   24.8468 C   0  0  0  0  0  0
  -21.4139  -29.3055   22.3735 N   0  0  0  0  0  0
  -26.4298  -37.3775   23.9409 N   0  0  0  0  0  0
  -24.6721  -31.0752   22.0963 N   0  0  0  0  0  0
  -23.4172  -28.8185   23.3042 O   0  0  0  0  0  0
  -28.3765  -26.6471   20.0859 O   0  0  0  0  0  0
  -26.5591  -34.8909   22.4679 O   0  0  0  0  0  0
  -23.5341  -32.1411   23.7473 O   0  0  0  0  0  0
  -28.9672  -16.5391   19.1860 C   0  0  0  0  0  0
  -29.4848  -17.9471   21.0895 C   0  0  0  0  0  0
  -28.2870  -17.6081   18.5758 C   0  0  0  0  0  0
  -28.8795  -19.0800   20.4684 C   0  0  0  0  0  0
  -29.5320  -16.6725   20.4698 C   0  0  0  0  0  0
  -28.2539  -18.8849   19.1968 C   0  0  0  0  0  0
  -24.5480  -17.0331   15.3133 C   0  0  0  0  0  0
  -27.6230  -17.3252   17.2880 C   0  0  0  0  0  0
  -25.8368  -17.0413   15.6964 C   0  0  0  0  0  0
  -28.8692  -20.4030   21.2328 C   0  0  0  0  0  0
  -26.2924  -17.3367   17.0468 C   0  0  0  0  0  0
  -25.2773  -17.6321   18.1439 C   0  0  0  0  0  0
  -28.4778  -24.0938   20.1792 C   0  0  0  0  0  0
  -28.6075  -22.8945   21.1692 C   0  0  0  0  0  0
  -28.3291  -25.4627   20.9123 C   0  0  0  0  0  0
  -27.5773  -19.9066   18.5164 N   0  0  0  0  0  0
  -30.1182  -15.5570   21.1593 N   0  0  0  0  0  0
  -28.7263  -21.5590   20.5484 N   0  0  0  0  0  0
  -29.0213  -20.4087   22.4574 O   0  0  0  0  0  0
  -31.4547  -12.4254   19.1338 H   0  0  0  0  0  0
  -30.3111  -11.3417   19.8723 H   0  0  0  0  0  0
  -29.7375  -11.7429   17.4564 H   0  0  0  0  0  0
  -29.6316  -13.4609   17.7453 H   0  0  0  0  0  0
  -27.8634  -11.2693   18.8778 H   0  0  0  0  0  0
  -27.3509  -12.5319   17.7958 H   0  0  0  0  0  0
  -27.6445  -14.2243   19.5104 H   0  0  0  0  0  0
  -28.6786  -12.0675   21.4225 H   0  0  0  0  0  0
  -28.4373  -13.7514   21.8074 H   0  0  0  0  0  0
  -25.2741   -9.5727   22.4726 H   0  0  0  0  0  0
  -24.0008   -7.4671   22.7483 H   0  0  0  0  0  0
  -21.0812   -8.8803   19.8958 H   0  0  0  0  0  0
  -22.3673  -10.9695   19.6171 H   0  0  0  0  0  0
  -21.2008   -7.6156   23.9729 H   0  0  0  0  0  0
  -21.1448   -6.0515   25.9076 H   0  0  0  0  0  0
  -22.0600   -2.7617   23.2849 H   0  0  0  0  0  0
  -22.4020  -11.9907   22.4799 H   0  0  0  0  0  0
  -21.1065  -13.1315   22.2610 H   0  0  0  0  0  0
  -24.6886  -15.8460   20.5742 H   0  0  0  0  0  0
  -26.3127  -15.6160   20.1593 H   0  0  0  0  0  0
  -26.7135  -32.5527   23.1127 H   0  0  0  0  0  0
  -25.0079  -33.9754   25.0475 H   0  0  0  0  0  0
  -22.6998  -31.3066   21.4075 H   0  0  0  0  0  0
  -23.3741  -35.9670   23.3304 H   0  0  0  0  0  0
  -24.3608  -36.8913   22.2054 H   0  0  0  0  0  0
  -23.7273  -37.6534   23.6631 H   0  0  0  0  0  0
  -26.0364  -31.5907   20.5794 H   0  0  0  0  0  0
  -26.8283  -30.8942   21.9663 H   0  0  0  0  0  0
  -28.1196  -29.0999   21.1297 H   0  0  0  0  0  0
  -26.0540  -25.9399   19.0466 H   0  0  0  0  0  0
  -23.9702  -27.2726   19.0646 H   0  0  0  0  0  0
  -23.7177  -30.5842   19.4010 H   0  0  0  0  0  0
  -22.7383  -29.2313   19.8739 H   0  0  0  0  0  0
  -25.1279  -36.1963   25.0831 H   0  0  0  0  0  0
  -20.9976  -28.3200   24.1441 H   0  0  0  0  0  0
  -20.5713  -26.2246   23.3555 H   0  0  0  0  0  0
  -21.6662  -26.7487   22.1178 H   0  0  0  0  0  0
  -19.6979  -25.6435   21.1044 H   0  0  0  0  0  0
  -19.6701  -27.3366   20.6766 H   0  0  0  0  0  0
  -17.4245  -26.6738   21.3924 H   0  0  0  0  0  0
  -18.0307  -26.0035   22.8896 H   0  0  0  0  0  0
  -19.7903  -30.7234   24.2392 H   0  0  0  0  0  0
  -17.4977  -31.6229   24.5173 H   0  0  0  0  0  0
  -15.5332  -30.2960   23.7621 H   0  0  0  0  0  0
  -15.8687  -28.0806   22.7010 H   0  0  0  0  0  0
  -24.5909  -30.7062   25.7798 H   0  0  0  0  0  0
  -24.8915  -32.2862   26.4877 H   0  0  0  0  0  0
  -25.8064  -30.8891   27.0217 H   0  0  0  0  0  0
  -26.2823  -29.6822   24.1103 H   0  0  0  0  0  0
  -27.4079  -29.7252   25.4504 H   0  0  0  0  0  0
  -27.8645  -30.4391   23.9184 H   0  0  0  0  0  0
  -27.2705  -33.3570   26.2089 H   0  0  0  0  0  0
  -28.3844  -32.6850   25.0269 H   0  0  0  0  0  0
  -28.0757  -31.8357   26.5335 H   0  0  0  0  0  0
  -28.2607  -38.0104   24.7474 H   0  0  0  0  0  0
  -28.1064  -36.2615   24.6311 H   0  0  0  0  0  0
  -27.2298  -37.1492   25.8878 H   0  0  0  0  0  0
  -20.9301  -29.8804   21.6976 H   0  0  0  0  0  0
  -26.0184  -38.2864   24.1368 H   0  0  0  0  0  0
  -29.0143  -15.5983   18.6615 H   0  0  0  0  0  0
  -29.9223  -18.0647   22.0713 H   0  0  0  0  0  0
  -24.2769  -16.8028   14.2928 H   0  0  0  0  0  0
  -23.7407  -17.2509   15.9971 H   0  0  0  0  0  0
  -28.2967  -17.0977   16.4741 H   0  0  0  0  0  0
  -26.5739  -16.8067   14.9381 H   0  0  0  0  0  0
  -25.7256  -17.7020   19.1333 H   0  0  0  0  0  0
  -24.5285  -16.8406   18.1919 H   0  0  0  0  0  0
  -24.7662  -18.5746   17.9476 H   0  0  0  0  0  0
  -27.6192  -23.9400   19.5235 H   0  0  0  0  0  0
  -29.3581  -24.1211   19.5363 H   0  0  0  0  0  0
  -27.7402  -22.8787   21.8325 H   0  0  0  0  0  0
  -29.4745  -23.0534   21.8126 H   0  0  0  0  0  0
  -29.1487  -25.5630   21.6240 H   0  0  0  0  0  0
  -27.4205  -25.4408   21.5182 H   0  0  0  0  0  0
  -27.0773  -19.5628   17.7029 H   0  0  0  0  0  0
  -26.9405  -20.4526   19.0845 H   0  0  0  0  0  0
  -30.6050  -15.8391   21.9984 H   0  0  0  0  0  0
  -28.5806  -21.4523   19.5484 H   0  0  0  0  0  0
  1 25  1  0  0  0
  1 30  2  0  0  0
  1 87  1  0  0  0
  2  3  1  0  0  0
  2 25  1  0  0  0
  2 90  1  0  0  0
  2 91  1  0  0  0
  3  4  1  0  0  0
  3 92  1  0  0  0
  3 93  1  0  0  0
  4  5  1  0  0  0
  4 94  1  0  0  0
  4 95  1  0  0  0
  5  6  1  0  0  0
  5 26  1  0  0  0
  5 96  1  0  0  0
  6 25  1  0  0  0
  6 97  1  0  0  0
  6 98  1  0  0  0
  7  8  2  0  0  0
  7 26  1  0  0  0
  7 29  1  0  0  0
  8  9  1  0  0  0
  8 22  1  0  0  0
  9 10  1  0  0  0
  9 27  2  0  0  0
 10 11  2  0  0  0
 10 15  1  0  0  0
 11 12  1  0  0  0
 11 99  1  0  0  0
 12 13  2  0  0  0
 12100  1  0  0  0
 13 14  1  0  0  0
 13 31  1  0  0  0
 14 15  2  0  0  0
 14101  1  0  0  0
 15102  1  0  0  0
 16 17  2  0  0  0
 16 21  1  0  0  0
 16 31  1  0  0  0
 17 18  1  0  0  0
 17103  1  0  0  0
 18 19  2  0  0  0
 18104  1  0  0  0
 19 20  1  0  0  0
 19 24  1  0  0  0
 20 21  2  0  0  0
 20105  1  0  0  0
 21 23  1  0  0  0
 22 28  1  0  0  0
 22 32  2  0  0  0
 26 27  1  0  0  0
 28106  1  0  0  0
 28107  1  0  0  0
 29108  1  0  0  0
 29109  1  0  0  0
 33 34  1  0  0  0
 33 66  1  0  0  0
 33 70  2  0  0  0
 34 36  1  0  0  0
 34 59  1  0  0  0
 34110  1  0  0  0
 35 44  2  0  0  0
 35 45  1  0  0  0
 35 68  1  0  0  0
 36 56  1  0  0  0
 36111  1  0  0  0
 37 39  1  0  0  0
 37 47  1  0  0  0
 37 66  1  0  0  0
 37112  1  0  0  0
 38 43  2  0  0  0
 38 46  1  0  0  0
 38 47  1  0  0  0
 39 64  1  0  0  0
 39 67  2  0  0  0
 40 52  1  0  0  0
 40 53  2  0  0  0
 40 58  1  0  0  0
 41113  1  0  0  0
 41114  1  0  0  0
 41115  1  0  0  0
 41 48  1  0  0  0
 42 43  1  0  0  0
 42 66  1  0  0  0
 42116  1  0  0  0
 42117  1  0  0  0
 43 44  1  0  0  0
 44118  1  0  0  0
 45 46  2  0  0  0
 45119  1  0  0  0
 46120  1  0  0  0
 47121  1  0  0  0
 47122  1  0  0  0
 48 56  1  0  0  0
 48 65  1  0  0  0
 48123  1  0  0  0
 49 50  1  0  0  0
 49 53  1  0  0  0
 49 64  1  0  0  0
 49124  1  0  0  0
 50 51  1  0  0  0
 50125  1  0  0  0
 50126  1  0  0  0
 51 52  1  0  0  0
 51127  1  0  0  0
 51128  1  0  0  0
 52129  1  0  0  0
 52130  1  0  0  0
 53 54  1  0  0  0
 54 55  2  0  0  0
 54131  1  0  0  0
 55 57  1  0  0  0
 55132  1  0  0  0
 56 69  2  0  0  0
 57 58  2  0  0  0
 57133  1  0  0  0
 58134  1  0  0  0
 59 60  1  0  0  0
 59 61  1  0  0  0
 59 62  1  0  0  0
 60135  1  0  0  0
 60136  1  0  0  0
 60137  1  0  0  0
 61138  1  0  0  0
 61139  1  0  0  0
 61140  1  0  0  0
 62141  1  0  0  0
 62142  1  0  0  0
 62143  1  0  0  0
 63 65  1  0  0  0
 63144  1  0  0  0
 63145  1  0  0  0
 63146  1  0  0  0
 64147  1  0  0  0
 65148  1  0  0  0
 68 85  1  0  0  0
 71 73  2  0  0  0
 71 75  1  0  0  0
 71149  1  0  0  0
 72 74  1  0  0  0
 72 75  2  0  0  0
 72150  1  0  0  0
 73 76  1  0  0  0
 73 78  1  0  0  0
 74 76  2  0  0  0
 74 80  1  0  0  0
 75 87  1  0  0  0
 76 86  1  0  0  0
 77 79  2  0  0  0
 77151  1  0  0  0
 77152  1  0  0  0
 78 81  2  0  0  0
 78153  1  0  0  0
 79 81  1  0  0  0
 79154  1  0  0  0
 80 88  1  0  0  0
 80 89  2  0  0  0
 81 82  1  0  0  0
 82155  1  0  0  0
 82156  1  0  0  0
 82157  1  0  0  0
 83 84  1  0  0  0
 83 85  1  0  0  0
 83158  1  0  0  0
 83159  1  0  0  0
 84 88  1  0  0  0
 84160  1  0  0  0
 84161  1  0  0  0
 85162  1  0  0  0
 85163  1  0  0  0
 86164  1  0  0  0
 86165  1  0  0  0
 87166  1  0  0  0
 88167  1  0  0  0
M  ISO  4   1 100  68 101  85 101  87 100
M  END
> <chiral flag>
0

> <version>
0

> <s_m_source_file>
/data/baiqing/PycharmProjects/Reinvent-master-3.2/result/LINK_invent/BTK/process_docking_weight1_custom_product_contain_oxygen_bond_distance_aromatic_linkinvent_7_9_3/rearranged_h_0060.sdf

> <i_m_source_file_index>
70

> <r_mmod_Potential_Energy-OPLS-2005>
32.5951194763184

> <r_mmod_Stretch_Energy-OPLS-2005>
46.1394119262695

> <r_mmod_Bend_Energy-OPLS-2005>
115.511749267578

> <r_mmod_Torsional_Energy-OPLS-2005>
322.622467041016

> <r_mmod_Improper_Torsional_Energy-OPLS-2005>
11.3013324737549

> <r_mmod_Van_der_Waal_Energy-OPLS-2005>
157.819625854492

> <r_mmod_Electrostatic_Energy-OPLS-2005>
-427.457977294922

> <r_mmod_Solvation_Energy-OPLS-2005>
-212.905563354492

> <b_mmod_Minimization_Converged-OPLS-2005>
0

> <r_mmod_RMS_Derivative-OPLS-2005>
3.03715658187866

$$$$
70
                    3D
 Structure written by MMmdl.
158166  0  0  1  0            999 V2000
  -30.7196  -14.4846   20.5749 C   0  0  0  0  0  0
  -30.4190  -12.3186   19.4251 C   0  0  0  0  0  0
  -29.4930  -12.5059   18.2068 C   0  0  0  0  0  0
  -28.0160  -12.3624   18.6211 C   0  0  0  0  0  0
  -27.6588  -13.2112   19.8710 C   0  0  2  0  0  0
  -28.7028  -13.0177   20.9944 C   0  0  0  0  0  0
  -25.2582  -13.8168   20.5680 C   0  0  0  0  0  0
  -24.1839  -13.0443   20.9183 C   0  0  0  0  0  0
  -24.6401  -11.6910   20.8741 C   0  0  0  0  0  0
  -23.9069  -10.4292   21.0407 C   0  0  0  0  0  0
  -24.3619   -9.4209   21.9186 C   0  0  0  0  0  0
  -23.6294   -8.2245   22.0756 C   0  0  0  0  0  0
  -22.4277   -8.0280   21.3545 C   0  0  0  0  0  0
  -21.9912   -9.0255   20.4649 C   0  0  0  0  0  0
  -22.7242  -10.2134   20.3057 C   0  0  0  0  0  0
  -21.6853   -6.0736   22.5281 C   0  0  0  0  0  0
  -21.4011   -6.5640   23.8213 C   0  0  0  0  0  0
  -21.3660   -5.6794   24.9175 C   0  0  0  0  0  0
  -21.6045   -4.3058   24.7226 C   0  0  0  0  0  0
  -21.8820   -3.8149   23.4347 C   0  0  0  0  0  0
  -21.9193   -4.6964   22.3403 C   0  0  0  0  0  0
  -22.7862  -13.5243   21.1844 C   0  0  0  0  0  0
  -22.1662   -4.2151   21.0980 F   0  0  0  0  0  0
  -21.5632   -3.4543   25.7740 F   0  0  0  0  0  0
  -30.0303  -13.3178   20.4344 N   0  0  0  0  0  0
  -26.3015  -12.9344   20.3357 N   0  0  0  0  0  0
  -25.9329  -11.6502   20.5770 N   0  0  0  0  0  0
  -22.0497  -12.8233   22.0394 N   0  0  0  0  0  0
  -25.4310  -15.1884   20.4072 N   0  0  0  0  0  0
  -31.8490  -14.6380   20.1021 O   0  0  0  0  0  0
  -21.6640   -6.8878   21.4244 O   0  0  0  0  0  0
  -22.3554  -14.5553   20.6696 O   0  0  0  0  0  0
  -24.6187  -31.8676   23.2115 C   0  0  0  0  0  0
  -25.9074  -32.4821   23.8409 C   0  0  1  0  0  0
  -27.2180  -27.3992   20.0962 C   0  0  0  0  0  0
  -25.5927  -33.8622   24.2339 N   0  0  0  0  0  0
  -23.4067  -30.4955   21.5534 C   0  0  2  0  0  0
  -24.8501  -28.9693   20.1088 C   0  0  0  0  0  0
  -22.7428  -29.4665   22.4980 C   0  0  0  0  0  0
  -18.0273  -28.1379   22.8492 C   0  0  0  0  0  0
  -24.1488  -36.7306   23.2636 C   0  0  0  0  0  0
  -25.9423  -30.8220   21.3725 C   0  0  0  0  0  0
  -26.0161  -29.4584   20.7114 C   0  0  0  0  0  0
  -27.2043  -28.6826   20.7015 C   0  0  0  0  0  0
  -26.0328  -26.9553   19.4588 C   0  0  0  0  0  0
  -24.8557  -27.7188   19.4768 C   0  0  0  0  0  0
  -23.6149  -29.8383   20.1650 C   0  0  0  0  0  0
  -25.4111  -36.3110   24.0337 C   0  0  1  0  0  0
  -20.5868  -28.3675   23.1305 C   0  0  2  0  0  0
  -20.6771  -26.9409   22.5410 C   0  0  0  0  0  0
  -19.5746  -26.6385   21.5213 C   0  0  0  0  0  0
  -18.1922  -26.7927   22.1621 C   0  0  0  0  0  0
  -19.1526  -28.8844   23.2894 C   0  0  0  0  0  0
  -18.9451  -30.1451   23.8906 C   0  0  0  0  0  0
  -17.6453  -30.6587   24.0566 C   0  0  0  0  0  0
  -25.9042  -34.9475   23.5131 C   0  0  0  0  0  0
  -16.5345  -29.9086   23.6332 C   0  0  0  0  0  0
  -16.7261  -28.6501   23.0357 C   0  0  0  0  0  0
  -26.4484  -31.6602   25.0746 C   0  0  0  0  0  0
  -25.3740  -31.3715   26.1488 C   0  0  0  0  0  0
  -27.0316  -30.3038   24.6149 C   0  0  0  0  0  0
  -27.6062  -32.4317   25.7505 C   0  0  0  0  0  0
  -27.5584  -37.1808   24.8463 C   0  0  0  0  0  0
  -21.4151  -29.3046   22.3716 N   0  0  0  0  0  0
  -26.4294  -37.3796   23.9412 N   0  0  0  0  0  0
  -24.6745  -31.0757   22.1034 N   0  0  0  0  0  0
  -23.4191  -28.8192   23.3019 O   0  0  0  0  0  0
  -28.3438  -26.5835   20.1602 O   0  0  0  0  0  0
  -26.5592  -34.8921   22.4686 O   0  0  0  0  0  0
  -23.5374  -32.1445   23.7489 O   0  0  0  0  0  0
  -32.2827  -18.3737   22.1270 C   0  0  0  0  0  0
  -31.8506  -17.0788   21.7915 C   0  0  0  0  0  0
  -29.6384  -17.9629   21.3078 C   0  0  0  0  0  0
  -30.0592  -19.2851   21.6460 C   0  0  0  0  0  0
  -31.4031  -19.4770   22.0815 C   0  0  0  0  0  0
  -30.5177  -16.8489   21.3826 C   0  0  0  0  0  0
  -29.0619  -20.3914   21.6217 C   0  0  0  0  0  0
  -28.5199  -22.8289   21.2043 C   0  0  0  0  0  0
  -31.9435  -20.8186   22.5658 C   0  0  0  0  0  0
  -29.1287  -24.1799   20.7285 C   0  0  0  0  0  0
  -28.0652  -25.1549   20.1325 C   0  0  0  0  0  0
  -30.0353  -15.5214   21.1114 N   0  0  0  0  0  0
  -29.3589  -21.6414   21.1569 N   0  0  0  0  0  0
  -27.8514  -20.1123   22.1195 N   0  3  0  0  0  0
  -27.3672  -22.7712   21.6512 O   0  0  0  0  0  0
  -31.4641  -12.4081   19.1232 H   0  0  0  0  0  0
  -30.3151  -11.3125   19.8345 H   0  0  0  0  0  0
  -29.7362  -11.7779   17.4319 H   0  0  0  0  0  0
  -29.6572  -13.4896   17.7642 H   0  0  0  0  0  0
  -27.8336  -11.3068   18.8260 H   0  0  0  0  0  0
  -27.3634  -12.6261   17.7882 H   0  0  0  0  0  0
  -27.6951  -14.2553   19.5600 H   0  0  0  0  0  0
  -28.6834  -11.9893   21.3586 H   0  0  0  0  0  0
  -28.4648  -13.6378   21.8595 H   0  0  0  0  0  0
  -25.2764   -9.5685   22.4760 H   0  0  0  0  0  0
  -24.0005   -7.4639   22.7477 H   0  0  0  0  0  0
  -21.0844   -8.8773   19.8955 H   0  0  0  0  0  0
  -22.3703  -10.9672   19.6163 H   0  0  0  0  0  0
  -21.1997   -7.6148   23.9716 H   0  0  0  0  0  0
  -21.1483   -6.0524   25.9077 H   0  0  0  0  0  0
  -22.0597   -2.7610   23.2849 H   0  0  0  0  0  0
  -22.4107  -11.9886   22.4772 H   0  0  0  0  0  0
  -21.1113  -13.1263   22.2595 H   0  0  0  0  0  0
  -24.6629  -15.8431   20.5052 H   0  0  0  0  0  0
  -26.2764  -15.6216   20.0587 H   0  0  0  0  0  0
  -26.7146  -32.5510   23.1167 H   0  0  0  0  0  0
  -25.0111  -33.9790   25.0508 H   0  0  0  0  0  0
  -22.6964  -31.3138   21.4185 H   0  0  0  0  0  0
  -23.3755  -35.9634   23.3299 H   0  0  0  0  0  0
  -24.3585  -36.8919   22.2050 H   0  0  0  0  0  0
  -23.7229  -37.6508   23.6648 H   0  0  0  0  0  0
  -26.0658  -31.5899   20.6079 H   0  0  0  0  0  0
  -26.8267  -30.8677   21.9962 H   0  0  0  0  0  0
  -28.0981  -29.0498   21.1866 H   0  0  0  0  0  0
  -25.9841  -26.0049   18.9484 H   0  0  0  0  0  0
  -23.9629  -27.3409   18.9978 H   0  0  0  0  0  0
  -23.7243  -30.6182   19.4106 H   0  0  0  0  0  0
  -22.7370  -29.2628   19.8657 H   0  0  0  0  0  0
  -25.1284  -36.1979   25.0828 H   0  0  0  0  0  0
  -20.9956  -28.3244   24.1427 H   0  0  0  0  0  0
  -20.5689  -26.2284   23.3600 H   0  0  0  0  0  0
  -21.6641  -26.7461   22.1195 H   0  0  0  0  0  0
  -19.6913  -25.6297   21.1240 H   0  0  0  0  0  0
  -19.6686  -27.3199   20.6746 H   0  0  0  0  0  0
  -17.4195  -26.6681   21.4017 H   0  0  0  0  0  0
  -18.0317  -26.0060   22.9007 H   0  0  0  0  0  0
  -19.7927  -30.7266   24.2280 H   0  0  0  0  0  0
  -17.5007  -31.6269   24.5161 H   0  0  0  0  0  0
  -15.5348  -30.2995   23.7653 H   0  0  0  0  0  0
  -15.8657  -28.0824   22.7079 H   0  0  0  0  0  0
  -24.5911  -30.7067   25.7820 H   0  0  0  0  0  0
  -24.8937  -32.2874   26.4943 H   0  0  0  0  0  0
  -25.8085  -30.8875   27.0244 H   0  0  0  0  0  0
  -26.2874  -29.6798   24.1187 H   0  0  0  0  0  0
  -27.4053  -29.7276   25.4623 H   0  0  0  0  0  0
  -27.8724  -30.4342   23.9332 H   0  0  0  0  0  0
  -27.2697  -33.3618   26.2094 H   0  0  0  0  0  0
  -28.3869  -32.6873   25.0329 H   0  0  0  0  0  0
  -28.0733  -31.8431   26.5410 H   0  0  0  0  0  0
  -28.2596  -38.0114   24.7531 H   0  0  0  0  0  0
  -28.1087  -36.2646   24.6261 H   0  0  0  0  0  0
  -27.2302  -37.1425   25.8865 H   0  0  0  0  0  0
  -20.9315  -29.8786   21.6951 H   0  0  0  0  0  0
  -26.0180  -38.2872   24.1423 H   0  0  0  0  0  0
  -33.3044  -18.5046   22.4566 H   0  0  0  0  0  0
  -32.5563  -16.2664   21.8844 H   0  0  0  0  0  0
  -28.6163  -17.7982   20.9951 H   0  0  0  0  0  0
  -32.8718  -20.6887   23.1236 H   0  0  0  0  0  0
  -31.2438  -21.3134   23.2403 H   0  0  0  0  0  0
  -32.1604  -21.4814   21.7283 H   0  0  0  0  0  0
  -29.9291  -24.0083   20.0092 H   0  0  0  0  0  0
  -29.5855  -24.6431   21.6023 H   0  0  0  0  0  0
  -27.1322  -24.9948   20.6756 H   0  0  0  0  0  0
  -27.8801  -24.8555   19.0998 H   0  0  0  0  0  0
  -29.0636  -15.3401   21.3097 H   0  0  0  0  0  0
  -30.2843  -21.6747   20.7597 H   0  0  0  0  0  0
  -27.6629  -19.2241   22.5571 H   0  0  0  0  0  0
  -27.1664  -20.8576   22.1635 H   0  0  0  0  0  0
  1 25  1  0  0  0
  1 30  2  0  0  0
  1 82  1  0  0  0
  2  3  1  0  0  0
  2 25  1  0  0  0
  2 86  1  0  0  0
  2 87  1  0  0  0
  3  4  1  0  0  0
  3 88  1  0  0  0
  3 89  1  0  0  0
  4  5  1  0  0  0
  4 90  1  0  0  0
  4 91  1  0  0  0
  5  6  1  0  0  0
  5 26  1  0  0  0
  5 92  1  0  0  0
  6 25  1  0  0  0
  6 93  1  0  0  0
  6 94  1  0  0  0
  7  8  2  0  0  0
  7 26  1  0  0  0
  7 29  1  0  0  0
  8  9  1  0  0  0
  8 22  1  0  0  0
  9 10  1  0  0  0
  9 27  2  0  0  0
 10 11  2  0  0  0
 10 15  1  0  0  0
 11 12  1  0  0  0
 11 95  1  0  0  0
 12 13  2  0  0  0
 12 96  1  0  0  0
 13 14  1  0  0  0
 13 31  1  0  0  0
 14 15  2  0  0  0
 14 97  1  0  0  0
 15 98  1  0  0  0
 16 17  2  0  0  0
 16 21  1  0  0  0
 16 31  1  0  0  0
 17 18  1  0  0  0
 17 99  1  0  0  0
 18 19  2  0  0  0
 18100  1  0  0  0
 19 20  1  0  0  0
 19 24  1  0  0  0
 20 21  2  0  0  0
 20101  1  0  0  0
 21 23  1  0  0  0
 22 28  1  0  0  0
 22 32  2  0  0  0
 26 27  1  0  0  0
 28102  1  0  0  0
 28103  1  0  0  0
 29104  1  0  0  0
 29105  1  0  0  0
 33 34  1  0  0  0
 33 66  1  0  0  0
 33 70  2  0  0  0
 34 36  1  0  0  0
 34 59  1  0  0  0
 34106  1  0  0  0
 35 44  2  0  0  0
 35 45  1  0  0  0
 35 68  1  0  0  0
 36 56  1  0  0  0
 36107  1  0  0  0
 37 39  1  0  0  0
 37 47  1  0  0  0
 37 66  1  0  0  0
 37108  1  0  0  0
 38 43  2  0  0  0
 38 46  1  0  0  0
 38 47  1  0  0  0
 39 64  1  0  0  0
 39 67  2  0  0  0
 40 52  1  0  0  0
 40 53  2  0  0  0
 40 58  1  0  0  0
 41109  1  0  0  0
 41110  1  0  0  0
 41111  1  0  0  0
 41 48  1  0  0  0
 42 43  1  0  0  0
 42 66  1  0  0  0
 42112  1  0  0  0
 42113  1  0  0  0
 43 44  1  0  0  0
 44114  1  0  0  0
 45 46  2  0  0  0
 45115  1  0  0  0
 46116  1  0  0  0
 47117  1  0  0  0
 47118  1  0  0  0
 48 56  1  0  0  0
 48 65  1  0  0  0
 48119  1  0  0  0
 49 50  1  0  0  0
 49 53  1  0  0  0
 49 64  1  0  0  0
 49120  1  0  0  0
 50 51  1  0  0  0
 50121  1  0  0  0
 50122  1  0  0  0
 51 52  1  0  0  0
 51123  1  0  0  0
 51124  1  0  0  0
 52125  1  0  0  0
 52126  1  0  0  0
 53 54  1  0  0  0
 54 55  2  0  0  0
 54127  1  0  0  0
 55 57  1  0  0  0
 55128  1  0  0  0
 56 69  2  0  0  0
 57 58  2  0  0  0
 57129  1  0  0  0
 58130  1  0  0  0
 59 60  1  0  0  0
 59 61  1  0  0  0
 59 62  1  0  0  0
 60131  1  0  0  0
 60132  1  0  0  0
 60133  1  0  0  0
 61134  1  0  0  0
 61135  1  0  0  0
 61136  1  0  0  0
 62137  1  0  0  0
 62138  1  0  0  0
 62139  1  0  0  0
 63 65  1  0  0  0
 63140  1  0  0  0
 63141  1  0  0  0
 63142  1  0  0  0
 64143  1  0  0  0
 65144  1  0  0  0
 68 81  1  0  0  0
 71 72  2  0  0  0
 71 75  1  0  0  0
 71145  1  0  0  0
 72 76  1  0  0  0
 72146  1  0  0  0
 73 74  1  0  0  0
 73 76  2  0  0  0
 73147  1  0  0  0
 74 75  2  0  0  0
 74 77  1  0  0  0
 75 79  1  0  0  0
 76 82  1  0  0  0
 77 83  1  0  0  0
 77 84  2  0  0  0
 78 80  1  0  0  0
 78 83  1  0  0  0
 78 85  2  0  0  0
 79148  1  0  0  0
 79149  1  0  0  0
 79150  1  0  0  0
 80 81  1  0  0  0
 80151  1  0  0  0
 80152  1  0  0  0
 81153  1  0  0  0
 81154  1  0  0  0
 82155  1  0  0  0
 83156  1  0  0  0
 84157  1  0  0  0
 84158  1  0  0  0
M  CHG  1  84   1
M  ISO  4   1 100  68 101  81 101  82 100
M  END
> <chiral flag>
0

> <version>
0

> <s_m_source_file>
/data/baiqing/PycharmProjects/Reinvent-master-3.2/result/LINK_invent/BTK/process_docking_weight1_custom_product_contain_oxygen_bond_distance_aromatic_linkinvent_7_9_3/rearranged_h_0060.sdf

> <i_m_source_file_index>
71

> <r_mmod_Potential_Energy-OPLS-2005>
-280.34814453125

> <r_mmod_Stretch_Energy-OPLS-2005>
49.4572219848633

> <r_mmod_Bend_Energy-OPLS-2005>
112.588478088379

> <r_mmod_Torsional_Energy-OPLS-2005>
215.938690185547

> <r_mmod_Improper_Torsional_Energy-OPLS-2005>
4.38411378860474

> <r_mmod_Van_der_Waal_Energy-OPLS-2005>
185.253189086914

> <r_mmod_Electrostatic_Energy-OPLS-2005>
-424.573822021484

> <r_mmod_Solvation_Energy-OPLS-2005>
-443.569366455078

> <b_mmod_Minimization_Converged-OPLS-2005>
0

> <r_mmod_RMS_Derivative-OPLS-2005>
0.656880974769592

$$$$
71
                    3D
 Structure written by MMmdl.
148156  0  0  1  0            999 V2000
  -30.5620  -14.9156   20.4227 C   0  0  0  0  0  0
  -30.4377  -12.5653   19.4945 C   0  0  0  0  0  0
  -29.5192  -12.5229   18.2520 C   0  0  0  0  0  0
  -28.0511  -12.3168   18.6696 C   0  0  0  0  0  0
  -27.6314  -13.2465   19.8387 C   0  0  2  0  0  0
  -28.6753  -13.2658   20.9757 C   0  0  0  0  0  0
  -25.2472  -13.8212   20.5711 C   0  0  0  0  0  0
  -24.1787  -13.0439   20.9230 C   0  0  0  0  0  0
  -24.6400  -11.6924   20.8751 C   0  0  0  0  0  0
  -23.9084  -10.4296   21.0405 C   0  0  0  0  0  0
  -24.3630   -9.4210   21.9184 C   0  0  0  0  0  0
  -23.6304   -8.2244   22.0752 C   0  0  0  0  0  0
  -22.4283   -8.0282   21.3546 C   0  0  0  0  0  0
  -21.9924   -9.0255   20.4644 C   0  0  0  0  0  0
  -22.7254  -10.2135   20.3054 C   0  0  0  0  0  0
  -21.6857   -6.0740   22.5281 C   0  0  0  0  0  0
  -21.4014   -6.5643   23.8214 C   0  0  0  0  0  0
  -21.3660   -5.6794   24.9175 C   0  0  0  0  0  0
  -21.6043   -4.3057   24.7225 C   0  0  0  0  0  0
  -21.8820   -3.8150   23.4346 C   0  0  0  0  0  0
  -21.9193   -4.6969   22.3403 C   0  0  0  0  0  0
  -22.7807  -13.5212   21.1881 C   0  0  0  0  0  0
  -22.1664   -4.2154   21.0981 F   0  0  0  0  0  0
  -21.5628   -3.4539   25.7737 F   0  0  0  0  0  0
  -29.9546  -13.6642   20.3767 N   0  0  0  0  0  0
  -26.2897  -12.9444   20.3246 N   0  0  0  0  0  0
  -25.9333  -11.6575   20.5739 N   0  0  0  0  0  0
  -22.0455  -12.8196   22.0431 N   0  0  0  0  0  0
  -25.4133  -15.1941   20.4136 N   0  0  0  0  0  0
  -31.7676  -14.9579   20.1563 O   0  0  0  0  0  0
  -21.6643   -6.8881   21.4244 O   0  0  0  0  0  0
  -22.3494  -14.5517   20.6723 O   0  0  0  0  0  0
  -24.6411  -31.8465   23.1899 C   0  0  0  0  0  0
  -25.9197  -32.4708   23.8285 C   0  0  1  0  0  0
  -27.2164  -27.1518   20.1525 C   0  0  0  0  0  0
  -25.5952  -33.8515   24.2203 N   0  0  0  0  0  0
  -23.4439  -30.4654   21.5345 C   0  0  2  0  0  0
  -24.8944  -28.8937   20.1107 C   0  0  0  0  0  0
  -22.7556  -29.4560   22.4861 C   0  0  0  0  0  0
  -18.0304  -28.1393   22.8482 C   0  0  0  0  0  0
  -24.1488  -36.7257   23.2641 C   0  0  0  0  0  0
  -25.9986  -30.7231   21.3884 C   0  0  0  0  0  0
  -26.0699  -29.3340   20.7343 C   0  0  0  0  0  0
  -27.2316  -28.4765   20.7434 C   0  0  0  0  0  0
  -26.0213  -26.8157   19.4792 C   0  0  0  0  0  0
  -24.8818  -27.6465   19.4689 C   0  0  0  0  0  0
  -23.6701  -29.7942   20.1535 C   0  0  0  0  0  0
  -25.4118  -36.3040   24.0319 C   0  0  1  0  0  0
  -20.5913  -28.3721   23.1231 C   0  0  2  0  0  0
  -20.6775  -26.9420   22.5400 C   0  0  0  0  0  0
  -19.5750  -26.6382   21.5204 C   0  0  0  0  0  0
  -18.1938  -26.7933   22.1624 C   0  0  0  0  0  0
  -19.1560  -28.8872   23.2854 C   0  0  0  0  0  0
  -18.9479  -30.1466   23.8881 C   0  0  0  0  0  0
  -17.6477  -30.6590   24.0555 C   0  0  0  0  0  0
  -25.9070  -34.9416   23.5068 C   0  0  0  0  0  0
  -16.5367  -29.9083   23.6335 C   0  0  0  0  0  0
  -16.7289  -28.6499   23.0364 C   0  0  0  0  0  0
  -26.4524  -31.6564   25.0715 C   0  0  0  0  0  0
  -25.3716  -31.3745   26.1414 C   0  0  0  0  0  0
  -27.0383  -30.2960   24.6284 C   0  0  0  0  0  0
  -27.6060  -32.4323   25.7502 C   0  0  0  0  0  0
  -27.5575  -37.1778   24.8467 C   0  0  0  0  0  0
  -21.4252  -29.3052   22.3609 N   0  0  0  0  0  0
  -26.4284  -37.3749   23.9414 N   0  0  0  0  0  0
  -24.7141  -31.0330   22.0928 N   0  0  0  0  0  0
  -23.4205  -28.8109   23.3009 O   0  0  0  0  0  0
  -28.2665  -26.1685   20.1892 O   0  0  0  0  0  0
  -26.5657  -34.8913   22.4648 O   0  0  0  0  0  0
  -23.5537  -32.1346   23.7123 O   0  0  0  0  0  0
  -31.8023  -19.4073   20.4321 C   0  0  0  0  0  0
  -31.4396  -18.0375   20.4734 C   0  0  0  0  0  0
  -30.8508  -20.4547   20.3980 C   0  0  0  0  0  0
  -29.1256  -18.7315   20.4511 C   0  0  0  0  0  0
  -30.0908  -17.6033   20.4834 C   0  0  0  0  0  0
  -29.4726  -20.1754   20.4021 C   0  0  0  0  0  0
  -27.9876  -24.7365   20.3342 C   0  0  0  0  0  0
  -28.7920  -23.5821   20.1693 C   0  0  0  0  0  0
  -29.7817  -16.1002   20.5470 N   0  0  0  0  0  0
  -27.4011  -21.4480   19.1561 O   0  0  0  0  0  0
  -27.5033  -21.6471   21.6522 O   0  0  0  0  0  0
  -28.2183  -21.6855   20.3619 S   0  0  0  0  0  0
  -31.4730  -12.7124   19.1832 H   0  0  0  0  0  0
  -30.4199  -11.6116   20.0242 H   0  0  0  0  0  0
  -29.8323  -11.7262   17.5757 H   0  0  0  0  0  0
  -29.6146  -13.4554   17.6932 H   0  0  0  0  0  0
  -27.9405  -11.2747   18.9716 H   0  0  0  0  0  0
  -27.3893  -12.4569   17.8139 H   0  0  0  0  0  0
  -27.5969  -14.2503   19.4147 H   0  0  0  0  0  0
  -28.7537  -12.2892   21.4551 H   0  0  0  0  0  0
  -28.3830  -13.9708   21.7555 H   0  0  0  0  0  0
  -25.2773   -9.5687   22.4764 H   0  0  0  0  0  0
  -24.0012   -7.4635   22.7473 H   0  0  0  0  0  0
  -21.0855   -8.8777   19.8946 H   0  0  0  0  0  0
  -22.3712  -10.9677   19.6166 H   0  0  0  0  0  0
  -21.2005   -7.6151   23.9720 H   0  0  0  0  0  0
  -21.1482   -6.0523   25.9079 H   0  0  0  0  0  0
  -22.0597   -2.7613   23.2845 H   0  0  0  0  0  0
  -22.4082  -11.9866   22.4827 H   0  0  0  0  0  0
  -21.1065  -13.1206   22.2617 H   0  0  0  0  0  0
  -24.6393  -15.8411   20.5187 H   0  0  0  0  0  0
  -26.2490  -15.6353   20.0535 H   0  0  0  0  0  0
  -26.7261  -32.5322   23.1018 H   0  0  0  0  0  0
  -25.0064  -33.9631   25.0326 H   0  0  0  0  0  0
  -22.7455  -31.2906   21.3797 H   0  0  0  0  0  0
  -23.3756  -35.9582   23.3301 H   0  0  0  0  0  0
  -24.3570  -36.8890   22.2055 H   0  0  0  0  0  0
  -23.7237  -37.6450   23.6678 H   0  0  0  0  0  0
  -26.1500  -31.4764   20.6140 H   0  0  0  0  0  0
  -26.8708  -30.7762   22.0281 H   0  0  0  0  0  0
  -28.1276  -28.8069   21.2498 H   0  0  0  0  0  0
  -25.9479  -25.8631   18.9750 H   0  0  0  0  0  0
  -23.9874  -27.3065   18.9653 H   0  0  0  0  0  0
  -23.8054  -30.5691   19.3980 H   0  0  0  0  0  0
  -22.7854  -29.2351   19.8433 H   0  0  0  0  0  0
  -25.1297  -36.1874   25.0808 H   0  0  0  0  0  0
  -21.0011  -28.3319   24.1350 H   0  0  0  0  0  0
  -20.5645  -26.2343   23.3625 H   0  0  0  0  0  0
  -21.6644  -26.7408   22.1205 H   0  0  0  0  0  0
  -19.6908  -25.6289   21.1242 H   0  0  0  0  0  0
  -19.6680  -27.3187   20.6727 H   0  0  0  0  0  0
  -17.4193  -26.6682   21.4040 H   0  0  0  0  0  0
  -18.0345  -26.0078   22.9024 H   0  0  0  0  0  0
  -19.7956  -30.7282   24.2253 H   0  0  0  0  0  0
  -17.5028  -31.6271   24.5157 H   0  0  0  0  0  0
  -15.5364  -30.2974   23.7665 H   0  0  0  0  0  0
  -15.8693  -28.0801   22.7095 H   0  0  0  0  0  0
  -24.5921  -30.7062   25.7739 H   0  0  0  0  0  0
  -24.8876  -32.2918   26.4775 H   0  0  0  0  0  0
  -25.8009  -30.8974   27.0234 H   0  0  0  0  0  0
  -26.2994  -29.6685   24.1287 H   0  0  0  0  0  0
  -27.3991  -29.7255   25.4853 H   0  0  0  0  0  0
  -27.8904  -30.4191   23.9599 H   0  0  0  0  0  0
  -27.2658  -33.3641   26.2039 H   0  0  0  0  0  0
  -28.3897  -32.6857   25.0348 H   0  0  0  0  0  0
  -28.0702  -31.8475   26.5457 H   0  0  0  0  0  0
  -28.2577  -38.0089   24.7511 H   0  0  0  0  0  0
  -28.1084  -36.2614   24.6289 H   0  0  0  0  0  0
  -27.2293  -37.1416   25.8871 H   0  0  0  0  0  0
  -20.9464  -29.8769   21.6787 H   0  0  0  0  0  0
  -26.0157  -38.2817   24.1427 H   0  0  0  0  0  0
  -32.8531  -19.6628   20.4308 H   0  0  0  0  0  0
  -32.2456  -17.3199   20.5074 H   0  0  0  0  0  0
  -31.1812  -21.4829   20.3706 H   0  0  0  0  0  0
  -28.0710  -18.4980   20.4629 H   0  0  0  0  0  0
  -26.9567  -24.5848   20.6213 H   0  0  0  0  0  0
  -29.8321  -23.6674   19.8965 H   0  0  0  0  0  0
  -28.8033  -15.8909   20.6746 H   0  0  0  0  0  0
  1 25  1  0  0  0
  1 30  2  0  0  0
  1 79  1  0  0  0
  2  3  1  0  0  0
  2 25  1  0  0  0
  2 83  1  0  0  0
  2 84  1  0  0  0
  3  4  1  0  0  0
  3 85  1  0  0  0
  3 86  1  0  0  0
  4  5  1  0  0  0
  4 87  1  0  0  0
  4 88  1  0  0  0
  5  6  1  0  0  0
  5 26  1  0  0  0
  5 89  1  0  0  0
  6 25  1  0  0  0
  6 90  1  0  0  0
  6 91  1  0  0  0
  7  8  2  0  0  0
  7 26  1  0  0  0
  7 29  1  0  0  0
  8  9  1  0  0  0
  8 22  1  0  0  0
  9 10  1  0  0  0
  9 27  2  0  0  0
 10 11  2  0  0  0
 10 15  1  0  0  0
 11 12  1  0  0  0
 11 92  1  0  0  0
 12 13  2  0  0  0
 12 93  1  0  0  0
 13 14  1  0  0  0
 13 31  1  0  0  0
 14 15  2  0  0  0
 14 94  1  0  0  0
 15 95  1  0  0  0
 16 17  2  0  0  0
 16 21  1  0  0  0
 16 31  1  0  0  0
 17 18  1  0  0  0
 17 96  1  0  0  0
 18 19  2  0  0  0
 18 97  1  0  0  0
 19 20  1  0  0  0
 19 24  1  0  0  0
 20 21  2  0  0  0
 20 98  1  0  0  0
 21 23  1  0  0  0
 22 28  1  0  0  0
 22 32  2  0  0  0
 26 27  1  0  0  0
 28 99  1  0  0  0
 28100  1  0  0  0
 29101  1  0  0  0
 29102  1  0  0  0
 33 34  1  0  0  0
 33 66  1  0  0  0
 33 70  2  0  0  0
 34 36  1  0  0  0
 34 59  1  0  0  0
 34103  1  0  0  0
 35 44  2  0  0  0
 35 45  1  0  0  0
 35 68  1  0  0  0
 36 56  1  0  0  0
 36104  1  0  0  0
 37 39  1  0  0  0
 37 47  1  0  0  0
 37 66  1  0  0  0
 37105  1  0  0  0
 38 43  2  0  0  0
 38 46  1  0  0  0
 38 47  1  0  0  0
 39 64  1  0  0  0
 39 67  2  0  0  0
 40 52  1  0  0  0
 40 53  2  0  0  0
 40 58  1  0  0  0
 41106  1  0  0  0
 41107  1  0  0  0
 41108  1  0  0  0
 41 48  1  0  0  0
 42 43  1  0  0  0
 42 66  1  0  0  0
 42109  1  0  0  0
 42110  1  0  0  0
 43 44  1  0  0  0
 44111  1  0  0  0
 45 46  2  0  0  0
 45112  1  0  0  0
 46113  1  0  0  0
 47114  1  0  0  0
 47115  1  0  0  0
 48 56  1  0  0  0
 48 65  1  0  0  0
 48116  1  0  0  0
 49 50  1  0  0  0
 49 53  1  0  0  0
 49 64  1  0  0  0
 49117  1  0  0  0
 50 51  1  0  0  0
 50118  1  0  0  0
 50119  1  0  0  0
 51 52  1  0  0  0
 51120  1  0  0  0
 51121  1  0  0  0
 52122  1  0  0  0
 52123  1  0  0  0
 53 54  1  0  0  0
 54 55  2  0  0  0
 54124  1  0  0  0
 55 57  1  0  0  0
 55125  1  0  0  0
 56 69  2  0  0  0
 57 58  2  0  0  0
 57126  1  0  0  0
 58127  1  0  0  0
 59 60  1  0  0  0
 59 61  1  0  0  0
 59 62  1  0  0  0
 60128  1  0  0  0
 60129  1  0  0  0
 60130  1  0  0  0
 61131  1  0  0  0
 61132  1  0  0  0
 61133  1  0  0  0
 62134  1  0  0  0
 62135  1  0  0  0
 62136  1  0  0  0
 63 65  1  0  0  0
 63137  1  0  0  0
 63138  1  0  0  0
 63139  1  0  0  0
 64140  1  0  0  0
 65141  1  0  0  0
 68 77  1  0  0  0
 71 72  2  0  0  0
 71 73  1  0  0  0
 71142  1  0  0  0
 72 75  1  0  0  0
 72143  1  0  0  0
 73 76  2  0  0  0
 73144  1  0  0  0
 74 75  2  0  0  0
 74 76  1  0  0  0
 74145  1  0  0  0
 75 79  1  0  0  0
 76 82  1  0  0  0
 77 78  2  0  0  0
 77146  1  0  0  0
 78147  1  0  0  0
 78 82  1  0  0  0
 79148  1  0  0  0
 80 82  2  0  0  0
 81 82  2  0  0  0
M  ISO  4   1 100  68 101  77 101  79 100
M  END
> <chiral flag>
0

> <version>
0

> <s_m_source_file>
/data/baiqing/PycharmProjects/Reinvent-master-3.2/result/LINK_invent/BTK/process_docking_weight1_custom_product_contain_oxygen_bond_distance_aromatic_linkinvent_7_9_3/rearranged_h_0060.sdf

> <i_m_source_file_index>
72

> <r_mmod_Potential_Energy-OPLS-2005>
368.805389404297

> <r_mmod_Stretch_Energy-OPLS-2005>
229.589935302734

> <r_mmod_Bend_Energy-OPLS-2005>
226.583358764648

> <r_mmod_Torsional_Energy-OPLS-2005>
215.099166870117

> <r_mmod_Improper_Torsional_Energy-OPLS-2005>
4.78994607925415

> <r_mmod_Van_der_Waal_Energy-OPLS-2005>
130.5

> <r_mmod_Electrostatic_Energy-OPLS-2005>
-357.132141113281

> <r_mmod_Solvation_Energy-OPLS-2005>
-253.987335205078

> <b_mmod_Minimization_Converged-OPLS-2005>
0

> <r_mmod_RMS_Derivative-OPLS-2005>
0.930433690547943

$$$$
72
                    3D
 Structure written by MMmdl.
154162  0  0  1  0            999 V2000
  -30.6313  -14.7188   20.4487 C   0  0  0  0  0  0
  -30.4355  -12.4453   19.4308 C   0  0  0  0  0  0
  -29.4972  -12.4668   18.2063 C   0  0  0  0  0  0
  -28.0236  -12.3128   18.6356 C   0  0  0  0  0  0
  -27.6358  -13.2235   19.8308 C   0  0  2  0  0  0
  -28.6923  -13.1546   20.9494 C   0  0  0  0  0  0
  -25.2528  -13.8196   20.5751 C   0  0  0  0  0  0
  -24.1802  -13.0445   20.9261 C   0  0  0  0  0  0
  -24.6391  -11.6937   20.8761 C   0  0  0  0  0  0
  -23.9060  -10.4302   21.0392 C   0  0  0  0  0  0
  -24.3604   -9.4215   21.9166 C   0  0  0  0  0  0
  -23.6285   -8.2241   22.0719 C   0  0  0  0  0  0
  -22.4265   -8.0271   21.3518 C   0  0  0  0  0  0
  -21.9911   -9.0249   20.4618 C   0  0  0  0  0  0
  -22.7234  -10.2137   20.3045 C   0  0  0  0  0  0
  -21.6860   -6.0731   22.5289 C   0  0  0  0  0  0
  -21.3983   -6.5637   23.8224 C   0  0  0  0  0  0
  -21.3649   -5.6770   24.9190 C   0  0  0  0  0  0
  -21.6054   -4.3038   24.7228 C   0  0  0  0  0  0
  -21.8818   -3.8151   23.4344 C   0  0  0  0  0  0
  -21.9182   -4.6957   22.3409 C   0  0  0  0  0  0
  -22.7839  -13.5230   21.1912 C   0  0  0  0  0  0
  -22.1663   -4.2168   21.0982 F   0  0  0  0  0  0
  -21.5633   -3.4512   25.7727 F   0  0  0  0  0  0
  -29.9851  -13.5094   20.3502 N   0  0  0  0  0  0
  -26.2906  -12.9368   20.3236 N   0  0  0  0  0  0
  -25.9298  -11.6527   20.5733 N   0  0  0  0  0  0
  -22.0432  -12.8220   22.0447 N   0  0  0  0  0  0
  -25.4275  -15.1920   20.4273 N   0  0  0  0  0  0
  -31.8427  -14.7920   20.2285 O   0  0  0  0  0  0
  -21.6626   -6.8868   21.4245 O   0  0  0  0  0  0
  -22.3538  -14.5535   20.6732 O   0  0  0  0  0  0
  -24.6324  -31.8564   23.1971 C   0  0  0  0  0  0
  -25.9151  -32.4787   23.8316 C   0  0  1  0  0  0
  -27.2110  -27.2515   20.1658 C   0  0  0  0  0  0
  -25.5939  -33.8587   24.2244 N   0  0  0  0  0  0
  -23.4288  -30.4765   21.5361 C   0  0  2  0  0  0
  -24.8810  -28.9224   20.1065 C   0  0  0  0  0  0
  -22.7510  -29.4602   22.4868 C   0  0  0  0  0  0
  -18.0294  -28.1412   22.8517 C   0  0  0  0  0  0
  -24.1485  -36.7268   23.2633 C   0  0  0  0  0  0
  -25.9728  -30.7687   21.3769 C   0  0  0  0  0  0
  -26.0468  -29.3873   20.7269 C   0  0  0  0  0  0
  -27.2166  -28.5632   20.7461 C   0  0  0  0  0  0
  -26.0342  -26.8592   19.4938 C   0  0  0  0  0  0
  -24.8822  -27.6715   19.4666 C   0  0  0  0  0  0
  -23.6518  -29.8097   20.1509 C   0  0  0  0  0  0
  -25.4110  -36.3076   24.0327 C   0  0  1  0  0  0
  -20.5913  -28.3690   23.1285 C   0  0  2  0  0  0
  -20.6771  -26.9409   22.5416 C   0  0  0  0  0  0
  -19.5742  -26.6399   21.5233 C   0  0  0  0  0  0
  -18.1926  -26.7958   22.1653 C   0  0  0  0  0  0
  -19.1564  -28.8868   23.2902 C   0  0  0  0  0  0
  -18.9482  -30.1473   23.8912 C   0  0  0  0  0  0
  -17.6479  -30.6606   24.0574 C   0  0  0  0  0  0
  -25.9043  -34.9462   23.5073 C   0  0  0  0  0  0
  -16.5371  -29.9107   23.6347 C   0  0  0  0  0  0
  -16.7284  -28.6529   23.0363 C   0  0  0  0  0  0
  -26.4492  -31.6636   25.0733 C   0  0  0  0  0  0
  -25.3679  -31.3832   26.1424 C   0  0  0  0  0  0
  -27.0326  -30.3061   24.6211 C   0  0  0  0  0  0
  -27.6012  -32.4401   25.7509 C   0  0  0  0  0  0
  -27.5568  -37.1769   24.8455 C   0  0  0  0  0  0
  -21.4206  -29.3046   22.3663 N   0  0  0  0  0  0
  -26.4265  -37.3793   23.9438 N   0  0  0  0  0  0
  -24.6958  -31.0525   22.0929 N   0  0  0  0  0  0
  -23.4234  -28.8118   23.2939 O   0  0  0  0  0  0
  -28.2962  -26.3487   20.2231 O   0  0  0  0  0  0
  -26.5607  -34.8925   22.4639 O   0  0  0  0  0  0
  -23.5472  -32.1351   23.7282 O   0  0  0  0  0  0
  -29.6220  -18.4827   20.3687 C   0  0  0  0  0  0
  -31.1005  -17.3982   21.9613 C   0  0  0  0  0  0
  -30.7890  -19.8436   22.0313 C   0  0  0  0  0  0
  -30.1968  -17.2485   20.8922 C   0  0  0  0  0  0
  -29.8941  -19.8114   20.9171 C   0  0  0  0  0  0
  -31.3835  -18.6556   22.5204 C   0  0  0  0  0  0
  -28.8541  -22.2320   20.8645 C   0  0  0  0  0  0
  -31.1831  -21.1426   22.7204 C   0  0  0  0  0  0
  -28.9564  -23.6844   20.1841 C   0  0  0  0  0  0
  -28.0538  -24.9353   20.6999 C   0  0  0  0  0  0
  -29.4366  -21.0970   20.3034 N   0  0  0  0  0  0
  -29.8557  -15.8692   20.4651 N   0  0  0  0  0  0
  -28.2145  -22.1384   21.9154 O   0  0  0  0  0  0
  -32.2515  -18.7085   23.5604 F   0  0  0  0  0  0
  -31.4668  -12.5869   19.1067 H   0  0  0  0  0  0
  -30.4042  -11.4727   19.9247 H   0  0  0  0  0  0
  -29.7659  -11.6632   17.5182 H   0  0  0  0  0  0
  -29.6290  -13.3969   17.6538 H   0  0  0  0  0  0
  -27.8800  -11.2684   18.9108 H   0  0  0  0  0  0
  -27.3617  -12.4879   17.7873 H   0  0  0  0  0  0
  -27.6236  -14.2425   19.4435 H   0  0  0  0  0  0
  -28.7299  -12.1545   21.3831 H   0  0  0  0  0  0
  -28.4380  -13.8316   21.7632 H   0  0  0  0  0  0
  -25.2730   -9.5695   22.4755 H   0  0  0  0  0  0
  -23.9997   -7.4624   22.7425 H   0  0  0  0  0  0
  -21.0837   -8.8751   19.8930 H   0  0  0  0  0  0
  -22.3661  -10.9657   19.6161 H   0  0  0  0  0  0
  -21.1956   -7.6146   23.9726 H   0  0  0  0  0  0
  -21.1476   -6.0509   25.9089 H   0  0  0  0  0  0
  -22.0605   -2.7614   23.2843 H   0  0  0  0  0  0
  -22.3997  -11.9935   22.4945 H   0  0  0  0  0  0
  -21.1015  -13.1240   22.2515 H   0  0  0  0  0  0
  -24.6724  -15.8554   20.5735 H   0  0  0  0  0  0
  -26.2900  -15.6353   20.1397 H   0  0  0  0  0  0
  -26.7193  -32.5468   23.1026 H   0  0  0  0  0  0
  -25.0135  -33.9703   25.0425 H   0  0  0  0  0  0
  -22.7267  -31.2985   21.3889 H   0  0  0  0  0  0
  -23.3755  -35.9579   23.3293 H   0  0  0  0  0  0
  -24.3574  -36.8916   22.2040 H   0  0  0  0  0  0
  -23.7206  -37.6452   23.6675 H   0  0  0  0  0  0
  -26.1015  -31.5267   20.6040 H   0  0  0  0  0  0
  -26.8510  -30.8274   22.0064 H   0  0  0  0  0  0
  -28.1050  -28.9039   21.2549 H   0  0  0  0  0  0
  -25.9979  -25.9019   18.9935 H   0  0  0  0  0  0
  -23.9953  -27.3267   18.9511 H   0  0  0  0  0  0
  -23.7788  -30.5885   19.3959 H   0  0  0  0  0  0
  -22.7716  -29.2427   19.8414 H   0  0  0  0  0  0
  -25.1288  -36.1859   25.0809 H   0  0  0  0  0  0
  -21.0014  -28.3240   24.1406 H   0  0  0  0  0  0
  -20.5681  -26.2283   23.3604 H   0  0  0  0  0  0
  -21.6621  -26.7416   22.1201 H   0  0  0  0  0  0
  -19.6876  -25.6306   21.1261 H   0  0  0  0  0  0
  -19.6687  -27.3206   20.6767 H   0  0  0  0  0  0
  -17.4185  -26.6744   21.4056 H   0  0  0  0  0  0
  -18.0311  -26.0098   22.9049 H   0  0  0  0  0  0
  -19.7949  -30.7304   24.2289 H   0  0  0  0  0  0
  -17.5027  -31.6285   24.5163 H   0  0  0  0  0  0
  -15.5376  -30.3007   23.7661 H   0  0  0  0  0  0
  -15.8693  -28.0843   22.7069 H   0  0  0  0  0  0
  -24.5825  -30.7234   25.7737 H   0  0  0  0  0  0
  -24.8892  -32.3042   26.4778 H   0  0  0  0  0  0
  -25.7935  -30.9033   27.0242 H   0  0  0  0  0  0
  -26.2895  -29.6835   24.1206 H   0  0  0  0  0  0
  -27.3988  -29.7314   25.4718 H   0  0  0  0  0  0
  -27.8796  -30.4365   23.9464 H   0  0  0  0  0  0
  -27.2570  -33.3684   26.2062 H   0  0  0  0  0  0
  -28.3819  -32.6994   25.0364 H   0  0  0  0  0  0
  -28.0667  -31.8559   26.5452 H   0  0  0  0  0  0
  -28.2531  -38.0114   24.7578 H   0  0  0  0  0  0
  -28.1118  -36.2652   24.6182 H   0  0  0  0  0  0
  -27.2313  -37.1278   25.8861 H   0  0  0  0  0  0
  -20.9382  -29.8796   21.6892 H   0  0  0  0  0  0
  -26.0135  -38.2847   24.1518 H   0  0  0  0  0  0
  -28.9611  -18.4126   19.5184 H   0  0  0  0  0  0
  -31.5817  -16.5395   22.4041 H   0  0  0  0  0  0
  -31.5214  -21.8817   21.9977 H   0  0  0  0  0  0
  -31.9940  -21.0041   23.4343 H   0  0  0  0  0  0
  -30.3357  -21.5440   23.2755 H   0  0  0  0  0  0
  -28.8180  -23.5676   19.1085 H   0  0  0  0  0  0
  -29.9952  -23.9868   20.3218 H   0  0  0  0  0  0
  -27.0071  -24.6573   20.5690 H   0  0  0  0  0  0
  -28.1654  -24.9792   21.7860 H   0  0  0  0  0  0
  -29.7249  -21.2222   19.3413 H   0  0  0  0  0  0
  -28.8860  -15.7153   20.2337 H   0  0  0  0  0  0
  1 25  1  0  0  0
  1 30  2  0  0  0
  1 82  1  0  0  0
  2  3  1  0  0  0
  2 25  1  0  0  0
  2 85  1  0  0  0
  2 86  1  0  0  0
  3  4  1  0  0  0
  3 87  1  0  0  0
  3 88  1  0  0  0
  4  5  1  0  0  0
  4 89  1  0  0  0
  4 90  1  0  0  0
  5  6  1  0  0  0
  5 26  1  0  0  0
  5 91  1  0  0  0
  6 25  1  0  0  0
  6 92  1  0  0  0
  6 93  1  0  0  0
  7  8  2  0  0  0
  7 26  1  0  0  0
  7 29  1  0  0  0
  8  9  1  0  0  0
  8 22  1  0  0  0
  9 10  1  0  0  0
  9 27  2  0  0  0
 10 11  2  0  0  0
 10 15  1  0  0  0
 11 12  1  0  0  0
 11 94  1  0  0  0
 12 13  2  0  0  0
 12 95  1  0  0  0
 13 14  1  0  0  0
 13 31  1  0  0  0
 14 15  2  0  0  0
 14 96  1  0  0  0
 15 97  1  0  0  0
 16 17  2  0  0  0
 16 21  1  0  0  0
 16 31  1  0  0  0
 17 18  1  0  0  0
 17 98  1  0  0  0
 18 19  2  0  0  0
 18 99  1  0  0  0
 19 20  1  0  0  0
 19 24  1  0  0  0
 20 21  2  0  0  0
 20100  1  0  0  0
 21 23  1  0  0  0
 22 28  1  0  0  0
 22 32  2  0  0  0
 26 27  1  0  0  0
 28101  1  0  0  0
 28102  1  0  0  0
 29103  1  0  0  0
 29104  1  0  0  0
 33 34  1  0  0  0
 33 66  1  0  0  0
 33 70  2  0  0  0
 34 36  1  0  0  0
 34 59  1  0  0  0
 34105  1  0  0  0
 35 44  2  0  0  0
 35 45  1  0  0  0
 35 68  1  0  0  0
 36 56  1  0  0  0
 36106  1  0  0  0
 37 39  1  0  0  0
 37 47  1  0  0  0
 37 66  1  0  0  0
 37107  1  0  0  0
 38 43  2  0  0  0
 38 46  1  0  0  0
 38 47  1  0  0  0
 39 64  1  0  0  0
 39 67  2  0  0  0
 40 52  1  0  0  0
 40 53  2  0  0  0
 40 58  1  0  0  0
 41108  1  0  0  0
 41109  1  0  0  0
 41110  1  0  0  0
 41 48  1  0  0  0
 42 43  1  0  0  0
 42 66  1  0  0  0
 42111  1  0  0  0
 42112  1  0  0  0
 43 44  1  0  0  0
 44113  1  0  0  0
 45 46  2  0  0  0
 45114  1  0  0  0
 46115  1  0  0  0
 47116  1  0  0  0
 47117  1  0  0  0
 48 56  1  0  0  0
 48 65  1  0  0  0
 48118  1  0  0  0
 49 50  1  0  0  0
 49 53  1  0  0  0
 49 64  1  0  0  0
 49119  1  0  0  0
 50 51  1  0  0  0
 50120  1  0  0  0
 50121  1  0  0  0
 51 52  1  0  0  0
 51122  1  0  0  0
 51123  1  0  0  0
 52124  1  0  0  0
 52125  1  0  0  0
 53 54  1  0  0  0
 54 55  2  0  0  0
 54126  1  0  0  0
 55 57  1  0  0  0
 55127  1  0  0  0
 56 69  2  0  0  0
 57 58  2  0  0  0
 57128  1  0  0  0
 58129  1  0  0  0
 59 60  1  0  0  0
 59 61  1  0  0  0
 59 62  1  0  0  0
 60130  1  0  0  0
 60131  1  0  0  0
 60132  1  0  0  0
 61133  1  0  0  0
 61134  1  0  0  0
 61135  1  0  0  0
 62136  1  0  0  0
 62137  1  0  0  0
 62138  1  0  0  0
 63 65  1  0  0  0
 63139  1  0  0  0
 63140  1  0  0  0
 63141  1  0  0  0
 64142  1  0  0  0
 65143  1  0  0  0
 68 80  1  0  0  0
 71 74  2  0  0  0
 71 75  1  0  0  0
 71144  1  0  0  0
 72 74  1  0  0  0
 72 76  2  0  0  0
 72145  1  0  0  0
 73 75  2  0  0  0
 73 76  1  0  0  0
 73 78  1  0  0  0
 74 82  1  0  0  0
 75 81  1  0  0  0
 76 84  1  0  0  0
 77 79  1  0  0  0
 77 81  1  0  0  0
 77 83  2  0  0  0
 78146  1  0  0  0
 78147  1  0  0  0
 78148  1  0  0  0
 79 80  1  0  0  0
 79149  1  0  0  0
 79150  1  0  0  0
 80151  1  0  0  0
 80152  1  0  0  0
 81153  1  0  0  0
 82154  1  0  0  0
M  ISO  4   1 100  68 101  80 101  82 100
M  END
> <chiral flag>
0

> <version>
0

> <s_m_source_file>
/data/baiqing/PycharmProjects/Reinvent-master-3.2/result/LINK_invent/BTK/process_docking_weight1_custom_product_contain_oxygen_bond_distance_aromatic_linkinvent_7_9_3/rearranged_h_0060.sdf

> <i_m_source_file_index>
73

> <r_mmod_Potential_Energy-OPLS-2005>
191.581604003906

> <r_mmod_Stretch_Energy-OPLS-2005>
127.399795532227

> <r_mmod_Bend_Energy-OPLS-2005>
154.76953125

> <r_mmod_Torsional_Energy-OPLS-2005>
281.894165039062

> <r_mmod_Improper_Torsional_Energy-OPLS-2005>
9.1177453994751

> <r_mmod_Van_der_Waal_Energy-OPLS-2005>
142.193405151367

> <r_mmod_Electrostatic_Energy-OPLS-2005>
-379.675903320312

> <r_mmod_Solvation_Energy-OPLS-2005>
-233.211334228516

> <b_mmod_Minimization_Converged-OPLS-2005>
0

> <r_mmod_RMS_Derivative-OPLS-2005>
4.88482999801636

$$$$
73
                    3D
 Structure written by MMmdl.
163171  0  0  1  0            999 V2000
  -30.5766  -14.6784   20.4999 C   0  0  0  0  0  0
  -30.4479  -12.4172   19.4489 C   0  0  0  0  0  0
  -29.5118  -12.5174   18.2218 C   0  0  0  0  0  0
  -28.0332  -12.3474   18.6312 C   0  0  0  0  0  0
  -27.6519  -13.2105   19.8627 C   0  0  2  0  0  0
  -28.6979  -13.0608   20.9906 C   0  0  0  0  0  0
  -25.2550  -13.8126   20.5649 C   0  0  0  0  0  0
  -24.1834  -13.0416   20.9229 C   0  0  0  0  0  0
  -24.6393  -11.6887   20.8763 C   0  0  0  0  0  0
  -23.9054  -10.4281   21.0422 C   0  0  0  0  0  0
  -24.3610   -9.4198   21.9196 C   0  0  0  0  0  0
  -23.6290   -8.2230   22.0755 C   0  0  0  0  0  0
  -22.4273   -8.0270   21.3540 C   0  0  0  0  0  0
  -21.9906   -9.0246   20.4647 C   0  0  0  0  0  0
  -22.7230  -10.2128   20.3067 C   0  0  0  0  0  0
  -21.6850   -6.0732   22.5281 C   0  0  0  0  0  0
  -21.4007   -6.5638   23.8212 C   0  0  0  0  0  0
  -21.3666   -5.6792   24.9176 C   0  0  0  0  0  0
  -21.6044   -4.3053   24.7225 C   0  0  0  0  0  0
  -21.8822   -3.8145   23.4347 C   0  0  0  0  0  0
  -21.9191   -4.6960   22.3404 C   0  0  0  0  0  0
  -22.7860  -13.5222   21.1878 C   0  0  0  0  0  0
  -22.1662   -4.2149   21.0981 F   0  0  0  0  0  0
  -21.5634   -3.4541   25.7739 F   0  0  0  0  0  0
  -30.0071  -13.4309   20.4290 N   0  0  0  0  0  0
  -26.2975  -12.9304   20.3288 N   0  0  0  0  0  0
  -25.9317  -11.6470   20.5754 N   0  0  0  0  0  0
  -22.0490  -12.8217   22.0423 N   0  0  0  0  0  0
  -25.4224  -15.1830   20.3923 N   0  0  0  0  0  0
  -31.7481  -14.8715   20.1569 O   0  0  0  0  0  0
  -21.6638   -6.8871   21.4241 O   0  0  0  0  0  0
  -22.3569  -14.5543   20.6730 O   0  0  0  0  0  0
  -24.6270  -31.8578   23.1987 C   0  0  0  0  0  0
  -25.9117  -32.4752   23.8321 C   0  0  1  0  0  0
  -27.2282  -27.2971   20.1336 C   0  0  0  0  0  0
  -25.5930  -33.8553   24.2248 N   0  0  0  0  0  0
  -23.4211  -30.4801   21.5421 C   0  0  2  0  0  0
  -24.8667  -28.9146   20.1255 C   0  0  0  0  0  0
  -22.7484  -29.4637   22.4946 C   0  0  0  0  0  0
  -18.0296  -28.1386   22.8482 C   0  0  0  0  0  0
  -24.1491  -36.7274   23.2651 C   0  0  0  0  0  0
  -25.9634  -30.7789   21.3734 C   0  0  0  0  0  0
  -26.0346  -29.3990   20.7275 C   0  0  0  0  0  0
  -27.2183  -28.6019   20.7194 C   0  0  0  0  0  0
  -26.0446  -26.8678   19.5027 C   0  0  0  0  0  0
  -24.8715  -27.6510   19.5097 C   0  0  0  0  0  0
  -23.6391  -29.8044   20.1617 C   0  0  0  0  0  0
  -25.4110  -36.3052   24.0338 C   0  0  1  0  0  0
  -20.5892  -28.3683   23.1282 C   0  0  2  0  0  0
  -20.6777  -26.9404   22.5406 C   0  0  0  0  0  0
  -19.5753  -26.6385   21.5207 C   0  0  0  0  0  0
  -18.1937  -26.7934   22.1621 C   0  0  0  0  0  0
  -19.1547  -28.8846   23.2886 C   0  0  0  0  0  0
  -18.9483  -30.1454   23.8890 C   0  0  0  0  0  0
  -17.6480  -30.6586   24.0567 C   0  0  0  0  0  0
  -25.9041  -34.9436   23.5087 C   0  0  0  0  0  0
  -16.5369  -29.9086   23.6340 C   0  0  0  0  0  0
  -16.7286  -28.6512   23.0343 C   0  0  0  0  0  0
  -26.4483  -31.6570   25.0699 C   0  0  0  0  0  0
  -25.3721  -31.3738   26.1433 C   0  0  0  0  0  0
  -27.0320  -30.2988   24.6159 C   0  0  0  0  0  0
  -27.6040  -32.4301   25.7463 C   0  0  0  0  0  0
  -27.5575  -37.1789   24.8477 C   0  0  0  0  0  0
  -21.4198  -29.3045   22.3682 N   0  0  0  0  0  0
  -26.4282  -37.3754   23.9417 N   0  0  0  0  0  0
  -24.6898  -31.0582   22.0946 N   0  0  0  0  0  0
  -23.4195  -28.8195   23.3048 O   0  0  0  0  0  0
  -28.3794  -26.5002   20.0528 O   0  0  0  0  0  0
  -26.5622  -34.8925   22.4654 O   0  0  0  0  0  0
  -23.5433  -32.1392   23.7312 O   0  0  0  0  0  0
  -28.3538  -19.2371   20.2731 C   0  0  0  0  0  0
  -28.5034  -17.8186   20.2635 C   0  0  0  0  0  0
  -30.7549  -18.0281   21.0631 C   0  0  0  0  0  0
  -29.3752  -20.1074   20.7310 C   0  0  0  0  0  0
  -29.6986  -17.1616   20.6636 C   0  0  0  0  0  0
  -30.6004  -19.4671   21.1248 C   0  0  0  0  0  0
  -29.0664  -21.5939   20.9470 C   0  0  0  0  0  0
  -33.5814  -20.8647   22.7913 C   0  0  0  0  0  0
  -26.4213  -23.5683   20.6824 C   0  0  0  0  0  0
  -32.7492  -19.7221   22.2073 C   0  0  0  0  0  0
  -28.4975  -25.1421   20.6572 C   0  0  0  0  0  0
  -27.8147  -23.8134   20.0698 C   0  0  1  0  0  0
  -29.2116  -22.0844   22.1754 N   0  0  0  0  0  0
  -29.6907  -15.6935   20.7768 N   0  0  0  0  0  0
  -28.5728  -22.4725   20.0105 N   0  3  0  0  0  0
  -31.6017  -20.2950   21.5947 O   0  0  0  0  0  0
  -31.4865  -12.5663   19.1468 H   0  0  0  0  0  0
  -30.4009  -11.4183   19.8867 H   0  0  0  0  0  0
  -29.7812  -11.7645   17.4795 H   0  0  0  0  0  0
  -29.6469  -13.4856   17.7366 H   0  0  0  0  0  0
  -27.8699  -11.2920   18.8538 H   0  0  0  0  0  0
  -27.3799  -12.5840   17.7902 H   0  0  0  0  0  0
  -27.6662  -14.2460   19.5240 H   0  0  0  0  0  0
  -28.7218  -12.0333   21.3577 H   0  0  0  0  0  0
  -28.4384  -13.6767   21.8531 H   0  0  0  0  0  0
  -25.2757   -9.5678   22.4762 H   0  0  0  0  0  0
  -24.0012   -7.4618   22.7464 H   0  0  0  0  0  0
  -21.0845   -8.8762   19.8944 H   0  0  0  0  0  0
  -22.3695  -10.9669   19.6176 H   0  0  0  0  0  0
  -21.1992   -7.6146   23.9715 H   0  0  0  0  0  0
  -21.1488   -6.0522   25.9077 H   0  0  0  0  0  0
  -22.0594   -2.7608   23.2847 H   0  0  0  0  0  0
  -22.4098  -11.9874   22.4811 H   0  0  0  0  0  0
  -21.1100  -13.1236   22.2609 H   0  0  0  0  0  0
  -24.6214  -15.8036   20.4308 H   0  0  0  0  0  0
  -26.1942  -15.5719   19.8694 H   0  0  0  0  0  0
  -26.7180  -32.5385   23.1056 H   0  0  0  0  0  0
  -25.0057  -33.9691   25.0382 H   0  0  0  0  0  0
  -22.7167  -31.3010   21.3919 H   0  0  0  0  0  0
  -23.3744  -35.9609   23.3287 H   0  0  0  0  0  0
  -24.3610  -36.8914   22.2076 H   0  0  0  0  0  0
  -23.7272  -37.6489   23.6663 H   0  0  0  0  0  0
  -26.0981  -31.5380   20.6020 H   0  0  0  0  0  0
  -26.8446  -30.8280   22.0015 H   0  0  0  0  0  0
  -28.1229  -28.9835   21.1717 H   0  0  0  0  0  0
  -26.0315  -25.9263   18.9762 H   0  0  0  0  0  0
  -23.9789  -27.2745   19.0289 H   0  0  0  0  0  0
  -23.7686  -30.5767   19.4030 H   0  0  0  0  0  0
  -22.7567  -29.2405   19.8548 H   0  0  0  0  0  0
  -25.1288  -36.1884   25.0831 H   0  0  0  0  0  0
  -20.9973  -28.3241   24.1407 H   0  0  0  0  0  0
  -20.5664  -26.2297   23.3613 H   0  0  0  0  0  0
  -21.6654  -26.7431   22.1209 H   0  0  0  0  0  0
  -19.6923  -25.6297   21.1238 H   0  0  0  0  0  0
  -19.6692  -27.3200   20.6738 H   0  0  0  0  0  0
  -17.4213  -26.6679   21.4026 H   0  0  0  0  0  0
  -18.0328  -26.0084   22.9013 H   0  0  0  0  0  0
  -19.7963  -30.7273   24.2239 H   0  0  0  0  0  0
  -17.5049  -31.6265   24.5156 H   0  0  0  0  0  0
  -15.5370  -30.2985   23.7681 H   0  0  0  0  0  0
  -15.8692  -28.0848   22.7025 H   0  0  0  0  0  0
  -24.5866  -30.7113   25.7777 H   0  0  0  0  0  0
  -24.8947  -32.2928   26.4847 H   0  0  0  0  0  0
  -25.8050  -30.8931   27.0219 H   0  0  0  0  0  0
  -26.2901  -29.6739   24.1174 H   0  0  0  0  0  0
  -27.4027  -29.7226   25.4650 H   0  0  0  0  0  0
  -27.8748  -30.4268   23.9365 H   0  0  0  0  0  0
  -27.2640  -33.3611   26.2000 H   0  0  0  0  0  0
  -28.3857  -32.6841   25.0293 H   0  0  0  0  0  0
  -28.0665  -31.8451   26.5427 H   0  0  0  0  0  0
  -28.2568  -38.0100   24.7491 H   0  0  0  0  0  0
  -28.1091  -36.2635   24.6287 H   0  0  0  0  0  0
  -27.2307  -37.1418   25.8887 H   0  0  0  0  0  0
  -20.9370  -29.8776   21.6903 H   0  0  0  0  0  0
  -26.0154  -38.2822   24.1411 H   0  0  0  0  0  0
  -27.3946  -19.6556   19.9995 H   0  0  0  0  0  0
  -27.6503  -17.2262   19.9677 H   0  0  0  0  0  0
  -31.6725  -17.5594   21.3832 H   0  0  0  0  0  0
  -34.4782  -20.4868   23.2818 H   0  0  0  0  0  0
  -33.0117  -21.4290   23.5305 H   0  0  0  0  0  0
  -33.8950  -21.5583   22.0112 H   0  0  0  0  0  0
  -25.6662  -24.2286   20.2634 H   0  0  0  0  0  0
  -26.4244  -23.7242   21.7618 H   0  0  0  0  0  0
  -26.0753  -22.5496   20.5033 H   0  0  0  0  0  0
  -32.4644  -19.0357   23.0067 H   0  0  0  0  0  0
  -33.3388  -19.1695   21.4747 H   0  0  0  0  0  0
  -29.5710  -24.9489   20.6773 H   0  0  0  0  0  0
  -28.2215  -25.2451   21.7066 H   0  0  0  0  0  0
  -27.6466  -24.0270   19.0136 H   0  0  0  0  0  0
  -29.5924  -21.4849   22.8919 H   0  0  0  0  0  0
  -29.0197  -23.0434   22.4005 H   0  0  0  0  0  0
  -28.7747  -15.3145   20.9563 H   0  0  0  0  0  0
  -28.6190  -22.0953   19.0692 H   0  0  0  0  0  0
  1 25  1  0  0  0
  1 30  2  0  0  0
  1 84  1  0  0  0
  2  3  1  0  0  0
  2 25  1  0  0  0
  2 87  1  0  0  0
  2 88  1  0  0  0
  3  4  1  0  0  0
  3 89  1  0  0  0
  3 90  1  0  0  0
  4  5  1  0  0  0
  4 91  1  0  0  0
  4 92  1  0  0  0
  5  6  1  0  0  0
  5 26  1  0  0  0
  5 93  1  0  0  0
  6 25  1  0  0  0
  6 94  1  0  0  0
  6 95  1  0  0  0
  7  8  2  0  0  0
  7 26  1  0  0  0
  7 29  1  0  0  0
  8  9  1  0  0  0
  8 22  1  0  0  0
  9 10  1  0  0  0
  9 27  2  0  0  0
 10 11  2  0  0  0
 10 15  1  0  0  0
 11 12  1  0  0  0
 11 96  1  0  0  0
 12 13  2  0  0  0
 12 97  1  0  0  0
 13 14  1  0  0  0
 13 31  1  0  0  0
 14 15  2  0  0  0
 14 98  1  0  0  0
 15 99  1  0  0  0
 16 17  2  0  0  0
 16 21  1  0  0  0
 16 31  1  0  0  0
 17 18  1  0  0  0
 17100  1  0  0  0
 18 19  2  0  0  0
 18101  1  0  0  0
 19 20  1  0  0  0
 19 24  1  0  0  0
 20 21  2  0  0  0
 20102  1  0  0  0
 21 23  1  0  0  0
 22 28  1  0  0  0
 22 32  2  0  0  0
 26 27  1  0  0  0
 28103  1  0  0  0
 28104  1  0  0  0
 29105  1  0  0  0
 29106  1  0  0  0
 33 34  1  0  0  0
 33 66  1  0  0  0
 33 70  2  0  0  0
 34 36  1  0  0  0
 34 59  1  0  0  0
 34107  1  0  0  0
 35 44  2  0  0  0
 35 45  1  0  0  0
 35 68  1  0  0  0
 36 56  1  0  0  0
 36108  1  0  0  0
 37 39  1  0  0  0
 37 47  1  0  0  0
 37 66  1  0  0  0
 37109  1  0  0  0
 38 43  2  0  0  0
 38 46  1  0  0  0
 38 47  1  0  0  0
 39 64  1  0  0  0
 39 67  2  0  0  0
 40 52  1  0  0  0
 40 53  2  0  0  0
 40 58  1  0  0  0
 41110  1  0  0  0
 41111  1  0  0  0
 41112  1  0  0  0
 41 48  1  0  0  0
 42 43  1  0  0  0
 42 66  1  0  0  0
 42113  1  0  0  0
 42114  1  0  0  0
 43 44  1  0  0  0
 44115  1  0  0  0
 45 46  2  0  0  0
 45116  1  0  0  0
 46117  1  0  0  0
 47118  1  0  0  0
 47119  1  0  0  0
 48 56  1  0  0  0
 48 65  1  0  0  0
 48120  1  0  0  0
 49 50  1  0  0  0
 49 53  1  0  0  0
 49 64  1  0  0  0
 49121  1  0  0  0
 50 51  1  0  0  0
 50122  1  0  0  0
 50123  1  0  0  0
 51 52  1  0  0  0
 51124  1  0  0  0
 51125  1  0  0  0
 52126  1  0  0  0
 52127  1  0  0  0
 53 54  1  0  0  0
 54 55  2  0  0  0
 54128  1  0  0  0
 55 57  1  0  0  0
 55129  1  0  0  0
 56 69  2  0  0  0
 57 58  2  0  0  0
 57130  1  0  0  0
 58131  1  0  0  0
 59 60  1  0  0  0
 59 61  1  0  0  0
 59 62  1  0  0  0
 60132  1  0  0  0
 60133  1  0  0  0
 60134  1  0  0  0
 61135  1  0  0  0
 61136  1  0  0  0
 61137  1  0  0  0
 62138  1  0  0  0
 62139  1  0  0  0
 62140  1  0  0  0
 63 65  1  0  0  0
 63141  1  0  0  0
 63142  1  0  0  0
 63143  1  0  0  0
 64144  1  0  0  0
 65145  1  0  0  0
 68 81  1  0  0  0
 71 72  2  0  0  0
 71 74  1  0  0  0
 71146  1  0  0  0
 72 75  1  0  0  0
 72147  1  0  0  0
 73 75  2  0  0  0
 73 76  1  0  0  0
 73148  1  0  0  0
 74 76  2  0  0  0
 74 77  1  0  0  0
 75 84  1  0  0  0
 76 86  1  0  0  0
 77 83  1  0  0  0
 77 85  2  0  0  0
 78 80  1  0  0  0
 78149  1  0  0  0
 78150  1  0  0  0
 78151  1  0  0  0
 79152  1  0  0  0
 79153  1  0  0  0
 79154  1  0  0  0
 79 82  1  0  0  0
 80 86  1  0  0  0
 80155  1  0  0  0
 80156  1  0  0  0
 81 82  1  0  0  0
 81157  1  0  0  0
 81158  1  0  0  0
 82 85  1  0  0  0
 82159  1  0  0  0
 83160  1  0  0  0
 83161  1  0  0  0
 84162  1  0  0  0
 85163  1  0  0  0
M  CHG  1  85   1
M  ISO  4   1 100  68 101  81 101  84 100
M  END
> <chiral flag>
0

> <version>
0

> <s_m_source_file>
/data/baiqing/PycharmProjects/Reinvent-master-3.2/result/LINK_invent/BTK/process_docking_weight1_custom_product_contain_oxygen_bond_distance_aromatic_linkinvent_7_9_3/rearranged_h_0060.sdf

> <i_m_source_file_index>
74

> <r_mmod_Potential_Energy-OPLS-2005>
-5.01591110229492

> <r_mmod_Stretch_Energy-OPLS-2005>
96.7338409423828

> <r_mmod_Bend_Energy-OPLS-2005>
190.371978759766

> <r_mmod_Torsional_Energy-OPLS-2005>
258.603149414062

> <r_mmod_Improper_Torsional_Energy-OPLS-2005>
8.99696159362793

> <r_mmod_Van_der_Waal_Energy-OPLS-2005>
133.958251953125

> <r_mmod_Electrostatic_Energy-OPLS-2005>
-347.193176269531

> <r_mmod_Solvation_Energy-OPLS-2005>
-401.958557128906

> <b_mmod_Minimization_Converged-OPLS-2005>
0

> <r_mmod_RMS_Derivative-OPLS-2005>
2.23822045326233

$$$$
74
                    3D
 Structure written by MMmdl.
156164  0  0  1  0            999 V2000
  -30.6149  -14.6455   20.4993 C   0  0  0  0  0  0
  -30.4414  -12.3968   19.4498 C   0  0  0  0  0  0
  -29.5084  -12.5046   18.2230 C   0  0  0  0  0  0
  -28.0300  -12.3464   18.6344 C   0  0  0  0  0  0
  -27.6519  -13.2176   19.8618 C   0  0  2  0  0  0
  -28.6972  -13.0726   20.9907 C   0  0  0  0  0  0
  -25.2535  -13.8170   20.5680 C   0  0  0  0  0  0
  -24.1808  -13.0426   20.9180 C   0  0  0  0  0  0
  -24.6398  -11.6909   20.8738 C   0  0  0  0  0  0
  -23.9078  -10.4291   21.0411 C   0  0  0  0  0  0
  -24.3626   -9.4211   21.9200 C   0  0  0  0  0  0
  -23.6296   -8.2247   22.0763 C   0  0  0  0  0  0
  -22.4282   -8.0285   21.3550 C   0  0  0  0  0  0
  -21.9924   -9.0262   20.4657 C   0  0  0  0  0  0
  -22.7251  -10.2137   20.3064 C   0  0  0  0  0  0
  -21.6852   -6.0749   22.5287 C   0  0  0  0  0  0
  -21.4010   -6.5644   23.8222 C   0  0  0  0  0  0
  -21.3656   -5.6794   24.9181 C   0  0  0  0  0  0
  -21.6036   -4.3058   24.7225 C   0  0  0  0  0  0
  -21.8818   -3.8158   23.4346 C   0  0  0  0  0  0
  -21.9189   -4.6979   22.3408 C   0  0  0  0  0  0
  -22.7827  -13.5212   21.1855 C   0  0  0  0  0  0
  -22.1655   -4.2168   21.0986 F   0  0  0  0  0  0
  -21.5628   -3.4542   25.7736 F   0  0  0  0  0  0
  -30.0124  -13.4170   20.4259 N   0  0  0  0  0  0
  -26.2980  -12.9365   20.3315 N   0  0  0  0  0  0
  -25.9328  -11.6521   20.5765 N   0  0  0  0  0  0
  -22.0471  -12.8211   22.0416 N   0  0  0  0  0  0
  -25.4176  -15.1897   20.4124 N   0  0  0  0  0  0
  -31.7868  -14.8088   20.1435 O   0  0  0  0  0  0
  -21.6631   -6.8893   21.4251 O   0  0  0  0  0  0
  -22.3513  -14.5535   20.6731 O   0  0  0  0  0  0
  -24.6274  -31.8600   23.2000 C   0  0  0  0  0  0
  -25.9120  -32.4767   23.8339 C   0  0  1  0  0  0
  -27.2366  -27.3233   20.1208 C   0  0  0  0  0  0
  -25.5946  -33.8559   24.2277 N   0  0  0  0  0  0
  -23.4211  -30.4798   21.5435 C   0  0  2  0  0  0
  -24.8706  -28.9344   20.1092 C   0  0  0  0  0  0
  -22.7497  -29.4594   22.4942 C   0  0  0  0  0  0
  -18.0276  -28.1378   22.8452 C   0  0  0  0  0  0
  -24.1492  -36.7281   23.2641 C   0  0  0  0  0  0
  -25.9599  -30.7944   21.3680 C   0  0  0  0  0  0
  -26.0375  -29.4207   20.7123 C   0  0  0  0  0  0
  -27.2219  -28.6268   20.7075 C   0  0  0  0  0  0
  -26.0450  -26.8870   19.4977 C   0  0  0  0  0  0
  -24.8765  -27.6733   19.4919 C   0  0  0  0  0  0
  -23.6367  -29.8143   20.1579 C   0  0  0  0  0  0
  -25.4113  -36.3071   24.0336 C   0  0  1  0  0  0
  -20.5881  -28.3676   23.1276 C   0  0  2  0  0  0
  -20.6777  -26.9399   22.5405 C   0  0  0  0  0  0
  -19.5752  -26.6385   21.5194 C   0  0  0  0  0  0
  -18.1926  -26.7913   22.1605 C   0  0  0  0  0  0
  -19.1536  -28.8840   23.2847 C   0  0  0  0  0  0
  -18.9469  -30.1442   23.8863 C   0  0  0  0  0  0
  -17.6474  -30.6574   24.0551 C   0  0  0  0  0  0
  -25.9062  -34.9444   23.5103 C   0  0  0  0  0  0
  -16.5357  -29.9072   23.6330 C   0  0  0  0  0  0
  -16.7268  -28.6501   23.0320 C   0  0  0  0  0  0
  -26.4495  -31.6568   25.0707 C   0  0  0  0  0  0
  -25.3733  -31.3698   26.1443 C   0  0  0  0  0  0
  -27.0350  -30.3009   24.6127 C   0  0  0  0  0  0
  -27.6062  -32.4296   25.7484 C   0  0  0  0  0  0
  -27.5568  -37.1793   24.8469 C   0  0  0  0  0  0
  -21.4211  -29.3024   22.3688 N   0  0  0  0  0  0
  -26.4282  -37.3777   23.9417 N   0  0  0  0  0  0
  -24.6876  -31.0623   22.0941 N   0  0  0  0  0  0
  -23.4226  -28.8142   23.3025 O   0  0  0  0  0  0
  -28.3669  -26.4907   20.1708 O   0  0  0  0  0  0
  -26.5622  -34.8919   22.4663 O   0  0  0  0  0  0
  -23.5444  -32.1390   23.7342 O   0  0  0  0  0  0
  -28.7349  -19.3474   20.6655 C   0  0  0  0  0  0
  -31.1190  -17.8697   20.7492 C   0  0  0  0  0  0
  -29.9406  -20.0877   20.7759 C   0  0  0  0  0  0
  -31.1477  -19.3009   20.7806 C   0  0  0  0  0  0
  -29.9046  -17.1411   20.7071 C   0  0  0  0  0  0
  -28.7188  -17.9209   20.6418 C   0  0  0  0  0  0
  -29.9244  -21.5921   21.0230 C   0  0  0  0  0  0
  -32.5264  -19.9470   20.8447 C   0  0  0  0  0  0
  -29.3980  -24.0877   20.4689 C   0  0  0  0  0  0
  -28.1901  -25.0249   20.0342 C   0  0  0  0  0  0
  -30.6438  -22.0194   22.0579 N   0  0  0  0  0  0
  -29.7772  -15.6877   20.7872 N   0  0  0  0  0  0
  -29.2535  -22.5679   20.3248 N   0  3  0  0  0  0
  -27.5268  -17.2781   20.5831 F   0  0  0  0  0  0
  -31.4809  -12.5301   19.1440 H   0  0  0  0  0  0
  -30.3831  -11.4009   19.8916 H   0  0  0  0  0  0
  -29.7703  -11.7469   17.4835 H   0  0  0  0  0  0
  -29.6524  -13.4692   17.7346 H   0  0  0  0  0  0
  -27.8645  -11.2940   18.8660 H   0  0  0  0  0  0
  -27.3763  -12.5777   17.7925 H   0  0  0  0  0  0
  -27.6650  -14.2517   19.5180 H   0  0  0  0  0  0
  -28.7099  -12.0514   21.3750 H   0  0  0  0  0  0
  -28.4431  -13.7059   21.8418 H   0  0  0  0  0  0
  -25.2776   -9.5661   22.4784 H   0  0  0  0  0  0
  -23.9993   -7.4624   22.7476 H   0  0  0  0  0  0
  -21.0865   -8.8792   19.8955 H   0  0  0  0  0  0
  -22.3734  -10.9682   19.6167 H   0  0  0  0  0  0
  -21.2006   -7.6153   23.9731 H   0  0  0  0  0  0
  -21.1470   -6.0525   25.9083 H   0  0  0  0  0  0
  -22.0602   -2.7622   23.2846 H   0  0  0  0  0  0
  -22.4069  -11.9847   22.4778 H   0  0  0  0  0  0
  -21.1101  -13.1260   22.2645 H   0  0  0  0  0  0
  -24.6453  -15.8338   20.5441 H   0  0  0  0  0  0
  -26.2774  -15.6657   20.1642 H   0  0  0  0  0  0
  -26.7199  -32.5454   23.1108 H   0  0  0  0  0  0
  -25.0114  -33.9689   25.0435 H   0  0  0  0  0  0
  -22.7121  -31.2972   21.3991 H   0  0  0  0  0  0
  -23.3743  -35.9623   23.3308 H   0  0  0  0  0  0
  -24.3592  -36.8909   22.2057 H   0  0  0  0  0  0
  -23.7258  -37.6489   23.6660 H   0  0  0  0  0  0
  -26.0869  -31.5576   20.5978 H   0  0  0  0  0  0
  -26.8403  -30.8477   21.9949 H   0  0  0  0  0  0
  -28.1165  -28.9948   21.1904 H   0  0  0  0  0  0
  -25.9916  -25.9216   19.0161 H   0  0  0  0  0  0
  -23.9852  -27.2927   19.0117 H   0  0  0  0  0  0
  -23.7580  -30.5939   19.4037 H   0  0  0  0  0  0
  -22.7568  -29.2456   19.8524 H   0  0  0  0  0  0
  -25.1285  -36.1917   25.0828 H   0  0  0  0  0  0
  -20.9937  -28.3254   24.1409 H   0  0  0  0  0  0
  -20.5686  -26.2274   23.3601 H   0  0  0  0  0  0
  -21.6639  -26.7440   22.1177 H   0  0  0  0  0  0
  -19.6927  -25.6301   21.1202 H   0  0  0  0  0  0
  -19.6698  -27.3209   20.6729 H   0  0  0  0  0  0
  -17.4202  -26.6632   21.4011 H   0  0  0  0  0  0
  -18.0323  -26.0069   22.9016 H   0  0  0  0  0  0
  -19.7959  -30.7236   24.2230 H   0  0  0  0  0  0
  -17.5039  -31.6249   24.5157 H   0  0  0  0  0  0
  -15.5353  -30.2961   23.7683 H   0  0  0  0  0  0
  -15.8665  -28.0831   22.7023 H   0  0  0  0  0  0
  -24.5921  -30.7024   25.7787 H   0  0  0  0  0  0
  -24.8881  -32.2854   26.4837 H   0  0  0  0  0  0
  -25.8065  -30.8914   27.0237 H   0  0  0  0  0  0
  -26.2926  -29.6750   24.1165 H   0  0  0  0  0  0
  -27.4108  -29.7263   25.4599 H   0  0  0  0  0  0
  -27.8763  -30.4321   23.9314 H   0  0  0  0  0  0
  -27.2686  -33.3618   26.2021 H   0  0  0  0  0  0
  -28.3887  -32.6830   25.0314 H   0  0  0  0  0  0
  -28.0704  -31.8438   26.5424 H   0  0  0  0  0  0
  -28.2576  -38.0097   24.7507 H   0  0  0  0  0  0
  -28.1077  -36.2629   24.6299 H   0  0  0  0  0  0
  -27.2294  -37.1444   25.8876 H   0  0  0  0  0  0
  -20.9409  -29.8787   21.6918 H   0  0  0  0  0  0
  -26.0159  -38.2852   24.1420 H   0  0  0  0  0  0
  -27.7915  -19.8732   20.6577 H   0  0  0  0  0  0
  -32.0501  -17.3223   20.7954 H   0  0  0  0  0  0
  -33.2931  -19.2767   20.4565 H   0  0  0  0  0  0
  -32.7884  -20.1834   21.8766 H   0  0  0  0  0  0
  -32.5686  -20.8615   20.2519 H   0  0  0  0  0  0
  -29.6280  -24.3302   21.5069 H   0  0  0  0  0  0
  -30.2816  -24.3821   19.8979 H   0  0  0  0  0  0
  -27.3239  -24.7280   20.6265 H   0  0  0  0  0  0
  -27.9461  -24.8008   18.9962 H   0  0  0  0  0  0
  -31.0894  -21.3378   22.6524 H   0  0  0  0  0  0
  -30.7103  -22.9882   22.3175 H   0  0  0  0  0  0
  -28.8342  -15.3895   20.9814 H   0  0  0  0  0  0
  -28.7525  -22.2519   19.5018 H   0  0  0  0  0  0
  1 25  1  0  0  0
  1 30  2  0  0  0
  1 82  1  0  0  0
  2  3  1  0  0  0
  2 25  1  0  0  0
  2 85  1  0  0  0
  2 86  1  0  0  0
  3  4  1  0  0  0
  3 87  1  0  0  0
  3 88  1  0  0  0
  4  5  1  0  0  0
  4 89  1  0  0  0
  4 90  1  0  0  0
  5  6  1  0  0  0
  5 26  1  0  0  0
  5 91  1  0  0  0
  6 25  1  0  0  0
  6 92  1  0  0  0
  6 93  1  0  0  0
  7  8  2  0  0  0
  7 26  1  0  0  0
  7 29  1  0  0  0
  8  9  1  0  0  0
  8 22  1  0  0  0
  9 10  1  0  0  0
  9 27  2  0  0  0
 10 11  2  0  0  0
 10 15  1  0  0  0
 11 12  1  0  0  0
 11 94  1  0  0  0
 12 13  2  0  0  0
 12 95  1  0  0  0
 13 14  1  0  0  0
 13 31  1  0  0  0
 14 15  2  0  0  0
 14 96  1  0  0  0
 15 97  1  0  0  0
 16 17  2  0  0  0
 16 21  1  0  0  0
 16 31  1  0  0  0
 17 18  1  0  0  0
 17 98  1  0  0  0
 18 19  2  0  0  0
 18 99  1  0  0  0
 19 20  1  0  0  0
 19 24  1  0  0  0
 20 21  2  0  0  0
 20100  1  0  0  0
 21 23  1  0  0  0
 22 28  1  0  0  0
 22 32  2  0  0  0
 26 27  1  0  0  0
 28101  1  0  0  0
 28102  1  0  0  0
 29103  1  0  0  0
 29104  1  0  0  0
 33 34  1  0  0  0
 33 66  1  0  0  0
 33 70  2  0  0  0
 34 36  1  0  0  0
 34 59  1  0  0  0
 34105  1  0  0  0
 35 44  2  0  0  0
 35 45  1  0  0  0
 35 68  1  0  0  0
 36 56  1  0  0  0
 36106  1  0  0  0
 37 39  1  0  0  0
 37 47  1  0  0  0
 37 66  1  0  0  0
 37107  1  0  0  0
 38 43  2  0  0  0
 38 46  1  0  0  0
 38 47  1  0  0  0
 39 64  1  0  0  0
 39 67  2  0  0  0
 40 52  1  0  0  0
 40 53  2  0  0  0
 40 58  1  0  0  0
 41108  1  0  0  0
 41109  1  0  0  0
 41110  1  0  0  0
 41 48  1  0  0  0
 42 43  1  0  0  0
 42 66  1  0  0  0
 42111  1  0  0  0
 42112  1  0  0  0
 43 44  1  0  0  0
 44113  1  0  0  0
 45 46  2  0  0  0
 45114  1  0  0  0
 46115  1  0  0  0
 47116  1  0  0  0
 47117  1  0  0  0
 48 56  1  0  0  0
 48 65  1  0  0  0
 48118  1  0  0  0
 49 50  1  0  0  0
 49 53  1  0  0  0
 49 64  1  0  0  0
 49119  1  0  0  0
 50 51  1  0  0  0
 50120  1  0  0  0
 50121  1  0  0  0
 51 52  1  0  0  0
 51122  1  0  0  0
 51123  1  0  0  0
 52124  1  0  0  0
 52125  1  0  0  0
 53 54  1  0  0  0
 54 55  2  0  0  0
 54126  1  0  0  0
 55 57  1  0  0  0
 55127  1  0  0  0
 56 69  2  0  0  0
 57 58  2  0  0  0
 57128  1  0  0  0
 58129  1  0  0  0
 59 60  1  0  0  0
 59 61  1  0  0  0
 59 62  1  0  0  0
 60130  1  0  0  0
 60131  1  0  0  0
 60132  1  0  0  0
 61133  1  0  0  0
 61134  1  0  0  0
 61135  1  0  0  0
 62136  1  0  0  0
 62137  1  0  0  0
 62138  1  0  0  0
 63 65  1  0  0  0
 63139  1  0  0  0
 63140  1  0  0  0
 63141  1  0  0  0
 64142  1  0  0  0
 65143  1  0  0  0
 68 80  1  0  0  0
 71 73  2  0  0  0
 71 76  1  0  0  0
 71144  1  0  0  0
 72 74  2  0  0  0
 72 75  1  0  0  0
 72145  1  0  0  0
 73 74  1  0  0  0
 73 77  1  0  0  0
 74 78  1  0  0  0
 75 76  2  0  0  0
 75 82  1  0  0  0
 76 84  1  0  0  0
 77 81  1  0  0  0
 77 83  2  0  0  0
 78146  1  0  0  0
 78147  1  0  0  0
 78148  1  0  0  0
 79 80  1  0  0  0
 79 83  1  0  0  0
 79149  1  0  0  0
 79150  1  0  0  0
 80151  1  0  0  0
 80152  1  0  0  0
 81153  1  0  0  0
 81154  1  0  0  0
 82155  1  0  0  0
 83156  1  0  0  0
M  CHG  1  83   1
M  ISO  4   1 100  68 101  80 101  82 100
M  END
> <chiral flag>
0

> <version>
0

> <s_m_source_file>
/data/baiqing/PycharmProjects/Reinvent-master-3.2/result/LINK_invent/BTK/process_docking_weight1_custom_product_contain_oxygen_bond_distance_aromatic_linkinvent_7_9_3/rearranged_h_0060.sdf

> <i_m_source_file_index>
75

> <r_mmod_Potential_Energy-OPLS-2005>
-222.332489013672

> <r_mmod_Stretch_Energy-OPLS-2005>
81.9367446899414

> <r_mmod_Bend_Energy-OPLS-2005>
139.671737670898

> <r_mmod_Torsional_Energy-OPLS-2005>
216.725692749023

> <r_mmod_Improper_Torsional_Energy-OPLS-2005>
5.74104690551758

> <r_mmod_Van_der_Waal_Energy-OPLS-2005>
150.631256103516

> <r_mmod_Electrostatic_Energy-OPLS-2005>
-452.536102294922

> <r_mmod_Solvation_Energy-OPLS-2005>
-412.913848876953

> <b_mmod_Minimization_Converged-OPLS-2005>
0

> <r_mmod_RMS_Derivative-OPLS-2005>
2.20671844482422

$$$$
75
                    3D
 Structure written by MMmdl.
155164  0  0  1  0            999 V2000
  -30.5911  -14.6985   20.4968 C   0  0  0  0  0  0
  -30.4469  -12.4291   19.4620 C   0  0  0  0  0  0
  -29.5139  -12.5177   18.2321 C   0  0  0  0  0  0
  -28.0376  -12.3446   18.6431 C   0  0  0  0  0  0
  -27.6540  -13.2197   19.8657 C   0  0  2  0  0  0
  -28.6988  -13.0858   20.9967 C   0  0  0  0  0  0
  -25.2563  -13.8172   20.5688 C   0  0  0  0  0  0
  -24.1831  -13.0437   20.9195 C   0  0  0  0  0  0
  -24.6403  -11.6909   20.8741 C   0  0  0  0  0  0
  -23.9069  -10.4292   21.0405 C   0  0  0  0  0  0
  -24.3618   -9.4207   21.9184 C   0  0  0  0  0  0
  -23.6292   -8.2243   22.0754 C   0  0  0  0  0  0
  -22.4275   -8.0281   21.3544 C   0  0  0  0  0  0
  -21.9911   -9.0256   20.4647 C   0  0  0  0  0  0
  -22.7241  -10.2135   20.3056 C   0  0  0  0  0  0
  -21.6853   -6.0736   22.5279 C   0  0  0  0  0  0
  -21.4014   -6.5640   23.8212 C   0  0  0  0  0  0
  -21.3659   -5.6793   24.9174 C   0  0  0  0  0  0
  -21.6044   -4.3055   24.7225 C   0  0  0  0  0  0
  -21.8819   -3.8147   23.4346 C   0  0  0  0  0  0
  -21.9193   -4.6964   22.3402 C   0  0  0  0  0  0
  -22.7853  -13.5230   21.1855 C   0  0  0  0  0  0
  -22.1662   -4.2149   21.0980 F   0  0  0  0  0  0
  -21.5628   -3.4539   25.7738 F   0  0  0  0  0  0
  -30.0102  -13.4529   20.4362 N   0  0  0  0  0  0
  -26.2996  -12.9359   20.3329 N   0  0  0  0  0  0
  -25.9335  -11.6511   20.5763 N   0  0  0  0  0  0
  -22.0494  -12.8223   22.0411 N   0  0  0  0  0  0
  -25.4267  -15.1891   20.4085 N   0  0  0  0  0  0
  -31.7413  -14.8810   20.0846 O   0  0  0  0  0  0
  -21.6639   -6.8879   21.4241 O   0  0  0  0  0  0
  -22.3538  -14.5536   20.6702 O   0  0  0  0  0  0
  -24.6300  -31.8569   23.2006 C   0  0  0  0  0  0
  -25.9132  -32.4764   23.8344 C   0  0  1  0  0  0
  -27.2227  -27.2801   20.1193 C   0  0  0  0  0  0
  -25.5933  -33.8566   24.2267 N   0  0  0  0  0  0
  -23.4257  -30.4809   21.5438 C   0  0  2  0  0  0
  -24.8729  -28.9339   20.1090 C   0  0  0  0  0  0
  -22.7496  -29.4610   22.4918 C   0  0  0  0  0  0
  -18.0291  -28.1387   22.8485 C   0  0  0  0  0  0
  -24.1490  -36.7287   23.2639 C   0  0  0  0  0  0
  -25.9712  -30.7746   21.3795 C   0  0  0  0  0  0
  -26.0441  -29.3998   20.7194 C   0  0  0  0  0  0
  -27.2204  -28.5848   20.7159 C   0  0  0  0  0  0
  -26.0274  -26.8855   19.4720 C   0  0  0  0  0  0
  -24.8689  -27.6838   19.4755 C   0  0  0  0  0  0
  -23.6428  -29.8180   20.1589 C   0  0  0  0  0  0
  -25.4117  -36.3075   24.0326 C   0  0  1  0  0  0
  -20.5894  -28.3697   23.1271 C   0  0  2  0  0  0
  -20.6779  -26.9415   22.5407 C   0  0  0  0  0  0
  -19.5754  -26.6384   21.5212 C   0  0  0  0  0  0
  -18.1934  -26.7929   22.1625 C   0  0  0  0  0  0
  -19.1544  -28.8858   23.2873 C   0  0  0  0  0  0
  -18.9466  -30.1459   23.8892 C   0  0  0  0  0  0
  -17.6465  -30.6588   24.0562 C   0  0  0  0  0  0
  -25.9055  -34.9444   23.5098 C   0  0  0  0  0  0
  -16.5356  -29.9085   23.6331 C   0  0  0  0  0  0
  -16.7277  -28.6502   23.0353 C   0  0  0  0  0  0
  -26.4502  -31.6584   25.0729 C   0  0  0  0  0  0
  -25.3725  -31.3732   26.1447 C   0  0  0  0  0  0
  -27.0353  -30.3002   24.6213 C   0  0  0  0  0  0
  -27.6054  -32.4327   25.7503 C   0  0  0  0  0  0
  -27.5578  -37.1801   24.8466 C   0  0  0  0  0  0
  -21.4205  -29.3045   22.3661 N   0  0  0  0  0  0
  -26.4293  -37.3771   23.9405 N   0  0  0  0  0  0
  -24.6946  -31.0549   22.0976 N   0  0  0  0  0  0
  -23.4203  -28.8147   23.3009 O   0  0  0  0  0  0
  -28.3220  -26.3918   20.1892 O   0  0  0  0  0  0
  -26.5626  -34.8916   22.4666 O   0  0  0  0  0  0
  -23.5453  -32.1386   23.7309 O   0  0  0  0  0  0
  -30.3374  -19.4176   19.8087 C   0  0  0  0  0  0
  -30.4894  -17.9882   19.8865 C   0  0  0  0  0  0
  -28.7810  -19.3705   21.5786 C   0  0  0  0  0  0
  -28.8980  -17.9459   21.6674 C   0  0  0  0  0  0
  -29.4804  -20.1967   20.6517 C   0  0  0  0  0  0
  -29.7678  -17.1970   20.8231 C   0  0  0  0  0  0
  -28.5996  -22.6564   21.3241 C   0  0  0  0  0  0
  -29.4459  -22.5116   19.4433 C   0  0  0  0  0  0
  -29.1318  -23.7770   20.3383 C   0  0  1  0  0  0
  -28.0590  -17.2216   22.7086 C   0  0  0  0  0  0
  -28.0962  -24.9325   19.9172 C   0  0  0  0  0  0
  -29.3448  -21.6744   20.6456 N   0  0  0  0  0  0
  -29.7759  -15.7217   20.9293 N   0  0  0  0  0  0
  -27.8138  -22.5743   22.2457 O   0  0  0  0  0  0
  -31.4856  -12.5703   19.1582 H   0  0  0  0  0  0
  -30.4004  -11.4357   19.9109 H   0  0  0  0  0  0
  -29.7877  -11.7613   17.4954 H   0  0  0  0  0  0
  -29.6453  -13.4834   17.7412 H   0  0  0  0  0  0
  -27.8832  -11.2916   18.8815 H   0  0  0  0  0  0
  -27.3817  -12.5642   17.7999 H   0  0  0  0  0  0
  -27.6681  -14.2535   19.5199 H   0  0  0  0  0  0
  -28.7243  -12.0628   21.3751 H   0  0  0  0  0  0
  -28.4314  -13.7085   21.8516 H   0  0  0  0  0  0
  -25.2763   -9.5682   22.4758 H   0  0  0  0  0  0
  -24.0002   -7.4634   22.7472 H   0  0  0  0  0  0
  -21.0842   -8.8776   19.8952 H   0  0  0  0  0  0
  -22.3700  -10.9674   19.6164 H   0  0  0  0  0  0
  -21.2007   -7.6148   23.9716 H   0  0  0  0  0  0
  -21.1482   -6.0522   25.9077 H   0  0  0  0  0  0
  -22.0598   -2.7609   23.2846 H   0  0  0  0  0  0
  -22.4109  -11.9885   22.4800 H   0  0  0  0  0  0
  -21.1113  -13.1250   22.2616 H   0  0  0  0  0  0
  -24.6554  -15.8399   20.5074 H   0  0  0  0  0  0
  -26.2684  -15.6257   20.0548 H   0  0  0  0  0  0
  -26.7197  -32.5419   23.1086 H   0  0  0  0  0  0
  -25.0076  -33.9707   25.0409 H   0  0  0  0  0  0
  -22.7213  -31.3029   21.4001 H   0  0  0  0  0  0
  -23.3752  -35.9621   23.3304 H   0  0  0  0  0  0
  -24.3579  -36.8908   22.2054 H   0  0  0  0  0  0
  -23.7246  -37.6490   23.6663 H   0  0  0  0  0  0
  -26.1101  -31.5373   20.6120 H   0  0  0  0  0  0
  -26.8488  -30.8212   22.0127 H   0  0  0  0  0  0
  -28.1151  -28.9354   21.2112 H   0  0  0  0  0  0
  -25.9506  -25.9362   18.9644 H   0  0  0  0  0  0
  -23.9737  -27.3235   18.9876 H   0  0  0  0  0  0
  -23.7653  -30.5958   19.4043 H   0  0  0  0  0  0
  -22.7616  -29.2506   19.8539 H   0  0  0  0  0  0
  -25.1299  -36.1925   25.0819 H   0  0  0  0  0  0
  -20.9987  -28.3275   24.1391 H   0  0  0  0  0  0
  -20.5681  -26.2307   23.3611 H   0  0  0  0  0  0
  -21.6647  -26.7441   22.1200 H   0  0  0  0  0  0
  -19.6915  -25.6294   21.1244 H   0  0  0  0  0  0
  -19.6690  -27.3192   20.6740 H   0  0  0  0  0  0
  -17.4203  -26.6674   21.4029 H   0  0  0  0  0  0
  -18.0337  -26.0072   22.9024 H   0  0  0  0  0  0
  -19.7941  -30.7277   24.2259 H   0  0  0  0  0  0
  -17.5019  -31.6267   24.5165 H   0  0  0  0  0  0
  -15.5356  -30.2985   23.7658 H   0  0  0  0  0  0
  -15.8677  -28.0820   22.7071 H   0  0  0  0  0  0
  -24.5906  -30.7075   25.7774 H   0  0  0  0  0  0
  -24.8910  -32.2900   26.4859 H   0  0  0  0  0  0
  -25.8042  -30.8919   27.0232 H   0  0  0  0  0  0
  -26.2939  -29.6747   24.1227 H   0  0  0  0  0  0
  -27.4024  -29.7267   25.4734 H   0  0  0  0  0  0
  -27.8821  -30.4277   23.9466 H   0  0  0  0  0  0
  -27.2659  -33.3630   26.2069 H   0  0  0  0  0  0
  -28.3871  -32.6883   25.0337 H   0  0  0  0  0  0
  -28.0715  -31.8461   26.5430 H   0  0  0  0  0  0
  -28.2599  -38.0095   24.7505 H   0  0  0  0  0  0
  -28.1071  -36.2625   24.6303 H   0  0  0  0  0  0
  -27.2293  -37.1463   25.8868 H   0  0  0  0  0  0
  -20.9388  -29.8771   21.6870 H   0  0  0  0  0  0
  -26.0172  -38.2847   24.1401 H   0  0  0  0  0  0
  -30.9280  -19.9371   19.0678 H   0  0  0  0  0  0
  -31.1629  -17.5029   19.1942 H   0  0  0  0  0  0
  -28.1079  -19.8591   22.2688 H   0  0  0  0  0  0
  -30.4376  -22.5172   18.9883 H   0  0  0  0  0  0
  -28.6691  -22.2863   18.7081 H   0  0  0  0  0  0
  -30.0704  -24.2095   20.6857 H   0  0  0  0  0  0
  -27.5185  -17.9195   23.3484 H   0  0  0  0  0  0
  -28.6901  -16.6083   23.3526 H   0  0  0  0  0  0
  -27.3238  -16.5759   22.2280 H   0  0  0  0  0  0
  -27.1368  -24.6696   20.3651 H   0  0  0  0  0  0
  -27.9405  -24.8509   18.8410 H   0  0  0  0  0  0
  -28.9430  -15.3538   21.3615 H   0  0  0  0  0  0
  1 25  1  0  0  0
  1 30  2  0  0  0
  1 83  1  0  0  0
  2  3  1  0  0  0
  2 25  1  0  0  0
  2 85  1  0  0  0
  2 86  1  0  0  0
  3  4  1  0  0  0
  3 87  1  0  0  0
  3 88  1  0  0  0
  4  5  1  0  0  0
  4 89  1  0  0  0
  4 90  1  0  0  0
  5  6  1  0  0  0
  5 26  1  0  0  0
  5 91  1  0  0  0
  6 25  1  0  0  0
  6 92  1  0  0  0
  6 93  1  0  0  0
  7  8  2  0  0  0
  7 26  1  0  0  0
  7 29  1  0  0  0
  8  9  1  0  0  0
  8 22  1  0  0  0
  9 10  1  0  0  0
  9 27  2  0  0  0
 10 11  2  0  0  0
 10 15  1  0  0  0
 11 12  1  0  0  0
 11 94  1  0  0  0
 12 13  2  0  0  0
 12 95  1  0  0  0
 13 14  1  0  0  0
 13 31  1  0  0  0
 14 15  2  0  0  0
 14 96  1  0  0  0
 15 97  1  0  0  0
 16 17  2  0  0  0
 16 21  1  0  0  0
 16 31  1  0  0  0
 17 18  1  0  0  0
 17 98  1  0  0  0
 18 19  2  0  0  0
 18 99  1  0  0  0
 19 20  1  0  0  0
 19 24  1  0  0  0
 20 21  2  0  0  0
 20100  1  0  0  0
 21 23  1  0  0  0
 22 28  1  0  0  0
 22 32  2  0  0  0
 26 27  1  0  0  0
 28101  1  0  0  0
 28102  1  0  0  0
 29103  1  0  0  0
 29104  1  0  0  0
 33 34  1  0  0  0
 33 66  1  0  0  0
 33 70  2  0  0  0
 34 36  1  0  0  0
 34 59  1  0  0  0
 34105  1  0  0  0
 35 44  2  0  0  0
 35 45  1  0  0  0
 35 68  1  0  0  0
 36 56  1  0  0  0
 36106  1  0  0  0
 37 39  1  0  0  0
 37 47  1  0  0  0
 37 66  1  0  0  0
 37107  1  0  0  0
 38 43  2  0  0  0
 38 46  1  0  0  0
 38 47  1  0  0  0
 39 64  1  0  0  0
 39 67  2  0  0  0
 40 52  1  0  0  0
 40 53  2  0  0  0
 40 58  1  0  0  0
 41108  1  0  0  0
 41109  1  0  0  0
 41110  1  0  0  0
 41 48  1  0  0  0
 42 43  1  0  0  0
 42 66  1  0  0  0
 42111  1  0  0  0
 42112  1  0  0  0
 43 44  1  0  0  0
 44113  1  0  0  0
 45 46  2  0  0  0
 45114  1  0  0  0
 46115  1  0  0  0
 47116  1  0  0  0
 47117  1  0  0  0
 48 56  1  0  0  0
 48 65  1  0  0  0
 48118  1  0  0  0
 49 50  1  0  0  0
 49 53  1  0  0  0
 49 64  1  0  0  0
 49119  1  0  0  0
 50 51  1  0  0  0
 50120  1  0  0  0
 50121  1  0  0  0
 51 52  1  0  0  0
 51122  1  0  0  0
 51123  1  0  0  0
 52124  1  0  0  0
 52125  1  0  0  0
 53 54  1  0  0  0
 54 55  2  0  0  0
 54126  1  0  0  0
 55 57  1  0  0  0
 55127  1  0  0  0
 56 69  2  0  0  0
 57 58  2  0  0  0
 57128  1  0  0  0
 58129  1  0  0  0
 59 60  1  0  0  0
 59 61  1  0  0  0
 59 62  1  0  0  0
 60130  1  0  0  0
 60131  1  0  0  0
 60132  1  0  0  0
 61133  1  0  0  0
 61134  1  0  0  0
 61135  1  0  0  0
 62136  1  0  0  0
 62137  1  0  0  0
 62138  1  0  0  0
 63 65  1  0  0  0
 63139  1  0  0  0
 63140  1  0  0  0
 63141  1  0  0  0
 64142  1  0  0  0
 65143  1  0  0  0
 68 81  1  0  0  0
 71 72  2  0  0  0
 71 75  1  0  0  0
 71144  1  0  0  0
 72 76  1  0  0  0
 72145  1  0  0  0
 73 74  1  0  0  0
 73 75  2  0  0  0
 73146  1  0  0  0
 74 76  2  0  0  0
 74 80  1  0  0  0
 75 82  1  0  0  0
 76 83  1  0  0  0
 77 79  1  0  0  0
 77 82  1  0  0  0
 77 84  2  0  0  0
 78 79  1  0  0  0
 78 82  1  0  0  0
 78147  1  0  0  0
 78148  1  0  0  0
 79 81  1  0  0  0
 79149  1  0  0  0
 80150  1  0  0  0
 80151  1  0  0  0
 80152  1  0  0  0
 81153  1  0  0  0
 81154  1  0  0  0
 83155  1  0  0  0
M  ISO  4   1 100  68 101  81 101  83 100
M  END
> <chiral flag>
0

> <version>
0

> <s_m_source_file>
/data/baiqing/PycharmProjects/Reinvent-master-3.2/result/LINK_invent/BTK/process_docking_weight1_custom_product_contain_oxygen_bond_distance_aromatic_linkinvent_7_9_3/rearranged_h_0060.sdf

> <i_m_source_file_index>
76

> <r_mmod_Potential_Energy-OPLS-2005>
90.4733505249023

> <r_mmod_Stretch_Energy-OPLS-2005>
100.856994628906

> <r_mmod_Bend_Energy-OPLS-2005>
189.469421386719

> <r_mmod_Torsional_Energy-OPLS-2005>
222.260177612305

> <r_mmod_Improper_Torsional_Energy-OPLS-2005>
5.70408821105957

> <r_mmod_Van_der_Waal_Energy-OPLS-2005>
140.707183837891

> <r_mmod_Electrostatic_Energy-OPLS-2005>
-415.212493896484

> <r_mmod_Solvation_Energy-OPLS-2005>
-223.124038696289

> <b_mmod_Minimization_Converged-OPLS-2005>
0

> <r_mmod_RMS_Derivative-OPLS-2005>
0.139462053775787

$$$$
76
                    3D
 Structure written by MMmdl.
164172  0  0  1  0            999 V2000
  -30.6151  -14.7585   20.4505 C   0  0  0  0  0  0
  -30.4297  -12.4615   19.4750 C   0  0  0  0  0  0
  -29.5092  -12.5002   18.2361 C   0  0  0  0  0  0
  -28.0356  -12.3253   18.6514 C   0  0  0  0  0  0
  -27.6388  -13.2330   19.8471 C   0  0  2  0  0  0
  -28.6836  -13.1849   20.9827 C   0  0  0  0  0  0
  -25.2494  -13.8198   20.5686 C   0  0  0  0  0  0
  -24.1793  -13.0442   20.9212 C   0  0  0  0  0  0
  -24.6391  -11.6921   20.8748 C   0  0  0  0  0  0
  -23.9072  -10.4292   21.0405 C   0  0  0  0  0  0
  -24.3621   -9.4204   21.9183 C   0  0  0  0  0  0
  -23.6292   -8.2241   22.0755 C   0  0  0  0  0  0
  -22.4279   -8.0277   21.3541 C   0  0  0  0  0  0
  -21.9915   -9.0253   20.4642 C   0  0  0  0  0  0
  -22.7246  -10.2129   20.3053 C   0  0  0  0  0  0
  -21.6854   -6.0729   22.5272 C   0  0  0  0  0  0
  -21.4016   -6.5635   23.8208 C   0  0  0  0  0  0
  -21.3659   -5.6790   24.9169 C   0  0  0  0  0  0
  -21.6046   -4.3051   24.7222 C   0  0  0  0  0  0
  -21.8819   -3.8142   23.4347 C   0  0  0  0  0  0
  -21.9195   -4.6958   22.3399 C   0  0  0  0  0  0
  -22.7815  -13.5217   21.1876 C   0  0  0  0  0  0
  -22.1660   -4.2144   21.0978 F   0  0  0  0  0  0
  -21.5631   -3.4538   25.7736 F   0  0  0  0  0  0
  -29.9819  -13.5349   20.3940 N   0  0  0  0  0  0
  -26.2922  -12.9406   20.3268 N   0  0  0  0  0  0
  -25.9320  -11.6550   20.5761 N   0  0  0  0  0  0
  -22.0472  -12.8193   22.0432 N   0  0  0  0  0  0
  -25.4166  -15.1925   20.4080 N   0  0  0  0  0  0
  -31.8104  -14.8200   20.1512 O   0  0  0  0  0  0
  -21.6644   -6.8876   21.4240 O   0  0  0  0  0  0
  -22.3496  -14.5523   20.6732 O   0  0  0  0  0  0
  -24.6324  -31.8526   23.1941 C   0  0  0  0  0  0
  -25.9145  -32.4741   23.8293 C   0  0  1  0  0  0
  -27.2260  -27.2530   20.1246 C   0  0  0  0  0  0
  -25.5942  -33.8544   24.2218 N   0  0  0  0  0  0
  -23.4285  -30.4717   21.5387 C   0  0  2  0  0  0
  -24.8753  -28.9125   20.1086 C   0  0  0  0  0  0
  -22.7505  -29.4576   22.4918 C   0  0  0  0  0  0
  -18.0279  -28.1397   22.8483 C   0  0  0  0  0  0
  -24.1483  -36.7266   23.2641 C   0  0  0  0  0  0
  -25.9734  -30.7620   21.3743 C   0  0  0  0  0  0
  -26.0448  -29.3835   20.7161 C   0  0  0  0  0  0
  -27.2185  -28.5648   20.7118 C   0  0  0  0  0  0
  -26.0292  -26.8425   19.4981 C   0  0  0  0  0  0
  -24.8727  -27.6511   19.4907 C   0  0  0  0  0  0
  -23.6455  -29.8000   20.1564 C   0  0  0  0  0  0
  -25.4120  -36.3053   24.0316 C   0  0  1  0  0  0
  -20.5887  -28.3694   23.1282 C   0  0  2  0  0  0
  -20.6764  -26.9408   22.5424 C   0  0  0  0  0  0
  -19.5738  -26.6373   21.5232 C   0  0  0  0  0  0
  -18.1916  -26.7936   22.1627 C   0  0  0  0  0  0
  -19.1538  -28.8865   23.2869 C   0  0  0  0  0  0
  -18.9460  -30.1474   23.8878 C   0  0  0  0  0  0
  -17.6460  -30.6595   24.0568 C   0  0  0  0  0  0
  -25.9068  -34.9433   23.5064 C   0  0  0  0  0  0
  -16.5351  -29.9090   23.6354 C   0  0  0  0  0  0
  -16.7270  -28.6516   23.0359 C   0  0  0  0  0  0
  -26.4504  -31.6597   25.0708 C   0  0  0  0  0  0
  -25.3712  -31.3779   26.1421 C   0  0  0  0  0  0
  -27.0368  -30.3010   24.6220 C   0  0  0  0  0  0
  -27.6025  -32.4376   25.7495 C   0  0  0  0  0  0
  -27.5573  -37.1778   24.8464 C   0  0  0  0  0  0
  -21.4208  -29.3033   22.3674 N   0  0  0  0  0  0
  -26.4286  -37.3763   23.9418 N   0  0  0  0  0  0
  -24.6968  -31.0476   22.0919 N   0  0  0  0  0  0
  -23.4198  -28.8121   23.3019 O   0  0  0  0  0  0
  -28.3578  -26.4082   20.1928 O   0  0  0  0  0  0
  -26.5632  -34.8916   22.4635 O   0  0  0  0  0  0
  -23.5474  -32.1362   23.7232 O   0  0  0  0  0  0
  -31.0018  -20.1482   20.7315 C   0  0  0  0  0  0
  -31.5366  -17.7552   20.8899 C   0  0  0  0  0  0
  -29.2657  -18.4678   20.4368 C   0  0  0  0  0  0
  -31.9428  -19.1095   20.9353 C   0  0  0  0  0  0
  -29.6364  -19.8818   20.4863 C   0  0  0  0  0  0
  -30.2025  -17.3643   20.6264 C   0  0  0  0  0  0
  -33.9433  -20.6003   21.3235 C   0  0  0  0  0  0
  -33.3649  -19.3919   21.2115 C   0  0  0  0  0  0
  -28.6367  -21.0767   20.3126 C   0  0  0  0  0  0
  -26.5819  -22.7546   22.5203 C   0  0  0  0  0  0
  -29.1466  -24.2564   22.0575 C   0  0  0  0  0  0
  -26.8657  -23.5630   21.2379 C   0  0  0  0  0  0
  -28.4190  -24.9620   19.7589 C   0  0  0  0  0  0
  -28.3575  -23.7424   20.8353 C   0  0  1  0  0  0
  -29.8417  -15.9113   20.6103 N   0  0  0  0  0  0
  -29.0450  -22.3984   20.4826 N   0  0  0  0  0  0
  -27.4647  -20.8024   20.0552 O   0  0  0  0  0  0
  -31.4713  -12.5808   19.1708 H   0  0  0  0  0  0
  -30.3740  -11.4898   19.9685 H   0  0  0  0  0  0
  -29.7921  -11.7175   17.5311 H   0  0  0  0  0  0
  -29.6344  -13.4479   17.7102 H   0  0  0  0  0  0
  -27.8944  -11.2786   18.9218 H   0  0  0  0  0  0
  -27.3771  -12.5091   17.8016 H   0  0  0  0  0  0
  -27.6272  -14.2507   19.4567 H   0  0  0  0  0  0
  -28.7218  -12.1941   21.4377 H   0  0  0  0  0  0
  -28.4183  -13.8793   21.7818 H   0  0  0  0  0  0
  -25.2770   -9.5679   22.4756 H   0  0  0  0  0  0
  -24.0002   -7.4634   22.7474 H   0  0  0  0  0  0
  -21.0851   -8.8769   19.8944 H   0  0  0  0  0  0
  -22.3709  -10.9667   19.6156 H   0  0  0  0  0  0
  -21.2006   -7.6143   23.9709 H   0  0  0  0  0  0
  -21.1482   -6.0519   25.9072 H   0  0  0  0  0  0
  -22.0601   -2.7607   23.2847 H   0  0  0  0  0  0
  -22.4102  -11.9850   22.4797 H   0  0  0  0  0  0
  -21.1097  -13.1209   22.2665 H   0  0  0  0  0  0
  -24.6428  -15.8410   20.5083 H   0  0  0  0  0  0
  -26.2541  -15.6320   20.0482 H   0  0  0  0  0  0
  -26.7205  -32.5376   23.1029 H   0  0  0  0  0  0
  -25.0138  -33.9681   25.0390 H   0  0  0  0  0  0
  -22.7254  -31.2934   21.3887 H   0  0  0  0  0  0
  -23.3757  -35.9583   23.3310 H   0  0  0  0  0  0
  -24.3569  -36.8902   22.2055 H   0  0  0  0  0  0
  -23.7220  -37.6456   23.6675 H   0  0  0  0  0  0
  -26.1151  -31.5228   20.6053 H   0  0  0  0  0  0
  -26.8489  -30.8080   22.0103 H   0  0  0  0  0  0
  -28.1169  -28.9202   21.1971 H   0  0  0  0  0  0
  -25.9510  -25.8751   19.0285 H   0  0  0  0  0  0
  -23.9736  -27.2840   19.0149 H   0  0  0  0  0  0
  -23.7664  -30.5728   19.3964 H   0  0  0  0  0  0
  -22.7636  -29.2307   19.8566 H   0  0  0  0  0  0
  -25.1300  -36.1885   25.0804 H   0  0  0  0  0  0
  -20.9961  -28.3267   24.1406 H   0  0  0  0  0  0
  -20.5695  -26.2292   23.3622 H   0  0  0  0  0  0
  -21.6623  -26.7441   22.1189 H   0  0  0  0  0  0
  -19.6900  -25.6278   21.1270 H   0  0  0  0  0  0
  -19.6688  -27.3178   20.6759 H   0  0  0  0  0  0
  -17.4185  -26.6713   21.4021 H   0  0  0  0  0  0
  -18.0283  -26.0083   22.9021 H   0  0  0  0  0  0
  -19.7944  -30.7306   24.2209 H   0  0  0  0  0  0
  -17.5016  -31.6272   24.5172 H   0  0  0  0  0  0
  -15.5353  -30.2982   23.7698 H   0  0  0  0  0  0
  -15.8669  -28.0848   22.7064 H   0  0  0  0  0  0
  -24.5861  -30.7162   25.7749 H   0  0  0  0  0  0
  -24.8943  -32.2973   26.4823 H   0  0  0  0  0  0
  -25.8005  -30.8959   27.0215 H   0  0  0  0  0  0
  -26.2969  -29.6745   24.1218 H   0  0  0  0  0  0
  -27.4028  -29.7288   25.4760 H   0  0  0  0  0  0
  -27.8849  -30.4304   23.9491 H   0  0  0  0  0  0
  -27.2584  -33.3679   26.2032 H   0  0  0  0  0  0
  -28.3842  -32.6951   25.0336 H   0  0  0  0  0  0
  -28.0677  -31.8548   26.5455 H   0  0  0  0  0  0
  -28.2561  -38.0098   24.7528 H   0  0  0  0  0  0
  -28.1086  -36.2622   24.6260 H   0  0  0  0  0  0
  -27.2290  -37.1393   25.8865 H   0  0  0  0  0  0
  -20.9392  -29.8780   21.6906 H   0  0  0  0  0  0
  -26.0156  -38.2827   24.1448 H   0  0  0  0  0  0
  -31.3330  -21.1736   20.7749 H   0  0  0  0  0  0
  -32.2900  -17.0052   21.0780 H   0  0  0  0  0  0
  -28.2275  -18.2308   20.2505 H   0  0  0  0  0  0
  -35.0027  -20.6768   21.5253 H   0  0  0  0  0  0
  -33.4012  -21.5278   21.2209 H   0  0  0  0  0  0
  -34.0050  -18.5281   21.3325 H   0  0  0  0  0  0
  -25.5087  -22.6183   22.6546 H   0  0  0  0  0  0
  -26.9472  -23.2714   23.4077 H   0  0  0  0  0  0
  -27.0352  -21.7651   22.5035 H   0  0  0  0  0  0
  -28.6786  -25.1405   22.4931 H   0  0  0  0  0  0
  -30.1654  -24.5361   21.7848 H   0  0  0  0  0  0
  -29.2191  -23.5061   22.8460 H   0  0  0  0  0  0
  -26.4222  -24.5493   21.3799 H   0  0  0  0  0  0
  -26.3142  -23.1282   20.4037 H   0  0  0  0  0  0
  -27.7329  -24.7648   18.9373 H   0  0  0  0  0  0
  -29.3976  -24.8862   19.2841 H   0  0  0  0  0  0
  -28.8559  -15.7181   20.6995 H   0  0  0  0  0  0
  -30.0481  -22.4614   20.5666 H   0  0  0  0  0  0
  1 25  1  0  0  0
  1 30  2  0  0  0
  1 85  1  0  0  0
  2  3  1  0  0  0
  2 25  1  0  0  0
  2 88  1  0  0  0
  2 89  1  0  0  0
  3  4  1  0  0  0
  3 90  1  0  0  0
  3 91  1  0  0  0
  4  5  1  0  0  0
  4 92  1  0  0  0
  4 93  1  0  0  0
  5  6  1  0  0  0
  5 26  1  0  0  0
  5 94  1  0  0  0
  6 25  1  0  0  0
  6 95  1  0  0  0
  6 96  1  0  0  0
  7  8  2  0  0  0
  7 26  1  0  0  0
  7 29  1  0  0  0
  8  9  1  0  0  0
  8 22  1  0  0  0
  9 10  1  0  0  0
  9 27  2  0  0  0
 10 11  2  0  0  0
 10 15  1  0  0  0
 11 12  1  0  0  0
 11 97  1  0  0  0
 12 13  2  0  0  0
 12 98  1  0  0  0
 13 14  1  0  0  0
 13 31  1  0  0  0
 14 15  2  0  0  0
 14 99  1  0  0  0
 15100  1  0  0  0
 16 17  2  0  0  0
 16 21  1  0  0  0
 16 31  1  0  0  0
 17 18  1  0  0  0
 17101  1  0  0  0
 18 19  2  0  0  0
 18102  1  0  0  0
 19 20  1  0  0  0
 19 24  1  0  0  0
 20 21  2  0  0  0
 20103  1  0  0  0
 21 23  1  0  0  0
 22 28  1  0  0  0
 22 32  2  0  0  0
 26 27  1  0  0  0
 28104  1  0  0  0
 28105  1  0  0  0
 29106  1  0  0  0
 29107  1  0  0  0
 33 34  1  0  0  0
 33 66  1  0  0  0
 33 70  2  0  0  0
 34 36  1  0  0  0
 34 59  1  0  0  0
 34108  1  0  0  0
 35 44  2  0  0  0
 35 45  1  0  0  0
 35 68  1  0  0  0
 36 56  1  0  0  0
 36109  1  0  0  0
 37 39  1  0  0  0
 37 47  1  0  0  0
 37 66  1  0  0  0
 37110  1  0  0  0
 38 43  2  0  0  0
 38 46  1  0  0  0
 38 47  1  0  0  0
 39 64  1  0  0  0
 39 67  2  0  0  0
 40 52  1  0  0  0
 40 53  2  0  0  0
 40 58  1  0  0  0
 41111  1  0  0  0
 41112  1  0  0  0
 41113  1  0  0  0
 41 48  1  0  0  0
 42 43  1  0  0  0
 42 66  1  0  0  0
 42114  1  0  0  0
 42115  1  0  0  0
 43 44  1  0  0  0
 44116  1  0  0  0
 45 46  2  0  0  0
 45117  1  0  0  0
 46118  1  0  0  0
 47119  1  0  0  0
 47120  1  0  0  0
 48 56  1  0  0  0
 48 65  1  0  0  0
 48121  1  0  0  0
 49 50  1  0  0  0
 49 53  1  0  0  0
 49 64  1  0  0  0
 49122  1  0  0  0
 50 51  1  0  0  0
 50123  1  0  0  0
 50124  1  0  0  0
 51 52  1  0  0  0
 51125  1  0  0  0
 51126  1  0  0  0
 52127  1  0  0  0
 52128  1  0  0  0
 53 54  1  0  0  0
 54 55  2  0  0  0
 54129  1  0  0  0
 55 57  1  0  0  0
 55130  1  0  0  0
 56 69  2  0  0  0
 57 58  2  0  0  0
 57131  1  0  0  0
 58132  1  0  0  0
 59 60  1  0  0  0
 59 61  1  0  0  0
 59 62  1  0  0  0
 60133  1  0  0  0
 60134  1  0  0  0
 60135  1  0  0  0
 61136  1  0  0  0
 61137  1  0  0  0
 61138  1  0  0  0
 62139  1  0  0  0
 62140  1  0  0  0
 62141  1  0  0  0
 63 65  1  0  0  0
 63142  1  0  0  0
 63143  1  0  0  0
 63144  1  0  0  0
 64145  1  0  0  0
 65146  1  0  0  0
 68 83  1  0  0  0
 71 74  2  0  0  0
 71 75  1  0  0  0
 71147  1  0  0  0
 72 74  1  0  0  0
 72 76  2  0  0  0
 72148  1  0  0  0
 73 75  2  0  0  0
 73 76  1  0  0  0
 73149  1  0  0  0
 74 78  1  0  0  0
 75 79  1  0  0  0
 76 85  1  0  0  0
 77 78  2  0  0  0
 77150  1  0  0  0
 77151  1  0  0  0
 78152  1  0  0  0
 79 86  1  0  0  0
 79 87  2  0  0  0
 80 82  1  0  0  0
 80153  1  0  0  0
 80154  1  0  0  0
 80155  1  0  0  0
 81156  1  0  0  0
 81157  1  0  0  0
 81158  1  0  0  0
 81 84  1  0  0  0
 82 84  1  0  0  0
 82159  1  0  0  0
 82160  1  0  0  0
 83 84  1  0  0  0
 83161  1  0  0  0
 83162  1  0  0  0
 84 86  1  0  0  0
 85163  1  0  0  0
 86164  1  0  0  0
M  ISO  4   1 100  68 101  83 101  85 100
M  END
> <chiral flag>
0

> <version>
0

> <s_m_source_file>
/data/baiqing/PycharmProjects/Reinvent-master-3.2/result/LINK_invent/BTK/process_docking_weight1_custom_product_contain_oxygen_bond_distance_aromatic_linkinvent_7_9_3/rearranged_h_0060.sdf

> <i_m_source_file_index>
77

> <r_mmod_Potential_Energy-OPLS-2005>
130.257873535156

> <r_mmod_Stretch_Energy-OPLS-2005>
138.500686645508

> <r_mmod_Bend_Energy-OPLS-2005>
196.1875

> <r_mmod_Torsional_Energy-OPLS-2005>
234.041946411133

> <r_mmod_Improper_Torsional_Energy-OPLS-2005>
5.98047304153442

> <r_mmod_Van_der_Waal_Energy-OPLS-2005>
143.593154907227

> <r_mmod_Electrostatic_Energy-OPLS-2005>
-456.594635009766

> <r_mmod_Solvation_Energy-OPLS-2005>
-219.023651123047

> <b_mmod_Minimization_Converged-OPLS-2005>
0

> <r_mmod_RMS_Derivative-OPLS-2005>
1.46189737319946

$$$$
77
                    3D
 Structure written by MMmdl.
165174  0  0  1  0            999 V2000
  -30.5664  -14.8041   20.4360 C   0  0  0  0  0  0
  -30.4475  -12.4946   19.4762 C   0  0  0  0  0  0
  -29.5153  -12.5045   18.2416 C   0  0  0  0  0  0
  -28.0394  -12.3149   18.6533 C   0  0  0  0  0  0
  -27.6353  -13.2226   19.8446 C   0  0  2  0  0  0
  -28.6839  -13.1742   20.9759 C   0  0  0  0  0  0
  -25.2464  -13.8185   20.5641 C   0  0  0  0  0  0
  -24.1779  -13.0454   20.9204 C   0  0  0  0  0  0
  -24.6357  -11.6917   20.8796 C   0  0  0  0  0  0
  -23.9044  -10.4297   21.0423 C   0  0  0  0  0  0
  -24.3604   -9.4212   21.9190 C   0  0  0  0  0  0
  -23.6284   -8.2249   22.0758 C   0  0  0  0  0  0
  -22.4278   -8.0284   21.3545 C   0  0  0  0  0  0
  -21.9902   -9.0252   20.4636 C   0  0  0  0  0  0
  -22.7223  -10.2135   20.3047 C   0  0  0  0  0  0
  -21.6851   -6.0743   22.5282 C   0  0  0  0  0  0
  -21.4010   -6.5637   23.8214 C   0  0  0  0  0  0
  -21.3659   -5.6786   24.9174 C   0  0  0  0  0  0
  -21.6053   -4.3049   24.7219 C   0  0  0  0  0  0
  -21.8822   -3.8154   23.4337 C   0  0  0  0  0  0
  -21.9185   -4.6969   22.3398 C   0  0  0  0  0  0
  -22.7790  -13.5221   21.1849 C   0  0  0  0  0  0
  -22.1641   -4.2168   21.0973 F   0  0  0  0  0  0
  -21.5640   -3.4520   25.7725 F   0  0  0  0  0  0
  -29.9716  -13.5608   20.3814 N   0  0  0  0  0  0
  -26.2885  -12.9366   20.3247 N   0  0  0  0  0  0
  -25.9291  -11.6530   20.5807 N   0  0  0  0  0  0
  -22.0433  -12.8233   22.0420 N   0  0  0  0  0  0
  -25.4175  -15.1909   20.3949 N   0  0  0  0  0  0
  -31.7734  -14.9139   20.1985 O   0  0  0  0  0  0
  -21.6644   -6.8876   21.4241 O   0  0  0  0  0  0
  -22.3490  -14.5525   20.6658 O   0  0  0  0  0  0
  -24.6269  -31.8595   23.1980 C   0  0  0  0  0  0
  -25.9099  -32.4760   23.8320 C   0  0  1  0  0  0
  -27.2249  -27.2868   20.0944 C   0  0  0  0  0  0
  -25.5916  -33.8566   24.2233 N   0  0  0  0  0  0
  -23.4211  -30.4822   21.5443 C   0  0  2  0  0  0
  -24.8645  -28.9287   20.1136 C   0  0  0  0  0  0
  -22.7476  -29.4631   22.4944 C   0  0  0  0  0  0
  -18.0294  -28.1345   22.8500 C   0  0  0  0  0  0
  -24.1488  -36.7268   23.2649 C   0  0  0  0  0  0
  -25.9686  -30.7694   21.3824 C   0  0  0  0  0  0
  -26.0394  -29.3990   20.7139 C   0  0  0  0  0  0
  -27.2241  -28.5935   20.6900 C   0  0  0  0  0  0
  -26.0229  -26.8809   19.4741 C   0  0  0  0  0  0
  -24.8609  -27.6738   19.4871 C   0  0  0  0  0  0
  -23.6350  -29.8146   20.1629 C   0  0  0  0  0  0
  -25.4127  -36.3074   24.0322 C   0  0  1  0  0  0
  -20.5892  -28.3660   23.1267 C   0  0  2  0  0  0
  -20.6768  -26.9385   22.5407 C   0  0  0  0  0  0
  -19.5742  -26.6345   21.5208 C   0  0  0  0  0  0
  -18.1928  -26.7897   22.1622 C   0  0  0  0  0  0
  -19.1545  -28.8824   23.2878 C   0  0  0  0  0  0
  -18.9479  -30.1431   23.8885 C   0  0  0  0  0  0
  -17.6480  -30.6575   24.0537 C   0  0  0  0  0  0
  -25.9078  -34.9444   23.5088 C   0  0  0  0  0  0
  -16.5367  -29.9056   23.6349 C   0  0  0  0  0  0
  -16.7282  -28.6456   23.0406 C   0  0  0  0  0  0
  -26.4450  -31.6600   25.0730 C   0  0  0  0  0  0
  -25.3657  -31.3781   26.1446 C   0  0  0  0  0  0
  -27.0298  -30.3006   24.6257 C   0  0  0  0  0  0
  -27.6000  -32.4357   25.7496 C   0  0  0  0  0  0
  -27.5586  -37.1799   24.8467 C   0  0  0  0  0  0
  -21.4195  -29.3021   22.3660 N   0  0  0  0  0  0
  -26.4298  -37.3777   23.9403 N   0  0  0  0  0  0
  -24.6902  -31.0570   22.0950 N   0  0  0  0  0  0
  -23.4195  -28.8207   23.3058 O   0  0  0  0  0  0
  -28.3386  -26.4153   20.0677 O   0  0  0  0  0  0
  -26.5680  -34.8910   22.4679 O   0  0  0  0  0  0
  -23.5428  -32.1413   23.7292 O   0  0  0  0  0  0
  -29.7894  -19.9518   22.1104 C   0  0  0  0  0  0
  -29.6823  -18.5349   20.1426 C   0  0  0  0  0  0
  -29.9443  -18.8087   22.9159 C   0  0  0  0  0  0
  -29.9270  -17.5036   22.3496 C   0  0  0  0  0  0
  -29.6377  -19.8797   20.7120 C   0  0  0  0  0  0
  -29.8454  -17.3150   20.9405 C   0  0  0  0  0  0
  -30.3577  -21.8795   17.6038 C   0  0  0  0  0  0
  -28.7882  -22.2784   20.3280 C   0  0  0  0  0  0
  -30.6909  -21.4024   19.0310 C   0  0  0  0  0  0
  -28.6209  -23.6766   18.2098 C   0  0  0  0  0  0
  -28.9903  -23.7452   19.7069 C   0  0  1  0  0  0
  -30.1401  -19.0344   24.4090 C   0  0  0  0  0  0
  -29.9317  -16.2873   23.2675 C   0  0  0  0  0  0
  -28.1449  -24.9573   20.3912 C   0  0  0  0  0  0
  -29.4616  -22.8441   17.3418 N   0  0  0  0  0  0
  -29.5878  -21.1843   19.9811 N   0  0  0  0  0  0
  -29.7164  -15.9134   20.4392 N   0  0  0  0  0  0
  -30.9455  -21.3526   16.6600 O   0  0  0  0  0  0
  -27.8366  -22.1319   21.1021 O   0  0  0  0  0  0
  -31.4842  -12.6544   19.1710 H   0  0  0  0  0  0
  -30.4329  -11.5338   19.9911 H   0  0  0  0  0  0
  -29.8174  -11.7223   17.5460 H   0  0  0  0  0  0
  -29.6201  -13.4530   17.7107 H   0  0  0  0  0  0
  -27.8968  -11.2674   18.9215 H   0  0  0  0  0  0
  -27.3827  -12.4955   17.8020 H   0  0  0  0  0  0
  -27.6230  -14.2364   19.4494 H   0  0  0  0  0  0
  -28.7488  -12.1726   21.4040 H   0  0  0  0  0  0
  -28.3988  -13.8352   21.7960 H   0  0  0  0  0  0
  -25.2747   -9.5696   22.4750 H   0  0  0  0  0  0
  -24.0014   -7.4636   22.7464 H   0  0  0  0  0  0
  -21.0848   -8.8746   19.8915 H   0  0  0  0  0  0
  -22.3682  -10.9675   19.6145 H   0  0  0  0  0  0
  -21.2002   -7.6145   23.9737 H   0  0  0  0  0  0
  -21.1473   -6.0495   25.9076 H   0  0  0  0  0  0
  -22.0608   -2.7617   23.2815 H   0  0  0  0  0  0
  -22.4039  -11.9868   22.4772 H   0  0  0  0  0  0
  -21.1063  -13.1260   22.2674 H   0  0  0  0  0  0
  -24.6474  -15.8445   20.4829 H   0  0  0  0  0  0
  -26.2545  -15.6242   20.0294 H   0  0  0  0  0  0
  -26.7164  -32.5374   23.1054 H   0  0  0  0  0  0
  -24.9973  -33.9712   25.0309 H   0  0  0  0  0  0
  -22.7128  -31.3025   21.4010 H   0  0  0  0  0  0
  -23.3766  -35.9585   23.3314 H   0  0  0  0  0  0
  -24.3598  -36.8889   22.2067 H   0  0  0  0  0  0
  -23.7190  -37.6444   23.6681 H   0  0  0  0  0  0
  -26.1316  -31.5378   20.6260 H   0  0  0  0  0  0
  -26.8348  -30.7952   22.0316 H   0  0  0  0  0  0
  -28.1255  -28.9670   21.1547 H   0  0  0  0  0  0
  -25.9642  -25.9356   18.9555 H   0  0  0  0  0  0
  -23.9614  -27.3077   19.0098 H   0  0  0  0  0  0
  -23.7472  -30.5866   19.4009 H   0  0  0  0  0  0
  -22.7502  -29.2469   19.8699 H   0  0  0  0  0  0
  -25.1311  -36.1940   25.0817 H   0  0  0  0  0  0
  -20.9991  -28.3222   24.1379 H   0  0  0  0  0  0
  -20.5646  -26.2290   23.3616 H   0  0  0  0  0  0
  -21.6641  -26.7406   22.1210 H   0  0  0  0  0  0
  -19.6909  -25.6253   21.1245 H   0  0  0  0  0  0
  -19.6660  -27.3137   20.6717 H   0  0  0  0  0  0
  -17.4209  -26.6665   21.4014 H   0  0  0  0  0  0
  -18.0317  -26.0024   22.8997 H   0  0  0  0  0  0
  -19.7966  -30.7235   24.2244 H   0  0  0  0  0  0
  -17.5053  -31.6280   24.5082 H   0  0  0  0  0  0
  -15.5369  -30.2951   23.7682 H   0  0  0  0  0  0
  -15.8681  -28.0737   22.7181 H   0  0  0  0  0  0
  -24.5762  -30.7235   25.7724 H   0  0  0  0  0  0
  -24.8946  -32.2985   26.4920 H   0  0  0  0  0  0
  -25.7938  -30.8861   27.0190 H   0  0  0  0  0  0
  -26.2897  -29.6767   24.1233 H   0  0  0  0  0  0
  -27.3882  -29.7264   25.4806 H   0  0  0  0  0  0
  -27.8818  -30.4242   23.9569 H   0  0  0  0  0  0
  -27.2582  -33.3633   26.2094 H   0  0  0  0  0  0
  -28.3787  -32.6971   25.0319 H   0  0  0  0  0  0
  -28.0699  -31.8493   26.5397 H   0  0  0  0  0  0
  -28.2605  -38.0098   24.7559 H   0  0  0  0  0  0
  -28.1090  -36.2645   24.6261 H   0  0  0  0  0  0
  -27.2337  -37.1396   25.8878 H   0  0  0  0  0  0
  -20.9381  -29.8724   21.6837 H   0  0  0  0  0  0
  -26.0185  -38.2854   24.1405 H   0  0  0  0  0  0
  -29.8160  -20.9216   22.5887 H   0  0  0  0  0  0
  -29.5648  -18.4527   19.0716 H   0  0  0  0  0  0
  -31.3797  -22.1247   19.4700 H   0  0  0  0  0  0
  -31.2833  -20.4896   18.9441 H   0  0  0  0  0  0
  -28.6406  -24.6873   17.7991 H   0  0  0  0  0  0
  -27.5874  -23.3409   18.0882 H   0  0  0  0  0  0
  -30.0483  -24.0031   19.8024 H   0  0  0  0  0  0
  -30.2141  -20.0947   24.6495 H   0  0  0  0  0  0
  -31.0697  -18.5757   24.7489 H   0  0  0  0  0  0
  -29.3041  -18.6349   24.9848 H   0  0  0  0  0  0
  -30.8656  -15.7379   23.1693 H   0  0  0  0  0  0
  -29.7946  -16.5232   24.3184 H   0  0  0  0  0  0
  -29.1041  -15.6328   23.0027 H   0  0  0  0  0  0
  -28.3253  -24.9014   21.4639 H   0  0  0  0  0  0
  -27.0948  -24.6881   20.2989 H   0  0  0  0  0  0
  -29.3552  -23.0450   16.3560 H   0  0  0  0  0  0
  -28.7548  -15.6257   20.3673 H   0  0  0  0  0  0
  1 25  1  0  0  0
  1 30  2  0  0  0
  1 87  1  0  0  0
  2  3  1  0  0  0
  2 25  1  0  0  0
  2 90  1  0  0  0
  2 91  1  0  0  0
  3  4  1  0  0  0
  3 92  1  0  0  0
  3 93  1  0  0  0
  4  5  1  0  0  0
  4 94  1  0  0  0
  4 95  1  0  0  0
  5  6  1  0  0  0
  5 26  1  0  0  0
  5 96  1  0  0  0
  6 25  1  0  0  0
  6 97  1  0  0  0
  6 98  1  0  0  0
  7  8  2  0  0  0
  7 26  1  0  0  0
  7 29  1  0  0  0
  8  9  1  0  0  0
  8 22  1  0  0  0
  9 10  1  0  0  0
  9 27  2  0  0  0
 10 11  2  0  0  0
 10 15  1  0  0  0
 11 12  1  0  0  0
 11 99  1  0  0  0
 12 13  2  0  0  0
 12100  1  0  0  0
 13 14  1  0  0  0
 13 31  1  0  0  0
 14 15  2  0  0  0
 14101  1  0  0  0
 15102  1  0  0  0
 16 17  2  0  0  0
 16 21  1  0  0  0
 16 31  1  0  0  0
 17 18  1  0  0  0
 17103  1  0  0  0
 18 19  2  0  0  0
 18104  1  0  0  0
 19 20  1  0  0  0
 19 24  1  0  0  0
 20 21  2  0  0  0
 20105  1  0  0  0
 21 23  1  0  0  0
 22 28  1  0  0  0
 22 32  2  0  0  0
 26 27  1  0  0  0
 28106  1  0  0  0
 28107  1  0  0  0
 29108  1  0  0  0
 29109  1  0  0  0
 33 34  1  0  0  0
 33 66  1  0  0  0
 33 70  2  0  0  0
 34 36  1  0  0  0
 34 59  1  0  0  0
 34110  1  0  0  0
 35 44  2  0  0  0
 35 45  1  0  0  0
 35 68  1  0  0  0
 36 56  1  0  0  0
 36111  1  0  0  0
 37 39  1  0  0  0
 37 47  1  0  0  0
 37 66  1  0  0  0
 37112  1  0  0  0
 38 43  2  0  0  0
 38 46  1  0  0  0
 38 47  1  0  0  0
 39 64  1  0  0  0
 39 67  2  0  0  0
 40 52  1  0  0  0
 40 53  2  0  0  0
 40 58  1  0  0  0
 41113  1  0  0  0
 41114  1  0  0  0
 41115  1  0  0  0
 41 48  1  0  0  0
 42 43  1  0  0  0
 42 66  1  0  0  0
 42116  1  0  0  0
 42117  1  0  0  0
 43 44  1  0  0  0
 44118  1  0  0  0
 45 46  2  0  0  0
 45119  1  0  0  0
 46120  1  0  0  0
 47121  1  0  0  0
 47122  1  0  0  0
 48 56  1  0  0  0
 48 65  1  0  0  0
 48123  1  0  0  0
 49 50  1  0  0  0
 49 53  1  0  0  0
 49 64  1  0  0  0
 49124  1  0  0  0
 50 51  1  0  0  0
 50125  1  0  0  0
 50126  1  0  0  0
 51 52  1  0  0  0
 51127  1  0  0  0
 51128  1  0  0  0
 52129  1  0  0  0
 52130  1  0  0  0
 53 54  1  0  0  0
 54 55  2  0  0  0
 54131  1  0  0  0
 55 57  1  0  0  0
 55132  1  0  0  0
 56 69  2  0  0  0
 57 58  2  0  0  0
 57133  1  0  0  0
 58134  1  0  0  0
 59 60  1  0  0  0
 59 61  1  0  0  0
 59 62  1  0  0  0
 60135  1  0  0  0
 60136  1  0  0  0
 60137  1  0  0  0
 61138  1  0  0  0
 61139  1  0  0  0
 61140  1  0  0  0
 62141  1  0  0  0
 62142  1  0  0  0
 62143  1  0  0  0
 63 65  1  0  0  0
 63144  1  0  0  0
 63145  1  0  0  0
 63146  1  0  0  0
 64147  1  0  0  0
 65148  1  0  0  0
 68 84  1  0  0  0
 71 73  2  0  0  0
 71 75  1  0  0  0
 71149  1  0  0  0
 72 75  2  0  0  0
 72 76  1  0  0  0
 72150  1  0  0  0
 73 74  1  0  0  0
 73 82  1  0  0  0
 74 76  2  0  0  0
 74 83  1  0  0  0
 75 86  1  0  0  0
 76 87  1  0  0  0
 77 79  1  0  0  0
 77 85  1  0  0  0
 77 88  2  0  0  0
 78 81  1  0  0  0
 78 86  1  0  0  0
 78 89  2  0  0  0
 79 86  1  0  0  0
 79151  1  0  0  0
 79152  1  0  0  0
 80 81  1  0  0  0
 80 85  1  0  0  0
 80153  1  0  0  0
 80154  1  0  0  0
 81 84  1  0  0  0
 81155  1  0  0  0
 82156  1  0  0  0
 82157  1  0  0  0
 82158  1  0  0  0
 83159  1  0  0  0
 83160  1  0  0  0
 83161  1  0  0  0
 84162  1  0  0  0
 84163  1  0  0  0
 85164  1  0  0  0
 87165  1  0  0  0
M  ISO  4   1 100  68 101  84 101  87 100
M  END
> <chiral flag>
0

> <version>
0

> <s_m_source_file>
/data/baiqing/PycharmProjects/Reinvent-master-3.2/result/LINK_invent/BTK/process_docking_weight1_custom_product_contain_oxygen_bond_distance_aromatic_linkinvent_7_9_3/rearranged_h_0060.sdf

> <i_m_source_file_index>
78

> <r_mmod_Potential_Energy-OPLS-2005>
207.332550048828

> <r_mmod_Stretch_Energy-OPLS-2005>
137.498123168945

> <r_mmod_Bend_Energy-OPLS-2005>
193.395355224609

> <r_mmod_Torsional_Energy-OPLS-2005>
312.854614257812

> <r_mmod_Improper_Torsional_Energy-OPLS-2005>
11.8525104522705

> <r_mmod_Van_der_Waal_Energy-OPLS-2005>
153.98991394043

> <r_mmod_Electrostatic_Energy-OPLS-2005>
-442.267913818359

> <r_mmod_Solvation_Energy-OPLS-2005>
-254.501022338867

> <b_mmod_Minimization_Converged-OPLS-2005>
0

> <r_mmod_RMS_Derivative-OPLS-2005>
4.81325578689575

$$$$
78
                    3D
 Structure written by MMmdl.
161170  0  0  1  0            999 V2000
  -30.5901  -14.7346   20.4466 C   0  0  0  0  0  0
  -30.4236  -12.4502   19.4480 C   0  0  0  0  0  0
  -29.4952  -12.5160   18.2161 C   0  0  0  0  0  0
  -28.0217  -12.3369   18.6337 C   0  0  0  0  0  0
  -27.6358  -13.2250   19.8464 C   0  0  2  0  0  0
  -28.6850  -13.1485   20.9752 C   0  0  0  0  0  0
  -25.2522  -13.8179   20.5710 C   0  0  0  0  0  0
  -24.1808  -13.0451   20.9218 C   0  0  0  0  0  0
  -24.6375  -11.6918   20.8752 C   0  0  0  0  0  0
  -23.9051  -10.4308   21.0404 C   0  0  0  0  0  0
  -24.3618   -9.4231   21.9181 C   0  0  0  0  0  0
  -23.6315   -8.2253   22.0743 C   0  0  0  0  0  0
  -22.4298   -8.0280   21.3536 C   0  0  0  0  0  0
  -21.9924   -9.0242   20.4626 C   0  0  0  0  0  0
  -22.7229  -10.2134   20.3049 C   0  0  0  0  0  0
  -21.6872   -6.0747   22.5282 C   0  0  0  0  0  0
  -21.4007   -6.5652   23.8210 C   0  0  0  0  0  0
  -21.3663   -5.6807   24.9176 C   0  0  0  0  0  0
  -21.6055   -4.3068   24.7230 C   0  0  0  0  0  0
  -21.8821   -3.8160   23.4345 C   0  0  0  0  0  0
  -21.9200   -4.6977   22.3401 C   0  0  0  0  0  0
  -22.7835  -13.5239   21.1903 C   0  0  0  0  0  0
  -22.1681   -4.2163   21.0981 F   0  0  0  0  0  0
  -21.5635   -3.4553   25.7737 F   0  0  0  0  0  0
  -29.9767  -13.5072   20.3803 N   0  0  0  0  0  0
  -26.2908  -12.9363   20.3271 N   0  0  0  0  0  0
  -25.9295  -11.6509   20.5743 N   0  0  0  0  0  0
  -22.0504  -12.8168   22.0422 N   0  0  0  0  0  0
  -25.4265  -15.1900   20.4122 N   0  0  0  0  0  0
  -31.7944  -14.8289   20.1879 O   0  0  0  0  0  0
  -21.6670   -6.8880   21.4237 O   0  0  0  0  0  0
  -22.3517  -14.5576   20.6805 O   0  0  0  0  0  0
  -24.6285  -31.8501   23.1976 C   0  0  0  0  0  0
  -25.9119  -32.4708   23.8303 C   0  0  1  0  0  0
  -27.2191  -27.2762   20.1371 C   0  0  0  0  0  0
  -25.5910  -33.8514   24.2212 N   0  0  0  0  0  0
  -23.4211  -30.4701   21.5413 C   0  0  2  0  0  0
  -24.8666  -28.9037   20.1223 C   0  0  0  0  0  0
  -22.7447  -29.4590   22.4972 C   0  0  0  0  0  0
  -18.0255  -28.1380   22.8487 C   0  0  0  0  0  0
  -24.1494  -36.7287   23.2651 C   0  0  0  0  0  0
  -25.9633  -30.7690   21.3711 C   0  0  0  0  0  0
  -26.0371  -29.3900   20.7205 C   0  0  0  0  0  0
  -27.2206  -28.5894   20.7100 C   0  0  0  0  0  0
  -26.0277  -26.8371   19.5305 C   0  0  0  0  0  0
  -24.8651  -27.6348   19.5181 C   0  0  0  0  0  0
  -23.6334  -29.7841   20.1646 C   0  0  0  0  0  0
  -25.4118  -36.3036   24.0322 C   0  0  1  0  0  0
  -20.5852  -28.3661   23.1296 C   0  0  2  0  0  0
  -20.6733  -26.9393   22.5400 C   0  0  0  0  0  0
  -19.5723  -26.6381   21.5187 C   0  0  0  0  0  0
  -18.1900  -26.7936   22.1596 C   0  0  0  0  0  0
  -19.1513  -28.8844   23.2880 C   0  0  0  0  0  0
  -18.9456  -30.1454   23.8889 C   0  0  0  0  0  0
  -17.6462  -30.6598   24.0547 C   0  0  0  0  0  0
  -25.9050  -34.9409   23.5076 C   0  0  0  0  0  0
  -16.5345  -29.9085   23.6359 C   0  0  0  0  0  0
  -16.7244  -28.6492   23.0395 C   0  0  0  0  0  0
  -26.4512  -31.6567   25.0713 C   0  0  0  0  0  0
  -25.3753  -31.3670   26.1445 C   0  0  0  0  0  0
  -27.0415  -30.3000   24.6230 C   0  0  0  0  0  0
  -27.6032  -32.4357   25.7490 C   0  0  0  0  0  0
  -27.5582  -37.1788   24.8465 C   0  0  0  0  0  0
  -21.4158  -29.3027   22.3717 N   0  0  0  0  0  0
  -26.4280  -37.3746   23.9421 N   0  0  0  0  0  0
  -24.6897  -31.0489   22.0928 N   0  0  0  0  0  0
  -23.4160  -28.8147   23.3071 O   0  0  0  0  0  0
  -28.3454  -26.4421   20.0792 O   0  0  0  0  0  0
  -26.5635  -34.8899   22.4652 O   0  0  0  0  0  0
  -23.5452  -32.1311   23.7305 O   0  0  0  0  0  0
  -30.7945  -20.0375   21.2589 C   0  0  0  0  0  0
  -31.2467  -17.6286   21.4638 C   0  0  0  0  0  0
  -29.3060  -18.4219   20.2297 C   0  0  0  0  0  0
  -31.5883  -18.9695   21.7293 C   0  0  0  0  0  0
  -29.6368  -19.8274   20.4744 C   0  0  0  0  0  0
  -30.1041  -17.2968   20.7067 C   0  0  0  0  0  0
  -28.5113  -21.0574   18.6366 C   0  0  0  0  0  0
  -27.8898  -22.3320   18.0221 C   0  0  0  0  0  0
  -28.4302  -23.6588   18.5872 C   0  0  0  0  0  0
  -28.9409  -22.3882   20.6852 C   0  0  0  0  0  0
  -28.1690  -23.6781   20.0847 C   0  0  1  0  0  0
  -32.8507  -19.2647   22.5137 C   0  0  0  0  0  0
  -28.3745  -25.1264   20.7812 C   0  0  0  0  0  0
  -28.9309  -21.0430   19.9375 N   0  0  0  0  0  0
  -29.7757  -15.8600   20.5242 N   0  0  0  0  0  0
  -28.5845  -20.0742   17.8927 O   0  0  0  0  0  0
  -31.4654  -12.5773   19.1475 H   0  0  0  0  0  0
  -30.3639  -11.4705   19.9235 H   0  0  0  0  0  0
  -29.7734  -11.7548   17.4861 H   0  0  0  0  0  0
  -29.6138  -13.4780   17.7137 H   0  0  0  0  0  0
  -27.8723  -11.2839   18.8775 H   0  0  0  0  0  0
  -27.3623  -12.5485   17.7908 H   0  0  0  0  0  0
  -27.6295  -14.2486   19.4715 H   0  0  0  0  0  0
  -28.7275  -12.1462   21.4029 H   0  0  0  0  0  0
  -28.4305  -13.8216   21.7956 H   0  0  0  0  0  0
  -25.2755   -9.5753   22.4753 H   0  0  0  0  0  0
  -24.0067   -7.4660   22.7452 H   0  0  0  0  0  0
  -21.0873   -8.8718   19.8921 H   0  0  0  0  0  0
  -22.3657  -10.9671   19.6165 H   0  0  0  0  0  0
  -21.1973   -7.6152   23.9714 H   0  0  0  0  0  0
  -21.1495   -6.0537   25.9079 H   0  0  0  0  0  0
  -22.0595   -2.7622   23.2841 H   0  0  0  0  0  0
  -22.4161  -11.9787   22.4692 H   0  0  0  0  0  0
  -21.1117  -13.1130   22.2695 H   0  0  0  0  0  0
  -24.6639  -15.8490   20.5226 H   0  0  0  0  0  0
  -26.2655  -15.6199   20.0447 H   0  0  0  0  0  0
  -26.7187  -32.5349   23.1036 H   0  0  0  0  0  0
  -25.0022  -33.9612   25.0339 H   0  0  0  0  0  0
  -22.7163  -31.2897   21.3860 H   0  0  0  0  0  0
  -23.3753  -35.9620   23.3256 H   0  0  0  0  0  0
  -24.3587  -36.8975   22.2076 H   0  0  0  0  0  0
  -23.7247  -37.6471   23.6724 H   0  0  0  0  0  0
  -26.0971  -31.5286   20.6002 H   0  0  0  0  0  0
  -26.8434  -30.8178   22.0007 H   0  0  0  0  0  0
  -28.1279  -28.9642   21.1633 H   0  0  0  0  0  0
  -25.9957  -25.8625   19.0641 H   0  0  0  0  0  0
  -23.9680  -27.2528   19.0498 H   0  0  0  0  0  0
  -23.7387  -30.5428   19.3883 H   0  0  0  0  0  0
  -22.7566  -29.1964   19.8845 H   0  0  0  0  0  0
  -25.1312  -36.1840   25.0812 H   0  0  0  0  0  0
  -20.9911  -28.3212   24.1428 H   0  0  0  0  0  0
  -20.5576  -26.2279   23.3588 H   0  0  0  0  0  0
  -21.6611  -26.7402   22.1222 H   0  0  0  0  0  0
  -19.6880  -25.6279   21.1241 H   0  0  0  0  0  0
  -19.6685  -27.3172   20.6703 H   0  0  0  0  0  0
  -17.4163  -26.6687   21.4004 H   0  0  0  0  0  0
  -18.0312  -26.0051   22.8965 H   0  0  0  0  0  0
  -19.7938  -30.7263   24.2258 H   0  0  0  0  0  0
  -17.5025  -31.6301   24.5104 H   0  0  0  0  0  0
  -15.5351  -30.2989   23.7713 H   0  0  0  0  0  0
  -15.8624  -28.0796   22.7180 H   0  0  0  0  0  0
  -24.5977  -30.6946   25.7799 H   0  0  0  0  0  0
  -24.8903  -32.2814   26.4872 H   0  0  0  0  0  0
  -25.8127  -30.8885   27.0215 H   0  0  0  0  0  0
  -26.3027  -29.6672   24.1304 H   0  0  0  0  0  0
  -27.4161  -29.7329   25.4763 H   0  0  0  0  0  0
  -27.8852  -30.4307   23.9445 H   0  0  0  0  0  0
  -27.2613  -33.3679   26.1994 H   0  0  0  0  0  0
  -28.3881  -32.6883   25.0349 H   0  0  0  0  0  0
  -28.0652  -31.8533   26.5464 H   0  0  0  0  0  0
  -28.2563  -38.0123   24.7552 H   0  0  0  0  0  0
  -28.1115  -36.2655   24.6238 H   0  0  0  0  0  0
  -27.2300  -37.1364   25.8865 H   0  0  0  0  0  0
  -20.9330  -29.8754   21.6933 H   0  0  0  0  0  0
  -26.0141  -38.2805   24.1444 H   0  0  0  0  0  0
  -31.1322  -21.0383   21.4807 H   0  0  0  0  0  0
  -31.8766  -16.8464   21.8658 H   0  0  0  0  0  0
  -28.4260  -18.2051   19.6411 H   0  0  0  0  0  0
  -26.8101  -22.2808   18.1731 H   0  0  0  0  0  0
  -28.0371  -22.3129   16.9417 H   0  0  0  0  0  0
  -27.9387  -24.5031   18.1030 H   0  0  0  0  0  0
  -29.4981  -23.7597   18.3885 H   0  0  0  0  0  0
  -28.5885  -22.2110   21.7006 H   0  0  0  0  0  0
  -29.9845  -22.6836   20.7783 H   0  0  0  0  0  0
  -27.1014  -23.4823   20.1994 H   0  0  0  0  0  0
  -32.9667  -20.3323   22.7047 H   0  0  0  0  0  0
  -33.7230  -18.9309   21.9515 H   0  0  0  0  0  0
  -32.8411  -18.7489   23.4742 H   0  0  0  0  0  0
  -29.3596  -25.1014   21.2467 H   0  0  0  0  0  0
  -27.6846  -25.1932   21.6253 H   0  0  0  0  0  0
  -28.7898  -15.6541   20.4848 H   0  0  0  0  0  0
  1 25  1  0  0  0
  1 30  2  0  0  0
  1 85  1  0  0  0
  2  3  1  0  0  0
  2 25  1  0  0  0
  2 87  1  0  0  0
  2 88  1  0  0  0
  3  4  1  0  0  0
  3 89  1  0  0  0
  3 90  1  0  0  0
  4  5  1  0  0  0
  4 91  1  0  0  0
  4 92  1  0  0  0
  5  6  1  0  0  0
  5 26  1  0  0  0
  5 93  1  0  0  0
  6 25  1  0  0  0
  6 94  1  0  0  0
  6 95  1  0  0  0
  7  8  2  0  0  0
  7 26  1  0  0  0
  7 29  1  0  0  0
  8  9  1  0  0  0
  8 22  1  0  0  0
  9 10  1  0  0  0
  9 27  2  0  0  0
 10 11  2  0  0  0
 10 15  1  0  0  0
 11 12  1  0  0  0
 11 96  1  0  0  0
 12 13  2  0  0  0
 12 97  1  0  0  0
 13 14  1  0  0  0
 13 31  1  0  0  0
 14 15  2  0  0  0
 14 98  1  0  0  0
 15 99  1  0  0  0
 16 17  2  0  0  0
 16 21  1  0  0  0
 16 31  1  0  0  0
 17 18  1  0  0  0
 17100  1  0  0  0
 18 19  2  0  0  0
 18101  1  0  0  0
 19 20  1  0  0  0
 19 24  1  0  0  0
 20 21  2  0  0  0
 20102  1  0  0  0
 21 23  1  0  0  0
 22 28  1  0  0  0
 22 32  2  0  0  0
 26 27  1  0  0  0
 28103  1  0  0  0
 28104  1  0  0  0
 29105  1  0  0  0
 29106  1  0  0  0
 33 34  1  0  0  0
 33 66  1  0  0  0
 33 70  2  0  0  0
 34 36  1  0  0  0
 34 59  1  0  0  0
 34107  1  0  0  0
 35 44  2  0  0  0
 35 45  1  0  0  0
 35 68  1  0  0  0
 36 56  1  0  0  0
 36108  1  0  0  0
 37 39  1  0  0  0
 37 47  1  0  0  0
 37 66  1  0  0  0
 37109  1  0  0  0
 38 43  2  0  0  0
 38 46  1  0  0  0
 38 47  1  0  0  0
 39 64  1  0  0  0
 39 67  2  0  0  0
 40 52  1  0  0  0
 40 53  2  0  0  0
 40 58  1  0  0  0
 41110  1  0  0  0
 41111  1  0  0  0
 41112  1  0  0  0
 41 48  1  0  0  0
 42 43  1  0  0  0
 42 66  1  0  0  0
 42113  1  0  0  0
 42114  1  0  0  0
 43 44  1  0  0  0
 44115  1  0  0  0
 45 46  2  0  0  0
 45116  1  0  0  0
 46117  1  0  0  0
 47118  1  0  0  0
 47119  1  0  0  0
 48 56  1  0  0  0
 48 65  1  0  0  0
 48120  1  0  0  0
 49 50  1  0  0  0
 49 53  1  0  0  0
 49 64  1  0  0  0
 49121  1  0  0  0
 50 51  1  0  0  0
 50122  1  0  0  0
 50123  1  0  0  0
 51 52  1  0  0  0
 51124  1  0  0  0
 51125  1  0  0  0
 52126  1  0  0  0
 52127  1  0  0  0
 53 54  1  0  0  0
 54 55  2  0  0  0
 54128  1  0  0  0
 55 57  1  0  0  0
 55129  1  0  0  0
 56 69  2  0  0  0
 57 58  2  0  0  0
 57130  1  0  0  0
 58131  1  0  0  0
 59 60  1  0  0  0
 59 61  1  0  0  0
 59 62  1  0  0  0
 60132  1  0  0  0
 60133  1  0  0  0
 60134  1  0  0  0
 61135  1  0  0  0
 61136  1  0  0  0
 61137  1  0  0  0
 62138  1  0  0  0
 62139  1  0  0  0
 62140  1  0  0  0
 63 65  1  0  0  0
 63141  1  0  0  0
 63142  1  0  0  0
 63143  1  0  0  0
 64144  1  0  0  0
 65145  1  0  0  0
 68 83  1  0  0  0
 71 74  2  0  0  0
 71 75  1  0  0  0
 71146  1  0  0  0
 72 74  1  0  0  0
 72 76  2  0  0  0
 72147  1  0  0  0
 73 75  2  0  0  0
 73 76  1  0  0  0
 73148  1  0  0  0
 74 82  1  0  0  0
 75 84  1  0  0  0
 76 85  1  0  0  0
 77 78  1  0  0  0
 77 84  1  0  0  0
 77 86  2  0  0  0
 78 79  1  0  0  0
 78149  1  0  0  0
 78150  1  0  0  0
 79 81  1  0  0  0
 79151  1  0  0  0
 79152  1  0  0  0
 80 81  1  0  0  0
 80 84  1  0  0  0
 80153  1  0  0  0
 80154  1  0  0  0
 81 83  1  0  0  0
 81155  1  0  0  0
 82156  1  0  0  0
 82157  1  0  0  0
 82158  1  0  0  0
 83159  1  0  0  0
 83160  1  0  0  0
 85161  1  0  0  0
M  ISO  4   1 100  68 101  83 101  85 100
M  END
> <chiral flag>
0

> <version>
0

> <s_m_source_file>
/data/baiqing/PycharmProjects/Reinvent-master-3.2/result/LINK_invent/BTK/process_docking_weight1_custom_product_contain_oxygen_bond_distance_aromatic_linkinvent_7_9_3/rearranged_h_0060.sdf

> <i_m_source_file_index>
79

> <r_mmod_Potential_Energy-OPLS-2005>
280.397125244141

> <r_mmod_Stretch_Energy-OPLS-2005>
128.097900390625

> <r_mmod_Bend_Energy-OPLS-2005>
173.810012817383

> <r_mmod_Torsional_Energy-OPLS-2005>
302.589935302734

> <r_mmod_Improper_Torsional_Energy-OPLS-2005>
7.60975313186646

> <r_mmod_Van_der_Waal_Energy-OPLS-2005>
146.268905639648

> <r_mmod_Electrostatic_Energy-OPLS-2005>
-333.133819580078

> <r_mmod_Solvation_Energy-OPLS-2005>
-220.437393188477

> <b_mmod_Minimization_Converged-OPLS-2005>
0

> <r_mmod_RMS_Derivative-OPLS-2005>
2.69669198989868

$$$$
79
                    3D
 Structure written by MMmdl.
149157  0  0  1  0            999 V2000
  -30.5860  -14.8176   20.4625 C   0  0  0  0  0  0
  -30.4347  -12.5085   19.4732 C   0  0  0  0  0  0
  -29.5115  -12.5171   18.2349 C   0  0  0  0  0  0
  -28.0420  -12.3193   18.6537 C   0  0  0  0  0  0
  -27.6336  -13.2330   19.8398 C   0  0  2  0  0  0
  -28.6777  -13.2076   20.9755 C   0  0  0  0  0  0
  -25.2476  -13.8182   20.5667 C   0  0  0  0  0  0
  -24.1782  -13.0429   20.9208 C   0  0  0  0  0  0
  -24.6389  -11.6911   20.8751 C   0  0  0  0  0  0
  -23.9065  -10.4287   21.0406 C   0  0  0  0  0  0
  -24.3614   -9.4202   21.9182 C   0  0  0  0  0  0
  -23.6291   -8.2241   22.0760 C   0  0  0  0  0  0
  -22.4278   -8.0272   21.3548 C   0  0  0  0  0  0
  -21.9905   -9.0243   20.4652 C   0  0  0  0  0  0
  -22.7233  -10.2123   20.3052 C   0  0  0  0  0  0
  -21.6851   -6.0728   22.5278 C   0  0  0  0  0  0
  -21.4016   -6.5638   23.8211 C   0  0  0  0  0  0
  -21.3660   -5.6795   24.9178 C   0  0  0  0  0  0
  -21.6039   -4.3059   24.7230 C   0  0  0  0  0  0
  -21.8820   -3.8146   23.4357 C   0  0  0  0  0  0
  -21.9195   -4.6957   22.3409 C   0  0  0  0  0  0
  -22.7808  -13.5207   21.1873 C   0  0  0  0  0  0
  -22.1662   -4.2143   21.0986 F   0  0  0  0  0  0
  -21.5628   -3.4541   25.7744 F   0  0  0  0  0  0
  -29.9672  -13.5839   20.3835 N   0  0  0  0  0  0
  -26.2896  -12.9393   20.3223 N   0  0  0  0  0  0
  -25.9305  -11.6537   20.5727 N   0  0  0  0  0  0
  -22.0463  -12.8194   22.0435 N   0  0  0  0  0  0
  -25.4138  -15.1907   20.4062 N   0  0  0  0  0  0
  -31.7899  -14.8910   20.1936 O   0  0  0  0  0  0
  -21.6647   -6.8870   21.4242 O   0  0  0  0  0  0
  -22.3494  -14.5516   20.6722 O   0  0  0  0  0  0
  -24.6356  -31.8515   23.1963 C   0  0  0  0  0  0
  -25.9171  -32.4737   23.8316 C   0  0  1  0  0  0
  -27.2229  -27.2251   20.1484 C   0  0  0  0  0  0
  -25.5946  -33.8536   24.2235 N   0  0  0  0  0  0
  -23.4342  -30.4705   21.5406 C   0  0  2  0  0  0
  -24.8815  -28.9043   20.1198 C   0  0  0  0  0  0
  -22.7513  -29.4569   22.4917 C   0  0  0  0  0  0
  -18.0279  -28.1395   22.8494 C   0  0  0  0  0  0
  -24.1481  -36.7265   23.2643 C   0  0  0  0  0  0
  -25.9817  -30.7530   21.3793 C   0  0  0  0  0  0
  -26.0542  -29.3679   20.7303 C   0  0  0  0  0  0
  -27.2303  -28.5434   20.7296 C   0  0  0  0  0  0
  -26.0264  -26.8289   19.5182 C   0  0  0  0  0  0
  -24.8727  -27.6423   19.5029 C   0  0  0  0  0  0
  -23.6566  -29.7997   20.1587 C   0  0  0  0  0  0
  -25.4117  -36.3055   24.0325 C   0  0  1  0  0  0
  -20.5889  -28.3694   23.1279 C   0  0  2  0  0  0
  -20.6770  -26.9410   22.5414 C   0  0  0  0  0  0
  -19.5737  -26.6386   21.5219 C   0  0  0  0  0  0
  -18.1920  -26.7933   22.1646 C   0  0  0  0  0  0
  -19.1535  -28.8867   23.2877 C   0  0  0  0  0  0
  -18.9455  -30.1473   23.8885 C   0  0  0  0  0  0
  -17.6454  -30.6595   24.0563 C   0  0  0  0  0  0
  -25.9062  -34.9426   23.5079 C   0  0  0  0  0  0
  -16.5348  -29.9091   23.6339 C   0  0  0  0  0  0
  -16.7267  -28.6511   23.0361 C   0  0  0  0  0  0
  -26.4521  -31.6581   25.0719 C   0  0  0  0  0  0
  -25.3733  -31.3779   26.1437 C   0  0  0  0  0  0
  -27.0344  -30.2986   24.6223 C   0  0  0  0  0  0
  -27.6078  -32.4311   25.7482 C   0  0  0  0  0  0
  -27.5566  -37.1802   24.8479 C   0  0  0  0  0  0
  -21.4210  -29.3038   22.3670 N   0  0  0  0  0  0
  -26.4291  -37.3760   23.9401 N   0  0  0  0  0  0
  -24.7037  -31.0440   22.0956 N   0  0  0  0  0  0
  -23.4185  -28.8109   23.3037 O   0  0  0  0  0  0
  -28.3162  -26.3219   20.1017 O   0  0  0  0  0  0
  -26.5622  -34.8915   22.4638 O   0  0  0  0  0  0
  -23.5496  -32.1345   23.7244 O   0  0  0  0  0  0
  -31.7030  -19.0292   21.8449 C   0  0  0  0  0  0
  -30.9318  -20.1413   21.4512 C   0  0  0  0  0  0
  -31.3254  -17.7078   21.5318 C   0  0  0  0  0  0
  -29.3627  -18.6037   20.4066 C   0  0  0  0  0  0
  -29.7354  -19.9956   20.7138 C   0  0  0  0  0  0
  -30.1492  -17.4214   20.8034 C   0  0  0  0  0  0
  -28.7862  -23.7975   20.1511 C   0  0  0  0  0  0
  -28.2439  -24.9918   20.6445 C   0  0  0  0  0  0
  -28.8696  -22.4779   20.9098 C   0  0  0  0  0  0
  -29.0912  -21.2710   20.2326 N   0  0  0  0  0  0
  -29.7977  -15.9746   20.5795 N   0  0  0  0  0  0
  -28.7588  -22.4493   22.1375 O   0  0  0  0  0  0
  -31.4722  -12.6501   19.1659 H   0  0  0  0  0  0
  -30.3994  -11.5412   19.9760 H   0  0  0  0  0  0
  -29.8110  -11.7368   17.5332 H   0  0  0  0  0  0
  -29.6176  -13.4645   17.7038 H   0  0  0  0  0  0
  -27.9200  -11.2722   18.9354 H   0  0  0  0  0  0
  -27.3795  -12.4823   17.8032 H   0  0  0  0  0  0
  -27.6140  -14.2452   19.4365 H   0  0  0  0  0  0
  -28.7354  -12.2207   21.4358 H   0  0  0  0  0  0
  -28.3977  -13.9027   21.7689 H   0  0  0  0  0  0
  -25.2760   -9.5688   22.4759 H   0  0  0  0  0  0
  -24.0007   -7.4631   22.7474 H   0  0  0  0  0  0
  -21.0840   -8.8747   19.8955 H   0  0  0  0  0  0
  -22.3678  -10.9656   19.6162 H   0  0  0  0  0  0
  -21.2006   -7.6146   23.9709 H   0  0  0  0  0  0
  -21.1478   -6.0531   25.9078 H   0  0  0  0  0  0
  -22.0597   -2.7606   23.2858 H   0  0  0  0  0  0
  -22.4094  -11.9861   22.4821 H   0  0  0  0  0  0
  -21.1076  -13.1219   22.2646 H   0  0  0  0  0  0
  -24.6359  -15.8350   20.4994 H   0  0  0  0  0  0
  -26.2484  -15.6321   20.0440 H   0  0  0  0  0  0
  -26.7216  -32.5373   23.1034 H   0  0  0  0  0  0
  -25.0123  -33.9661   25.0404 H   0  0  0  0  0  0
  -22.7334  -31.2956   21.3926 H   0  0  0  0  0  0
  -23.3735  -35.9609   23.3351 H   0  0  0  0  0  0
  -24.3559  -36.8834   22.2045 H   0  0  0  0  0  0
  -23.7251  -37.6493   23.6633 H   0  0  0  0  0  0
  -26.1181  -31.5082   20.6040 H   0  0  0  0  0  0
  -26.8595  -30.8105   22.0112 H   0  0  0  0  0  0
  -28.1344  -28.9006   21.2006 H   0  0  0  0  0  0
  -25.9829  -25.8620   19.0361 H   0  0  0  0  0  0
  -23.9750  -27.2803   19.0198 H   0  0  0  0  0  0
  -23.7892  -30.5749   19.4034 H   0  0  0  0  0  0
  -22.7730  -29.2389   19.8511 H   0  0  0  0  0  0
  -25.1304  -36.1896   25.0821 H   0  0  0  0  0  0
  -20.9981  -28.3248   24.1406 H   0  0  0  0  0  0
  -20.5667  -26.2292   23.3613 H   0  0  0  0  0  0
  -21.6633  -26.7425   22.1214 H   0  0  0  0  0  0
  -19.6886  -25.6290   21.1257 H   0  0  0  0  0  0
  -19.6675  -27.3191   20.6742 H   0  0  0  0  0  0
  -17.4192  -26.6677   21.4052 H   0  0  0  0  0  0
  -18.0326  -26.0077   22.9048 H   0  0  0  0  0  0
  -19.7927  -30.7299   24.2244 H   0  0  0  0  0  0
  -17.5005  -31.6273   24.5165 H   0  0  0  0  0  0
  -15.5346  -30.2990   23.7674 H   0  0  0  0  0  0
  -15.8670  -28.0828   22.7079 H   0  0  0  0  0  0
  -24.5859  -30.7174   25.7778 H   0  0  0  0  0  0
  -24.8981  -32.2976   26.4857 H   0  0  0  0  0  0
  -25.8029  -30.8941   27.0215 H   0  0  0  0  0  0
  -26.2916  -29.6747   24.1235 H   0  0  0  0  0  0
  -27.3991  -29.7246   25.4751 H   0  0  0  0  0  0
  -27.8821  -30.4247   23.9483 H   0  0  0  0  0  0
  -27.2713  -33.3659   26.1977 H   0  0  0  0  0  0
  -28.3940  -32.6781   25.0333 H   0  0  0  0  0  0
  -28.0679  -31.8467   26.5459 H   0  0  0  0  0  0
  -28.2634  -38.0051   24.7461 H   0  0  0  0  0  0
  -28.1002  -36.2577   24.6385 H   0  0  0  0  0  0
  -27.2268  -37.1553   25.8882 H   0  0  0  0  0  0
  -20.9393  -29.8792   21.6904 H   0  0  0  0  0  0
  -26.0158  -38.2834   24.1386 H   0  0  0  0  0  0
  -32.6173  -19.1948   22.3979 H   0  0  0  0  0  0
  -31.2984  -21.1280   21.6981 H   0  0  0  0  0  0
  -31.9603  -16.9056   21.8815 H   0  0  0  0  0  0
  -28.4523  -18.4407   19.8477 H   0  0  0  0  0  0
  -29.2531  -23.8297   19.1774 H   0  0  0  0  0  0
  -27.7325  -25.0023   21.5975 H   0  0  0  0  0  0
  -28.9127  -21.3104   19.2387 H   0  0  0  0  0  0
  -28.8083  -15.7850   20.5410 H   0  0  0  0  0  0
  1 25  1  0  0  0
  1 30  2  0  0  0
  1 81  1  0  0  0
  2  3  1  0  0  0
  2 25  1  0  0  0
  2 83  1  0  0  0
  2 84  1  0  0  0
  3  4  1  0  0  0
  3 85  1  0  0  0
  3 86  1  0  0  0
  4  5  1  0  0  0
  4 87  1  0  0  0
  4 88  1  0  0  0
  5  6  1  0  0  0
  5 26  1  0  0  0
  5 89  1  0  0  0
  6 25  1  0  0  0
  6 90  1  0  0  0
  6 91  1  0  0  0
  7  8  2  0  0  0
  7 26  1  0  0  0
  7 29  1  0  0  0
  8  9  1  0  0  0
  8 22  1  0  0  0
  9 10  1  0  0  0
  9 27  2  0  0  0
 10 11  2  0  0  0
 10 15  1  0  0  0
 11 12  1  0  0  0
 11 92  1  0  0  0
 12 13  2  0  0  0
 12 93  1  0  0  0
 13 14  1  0  0  0
 13 31  1  0  0  0
 14 15  2  0  0  0
 14 94  1  0  0  0
 15 95  1  0  0  0
 16 17  2  0  0  0
 16 21  1  0  0  0
 16 31  1  0  0  0
 17 18  1  0  0  0
 17 96  1  0  0  0
 18 19  2  0  0  0
 18 97  1  0  0  0
 19 20  1  0  0  0
 19 24  1  0  0  0
 20 21  2  0  0  0
 20 98  1  0  0  0
 21 23  1  0  0  0
 22 28  1  0  0  0
 22 32  2  0  0  0
 26 27  1  0  0  0
 28 99  1  0  0  0
 28100  1  0  0  0
 29101  1  0  0  0
 29102  1  0  0  0
 33 34  1  0  0  0
 33 66  1  0  0  0
 33 70  2  0  0  0
 34 36  1  0  0  0
 34 59  1  0  0  0
 34103  1  0  0  0
 35 44  2  0  0  0
 35 45  1  0  0  0
 35 68  1  0  0  0
 36 56  1  0  0  0
 36104  1  0  0  0
 37 39  1  0  0  0
 37 47  1  0  0  0
 37 66  1  0  0  0
 37105  1  0  0  0
 38 43  2  0  0  0
 38 46  1  0  0  0
 38 47  1  0  0  0
 39 64  1  0  0  0
 39 67  2  0  0  0
 40 52  1  0  0  0
 40 53  2  0  0  0
 40 58  1  0  0  0
 41106  1  0  0  0
 41107  1  0  0  0
 41108  1  0  0  0
 41 48  1  0  0  0
 42 43  1  0  0  0
 42 66  1  0  0  0
 42109  1  0  0  0
 42110  1  0  0  0
 43 44  1  0  0  0
 44111  1  0  0  0
 45 46  2  0  0  0
 45112  1  0  0  0
 46113  1  0  0  0
 47114  1  0  0  0
 47115  1  0  0  0
 48 56  1  0  0  0
 48 65  1  0  0  0
 48116  1  0  0  0
 49 50  1  0  0  0
 49 53  1  0  0  0
 49 64  1  0  0  0
 49117  1  0  0  0
 50 51  1  0  0  0
 50118  1  0  0  0
 50119  1  0  0  0
 51 52  1  0  0  0
 51120  1  0  0  0
 51121  1  0  0  0
 52122  1  0  0  0
 52123  1  0  0  0
 53 54  1  0  0  0
 54 55  2  0  0  0
 54124  1  0  0  0
 55 57  1  0  0  0
 55125  1  0  0  0
 56 69  2  0  0  0
 57 58  2  0  0  0
 57126  1  0  0  0
 58127  1  0  0  0
 59 60  1  0  0  0
 59 61  1  0  0  0
 59 62  1  0  0  0
 60128  1  0  0  0
 60129  1  0  0  0
 60130  1  0  0  0
 61131  1  0  0  0
 61132  1  0  0  0
 61133  1  0  0  0
 62134  1  0  0  0
 62135  1  0  0  0
 62136  1  0  0  0
 63 65  1  0  0  0
 63137  1  0  0  0
 63138  1  0  0  0
 63139  1  0  0  0
 64140  1  0  0  0
 65141  1  0  0  0
 68 78  1  0  0  0
 71 72  2  0  0  0
 71 73  1  0  0  0
 71142  1  0  0  0
 72 75  1  0  0  0
 72143  1  0  0  0
 73 76  2  0  0  0
 73144  1  0  0  0
 74 75  2  0  0  0
 74 76  1  0  0  0
 74145  1  0  0  0
 75 80  1  0  0  0
 76 81  1  0  0  0
 77 78  2  0  0  0
 77 79  1  0  0  0
 77146  1  0  0  0
 78147  1  0  0  0
 79 80  1  0  0  0
 79 82  2  0  0  0
 80148  1  0  0  0
 81149  1  0  0  0
M  ISO  4   1 100  68 101  78 101  81 100
M  END
> <chiral flag>
0

> <version>
0

> <s_m_source_file>
/data/baiqing/PycharmProjects/Reinvent-master-3.2/result/LINK_invent/BTK/process_docking_weight1_custom_product_contain_oxygen_bond_distance_aromatic_linkinvent_7_9_3/rearranged_h_0060.sdf

> <i_m_source_file_index>
80

> <r_mmod_Potential_Energy-OPLS-2005>
225.721710205078

> <r_mmod_Stretch_Energy-OPLS-2005>
150.955795288086

> <r_mmod_Bend_Energy-OPLS-2005>
168.483627319336

> <r_mmod_Torsional_Energy-OPLS-2005>
266.281341552734

> <r_mmod_Improper_Torsional_Energy-OPLS-2005>
8.213942527771

> <r_mmod_Van_der_Waal_Energy-OPLS-2005>
133.450607299805

> <r_mmod_Electrostatic_Energy-OPLS-2005>
-381.644805908203

> <r_mmod_Solvation_Energy-OPLS-2005>
-232.530303955078

> <b_mmod_Minimization_Converged-OPLS-2005>
0

> <r_mmod_RMS_Derivative-OPLS-2005>
2.62025117874146

$$$$
80
                    3D
 Structure written by MMmdl.
163171  0  0  1  0            999 V2000
  -30.7128  -14.4247   20.5646 C   0  0  0  0  0  0
  -30.4186  -12.2699   19.4277 C   0  0  0  0  0  0
  -29.4984  -12.4965   18.2112 C   0  0  0  0  0  0
  -28.0176  -12.3647   18.6195 C   0  0  0  0  0  0
  -27.6651  -13.2028   19.8783 C   0  0  2  0  0  0
  -28.7024  -12.9683   21.0012 C   0  0  0  0  0  0
  -25.2592  -13.8146   20.5669 C   0  0  0  0  0  0
  -24.1840  -13.0440   20.9190 C   0  0  0  0  0  0
  -24.6387  -11.6907   20.8744 C   0  0  0  0  0  0
  -23.9054  -10.4293   21.0408 C   0  0  0  0  0  0
  -24.3604   -9.4207   21.9181 C   0  0  0  0  0  0
  -23.6283   -8.2243   22.0749 C   0  0  0  0  0  0
  -22.4265   -8.0283   21.3543 C   0  0  0  0  0  0
  -21.9897   -9.0259   20.4651 C   0  0  0  0  0  0
  -22.7228  -10.2137   20.3059 C   0  0  0  0  0  0
  -21.6847   -6.0735   22.5281 C   0  0  0  0  0  0
  -21.4013   -6.5634   23.8216 C   0  0  0  0  0  0
  -21.3662   -5.6787   24.9177 C   0  0  0  0  0  0
  -21.6039   -4.3050   24.7228 C   0  0  0  0  0  0
  -21.8820   -3.8146   23.4350 C   0  0  0  0  0  0
  -21.9191   -4.6962   22.3406 C   0  0  0  0  0  0
  -22.7862  -13.5250   21.1852 C   0  0  0  0  0  0
  -22.1658   -4.2151   21.0982 F   0  0  0  0  0  0
  -21.5626   -3.4535   25.7742 F   0  0  0  0  0  0
  -30.0415  -13.2504   20.4547 N   0  0  0  0  0  0
  -26.3034  -12.9318   20.3368 N   0  0  0  0  0  0
  -25.9309  -11.6478   20.5766 N   0  0  0  0  0  0
  -22.0482  -12.8263   22.0412 N   0  0  0  0  0  0
  -25.4322  -15.1849   20.4021 N   0  0  0  0  0  0
  -31.8451  -14.6083   20.1029 O   0  0  0  0  0  0
  -21.6632   -6.8881   21.4243 O   0  0  0  0  0  0
  -22.3554  -14.5557   20.6698 O   0  0  0  0  0  0
  -24.6095  -31.8714   23.2127 C   0  0  0  0  0  0
  -25.9004  -32.4840   23.8421 C   0  0  1  0  0  0
  -27.2541  -27.4791   20.1017 C   0  0  0  0  0  0
  -25.5870  -33.8639   24.2360 N   0  0  0  0  0  0
  -23.3962  -30.4931   21.5506 C   0  0  2  0  0  0
  -24.8477  -28.9606   20.1195 C   0  0  0  0  0  0
  -22.7383  -29.4677   22.5007 C   0  0  0  0  0  0
  -18.0274  -28.1383   22.8496 C   0  0  0  0  0  0
  -24.1477  -36.7332   23.2638 C   0  0  0  0  0  0
  -25.9185  -30.8532   21.3575 C   0  0  0  0  0  0
  -26.0007  -29.4882   20.7123 C   0  0  0  0  0  0
  -27.2057  -28.7594   20.7013 C   0  0  0  0  0  0
  -26.0891  -26.9631   19.4988 C   0  0  0  0  0  0
  -24.8837  -27.6930   19.5106 C   0  0  0  0  0  0
  -23.6045  -29.8198   20.1668 C   0  0  0  0  0  0
  -25.4091  -36.3126   24.0348 C   0  0  1  0  0  0
  -20.5858  -28.3668   23.1328 C   0  0  2  0  0  0
  -20.6758  -26.9404   22.5426 C   0  0  0  0  0  0
  -19.5743  -26.6390   21.5215 C   0  0  0  0  0  0
  -18.1917  -26.7934   22.1617 C   0  0  0  0  0  0
  -19.1523  -28.8842   23.2911 C   0  0  0  0  0  0
  -18.9454  -30.1446   23.8920 C   0  0  0  0  0  0
  -17.6457  -30.6586   24.0577 C   0  0  0  0  0  0
  -25.9018  -34.9487   23.5152 C   0  0  0  0  0  0
  -16.5349  -29.9095   23.6321 C   0  0  0  0  0  0
  -16.7266  -28.6513   23.0342 C   0  0  0  0  0  0
  -26.4447  -31.6604   25.0734 C   0  0  0  0  0  0
  -25.3736  -31.3712   26.1508 C   0  0  0  0  0  0
  -27.0262  -30.3049   24.6074 C   0  0  0  0  0  0
  -27.6052  -32.4301   25.7467 C   0  0  0  0  0  0
  -27.5581  -37.1809   24.8459 C   0  0  0  0  0  0
  -21.4118  -29.3039   22.3733 N   0  0  0  0  0  0
  -26.4283  -37.3805   23.9417 N   0  0  0  0  0  0
  -24.6588  -31.0863   22.0997 N   0  0  0  0  0  0
  -23.4168  -28.8229   23.3042 O   0  0  0  0  0  0
  -28.3903  -26.7052   20.0431 O   0  0  0  0  0  0
  -26.5589  -34.8930   22.4718 O   0  0  0  0  0  0
  -23.5298  -32.1443   23.7550 O   0  0  0  0  0  0
  -29.0065  -20.3265   18.1638 C   0  0  0  0  0  0
  -28.8238  -19.1307   18.8769 C   0  0  0  0  0  0
  -29.8602  -21.3170   18.6746 C   0  0  0  0  0  0
  -29.4749  -18.9185   20.1111 C   0  0  0  0  0  0
  -30.5244  -21.1285   19.9037 C   0  0  0  0  0  0
  -30.3112  -19.9367   20.6521 C   0  0  0  0  0  0
  -29.2585  -17.6141   20.7587 C   0  0  0  0  0  0
  -30.5947  -24.5623   20.7572 C   0  0  0  0  0  0
  -30.9804  -19.7557   22.0132 C   0  0  0  0  0  0
  -27.9530  -17.3964   21.4847 C   0  0  0  0  0  0
  -31.4427  -22.2453   20.3829 C   0  0  0  0  0  0
  -29.6780  -25.4118   21.6426 C   0  0  0  0  0  0
  -29.3423  -26.8150   21.1042 C   0  0  0  0  0  0
  -30.1883  -16.7288   20.6302 N   0  0  0  0  0  0
  -30.6864  -23.2696   21.0914 N   0  0  0  0  0  0
  -29.9880  -15.4473   21.0427 N   0  0  0  0  0  0
  -31.2123  -25.0536   19.8100 O   0  0  0  0  0  0
  -31.4665  -12.3504   19.1339 H   0  0  0  0  0  0
  -30.2969  -11.2586   19.8184 H   0  0  0  0  0  0
  -29.7335  -11.7794   17.4229 H   0  0  0  0  0  0
  -29.6807  -13.4855   17.7882 H   0  0  0  0  0  0
  -27.8235  -11.3097   18.8145 H   0  0  0  0  0  0
  -27.3712  -12.6437   17.7870 H   0  0  0  0  0  0
  -27.7170  -14.2521   19.5862 H   0  0  0  0  0  0
  -28.6623  -11.9336   21.3443 H   0  0  0  0  0  0
  -28.4727  -13.5733   21.8796 H   0  0  0  0  0  0
  -25.2742   -9.5683   22.4763 H   0  0  0  0  0  0
  -23.9995   -7.4628   22.7459 H   0  0  0  0  0  0
  -21.0829   -8.8784   19.8954 H   0  0  0  0  0  0
  -22.3686  -10.9677   19.6177 H   0  0  0  0  0  0
  -21.2002   -7.6139   23.9722 H   0  0  0  0  0  0
  -21.1478   -6.0513   25.9081 H   0  0  0  0  0  0
  -22.0595   -2.7606   23.2852 H   0  0  0  0  0  0
  -22.4060  -11.9914   22.4812 H   0  0  0  0  0  0
  -21.1108  -13.1321   22.2602 H   0  0  0  0  0  0
  -24.6679  -15.8430   20.5049 H   0  0  0  0  0  0
  -26.2761  -15.6114   20.0430 H   0  0  0  0  0  0
  -26.7086  -32.5577   23.1204 H   0  0  0  0  0  0
  -25.0018  -33.9811   25.0498 H   0  0  0  0  0  0
  -22.6823  -31.3069   21.4096 H   0  0  0  0  0  0
  -23.3730  -35.9673   23.3306 H   0  0  0  0  0  0
  -24.3583  -36.8940   22.2054 H   0  0  0  0  0  0
  -23.7234  -37.6541   23.6645 H   0  0  0  0  0  0
  -26.0221  -31.6165   20.5850 H   0  0  0  0  0  0
  -26.8086  -30.9140   21.9711 H   0  0  0  0  0  0
  -28.0908  -29.1985   21.1392 H   0  0  0  0  0  0
  -26.1177  -25.9904   19.0273 H   0  0  0  0  0  0
  -23.9996  -27.2774   19.0477 H   0  0  0  0  0  0
  -23.7077  -30.5918   19.4033 H   0  0  0  0  0  0
  -22.7321  -29.2329   19.8738 H   0  0  0  0  0  0
  -25.1256  -36.2003   25.0842 H   0  0  0  0  0  0
  -20.9961  -28.3247   24.1443 H   0  0  0  0  0  0
  -20.5654  -26.2284   23.3619 H   0  0  0  0  0  0
  -21.6638  -26.7449   22.1231 H   0  0  0  0  0  0
  -19.6902  -25.6303   21.1236 H   0  0  0  0  0  0
  -19.6678  -27.3207   20.6751 H   0  0  0  0  0  0
  -17.4195  -26.6710   21.4008 H   0  0  0  0  0  0
  -18.0299  -26.0063   22.8997 H   0  0  0  0  0  0
  -19.7936  -30.7257   24.2292 H   0  0  0  0  0  0
  -17.5020  -31.6265   24.5183 H   0  0  0  0  0  0
  -15.5352  -30.3007   23.7624 H   0  0  0  0  0  0
  -15.8670  -28.0837   22.7038 H   0  0  0  0  0  0
  -24.5905  -30.7043   25.7881 H   0  0  0  0  0  0
  -24.8924  -32.2868   26.4963 H   0  0  0  0  0  0
  -25.8115  -30.8900   27.0264 H   0  0  0  0  0  0
  -26.2795  -29.6825   24.1130 H   0  0  0  0  0  0
  -27.4049  -29.7266   25.4513 H   0  0  0  0  0  0
  -27.8622  -30.4379   23.9202 H   0  0  0  0  0  0
  -27.2705  -33.3592   26.2091 H   0  0  0  0  0  0
  -28.3825  -32.6869   25.0258 H   0  0  0  0  0  0
  -28.0758  -31.8394   26.5336 H   0  0  0  0  0  0
  -28.2605  -38.0100   24.7508 H   0  0  0  0  0  0
  -28.1064  -36.2639   24.6253 H   0  0  0  0  0  0
  -27.2321  -37.1446   25.8869 H   0  0  0  0  0  0
  -20.9270  -29.8752   21.6954 H   0  0  0  0  0  0
  -26.0179  -38.2884   24.1420 H   0  0  0  0  0  0
  -28.5017  -20.4784   17.2199 H   0  0  0  0  0  0
  -28.1840  -18.3637   18.4627 H   0  0  0  0  0  0
  -30.0069  -22.2325   18.1170 H   0  0  0  0  0  0
  -30.4318  -19.0732   22.6612 H   0  0  0  0  0  0
  -31.0369  -20.6963   22.5599 H   0  0  0  0  0  0
  -31.9911  -19.3662   21.8899 H   0  0  0  0  0  0
  -27.1125  -17.5193   20.8018 H   0  0  0  0  0  0
  -27.8385  -18.1395   22.2740 H   0  0  0  0  0  0
  -27.8582  -16.4174   21.9514 H   0  0  0  0  0  0
  -31.9645  -22.6600   19.5180 H   0  0  0  0  0  0
  -32.2344  -21.8624   21.0265 H   0  0  0  0  0  0
  -30.1720  -25.5125   22.6096 H   0  0  0  0  0  0
  -28.7512  -24.8671   21.8281 H   0  0  0  0  0  0
  -30.2327  -27.3339   20.7466 H   0  0  0  0  0  0
  -28.9696  -27.3884   21.9528 H   0  0  0  0  0  0
  -30.1447  -22.9558   21.8846 H   0  0  0  0  0  0
  -29.0757  -15.2466   21.4242 H   0  0  0  0  0  0
  1 25  1  0  0  0
  1 30  2  0  0  0
  1 86  1  0  0  0
  2  3  1  0  0  0
  2 25  1  0  0  0
  2 88  1  0  0  0
  2 89  1  0  0  0
  3  4  1  0  0  0
  3 90  1  0  0  0
  3 91  1  0  0  0
  4  5  1  0  0  0
  4 92  1  0  0  0
  4 93  1  0  0  0
  5  6  1  0  0  0
  5 26  1  0  0  0
  5 94  1  0  0  0
  6 25  1  0  0  0
  6 95  1  0  0  0
  6 96  1  0  0  0
  7  8  2  0  0  0
  7 26  1  0  0  0
  7 29  1  0  0  0
  8  9  1  0  0  0
  8 22  1  0  0  0
  9 10  1  0  0  0
  9 27  2  0  0  0
 10 11  2  0  0  0
 10 15  1  0  0  0
 11 12  1  0  0  0
 11 97  1  0  0  0
 12 13  2  0  0  0
 12 98  1  0  0  0
 13 14  1  0  0  0
 13 31  1  0  0  0
 14 15  2  0  0  0
 14 99  1  0  0  0
 15100  1  0  0  0
 16 17  2  0  0  0
 16 21  1  0  0  0
 16 31  1  0  0  0
 17 18  1  0  0  0
 17101  1  0  0  0
 18 19  2  0  0  0
 18102  1  0  0  0
 19 20  1  0  0  0
 19 24  1  0  0  0
 20 21  2  0  0  0
 20103  1  0  0  0
 21 23  1  0  0  0
 22 28  1  0  0  0
 22 32  2  0  0  0
 26 27  1  0  0  0
 28104  1  0  0  0
 28105  1  0  0  0
 29106  1  0  0  0
 29107  1  0  0  0
 33 34  1  0  0  0
 33 66  1  0  0  0
 33 70  2  0  0  0
 34 36  1  0  0  0
 34 59  1  0  0  0
 34108  1  0  0  0
 35 44  2  0  0  0
 35 45  1  0  0  0
 35 68  1  0  0  0
 36 56  1  0  0  0
 36109  1  0  0  0
 37 39  1  0  0  0
 37 47  1  0  0  0
 37 66  1  0  0  0
 37110  1  0  0  0
 38 43  2  0  0  0
 38 46  1  0  0  0
 38 47  1  0  0  0
 39 64  1  0  0  0
 39 67  2  0  0  0
 40 52  1  0  0  0
 40 53  2  0  0  0
 40 58  1  0  0  0
 41111  1  0  0  0
 41112  1  0  0  0
 41113  1  0  0  0
 41 48  1  0  0  0
 42 43  1  0  0  0
 42 66  1  0  0  0
 42114  1  0  0  0
 42115  1  0  0  0
 43 44  1  0  0  0
 44116  1  0  0  0
 45 46  2  0  0  0
 45117  1  0  0  0
 46118  1  0  0  0
 47119  1  0  0  0
 47120  1  0  0  0
 48 56  1  0  0  0
 48 65  1  0  0  0
 48121  1  0  0  0
 49 50  1  0  0  0
 49 53  1  0  0  0
 49 64  1  0  0  0
 49122  1  0  0  0
 50 51  1  0  0  0
 50123  1  0  0  0
 50124  1  0  0  0
 51 52  1  0  0  0
 51125  1  0  0  0
 51126  1  0  0  0
 52127  1  0  0  0
 52128  1  0  0  0
 53 54  1  0  0  0
 54 55  2  0  0  0
 54129  1  0  0  0
 55 57  1  0  0  0
 55130  1  0  0  0
 56 69  2  0  0  0
 57 58  2  0  0  0
 57131  1  0  0  0
 58132  1  0  0  0
 59 60  1  0  0  0
 59 61  1  0  0  0
 59 62  1  0  0  0
 60133  1  0  0  0
 60134  1  0  0  0
 60135  1  0  0  0
 61136  1  0  0  0
 61137  1  0  0  0
 61138  1  0  0  0
 62139  1  0  0  0
 62140  1  0  0  0
 62141  1  0  0  0
 63 65  1  0  0  0
 63142  1  0  0  0
 63143  1  0  0  0
 63144  1  0  0  0
 64145  1  0  0  0
 65146  1  0  0  0
 68 83  1  0  0  0
 71 72  2  0  0  0
 71 73  1  0  0  0
 71147  1  0  0  0
 72 74  1  0  0  0
 72148  1  0  0  0
 73 75  2  0  0  0
 73149  1  0  0  0
 74 76  2  0  0  0
 74 77  1  0  0  0
 75 76  1  0  0  0
 75 81  1  0  0  0
 76 79  1  0  0  0
 77 80  1  0  0  0
 77 84  2  0  0  0
 78 82  1  0  0  0
 78 85  1  0  0  0
 78 87  2  0  0  0
 79150  1  0  0  0
 79151  1  0  0  0
 79152  1  0  0  0
 80153  1  0  0  0
 80154  1  0  0  0
 80155  1  0  0  0
 81 85  1  0  0  0
 81156  1  0  0  0
 81157  1  0  0  0
 82 83  1  0  0  0
 82158  1  0  0  0
 82159  1  0  0  0
 83160  1  0  0  0
 83161  1  0  0  0
 84 86  1  0  0  0
 85162  1  0  0  0
 86163  1  0  0  0
M  ISO  4   1 100  68 101  83 101  86 100
M  END
> <chiral flag>
0

> <version>
0

> <s_m_source_file>
/data/baiqing/PycharmProjects/Reinvent-master-3.2/result/LINK_invent/BTK/process_docking_weight1_custom_product_contain_oxygen_bond_distance_aromatic_linkinvent_7_9_3/rearranged_h_0060.sdf

> <i_m_source_file_index>
81

> <r_mmod_Potential_Energy-OPLS-2005>
-98.0675964355469

> <r_mmod_Stretch_Energy-OPLS-2005>
34.2620849609375

> <r_mmod_Bend_Energy-OPLS-2005>
101.989852905273

> <r_mmod_Torsional_Energy-OPLS-2005>
219.722885131836

> <r_mmod_Improper_Torsional_Energy-OPLS-2005>
5.9070839881897

> <r_mmod_Van_der_Waal_Energy-OPLS-2005>
160.020904541016

> <r_mmod_Electrostatic_Energy-OPLS-2005>
-378.627349853516

> <r_mmod_Solvation_Energy-OPLS-2005>
-250.291473388672

> <b_mmod_Minimization_Converged-OPLS-2005>
0

> <r_mmod_RMS_Derivative-OPLS-2005>
1.49009132385254

$$$$
81
                    3D
 Structure written by MMmdl.
164173  0  0  1  0            999 V2000
  -30.6313  -14.6329   20.5105 C   0  0  0  0  0  0
  -30.4367  -12.3886   19.4591 C   0  0  0  0  0  0
  -29.5094  -12.5136   18.2293 C   0  0  0  0  0  0
  -28.0320  -12.3521   18.6385 C   0  0  0  0  0  0
  -27.6559  -13.2198   19.8693 C   0  0  2  0  0  0
  -28.6989  -13.0686   21.0006 C   0  0  0  0  0  0
  -25.2542  -13.8164   20.5634 C   0  0  0  0  0  0
  -24.1824  -13.0432   20.9180 C   0  0  0  0  0  0
  -24.6406  -11.6908   20.8751 C   0  0  0  0  0  0
  -23.9074  -10.4292   21.0414 C   0  0  0  0  0  0
  -24.3622   -9.4206   21.9193 C   0  0  0  0  0  0
  -23.6293   -8.2243   22.0758 C   0  0  0  0  0  0
  -22.4276   -8.0282   21.3546 C   0  0  0  0  0  0
  -21.9916   -9.0256   20.4647 C   0  0  0  0  0  0
  -22.7248  -10.2134   20.3056 C   0  0  0  0  0  0
  -21.6851   -6.0736   22.5280 C   0  0  0  0  0  0
  -21.4009   -6.5641   23.8212 C   0  0  0  0  0  0
  -21.3657   -5.6792   24.9174 C   0  0  0  0  0  0
  -21.6043   -4.3056   24.7225 C   0  0  0  0  0  0
  -21.8820   -3.8149   23.4345 C   0  0  0  0  0  0
  -21.9194   -4.6964   22.3402 C   0  0  0  0  0  0
  -22.7846  -13.5227   21.1846 C   0  0  0  0  0  0
  -22.1661   -4.2152   21.0979 F   0  0  0  0  0  0
  -21.5630   -3.4538   25.7736 F   0  0  0  0  0  0
  -30.0184  -13.4079   20.4434 N   0  0  0  0  0  0
  -26.3002  -12.9366   20.3345 N   0  0  0  0  0  0
  -25.9343  -11.6517   20.5790 N   0  0  0  0  0  0
  -22.0487  -12.8218   22.0404 N   0  0  0  0  0  0
  -25.4197  -15.1868   20.3928 N   0  0  0  0  0  0
  -31.7755  -14.7990   20.0773 O   0  0  0  0  0  0
  -21.6639   -6.8879   21.4242 O   0  0  0  0  0  0
  -22.3529  -14.5537   20.6706 O   0  0  0  0  0  0
  -24.6251  -31.8599   23.2020 C   0  0  0  0  0  0
  -25.9103  -32.4783   23.8350 C   0  0  1  0  0  0
  -27.2281  -27.3279   20.1238 C   0  0  0  0  0  0
  -25.5922  -33.8582   24.2281 N   0  0  0  0  0  0
  -23.4189  -30.4826   21.5440 C   0  0  2  0  0  0
  -24.8669  -28.9354   20.1132 C   0  0  0  0  0  0
  -22.7470  -29.4627   22.4938 C   0  0  0  0  0  0
  -18.0284  -28.1393   22.8496 C   0  0  0  0  0  0
  -24.1479  -36.7277   23.2645 C   0  0  0  0  0  0
  -25.9582  -30.7943   21.3709 C   0  0  0  0  0  0
  -26.0343  -29.4206   20.7172 C   0  0  0  0  0  0
  -27.2198  -28.6291   20.7107 C   0  0  0  0  0  0
  -26.0428  -26.8943   19.4909 C   0  0  0  0  0  0
  -24.8726  -27.6774   19.4900 C   0  0  0  0  0  0
  -23.6336  -29.8140   20.1605 C   0  0  0  0  0  0
  -25.4107  -36.3083   24.0337 C   0  0  1  0  0  0
  -20.5885  -28.3689   23.1289 C   0  0  2  0  0  0
  -20.6774  -26.9415   22.5412 C   0  0  0  0  0  0
  -19.5749  -26.6390   21.5217 C   0  0  0  0  0  0
  -18.1925  -26.7939   22.1622 C   0  0  0  0  0  0
  -19.1538  -28.8856   23.2891 C   0  0  0  0  0  0
  -18.9466  -30.1460   23.8907 C   0  0  0  0  0  0
  -17.6467  -30.6597   24.0570 C   0  0  0  0  0  0
  -25.9046  -34.9456   23.5107 C   0  0  0  0  0  0
  -16.5356  -29.9098   23.6336 C   0  0  0  0  0  0
  -16.7271  -28.6512   23.0360 C   0  0  0  0  0  0
  -26.4492  -31.6594   25.0716 C   0  0  0  0  0  0
  -25.3730  -31.3716   26.1442 C   0  0  0  0  0  0
  -27.0346  -30.3031   24.6149 C   0  0  0  0  0  0
  -27.6045  -32.4333   25.7497 C   0  0  0  0  0  0
  -27.5572  -37.1797   24.8472 C   0  0  0  0  0  0
  -21.4184  -29.3044   22.3682 N   0  0  0  0  0  0
  -26.4281  -37.3783   23.9422 N   0  0  0  0  0  0
  -24.6863  -31.0622   22.0963 N   0  0  0  0  0  0
  -23.4196  -28.8169   23.3016 O   0  0  0  0  0  0
  -28.3531  -26.4951   20.1335 O   0  0  0  0  0  0
  -26.5612  -34.8929   22.4672 O   0  0  0  0  0  0
  -23.5416  -32.1387   23.7358 O   0  0  0  0  0  0
  -30.5119  -19.1087   19.3846 C   0  0  0  0  0  0
  -30.5038  -17.7001   19.5948 C   0  0  0  0  0  0
  -29.3957  -19.4543   21.4811 C   0  0  0  0  0  0
  -29.3871  -18.0392   21.7057 C   0  0  0  0  0  0
  -29.9874  -20.0390   20.3308 C   0  0  0  0  0  0
  -29.9545  -17.1205   20.7667 C   0  0  0  0  0  0
  -31.3833  -21.9885   19.8681 C   0  0  0  0  0  0
  -31.5853  -23.4721   19.5265 C   0  0  0  0  0  0
  -30.6302  -24.4210   20.2516 C   0  0  0  0  0  0
  -29.0370  -22.4826   20.5041 C   0  0  0  0  0  0
  -29.1881  -23.9957   19.9983 C   0  0  1  0  0  0
  -27.3122  -17.1430   22.8711 C   0  0  0  0  0  0
  -28.7866  -17.5351   23.0110 C   0  0  0  0  0  0
  -28.1778  -25.0881   20.5626 C   0  0  0  0  0  0
  -30.1380  -21.5009   20.1533 N   0  0  0  0  0  0
  -29.8712  -15.6721   20.9773 N   0  0  0  0  0  0
  -32.3996  -21.2842   19.8479 O   0  0  0  0  0  0
  -31.4801  -12.5062   19.1600 H   0  0  0  0  0  0
  -30.3643  -11.3912   19.8953 H   0  0  0  0  0  0
  -29.7738  -11.7655   17.4806 H   0  0  0  0  0  0
  -29.6539  -13.4858   17.7550 H   0  0  0  0  0  0
  -27.8675  -11.2982   18.8664 H   0  0  0  0  0  0
  -27.3781  -12.5856   17.7976 H   0  0  0  0  0  0
  -27.6773  -14.2576   19.5359 H   0  0  0  0  0  0
  -28.7059  -12.0458   21.3799 H   0  0  0  0  0  0
  -28.4417  -13.6967   21.8544 H   0  0  0  0  0  0
  -25.2765   -9.5681   22.4771 H   0  0  0  0  0  0
  -23.9999   -7.4633   22.7477 H   0  0  0  0  0  0
  -21.0850   -8.8778   19.8950 H   0  0  0  0  0  0
  -22.3717  -10.9672   19.6162 H   0  0  0  0  0  0
  -21.1995   -7.6149   23.9716 H   0  0  0  0  0  0
  -21.1474   -6.0522   25.9076 H   0  0  0  0  0  0
  -22.0601   -2.7611   23.2845 H   0  0  0  0  0  0
  -22.4091  -11.9870   22.4779 H   0  0  0  0  0  0
  -21.1112  -13.1258   22.2617 H   0  0  0  0  0  0
  -24.6487  -15.8376   20.4936 H   0  0  0  0  0  0
  -26.2660  -15.6259   20.0539 H   0  0  0  0  0  0
  -26.7174  -32.5458   23.1103 H   0  0  0  0  0  0
  -25.0091  -33.9731   25.0441 H   0  0  0  0  0  0
  -22.7132  -31.3029   21.3992 H   0  0  0  0  0  0
  -23.3759  -35.9592   23.3304 H   0  0  0  0  0  0
  -24.3571  -36.8894   22.2059 H   0  0  0  0  0  0
  -23.7205  -37.6469   23.6661 H   0  0  0  0  0  0
  -26.0857  -31.5565   20.6008 H   0  0  0  0  0  0
  -26.8398  -30.8465   21.9976 H   0  0  0  0  0  0
  -28.1185  -28.9988   21.1846 H   0  0  0  0  0  0
  -26.0115  -25.9389   18.9876 H   0  0  0  0  0  0
  -23.9814  -27.3028   19.0051 H   0  0  0  0  0  0
  -23.7516  -30.5888   19.4021 H   0  0  0  0  0  0
  -22.7545  -29.2410   19.8598 H   0  0  0  0  0  0
  -25.1288  -36.1931   25.0829 H   0  0  0  0  0  0
  -20.9982  -28.3261   24.1408 H   0  0  0  0  0  0
  -20.5680  -26.2300   23.3610 H   0  0  0  0  0  0
  -21.6640  -26.7451   22.1194 H   0  0  0  0  0  0
  -19.6908  -25.6301   21.1246 H   0  0  0  0  0  0
  -19.6691  -27.3205   20.6752 H   0  0  0  0  0  0
  -17.4200  -26.6708   21.4019 H   0  0  0  0  0  0
  -18.0313  -26.0077   22.9008 H   0  0  0  0  0  0
  -19.7945  -30.7274   24.2277 H   0  0  0  0  0  0
  -17.5026  -31.6283   24.5162 H   0  0  0  0  0  0
  -15.5359  -30.3007   23.7663 H   0  0  0  0  0  0
  -15.8669  -28.0836   22.7077 H   0  0  0  0  0  0
  -24.5921  -30.7050   25.7765 H   0  0  0  0  0  0
  -24.8905  -32.2875   26.4866 H   0  0  0  0  0  0
  -25.8063  -30.8901   27.0217 H   0  0  0  0  0  0
  -26.2917  -29.6773   24.1190 H   0  0  0  0  0  0
  -27.4089  -29.7290   25.4632 H   0  0  0  0  0  0
  -27.8760  -30.4342   23.9340 H   0  0  0  0  0  0
  -27.2652  -33.3648   26.2043 H   0  0  0  0  0  0
  -28.3881  -32.6868   25.0344 H   0  0  0  0  0  0
  -28.0681  -31.8473   26.5442 H   0  0  0  0  0  0
  -28.2591  -38.0095   24.7531 H   0  0  0  0  0  0
  -28.1066  -36.2628   24.6283 H   0  0  0  0  0  0
  -27.2294  -37.1420   25.8876 H   0  0  0  0  0  0
  -20.9355  -29.8767   21.6897 H   0  0  0  0  0  0
  -26.0160  -38.2853   24.1439 H   0  0  0  0  0  0
  -30.9652  -19.4778   18.4753 H   0  0  0  0  0  0
  -30.9266  -17.0649   18.8290 H   0  0  0  0  0  0
  -28.9809  -20.1051   22.2385 H   0  0  0  0  0  0
  -31.4689  -23.5818   18.4479 H   0  0  0  0  0  0
  -32.6145  -23.7539   19.7517 H   0  0  0  0  0  0
  -30.7938  -25.4385   19.8943 H   0  0  0  0  0  0
  -30.8434  -24.4291   21.3215 H   0  0  0  0  0  0
  -28.0908  -22.0781   20.1424 H   0  0  0  0  0  0
  -28.9582  -22.4926   21.5916 H   0  0  0  0  0  0
  -29.0375  -23.9827   18.9173 H   0  0  0  0  0  0
  -26.9047  -16.8194   23.8291 H   0  0  0  0  0  0
  -27.1868  -16.3229   22.1663 H   0  0  0  0  0  0
  -26.7108  -17.9826   22.5215 H   0  0  0  0  0  0
  -28.8828  -18.3106   23.7719 H   0  0  0  0  0  0
  -29.3670  -16.6915   23.3861 H   0  0  0  0  0  0
  -28.2566  -25.0913   21.6502 H   0  0  0  0  0  0
  -27.1697  -24.7289   20.3626 H   0  0  0  0  0  0
  -29.0446  -15.3681   21.4676 H   0  0  0  0  0  0
  1 25  1  0  0  0
  1 30  2  0  0  0
  1 86  1  0  0  0
  2  3  1  0  0  0
  2 25  1  0  0  0
  2 88  1  0  0  0
  2 89  1  0  0  0
  3  4  1  0  0  0
  3 90  1  0  0  0
  3 91  1  0  0  0
  4  5  1  0  0  0
  4 92  1  0  0  0
  4 93  1  0  0  0
  5  6  1  0  0  0
  5 26  1  0  0  0
  5 94  1  0  0  0
  6 25  1  0  0  0
  6 95  1  0  0  0
  6 96  1  0  0  0
  7  8  2  0  0  0
  7 26  1  0  0  0
  7 29  1  0  0  0
  8  9  1  0  0  0
  8 22  1  0  0  0
  9 10  1  0  0  0
  9 27  2  0  0  0
 10 11  2  0  0  0
 10 15  1  0  0  0
 11 12  1  0  0  0
 11 97  1  0  0  0
 12 13  2  0  0  0
 12 98  1  0  0  0
 13 14  1  0  0  0
 13 31  1  0  0  0
 14 15  2  0  0  0
 14 99  1  0  0  0
 15100  1  0  0  0
 16 17  2  0  0  0
 16 21  1  0  0  0
 16 31  1  0  0  0
 17 18  1  0  0  0
 17101  1  0  0  0
 18 19  2  0  0  0
 18102  1  0  0  0
 19 20  1  0  0  0
 19 24  1  0  0  0
 20 21  2  0  0  0
 20103  1  0  0  0
 21 23  1  0  0  0
 22 28  1  0  0  0
 22 32  2  0  0  0
 26 27  1  0  0  0
 28104  1  0  0  0
 28105  1  0  0  0
 29106  1  0  0  0
 29107  1  0  0  0
 33 34  1  0  0  0
 33 66  1  0  0  0
 33 70  2  0  0  0
 34 36  1  0  0  0
 34 59  1  0  0  0
 34108  1  0  0  0
 35 44  2  0  0  0
 35 45  1  0  0  0
 35 68  1  0  0  0
 36 56  1  0  0  0
 36109  1  0  0  0
 37 39  1  0  0  0
 37 47  1  0  0  0
 37 66  1  0  0  0
 37110  1  0  0  0
 38 43  2  0  0  0
 38 46  1  0  0  0
 38 47  1  0  0  0
 39 64  1  0  0  0
 39 67  2  0  0  0
 40 52  1  0  0  0
 40 53  2  0  0  0
 40 58  1  0  0  0
 41111  1  0  0  0
 41112  1  0  0  0
 41113  1  0  0  0
 41 48  1  0  0  0
 42 43  1  0  0  0
 42 66  1  0  0  0
 42114  1  0  0  0
 42115  1  0  0  0
 43 44  1  0  0  0
 44116  1  0  0  0
 45 46  2  0  0  0
 45117  1  0  0  0
 46118  1  0  0  0
 47119  1  0  0  0
 47120  1  0  0  0
 48 56  1  0  0  0
 48 65  1  0  0  0
 48121  1  0  0  0
 49 50  1  0  0  0
 49 53  1  0  0  0
 49 64  1  0  0  0
 49122  1  0  0  0
 50 51  1  0  0  0
 50123  1  0  0  0
 50124  1  0  0  0
 51 52  1  0  0  0
 51125  1  0  0  0
 51126  1  0  0  0
 52127  1  0  0  0
 52128  1  0  0  0
 53 54  1  0  0  0
 54 55  2  0  0  0
 54129  1  0  0  0
 55 57  1  0  0  0
 55130  1  0  0  0
 56 69  2  0  0  0
 57 58  2  0  0  0
 57131  1  0  0  0
 58132  1  0  0  0
 59 60  1  0  0  0
 59 61  1  0  0  0
 59 62  1  0  0  0
 60133  1  0  0  0
 60134  1  0  0  0
 60135  1  0  0  0
 61136  1  0  0  0
 61137  1  0  0  0
 61138  1  0  0  0
 62139  1  0  0  0
 62140  1  0  0  0
 62141  1  0  0  0
 63 65  1  0  0  0
 63142  1  0  0  0
 63143  1  0  0  0
 63144  1  0  0  0
 64145  1  0  0  0
 65146  1  0  0  0
 68 84  1  0  0  0
 71 72  2  0  0  0
 71 75  1  0  0  0
 71147  1  0  0  0
 72 76  1  0  0  0
 72148  1  0  0  0
 73 74  1  0  0  0
 73 75  2  0  0  0
 73149  1  0  0  0
 74 76  2  0  0  0
 74 83  1  0  0  0
 75 85  1  0  0  0
 76 86  1  0  0  0
 77 78  1  0  0  0
 77 85  1  0  0  0
 77 87  2  0  0  0
 78 79  1  0  0  0
 78150  1  0  0  0
 78151  1  0  0  0
 79 81  1  0  0  0
 79152  1  0  0  0
 79153  1  0  0  0
 80 81  1  0  0  0
 80 85  1  0  0  0
 80154  1  0  0  0
 80155  1  0  0  0
 81 84  1  0  0  0
 81156  1  0  0  0
 82 83  1  0  0  0
 82157  1  0  0  0
 82158  1  0  0  0
 82159  1  0  0  0
 83160  1  0  0  0
 83161  1  0  0  0
 84162  1  0  0  0
 84163  1  0  0  0
 86164  1  0  0  0
M  ISO  4   1 100  68 101  84 101  86 100
M  END
> <chiral flag>
0

> <version>
0

> <s_m_source_file>
/data/baiqing/PycharmProjects/Reinvent-master-3.2/result/LINK_invent/BTK/process_docking_weight1_custom_product_contain_oxygen_bond_distance_aromatic_linkinvent_7_9_3/rearranged_h_0060.sdf

> <i_m_source_file_index>
82

> <r_mmod_Potential_Energy-OPLS-2005>
139.410903930664

> <r_mmod_Stretch_Energy-OPLS-2005>
87.994514465332

> <r_mmod_Bend_Energy-OPLS-2005>
134.029937744141

> <r_mmod_Torsional_Energy-OPLS-2005>
294.330230712891

> <r_mmod_Improper_Torsional_Energy-OPLS-2005>
3.7749137878418

> <r_mmod_Van_der_Waal_Energy-OPLS-2005>
151.040603637695

> <r_mmod_Electrostatic_Energy-OPLS-2005>
-355.055114746094

> <r_mmod_Solvation_Energy-OPLS-2005>
-220.209732055664

> <b_mmod_Minimization_Converged-OPLS-2005>
0

> <r_mmod_RMS_Derivative-OPLS-2005>
0.661467969417572

$$$$
82
                    3D
 Structure written by MMmdl.
161170  0  0  1  0            999 V2000
  -30.5878  -14.6739   20.5487 C   0  0  0  0  0  0
  -30.4589  -12.4279   19.4501 C   0  0  0  0  0  0
  -29.5162  -12.5210   18.2267 C   0  0  0  0  0  0
  -28.0403  -12.3478   18.6400 C   0  0  0  0  0  0
  -27.6620  -13.2110   19.8717 C   0  0  2  0  0  0
  -28.7051  -13.0385   20.9972 C   0  0  0  0  0  0
  -25.2577  -13.8144   20.5650 C   0  0  0  0  0  0
  -24.1838  -13.0425   20.9160 C   0  0  0  0  0  0
  -24.6398  -11.6893   20.8704 C   0  0  0  0  0  0
  -23.9054  -10.4281   21.0368 C   0  0  0  0  0  0
  -24.3596   -9.4206   21.9163 C   0  0  0  0  0  0
  -23.6280   -8.2241   22.0757 C   0  0  0  0  0  0
  -22.4272   -8.0269   21.3534 C   0  0  0  0  0  0
  -21.9892   -9.0254   20.4646 C   0  0  0  0  0  0
  -22.7217  -10.2136   20.3035 C   0  0  0  0  0  0
  -21.6858   -6.0704   22.5256 C   0  0  0  0  0  0
  -21.4021   -6.5605   23.8187 C   0  0  0  0  0  0
  -21.3669   -5.6768   24.9156 C   0  0  0  0  0  0
  -21.6044   -4.3033   24.7209 C   0  0  0  0  0  0
  -21.8824   -3.8125   23.4333 C   0  0  0  0  0  0
  -21.9196   -4.6933   22.3376 C   0  0  0  0  0  0
  -22.7859  -13.5237   21.1815 C   0  0  0  0  0  0
  -22.1660   -4.2118   21.0961 F   0  0  0  0  0  0
  -21.5634   -3.4521   25.7726 F   0  0  0  0  0  0
  -30.0228  -13.4223   20.4540 N   0  0  0  0  0  0
  -26.3031  -12.9327   20.3338 N   0  0  0  0  0  0
  -25.9333  -11.6479   20.5745 N   0  0  0  0  0  0
  -22.0496  -12.8262   22.0398 N   0  0  0  0  0  0
  -25.4279  -15.1858   20.4016 N   0  0  0  0  0  0
  -31.6803  -14.9286   20.0317 O   0  0  0  0  0  0
  -21.6641   -6.8857   21.4225 O   0  0  0  0  0  0
  -22.3543  -14.5532   20.6660 O   0  0  0  0  0  0
  -24.6265  -31.8590   23.2015 C   0  0  0  0  0  0
  -25.9115  -32.4776   23.8339 C   0  0  1  0  0  0
  -27.2208  -27.3075   20.1246 C   0  0  0  0  0  0
  -25.5923  -33.8576   24.2270 N   0  0  0  0  0  0
  -23.4197  -30.4835   21.5440 C   0  0  2  0  0  0
  -24.8666  -28.9336   20.1128 C   0  0  0  0  0  0
  -22.7467  -29.4635   22.4934 C   0  0  0  0  0  0
  -18.0282  -28.1379   22.8491 C   0  0  0  0  0  0
  -24.1491  -36.7299   23.2645 C   0  0  0  0  0  0
  -25.9615  -30.7867   21.3727 C   0  0  0  0  0  0
  -26.0364  -29.4114   20.7188 C   0  0  0  0  0  0
  -27.2188  -28.6110   20.7133 C   0  0  0  0  0  0
  -26.0331  -26.8868   19.4896 C   0  0  0  0  0  0
  -24.8674  -27.6763   19.4893 C   0  0  0  0  0  0
  -23.6350  -29.8163   20.1601 C   0  0  0  0  0  0
  -25.4113  -36.3086   24.0330 C   0  0  1  0  0  0
  -20.5886  -28.3686   23.1284 C   0  0  2  0  0  0
  -20.6774  -26.9409   22.5418 C   0  0  0  0  0  0
  -19.5751  -26.6380   21.5219 C   0  0  0  0  0  0
  -18.1928  -26.7926   22.1626 C   0  0  0  0  0  0
  -19.1539  -28.8844   23.2887 C   0  0  0  0  0  0
  -18.9465  -30.1444   23.8904 C   0  0  0  0  0  0
  -17.6469  -30.6585   24.0564 C   0  0  0  0  0  0
  -25.9048  -34.9451   23.5099 C   0  0  0  0  0  0
  -16.5354  -29.9089   23.6326 C   0  0  0  0  0  0
  -16.7272  -28.6503   23.0352 C   0  0  0  0  0  0
  -26.4492  -31.6583   25.0706 C   0  0  0  0  0  0
  -25.3723  -31.3742   26.1439 C   0  0  0  0  0  0
  -27.0328  -30.2995   24.6169 C   0  0  0  0  0  0
  -27.6047  -32.4319   25.7479 C   0  0  0  0  0  0
  -27.5577  -37.1805   24.8463 C   0  0  0  0  0  0
  -21.4178  -29.3044   22.3675 N   0  0  0  0  0  0
  -26.4293  -37.3776   23.9404 N   0  0  0  0  0  0
  -24.6881  -31.0601   22.0961 N   0  0  0  0  0  0
  -23.4190  -28.8171   23.3012 O   0  0  0  0  0  0
  -28.3313  -26.4469   20.1298 O   0  0  0  0  0  0
  -26.5626  -34.8921   22.4670 O   0  0  0  0  0  0
  -23.5424  -32.1392   23.7344 O   0  0  0  0  0  0
  -27.4131  -18.3162   21.8629 C   0  0  0  0  0  0
  -28.1037  -17.0933   21.7960 C   0  0  0  0  0  0
  -27.9399  -19.4705   21.2651 C   0  0  0  0  0  0
  -29.8893  -18.1570   20.5318 C   0  0  0  0  0  0
  -29.3461  -16.9535   21.1350 C   0  0  0  0  0  0
  -29.1797  -19.4283   20.6032 C   0  0  0  0  0  0
  -29.0923  -22.5928   22.1001 C   0  0  0  0  0  0
  -29.8414  -21.7779   22.8649 C   0  0  0  0  0  0
  -28.2281  -23.6808   22.7327 C   0  0  0  0  0  0
  -28.4179  -25.0685   22.1065 C   0  0  0  0  0  0
  -29.0302  -23.8777   19.9515 C   0  0  0  0  0  0
  -28.1454  -25.0432   20.6013 C   0  0  2  0  0  0
  -29.0075  -21.1900   18.4672 N   0  0  0  0  0  0
  -29.0458  -22.5169   20.6797 N   0  0  0  0  0  0
  -29.8632  -15.5802   21.2782 N   0  0  0  0  0  0
  -31.2067  -21.1461   19.9265 O   0  0  0  0  0  0
  -29.7405  -21.0519   19.8410 S   0  0  1  0  0  0
  -31.4923  -12.5895   19.1379 H   0  0  0  0  0  0
  -30.4336  -11.4250   19.8798 H   0  0  0  0  0  0
  -29.7870  -11.7590   17.4938 H   0  0  0  0  0  0
  -29.6491  -13.4839   17.7291 H   0  0  0  0  0  0
  -27.8840  -11.2929   18.8690 H   0  0  0  0  0  0
  -27.3830  -12.5737   17.8000 H   0  0  0  0  0  0
  -27.6916  -14.2522   19.5486 H   0  0  0  0  0  0
  -28.7297  -12.0009   21.3325 H   0  0  0  0  0  0
  -28.4181  -13.6160   21.8769 H   0  0  0  0  0  0
  -25.2739   -9.5690   22.4734 H   0  0  0  0  0  0
  -23.9977   -7.4633   22.7493 H   0  0  0  0  0  0
  -21.0817   -8.8770   19.8970 H   0  0  0  0  0  0
  -22.3660  -10.9672   19.6140 H   0  0  0  0  0  0
  -21.2020   -7.6113   23.9675 H   0  0  0  0  0  0
  -21.1492   -6.0501   25.9054 H   0  0  0  0  0  0
  -22.0605   -2.7589   23.2833 H   0  0  0  0  0  0
  -22.4120  -11.9959   22.4832 H   0  0  0  0  0  0
  -21.1114  -13.1316   22.2554 H   0  0  0  0  0  0
  -24.6559  -15.8374   20.4878 H   0  0  0  0  0  0
  -26.2728  -15.6196   20.0533 H   0  0  0  0  0  0
  -26.7179  -32.5440   23.1081 H   0  0  0  0  0  0
  -25.0047  -33.9716   25.0402 H   0  0  0  0  0  0
  -22.7127  -31.3039   21.4007 H   0  0  0  0  0  0
  -23.3743  -35.9643   23.3321 H   0  0  0  0  0  0
  -24.3580  -36.8905   22.2055 H   0  0  0  0  0  0
  -23.7261  -37.6512   23.6654 H   0  0  0  0  0  0
  -26.0919  -31.5487   20.6030 H   0  0  0  0  0  0
  -26.8420  -30.8384   22.0016 H   0  0  0  0  0  0
  -28.1163  -28.9769   21.1923 H   0  0  0  0  0  0
  -25.9965  -25.9314   18.9871 H   0  0  0  0  0  0
  -23.9744  -27.3076   19.0038 H   0  0  0  0  0  0
  -23.7531  -30.5914   19.4016 H   0  0  0  0  0  0
  -22.7537  -29.2468   19.8599 H   0  0  0  0  0  0
  -25.1298  -36.1939   25.0823 H   0  0  0  0  0  0
  -20.9985  -28.3270   24.1404 H   0  0  0  0  0  0
  -20.5672  -26.2300   23.3621 H   0  0  0  0  0  0
  -21.6643  -26.7441   22.1216 H   0  0  0  0  0  0
  -19.6912  -25.6291   21.1249 H   0  0  0  0  0  0
  -19.6687  -27.3189   20.6747 H   0  0  0  0  0  0
  -17.4203  -26.6680   21.4022 H   0  0  0  0  0  0
  -18.0323  -26.0059   22.9009 H   0  0  0  0  0  0
  -19.7936  -30.7254   24.2289 H   0  0  0  0  0  0
  -17.5020  -31.6268   24.5160 H   0  0  0  0  0  0
  -15.5354  -30.2996   23.7637 H   0  0  0  0  0  0
  -15.8671  -28.0819   22.7071 H   0  0  0  0  0  0
  -24.5869  -30.7125   25.7769 H   0  0  0  0  0  0
  -24.8951  -32.2924   26.4871 H   0  0  0  0  0  0
  -25.8041  -30.8899   27.0209 H   0  0  0  0  0  0
  -26.2897  -29.6749   24.1196 H   0  0  0  0  0  0
  -27.4017  -29.7257   25.4684 H   0  0  0  0  0  0
  -27.8778  -30.4267   23.9399 H   0  0  0  0  0  0
  -27.2642  -33.3604   26.2078 H   0  0  0  0  0  0
  -28.3847  -32.6910   25.0306 H   0  0  0  0  0  0
  -28.0731  -31.8435   26.5378 H   0  0  0  0  0  0
  -28.2614  -38.0083   24.7487 H   0  0  0  0  0  0
  -28.1056  -36.2612   24.6319 H   0  0  0  0  0  0
  -27.2298  -37.1509   25.8870 H   0  0  0  0  0  0
  -20.9345  -29.8764   21.6890 H   0  0  0  0  0  0
  -26.0176  -38.2860   24.1376 H   0  0  0  0  0  0
  -26.4655  -18.3719   22.3797 H   0  0  0  0  0  0
  -27.6515  -16.2398   22.2825 H   0  0  0  0  0  0
  -27.3884  -20.3987   21.3171 H   0  0  0  0  0  0
  -30.8439  -18.1199   20.0286 H   0  0  0  0  0  0
  -29.8463  -21.8856   23.9409 H   0  0  0  0  0  0
  -30.4855  -21.0118   22.4627 H   0  0  0  0  0  0
  -28.4336  -23.7457   23.8030 H   0  0  0  0  0  0
  -27.1837  -23.3774   22.6474 H   0  0  0  0  0  0
  -29.4328  -25.4206   22.2944 H   0  0  0  0  0  0
  -27.7463  -25.7786   22.5915 H   0  0  0  0  0  0
  -30.0631  -24.2222   19.8941 H   0  0  0  0  0  0
  -28.7139  -23.7369   18.9190 H   0  0  0  0  0  0
  -27.1076  -24.7377   20.4732 H   0  0  0  0  0  0
  -29.2279  -20.4196   17.8264 H   0  0  0  0  0  0
  -29.2378  -15.0372   21.8527 H   0  0  0  0  0  0
  1 25  1  0  0  0
  1 30  2  0  0  0
  1 85  1  0  0  0
  2  3  1  0  0  0
  2 25  1  0  0  0
  2 88  1  0  0  0
  2 89  1  0  0  0
  3  4  1  0  0  0
  3 90  1  0  0  0
  3 91  1  0  0  0
  4  5  1  0  0  0
  4 92  1  0  0  0
  4 93  1  0  0  0
  5  6  1  0  0  0
  5 26  1  0  0  0
  5 94  1  0  0  0
  6 25  1  0  0  0
  6 95  1  0  0  0
  6 96  1  0  0  0
  7  8  2  0  0  0
  7 26  1  0  0  0
  7 29  1  0  0  0
  8  9  1  0  0  0
  8 22  1  0  0  0
  9 10  1  0  0  0
  9 27  2  0  0  0
 10 11  2  0  0  0
 10 15  1  0  0  0
 11 12  1  0  0  0
 11 97  1  0  0  0
 12 13  2  0  0  0
 12 98  1  0  0  0
 13 14  1  0  0  0
 13 31  1  0  0  0
 14 15  2  0  0  0
 14 99  1  0  0  0
 15100  1  0  0  0
 16 17  2  0  0  0
 16 21  1  0  0  0
 16 31  1  0  0  0
 17 18  1  0  0  0
 17101  1  0  0  0
 18 19  2  0  0  0
 18102  1  0  0  0
 19 20  1  0  0  0
 19 24  1  0  0  0
 20 21  2  0  0  0
 20103  1  0  0  0
 21 23  1  0  0  0
 22 28  1  0  0  0
 22 32  2  0  0  0
 26 27  1  0  0  0
 28104  1  0  0  0
 28105  1  0  0  0
 29106  1  0  0  0
 29107  1  0  0  0
 33 34  1  0  0  0
 33 66  1  0  0  0
 33 70  2  0  0  0
 34 36  1  0  0  0
 34 59  1  0  0  0
 34108  1  0  0  0
 35 44  2  0  0  0
 35 45  1  0  0  0
 35 68  1  0  0  0
 36 56  1  0  0  0
 36109  1  0  0  0
 37 39  1  0  0  0
 37 47  1  0  0  0
 37 66  1  0  0  0
 37110  1  0  0  0
 38 43  2  0  0  0
 38 46  1  0  0  0
 38 47  1  0  0  0
 39 64  1  0  0  0
 39 67  2  0  0  0
 40 52  1  0  0  0
 40 53  2  0  0  0
 40 58  1  0  0  0
 41111  1  0  0  0
 41112  1  0  0  0
 41113  1  0  0  0
 41 48  1  0  0  0
 42 43  1  0  0  0
 42 66  1  0  0  0
 42114  1  0  0  0
 42115  1  0  0  0
 43 44  1  0  0  0
 44116  1  0  0  0
 45 46  2  0  0  0
 45117  1  0  0  0
 46118  1  0  0  0
 47119  1  0  0  0
 47120  1  0  0  0
 48 56  1  0  0  0
 48 65  1  0  0  0
 48121  1  0  0  0
 49 50  1  0  0  0
 49 53  1  0  0  0
 49 64  1  0  0  0
 49122  1  0  0  0
 50 51  1  0  0  0
 50123  1  0  0  0
 50124  1  0  0  0
 51 52  1  0  0  0
 51125  1  0  0  0
 51126  1  0  0  0
 52127  1  0  0  0
 52128  1  0  0  0
 53 54  1  0  0  0
 54 55  2  0  0  0
 54129  1  0  0  0
 55 57  1  0  0  0
 55130  1  0  0  0
 56 69  2  0  0  0
 57 58  2  0  0  0
 57131  1  0  0  0
 58132  1  0  0  0
 59 60  1  0  0  0
 59 61  1  0  0  0
 59 62  1  0  0  0
 60133  1  0  0  0
 60134  1  0  0  0
 60135  1  0  0  0
 61136  1  0  0  0
 61137  1  0  0  0
 61138  1  0  0  0
 62139  1  0  0  0
 62140  1  0  0  0
 62141  1  0  0  0
 63 65  1  0  0  0
 63142  1  0  0  0
 63143  1  0  0  0
 63144  1  0  0  0
 64145  1  0  0  0
 65146  1  0  0  0
 68 82  1  0  0  0
 71 72  2  0  0  0
 71 73  1  0  0  0
 71147  1  0  0  0
 72 75  1  0  0  0
 72148  1  0  0  0
 73 76  2  0  0  0
 73149  1  0  0  0
 74 75  2  0  0  0
 74 76  1  0  0  0
 74150  1  0  0  0
 75 85  1  0  0  0
 76 87  1  0  0  0
 77 78  2  0  0  0
 77 79  1  0  0  0
 77 84  1  0  0  0
 78151  1  0  0  0
 78152  1  0  0  0
 79 80  1  0  0  0
 79153  1  0  0  0
 79154  1  0  0  0
 80 82  1  0  0  0
 80155  1  0  0  0
 80156  1  0  0  0
 81 82  1  0  0  0
 81 84  1  0  0  0
 81157  1  0  0  0
 81158  1  0  0  0
 82159  1  0  0  0
 83 87  2  0  0  0
 83160  1  0  0  0
 84 87  1  0  0  0
 85161  1  0  0  0
 86 87  2  0  0  0
M  ISO  4   1 100  68 101  82 101  85 100
M  END
> <chiral flag>
0

> <version>
0

> <s_m_source_file>
/data/baiqing/PycharmProjects/Reinvent-master-3.2/result/LINK_invent/BTK/process_docking_weight1_custom_product_contain_oxygen_bond_distance_aromatic_linkinvent_7_9_3/rearranged_h_0060.sdf

> <i_m_source_file_index>
83

> <r_mmod_Potential_Energy-OPLS-2005>
44.0202827453613

> <r_mmod_Stretch_Energy-OPLS-2005>
108.077362060547

> <r_mmod_Bend_Energy-OPLS-2005>
190.46501159668

> <r_mmod_Torsional_Energy-OPLS-2005>
253.985473632812

> <r_mmod_Improper_Torsional_Energy-OPLS-2005>
6.69380283355713

> <r_mmod_Van_der_Waal_Energy-OPLS-2005>
134.877243041992

> <r_mmod_Electrostatic_Energy-OPLS-2005>
-467.673645019531

> <r_mmod_Solvation_Energy-OPLS-2005>
-240.907867431641

> <b_mmod_Minimization_Converged-OPLS-2005>
0

> <r_mmod_RMS_Derivative-OPLS-2005>
2.31093263626099

$$$$
83
                    3D
 Structure written by MMmdl.
148156  0  0  1  0            999 V2000
  -30.5114  -14.9205   20.4353 C   0  0  0  0  0  0
  -30.4549  -12.5673   19.4922 C   0  0  0  0  0  0
  -29.5268  -12.5346   18.2535 C   0  0  0  0  0  0
  -28.0572  -12.3215   18.6680 C   0  0  0  0  0  0
  -27.6390  -13.2376   19.8470 C   0  0  2  0  0  0
  -28.6835  -13.2190   20.9848 C   0  0  0  0  0  0
  -25.2503  -13.8190   20.5691 C   0  0  0  0  0  0
  -24.1807  -13.0434   20.9226 C   0  0  0  0  0  0
  -24.6405  -11.6914   20.8755 C   0  0  0  0  0  0
  -23.9078  -10.4290   21.0412 C   0  0  0  0  0  0
  -24.3625   -9.4204   21.9188 C   0  0  0  0  0  0
  -23.6297   -8.2241   22.0756 C   0  0  0  0  0  0
  -22.4279   -8.0282   21.3545 C   0  0  0  0  0  0
  -21.9918   -9.0256   20.4646 C   0  0  0  0  0  0
  -22.7250  -10.2133   20.3058 C   0  0  0  0  0  0
  -21.6852   -6.0736   22.5280 C   0  0  0  0  0  0
  -21.4014   -6.5640   23.8213 C   0  0  0  0  0  0
  -21.3661   -5.6793   24.9175 C   0  0  0  0  0  0
  -21.6046   -4.3055   24.7225 C   0  0  0  0  0  0
  -21.8819   -3.8147   23.4346 C   0  0  0  0  0  0
  -21.9192   -4.6964   22.3403 C   0  0  0  0  0  0
  -22.7826  -13.5215   21.1878 C   0  0  0  0  0  0
  -22.1661   -4.2152   21.0980 F   0  0  0  0  0  0
  -21.5630   -3.4538   25.7737 F   0  0  0  0  0  0
  -29.9672  -13.6392   20.4024 N   0  0  0  0  0  0
  -26.2929  -12.9403   20.3256 N   0  0  0  0  0  0
  -25.9336  -11.6544   20.5741 N   0  0  0  0  0  0
  -22.0467  -12.8206   22.0429 N   0  0  0  0  0  0
  -25.4169  -15.1913   20.4062 N   0  0  0  0  0  0
  -31.6995  -15.0581   20.1214 O   0  0  0  0  0  0
  -21.6640   -6.8880   21.4242 O   0  0  0  0  0  0
  -22.3514  -14.5520   20.6719 O   0  0  0  0  0  0
  -24.6438  -31.8449   23.1897 C   0  0  0  0  0  0
  -25.9212  -32.4699   23.8283 C   0  0  1  0  0  0
  -27.2193  -27.1419   20.1447 C   0  0  0  0  0  0
  -25.5962  -33.8505   24.2199 N   0  0  0  0  0  0
  -23.4471  -30.4658   21.5355 C   0  0  2  0  0  0
  -24.8972  -28.8971   20.1103 C   0  0  0  0  0  0
  -22.7569  -29.4554   22.4861 C   0  0  0  0  0  0
  -18.0306  -28.1397   22.8477 C   0  0  0  0  0  0
  -24.1494  -36.7255   23.2641 C   0  0  0  0  0  0
  -26.0043  -30.7201   21.3890 C   0  0  0  0  0  0
  -26.0760  -29.3328   20.7288 C   0  0  0  0  0  0
  -27.2382  -28.4719   20.7298 C   0  0  0  0  0  0
  -26.0119  -26.8124   19.4852 C   0  0  0  0  0  0
  -24.8781  -27.6496   19.4735 C   0  0  0  0  0  0
  -23.6735  -29.7979   20.1543 C   0  0  0  0  0  0
  -25.4126  -36.3034   24.0315 C   0  0  1  0  0  0
  -20.5919  -28.3725   23.1233 C   0  0  2  0  0  0
  -20.6792  -26.9428   22.5402 C   0  0  0  0  0  0
  -19.5764  -26.6384   21.5212 C   0  0  0  0  0  0
  -18.1946  -26.7935   22.1624 C   0  0  0  0  0  0
  -19.1563  -28.8879   23.2847 C   0  0  0  0  0  0
  -18.9478  -30.1475   23.8873 C   0  0  0  0  0  0
  -17.6474  -30.6593   24.0560 C   0  0  0  0  0  0
  -25.9074  -34.9409   23.5064 C   0  0  0  0  0  0
  -16.5366  -29.9085   23.6337 C   0  0  0  0  0  0
  -16.7290  -28.6504   23.0357 C   0  0  0  0  0  0
  -26.4533  -31.6563   25.0721 C   0  0  0  0  0  0
  -25.3718  -31.3750   26.1415 C   0  0  0  0  0  0
  -27.0398  -30.2959   24.6302 C   0  0  0  0  0  0
  -27.6062  -32.4328   25.7508 C   0  0  0  0  0  0
  -27.5577  -37.1786   24.8466 C   0  0  0  0  0  0
  -21.4262  -29.3051   22.3605 N   0  0  0  0  0  0
  -26.4290  -37.3746   23.9406 N   0  0  0  0  0  0
  -24.7182  -31.0309   22.0931 N   0  0  0  0  0  0
  -23.4211  -28.8097   23.3008 O   0  0  0  0  0  0
  -28.2625  -26.1444   20.2158 O   0  0  0  0  0  0
  -26.5654  -34.8904   22.4638 O   0  0  0  0  0  0
  -23.5557  -32.1324   23.7117 O   0  0  0  0  0  0
  -27.9747  -19.5529   20.6422 C   0  0  0  0  0  0
  -30.2517  -19.9892   20.2292 C   0  0  0  0  0  0
  -28.2527  -18.1388   20.7224 C   0  0  0  0  0  0
  -30.5328  -18.5470   20.2971 C   0  0  0  0  0  0
  -28.9418  -20.5772   20.3930 C   0  0  0  0  0  0
  -29.5365  -17.5311   20.5470 C   0  0  0  0  0  0
  -28.9267  -23.3605   20.2937 C   0  0  0  0  0  0
  -27.9013  -24.6395   20.0445 C   0  0  0  0  0  0
  -28.4495  -22.0266   20.2703 N   0  0  0  0  0  0
  -29.6297  -16.0040   20.6635 N   0  0  0  0  0  0
  -30.1229  -23.5910   20.4895 O   0  0  0  0  0  0
  -31.4864  -12.7415   19.1813 H   0  0  0  0  0  0
  -30.4554  -11.6027   20.0023 H   0  0  0  0  0  0
  -29.8401  -11.7482   17.5656 H   0  0  0  0  0  0
  -29.6180  -13.4738   17.7054 H   0  0  0  0  0  0
  -27.9451  -11.2762   18.9579 H   0  0  0  0  0  0
  -27.3957  -12.4733   17.8143 H   0  0  0  0  0  0
  -27.6148  -14.2484   19.4398 H   0  0  0  0  0  0
  -28.7626  -12.2241   21.4257 H   0  0  0  0  0  0
  -28.3856  -13.8864   21.7950 H   0  0  0  0  0  0
  -25.2770   -9.5679   22.4764 H   0  0  0  0  0  0
  -24.0004   -7.4632   22.7476 H   0  0  0  0  0  0
  -21.0850   -8.8777   19.8951 H   0  0  0  0  0  0
  -22.3712  -10.9674   19.6168 H   0  0  0  0  0  0
  -21.2005   -7.6149   23.9718 H   0  0  0  0  0  0
  -21.1485   -6.0523   25.9079 H   0  0  0  0  0  0
  -22.0597   -2.7609   23.2845 H   0  0  0  0  0  0
  -22.4083  -11.9868   22.4820 H   0  0  0  0  0  0
  -21.1082  -13.1231   22.2628 H   0  0  0  0  0  0
  -24.6348  -15.8318   20.4896 H   0  0  0  0  0  0
  -26.2317  -15.6172   19.9853 H   0  0  0  0  0  0
  -26.7277  -32.5307   23.1011 H   0  0  0  0  0  0
  -25.0101  -33.9623   25.0342 H   0  0  0  0  0  0
  -22.7496  -31.2920   21.3822 H   0  0  0  0  0  0
  -23.3760  -35.9583   23.3294 H   0  0  0  0  0  0
  -24.3578  -36.8897   22.2058 H   0  0  0  0  0  0
  -23.7246  -37.6448   23.6682 H   0  0  0  0  0  0
  -26.1607  -31.4756   20.6179 H   0  0  0  0  0  0
  -26.8743  -30.7686   22.0321 H   0  0  0  0  0  0
  -28.1343  -28.8006   21.2370 H   0  0  0  0  0  0
  -25.8980  -25.8642   18.9841 H   0  0  0  0  0  0
  -23.9793  -27.3113   18.9762 H   0  0  0  0  0  0
  -23.8099  -30.5737   19.4000 H   0  0  0  0  0  0
  -22.7884  -29.2404   19.8425 H   0  0  0  0  0  0
  -25.1314  -36.1864   25.0807 H   0  0  0  0  0  0
  -21.0012  -28.3317   24.1353 H   0  0  0  0  0  0
  -20.5691  -26.2338   23.3621 H   0  0  0  0  0  0
  -21.6656  -26.7436   22.1197 H   0  0  0  0  0  0
  -19.6926  -25.6289   21.1256 H   0  0  0  0  0  0
  -19.6700  -27.3182   20.6732 H   0  0  0  0  0  0
  -17.4214  -26.6680   21.4028 H   0  0  0  0  0  0
  -18.0346  -26.0083   22.9026 H   0  0  0  0  0  0
  -19.7954  -30.7301   24.2231 H   0  0  0  0  0  0
  -17.5025  -31.6269   24.5167 H   0  0  0  0  0  0
  -15.5364  -30.2977   23.7675 H   0  0  0  0  0  0
  -15.8692  -28.0813   22.7085 H   0  0  0  0  0  0
  -24.5907  -30.7087   25.7737 H   0  0  0  0  0  0
  -24.8897  -32.2931   26.4783 H   0  0  0  0  0  0
  -25.8004  -30.8964   27.0230 H   0  0  0  0  0  0
  -26.3018  -29.6679   24.1299 H   0  0  0  0  0  0
  -27.4000  -29.7258   25.4876 H   0  0  0  0  0  0
  -27.8931  -30.4193   23.9629 H   0  0  0  0  0  0
  -27.2656  -33.3649   26.2029 H   0  0  0  0  0  0
  -28.3906  -32.6854   25.0361 H   0  0  0  0  0  0
  -28.0694  -31.8490   26.5473 H   0  0  0  0  0  0
  -28.2587  -38.0090   24.7509 H   0  0  0  0  0  0
  -28.1082  -36.2617   24.6299 H   0  0  0  0  0  0
  -27.2290  -37.1441   25.8868 H   0  0  0  0  0  0
  -20.9473  -29.8764   21.6784 H   0  0  0  0  0  0
  -26.0157  -38.2815   24.1407 H   0  0  0  0  0  0
  -26.9454  -19.8521   20.7809 H   0  0  0  0  0  0
  -31.0796  -20.6531   20.0229 H   0  0  0  0  0  0
  -27.4098  -17.4937   20.9252 H   0  0  0  0  0  0
  -31.5547  -18.2269   20.1490 H   0  0  0  0  0  0
  -27.0275  -24.4465   20.6678 H   0  0  0  0  0  0
  -27.5723  -24.5107   19.0136 H   0  0  0  0  0  0
  -27.4446  -22.0564   20.1609 H   0  0  0  0  0  0
  -28.7368  -15.6100   20.9166 H   0  0  0  0  0  0
  1 25  1  0  0  0
  1 30  2  0  0  0
  1 80  1  0  0  0
  2  3  1  0  0  0
  2 25  1  0  0  0
  2 82  1  0  0  0
  2 83  1  0  0  0
  3  4  1  0  0  0
  3 84  1  0  0  0
  3 85  1  0  0  0
  4  5  1  0  0  0
  4 86  1  0  0  0
  4 87  1  0  0  0
  5  6  1  0  0  0
  5 26  1  0  0  0
  5 88  1  0  0  0
  6 25  1  0  0  0
  6 89  1  0  0  0
  6 90  1  0  0  0
  7  8  2  0  0  0
  7 26  1  0  0  0
  7 29  1  0  0  0
  8  9  1  0  0  0
  8 22  1  0  0  0
  9 10  1  0  0  0
  9 27  2  0  0  0
 10 11  2  0  0  0
 10 15  1  0  0  0
 11 12  1  0  0  0
 11 91  1  0  0  0
 12 13  2  0  0  0
 12 92  1  0  0  0
 13 14  1  0  0  0
 13 31  1  0  0  0
 14 15  2  0  0  0
 14 93  1  0  0  0
 15 94  1  0  0  0
 16 17  2  0  0  0
 16 21  1  0  0  0
 16 31  1  0  0  0
 17 18  1  0  0  0
 17 95  1  0  0  0
 18 19  2  0  0  0
 18 96  1  0  0  0
 19 20  1  0  0  0
 19 24  1  0  0  0
 20 21  2  0  0  0
 20 97  1  0  0  0
 21 23  1  0  0  0
 22 28  1  0  0  0
 22 32  2  0  0  0
 26 27  1  0  0  0
 28 98  1  0  0  0
 28 99  1  0  0  0
 29100  1  0  0  0
 29101  1  0  0  0
 33 34  1  0  0  0
 33 66  1  0  0  0
 33 70  2  0  0  0
 34 36  1  0  0  0
 34 59  1  0  0  0
 34102  1  0  0  0
 35 44  2  0  0  0
 35 45  1  0  0  0
 35 68  1  0  0  0
 36 56  1  0  0  0
 36103  1  0  0  0
 37 39  1  0  0  0
 37 47  1  0  0  0
 37 66  1  0  0  0
 37104  1  0  0  0
 38 43  2  0  0  0
 38 46  1  0  0  0
 38 47  1  0  0  0
 39 64  1  0  0  0
 39 67  2  0  0  0
 40 52  1  0  0  0
 40 53  2  0  0  0
 40 58  1  0  0  0
 41105  1  0  0  0
 41106  1  0  0  0
 41107  1  0  0  0
 41 48  1  0  0  0
 42 43  1  0  0  0
 42 66  1  0  0  0
 42108  1  0  0  0
 42109  1  0  0  0
 43 44  1  0  0  0
 44110  1  0  0  0
 45 46  2  0  0  0
 45111  1  0  0  0
 46112  1  0  0  0
 47113  1  0  0  0
 47114  1  0  0  0
 48 56  1  0  0  0
 48 65  1  0  0  0
 48115  1  0  0  0
 49 50  1  0  0  0
 49 53  1  0  0  0
 49 64  1  0  0  0
 49116  1  0  0  0
 50 51  1  0  0  0
 50117  1  0  0  0
 50118  1  0  0  0
 51 52  1  0  0  0
 51119  1  0  0  0
 51120  1  0  0  0
 52121  1  0  0  0
 52122  1  0  0  0
 53 54  1  0  0  0
 54 55  2  0  0  0
 54123  1  0  0  0
 55 57  1  0  0  0
 55124  1  0  0  0
 56 69  2  0  0  0
 57 58  2  0  0  0
 57125  1  0  0  0
 58126  1  0  0  0
 59 60  1  0  0  0
 59 61  1  0  0  0
 59 62  1  0  0  0
 60127  1  0  0  0
 60128  1  0  0  0
 60129  1  0  0  0
 61130  1  0  0  0
 61131  1  0  0  0
 61132  1  0  0  0
 62133  1  0  0  0
 62134  1  0  0  0
 62135  1  0  0  0
 63 65  1  0  0  0
 63136  1  0  0  0
 63137  1  0  0  0
 63138  1  0  0  0
 64139  1  0  0  0
 65140  1  0  0  0
 68 78  1  0  0  0
 71 73  2  0  0  0
 71 75  1  0  0  0
 71141  1  0  0  0
 72 74  1  0  0  0
 72 75  2  0  0  0
 72142  1  0  0  0
 73 76  1  0  0  0
 73143  1  0  0  0
 74 76  2  0  0  0
 74144  1  0  0  0
 75 79  1  0  0  0
 76 80  1  0  0  0
 77 78  1  0  0  0
 77 79  1  0  0  0
 77 81  2  0  0  0
 78145  1  0  0  0
 78146  1  0  0  0
 79147  1  0  0  0
 80148  1  0  0  0
M  ISO  4   1 100  68 101  78 101  80 100
M  END
> <chiral flag>
0

> <version>
0

> <s_m_source_file>
/data/baiqing/PycharmProjects/Reinvent-master-3.2/result/LINK_invent/BTK/process_docking_weight1_custom_product_contain_oxygen_bond_distance_aromatic_linkinvent_7_9_3/rearranged_h_0060.sdf

> <i_m_source_file_index>
84

> <r_mmod_Potential_Energy-OPLS-2005>
411.609313964844

> <r_mmod_Stretch_Energy-OPLS-2005>
219.232482910156

> <r_mmod_Bend_Energy-OPLS-2005>
281.814636230469

> <r_mmod_Torsional_Energy-OPLS-2005>
220.372116088867

> <r_mmod_Improper_Torsional_Energy-OPLS-2005>
4.48748207092285

> <r_mmod_Van_der_Waal_Energy-OPLS-2005>
130.148376464844

> <r_mmod_Electrostatic_Energy-OPLS-2005>
-374.771942138672

> <r_mmod_Solvation_Energy-OPLS-2005>
-252.214736938477

> <b_mmod_Minimization_Converged-OPLS-2005>
0

> <r_mmod_RMS_Derivative-OPLS-2005>
0.218703597784042

$$$$
84
                    3D
 Structure written by MMmdl.
153161  0  0  1  0            999 V2000
  -30.6283  -14.7978   20.4469 C   0  0  0  0  0  0
  -30.4248  -12.4935   19.4896 C   0  0  0  0  0  0
  -29.5063  -12.5165   18.2487 C   0  0  0  0  0  0
  -28.0339  -12.3335   18.6607 C   0  0  0  0  0  0
  -27.6354  -13.2454   19.8518 C   0  0  2  0  0  0
  -28.6807  -13.2277   20.9900 C   0  0  0  0  0  0
  -25.2474  -13.8255   20.5705 C   0  0  0  0  0  0
  -24.1791  -13.0468   20.9250 C   0  0  0  0  0  0
  -24.6397  -11.6953   20.8778 C   0  0  0  0  0  0
  -23.9075  -10.4314   21.0421 C   0  0  0  0  0  0
  -24.3628   -9.4218   21.9188 C   0  0  0  0  0  0
  -23.6310   -8.2250   22.0741 C   0  0  0  0  0  0
  -22.4288   -8.0288   21.3545 C   0  0  0  0  0  0
  -21.9928   -9.0260   20.4637 C   0  0  0  0  0  0
  -22.7251  -10.2142   20.3059 C   0  0  0  0  0  0
  -21.6858   -6.0748   22.5277 C   0  0  0  0  0  0
  -21.4023   -6.5653   23.8210 C   0  0  0  0  0  0
  -21.3660   -5.6804   24.9171 C   0  0  0  0  0  0
  -21.6042   -4.3068   24.7221 C   0  0  0  0  0  0
  -21.8819   -3.8157   23.4343 C   0  0  0  0  0  0
  -21.9192   -4.6977   22.3398 C   0  0  0  0  0  0
  -22.7801  -13.5227   21.1900 C   0  0  0  0  0  0
  -22.1659   -4.2165   21.0976 F   0  0  0  0  0  0
  -21.5621   -3.4543   25.7732 F   0  0  0  0  0  0
  -29.9774  -13.5802   20.3997 N   0  0  0  0  0  0
  -26.2913  -12.9474   20.3336 N   0  0  0  0  0  0
  -25.9339  -11.6604   20.5809 N   0  0  0  0  0  0
  -22.0455  -12.8191   22.0431 N   0  0  0  0  0  0
  -25.4127  -15.1957   20.3973 N   0  0  0  0  0  0
  -31.8235  -14.8096   20.1398 O   0  0  0  0  0  0
  -21.6646   -6.8892   21.4236 O   0  0  0  0  0  0
  -22.3471  -14.5528   20.6737 O   0  0  0  0  0  0
  -24.6313  -31.8543   23.1976 C   0  0  0  0  0  0
  -25.9128  -32.4758   23.8321 C   0  0  1  0  0  0
  -27.2140  -27.2407   20.1514 C   0  0  0  0  0  0
  -25.5917  -33.8562   24.2240 N   0  0  0  0  0  0
  -23.4277  -30.4745   21.5423 C   0  0  2  0  0  0
  -24.8758  -28.9169   20.1138 C   0  0  0  0  0  0
  -22.7509  -29.4566   22.4919 C   0  0  0  0  0  0
  -18.0321  -28.1331   22.8490 C   0  0  0  0  0  0
  -24.1485  -36.7294   23.2639 C   0  0  0  0  0  0
  -25.9738  -30.7658   21.3748 C   0  0  0  0  0  0
  -26.0482  -29.3836   20.7225 C   0  0  0  0  0  0
  -27.2208  -28.5594   20.7248 C   0  0  0  0  0  0
  -26.0231  -26.8500   19.5017 C   0  0  0  0  0  0
  -24.8684  -27.6598   19.4906 C   0  0  0  0  0  0
  -23.6474  -29.8077   20.1586 C   0  0  0  0  0  0
  -25.4113  -36.3076   24.0320 C   0  0  1  0  0  0
  -20.5925  -28.3631   23.1275 C   0  0  2  0  0  0
  -20.6816  -26.9363   22.5393 C   0  0  0  0  0  0
  -19.5788  -26.6341   21.5186 C   0  0  0  0  0  0
  -18.1967  -26.7886   22.1589 C   0  0  0  0  0  0
  -19.1574  -28.8806   23.2864 C   0  0  0  0  0  0
  -18.9523  -30.1421   23.8840 C   0  0  0  0  0  0
  -17.6531  -30.6583   24.0498 C   0  0  0  0  0  0
  -25.9054  -34.9447   23.5083 C   0  0  0  0  0  0
  -16.5416  -29.9072   23.6320 C   0  0  0  0  0  0
  -16.7321  -28.6462   23.0378 C   0  0  0  0  0  0
  -26.4497  -31.6578   25.0708 C   0  0  0  0  0  0
  -25.3720  -31.3729   26.1425 C   0  0  0  0  0  0
  -27.0339  -30.2988   24.6190 C   0  0  0  0  0  0
  -27.6039  -32.4318   25.7501 C   0  0  0  0  0  0
  -27.5574  -37.1803   24.8463 C   0  0  0  0  0  0
  -21.4220  -29.3001   22.3683 N   0  0  0  0  0  0
  -26.4291  -37.3769   23.9404 N   0  0  0  0  0  0
  -24.6968  -31.0494   22.0958 N   0  0  0  0  0  0
  -23.4211  -28.8106   23.3014 O   0  0  0  0  0  0
  -28.3129  -26.3477   20.1863 O   0  0  0  0  0  0
  -26.5634  -34.8926   22.4660 O   0  0  0  0  0  0
  -23.5449  -32.1372   23.7252 O   0  0  0  0  0  0
  -27.9982  -21.0572   21.4114 C   0  0  0  0  0  0
  -27.6899  -19.8252   22.0343 C   0  0  0  0  0  0
  -29.7329  -19.8928   20.1970 C   0  0  0  0  0  0
  -29.0514  -21.1506   20.4854 C   0  0  0  0  0  0
  -29.4349  -18.5898   20.7928 C   0  0  0  0  0  0
  -28.3945  -18.6187   21.7699 C   0  0  0  0  0  0
  -29.4614  -22.4989   19.8491 C   0  0  0  0  0  0
  -29.1423  -23.8627   19.8303 C   0  0  0  0  0  0
  -30.3157  -17.3120   20.4891 C   0  0  0  0  0  0
  -28.0240  -17.4057   22.6138 C   0  0  0  0  0  0
  -28.1097  -24.8743   20.4795 C   0  0  0  0  0  0
  -29.9002  -15.9815   20.6497 N   0  0  0  0  0  0
  -31.4418  -17.5660   20.0504 O   0  0  0  0  0  0
  -31.4679  -12.5998   19.1812 H   0  0  0  0  0  0
  -30.3637  -11.5315   20.0015 H   0  0  0  0  0  0
  -29.7953  -11.7309   17.5505 H   0  0  0  0  0  0
  -29.6205  -13.4643   17.7174 H   0  0  0  0  0  0
  -27.8869  -11.2837   18.9232 H   0  0  0  0  0  0
  -27.3758  -12.5225   17.8110 H   0  0  0  0  0  0
  -27.6153  -14.2598   19.4518 H   0  0  0  0  0  0
  -28.7318  -12.2467   21.4610 H   0  0  0  0  0  0
  -28.4052  -13.9291   21.7808 H   0  0  0  0  0  0
  -25.2767   -9.5702   22.4769 H   0  0  0  0  0  0
  -24.0028   -7.4639   22.7450 H   0  0  0  0  0  0
  -21.0873   -8.8789   19.8930 H   0  0  0  0  0  0
  -22.3720  -10.9694   19.6181 H   0  0  0  0  0  0
  -21.2023   -7.6160   23.9728 H   0  0  0  0  0  0
  -21.1482   -6.0525   25.9080 H   0  0  0  0  0  0
  -22.0595   -2.7619   23.2830 H   0  0  0  0  0  0
  -22.4091  -11.9861   22.4839 H   0  0  0  0  0  0
  -21.1062  -13.1181   22.2653 H   0  0  0  0  0  0
  -24.6310  -15.8372   20.4672 H   0  0  0  0  0  0
  -26.2272  -15.6128   19.9659 H   0  0  0  0  0  0
  -26.7200  -32.5416   23.1074 H   0  0  0  0  0  0
  -25.0058  -33.9700   25.0378 H   0  0  0  0  0  0
  -22.7234  -31.2958   21.3975 H   0  0  0  0  0  0
  -23.3743  -35.9626   23.3293 H   0  0  0  0  0  0
  -24.3581  -36.8929   22.2056 H   0  0  0  0  0  0
  -23.7249  -37.6495   23.6676 H   0  0  0  0  0  0
  -26.1031  -31.5233   20.6009 H   0  0  0  0  0  0
  -26.8555  -30.8242   22.0017 H   0  0  0  0  0  0
  -28.1196  -28.9118   21.2088 H   0  0  0  0  0  0
  -25.9661  -25.8974   18.9972 H   0  0  0  0  0  0
  -23.9707  -27.3025   19.0042 H   0  0  0  0  0  0
  -23.7751  -30.5860   19.4053 H   0  0  0  0  0  0
  -22.7641  -29.2440   19.8517 H   0  0  0  0  0  0
  -25.1297  -36.1919   25.0810 H   0  0  0  0  0  0
  -21.0008  -28.3174   24.1408 H   0  0  0  0  0  0
  -20.5689  -26.2234   23.3576 H   0  0  0  0  0  0
  -21.6698  -26.7392   22.1210 H   0  0  0  0  0  0
  -19.6951  -25.6254   21.1214 H   0  0  0  0  0  0
  -19.6753  -27.3157   20.6718 H   0  0  0  0  0  0
  -17.4253  -26.6683   21.3962 H   0  0  0  0  0  0
  -18.0332  -26.0011   22.8960 H   0  0  0  0  0  0
  -19.8022  -30.7235   24.2158 H   0  0  0  0  0  0
  -17.5141  -31.6296   24.5054 H   0  0  0  0  0  0
  -15.5428  -30.2994   23.7653 H   0  0  0  0  0  0
  -15.8715  -28.0775   22.7139 H   0  0  0  0  0  0
  -24.5924  -30.7036   25.7770 H   0  0  0  0  0  0
  -24.8875  -32.2894   26.4795 H   0  0  0  0  0  0
  -25.8037  -30.8972   27.0235 H   0  0  0  0  0  0
  -26.2915  -29.6744   24.1200 H   0  0  0  0  0  0
  -27.4000  -29.7242   25.4704 H   0  0  0  0  0  0
  -27.8802  -30.4251   23.9435 H   0  0  0  0  0  0
  -27.2640  -33.3630   26.2040 H   0  0  0  0  0  0
  -28.3888  -32.6845   25.0366 H   0  0  0  0  0  0
  -28.0662  -31.8467   26.5460 H   0  0  0  0  0  0
  -28.2586  -38.0101   24.7505 H   0  0  0  0  0  0
  -28.1071  -36.2633   24.6290 H   0  0  0  0  0  0
  -27.2296  -37.1461   25.8866 H   0  0  0  0  0  0
  -20.9394  -29.8709   21.6882 H   0  0  0  0  0  0
  -26.0163  -38.2838   24.1400 H   0  0  0  0  0  0
  -27.4328  -21.9408   21.6746 H   0  0  0  0  0  0
  -26.8969  -19.8271   22.7701 H   0  0  0  0  0  0
  -30.5595  -19.9378   19.4989 H   0  0  0  0  0  0
  -30.2967  -22.3199   19.1843 H   0  0  0  0  0  0
  -29.7882  -24.4193   19.1672 H   0  0  0  0  0  0
  -27.3279  -17.6773   23.4093 H   0  0  0  0  0  0
  -28.9022  -16.9870   23.1062 H   0  0  0  0  0  0
  -27.5533  -16.6272   22.0157 H   0  0  0  0  0  0
  -28.1686  -24.7485   21.5629 H   0  0  0  0  0  0
  -27.1130  -24.5319   20.2034 H   0  0  0  0  0  0
  -28.9431  -15.8625   20.9299 H   0  0  0  0  0  0
  1 25  1  0  0  0
  1 30  2  0  0  0
  1 82  1  0  0  0
  2  3  1  0  0  0
  2 25  1  0  0  0
  2 84  1  0  0  0
  2 85  1  0  0  0
  3  4  1  0  0  0
  3 86  1  0  0  0
  3 87  1  0  0  0
  4  5  1  0  0  0
  4 88  1  0  0  0
  4 89  1  0  0  0
  5  6  1  0  0  0
  5 26  1  0  0  0
  5 90  1  0  0  0
  6 25  1  0  0  0
  6 91  1  0  0  0
  6 92  1  0  0  0
  7  8  2  0  0  0
  7 26  1  0  0  0
  7 29  1  0  0  0
  8  9  1  0  0  0
  8 22  1  0  0  0
  9 10  1  0  0  0
  9 27  2  0  0  0
 10 11  2  0  0  0
 10 15  1  0  0  0
 11 12  1  0  0  0
 11 93  1  0  0  0
 12 13  2  0  0  0
 12 94  1  0  0  0
 13 14  1  0  0  0
 13 31  1  0  0  0
 14 15  2  0  0  0
 14 95  1  0  0  0
 15 96  1  0  0  0
 16 17  2  0  0  0
 16 21  1  0  0  0
 16 31  1  0  0  0
 17 18  1  0  0  0
 17 97  1  0  0  0
 18 19  2  0  0  0
 18 98  1  0  0  0
 19 20  1  0  0  0
 19 24  1  0  0  0
 20 21  2  0  0  0
 20 99  1  0  0  0
 21 23  1  0  0  0
 22 28  1  0  0  0
 22 32  2  0  0  0
 26 27  1  0  0  0
 28100  1  0  0  0
 28101  1  0  0  0
 29102  1  0  0  0
 29103  1  0  0  0
 33 34  1  0  0  0
 33 66  1  0  0  0
 33 70  2  0  0  0
 34 36  1  0  0  0
 34 59  1  0  0  0
 34104  1  0  0  0
 35 44  2  0  0  0
 35 45  1  0  0  0
 35 68  1  0  0  0
 36 56  1  0  0  0
 36105  1  0  0  0
 37 39  1  0  0  0
 37 47  1  0  0  0
 37 66  1  0  0  0
 37106  1  0  0  0
 38 43  2  0  0  0
 38 46  1  0  0  0
 38 47  1  0  0  0
 39 64  1  0  0  0
 39 67  2  0  0  0
 40 52  1  0  0  0
 40 53  2  0  0  0
 40 58  1  0  0  0
 41107  1  0  0  0
 41108  1  0  0  0
 41109  1  0  0  0
 41 48  1  0  0  0
 42 43  1  0  0  0
 42 66  1  0  0  0
 42110  1  0  0  0
 42111  1  0  0  0
 43 44  1  0  0  0
 44112  1  0  0  0
 45 46  2  0  0  0
 45113  1  0  0  0
 46114  1  0  0  0
 47115  1  0  0  0
 47116  1  0  0  0
 48 56  1  0  0  0
 48 65  1  0  0  0
 48117  1  0  0  0
 49 50  1  0  0  0
 49 53  1  0  0  0
 49 64  1  0  0  0
 49118  1  0  0  0
 50 51  1  0  0  0
 50119  1  0  0  0
 50120  1  0  0  0
 51 52  1  0  0  0
 51121  1  0  0  0
 51122  1  0  0  0
 52123  1  0  0  0
 52124  1  0  0  0
 53 54  1  0  0  0
 54 55  2  0  0  0
 54125  1  0  0  0
 55 57  1  0  0  0
 55126  1  0  0  0
 56 69  2  0  0  0
 57 58  2  0  0  0
 57127  1  0  0  0
 58128  1  0  0  0
 59 60  1  0  0  0
 59 61  1  0  0  0
 59 62  1  0  0  0
 60129  1  0  0  0
 60130  1  0  0  0
 60131  1  0  0  0
 61132  1  0  0  0
 61133  1  0  0  0
 61134  1  0  0  0
 62135  1  0  0  0
 62136  1  0  0  0
 62137  1  0  0  0
 63 65  1  0  0  0
 63138  1  0  0  0
 63139  1  0  0  0
 63140  1  0  0  0
 64141  1  0  0  0
 65142  1  0  0  0
 68 81  1  0  0  0
 71 72  2  0  0  0
 71 74  1  0  0  0
 71143  1  0  0  0
 72 76  1  0  0  0
 72144  1  0  0  0
 73 74  2  0  0  0
 73 75  1  0  0  0
 73145  1  0  0  0
 74 77  1  0  0  0
 75 76  2  0  0  0
 75 79  1  0  0  0
 76 80  1  0  0  0
 77 78  2  0  0  0
 77146  1  0  0  0
 78 81  1  0  0  0
 78147  1  0  0  0
 79 82  1  0  0  0
 79 83  2  0  0  0
 80148  1  0  0  0
 80149  1  0  0  0
 80150  1  0  0  0
 81151  1  0  0  0
 81152  1  0  0  0
 82153  1  0  0  0
M  ISO  4   1 100  68 101  81 101  82 100
M  END
> <chiral flag>
0

> <version>
0

> <s_m_source_file>
/data/baiqing/PycharmProjects/Reinvent-master-3.2/result/LINK_invent/BTK/process_docking_weight1_custom_product_contain_oxygen_bond_distance_aromatic_linkinvent_7_9_3/rearranged_h_0060.sdf

> <i_m_source_file_index>
85

> <r_mmod_Potential_Energy-OPLS-2005>
198.484527587891

> <r_mmod_Stretch_Energy-OPLS-2005>
137.310150146484

> <r_mmod_Bend_Energy-OPLS-2005>
212.778762817383

> <r_mmod_Torsional_Energy-OPLS-2005>
229.966384887695

> <r_mmod_Improper_Torsional_Energy-OPLS-2005>
5.23547506332397

> <r_mmod_Van_der_Waal_Energy-OPLS-2005>
142.712844848633

> <r_mmod_Electrostatic_Energy-OPLS-2005>
-411.376007080078

> <r_mmod_Solvation_Energy-OPLS-2005>
-220.750259399414

> <b_mmod_Minimization_Converged-OPLS-2005>
0

> <r_mmod_RMS_Derivative-OPLS-2005>
3.45891714096069

$$$$
85
                    3D
 Structure written by MMmdl.
155163  0  0  1  0            999 V2000
  -30.6611  -14.7113   20.3640 C   0  0  0  0  0  0
  -30.4153  -12.4008   19.4657 C   0  0  0  0  0  0
  -29.4632  -12.3487   18.2452 C   0  0  0  0  0  0
  -27.9997  -12.2365   18.6834 C   0  0  0  0  0  0
  -27.6264  -13.2185   19.8240 C   0  0  2  0  0  0
  -28.6845  -13.2152   20.9435 C   0  0  0  0  0  0
  -25.2499  -13.8216   20.5763 C   0  0  0  0  0  0
  -24.1773  -13.0488   20.9285 C   0  0  0  0  0  0
  -24.6318  -11.6960   20.8848 C   0  0  0  0  0  0
  -23.9005  -10.4332   21.0467 C   0  0  0  0  0  0
  -24.3581   -9.4229   21.9211 C   0  0  0  0  0  0
  -23.6284   -8.2241   22.0756 C   0  0  0  0  0  0
  -22.4269   -8.0268   21.3532 C   0  0  0  0  0  0
  -21.9879   -9.0249   20.4651 C   0  0  0  0  0  0
  -22.7187  -10.2154   20.3086 C   0  0  0  0  0  0
  -21.6848   -6.0734   22.5290 C   0  0  0  0  0  0
  -21.4001   -6.5639   23.8226 C   0  0  0  0  0  0
  -21.3660   -5.6786   24.9189 C   0  0  0  0  0  0
  -21.6042   -4.3050   24.7233 C   0  0  0  0  0  0
  -21.8822   -3.8145   23.4354 C   0  0  0  0  0  0
  -21.9188   -4.6964   22.3408 C   0  0  0  0  0  0
  -22.7786  -13.5295   21.1887 C   0  0  0  0  0  0
  -22.1662   -4.2156   21.0989 F   0  0  0  0  0  0
  -21.5632   -3.4529   25.7738 F   0  0  0  0  0  0
  -29.9855  -13.5135   20.3354 N   0  0  0  0  0  0
  -26.2885  -12.9403   20.3322 N   0  0  0  0  0  0
  -25.9259  -11.6575   20.5911 N   0  0  0  0  0  0
  -22.0358  -12.8326   22.0421 N   0  0  0  0  0  0
  -25.4295  -15.1921   20.4158 N   0  0  0  0  0  0
  -31.8915  -14.7169   20.3548 O   0  0  0  0  0  0
  -21.6633   -6.8870   21.4243 O   0  0  0  0  0  0
  -22.3507  -14.5579   20.6673 O   0  0  0  0  0  0
  -24.6266  -31.8580   23.2003 C   0  0  0  0  0  0
  -25.9106  -32.4761   23.8339 C   0  0  1  0  0  0
  -27.2063  -27.2901   20.1455 C   0  0  0  0  0  0
  -25.5902  -33.8565   24.2261 N   0  0  0  0  0  0
  -23.4189  -30.4819   21.5417 C   0  0  2  0  0  0
  -24.8657  -28.9292   20.1110 C   0  0  0  0  0  0
  -22.7462  -29.4624   22.4910 C   0  0  0  0  0  0
  -18.0279  -28.1397   22.8496 C   0  0  0  0  0  0
  -24.1485  -36.7291   23.2636 C   0  0  0  0  0  0
  -25.9606  -30.7830   21.3720 C   0  0  0  0  0  0
  -26.0332  -29.4056   20.7208 C   0  0  0  0  0  0
  -27.2119  -28.5973   20.7266 C   0  0  0  0  0  0
  -26.0241  -26.8703   19.5049 C   0  0  0  0  0  0
  -24.8628  -27.6687   19.4915 C   0  0  0  0  0  0
  -23.6342  -29.8129   20.1579 C   0  0  0  0  0  0
  -25.4110  -36.3070   24.0322 C   0  0  1  0  0  0
  -20.5877  -28.3691   23.1294 C   0  0  2  0  0  0
  -20.6773  -26.9411   22.5416 C   0  0  0  0  0  0
  -19.5742  -26.6390   21.5223 C   0  0  0  0  0  0
  -18.1926  -26.7947   22.1633 C   0  0  0  0  0  0
  -19.1533  -28.8855   23.2898 C   0  0  0  0  0  0
  -18.9465  -30.1464   23.8906 C   0  0  0  0  0  0
  -17.6463  -30.6599   24.0578 C   0  0  0  0  0  0
  -25.9041  -34.9437   23.5090 C   0  0  0  0  0  0
  -16.5348  -29.9099   23.6334 C   0  0  0  0  0  0
  -16.7269  -28.6516   23.0354 C   0  0  0  0  0  0
  -26.4494  -31.6576   25.0707 C   0  0  0  0  0  0
  -25.3738  -31.3722   26.1437 C   0  0  0  0  0  0
  -27.0339  -30.2998   24.6156 C   0  0  0  0  0  0
  -27.6048  -32.4308   25.7492 C   0  0  0  0  0  0
  -27.5579  -37.1800   24.8457 C   0  0  0  0  0  0
  -21.4163  -29.3048   22.3687 N   0  0  0  0  0  0
  -26.4285  -37.3772   23.9407 N   0  0  0  0  0  0
  -24.6873  -31.0587   22.0949 N   0  0  0  0  0  0
  -23.4190  -28.8142   23.2975 O   0  0  0  0  0  0
  -28.2984  -26.4130   20.1755 O   0  0  0  0  0  0
  -26.5631  -34.8923   22.4671 O   0  0  0  0  0  0
  -23.5430  -32.1378   23.7324 O   0  0  0  0  0  0
  -29.4938  -17.2634   17.6963 C   0  0  0  0  0  0
  -29.0405  -18.3604   18.4332 C   0  0  0  0  0  0
  -29.6320  -17.1904   20.4834 C   0  0  0  0  0  0
  -30.0328  -15.9984   19.7449 C   0  0  0  0  0  0
  -30.0891  -16.1566   18.3241 C   0  0  0  0  0  0
  -29.2045  -18.4239   19.8319 C   0  0  0  0  0  0
  -29.0262  -21.0016   19.9774 C   0  0  0  0  0  0
  -30.9082  -15.2777   17.3824 C   0  0  0  0  0  0
  -28.4521  -22.2895   20.7108 C   0  0  0  0  0  0
  -28.4767  -23.7205   19.9503 C   0  0  0  0  0  0
  -28.0918  -25.0545   20.7578 C   0  0  0  0  0  0
  -28.8983  -19.7155   20.4918 N   0  0  0  0  0  0
  -29.6438  -21.2057   18.9301 O   0  0  0  0  0  0
  -31.4501  -12.5050   19.1374 H   0  0  0  0  0  0
  -30.3732  -11.4657   20.0261 H   0  0  0  0  0  0
  -29.7245  -11.4966   17.6171 H   0  0  0  0  0  0
  -29.5363  -13.2174   17.6079 H   0  0  0  0  0  0
  -27.8591  -11.2094   19.0235 H   0  0  0  0  0  0
  -27.3279  -12.3608   17.8322 H   0  0  0  0  0  0
  -27.6091  -14.2152   19.3822 H   0  0  0  0  0  0
  -28.7128  -12.2446   21.4432 H   0  0  0  0  0  0
  -28.4405  -13.9526   21.7094 H   0  0  0  0  0  0
  -25.2692   -9.5736   22.4826 H   0  0  0  0  0  0
  -24.0007   -7.4625   22.7465 H   0  0  0  0  0  0
  -21.0797   -8.8756   19.8959 H   0  0  0  0  0  0
  -22.3596  -10.9708   19.6237 H   0  0  0  0  0  0
  -21.1982   -7.6140   23.9736 H   0  0  0  0  0  0
  -21.1479   -6.0509   25.9093 H   0  0  0  0  0  0
  -22.0595   -2.7606   23.2846 H   0  0  0  0  0  0
  -22.3877  -12.0019   22.4923 H   0  0  0  0  0  0
  -21.0967  -13.1429   22.2518 H   0  0  0  0  0  0
  -24.6716  -15.8580   20.5298 H   0  0  0  0  0  0
  -26.2972  -15.6214   20.1193 H   0  0  0  0  0  0
  -26.7163  -32.5436   23.1084 H   0  0  0  0  0  0
  -25.0044  -33.9711   25.0397 H   0  0  0  0  0  0
  -22.7137  -31.3038   21.3987 H   0  0  0  0  0  0
  -23.3747  -35.9626   23.3280 H   0  0  0  0  0  0
  -24.3582  -36.8931   22.2055 H   0  0  0  0  0  0
  -23.7248  -37.6490   23.6676 H   0  0  0  0  0  0
  -26.0903  -31.5416   20.5987 H   0  0  0  0  0  0
  -26.8439  -30.8383   21.9991 H   0  0  0  0  0  0
  -28.1042  -28.9537   21.2196 H   0  0  0  0  0  0
  -25.9915  -25.9021   19.0249 H   0  0  0  0  0  0
  -23.9645  -27.3010   19.0114 H   0  0  0  0  0  0
  -23.7542  -30.5874   19.4007 H   0  0  0  0  0  0
  -22.7536  -29.2432   19.8562 H   0  0  0  0  0  0
  -25.1299  -36.1904   25.0820 H   0  0  0  0  0  0
  -20.9998  -28.3266   24.1409 H   0  0  0  0  0  0
  -20.5675  -26.2303   23.3616 H   0  0  0  0  0  0
  -21.6647  -26.7448   22.1209 H   0  0  0  0  0  0
  -19.6899  -25.6301   21.1253 H   0  0  0  0  0  0
  -19.6687  -27.3212   20.6760 H   0  0  0  0  0  0
  -17.4202  -26.6702   21.4029 H   0  0  0  0  0  0
  -18.0312  -26.0096   22.9030 H   0  0  0  0  0  0
  -19.7936  -30.7287   24.2283 H   0  0  0  0  0  0
  -17.5016  -31.6286   24.5182 H   0  0  0  0  0  0
  -15.5353  -30.3015   23.7664 H   0  0  0  0  0  0
  -15.8667  -28.0852   22.7061 H   0  0  0  0  0  0
  -24.5870  -30.7120   25.7760 H   0  0  0  0  0  0
  -24.8995  -32.2907   26.4905 H   0  0  0  0  0  0
  -25.8062  -30.8846   27.0185 H   0  0  0  0  0  0
  -26.2913  -29.6741   24.1184 H   0  0  0  0  0  0
  -27.4049  -29.7246   25.4653 H   0  0  0  0  0  0
  -27.8776  -30.4287   23.9374 H   0  0  0  0  0  0
  -27.2638  -33.3588   26.2108 H   0  0  0  0  0  0
  -28.3863  -32.6898   25.0329 H   0  0  0  0  0  0
  -28.0724  -31.8409   26.5394 H   0  0  0  0  0  0
  -28.2578  -38.0111   24.7521 H   0  0  0  0  0  0
  -28.1090  -36.2645   24.6255 H   0  0  0  0  0  0
  -27.2305  -37.1423   25.8861 H   0  0  0  0  0  0
  -20.9319  -29.8803   21.6938 H   0  0  0  0  0  0
  -26.0144  -38.2834   24.1437 H   0  0  0  0  0  0
  -29.4717  -17.3206   16.6166 H   0  0  0  0  0  0
  -28.6318  -19.1942   17.8816 H   0  0  0  0  0  0
  -29.7161  -17.1758   21.5612 H   0  0  0  0  0  0
  -31.7488  -15.8555   16.9979 H   0  0  0  0  0  0
  -30.3171  -14.9763   16.5184 H   0  0  0  0  0  0
  -31.3474  -14.3900   17.8253 H   0  0  0  0  0  0
  -29.0129  -22.3935   21.6389 H   0  0  0  0  0  0
  -27.4262  -22.0616   20.9998 H   0  0  0  0  0  0
  -27.8090  -23.6618   19.0888 H   0  0  0  0  0  0
  -29.4725  -23.8667   19.5303 H   0  0  0  0  0  0
  -28.6971  -25.0470   21.6653 H   0  0  0  0  0  0
  -27.0676  -24.9550   21.1202 H   0  0  0  0  0  0
  -28.5288  -19.6524   21.4310 H   0  0  0  0  0  0
  1 25  1  0  0  0
  1 30  2  0  0  0
  1 74  1  0  0  0
  2  3  1  0  0  0
  2 25  1  0  0  0
  2 84  1  0  0  0
  2 85  1  0  0  0
  3  4  1  0  0  0
  3 86  1  0  0  0
  3 87  1  0  0  0
  4  5  1  0  0  0
  4 88  1  0  0  0
  4 89  1  0  0  0
  5  6  1  0  0  0
  5 26  1  0  0  0
  5 90  1  0  0  0
  6 25  1  0  0  0
  6 91  1  0  0  0
  6 92  1  0  0  0
  7  8  2  0  0  0
  7 26  1  0  0  0
  7 29  1  0  0  0
  8  9  1  0  0  0
  8 22  1  0  0  0
  9 10  1  0  0  0
  9 27  2  0  0  0
 10 11  2  0  0  0
 10 15  1  0  0  0
 11 12  1  0  0  0
 11 93  1  0  0  0
 12 13  2  0  0  0
 12 94  1  0  0  0
 13 14  1  0  0  0
 13 31  1  0  0  0
 14 15  2  0  0  0
 14 95  1  0  0  0
 15 96  1  0  0  0
 16 17  2  0  0  0
 16 21  1  0  0  0
 16 31  1  0  0  0
 17 18  1  0  0  0
 17 97  1  0  0  0
 18 19  2  0  0  0
 18 98  1  0  0  0
 19 20  1  0  0  0
 19 24  1  0  0  0
 20 21  2  0  0  0
 20 99  1  0  0  0
 21 23  1  0  0  0
 22 28  1  0  0  0
 22 32  2  0  0  0
 26 27  1  0  0  0
 28100  1  0  0  0
 28101  1  0  0  0
 29102  1  0  0  0
 29103  1  0  0  0
 33 34  1  0  0  0
 33 66  1  0  0  0
 33 70  2  0  0  0
 34 36  1  0  0  0
 34 59  1  0  0  0
 34104  1  0  0  0
 35 44  2  0  0  0
 35 45  1  0  0  0
 35 68  1  0  0  0
 36 56  1  0  0  0
 36105  1  0  0  0
 37 39  1  0  0  0
 37 47  1  0  0  0
 37 66  1  0  0  0
 37106  1  0  0  0
 38 43  2  0  0  0
 38 46  1  0  0  0
 38 47  1  0  0  0
 39 64  1  0  0  0
 39 67  2  0  0  0
 40 52  1  0  0  0
 40 53  2  0  0  0
 40 58  1  0  0  0
 41107  1  0  0  0
 41108  1  0  0  0
 41109  1  0  0  0
 41 48  1  0  0  0
 42 43  1  0  0  0
 42 66  1  0  0  0
 42110  1  0  0  0
 42111  1  0  0  0
 43 44  1  0  0  0
 44112  1  0  0  0
 45 46  2  0  0  0
 45113  1  0  0  0
 46114  1  0  0  0
 47115  1  0  0  0
 47116  1  0  0  0
 48 56  1  0  0  0
 48 65  1  0  0  0
 48117  1  0  0  0
 49 50  1  0  0  0
 49 53  1  0  0  0
 49 64  1  0  0  0
 49118  1  0  0  0
 50 51  1  0  0  0
 50119  1  0  0  0
 50120  1  0  0  0
 51 52  1  0  0  0
 51121  1  0  0  0
 51122  1  0  0  0
 52123  1  0  0  0
 52124  1  0  0  0
 53 54  1  0  0  0
 54 55  2  0  0  0
 54125  1  0  0  0
 55 57  1  0  0  0
 55126  1  0  0  0
 56 69  2  0  0  0
 57 58  2  0  0  0
 57127  1  0  0  0
 58128  1  0  0  0
 59 60  1  0  0  0
 59 61  1  0  0  0
 59 62  1  0  0  0
 60129  1  0  0  0
 60130  1  0  0  0
 60131  1  0  0  0
 61132  1  0  0  0
 61133  1  0  0  0
 61134  1  0  0  0
 62135  1  0  0  0
 62136  1  0  0  0
 62137  1  0  0  0
 63 65  1  0  0  0
 63138  1  0  0  0
 63139  1  0  0  0
 63140  1  0  0  0
 64141  1  0  0  0
 65142  1  0  0  0
 68 81  1  0  0  0
 71 72  2  0  0  0
 71 75  1  0  0  0
 71143  1  0  0  0
 72 76  1  0  0  0
 72144  1  0  0  0
 73 74  1  0  0  0
 73 76  2  0  0  0
 73145  1  0  0  0
 74 75  2  0  0  0
 75 78  1  0  0  0
 76 82  1  0  0  0
 77 79  1  0  0  0
 77 82  1  0  0  0
 77 83  2  0  0  0
 78146  1  0  0  0
 78147  1  0  0  0
 78148  1  0  0  0
 79 80  1  0  0  0
 79149  1  0  0  0
 79150  1  0  0  0
 80 81  1  0  0  0
 80151  1  0  0  0
 80152  1  0  0  0
 81153  1  0  0  0
 81154  1  0  0  0
 82155  1  0  0  0
M  ISO  4   1 100  68 101  74 100  81 101
M  END
> <chiral flag>
0

> <version>
0

> <s_m_source_file>
/data/baiqing/PycharmProjects/Reinvent-master-3.2/result/LINK_invent/BTK/process_docking_weight1_custom_product_contain_oxygen_bond_distance_aromatic_linkinvent_7_9_3/rearranged_h_0060.sdf

> <i_m_source_file_index>
86

> <r_mmod_Potential_Energy-OPLS-2005>
244.912567138672

> <r_mmod_Stretch_Energy-OPLS-2005>
109.005928039551

> <r_mmod_Bend_Energy-OPLS-2005>
152.524536132812

> <r_mmod_Torsional_Energy-OPLS-2005>
289.466186523438

> <r_mmod_Improper_Torsional_Energy-OPLS-2005>
22.900806427002

> <r_mmod_Van_der_Waal_Energy-OPLS-2005>
145.705078125

> <r_mmod_Electrostatic_Energy-OPLS-2005>
-352.424865722656

> <r_mmod_Solvation_Energy-OPLS-2005>
-216.335998535156

> <b_mmod_Minimization_Converged-OPLS-2005>
0

> <r_mmod_RMS_Derivative-OPLS-2005>
3.61363053321838

$$$$
86
                    3D
 Structure written by MMmdl.
152160  0  0  1  0            999 V2000
  -30.5930  -14.8316   20.4683 C   0  0  0  0  0  0
  -30.4442  -12.5180   19.4764 C   0  0  0  0  0  0
  -29.5191  -12.5133   18.2388 C   0  0  0  0  0  0
  -28.0497  -12.3143   18.6602 C   0  0  0  0  0  0
  -27.6384  -13.2347   19.8402 C   0  0  2  0  0  0
  -28.6853  -13.2178   20.9740 C   0  0  0  0  0  0
  -25.2514  -13.8185   20.5673 C   0  0  0  0  0  0
  -24.1815  -13.0429   20.9204 C   0  0  0  0  0  0
  -24.6417  -11.6905   20.8753 C   0  0  0  0  0  0
  -23.9092  -10.4287   21.0410 C   0  0  0  0  0  0
  -24.3635   -9.4198   21.9190 C   0  0  0  0  0  0
  -23.6295   -8.2244   22.0765 C   0  0  0  0  0  0
  -22.4282   -8.0285   21.3550 C   0  0  0  0  0  0
  -21.9922   -9.0262   20.4651 C   0  0  0  0  0  0
  -22.7268  -10.2132   20.3053 C   0  0  0  0  0  0
  -21.6848   -6.0739   22.5281 C   0  0  0  0  0  0
  -21.4017   -6.5640   23.8217 C   0  0  0  0  0  0
  -21.3659   -5.6790   24.9179 C   0  0  0  0  0  0
  -21.6040   -4.3050   24.7226 C   0  0  0  0  0  0
  -21.8819   -3.8148   23.4345 C   0  0  0  0  0  0
  -21.9194   -4.6967   22.3405 C   0  0  0  0  0  0
  -22.7835  -13.5206   21.1863 C   0  0  0  0  0  0
  -22.1660   -4.2146   21.0981 F   0  0  0  0  0  0
  -21.5628   -3.4540   25.7741 F   0  0  0  0  0  0
  -29.9715  -13.5985   20.3774 N   0  0  0  0  0  0
  -26.2936  -12.9396   20.3241 N   0  0  0  0  0  0
  -25.9347  -11.6539   20.5745 N   0  0  0  0  0  0
  -22.0479  -12.8199   22.0415 N   0  0  0  0  0  0
  -25.4148  -15.1921   20.4069 N   0  0  0  0  0  0
  -31.8016  -14.9034   20.2266 O   0  0  0  0  0  0
  -21.6639   -6.8885   21.4244 O   0  0  0  0  0  0
  -22.3515  -14.5518   20.6713 O   0  0  0  0  0  0
  -24.6359  -31.8508   23.1942 C   0  0  0  0  0  0
  -25.9163  -32.4731   23.8297 C   0  0  1  0  0  0
  -27.2190  -27.2214   20.1426 C   0  0  0  0  0  0
  -25.5944  -33.8533   24.2221 N   0  0  0  0  0  0
  -23.4361  -30.4717   21.5384 C   0  0  2  0  0  0
  -24.8830  -28.9073   20.1132 C   0  0  0  0  0  0
  -22.7530  -29.4575   22.4892 C   0  0  0  0  0  0
  -18.0291  -28.1408   22.8476 C   0  0  0  0  0  0
  -24.1481  -36.7279   23.2639 C   0  0  0  0  0  0
  -25.9847  -30.7489   21.3794 C   0  0  0  0  0  0
  -26.0555  -29.3653   20.7297 C   0  0  0  0  0  0
  -27.2276  -28.5364   20.7300 C   0  0  0  0  0  0
  -26.0233  -26.8356   19.5027 C   0  0  0  0  0  0
  -24.8744  -27.6512   19.4867 C   0  0  0  0  0  0
  -23.6579  -29.8026   20.1559 C   0  0  0  0  0  0
  -25.4110  -36.3062   24.0317 C   0  0  1  0  0  0
  -20.5899  -28.3715   23.1260 C   0  0  2  0  0  0
  -20.6789  -26.9426   22.5420 C   0  0  0  0  0  0
  -19.5766  -26.6394   21.5228 C   0  0  0  0  0  0
  -18.1933  -26.7949   22.1620 C   0  0  0  0  0  0
  -19.1551  -28.8877   23.2859 C   0  0  0  0  0  0
  -18.9470  -30.1469   23.8890 C   0  0  0  0  0  0
  -17.6471  -30.6597   24.0569 C   0  0  0  0  0  0
  -25.9062  -34.9432   23.5070 C   0  0  0  0  0  0
  -16.5355  -29.9101   23.6335 C   0  0  0  0  0  0
  -16.7281  -28.6525   23.0348 C   0  0  0  0  0  0
  -26.4520  -31.6572   25.0705 C   0  0  0  0  0  0
  -25.3720  -31.3730   26.1408 C   0  0  0  0  0  0
  -27.0359  -30.2980   24.6196 C   0  0  0  0  0  0
  -27.6067  -32.4307   25.7489 C   0  0  0  0  0  0
  -27.5571  -37.1800   24.8469 C   0  0  0  0  0  0
  -21.4235  -29.3046   22.3639 N   0  0  0  0  0  0
  -26.4285  -37.3768   23.9409 N   0  0  0  0  0  0
  -24.7054  -31.0418   22.0942 N   0  0  0  0  0  0
  -23.4211  -28.8112   23.3004 O   0  0  0  0  0  0
  -28.3027  -26.3033   20.1268 O   0  0  0  0  0  0
  -26.5632  -34.8914   22.4639 O   0  0  0  0  0  0
  -23.5498  -32.1363   23.7190 O   0  0  0  0  0  0
  -31.3274  -18.9274   22.4137 C   0  0  0  0  0  0
  -31.0384  -17.6355   21.9341 C   0  0  0  0  0  0
  -29.5071  -18.6497   20.3492 C   0  0  0  0  0  0
  -30.7590  -20.1086   21.8749 C   0  0  0  0  0  0
  -30.1209  -17.4226   20.8880 C   0  0  0  0  0  0
  -29.8020  -20.0202   20.8133 C   0  0  0  0  0  0
  -28.8193  -23.7825   20.1313 C   0  0  0  0  0  0
  -28.1258  -24.9323   20.5296 C   0  0  0  0  0  0
  -28.6280  -22.3874   20.7146 C   0  0  0  0  0  0
  -31.2441  -21.4465   22.4648 C   0  0  0  0  0  0
  -29.3255  -21.3014   20.1750 N   0  0  0  0  0  0
  -29.8032  -15.9925   20.5401 N   0  0  0  0  0  0
  -27.8506  -22.1816   21.6473 O   0  0  0  0  0  0
  -32.3575  -21.2913   23.1839 F   0  0  0  0  0  0
  -31.5333  -22.3429   21.5204 F   0  0  0  0  0  0
  -30.3213  -21.9544   23.2802 F   0  0  0  0  0  0
  -31.4808  -12.6648   19.1679 H   0  0  0  0  0  0
  -30.4179  -11.5529   19.9857 H   0  0  0  0  0  0
  -29.8201  -11.7296   17.5435 H   0  0  0  0  0  0
  -29.6222  -13.4565   17.6992 H   0  0  0  0  0  0
  -27.9339  -11.2704   18.9542 H   0  0  0  0  0  0
  -27.3859  -12.4654   17.8084 H   0  0  0  0  0  0
  -27.6161  -14.2444   19.4310 H   0  0  0  0  0  0
  -28.7490  -12.2322   21.4365 H   0  0  0  0  0  0
  -28.4079  -13.9135   21.7672 H   0  0  0  0  0  0
  -25.2780   -9.5667   22.4768 H   0  0  0  0  0  0
  -23.9993   -7.4633   22.7493 H   0  0  0  0  0  0
  -21.0850   -8.8784   19.8957 H   0  0  0  0  0  0
  -22.3731  -10.9669   19.6156 H   0  0  0  0  0  0
  -21.2010   -7.6147   23.9717 H   0  0  0  0  0  0
  -21.1479   -6.0522   25.9078 H   0  0  0  0  0  0
  -22.0600   -2.7607   23.2850 H   0  0  0  0  0  0
  -22.4085  -11.9840   22.4776 H   0  0  0  0  0  0
  -21.1100  -13.1227   22.2630 H   0  0  0  0  0  0
  -24.6360  -15.8348   20.5079 H   0  0  0  0  0  0
  -26.2474  -15.6372   20.0438 H   0  0  0  0  0  0
  -26.7220  -32.5360   23.1030 H   0  0  0  0  0  0
  -25.0085  -33.9657   25.0366 H   0  0  0  0  0  0
  -22.7344  -31.2954   21.3889 H   0  0  0  0  0  0
  -23.3743  -35.9611   23.3297 H   0  0  0  0  0  0
  -24.3585  -36.8916   22.2063 H   0  0  0  0  0  0
  -23.7232  -37.6472   23.6671 H   0  0  0  0  0  0
  -26.1169  -31.4947   20.5953 H   0  0  0  0  0  0
  -26.8664  -30.8086   22.0064 H   0  0  0  0  0  0
  -28.1283  -28.8847   21.2159 H   0  0  0  0  0  0
  -25.9690  -25.8684   19.0236 H   0  0  0  0  0  0
  -23.9813  -27.2928   18.9939 H   0  0  0  0  0  0
  -23.7884  -30.5794   19.4010 H   0  0  0  0  0  0
  -22.7745  -29.2436   19.8462 H   0  0  0  0  0  0
  -25.1294  -36.1900   25.0810 H   0  0  0  0  0  0
  -20.9993  -28.3306   24.1384 H   0  0  0  0  0  0
  -20.5716  -26.2323   23.3631 H   0  0  0  0  0  0
  -21.6649  -26.7459   22.1188 H   0  0  0  0  0  0
  -19.6928  -25.6313   21.1242 H   0  0  0  0  0  0
  -19.6708  -27.3215   20.6769 H   0  0  0  0  0  0
  -17.4219  -26.6707   21.4010 H   0  0  0  0  0  0
  -18.0304  -26.0110   22.9032 H   0  0  0  0  0  0
  -19.7942  -30.7292   24.2260 H   0  0  0  0  0  0
  -17.5017  -31.6274   24.5178 H   0  0  0  0  0  0
  -15.5352  -30.3001   23.7669 H   0  0  0  0  0  0
  -15.8680  -28.0845   22.7061 H   0  0  0  0  0  0
  -24.5945  -30.7014   25.7753 H   0  0  0  0  0  0
  -24.8841  -32.2893   26.4737 H   0  0  0  0  0  0
  -25.8027  -30.9003   27.0238 H   0  0  0  0  0  0
  -26.2936  -29.6730   24.1218 H   0  0  0  0  0  0
  -27.4054  -29.7239   25.4704 H   0  0  0  0  0  0
  -27.8813  -30.4265   23.9428 H   0  0  0  0  0  0
  -27.2696  -33.3657   26.1965 H   0  0  0  0  0  0
  -28.3937  -32.6769   25.0350 H   0  0  0  0  0  0
  -28.0650  -31.8476   26.5488 H   0  0  0  0  0  0
  -28.2585  -38.0100   24.7493 H   0  0  0  0  0  0
  -28.1060  -36.2622   24.6303 H   0  0  0  0  0  0
  -27.2287  -37.1469   25.8873 H   0  0  0  0  0  0
  -20.9439  -29.8782   21.6847 H   0  0  0  0  0  0
  -26.0150  -38.2831   24.1420 H   0  0  0  0  0  0
  -32.0322  -19.0055   23.2280 H   0  0  0  0  0  0
  -31.5222  -16.7968   22.4145 H   0  0  0  0  0  0
  -28.7982  -18.5407   19.5420 H   0  0  0  0  0  0
  -29.5766  -23.9028   19.3711 H   0  0  0  0  0  0
  -27.3490  -24.8614   21.2791 H   0  0  0  0  0  0
  -29.7853  -21.5127   19.3002 H   0  0  0  0  0  0
  -28.8187  -15.8000   20.4369 H   0  0  0  0  0  0
  1 25  1  0  0  0
  1 30  2  0  0  0
  1 82  1  0  0  0
  2  3  1  0  0  0
  2 25  1  0  0  0
  2 87  1  0  0  0
  2 88  1  0  0  0
  3  4  1  0  0  0
  3 89  1  0  0  0
  3 90  1  0  0  0
  4  5  1  0  0  0
  4 91  1  0  0  0
  4 92  1  0  0  0
  5  6  1  0  0  0
  5 26  1  0  0  0
  5 93  1  0  0  0
  6 25  1  0  0  0
  6 94  1  0  0  0
  6 95  1  0  0  0
  7  8  2  0  0  0
  7 26  1  0  0  0
  7 29  1  0  0  0
  8  9  1  0  0  0
  8 22  1  0  0  0
  9 10  1  0  0  0
  9 27  2  0  0  0
 10 11  2  0  0  0
 10 15  1  0  0  0
 11 12  1  0  0  0
 11 96  1  0  0  0
 12 13  2  0  0  0
 12 97  1  0  0  0
 13 14  1  0  0  0
 13 31  1  0  0  0
 14 15  2  0  0  0
 14 98  1  0  0  0
 15 99  1  0  0  0
 16 17  2  0  0  0
 16 21  1  0  0  0
 16 31  1  0  0  0
 17 18  1  0  0  0
 17100  1  0  0  0
 18 19  2  0  0  0
 18101  1  0  0  0
 19 20  1  0  0  0
 19 24  1  0  0  0
 20 21  2  0  0  0
 20102  1  0  0  0
 21 23  1  0  0  0
 22 28  1  0  0  0
 22 32  2  0  0  0
 26 27  1  0  0  0
 28103  1  0  0  0
 28104  1  0  0  0
 29105  1  0  0  0
 29106  1  0  0  0
 33 34  1  0  0  0
 33 66  1  0  0  0
 33 70  2  0  0  0
 34 36  1  0  0  0
 34 59  1  0  0  0
 34107  1  0  0  0
 35 44  2  0  0  0
 35 45  1  0  0  0
 35 68  1  0  0  0
 36 56  1  0  0  0
 36108  1  0  0  0
 37 39  1  0  0  0
 37 47  1  0  0  0
 37 66  1  0  0  0
 37109  1  0  0  0
 38 43  2  0  0  0
 38 46  1  0  0  0
 38 47  1  0  0  0
 39 64  1  0  0  0
 39 67  2  0  0  0
 40 52  1  0  0  0
 40 53  2  0  0  0
 40 58  1  0  0  0
 41110  1  0  0  0
 41111  1  0  0  0
 41112  1  0  0  0
 41 48  1  0  0  0
 42 43  1  0  0  0
 42 66  1  0  0  0
 42113  1  0  0  0
 42114  1  0  0  0
 43 44  1  0  0  0
 44115  1  0  0  0
 45 46  2  0  0  0
 45116  1  0  0  0
 46117  1  0  0  0
 47118  1  0  0  0
 47119  1  0  0  0
 48 56  1  0  0  0
 48 65  1  0  0  0
 48120  1  0  0  0
 49 50  1  0  0  0
 49 53  1  0  0  0
 49 64  1  0  0  0
 49121  1  0  0  0
 50 51  1  0  0  0
 50122  1  0  0  0
 50123  1  0  0  0
 51 52  1  0  0  0
 51124  1  0  0  0
 51125  1  0  0  0
 52126  1  0  0  0
 52127  1  0  0  0
 53 54  1  0  0  0
 54 55  2  0  0  0
 54128  1  0  0  0
 55 57  1  0  0  0
 55129  1  0  0  0
 56 69  2  0  0  0
 57 58  2  0  0  0
 57130  1  0  0  0
 58131  1  0  0  0
 59 60  1  0  0  0
 59 61  1  0  0  0
 59 62  1  0  0  0
 60132  1  0  0  0
 60133  1  0  0  0
 60134  1  0  0  0
 61135  1  0  0  0
 61136  1  0  0  0
 61137  1  0  0  0
 62138  1  0  0  0
 62139  1  0  0  0
 62140  1  0  0  0
 63 65  1  0  0  0
 63141  1  0  0  0
 63142  1  0  0  0
 63143  1  0  0  0
 64144  1  0  0  0
 65145  1  0  0  0
 68 78  1  0  0  0
 71 72  2  0  0  0
 71 74  1  0  0  0
 71146  1  0  0  0
 72 75  1  0  0  0
 72147  1  0  0  0
 73 75  2  0  0  0
 73 76  1  0  0  0
 73148  1  0  0  0
 74 76  2  0  0  0
 74 80  1  0  0  0
 75 82  1  0  0  0
 76 81  1  0  0  0
 77 78  2  0  0  0
 77 79  1  0  0  0
 77149  1  0  0  0
 78150  1  0  0  0
 79 81  1  0  0  0
 79 83  2  0  0  0
 80 84  1  0  0  0
 80 85  1  0  0  0
 80 86  1  0  0  0
 81151  1  0  0  0
 82152  1  0  0  0
M  ISO  4   1 100  68 101  78 101  82 100
M  END
> <chiral flag>
0

> <version>
0

> <s_m_source_file>
/data/baiqing/PycharmProjects/Reinvent-master-3.2/result/LINK_invent/BTK/process_docking_weight1_custom_product_contain_oxygen_bond_distance_aromatic_linkinvent_7_9_3/rearranged_h_0060.sdf

> <i_m_source_file_index>
87

> <r_mmod_Potential_Energy-OPLS-2005>
290.079650878906

> <r_mmod_Stretch_Energy-OPLS-2005>
155.328598022461

> <r_mmod_Bend_Energy-OPLS-2005>
170.401412963867

> <r_mmod_Torsional_Energy-OPLS-2005>
273.464660644531

> <r_mmod_Improper_Torsional_Energy-OPLS-2005>
9.15348434448242

> <r_mmod_Van_der_Waal_Energy-OPLS-2005>
138.851135253906

> <r_mmod_Electrostatic_Energy-OPLS-2005>
-347.3515625

> <r_mmod_Solvation_Energy-OPLS-2005>
-230.290008544922

> <b_mmod_Minimization_Converged-OPLS-2005>
0

> <r_mmod_RMS_Derivative-OPLS-2005>
2.42927646636963

$$$$
87
                    3D
 Structure written by MMmdl.
154162  0  0  1  0            999 V2000
  -30.6794  -14.4966   20.5251 C   0  0  0  0  0  0
  -30.4145  -12.3115   19.4238 C   0  0  0  0  0  0
  -29.4890  -12.5091   18.2049 C   0  0  0  0  0  0
  -28.0108  -12.3691   18.6163 C   0  0  0  0  0  0
  -27.6549  -13.2100   19.8723 C   0  0  2  0  0  0
  -28.6987  -13.0099   20.9953 C   0  0  0  0  0  0
  -25.2559  -13.8172   20.5710 C   0  0  0  0  0  0
  -24.1811  -13.0448   20.9196 C   0  0  0  0  0  0
  -24.6353  -11.6913   20.8730 C   0  0  0  0  0  0
  -23.9036  -10.4290   21.0391 C   0  0  0  0  0  0
  -24.3607   -9.4208   21.9166 C   0  0  0  0  0  0
  -23.6292   -8.2247   22.0750 C   0  0  0  0  0  0
  -22.4274   -8.0283   21.3543 C   0  0  0  0  0  0
  -21.9886   -9.0249   20.4665 C   0  0  0  0  0  0
  -22.7202  -10.2126   20.3057 C   0  0  0  0  0  0
  -21.6852   -6.0726   22.5284 C   0  0  0  0  0  0
  -21.4012   -6.5632   23.8212 C   0  0  0  0  0  0
  -21.3667   -5.6790   24.9180 C   0  0  0  0  0  0
  -21.6047   -4.3061   24.7229 C   0  0  0  0  0  0
  -21.8819   -3.8138   23.4351 C   0  0  0  0  0  0
  -21.9186   -4.6954   22.3401 C   0  0  0  0  0  0
  -22.7837  -13.5251   21.1861 C   0  0  0  0  0  0
  -22.1660   -4.2136   21.0981 F   0  0  0  0  0  0
  -21.5628   -3.4534   25.7737 F   0  0  0  0  0  0
  -30.0288  -13.3048   20.4401 N   0  0  0  0  0  0
  -26.2985  -12.9337   20.3380 N   0  0  0  0  0  0
  -25.9284  -11.6484   20.5765 N   0  0  0  0  0  0
  -22.0476  -12.8251   22.0432 N   0  0  0  0  0  0
  -25.4284  -15.1889   20.4113 N   0  0  0  0  0  0
  -31.8316  -14.6573   20.1125 O   0  0  0  0  0  0
  -21.6648   -6.8874   21.4252 O   0  0  0  0  0  0
  -22.3529  -14.5554   20.6710 O   0  0  0  0  0  0
  -24.6128  -31.8681   23.2096 C   0  0  0  0  0  0
  -25.9027  -32.4834   23.8394 C   0  0  1  0  0  0
  -27.2436  -27.4352   20.1096 C   0  0  0  0  0  0
  -25.5887  -33.8635   24.2330 N   0  0  0  0  0  0
  -23.4033  -30.4915   21.5481 C   0  0  2  0  0  0
  -24.8535  -28.9522   20.1199 C   0  0  0  0  0  0
  -22.7388  -29.4685   22.4979 C   0  0  0  0  0  0
  -18.0263  -28.1408   22.8500 C   0  0  0  0  0  0
  -24.1475  -36.7292   23.2645 C   0  0  0  0  0  0
  -25.9307  -30.8365   21.3632 C   0  0  0  0  0  0
  -26.0131  -29.4696   20.7135 C   0  0  0  0  0  0
  -27.2141  -28.7204   20.7023 C   0  0  0  0  0  0
  -26.0682  -26.9284   19.5173 C   0  0  0  0  0  0
  -24.8760  -27.6800   19.5205 C   0  0  0  0  0  0
  -23.6140  -29.8194   20.1651 C   0  0  0  0  0  0
  -25.4102  -36.3121   24.0345 C   0  0  1  0  0  0
  -20.5849  -28.3697   23.1316 C   0  0  2  0  0  0
  -20.6766  -26.9433   22.5430 C   0  0  0  0  0  0
  -19.5743  -26.6400   21.5232 C   0  0  0  0  0  0
  -18.1917  -26.7947   22.1635 C   0  0  0  0  0  0
  -19.1518  -28.8863   23.2912 C   0  0  0  0  0  0
  -18.9454  -30.1460   23.8932 C   0  0  0  0  0  0
  -17.6466  -30.6620   24.0581 C   0  0  0  0  0  0
  -25.9023  -34.9490   23.5135 C   0  0  0  0  0  0
  -16.5350  -29.9129   23.6341 C   0  0  0  0  0  0
  -16.7254  -28.6543   23.0366 C   0  0  0  0  0  0
  -26.4465  -31.6618   25.0721 C   0  0  0  0  0  0
  -25.3719  -31.3739   26.1461 C   0  0  0  0  0  0
  -27.0314  -30.3061   24.6115 C   0  0  0  0  0  0
  -27.6042  -32.4340   25.7478 C   0  0  0  0  0  0
  -27.5579  -37.1807   24.8474 C   0  0  0  0  0  0
  -21.4112  -29.3061   22.3706 N   0  0  0  0  0  0
  -26.4295  -37.3803   23.9415 N   0  0  0  0  0  0
  -24.6672  -31.0780   22.0992 N   0  0  0  0  0  0
  -23.4147  -28.8238   23.3045 O   0  0  0  0  0  0
  -28.4017  -26.6887   20.0747 O   0  0  0  0  0  0
  -26.5604  -34.8946   22.4707 O   0  0  0  0  0  0
  -23.5320  -32.1454   23.7487 O   0  0  0  0  0  0
  -29.5737  -19.1200   23.4135 C   0  0  0  0  0  0
  -29.7889  -17.9843   22.6088 C   0  0  0  0  0  0
  -29.3654  -20.3877   22.8318 C   0  0  0  0  0  0
  -29.5863  -19.3918   20.6287 C   0  0  0  0  0  0
  -29.7988  -18.1102   21.2046 C   0  0  0  0  0  0
  -29.3764  -20.5491   21.4247 C   0  0  0  0  0  0
  -29.2053  -23.0768   21.2590 C   0  0  0  0  0  0
  -30.1092  -16.9152   20.2936 C   0  0  0  0  0  0
  -28.9037  -24.2409   20.2826 C   0  0  0  0  0  0
  -28.4443  -25.5606   20.9709 C   0  0  0  0  0  0
  -29.1679  -21.8145   20.7668 N   0  0  0  0  0  0
  -29.8996  -15.5552   20.8314 N   0  0  0  0  0  0
  -29.4969  -23.3378   22.4284 O   0  0  0  0  0  0
  -31.4588  -12.4064   19.1200 H   0  0  0  0  0  0
  -30.3086  -11.3033   19.8249 H   0  0  0  0  0  0
  -29.7291  -11.7845   17.4265 H   0  0  0  0  0  0
  -29.6600  -13.4953   17.7669 H   0  0  0  0  0  0
  -27.8199  -11.3138   18.8107 H   0  0  0  0  0  0
  -27.3610  -12.6456   17.7852 H   0  0  0  0  0  0
  -27.6937  -14.2558   19.5698 H   0  0  0  0  0  0
  -28.6731  -11.9838   21.3631 H   0  0  0  0  0  0
  -28.4678  -13.6360   21.8575 H   0  0  0  0  0  0
  -25.2754   -9.5695   22.4748 H   0  0  0  0  0  0
  -24.0007   -7.4635   22.7460 H   0  0  0  0  0  0
  -21.0818   -8.8764   19.8979 H   0  0  0  0  0  0
  -22.3647  -10.9676   19.6179 H   0  0  0  0  0  0
  -21.2013   -7.6138   23.9717 H   0  0  0  0  0  0
  -21.1493   -6.0519   25.9088 H   0  0  0  0  0  0
  -22.0589   -2.7592   23.2849 H   0  0  0  0  0  0
  -22.4075  -11.9905   22.4830 H   0  0  0  0  0  0
  -21.1100  -13.1307   22.2653 H   0  0  0  0  0  0
  -24.6662  -15.8484   20.5303 H   0  0  0  0  0  0
  -26.2778  -15.6278   20.0805 H   0  0  0  0  0  0
  -26.7110  -32.5556   23.1173 H   0  0  0  0  0  0
  -25.0047  -33.9804   25.0485 H   0  0  0  0  0  0
  -22.6925  -31.3084   21.4058 H   0  0  0  0  0  0
  -23.3750  -35.9614   23.3332 H   0  0  0  0  0  0
  -24.3568  -36.8866   22.2053 H   0  0  0  0  0  0
  -23.7206  -37.6497   23.6635 H   0  0  0  0  0  0
  -26.0446  -31.6042   20.5969 H   0  0  0  0  0  0
  -26.8152  -30.8874   21.9854 H   0  0  0  0  0  0
  -28.1120  -29.1204   21.1543 H   0  0  0  0  0  0
  -26.0784  -25.9529   19.0515 H   0  0  0  0  0  0
  -23.9849  -27.2712   19.0633 H   0  0  0  0  0  0
  -23.7252  -30.5936   19.4046 H   0  0  0  0  0  0
  -22.7361  -29.2412   19.8698 H   0  0  0  0  0  0
  -25.1279  -36.2000   25.0842 H   0  0  0  0  0  0
  -20.9953  -28.3304   24.1431 H   0  0  0  0  0  0
  -20.5685  -26.2322   23.3637 H   0  0  0  0  0  0
  -21.6640  -26.7511   22.1217 H   0  0  0  0  0  0
  -19.6923  -25.6310   21.1278 H   0  0  0  0  0  0
  -19.6686  -27.3197   20.6754 H   0  0  0  0  0  0
  -17.4187  -26.6693   21.4036 H   0  0  0  0  0  0
  -18.0327  -26.0096   22.9036 H   0  0  0  0  0  0
  -19.7933  -30.7254   24.2326 H   0  0  0  0  0  0
  -17.5039  -31.6305   24.5170 H   0  0  0  0  0  0
  -15.5363  -30.3070   23.7638 H   0  0  0  0  0  0
  -15.8650  -28.0882   22.7089 H   0  0  0  0  0  0
  -24.5874  -30.7119   25.7787 H   0  0  0  0  0  0
  -24.8932  -32.2904   26.4920 H   0  0  0  0  0  0
  -25.8041  -30.8887   27.0218 H   0  0  0  0  0  0
  -26.2897  -29.6815   24.1123 H   0  0  0  0  0  0
  -27.4038  -29.7313   25.4605 H   0  0  0  0  0  0
  -27.8743  -30.4383   23.9324 H   0  0  0  0  0  0
  -27.2670  -33.3633   26.2095 H   0  0  0  0  0  0
  -28.3832  -32.6914   25.0283 H   0  0  0  0  0  0
  -28.0743  -31.8438   26.5359 H   0  0  0  0  0  0
  -28.2620  -38.0083   24.7518 H   0  0  0  0  0  0
  -28.1048  -36.2617   24.6304 H   0  0  0  0  0  0
  -27.2299  -37.1467   25.8880 H   0  0  0  0  0  0
  -20.9271  -29.8761   21.6900 H   0  0  0  0  0  0
  -26.0179  -38.2882   24.1426 H   0  0  0  0  0  0
  -29.5738  -19.0215   24.4894 H   0  0  0  0  0  0
  -29.9656  -17.0288   23.0817 H   0  0  0  0  0  0
  -29.1928  -21.2201   23.4978 H   0  0  0  0  0  0
  -29.6021  -19.4892   19.5516 H   0  0  0  0  0  0
  -29.4949  -17.0017   19.3973 H   0  0  0  0  0  0
  -31.1389  -17.0451   19.9569 H   0  0  0  0  0  0
  -28.1479  -23.9185   19.5644 H   0  0  0  0  0  0
  -29.8148  -24.4313   19.7163 H   0  0  0  0  0  0
  -29.1418  -25.8267   21.7673 H   0  0  0  0  0  0
  -27.4843  -25.3950   21.4623 H   0  0  0  0  0  0
  -28.9973  -21.7595   19.7718 H   0  0  0  0  0  0
  -28.9682  -15.3353   21.1490 H   0  0  0  0  0  0
  1 25  1  0  0  0
  1 30  2  0  0  0
  1 82  1  0  0  0
  2  3  1  0  0  0
  2 25  1  0  0  0
  2 84  1  0  0  0
  2 85  1  0  0  0
  3  4  1  0  0  0
  3 86  1  0  0  0
  3 87  1  0  0  0
  4  5  1  0  0  0
  4 88  1  0  0  0
  4 89  1  0  0  0
  5  6  1  0  0  0
  5 26  1  0  0  0
  5 90  1  0  0  0
  6 25  1  0  0  0
  6 91  1  0  0  0
  6 92  1  0  0  0
  7  8  2  0  0  0
  7 26  1  0  0  0
  7 29  1  0  0  0
  8  9  1  0  0  0
  8 22  1  0  0  0
  9 10  1  0  0  0
  9 27  2  0  0  0
 10 11  2  0  0  0
 10 15  1  0  0  0
 11 12  1  0  0  0
 11 93  1  0  0  0
 12 13  2  0  0  0
 12 94  1  0  0  0
 13 14  1  0  0  0
 13 31  1  0  0  0
 14 15  2  0  0  0
 14 95  1  0  0  0
 15 96  1  0  0  0
 16 17  2  0  0  0
 16 21  1  0  0  0
 16 31  1  0  0  0
 17 18  1  0  0  0
 17 97  1  0  0  0
 18 19  2  0  0  0
 18 98  1  0  0  0
 19 20  1  0  0  0
 19 24  1  0  0  0
 20 21  2  0  0  0
 20 99  1  0  0  0
 21 23  1  0  0  0
 22 28  1  0  0  0
 22 32  2  0  0  0
 26 27  1  0  0  0
 28100  1  0  0  0
 28101  1  0  0  0
 29102  1  0  0  0
 29103  1  0  0  0
 33 34  1  0  0  0
 33 66  1  0  0  0
 33 70  2  0  0  0
 34 36  1  0  0  0
 34 59  1  0  0  0
 34104  1  0  0  0
 35 44  2  0  0  0
 35 45  1  0  0  0
 35 68  1  0  0  0
 36 56  1  0  0  0
 36105  1  0  0  0
 37 39  1  0  0  0
 37 47  1  0  0  0
 37 66  1  0  0  0
 37106  1  0  0  0
 38 43  2  0  0  0
 38 46  1  0  0  0
 38 47  1  0  0  0
 39 64  1  0  0  0
 39 67  2  0  0  0
 40 52  1  0  0  0
 40 53  2  0  0  0
 40 58  1  0  0  0
 41107  1  0  0  0
 41108  1  0  0  0
 41109  1  0  0  0
 41 48  1  0  0  0
 42 43  1  0  0  0
 42 66  1  0  0  0
 42110  1  0  0  0
 42111  1  0  0  0
 43 44  1  0  0  0
 44112  1  0  0  0
 45 46  2  0  0  0
 45113  1  0  0  0
 46114  1  0  0  0
 47115  1  0  0  0
 47116  1  0  0  0
 48 56  1  0  0  0
 48 65  1  0  0  0
 48117  1  0  0  0
 49 50  1  0  0  0
 49 53  1  0  0  0
 49 64  1  0  0  0
 49118  1  0  0  0
 50 51  1  0  0  0
 50119  1  0  0  0
 50120  1  0  0  0
 51 52  1  0  0  0
 51121  1  0  0  0
 51122  1  0  0  0
 52123  1  0  0  0
 52124  1  0  0  0
 53 54  1  0  0  0
 54 55  2  0  0  0
 54125  1  0  0  0
 55 57  1  0  0  0
 55126  1  0  0  0
 56 69  2  0  0  0
 57 58  2  0  0  0
 57127  1  0  0  0
 58128  1  0  0  0
 59 60  1  0  0  0
 59 61  1  0  0  0
 59 62  1  0  0  0
 60129  1  0  0  0
 60130  1  0  0  0
 60131  1  0  0  0
 61132  1  0  0  0
 61133  1  0  0  0
 61134  1  0  0  0
 62135  1  0  0  0
 62136  1  0  0  0
 62137  1  0  0  0
 63 65  1  0  0  0
 63138  1  0  0  0
 63139  1  0  0  0
 63140  1  0  0  0
 64141  1  0  0  0
 65142  1  0  0  0
 68 80  1  0  0  0
 71 72  2  0  0  0
 71 73  1  0  0  0
 71143  1  0  0  0
 72 75  1  0  0  0
 72144  1  0  0  0
 73 76  2  0  0  0
 73145  1  0  0  0
 74 75  2  0  0  0
 74 76  1  0  0  0
 74146  1  0  0  0
 75 78  1  0  0  0
 76 81  1  0  0  0
 77 79  1  0  0  0
 77 81  1  0  0  0
 77 83  2  0  0  0
 78 82  1  0  0  0
 78147  1  0  0  0
 78148  1  0  0  0
 79 80  1  0  0  0
 79149  1  0  0  0
 79150  1  0  0  0
 80151  1  0  0  0
 80152  1  0  0  0
 81153  1  0  0  0
 82154  1  0  0  0
M  ISO  4   1 100  68 101  80 101  82 100
M  END
> <chiral flag>
0

> <version>
0

> <s_m_source_file>
/data/baiqing/PycharmProjects/Reinvent-master-3.2/result/LINK_invent/BTK/process_docking_weight1_custom_product_contain_oxygen_bond_distance_aromatic_linkinvent_7_9_3/rearranged_h_0060.sdf

> <i_m_source_file_index>
88

> <r_mmod_Potential_Energy-OPLS-2005>
-126.76969909668

> <r_mmod_Stretch_Energy-OPLS-2005>
40.9646186828613

> <r_mmod_Bend_Energy-OPLS-2005>
98.7053756713867

> <r_mmod_Torsional_Energy-OPLS-2005>
239.006896972656

> <r_mmod_Improper_Torsional_Energy-OPLS-2005>
8.02659702301025

> <r_mmod_Van_der_Waal_Energy-OPLS-2005>
153.695785522461

> <r_mmod_Electrostatic_Energy-OPLS-2005>
-448.201568603516

> <r_mmod_Solvation_Energy-OPLS-2005>
-233.515167236328

> <b_mmod_Minimization_Converged-OPLS-2005>
0

> <r_mmod_RMS_Derivative-OPLS-2005>
3.03182721138

$$$$
88
                    3D
 Structure written by MMmdl.
162170  0  0  1  0            999 V2000
  -30.7252  -14.4895   20.5677 C   0  0  0  0  0  0
  -30.4142  -12.3184   19.4319 C   0  0  0  0  0  0
  -29.4931  -12.5033   18.2098 C   0  0  0  0  0  0
  -28.0155  -12.3627   18.6213 C   0  0  0  0  0  0
  -27.6578  -13.2148   19.8692 C   0  0  2  0  0  0
  -28.7007  -13.0315   20.9952 C   0  0  0  0  0  0
  -25.2572  -13.8180   20.5678 C   0  0  0  0  0  0
  -24.1838  -13.0442   20.9183 C   0  0  0  0  0  0
  -24.6402  -11.6912   20.8742 C   0  0  0  0  0  0
  -23.9073  -10.4292   21.0404 C   0  0  0  0  0  0
  -24.3622   -9.4209   21.9185 C   0  0  0  0  0  0
  -23.6296   -8.2246   22.0755 C   0  0  0  0  0  0
  -22.4279   -8.0283   21.3542 C   0  0  0  0  0  0
  -21.9916   -9.0258   20.4645 C   0  0  0  0  0  0
  -22.7246  -10.2136   20.3054 C   0  0  0  0  0  0
  -21.6856   -6.0744   22.5282 C   0  0  0  0  0  0
  -21.4010   -6.5645   23.8216 C   0  0  0  0  0  0
  -21.3658   -5.6795   24.9178 C   0  0  0  0  0  0
  -21.6043   -4.3058   24.7226 C   0  0  0  0  0  0
  -21.8822   -3.8152   23.4346 C   0  0  0  0  0  0
  -21.9191   -4.6971   22.3403 C   0  0  0  0  0  0
  -22.7857  -13.5233   21.1847 C   0  0  0  0  0  0
  -22.1663   -4.2157   21.0981 F   0  0  0  0  0  0
  -21.5628   -3.4541   25.7737 F   0  0  0  0  0  0
  -30.0287  -13.3257   20.4354 N   0  0  0  0  0  0
  -26.3010  -12.9364   20.3350 N   0  0  0  0  0  0
  -25.9329  -11.6514   20.5768 N   0  0  0  0  0  0
  -22.0497  -12.8220   22.0397 N   0  0  0  0  0  0
  -25.4287  -15.1902   20.4074 N   0  0  0  0  0  0
  -31.8591  -14.6233   20.0997 O   0  0  0  0  0  0
  -21.6639   -6.8883   21.4242 O   0  0  0  0  0  0
  -22.3538  -14.5541   20.6700 O   0  0  0  0  0  0
  -24.6197  -31.8671   23.2122 C   0  0  0  0  0  0
  -25.9082  -32.4821   23.8411 C   0  0  1  0  0  0
  -27.2208  -27.3964   20.0964 C   0  0  0  0  0  0
  -25.5930  -33.8619   24.2339 N   0  0  0  0  0  0
  -23.4080  -30.4967   21.5524 C   0  0  2  0  0  0
  -24.8514  -28.9701   20.1095 C   0  0  0  0  0  0
  -22.7438  -29.4667   22.4955 C   0  0  0  0  0  0
  -18.0281  -28.1389   22.8486 C   0  0  0  0  0  0
  -24.1486  -36.7295   23.2638 C   0  0  0  0  0  0
  -25.9446  -30.8200   21.3761 C   0  0  0  0  0  0
  -26.0156  -29.4554   20.7170 C   0  0  0  0  0  0
  -27.2007  -28.6753   20.7120 C   0  0  0  0  0  0
  -26.0368  -26.9584   19.4508 C   0  0  0  0  0  0
  -24.8597  -27.7228   19.4725 C   0  0  0  0  0  0
  -23.6178  -29.8422   20.1625 C   0  0  0  0  0  0
  -25.4106  -36.3105   24.0340 C   0  0  1  0  0  0
  -20.5883  -28.3677   23.1303 C   0  0  2  0  0  0
  -20.6781  -26.9409   22.5410 C   0  0  0  0  0  0
  -19.5751  -26.6383   21.5222 C   0  0  0  0  0  0
  -18.1928  -26.7938   22.1619 C   0  0  0  0  0  0
  -19.1537  -28.8844   23.2900 C   0  0  0  0  0  0
  -18.9465  -30.1453   23.8909 C   0  0  0  0  0  0
  -17.6466  -30.6593   24.0568 C   0  0  0  0  0  0
  -25.9040  -34.9469   23.5130 C   0  0  0  0  0  0
  -16.5349  -29.9096   23.6330 C   0  0  0  0  0  0
  -16.7267  -28.6514   23.0347 C   0  0  0  0  0  0
  -26.4494  -31.6601   25.0742 C   0  0  0  0  0  0
  -25.3750  -31.3710   26.1480 C   0  0  0  0  0  0
  -27.0335  -30.3044   24.6133 C   0  0  0  0  0  0
  -27.6065  -32.4324   25.7503 C   0  0  0  0  0  0
  -27.5582  -37.1801   24.8468 C   0  0  0  0  0  0
  -21.4162  -29.3044   22.3697 N   0  0  0  0  0  0
  -26.4286  -37.3795   23.9416 N   0  0  0  0  0  0
  -24.6761  -31.0760   22.1042 N   0  0  0  0  0  0
  -23.4200  -28.8198   23.3001 O   0  0  0  0  0  0
  -28.3600  -26.5983   20.1529 O   0  0  0  0  0  0
  -26.5593  -34.8929   22.4687 O   0  0  0  0  0  0
  -23.5380  -32.1421   23.7502 O   0  0  0  0  0  0
  -32.3544  -18.4624   21.7217 C   0  0  0  0  0  0
  -31.8596  -17.1487   21.6667 C   0  0  0  0  0  0
  -29.7222  -18.0061   20.9028 C   0  0  0  0  0  0
  -30.2013  -19.3520   20.9508 C   0  0  0  0  0  0
  -31.5603  -19.5640   21.3361 C   0  0  0  0  0  0
  -30.5477  -16.8930   21.2154 C   0  0  0  0  0  0
  -29.2643  -20.4740   20.5179 C   0  0  0  0  0  0
  -29.0741  -24.2051   20.6312 C   0  0  0  0  0  0
  -32.2389  -20.9286   21.3269 C   0  0  0  0  0  0
  -26.6996  -21.6513   22.4844 C   0  0  0  0  0  0
  -28.1684  -25.1886   19.8486 C   0  0  0  0  0  0
  -27.5745  -22.8918   22.2421 C   0  0  0  0  0  0
  -28.4355  -22.8188   20.9583 C   0  0  2  0  0  0
  -30.0566  -15.5460   21.0923 N   0  0  0  0  0  0
  -29.4012  -21.6998   21.0687 N   0  0  0  0  0  0
  -28.3490  -20.2225   19.7309 O   0  0  0  0  0  0
  -30.2182  -24.5206   20.9742 O   0  0  0  0  0  0
  -31.4601  -12.4000   19.1319 H   0  0  0  0  0  0
  -30.3044  -11.3157   19.8473 H   0  0  0  0  0  0
  -29.7382  -11.7712   17.4396 H   0  0  0  0  0  0
  -29.6610  -13.4849   17.7638 H   0  0  0  0  0  0
  -27.8297  -11.3078   18.8270 H   0  0  0  0  0  0
  -27.3651  -12.6274   17.7866 H   0  0  0  0  0  0
  -27.6910  -14.2579   19.5527 H   0  0  0  0  0  0
  -28.6800  -12.0073   21.3703 H   0  0  0  0  0  0
  -28.4633  -13.6642   21.8512 H   0  0  0  0  0  0
  -25.2770   -9.5688   22.4753 H   0  0  0  0  0  0
  -24.0012   -7.4637   22.7472 H   0  0  0  0  0  0
  -21.0851   -8.8775   19.8945 H   0  0  0  0  0  0
  -22.3710  -10.9673   19.6158 H   0  0  0  0  0  0
  -21.1998   -7.6154   23.9723 H   0  0  0  0  0  0
  -21.1476   -6.0525   25.9081 H   0  0  0  0  0  0
  -22.0599   -2.7615   23.2844 H   0  0  0  0  0  0
  -22.4108  -11.9873   22.4774 H   0  0  0  0  0  0
  -21.1116  -13.1243   22.2600 H   0  0  0  0  0  0
  -24.6599  -15.8444   20.5051 H   0  0  0  0  0  0
  -26.2783  -15.6270   20.0737 H   0  0  0  0  0  0
  -26.7144  -32.5506   23.1158 H   0  0  0  0  0  0
  -25.0124  -33.9793   25.0517 H   0  0  0  0  0  0
  -22.6991  -31.3164   21.4191 H   0  0  0  0  0  0
  -23.3762  -35.9619   23.3307 H   0  0  0  0  0  0
  -24.3583  -36.8896   22.2054 H   0  0  0  0  0  0
  -23.7229  -37.6496   23.6641 H   0  0  0  0  0  0
  -26.0734  -31.5888   20.6124 H   0  0  0  0  0  0
  -26.8292  -30.8622   22.0002 H   0  0  0  0  0  0
  -28.0926  -29.0422   21.2005 H   0  0  0  0  0  0
  -25.9823  -26.0236   18.9147 H   0  0  0  0  0  0
  -23.9701  -27.3504   18.9841 H   0  0  0  0  0  0
  -23.7355  -30.6253   19.4128 H   0  0  0  0  0  0
  -22.7397  -29.2716   19.8554 H   0  0  0  0  0  0
  -25.1292  -36.1961   25.0834 H   0  0  0  0  0  0
  -20.9972  -28.3237   24.1426 H   0  0  0  0  0  0
  -20.5713  -26.2280   23.3598 H   0  0  0  0  0  0
  -21.6649  -26.7464   22.1184 H   0  0  0  0  0  0
  -19.6916  -25.6303   21.1232 H   0  0  0  0  0  0
  -19.6702  -27.3209   20.6771 H   0  0  0  0  0  0
  -17.4206  -26.6691   21.4006 H   0  0  0  0  0  0
  -18.0314  -26.0091   22.9023 H   0  0  0  0  0  0
  -19.7946  -30.7263   24.2278 H   0  0  0  0  0  0
  -17.5029  -31.6282   24.5159 H   0  0  0  0  0  0
  -15.5355  -30.3004   23.7679 H   0  0  0  0  0  0
  -15.8660  -28.0847   22.7053 H   0  0  0  0  0  0
  -24.5921  -30.7072   25.7797 H   0  0  0  0  0  0
  -24.8962  -32.2880   26.4928 H   0  0  0  0  0  0
  -25.8100  -30.8857   27.0228 H   0  0  0  0  0  0
  -26.2888  -29.6796   24.1192 H   0  0  0  0  0  0
  -27.4119  -29.7288   25.4590 H   0  0  0  0  0  0
  -27.8720  -30.4378   23.9295 H   0  0  0  0  0  0
  -27.2683  -33.3618   26.2096 H   0  0  0  0  0  0
  -28.3867  -32.6884   25.0322 H   0  0  0  0  0  0
  -28.0741  -31.8438   26.5406 H   0  0  0  0  0  0
  -28.2591  -38.0107   24.7535 H   0  0  0  0  0  0
  -28.1086  -36.2639   24.6266 H   0  0  0  0  0  0
  -27.2304  -37.1419   25.8872 H   0  0  0  0  0  0
  -20.9315  -29.8765   21.6923 H   0  0  0  0  0  0
  -26.0170  -38.2868   24.1436 H   0  0  0  0  0  0
  -33.3765  -18.6129   22.0420 H   0  0  0  0  0  0
  -32.5156  -16.3371   21.9506 H   0  0  0  0  0  0
  -28.7056  -17.8257   20.5808 H   0  0  0  0  0  0
  -33.3238  -20.8281   21.3653 H   0  0  0  0  0  0
  -31.9375  -21.5206   22.1907 H   0  0  0  0  0  0
  -32.0117  -21.4810   20.4144 H   0  0  0  0  0  0
  -26.0456  -21.8030   23.3433 H   0  0  0  0  0  0
  -27.2998  -20.7636   22.6880 H   0  0  0  0  0  0
  -26.0691  -21.4367   21.6206 H   0  0  0  0  0  0
  -27.1587  -24.8697   20.0998 H   0  0  0  0  0  0
  -28.3078  -25.0264   18.7796 H   0  0  0  0  0  0
  -28.2141  -23.0583   23.1109 H   0  0  0  0  0  0
  -26.9158  -23.7609   22.1919 H   0  0  0  0  0  0
  -27.7568  -22.6035   20.1313 H   0  0  0  0  0  0
  -29.0808  -15.3904   21.2939 H   0  0  0  0  0  0
  -30.1878  -21.8418   21.6864 H   0  0  0  0  0  0
  1 25  1  0  0  0
  1 30  2  0  0  0
  1 84  1  0  0  0
  2  3  1  0  0  0
  2 25  1  0  0  0
  2 88  1  0  0  0
  2 89  1  0  0  0
  3  4  1  0  0  0
  3 90  1  0  0  0
  3 91  1  0  0  0
  4  5  1  0  0  0
  4 92  1  0  0  0
  4 93  1  0  0  0
  5  6  1  0  0  0
  5 26  1  0  0  0
  5 94  1  0  0  0
  6 25  1  0  0  0
  6 95  1  0  0  0
  6 96  1  0  0  0
  7  8  2  0  0  0
  7 26  1  0  0  0
  7 29  1  0  0  0
  8  9  1  0  0  0
  8 22  1  0  0  0
  9 10  1  0  0  0
  9 27  2  0  0  0
 10 11  2  0  0  0
 10 15  1  0  0  0
 11 12  1  0  0  0
 11 97  1  0  0  0
 12 13  2  0  0  0
 12 98  1  0  0  0
 13 14  1  0  0  0
 13 31  1  0  0  0
 14 15  2  0  0  0
 14 99  1  0  0  0
 15100  1  0  0  0
 16 17  2  0  0  0
 16 21  1  0  0  0
 16 31  1  0  0  0
 17 18  1  0  0  0
 17101  1  0  0  0
 18 19  2  0  0  0
 18102  1  0  0  0
 19 20  1  0  0  0
 19 24  1  0  0  0
 20 21  2  0  0  0
 20103  1  0  0  0
 21 23  1  0  0  0
 22 28  1  0  0  0
 22 32  2  0  0  0
 26 27  1  0  0  0
 28104  1  0  0  0
 28105  1  0  0  0
 29106  1  0  0  0
 29107  1  0  0  0
 33 34  1  0  0  0
 33 66  1  0  0  0
 33 70  2  0  0  0
 34 36  1  0  0  0
 34 59  1  0  0  0
 34108  1  0  0  0
 35 44  2  0  0  0
 35 45  1  0  0  0
 35 68  1  0  0  0
 36 56  1  0  0  0
 36109  1  0  0  0
 37 39  1  0  0  0
 37 47  1  0  0  0
 37 66  1  0  0  0
 37110  1  0  0  0
 38 43  2  0  0  0
 38 46  1  0  0  0
 38 47  1  0  0  0
 39 64  1  0  0  0
 39 67  2  0  0  0
 40 52  1  0  0  0
 40 53  2  0  0  0
 40 58  1  0  0  0
 41111  1  0  0  0
 41112  1  0  0  0
 41113  1  0  0  0
 41 48  1  0  0  0
 42 43  1  0  0  0
 42 66  1  0  0  0
 42114  1  0  0  0
 42115  1  0  0  0
 43 44  1  0  0  0
 44116  1  0  0  0
 45 46  2  0  0  0
 45117  1  0  0  0
 46118  1  0  0  0
 47119  1  0  0  0
 47120  1  0  0  0
 48 56  1  0  0  0
 48 65  1  0  0  0
 48121  1  0  0  0
 49 50  1  0  0  0
 49 53  1  0  0  0
 49 64  1  0  0  0
 49122  1  0  0  0
 50 51  1  0  0  0
 50123  1  0  0  0
 50124  1  0  0  0
 51 52  1  0  0  0
 51125  1  0  0  0
 51126  1  0  0  0
 52127  1  0  0  0
 52128  1  0  0  0
 53 54  1  0  0  0
 54 55  2  0  0  0
 54129  1  0  0  0
 55 57  1  0  0  0
 55130  1  0  0  0
 56 69  2  0  0  0
 57 58  2  0  0  0
 57131  1  0  0  0
 58132  1  0  0  0
 59 60  1  0  0  0
 59 61  1  0  0  0
 59 62  1  0  0  0
 60133  1  0  0  0
 60134  1  0  0  0
 60135  1  0  0  0
 61136  1  0  0  0
 61137  1  0  0  0
 61138  1  0  0  0
 62139  1  0  0  0
 62140  1  0  0  0
 62141  1  0  0  0
 63 65  1  0  0  0
 63142  1  0  0  0
 63143  1  0  0  0
 63144  1  0  0  0
 64145  1  0  0  0
 65146  1  0  0  0
 68 81  1  0  0  0
 71 72  2  0  0  0
 71 75  1  0  0  0
 71147  1  0  0  0
 72 76  1  0  0  0
 72148  1  0  0  0
 73 74  1  0  0  0
 73 76  2  0  0  0
 73149  1  0  0  0
 74 75  2  0  0  0
 74 77  1  0  0  0
 75 79  1  0  0  0
 76 84  1  0  0  0
 77 85  1  0  0  0
 77 86  2  0  0  0
 78 81  1  0  0  0
 78 83  1  0  0  0
 78 87  2  0  0  0
 79150  1  0  0  0
 79151  1  0  0  0
 79152  1  0  0  0
 80 82  1  0  0  0
 80153  1  0  0  0
 80154  1  0  0  0
 80155  1  0  0  0
 81156  1  0  0  0
 81157  1  0  0  0
 82158  1  0  0  0
 82159  1  0  0  0
 82 83  1  0  0  0
 83 85  1  0  0  0
 83160  1  0  0  0
 84161  1  0  0  0
 85162  1  0  0  0
M  ISO  4   1 100  68 101  81 101  84 100
M  END
> <chiral flag>
0

> <version>
0

> <s_m_source_file>
/data/baiqing/PycharmProjects/Reinvent-master-3.2/result/LINK_invent/BTK/process_docking_weight1_custom_product_contain_oxygen_bond_distance_aromatic_linkinvent_7_9_3/rearranged_h_0060.sdf

> <i_m_source_file_index>
89

> <r_mmod_Potential_Energy-OPLS-2005>
-73.273063659668

> <r_mmod_Stretch_Energy-OPLS-2005>
49.5178871154785

> <r_mmod_Bend_Energy-OPLS-2005>
107.865524291992

> <r_mmod_Torsional_Energy-OPLS-2005>
234.888259887695

> <r_mmod_Improper_Torsional_Energy-OPLS-2005>
4.35687732696533

> <r_mmod_Van_der_Waal_Energy-OPLS-2005>
167.015380859375

> <r_mmod_Electrostatic_Energy-OPLS-2005>
-422.84130859375

> <r_mmod_Solvation_Energy-OPLS-2005>
-234.695739746094

> <b_mmod_Minimization_Converged-OPLS-2005>
0

> <r_mmod_RMS_Derivative-OPLS-2005>
1.546910405159

$$$$
89
                    3D
 Structure written by MMmdl.
165174  0  0  1  0            999 V2000
  -30.7348  -14.5344   20.4849 C   0  0  0  0  0  0
  -30.4101  -12.3217   19.4500 C   0  0  0  0  0  0
  -29.4992  -12.4804   18.2147 C   0  0  0  0  0  0
  -28.0187  -12.3492   18.6246 C   0  0  0  0  0  0
  -27.6517  -13.2275   19.8517 C   0  0  2  0  0  0
  -28.6965  -13.0938   20.9820 C   0  0  0  0  0  0
  -25.2542  -13.8212   20.5714 C   0  0  0  0  0  0
  -24.1825  -13.0479   20.9227 C   0  0  0  0  0  0
  -24.6392  -11.6967   20.8763 C   0  0  0  0  0  0
  -23.9068  -10.4330   21.0407 C   0  0  0  0  0  0
  -24.3615   -9.4232   21.9176 C   0  0  0  0  0  0
  -23.6288   -8.2245   22.0724 C   0  0  0  0  0  0
  -22.4255   -8.0296   21.3550 C   0  0  0  0  0  0
  -21.9875   -9.0270   20.4650 C   0  0  0  0  0  0
  -22.7227  -10.2164   20.3076 C   0  0  0  0  0  0
  -21.6840   -6.0755   22.5302 C   0  0  0  0  0  0
  -21.4023   -6.5662   23.8246 C   0  0  0  0  0  0
  -21.3645   -5.6776   24.9199 C   0  0  0  0  0  0
  -21.6006   -4.3043   24.7222 C   0  0  0  0  0  0
  -21.8820   -3.8173   23.4332 C   0  0  0  0  0  0
  -21.9188   -4.7007   22.3413 C   0  0  0  0  0  0
  -22.7844  -13.5278   21.1858 C   0  0  0  0  0  0
  -22.1665   -4.2232   21.0989 F   0  0  0  0  0  0
  -21.5587   -3.4518   25.7722 F   0  0  0  0  0  0
  -30.0234  -13.3716   20.4108 N   0  0  0  0  0  0
  -26.2980  -12.9435   20.3293 N   0  0  0  0  0  0
  -25.9309  -11.6579   20.5729 N   0  0  0  0  0  0
  -22.0443  -12.8318   22.0434 N   0  0  0  0  0  0
  -25.4222  -15.1917   20.4115 N   0  0  0  0  0  0
  -31.9251  -14.5495   20.1690 O   0  0  0  0  0  0
  -21.6598   -6.8898   21.4267 O   0  0  0  0  0  0
  -22.3544  -14.5579   20.6669 O   0  0  0  0  0  0
  -24.6236  -31.8637   23.2069 C   0  0  0  0  0  0
  -25.9103  -32.4805   23.8355 C   0  0  1  0  0  0
  -27.2281  -27.3731   20.0749 C   0  0  0  0  0  0
  -25.5941  -33.8597   24.2299 N   0  0  0  0  0  0
  -23.4129  -30.4944   21.5480 C   0  0  2  0  0  0
  -24.8567  -28.9570   20.1150 C   0  0  0  0  0  0
  -22.7448  -29.4667   22.4930 C   0  0  0  0  0  0
  -18.0285  -28.1381   22.8485 C   0  0  0  0  0  0
  -24.1487  -36.7293   23.2630 C   0  0  0  0  0  0
  -25.9538  -30.8107   21.3712 C   0  0  0  0  0  0
  -26.0280  -29.4442   20.7066 C   0  0  0  0  0  0
  -27.2168  -28.6619   20.6805 C   0  0  0  0  0  0
  -26.0097  -26.9026   19.5276 C   0  0  0  0  0  0
  -24.8455  -27.6870   19.5235 C   0  0  0  0  0  0
  -23.6258  -29.8360   20.1615 C   0  0  0  0  0  0
  -25.4111  -36.3077   24.0323 C   0  0  1  0  0  0
  -20.5881  -28.3685   23.1279 C   0  0  2  0  0  0
  -20.6775  -26.9406   22.5401 C   0  0  0  0  0  0
  -19.5758  -26.6389   21.5201 C   0  0  0  0  0  0
  -18.1934  -26.7933   22.1606 C   0  0  0  0  0  0
  -19.1526  -28.8845   23.2892 C   0  0  0  0  0  0
  -18.9466  -30.1445   23.8913 C   0  0  0  0  0  0
  -17.6469  -30.6579   24.0575 C   0  0  0  0  0  0
  -25.9049  -34.9459   23.5092 C   0  0  0  0  0  0
  -16.5361  -29.9090   23.6324 C   0  0  0  0  0  0
  -16.7277  -28.6504   23.0352 C   0  0  0  0  0  0
  -26.4517  -31.6610   25.0704 C   0  0  0  0  0  0
  -25.3781  -31.3780   26.1468 C   0  0  0  0  0  0
  -27.0321  -30.3009   24.6157 C   0  0  0  0  0  0
  -27.6064  -32.4373   25.7471 C   0  0  0  0  0  0
  -27.5589  -37.1788   24.8451 C   0  0  0  0  0  0
  -21.4158  -29.3048   22.3665 N   0  0  0  0  0  0
  -26.4284  -37.3783   23.9410 N   0  0  0  0  0  0
  -24.6820  -31.0713   22.0982 N   0  0  0  0  0  0
  -23.4192  -28.8195   23.2978 O   0  0  0  0  0  0
  -28.3720  -26.5691   20.0661 O   0  0  0  0  0  0
  -26.5601  -34.8925   22.4655 O   0  0  0  0  0  0
  -23.5427  -32.1425   23.7442 O   0  0  0  0  0  0
  -31.1826  -19.8101   20.0402 C   0  0  0  0  0  0
  -31.7371  -17.4440   19.9707 C   0  0  0  0  0  0
  -29.5398  -18.1378   20.7227 C   0  0  0  0  0  0
  -32.1100  -18.7864   19.7531 C   0  0  0  0  0  0
  -29.8745  -19.5048   20.4808 C   0  0  0  0  0  0
  -30.4613  -17.0738   20.4838 C   0  0  0  0  0  0
  -28.9761  -21.3290   18.2463 C   0  0  0  0  0  0
  -33.7982  -20.1783   18.4876 C   0  0  0  0  0  0
  -33.4263  -19.0600   19.1390 C   0  0  0  0  0  0
  -29.6162  -22.3193   17.2831 C   0  0  0  0  0  0
  -29.1225  -23.7454   17.4976 C   0  0  0  0  0  0
  -28.4946  -23.1295   19.8666 C   0  0  0  0  0  0
  -29.1676  -24.2365   18.9646 C   0  0  2  0  0  0
  -28.8272  -20.6529   20.6048 C   0  0  0  0  0  0
  -28.5867  -25.7119   18.9091 C   0  0  0  0  0  0
  -28.8725  -21.7068   19.5436 N   0  0  0  0  0  0
  -30.0492  -15.6903   20.7116 N   0  0  0  0  0  0
  -28.7103  -20.1975   17.8331 O   0  0  0  0  0  0
  -31.4658  -12.3711   19.1643 H   0  0  0  0  0  0
  -30.2705  -11.3332   19.8921 H   0  0  0  0  0  0
  -29.7515  -11.7291   17.4619 H   0  0  0  0  0  0
  -29.6665  -13.4491   17.7417 H   0  0  0  0  0  0
  -27.8443  -11.3009   18.8680 H   0  0  0  0  0  0
  -27.3691  -12.5854   17.7801 H   0  0  0  0  0  0
  -27.6707  -14.2601   19.4974 H   0  0  0  0  0  0
  -28.6776  -12.0857   21.4024 H   0  0  0  0  0  0
  -28.4702  -13.7650   21.8109 H   0  0  0  0  0  0
  -25.2799   -9.5676   22.4689 H   0  0  0  0  0  0
  -24.0044   -7.4612   22.7388 H   0  0  0  0  0  0
  -21.0817   -8.8814   19.8935 H   0  0  0  0  0  0
  -22.3734  -10.9674   19.6151 H   0  0  0  0  0  0
  -21.2071   -7.6166   23.9795 H   0  0  0  0  0  0
  -21.1431   -6.0498   25.9101 H   0  0  0  0  0  0
  -22.0616   -2.7640   23.2797 H   0  0  0  0  0  0
  -22.4057  -12.0057   22.4947 H   0  0  0  0  0  0
  -21.1034  -13.1323   22.2578 H   0  0  0  0  0  0
  -24.6495  -15.8424   20.5070 H   0  0  0  0  0  0
  -26.2634  -15.6224   20.0525 H   0  0  0  0  0  0
  -26.7161  -32.5494   23.1097 H   0  0  0  0  0  0
  -25.0106  -33.9772   25.0450 H   0  0  0  0  0  0
  -22.7049  -31.3142   21.4097 H   0  0  0  0  0  0
  -23.3756  -35.9617   23.3297 H   0  0  0  0  0  0
  -24.3576  -36.8927   22.2043 H   0  0  0  0  0  0
  -23.7257  -37.6496   23.6668 H   0  0  0  0  0  0
  -26.0888  -31.5838   20.6133 H   0  0  0  0  0  0
  -26.8327  -30.8481   22.0020 H   0  0  0  0  0  0
  -28.1248  -29.0441   21.1250 H   0  0  0  0  0  0
  -25.9144  -25.9058   19.1231 H   0  0  0  0  0  0
  -23.9367  -27.2962   19.0856 H   0  0  0  0  0  0
  -23.7527  -30.6177   19.4124 H   0  0  0  0  0  0
  -22.7443  -29.2723   19.8493 H   0  0  0  0  0  0
  -25.1297  -36.1898   25.0819 H   0  0  0  0  0  0
  -20.9996  -28.3261   24.1393 H   0  0  0  0  0  0
  -20.5663  -26.2285   23.3596 H   0  0  0  0  0  0
  -21.6659  -26.7430   22.1211 H   0  0  0  0  0  0
  -19.6920  -25.6300   21.1237 H   0  0  0  0  0  0
  -19.6702  -27.3192   20.6730 H   0  0  0  0  0  0
  -17.4202  -26.6686   21.4013 H   0  0  0  0  0  0
  -18.0327  -26.0063   22.8984 H   0  0  0  0  0  0
  -19.7945  -30.7256   24.2291 H   0  0  0  0  0  0
  -17.5029  -31.6266   24.5174 H   0  0  0  0  0  0
  -15.5359  -30.3006   23.7643 H   0  0  0  0  0  0
  -15.8674  -28.0836   22.7067 H   0  0  0  0  0  0
  -24.5906  -30.7174   25.7850 H   0  0  0  0  0  0
  -24.9047  -32.2970   26.4926 H   0  0  0  0  0  0
  -25.8134  -30.8946   27.0219 H   0  0  0  0  0  0
  -26.2849  -29.6774   24.1231 H   0  0  0  0  0  0
  -27.4051  -29.7272   25.4658 H   0  0  0  0  0  0
  -27.8732  -30.4278   23.9332 H   0  0  0  0  0  0
  -27.2619  -33.3645   26.2082 H   0  0  0  0  0  0
  -28.3830  -32.7020   25.0274 H   0  0  0  0  0  0
  -28.0780  -31.8504   26.5369 H   0  0  0  0  0  0
  -28.2582  -38.0105   24.7518 H   0  0  0  0  0  0
  -28.1108  -36.2645   24.6222 H   0  0  0  0  0  0
  -27.2324  -37.1386   25.8858 H   0  0  0  0  0  0
  -20.9297  -29.8763   21.6891 H   0  0  0  0  0  0
  -26.0158  -38.2841   24.1467 H   0  0  0  0  0  0
  -31.4572  -20.8438   19.8869 H   0  0  0  0  0  0
  -32.4798  -16.7101   19.7007 H   0  0  0  0  0  0
  -28.5441  -17.8995   21.0700 H   0  0  0  0  0  0
  -34.7967  -20.2595   18.0740 H   0  0  0  0  0  0
  -33.1371  -21.0193   18.3450 H   0  0  0  0  0  0
  -34.1641  -18.2755   19.2378 H   0  0  0  0  0  0
  -29.4021  -22.0050   16.2619 H   0  0  0  0  0  0
  -30.6978  -22.2626   17.4048 H   0  0  0  0  0  0
  -28.0964  -23.7885   17.1295 H   0  0  0  0  0  0
  -29.7030  -24.4119   16.8569 H   0  0  0  0  0  0
  -27.4115  -23.2061   19.7550 H   0  0  0  0  0  0
  -28.7027  -23.3413   20.9153 H   0  0  0  0  0  0
  -30.2125  -24.3054   19.2729 H   0  0  0  0  0  0
  -28.9386  -21.1085   21.5899 H   0  0  0  0  0  0
  -27.8288  -20.2102   20.5942 H   0  0  0  0  0  0
  -27.7345  -25.6932   18.2374 H   0  0  0  0  0  0
  -29.3122  -26.2822   18.3270 H   0  0  0  0  0  0
  -29.0809  -15.5595   20.9697 H   0  0  0  0  0  0
  1 25  1  0  0  0
  1 30  2  0  0  0
  1 87  1  0  0  0
  2  3  1  0  0  0
  2 25  1  0  0  0
  2 89  1  0  0  0
  2 90  1  0  0  0
  3  4  1  0  0  0
  3 91  1  0  0  0
  3 92  1  0  0  0
  4  5  1  0  0  0
  4 93  1  0  0  0
  4 94  1  0  0  0
  5  6  1  0  0  0
  5 26  1  0  0  0
  5 95  1  0  0  0
  6 25  1  0  0  0
  6 96  1  0  0  0
  6 97  1  0  0  0
  7  8  2  0  0  0
  7 26  1  0  0  0
  7 29  1  0  0  0
  8  9  1  0  0  0
  8 22  1  0  0  0
  9 10  1  0  0  0
  9 27  2  0  0  0
 10 11  2  0  0  0
 10 15  1  0  0  0
 11 12  1  0  0  0
 11 98  1  0  0  0
 12 13  2  0  0  0
 12 99  1  0  0  0
 13 14  1  0  0  0
 13 31  1  0  0  0
 14 15  2  0  0  0
 14100  1  0  0  0
 15101  1  0  0  0
 16 17  2  0  0  0
 16 21  1  0  0  0
 16 31  1  0  0  0
 17 18  1  0  0  0
 17102  1  0  0  0
 18 19  2  0  0  0
 18103  1  0  0  0
 19 20  1  0  0  0
 19 24  1  0  0  0
 20 21  2  0  0  0
 20104  1  0  0  0
 21 23  1  0  0  0
 22 28  1  0  0  0
 22 32  2  0  0  0
 26 27  1  0  0  0
 28105  1  0  0  0
 28106  1  0  0  0
 29107  1  0  0  0
 29108  1  0  0  0
 33 34  1  0  0  0
 33 66  1  0  0  0
 33 70  2  0  0  0
 34 36  1  0  0  0
 34 59  1  0  0  0
 34109  1  0  0  0
 35 44  2  0  0  0
 35 45  1  0  0  0
 35 68  1  0  0  0
 36 56  1  0  0  0
 36110  1  0  0  0
 37 39  1  0  0  0
 37 47  1  0  0  0
 37 66  1  0  0  0
 37111  1  0  0  0
 38 43  2  0  0  0
 38 46  1  0  0  0
 38 47  1  0  0  0
 39 64  1  0  0  0
 39 67  2  0  0  0
 40 52  1  0  0  0
 40 53  2  0  0  0
 40 58  1  0  0  0
 41112  1  0  0  0
 41113  1  0  0  0
 41114  1  0  0  0
 41 48  1  0  0  0
 42 43  1  0  0  0
 42 66  1  0  0  0
 42115  1  0  0  0
 42116  1  0  0  0
 43 44  1  0  0  0
 44117  1  0  0  0
 45 46  2  0  0  0
 45118  1  0  0  0
 46119  1  0  0  0
 47120  1  0  0  0
 47121  1  0  0  0
 48 56  1  0  0  0
 48 65  1  0  0  0
 48122  1  0  0  0
 49 50  1  0  0  0
 49 53  1  0  0  0
 49 64  1  0  0  0
 49123  1  0  0  0
 50 51  1  0  0  0
 50124  1  0  0  0
 50125  1  0  0  0
 51 52  1  0  0  0
 51126  1  0  0  0
 51127  1  0  0  0
 52128  1  0  0  0
 52129  1  0  0  0
 53 54  1  0  0  0
 54 55  2  0  0  0
 54130  1  0  0  0
 55 57  1  0  0  0
 55131  1  0  0  0
 56 69  2  0  0  0
 57 58  2  0  0  0
 57132  1  0  0  0
 58133  1  0  0  0
 59 60  1  0  0  0
 59 61  1  0  0  0
 59 62  1  0  0  0
 60134  1  0  0  0
 60135  1  0  0  0
 60136  1  0  0  0
 61137  1  0  0  0
 61138  1  0  0  0
 61139  1  0  0  0
 62140  1  0  0  0
 62141  1  0  0  0
 62142  1  0  0  0
 63 65  1  0  0  0
 63143  1  0  0  0
 63144  1  0  0  0
 63145  1  0  0  0
 64146  1  0  0  0
 65147  1  0  0  0
 68 85  1  0  0  0
 71 74  2  0  0  0
 71 75  1  0  0  0
 71148  1  0  0  0
 72 74  1  0  0  0
 72 76  2  0  0  0
 72149  1  0  0  0
 73 75  2  0  0  0
 73 76  1  0  0  0
 73150  1  0  0  0
 74 79  1  0  0  0
 75 84  1  0  0  0
 76 87  1  0  0  0
 77 80  1  0  0  0
 77 86  1  0  0  0
 77 88  2  0  0  0
 78 79  2  0  0  0
 78151  1  0  0  0
 78152  1  0  0  0
 79153  1  0  0  0
 80 81  1  0  0  0
 80154  1  0  0  0
 80155  1  0  0  0
 81 83  1  0  0  0
 81156  1  0  0  0
 81157  1  0  0  0
 82 83  1  0  0  0
 82 86  1  0  0  0
 82158  1  0  0  0
 82159  1  0  0  0
 83 85  1  0  0  0
 83160  1  0  0  0
 84 86  1  0  0  0
 84161  1  0  0  0
 84162  1  0  0  0
 85163  1  0  0  0
 85164  1  0  0  0
 87165  1  0  0  0
M  ISO  4   1 100  68 101  85 101  87 100
M  END
> <chiral flag>
0

> <version>
0

> <s_m_source_file>
/data/baiqing/PycharmProjects/Reinvent-master-3.2/result/LINK_invent/BTK/process_docking_weight1_custom_product_contain_oxygen_bond_distance_aromatic_linkinvent_7_9_3/rearranged_h_0060.sdf

> <i_m_source_file_index>
90

> <r_mmod_Potential_Energy-OPLS-2005>
97.9165267944336

> <r_mmod_Stretch_Energy-OPLS-2005>
68.3284606933594

> <r_mmod_Bend_Energy-OPLS-2005>
146.378662109375

> <r_mmod_Torsional_Energy-OPLS-2005>
263.33203125

> <r_mmod_Improper_Torsional_Energy-OPLS-2005>
7.35841464996338

> <r_mmod_Van_der_Waal_Energy-OPLS-2005>
174.954284667969

> <r_mmod_Electrostatic_Energy-OPLS-2005>
-364.270935058594

> <r_mmod_Solvation_Energy-OPLS-2005>
-231.150253295898

> <b_mmod_Minimization_Converged-OPLS-2005>
0

> <r_mmod_RMS_Derivative-OPLS-2005>
5.37619733810425

$$$$
90
                    3D
 Structure written by MMmdl.
151159  0  0  1  0            999 V2000
  -30.6158  -14.7137   20.4529 C   0  0  0  0  0  0
  -30.4330  -12.4223   19.4945 C   0  0  0  0  0  0
  -29.5262  -12.5195   18.2454 C   0  0  0  0  0  0
  -28.0443  -12.3522   18.6420 C   0  0  0  0  0  0
  -27.6498  -13.2345   19.8569 C   0  0  2  0  0  0
  -28.6875  -13.1448   20.9980 C   0  0  0  0  0  0
  -25.2547  -13.8207   20.5710 C   0  0  0  0  0  0
  -24.1826  -13.0428   20.9187 C   0  0  0  0  0  0
  -24.6428  -11.6919   20.8719 C   0  0  0  0  0  0
  -23.9103  -10.4293   21.0389 C   0  0  0  0  0  0
  -24.3645   -9.4212   21.9172 C   0  0  0  0  0  0
  -23.6308   -8.2249   22.0750 C   0  0  0  0  0  0
  -22.4285   -8.0288   21.3541 C   0  0  0  0  0  0
  -21.9929   -9.0267   20.4645 C   0  0  0  0  0  0
  -22.7267  -10.2138   20.3045 C   0  0  0  0  0  0
  -21.6852   -6.0739   22.5287 C   0  0  0  0  0  0
  -21.4017   -6.5641   23.8214 C   0  0  0  0  0  0
  -21.3662   -5.6791   24.9176 C   0  0  0  0  0  0
  -21.6040   -4.3050   24.7224 C   0  0  0  0  0  0
  -21.8819   -3.8145   23.4344 C   0  0  0  0  0  0
  -21.9199   -4.6971   22.3405 C   0  0  0  0  0  0
  -22.7847  -13.5219   21.1843 C   0  0  0  0  0  0
  -22.1660   -4.2151   21.0986 F   0  0  0  0  0  0
  -21.5634   -3.4536   25.7738 F   0  0  0  0  0  0
  -30.0008  -13.4820   20.4361 N   0  0  0  0  0  0
  -26.2979  -12.9423   20.3269 N   0  0  0  0  0  0
  -25.9362  -11.6559   20.5710 N   0  0  0  0  0  0
  -22.0496  -12.8212   22.0409 N   0  0  0  0  0  0
  -25.4277  -15.1929   20.4212 N   0  0  0  0  0  0
  -31.7914  -14.8162   20.0891 O   0  0  0  0  0  0
  -21.6635   -6.8887   21.4244 O   0  0  0  0  0  0
  -22.3521  -14.5512   20.6680 O   0  0  0  0  0  0
  -24.6361  -31.8583   23.1997 C   0  0  0  0  0  0
  -25.9163  -32.4799   23.8371 C   0  0  1  0  0  0
  -27.2043  -27.2587   20.1114 C   0  0  0  0  0  0
  -25.5944  -33.8602   24.2286 N   0  0  0  0  0  0
  -23.4312  -30.4835   21.5473 C   0  0  2  0  0  0
  -24.8713  -28.9351   20.1116 C   0  0  0  0  0  0
  -22.7552  -29.4626   22.4960 C   0  0  0  0  0  0
  -18.0302  -28.1408   22.8503 C   0  0  0  0  0  0
  -24.1477  -36.7281   23.2635 C   0  0  0  0  0  0
  -25.9810  -30.7720   21.3768 C   0  0  0  0  0  0
  -26.0495  -29.3952   20.7135 C   0  0  0  0  0  0
  -27.2226  -28.5711   20.6979 C   0  0  0  0  0  0
  -25.9975  -26.8712   19.4841 C   0  0  0  0  0  0
  -24.8501  -27.6823   19.4876 C   0  0  0  0  0  0
  -23.6464  -29.8252   20.1612 C   0  0  0  0  0  0
  -25.4108  -36.3109   24.0342 C   0  0  1  0  0  0
  -20.5909  -28.3702   23.1292 C   0  0  2  0  0  0
  -20.6790  -26.9430   22.5415 C   0  0  0  0  0  0
  -19.5745  -26.6395   21.5238 C   0  0  0  0  0  0
  -18.1922  -26.7947   22.1641 C   0  0  0  0  0  0
  -19.1555  -28.8879   23.2886 C   0  0  0  0  0  0
  -18.9462  -30.1472   23.8915 C   0  0  0  0  0  0
  -17.6457  -30.6601   24.0570 C   0  0  0  0  0  0
  -25.9055  -34.9477   23.5119 C   0  0  0  0  0  0
  -16.5349  -29.9099   23.6328 C   0  0  0  0  0  0
  -16.7286  -28.6514   23.0368 C   0  0  0  0  0  0
  -26.4495  -31.6635   25.0773 C   0  0  0  0  0  0
  -25.3674  -31.3784   26.1461 C   0  0  0  0  0  0
  -27.0318  -30.3061   24.6223 C   0  0  0  0  0  0
  -27.6061  -32.4378   25.7519 C   0  0  0  0  0  0
  -27.5587  -37.1804   24.8473 C   0  0  0  0  0  0
  -21.4258  -29.3048   22.3696 N   0  0  0  0  0  0
  -26.4291  -37.3804   23.9424 N   0  0  0  0  0  0
  -24.7024  -31.0563   22.0960 N   0  0  0  0  0  0
  -23.4272  -28.8165   23.3040 O   0  0  0  0  0  0
  -28.2844  -26.3443   20.1707 O   0  0  0  0  0  0
  -26.5632  -34.8948   22.4688 O   0  0  0  0  0  0
  -23.5509  -32.1382   23.7307 O   0  0  0  0  0  0
  -30.1881  -17.1580   18.6494 C   0  0  0  0  0  0
  -30.1876  -18.3449   17.8940 C   0  0  0  0  0  0
  -29.5561  -18.4608   20.6082 C   0  0  0  0  0  0
  -29.8899  -17.1604   20.0298 C   0  0  0  0  0  0
  -29.5470  -19.7081   19.8451 C   0  0  0  0  0  0
  -29.8974  -19.5935   18.4737 C   0  0  0  0  0  0
  -28.7419  -22.1912   19.8403 C   0  0  0  0  0  0
  -29.0192  -23.6874   20.3538 C   0  0  0  0  0  0
  -27.9987  -24.8786   19.9525 C   0  0  0  0  0  0
  -29.3293  -21.0685   20.4128 N   0  0  0  0  0  0
  -29.8577  -15.8455   20.7202 N   0  0  0  0  0  0
  -27.9356  -22.0566   18.9171 O   0  0  0  0  0  0
  -30.0259  -20.6919   17.6919 F   0  0  0  0  0  0
  -31.4832  -12.5183   19.2137 H   0  0  0  0  0  0
  -30.3442  -11.4384   19.9598 H   0  0  0  0  0  0
  -29.8120  -11.7626   17.5131 H   0  0  0  0  0  0
  -29.6708  -13.4877   17.7611 H   0  0  0  0  0  0
  -27.8870  -11.2999   18.8807 H   0  0  0  0  0  0
  -27.3976  -12.5699   17.7908 H   0  0  0  0  0  0
  -27.6572  -14.2621   19.4928 H   0  0  0  0  0  0
  -28.7049  -12.1404   21.4264 H   0  0  0  0  0  0
  -28.4251  -13.8204   21.8121 H   0  0  0  0  0  0
  -25.2799   -9.5660   22.4727 H   0  0  0  0  0  0
  -24.0009   -7.4636   22.7469 H   0  0  0  0  0  0
  -21.0850   -8.8784   19.8960 H   0  0  0  0  0  0
  -22.3736  -10.9663   19.6129 H   0  0  0  0  0  0
  -21.2006   -7.6142   23.9724 H   0  0  0  0  0  0
  -21.1481   -6.0514   25.9078 H   0  0  0  0  0  0
  -22.0601   -2.7610   23.2845 H   0  0  0  0  0  0
  -22.4116  -11.9879   22.4790 H   0  0  0  0  0  0
  -21.1114  -13.1219   22.2621 H   0  0  0  0  0  0
  -24.6659  -15.8495   20.5532 H   0  0  0  0  0  0
  -26.2857  -15.6371   20.1191 H   0  0  0  0  0  0
  -26.7259  -32.5459   23.1151 H   0  0  0  0  0  0
  -25.0134  -33.9738   25.0463 H   0  0  0  0  0  0
  -22.7245  -31.3041   21.4074 H   0  0  0  0  0  0
  -23.3775  -35.9578   23.3309 H   0  0  0  0  0  0
  -24.3561  -36.8878   22.2044 H   0  0  0  0  0  0
  -23.7181  -37.6469   23.6639 H   0  0  0  0  0  0
  -26.1215  -31.5323   20.6072 H   0  0  0  0  0  0
  -26.8590  -30.8214   22.0096 H   0  0  0  0  0  0
  -28.1277  -28.9194   21.1744 H   0  0  0  0  0  0
  -25.8900  -25.9129   18.9996 H   0  0  0  0  0  0
  -23.9471  -27.3233   19.0144 H   0  0  0  0  0  0
  -23.7816  -30.6049   19.4101 H   0  0  0  0  0  0
  -22.7602  -29.2678   19.8533 H   0  0  0  0  0  0
  -25.1281  -36.1964   25.0836 H   0  0  0  0  0  0
  -20.9987  -28.3273   24.1420 H   0  0  0  0  0  0
  -20.5705  -26.2324   23.3620 H   0  0  0  0  0  0
  -21.6653  -26.7469   22.1183 H   0  0  0  0  0  0
  -19.6891  -25.6305   21.1274 H   0  0  0  0  0  0
  -19.6668  -27.3207   20.6767 H   0  0  0  0  0  0
  -17.4197  -26.6730   21.4033 H   0  0  0  0  0  0
  -18.0294  -26.0094   22.9035 H   0  0  0  0  0  0
  -19.7929  -30.7288   24.2317 H   0  0  0  0  0  0
  -17.4998  -31.6277   24.5167 H   0  0  0  0  0  0
  -15.5346  -30.3002   23.7627 H   0  0  0  0  0  0
  -15.8689  -28.0814   22.7106 H   0  0  0  0  0  0
  -24.5893  -30.7086   25.7782 H   0  0  0  0  0  0
  -24.8797  -32.2939   26.4827 H   0  0  0  0  0  0
  -25.7957  -30.9018   27.0282 H   0  0  0  0  0  0
  -26.2887  -29.6853   24.1206 H   0  0  0  0  0  0
  -27.3965  -29.7300   25.4729 H   0  0  0  0  0  0
  -27.8787  -30.4367   23.9485 H   0  0  0  0  0  0
  -27.2705  -33.3719   26.2035 H   0  0  0  0  0  0
  -28.3875  -32.6873   25.0333 H   0  0  0  0  0  0
  -28.0710  -31.8534   26.5459 H   0  0  0  0  0  0
  -28.2618  -38.0096   24.7571 H   0  0  0  0  0  0
  -28.1080  -36.2643   24.6250 H   0  0  0  0  0  0
  -27.2321  -37.1391   25.8880 H   0  0  0  0  0  0
  -20.9474  -29.8775   21.6883 H   0  0  0  0  0  0
  -26.0188  -38.2884   24.1435 H   0  0  0  0  0  0
  -30.4128  -16.2336   18.1347 H   0  0  0  0  0  0
  -30.4358  -18.3065   16.8419 H   0  0  0  0  0  0
  -29.3122  -18.5062   21.6598 H   0  0  0  0  0  0
  -30.0016  -23.9599   19.9662 H   0  0  0  0  0  0
  -29.1281  -23.6633   21.4370 H   0  0  0  0  0  0
  -27.7679  -24.7561   18.8925 H   0  0  0  0  0  0
  -27.0774  -24.6514   20.4918 H   0  0  0  0  0  0
  -29.7587  -21.2269   21.3137 H   0  0  0  0  0  0
  -29.0294  -15.6705   21.2711 H   0  0  0  0  0  0
  1 25  1  0  0  0
  1 30  2  0  0  0
  1 81  1  0  0  0
  2  3  1  0  0  0
  2 25  1  0  0  0
  2 84  1  0  0  0
  2 85  1  0  0  0
  3  4  1  0  0  0
  3 86  1  0  0  0
  3 87  1  0  0  0
  4  5  1  0  0  0
  4 88  1  0  0  0
  4 89  1  0  0  0
  5  6  1  0  0  0
  5 26  1  0  0  0
  5 90  1  0  0  0
  6 25  1  0  0  0
  6 91  1  0  0  0
  6 92  1  0  0  0
  7  8  2  0  0  0
  7 26  1  0  0  0
  7 29  1  0  0  0
  8  9  1  0  0  0
  8 22  1  0  0  0
  9 10  1  0  0  0
  9 27  2  0  0  0
 10 11  2  0  0  0
 10 15  1  0  0  0
 11 12  1  0  0  0
 11 93  1  0  0  0
 12 13  2  0  0  0
 12 94  1  0  0  0
 13 14  1  0  0  0
 13 31  1  0  0  0
 14 15  2  0  0  0
 14 95  1  0  0  0
 15 96  1  0  0  0
 16 17  2  0  0  0
 16 21  1  0  0  0
 16 31  1  0  0  0
 17 18  1  0  0  0
 17 97  1  0  0  0
 18 19  2  0  0  0
 18 98  1  0  0  0
 19 20  1  0  0  0
 19 24  1  0  0  0
 20 21  2  0  0  0
 20 99  1  0  0  0
 21 23  1  0  0  0
 22 28  1  0  0  0
 22 32  2  0  0  0
 26 27  1  0  0  0
 28100  1  0  0  0
 28101  1  0  0  0
 29102  1  0  0  0
 29103  1  0  0  0
 33 34  1  0  0  0
 33 66  1  0  0  0
 33 70  2  0  0  0
 34 36  1  0  0  0
 34 59  1  0  0  0
 34104  1  0  0  0
 35 44  2  0  0  0
 35 45  1  0  0  0
 35 68  1  0  0  0
 36 56  1  0  0  0
 36105  1  0  0  0
 37 39  1  0  0  0
 37 47  1  0  0  0
 37 66  1  0  0  0
 37106  1  0  0  0
 38 43  2  0  0  0
 38 46  1  0  0  0
 38 47  1  0  0  0
 39 64  1  0  0  0
 39 67  2  0  0  0
 40 52  1  0  0  0
 40 53  2  0  0  0
 40 58  1  0  0  0
 41107  1  0  0  0
 41108  1  0  0  0
 41109  1  0  0  0
 41 48  1  0  0  0
 42 43  1  0  0  0
 42 66  1  0  0  0
 42110  1  0  0  0
 42111  1  0  0  0
 43 44  1  0  0  0
 44112  1  0  0  0
 45 46  2  0  0  0
 45113  1  0  0  0
 46114  1  0  0  0
 47115  1  0  0  0
 47116  1  0  0  0
 48 56  1  0  0  0
 48 65  1  0  0  0
 48117  1  0  0  0
 49 50  1  0  0  0
 49 53  1  0  0  0
 49 64  1  0  0  0
 49118  1  0  0  0
 50 51  1  0  0  0
 50119  1  0  0  0
 50120  1  0  0  0
 51 52  1  0  0  0
 51121  1  0  0  0
 51122  1  0  0  0
 52123  1  0  0  0
 52124  1  0  0  0
 53 54  1  0  0  0
 54 55  2  0  0  0
 54125  1  0  0  0
 55 57  1  0  0  0
 55126  1  0  0  0
 56 69  2  0  0  0
 57 58  2  0  0  0
 57127  1  0  0  0
 58128  1  0  0  0
 59 60  1  0  0  0
 59 61  1  0  0  0
 59 62  1  0  0  0
 60129  1  0  0  0
 60130  1  0  0  0
 60131  1  0  0  0
 61132  1  0  0  0
 61133  1  0  0  0
 61134  1  0  0  0
 62135  1  0  0  0
 62136  1  0  0  0
 62137  1  0  0  0
 63 65  1  0  0  0
 63138  1  0  0  0
 63139  1  0  0  0
 63140  1  0  0  0
 64141  1  0  0  0
 65142  1  0  0  0
 68 79  1  0  0  0
 71 72  2  0  0  0
 71 74  1  0  0  0
 71143  1  0  0  0
 72 76  1  0  0  0
 72144  1  0  0  0
 73 74  2  0  0  0
 73 75  1  0  0  0
 73145  1  0  0  0
 74 81  1  0  0  0
 75 76  2  0  0  0
 75 80  1  0  0  0
 76 83  1  0  0  0
 77 78  1  0  0  0
 77 80  1  0  0  0
 77 82  2  0  0  0
 78 79  1  0  0  0
 78146  1  0  0  0
 78147  1  0  0  0
 79148  1  0  0  0
 79149  1  0  0  0
 80150  1  0  0  0
 81151  1  0  0  0
M  ISO  4   1 100  68 101  79 101  81 100
M  END
> <chiral flag>
0

> <version>
0

> <s_m_source_file>
/data/baiqing/PycharmProjects/Reinvent-master-3.2/result/LINK_invent/BTK/process_docking_weight1_custom_product_contain_oxygen_bond_distance_aromatic_linkinvent_7_9_3/rearranged_h_0060.sdf

> <i_m_source_file_index>
91

> <r_mmod_Potential_Energy-OPLS-2005>
118.15348815918

> <r_mmod_Stretch_Energy-OPLS-2005>
125.266761779785

> <r_mmod_Bend_Energy-OPLS-2005>
152.227920532227

> <r_mmod_Torsional_Energy-OPLS-2005>
259.404388427734

> <r_mmod_Improper_Torsional_Energy-OPLS-2005>
5.40083837509155

> <r_mmod_Van_der_Waal_Energy-OPLS-2005>
146.966934204102

> <r_mmod_Electrostatic_Energy-OPLS-2005>
-411.594879150391

> <r_mmod_Solvation_Energy-OPLS-2005>
-239.772827148438

> <b_mmod_Minimization_Converged-OPLS-2005>
0

> <r_mmod_RMS_Derivative-OPLS-2005>
3.22829723358154

$$$$
91
                    3D
 Structure written by MMmdl.
159168  0  0  1  0            999 V2000
  -30.6783  -14.6051   20.4619 C   0  0  0  0  0  0
  -30.4180  -12.3615   19.4653 C   0  0  0  0  0  0
  -29.5033  -12.4900   18.2294 C   0  0  0  0  0  0
  -28.0266  -12.3387   18.6391 C   0  0  0  0  0  0
  -27.6483  -13.2249   19.8573 C   0  0  2  0  0  0
  -28.6915  -13.1171   20.9925 C   0  0  0  0  0  0
  -25.2535  -13.8202   20.5691 C   0  0  0  0  0  0
  -24.1812  -13.0454   20.9200 C   0  0  0  0  0  0
  -24.6398  -11.6930   20.8751 C   0  0  0  0  0  0
  -23.9066  -10.4306   21.0414 C   0  0  0  0  0  0
  -24.3619   -9.4214   21.9186 C   0  0  0  0  0  0
  -23.6296   -8.2248   22.0754 C   0  0  0  0  0  0
  -22.4276   -8.0291   21.3549 C   0  0  0  0  0  0
  -21.9909   -9.0263   20.4647 C   0  0  0  0  0  0
  -22.7238  -10.2144   20.3057 C   0  0  0  0  0  0
  -21.6853   -6.0740   22.5284 C   0  0  0  0  0  0
  -21.4015   -6.5641   23.8220 C   0  0  0  0  0  0
  -21.3660   -5.6793   24.9181 C   0  0  0  0  0  0
  -21.6041   -4.3058   24.7226 C   0  0  0  0  0  0
  -21.8815   -3.8151   23.4347 C   0  0  0  0  0  0
  -21.9193   -4.6968   22.3405 C   0  0  0  0  0  0
  -22.7835  -13.5238   21.1865 C   0  0  0  0  0  0
  -22.1656   -4.2152   21.0982 F   0  0  0  0  0  0
  -21.5631   -3.4540   25.7738 F   0  0  0  0  0  0
  -30.0106  -13.4121   20.4201 N   0  0  0  0  0  0
  -26.2966  -12.9399   20.3309 N   0  0  0  0  0  0
  -25.9324  -11.6549   20.5757 N   0  0  0  0  0  0
  -22.0466  -12.8237   22.0423 N   0  0  0  0  0  0
  -25.4241  -15.1923   20.4109 N   0  0  0  0  0  0
  -31.8725  -14.6692   20.1631 O   0  0  0  0  0  0
  -21.6644   -6.8885   21.4247 O   0  0  0  0  0  0
  -22.3519  -14.5537   20.6709 O   0  0  0  0  0  0
  -24.6254  -31.8634   23.2074 C   0  0  0  0  0  0
  -25.9110  -32.4793   23.8382 C   0  0  1  0  0  0
  -27.2077  -27.3299   20.1058 C   0  0  0  0  0  0
  -25.5933  -33.8592   24.2297 N   0  0  0  0  0  0
  -23.4164  -30.4927   21.5509 C   0  0  2  0  0  0
  -24.8589  -28.9614   20.1065 C   0  0  0  0  0  0
  -22.7463  -29.4647   22.4941 C   0  0  0  0  0  0
  -18.0286  -28.1388   22.8491 C   0  0  0  0  0  0
  -24.1488  -36.7295   23.2640 C   0  0  0  0  0  0
  -25.9596  -30.7956   21.3805 C   0  0  0  0  0  0
  -26.0297  -29.4275   20.7177 C   0  0  0  0  0  0
  -27.2071  -28.6217   20.7154 C   0  0  0  0  0  0
  -26.0187  -26.9412   19.4379 C   0  0  0  0  0  0
  -24.8542  -27.7216   19.4591 C   0  0  0  0  0  0
  -23.6287  -29.8395   20.1621 C   0  0  0  0  0  0
  -25.4112  -36.3088   24.0333 C   0  0  1  0  0  0
  -20.5886  -28.3690   23.1285 C   0  0  2  0  0  0
  -20.6772  -26.9413   22.5408 C   0  0  0  0  0  0
  -19.5742  -26.6387   21.5211 C   0  0  0  0  0  0
  -18.1922  -26.7932   22.1627 C   0  0  0  0  0  0
  -19.1539  -28.8856   23.2886 C   0  0  0  0  0  0
  -18.9461  -30.1463   23.8898 C   0  0  0  0  0  0
  -17.6463  -30.6592   24.0569 C   0  0  0  0  0  0
  -25.9055  -34.9458   23.5112 C   0  0  0  0  0  0
  -16.5354  -29.9091   23.6332 C   0  0  0  0  0  0
  -16.7272  -28.6511   23.0351 C   0  0  0  0  0  0
  -26.4486  -31.6594   25.0746 C   0  0  0  0  0  0
  -25.3718  -31.3743   26.1472 C   0  0  0  0  0  0
  -27.0322  -30.3013   24.6208 C   0  0  0  0  0  0
  -27.6052  -32.4319   25.7518 C   0  0  0  0  0  0
  -27.5575  -37.1807   24.8467 C   0  0  0  0  0  0
  -21.4178  -29.3050   22.3685 N   0  0  0  0  0  0
  -26.4287  -37.3779   23.9414 N   0  0  0  0  0  0
  -24.6859  -31.0665   22.1026 N   0  0  0  0  0  0
  -23.4198  -28.8170   23.2998 O   0  0  0  0  0  0
  -28.2964  -26.4422   20.1900 O   0  0  0  0  0  0
  -26.5615  -34.8920   22.4673 O   0  0  0  0  0  0
  -23.5423  -32.1424   23.7416 O   0  0  0  0  0  0
  -29.7764  -18.3265   20.5709 C   0  0  0  0  0  0
  -30.8375  -19.5494   18.7477 C   0  0  0  0  0  0
  -30.9421  -17.1172   18.8035 C   0  0  0  0  0  0
  -30.0980  -19.5918   19.9502 C   0  0  0  0  0  0
  -30.2271  -17.0655   20.0262 C   0  0  0  0  0  0
  -31.2464  -18.3351   18.1774 C   0  0  0  0  0  0
  -27.8440  -22.5146   20.6410 C   0  0  0  0  0  0
  -30.0337  -23.3344   19.8158 C   0  0  0  0  0  0
  -28.4960  -21.1899   21.1548 C   0  0  0  0  0  0
  -30.6770  -22.0314   20.3898 C   0  0  0  0  0  0
  -28.7670  -23.7831   20.5891 C   0  0  0  0  0  0
  -27.9796  -25.0129   19.9650 C   0  0  0  0  0  0
  -29.7359  -20.8945   20.4384 N   0  0  0  0  0  0
  -29.9456  -15.7542   20.6252 N   0  0  0  0  0  0
  -31.9385  -18.3370   17.0127 F   0  0  0  0  0  0
  -31.4638  -12.4461   19.1662 H   0  0  0  0  0  0
  -30.3208  -11.3739   19.9186 H   0  0  0  0  0  0
  -29.7642  -11.7370   17.4846 H   0  0  0  0  0  0
  -29.6582  -13.4578   17.7504 H   0  0  0  0  0  0
  -27.8612  -11.2880   18.8798 H   0  0  0  0  0  0
  -27.3740  -12.5607   17.7944 H   0  0  0  0  0  0
  -27.6582  -14.2537   19.4990 H   0  0  0  0  0  0
  -28.6861  -12.1170   21.4297 H   0  0  0  0  0  0
  -28.4508  -13.8049   21.8047 H   0  0  0  0  0  0
  -25.2760   -9.5696   22.4763 H   0  0  0  0  0  0
  -24.0008   -7.4637   22.7469 H   0  0  0  0  0  0
  -21.0841   -8.8783   19.8949 H   0  0  0  0  0  0
  -22.3696  -10.9684   19.6173 H   0  0  0  0  0  0
  -21.2007   -7.6150   23.9725 H   0  0  0  0  0  0
  -21.1484   -6.0521   25.9082 H   0  0  0  0  0  0
  -22.0593   -2.7610   23.2846 H   0  0  0  0  0  0
  -22.4075  -11.9903   22.4822 H   0  0  0  0  0  0
  -21.1081  -13.1273   22.2617 H   0  0  0  0  0  0
  -24.6589  -15.8476   20.5283 H   0  0  0  0  0  0
  -26.2742  -15.6325   20.0809 H   0  0  0  0  0  0
  -26.7178  -32.5466   23.1133 H   0  0  0  0  0  0
  -25.0086  -33.9733   25.0447 H   0  0  0  0  0  0
  -22.7089  -31.3136   21.4141 H   0  0  0  0  0  0
  -23.3742  -35.9634   23.3308 H   0  0  0  0  0  0
  -24.3574  -36.8900   22.2051 H   0  0  0  0  0  0
  -23.7240  -37.6505   23.6646 H   0  0  0  0  0  0
  -26.0946  -31.5619   20.6164 H   0  0  0  0  0  0
  -26.8404  -30.8394   22.0096 H   0  0  0  0  0  0
  -28.0984  -28.9694   21.2187 H   0  0  0  0  0  0
  -25.9419  -26.0096   18.8983 H   0  0  0  0  0  0
  -23.9616  -27.3634   18.9637 H   0  0  0  0  0  0
  -23.7444  -30.6212   19.4106 H   0  0  0  0  0  0
  -22.7487  -29.2709   19.8573 H   0  0  0  0  0  0
  -25.1282  -36.1945   25.0822 H   0  0  0  0  0  0
  -20.9985  -28.3266   24.1404 H   0  0  0  0  0  0
  -20.5668  -26.2300   23.3606 H   0  0  0  0  0  0
  -21.6639  -26.7433   22.1206 H   0  0  0  0  0  0
  -19.6902  -25.6295   21.1242 H   0  0  0  0  0  0
  -19.6687  -27.3197   20.6741 H   0  0  0  0  0  0
  -17.4191  -26.6674   21.4038 H   0  0  0  0  0  0
  -18.0336  -26.0076   22.9030 H   0  0  0  0  0  0
  -19.7940  -30.7283   24.2255 H   0  0  0  0  0  0
  -17.5018  -31.6270   24.5173 H   0  0  0  0  0  0
  -15.5355  -30.3000   23.7656 H   0  0  0  0  0  0
  -15.8668  -28.0837   22.7059 H   0  0  0  0  0  0
  -24.5911  -30.7057   25.7817 H   0  0  0  0  0  0
  -24.8887  -32.2914   26.4862 H   0  0  0  0  0  0
  -25.8053  -30.8964   27.0267 H   0  0  0  0  0  0
  -26.2905  -29.6785   24.1197 H   0  0  0  0  0  0
  -27.3969  -29.7244   25.4716 H   0  0  0  0  0  0
  -27.8793  -30.4281   23.9461 H   0  0  0  0  0  0
  -27.2663  -33.3617   26.2096 H   0  0  0  0  0  0
  -28.3872  -32.6879   25.0356 H   0  0  0  0  0  0
  -28.0706  -31.8442   26.5438 H   0  0  0  0  0  0
  -28.2600  -38.0100   24.7504 H   0  0  0  0  0  0
  -28.1058  -36.2626   24.6295 H   0  0  0  0  0  0
  -27.2292  -37.1466   25.8871 H   0  0  0  0  0  0
  -20.9338  -29.8792   21.6925 H   0  0  0  0  0  0
  -26.0166  -38.2854   24.1413 H   0  0  0  0  0  0
  -29.2094  -18.3260   21.4915 H   0  0  0  0  0  0
  -31.0853  -20.4578   18.2204 H   0  0  0  0  0  0
  -31.2744  -16.2173   18.3076 H   0  0  0  0  0  0
  -26.9700  -22.7250   21.2580 H   0  0  0  0  0  0
  -27.4545  -22.3334   19.6381 H   0  0  0  0  0  0
  -30.7692  -24.1400   19.8231 H   0  0  0  0  0  0
  -29.7827  -23.1718   18.7662 H   0  0  0  0  0  0
  -27.7884  -20.3667   21.0437 H   0  0  0  0  0  0
  -28.7121  -21.2731   22.2212 H   0  0  0  0  0  0
  -31.0152  -22.2275   21.4093 H   0  0  0  0  0  0
  -31.5830  -21.7908   19.8329 H   0  0  0  0  0  0
  -29.0444  -24.0374   21.6121 H   0  0  0  0  0  0
  -26.9813  -24.8549   20.3750 H   0  0  0  0  0  0
  -27.8975  -24.8537   18.8884 H   0  0  0  0  0  0
  -29.0336  -15.6380   21.0400 H   0  0  0  0  0  0
  1 25  1  0  0  0
  1 30  2  0  0  0
  1 84  1  0  0  0
  2  3  1  0  0  0
  2 25  1  0  0  0
  2 86  1  0  0  0
  2 87  1  0  0  0
  3  4  1  0  0  0
  3 88  1  0  0  0
  3 89  1  0  0  0
  4  5  1  0  0  0
  4 90  1  0  0  0
  4 91  1  0  0  0
  5  6  1  0  0  0
  5 26  1  0  0  0
  5 92  1  0  0  0
  6 25  1  0  0  0
  6 93  1  0  0  0
  6 94  1  0  0  0
  7  8  2  0  0  0
  7 26  1  0  0  0
  7 29  1  0  0  0
  8  9  1  0  0  0
  8 22  1  0  0  0
  9 10  1  0  0  0
  9 27  2  0  0  0
 10 11  2  0  0  0
 10 15  1  0  0  0
 11 12  1  0  0  0
 11 95  1  0  0  0
 12 13  2  0  0  0
 12 96  1  0  0  0
 13 14  1  0  0  0
 13 31  1  0  0  0
 14 15  2  0  0  0
 14 97  1  0  0  0
 15 98  1  0  0  0
 16 17  2  0  0  0
 16 21  1  0  0  0
 16 31  1  0  0  0
 17 18  1  0  0  0
 17 99  1  0  0  0
 18 19  2  0  0  0
 18100  1  0  0  0
 19 20  1  0  0  0
 19 24  1  0  0  0
 20 21  2  0  0  0
 20101  1  0  0  0
 21 23  1  0  0  0
 22 28  1  0  0  0
 22 32  2  0  0  0
 26 27  1  0  0  0
 28102  1  0  0  0
 28103  1  0  0  0
 29104  1  0  0  0
 29105  1  0  0  0
 33 34  1  0  0  0
 33 66  1  0  0  0
 33 70  2  0  0  0
 34 36  1  0  0  0
 34 59  1  0  0  0
 34106  1  0  0  0
 35 44  2  0  0  0
 35 45  1  0  0  0
 35 68  1  0  0  0
 36 56  1  0  0  0
 36107  1  0  0  0
 37 39  1  0  0  0
 37 47  1  0  0  0
 37 66  1  0  0  0
 37108  1  0  0  0
 38 43  2  0  0  0
 38 46  1  0  0  0
 38 47  1  0  0  0
 39 64  1  0  0  0
 39 67  2  0  0  0
 40 52  1  0  0  0
 40 53  2  0  0  0
 40 58  1  0  0  0
 41109  1  0  0  0
 41110  1  0  0  0
 41111  1  0  0  0
 41 48  1  0  0  0
 42 43  1  0  0  0
 42 66  1  0  0  0
 42112  1  0  0  0
 42113  1  0  0  0
 43 44  1  0  0  0
 44114  1  0  0  0
 45 46  2  0  0  0
 45115  1  0  0  0
 46116  1  0  0  0
 47117  1  0  0  0
 47118  1  0  0  0
 48 56  1  0  0  0
 48 65  1  0  0  0
 48119  1  0  0  0
 49 50  1  0  0  0
 49 53  1  0  0  0
 49 64  1  0  0  0
 49120  1  0  0  0
 50 51  1  0  0  0
 50121  1  0  0  0
 50122  1  0  0  0
 51 52  1  0  0  0
 51123  1  0  0  0
 51124  1  0  0  0
 52125  1  0  0  0
 52126  1  0  0  0
 53 54  1  0  0  0
 54 55  2  0  0  0
 54127  1  0  0  0
 55 57  1  0  0  0
 55128  1  0  0  0
 56 69  2  0  0  0
 57 58  2  0  0  0
 57129  1  0  0  0
 58130  1  0  0  0
 59 60  1  0  0  0
 59 61  1  0  0  0
 59 62  1  0  0  0
 60131  1  0  0  0
 60132  1  0  0  0
 60133  1  0  0  0
 61134  1  0  0  0
 61135  1  0  0  0
 61136  1  0  0  0
 62137  1  0  0  0
 62138  1  0  0  0
 62139  1  0  0  0
 63 65  1  0  0  0
 63140  1  0  0  0
 63141  1  0  0  0
 63142  1  0  0  0
 64143  1  0  0  0
 65144  1  0  0  0
 68 82  1  0  0  0
 71 74  2  0  0  0
 71 75  1  0  0  0
 71145  1  0  0  0
 72 74  1  0  0  0
 72 76  2  0  0  0
 72146  1  0  0  0
 73 75  2  0  0  0
 73 76  1  0  0  0
 73147  1  0  0  0
 74 83  1  0  0  0
 75 84  1  0  0  0
 76 85  1  0  0  0
 77 79  1  0  0  0
 77 81  1  0  0  0
 77148  1  0  0  0
 77149  1  0  0  0
 78 80  1  0  0  0
 78 81  1  0  0  0
 78150  1  0  0  0
 78151  1  0  0  0
 79 83  1  0  0  0
 79152  1  0  0  0
 79153  1  0  0  0
 80 83  1  0  0  0
 80154  1  0  0  0
 80155  1  0  0  0
 81 82  1  0  0  0
 81156  1  0  0  0
 82157  1  0  0  0
 82158  1  0  0  0
 84159  1  0  0  0
M  ISO  4   1 100  68 101  82 101  84 100
M  END
> <chiral flag>
0

> <version>
0

> <s_m_source_file>
/data/baiqing/PycharmProjects/Reinvent-master-3.2/result/LINK_invent/BTK/process_docking_weight1_custom_product_contain_oxygen_bond_distance_aromatic_linkinvent_7_9_3/rearranged_h_0060.sdf

> <i_m_source_file_index>
92

> <r_mmod_Potential_Energy-OPLS-2005>
161.074813842773

> <r_mmod_Stretch_Energy-OPLS-2005>
76.2146606445312

> <r_mmod_Bend_Energy-OPLS-2005>
153.954284667969

> <r_mmod_Torsional_Energy-OPLS-2005>
264.871917724609

> <r_mmod_Improper_Torsional_Energy-OPLS-2005>
5.54742193222046

> <r_mmod_Van_der_Waal_Energy-OPLS-2005>
167.523498535156

> <r_mmod_Electrostatic_Energy-OPLS-2005>
-338.237274169922

> <r_mmod_Solvation_Energy-OPLS-2005>
-219.523986816406

> <b_mmod_Minimization_Converged-OPLS-2005>
0

> <r_mmod_RMS_Derivative-OPLS-2005>
1.73329150676727

$$$$
92
                    3D
 Structure written by MMmdl.
158167  0  0  1  0            999 V2000
  -30.6767  -14.8172   20.4973 C   0  0  0  0  0  0
  -30.4083  -12.5162   19.5226 C   0  0  0  0  0  0
  -29.5120  -12.5196   18.2666 C   0  0  0  0  0  0
  -28.0433  -12.3327   18.6770 C   0  0  0  0  0  0
  -27.6297  -13.2587   19.8513 C   0  0  2  0  0  0
  -28.6671  -13.2825   20.9996 C   0  0  0  0  0  0
  -25.2437  -13.8263   20.5777 C   0  0  0  0  0  0
  -24.1801  -13.0434   20.9234 C   0  0  0  0  0  0
  -24.6437  -11.6917   20.8735 C   0  0  0  0  0  0
  -23.9125  -10.4300   21.0410 C   0  0  0  0  0  0
  -24.3650   -9.4207   21.9185 C   0  0  0  0  0  0
  -23.6331   -8.2237   22.0733 C   0  0  0  0  0  0
  -22.4327   -8.0276   21.3537 C   0  0  0  0  0  0
  -21.9983   -9.0245   20.4649 C   0  0  0  0  0  0
  -22.7286  -10.2121   20.3070 C   0  0  0  0  0  0
  -21.6851   -6.0752   22.5270 C   0  0  0  0  0  0
  -21.3989   -6.5643   23.8204 C   0  0  0  0  0  0
  -21.3668   -5.6796   24.9169 C   0  0  0  0  0  0
  -21.6074   -4.3057   24.7222 C   0  0  0  0  0  0
  -21.8813   -3.8146   23.4336 C   0  0  0  0  0  0
  -21.9186   -4.6980   22.3392 C   0  0  0  0  0  0
  -22.7803  -13.5136   21.1900 C   0  0  0  0  0  0
  -22.1636   -4.2172   21.0974 F   0  0  0  0  0  0
  -21.5682   -3.4539   25.7730 F   0  0  0  0  0  0
  -29.9681  -13.6255   20.4180 N   0  0  0  0  0  0
  -26.2878  -12.9523   20.3325 N   0  0  0  0  0  0
  -25.9369  -11.6629   20.5755 N   0  0  0  0  0  0
  -22.0506  -12.8085   22.0463 N   0  0  0  0  0  0
  -25.4097  -15.1996   20.4207 N   0  0  0  0  0  0
  -31.8110  -14.8501   20.0215 O   0  0  0  0  0  0
  -21.6640   -6.8902   21.4254 O   0  0  0  0  0  0
  -22.3442  -14.5427   20.6716 O   0  0  0  0  0  0
  -24.6343  -31.8505   23.2062 C   0  0  0  0  0  0
  -25.9128  -32.4772   23.8382 C   0  0  1  0  0  0
  -27.1820  -27.2080   20.1230 C   0  0  0  0  0  0
  -25.5931  -33.8573   24.2324 N   0  0  0  0  0  0
  -23.4328  -30.4794   21.5540 C   0  0  2  0  0  0
  -24.8702  -28.9365   20.1148 C   0  0  0  0  0  0
  -22.7496  -29.4519   22.4921 C   0  0  0  0  0  0
  -18.0270  -28.1279   22.8566 C   0  0  0  0  0  0
  -24.1490  -36.7297   23.2640 C   0  0  0  0  0  0
  -25.9855  -30.7527   21.3884 C   0  0  0  0  0  0
  -26.0519  -29.3759   20.7217 C   0  0  0  0  0  0
  -27.2094  -28.5220   20.7222 C   0  0  0  0  0  0
  -25.9583  -26.8487   19.5100 C   0  0  0  0  0  0
  -24.8280  -27.6804   19.5070 C   0  0  0  0  0  0
  -23.6555  -29.8378   20.1631 C   0  0  0  0  0  0
  -25.4097  -36.3100   24.0356 C   0  0  1  0  0  0
  -20.5906  -28.3594   23.1364 C   0  0  2  0  0  0
  -20.6770  -26.9314   22.5467 C   0  0  0  0  0  0
  -19.5741  -26.6319   21.5268 C   0  0  0  0  0  0
  -18.1918  -26.7850   22.1664 C   0  0  0  0  0  0
  -19.1532  -28.8748   23.2989 C   0  0  0  0  0  0
  -18.9436  -30.1375   23.8970 C   0  0  0  0  0  0
  -17.6431  -30.6538   24.0544 C   0  0  0  0  0  0
  -25.9010  -34.9447   23.5131 C   0  0  0  0  0  0
  -16.5327  -29.9013   23.6333 C   0  0  0  0  0  0
  -16.7271  -28.6409   23.0419 C   0  0  0  0  0  0
  -26.4496  -31.6583   25.0744 C   0  0  0  0  0  0
  -25.3764  -31.3681   26.1510 C   0  0  0  0  0  0
  -27.0313  -30.3023   24.6142 C   0  0  0  0  0  0
  -27.6045  -32.4291   25.7511 C   0  0  0  0  0  0
  -27.5580  -37.1793   24.8463 C   0  0  0  0  0  0
  -21.4191  -29.2981   22.3747 N   0  0  0  0  0  0
  -26.4279  -37.3802   23.9427 N   0  0  0  0  0  0
  -24.7065  -31.0387   22.1119 N   0  0  0  0  0  0
  -23.4236  -28.7992   23.2943 O   0  0  0  0  0  0
  -28.2280  -26.2489   20.2491 O   0  0  0  0  0  0
  -26.5532  -34.8915   22.4668 O   0  0  0  0  0  0
  -23.5476  -32.1347   23.7317 O   0  0  0  0  0  0
  -27.3336  -18.3765   21.3953 C   0  0  0  0  0  0
  -28.1023  -17.1897   21.3400 C   0  0  0  0  0  0
  -29.9254  -18.5052   20.4639 C   0  0  0  0  0  0
  -30.2307  -22.8757   18.6122 C   0  0  0  0  0  0
  -30.3566  -20.6613   18.5433 C   0  0  0  0  0  0
  -27.8218  -19.6362   20.9536 C   0  0  0  0  0  0
  -29.1338  -19.7469   20.4197 C   0  0  0  0  0  0
  -29.4349  -17.1905   20.8856 C   0  0  0  0  0  0
  -30.7473  -21.7841   17.8911 C   0  0  0  0  0  0
  -29.4590  -22.4430   19.6649 C   0  0  0  0  0  0
  -28.1829  -24.8697   19.6868 C   0  0  0  0  0  0
  -26.9050  -20.8429   21.0687 C   0  0  0  0  0  0
  -28.7370  -23.5901   20.5092 C   0  0  0  0  0  0
  -29.5943  -20.9631   19.6769 N   0  0  0  0  0  0
  -30.2581  -15.9708   21.1684 N   0  0  0  0  0  0
  -27.6960  -24.6428   18.5761 O   0  0  0  0  0  0
  -31.4965  -21.8509   16.7549 O   0  0  0  0  0  0
  -31.4596  -12.5848   19.2314 H   0  0  0  0  0  0
  -30.3238  -11.5657   20.0536 H   0  0  0  0  0  0
  -29.8177  -11.7325   17.5781 H   0  0  0  0  0  0
  -29.6257  -13.4668   17.7355 H   0  0  0  0  0  0
  -27.9069  -11.2904   18.9660 H   0  0  0  0  0  0
  -27.3835  -12.4920   17.8245 H   0  0  0  0  0  0
  -27.5933  -14.2624   19.4191 H   0  0  0  0  0  0
  -28.7159  -12.3185   21.5034 H   0  0  0  0  0  0
  -28.3860  -14.0255   21.7510 H   0  0  0  0  0  0
  -25.2789   -9.5646   22.4763 H   0  0  0  0  0  0
  -24.0032   -7.4595   22.7400 H   0  0  0  0  0  0
  -21.0945   -8.8715   19.8947 H   0  0  0  0  0  0
  -22.3739  -10.9642   19.6155 H   0  0  0  0  0  0
  -21.1926   -7.6138   23.9702 H   0  0  0  0  0  0
  -21.1511   -6.0521   25.9070 H   0  0  0  0  0  0
  -22.0622   -2.7624   23.2791 H   0  0  0  0  0  0
  -22.4154  -11.9725   22.4805 H   0  0  0  0  0  0
  -21.1111  -13.1049   22.2657 H   0  0  0  0  0  0
  -24.6523  -15.8597   20.5590 H   0  0  0  0  0  0
  -26.2643  -15.6333   20.0971 H   0  0  0  0  0  0
  -26.7150  -32.5425   23.1084 H   0  0  0  0  0  0
  -25.0217  -33.9740   25.0561 H   0  0  0  0  0  0
  -22.7374  -31.3105   21.4191 H   0  0  0  0  0  0
  -23.3765  -35.9617   23.3259 H   0  0  0  0  0  0
  -24.3633  -36.8923   22.2069 H   0  0  0  0  0  0
  -23.7204  -37.6480   23.6645 H   0  0  0  0  0  0
  -26.1108  -31.5164   20.6186 H   0  0  0  0  0  0
  -26.8701  -30.8083   22.0088 H   0  0  0  0  0  0
  -28.1047  -28.8334   21.2426 H   0  0  0  0  0  0
  -25.7918  -25.8792   19.0698 H   0  0  0  0  0  0
  -23.9053  -27.3266   19.0686 H   0  0  0  0  0  0
  -23.8131  -30.6344   19.4351 H   0  0  0  0  0  0
  -22.7677  -29.3005   19.8284 H   0  0  0  0  0  0
  -25.1264  -36.1969   25.0849 H   0  0  0  0  0  0
  -21.0042  -28.3078   24.1467 H   0  0  0  0  0  0
  -20.5717  -26.2116   23.3626 H   0  0  0  0  0  0
  -21.6621  -26.7329   22.1222 H   0  0  0  0  0  0
  -19.6891  -25.6252   21.1240 H   0  0  0  0  0  0
  -19.6684  -27.3187   20.6869 H   0  0  0  0  0  0
  -17.4216  -26.6709   21.4028 H   0  0  0  0  0  0
  -18.0235  -25.9922   22.8976 H   0  0  0  0  0  0
  -19.7917  -30.7209   24.2369 H   0  0  0  0  0  0
  -17.4963  -31.6276   24.5039 H   0  0  0  0  0  0
  -15.5331  -30.2917   23.7603 H   0  0  0  0  0  0
  -15.8671  -28.0723   22.7110 H   0  0  0  0  0  0
  -24.5969  -30.6978   25.7898 H   0  0  0  0  0  0
  -24.8943  -32.2831   26.4968 H   0  0  0  0  0  0
  -25.8188  -30.8900   27.0276 H   0  0  0  0  0  0
  -26.2873  -29.6804   24.1179 H   0  0  0  0  0  0
  -27.4050  -29.7229   25.4587 H   0  0  0  0  0  0
  -27.8738  -30.4306   23.9343 H   0  0  0  0  0  0
  -27.2644  -33.3587   26.2070 H   0  0  0  0  0  0
  -28.3876  -32.6826   25.0357 H   0  0  0  0  0  0
  -28.0679  -31.8419   26.5445 H   0  0  0  0  0  0
  -28.2570  -38.0123   24.7553 H   0  0  0  0  0  0
  -28.1094  -36.2645   24.6217 H   0  0  0  0  0  0
  -27.2311  -37.1381   25.8874 H   0  0  0  0  0  0
  -20.9248  -29.8857   21.7163 H   0  0  0  0  0  0
  -26.0158  -38.2864   24.1494 H   0  0  0  0  0  0
  -26.3338  -18.3069   21.8022 H   0  0  0  0  0  0
  -27.6788  -16.2784   21.7333 H   0  0  0  0  0  0
  -30.9582  -18.5718   20.1590 H   0  0  0  0  0  0
  -30.3727  -23.9112   18.3336 H   0  0  0  0  0  0
  -30.5633  -19.6391   18.2552 H   0  0  0  0  0  0
  -25.8621  -20.5570   21.1734 H   0  0  0  0  0  0
  -26.9613  -21.4768   20.1883 H   0  0  0  0  0  0
  -27.1740  -21.4248   21.9543 H   0  0  0  0  0  0
  -29.4241  -23.9674   21.2659 H   0  0  0  0  0  0
  -27.8879  -23.2066   21.0662 H   0  0  0  0  0  0
  -31.1469  -16.3218   21.4975 H   0  0  0  0  0  0
  -31.4894  -21.0449   16.2461 H   0  0  0  0  0  0
  1 25  1  0  0  0
  1 30  2  0  0  0
  1 85  1  0  0  0
  2  3  1  0  0  0
  2 25  1  0  0  0
  2 88  1  0  0  0
  2 89  1  0  0  0
  3  4  1  0  0  0
  3 90  1  0  0  0
  3 91  1  0  0  0
  4  5  1  0  0  0
  4 92  1  0  0  0
  4 93  1  0  0  0
  5  6  1  0  0  0
  5 26  1  0  0  0
  5 94  1  0  0  0
  6 25  1  0  0  0
  6 95  1  0  0  0
  6 96  1  0  0  0
  7  8  2  0  0  0
  7 26  1  0  0  0
  7 29  1  0  0  0
  8  9  1  0  0  0
  8 22  1  0  0  0
  9 10  1  0  0  0
  9 27  2  0  0  0
 10 11  2  0  0  0
 10 15  1  0  0  0
 11 12  1  0  0  0
 11 97  1  0  0  0
 12 13  2  0  0  0
 12 98  1  0  0  0
 13 14  1  0  0  0
 13 31  1  0  0  0
 14 15  2  0  0  0
 14 99  1  0  0  0
 15100  1  0  0  0
 16 17  2  0  0  0
 16 21  1  0  0  0
 16 31  1  0  0  0
 17 18  1  0  0  0
 17101  1  0  0  0
 18 19  2  0  0  0
 18102  1  0  0  0
 19 20  1  0  0  0
 19 24  1  0  0  0
 20 21  2  0  0  0
 20103  1  0  0  0
 21 23  1  0  0  0
 22 28  1  0  0  0
 22 32  2  0  0  0
 26 27  1  0  0  0
 28104  1  0  0  0
 28105  1  0  0  0
 29106  1  0  0  0
 29107  1  0  0  0
 33 34  1  0  0  0
 33 66  1  0  0  0
 33 70  2  0  0  0
 34 36  1  0  0  0
 34 59  1  0  0  0
 34108  1  0  0  0
 35 44  2  0  0  0
 35 45  1  0  0  0
 35 68  1  0  0  0
 36 56  1  0  0  0
 36109  1  0  0  0
 37 39  1  0  0  0
 37 47  1  0  0  0
 37 66  1  0  0  0
 37110  1  0  0  0
 38 43  2  0  0  0
 38 46  1  0  0  0
 38 47  1  0  0  0
 39 64  1  0  0  0
 39 67  2  0  0  0
 40 52  1  0  0  0
 40 53  2  0  0  0
 40 58  1  0  0  0
 41111  1  0  0  0
 41112  1  0  0  0
 41113  1  0  0  0
 41 48  1  0  0  0
 42 43  1  0  0  0
 42 66  1  0  0  0
 42114  1  0  0  0
 42115  1  0  0  0
 43 44  1  0  0  0
 44116  1  0  0  0
 45 46  2  0  0  0
 45117  1  0  0  0
 46118  1  0  0  0
 47119  1  0  0  0
 47120  1  0  0  0
 48 56  1  0  0  0
 48 65  1  0  0  0
 48121  1  0  0  0
 49 50  1  0  0  0
 49 53  1  0  0  0
 49 64  1  0  0  0
 49122  1  0  0  0
 50 51  1  0  0  0
 50123  1  0  0  0
 50124  1  0  0  0
 51 52  1  0  0  0
 51125  1  0  0  0
 51126  1  0  0  0
 52127  1  0  0  0
 52128  1  0  0  0
 53 54  1  0  0  0
 54 55  2  0  0  0
 54129  1  0  0  0
 55 57  1  0  0  0
 55130  1  0  0  0
 56 69  2  0  0  0
 57 58  2  0  0  0
 57131  1  0  0  0
 58132  1  0  0  0
 59 60  1  0  0  0
 59 61  1  0  0  0
 59 62  1  0  0  0
 60133  1  0  0  0
 60134  1  0  0  0
 60135  1  0  0  0
 61136  1  0  0  0
 61137  1  0  0  0
 61138  1  0  0  0
 62139  1  0  0  0
 62140  1  0  0  0
 62141  1  0  0  0
 63 65  1  0  0  0
 63142  1  0  0  0
 63143  1  0  0  0
 63144  1  0  0  0
 64145  1  0  0  0
 65146  1  0  0  0
 68 81  1  0  0  0
 71 72  2  0  0  0
 71 76  1  0  0  0
 71147  1  0  0  0
 72 78  1  0  0  0
 72148  1  0  0  0
 73 77  1  0  0  0
 73 78  2  0  0  0
 73149  1  0  0  0
 74 79  1  0  0  0
 74 80  2  0  0  0
 74150  1  0  0  0
 75 79  2  0  0  0
 75 84  1  0  0  0
 75151  1  0  0  0
 76 77  2  0  0  0
 76 82  1  0  0  0
 77 84  1  0  0  0
 78 85  1  0  0  0
 79 87  1  0  0  0
 80 83  1  0  0  0
 80 84  1  0  0  0
 81 83  1  0  0  0
 81 86  2  0  0  0
 82152  1  0  0  0
 82153  1  0  0  0
 82154  1  0  0  0
 83155  1  0  0  0
 83156  1  0  0  0
 85157  1  0  0  0
 87158  1  0  0  0
M  ISO  4   1 100  68 101  81 101  85 100
M  END
> <chiral flag>
0

> <version>
0

> <s_m_source_file>
/data/baiqing/PycharmProjects/Reinvent-master-3.2/result/LINK_invent/BTK/process_docking_weight1_custom_product_contain_oxygen_bond_distance_aromatic_linkinvent_7_9_3/rearranged_h_0060.sdf

> <i_m_source_file_index>
93

> <r_mmod_Potential_Energy-OPLS-2005>
444.456726074219

> <r_mmod_Stretch_Energy-OPLS-2005>
180.475921630859

> <r_mmod_Bend_Energy-OPLS-2005>
291.320159912109

> <r_mmod_Torsional_Energy-OPLS-2005>
281.644897460938

> <r_mmod_Improper_Torsional_Energy-OPLS-2005>
11.8172874450684

> <r_mmod_Van_der_Waal_Energy-OPLS-2005>
148.372024536133

> <r_mmod_Electrostatic_Energy-OPLS-2005>
-368.852294921875

> <r_mmod_Solvation_Energy-OPLS-2005>
-231.527938842773

> <b_mmod_Minimization_Converged-OPLS-2005>
0

> <r_mmod_RMS_Derivative-OPLS-2005>
7.17859554290771

$$$$
93
                    3D
 Structure written by MMmdl.
157165  0  0  1  0            999 V2000
  -30.6107  -14.7488   20.4498 C   0  0  0  0  0  0
  -30.4324  -12.4498   19.4945 C   0  0  0  0  0  0
  -29.5203  -12.5081   18.2478 C   0  0  0  0  0  0
  -28.0435  -12.3337   18.6533 C   0  0  0  0  0  0
  -27.6446  -13.2350   19.8532 C   0  0  2  0  0  0
  -28.6840  -13.1716   20.9964 C   0  0  0  0  0  0
  -25.2518  -13.8206   20.5685 C   0  0  0  0  0  0
  -24.1803  -13.0451   20.9195 C   0  0  0  0  0  0
  -24.6387  -11.6925   20.8728 C   0  0  0  0  0  0
  -23.9064  -10.4291   21.0381 C   0  0  0  0  0  0
  -24.3620   -9.4212   21.9166 C   0  0  0  0  0  0
  -23.6292   -8.2245   22.0746 C   0  0  0  0  0  0
  -22.4272   -8.0278   21.3544 C   0  0  0  0  0  0
  -21.9900   -9.0253   20.4648 C   0  0  0  0  0  0
  -22.7230  -10.2124   20.3044 C   0  0  0  0  0  0
  -21.6855   -6.0730   22.5264 C   0  0  0  0  0  0
  -21.4024   -6.5631   23.8202 C   0  0  0  0  0  0
  -21.3661   -5.6784   24.9159 C   0  0  0  0  0  0
  -21.6039   -4.3047   24.7216 C   0  0  0  0  0  0
  -21.8821   -3.8137   23.4337 C   0  0  0  0  0  0
  -21.9194   -4.6955   22.3392 C   0  0  0  0  0  0
  -22.7823  -13.5233   21.1859 C   0  0  0  0  0  0
  -22.1667   -4.2142   21.0968 F   0  0  0  0  0  0
  -21.5627   -3.4534   25.7733 F   0  0  0  0  0  0
  -29.9924  -13.5169   20.4263 N   0  0  0  0  0  0
  -26.2945  -12.9418   20.3264 N   0  0  0  0  0  0
  -25.9319  -11.6558   20.5733 N   0  0  0  0  0  0
  -22.0464  -12.8228   22.0413 N   0  0  0  0  0  0
  -25.4233  -15.1929   20.4126 N   0  0  0  0  0  0
  -31.7852  -14.8439   20.0813 O   0  0  0  0  0  0
  -21.6643   -6.8872   21.4226 O   0  0  0  0  0  0
  -22.3493  -14.5543   20.6723 O   0  0  0  0  0  0
  -24.6306  -31.8565   23.1977 C   0  0  0  0  0  0
  -25.9127  -32.4773   23.8323 C   0  0  1  0  0  0
  -27.2218  -27.2658   20.1291 C   0  0  0  0  0  0
  -25.5925  -33.8574   24.2251 N   0  0  0  0  0  0
  -23.4279  -30.4788   21.5414 C   0  0  2  0  0  0
  -24.8751  -28.9270   20.1071 C   0  0  0  0  0  0
  -22.7504  -29.4605   22.4905 C   0  0  0  0  0  0
  -18.0294  -28.1390   22.8488 C   0  0  0  0  0  0
  -24.1493  -36.7291   23.2641 C   0  0  0  0  0  0
  -25.9733  -30.7699   21.3772 C   0  0  0  0  0  0
  -26.0454  -29.3933   20.7189 C   0  0  0  0  0  0
  -27.2197  -28.5751   20.7179 C   0  0  0  0  0  0
  -26.0318  -26.8728   19.4755 C   0  0  0  0  0  0
  -24.8740  -27.6752   19.4730 C   0  0  0  0  0  0
  -23.6454  -29.8135   20.1566 C   0  0  0  0  0  0
  -25.4119  -36.3084   24.0327 C   0  0  1  0  0  0
  -20.5901  -28.3704   23.1273 C   0  0  2  0  0  0
  -20.6787  -26.9422   22.5419 C   0  0  0  0  0  0
  -19.5756  -26.6385   21.5225 C   0  0  0  0  0  0
  -18.1933  -26.7931   22.1631 C   0  0  0  0  0  0
  -19.1549  -28.8861   23.2875 C   0  0  0  0  0  0
  -18.9470  -30.1462   23.8898 C   0  0  0  0  0  0
  -17.6467  -30.6589   24.0567 C   0  0  0  0  0  0
  -25.9056  -34.9455   23.5093 C   0  0  0  0  0  0
  -16.5358  -29.9090   23.6327 C   0  0  0  0  0  0
  -16.7280  -28.6507   23.0349 C   0  0  0  0  0  0
  -26.4471  -31.6604   25.0720 C   0  0  0  0  0  0
  -25.3675  -31.3778   26.1432 C   0  0  0  0  0  0
  -27.0318  -30.3021   24.6213 C   0  0  0  0  0  0
  -27.6021  -32.4353   25.7486 C   0  0  0  0  0  0
  -27.5577  -37.1805   24.8457 C   0  0  0  0  0  0
  -21.4212  -29.3039   22.3648 N   0  0  0  0  0  0
  -26.4296  -37.3782   23.9400 N   0  0  0  0  0  0
  -24.6965  -31.0536   22.0949 N   0  0  0  0  0  0
  -23.4199  -28.8146   23.3008 O   0  0  0  0  0  0
  -28.3253  -26.3838   20.2098 O   0  0  0  0  0  0
  -26.5642  -34.8931   22.4669 O   0  0  0  0  0  0
  -23.5450  -32.1380   23.7267 O   0  0  0  0  0  0
  -30.3587  -17.4050   18.8364 C   0  0  0  0  0  0
  -30.3682  -18.6621   18.2000 C   0  0  0  0  0  0
  -29.5538  -18.4950   20.8484 C   0  0  0  0  0  0
  -29.5761  -19.8173   20.2197 C   0  0  0  0  0  0
  -29.9492  -17.2595   20.1794 C   0  0  0  0  0  0
  -29.9886  -19.8455   18.8658 C   0  0  0  0  0  0
  -29.2847  -21.1550   20.9767 C   0  0  0  0  0  0
  -28.7396  -23.9980   22.2585 C   0  0  0  0  0  0
  -30.5603  -24.3014   20.5612 C   0  0  0  0  0  0
  -28.1642  -24.9023   19.9745 C   0  0  0  0  0  0
  -29.1038  -23.8437   20.7656 C   0  0  0  0  0  0
  -29.8626  -15.8851   20.7479 N   0  0  0  0  0  0
  -29.0536  -22.3637   20.3154 N   0  0  0  0  0  0
  -29.2883  -21.1008   22.2076 O   0  0  0  0  0  0
  -30.0369  -21.0116   18.1767 F   0  0  0  0  0  0
  -31.4789  -12.5561   19.2037 H   0  0  0  0  0  0
  -30.3620  -11.4751   19.9802 H   0  0  0  0  0  0
  -29.8089  -11.7384   17.5313 H   0  0  0  0  0  0
  -29.6530  -13.4628   17.7350 H   0  0  0  0  0  0
  -27.8930  -11.2857   18.9183 H   0  0  0  0  0  0
  -27.3926  -12.5281   17.7998 H   0  0  0  0  0  0
  -27.6418  -14.2566   19.4710 H   0  0  0  0  0  0
  -28.7110  -12.1759   21.4413 H   0  0  0  0  0  0
  -28.4139  -13.8558   21.8024 H   0  0  0  0  0  0
  -25.2770   -9.5706   22.4733 H   0  0  0  0  0  0
  -24.0013   -7.4643   22.7475 H   0  0  0  0  0  0
  -21.0829   -8.8779   19.8960 H   0  0  0  0  0  0
  -22.3696  -10.9663   19.6157 H   0  0  0  0  0  0
  -21.2032   -7.6140   23.9711 H   0  0  0  0  0  0
  -21.1478   -6.0506   25.9067 H   0  0  0  0  0  0
  -22.0604   -2.7601   23.2832 H   0  0  0  0  0  0
  -22.4081  -11.9907   22.4830 H   0  0  0  0  0  0
  -21.1081  -13.1251   22.2623 H   0  0  0  0  0  0
  -24.6613  -15.8531   20.5249 H   0  0  0  0  0  0
  -26.2753  -15.6249   20.0779 H   0  0  0  0  0  0
  -26.7197  -32.5412   23.1067 H   0  0  0  0  0  0
  -25.0043  -33.9715   25.0373 H   0  0  0  0  0  0
  -22.7240  -31.3013   21.3970 H   0  0  0  0  0  0
  -23.3764  -35.9613   23.3302 H   0  0  0  0  0  0
  -24.3580  -36.8914   22.2054 H   0  0  0  0  0  0
  -23.7239  -37.6490   23.6666 H   0  0  0  0  0  0
  -26.1150  -31.5298   20.6074 H   0  0  0  0  0  0
  -26.8508  -30.8175   22.0107 H   0  0  0  0  0  0
  -28.1150  -28.9262   21.2112 H   0  0  0  0  0  0
  -25.9654  -25.9218   18.9695 H   0  0  0  0  0  0
  -23.9807  -27.3165   18.9814 H   0  0  0  0  0  0
  -23.7678  -30.5916   19.4017 H   0  0  0  0  0  0
  -22.7622  -29.2482   19.8527 H   0  0  0  0  0  0
  -25.1305  -36.1933   25.0821 H   0  0  0  0  0  0
  -21.0000  -28.3294   24.1390 H   0  0  0  0  0  0
  -20.5710  -26.2311   23.3624 H   0  0  0  0  0  0
  -21.6654  -26.7453   22.1206 H   0  0  0  0  0  0
  -19.6925  -25.6294   21.1261 H   0  0  0  0  0  0
  -19.6696  -27.3196   20.6755 H   0  0  0  0  0  0
  -17.4211  -26.6689   21.4025 H   0  0  0  0  0  0
  -18.0318  -26.0075   22.9026 H   0  0  0  0  0  0
  -19.7943  -30.7286   24.2262 H   0  0  0  0  0  0
  -17.5018  -31.6269   24.5176 H   0  0  0  0  0  0
  -15.5359  -30.2997   23.7645 H   0  0  0  0  0  0
  -15.8679  -28.0834   22.7055 H   0  0  0  0  0  0
  -24.5826  -30.7164   25.7745 H   0  0  0  0  0  0
  -24.8894  -32.2966   26.4841 H   0  0  0  0  0  0
  -25.7959  -30.8943   27.0221 H   0  0  0  0  0  0
  -26.2908  -29.6782   24.1208 H   0  0  0  0  0  0
  -27.3964  -29.7277   25.4737 H   0  0  0  0  0  0
  -27.8796  -30.4303   23.9483 H   0  0  0  0  0  0
  -27.2620  -33.3650   26.2062 H   0  0  0  0  0  0
  -28.3816  -32.6930   25.0306 H   0  0  0  0  0  0
  -28.0707  -31.8492   26.5401 H   0  0  0  0  0  0
  -28.2607  -38.0094   24.7513 H   0  0  0  0  0  0
  -28.1075  -36.2632   24.6285 H   0  0  0  0  0  0
  -27.2303  -37.1453   25.8864 H   0  0  0  0  0  0
  -20.9393  -29.8738   21.6838 H   0  0  0  0  0  0
  -26.0180  -38.2861   24.1396 H   0  0  0  0  0  0
  -30.6504  -16.5408   18.2571 H   0  0  0  0  0  0
  -30.6785  -18.7217   17.1673 H   0  0  0  0  0  0
  -29.2424  -18.4375   21.8815 H   0  0  0  0  0  0
  -28.6828  -25.0492   22.5456 H   0  0  0  0  0  0
  -29.4776  -23.5386   22.9157 H   0  0  0  0  0  0
  -27.7685  -23.5545   22.4767 H   0  0  0  0  0  0
  -30.7039  -25.3364   20.8751 H   0  0  0  0  0  0
  -30.8494  -24.2379   19.5115 H   0  0  0  0  0  0
  -31.2590  -23.6929   21.1353 H   0  0  0  0  0  0
  -27.1405  -24.6077   20.2044 H   0  0  0  0  0  0
  -28.2846  -24.7383   18.9032 H   0  0  0  0  0  0
  -29.0138  -15.6941   21.2580 H   0  0  0  0  0  0
  -29.0426  -22.2445   19.3091 H   0  0  0  0  0  0
  1 25  1  0  0  0
  1 30  2  0  0  0
  1 82  1  0  0  0
  2  3  1  0  0  0
  2 25  1  0  0  0
  2 86  1  0  0  0
  2 87  1  0  0  0
  3  4  1  0  0  0
  3 88  1  0  0  0
  3 89  1  0  0  0
  4  5  1  0  0  0
  4 90  1  0  0  0
  4 91  1  0  0  0
  5  6  1  0  0  0
  5 26  1  0  0  0
  5 92  1  0  0  0
  6 25  1  0  0  0
  6 93  1  0  0  0
  6 94  1  0  0  0
  7  8  2  0  0  0
  7 26  1  0  0  0
  7 29  1  0  0  0
  8  9  1  0  0  0
  8 22  1  0  0  0
  9 10  1  0  0  0
  9 27  2  0  0  0
 10 11  2  0  0  0
 10 15  1  0  0  0
 11 12  1  0  0  0
 11 95  1  0  0  0
 12 13  2  0  0  0
 12 96  1  0  0  0
 13 14  1  0  0  0
 13 31  1  0  0  0
 14 15  2  0  0  0
 14 97  1  0  0  0
 15 98  1  0  0  0
 16 17  2  0  0  0
 16 21  1  0  0  0
 16 31  1  0  0  0
 17 18  1  0  0  0
 17 99  1  0  0  0
 18 19  2  0  0  0
 18100  1  0  0  0
 19 20  1  0  0  0
 19 24  1  0  0  0
 20 21  2  0  0  0
 20101  1  0  0  0
 21 23  1  0  0  0
 22 28  1  0  0  0
 22 32  2  0  0  0
 26 27  1  0  0  0
 28102  1  0  0  0
 28103  1  0  0  0
 29104  1  0  0  0
 29105  1  0  0  0
 33 34  1  0  0  0
 33 66  1  0  0  0
 33 70  2  0  0  0
 34 36  1  0  0  0
 34 59  1  0  0  0
 34106  1  0  0  0
 35 44  2  0  0  0
 35 45  1  0  0  0
 35 68  1  0  0  0
 36 56  1  0  0  0
 36107  1  0  0  0
 37 39  1  0  0  0
 37 47  1  0  0  0
 37 66  1  0  0  0
 37108  1  0  0  0
 38 43  2  0  0  0
 38 46  1  0  0  0
 38 47  1  0  0  0
 39 64  1  0  0  0
 39 67  2  0  0  0
 40 52  1  0  0  0
 40 53  2  0  0  0
 40 58  1  0  0  0
 41109  1  0  0  0
 41110  1  0  0  0
 41111  1  0  0  0
 41 48  1  0  0  0
 42 43  1  0  0  0
 42 66  1  0  0  0
 42112  1  0  0  0
 42113  1  0  0  0
 43 44  1  0  0  0
 44114  1  0  0  0
 45 46  2  0  0  0
 45115  1  0  0  0
 46116  1  0  0  0
 47117  1  0  0  0
 47118  1  0  0  0
 48 56  1  0  0  0
 48 65  1  0  0  0
 48119  1  0  0  0
 49 50  1  0  0  0
 49 53  1  0  0  0
 49 64  1  0  0  0
 49120  1  0  0  0
 50 51  1  0  0  0
 50121  1  0  0  0
 50122  1  0  0  0
 51 52  1  0  0  0
 51123  1  0  0  0
 51124  1  0  0  0
 52125  1  0  0  0
 52126  1  0  0  0
 53 54  1  0  0  0
 54 55  2  0  0  0
 54127  1  0  0  0
 55 57  1  0  0  0
 55128  1  0  0  0
 56 69  2  0  0  0
 57 58  2  0  0  0
 57129  1  0  0  0
 58130  1  0  0  0
 59 60  1  0  0  0
 59 61  1  0  0  0
 59 62  1  0  0  0
 60131  1  0  0  0
 60132  1  0  0  0
 60133  1  0  0  0
 61134  1  0  0  0
 61135  1  0  0  0
 61136  1  0  0  0
 62137  1  0  0  0
 62138  1  0  0  0
 62139  1  0  0  0
 63 65  1  0  0  0
 63140  1  0  0  0
 63141  1  0  0  0
 63142  1  0  0  0
 64143  1  0  0  0
 65144  1  0  0  0
 68 80  1  0  0  0
 71 72  2  0  0  0
 71 75  1  0  0  0
 71145  1  0  0  0
 72 76  1  0  0  0
 72146  1  0  0  0
 73 74  1  0  0  0
 73 75  2  0  0  0
 73147  1  0  0  0
 74 76  2  0  0  0
 74 77  1  0  0  0
 75 82  1  0  0  0
 76 85  1  0  0  0
 77 83  1  0  0  0
 77 84  2  0  0  0
 78148  1  0  0  0
 78149  1  0  0  0
 78150  1  0  0  0
 78 81  1  0  0  0
 79 81  1  0  0  0
 79151  1  0  0  0
 79152  1  0  0  0
 79153  1  0  0  0
 80 81  1  0  0  0
 80154  1  0  0  0
 80155  1  0  0  0
 81 83  1  0  0  0
 82156  1  0  0  0
 83157  1  0  0  0
M  ISO  4   1 100  68 101  80 101  82 100
M  END
> <chiral flag>
0

> <version>
0

> <s_m_source_file>
/data/baiqing/PycharmProjects/Reinvent-master-3.2/result/LINK_invent/BTK/process_docking_weight1_custom_product_contain_oxygen_bond_distance_aromatic_linkinvent_7_9_3/rearranged_h_0060.sdf

> <i_m_source_file_index>
94

> <r_mmod_Potential_Energy-OPLS-2005>
114.602310180664

> <r_mmod_Stretch_Energy-OPLS-2005>
131.258377075195

> <r_mmod_Bend_Energy-OPLS-2005>
163.767547607422

> <r_mmod_Torsional_Energy-OPLS-2005>
239.482360839844

> <r_mmod_Improper_Torsional_Energy-OPLS-2005>
4.97580337524414

> <r_mmod_Van_der_Waal_Energy-OPLS-2005>
145.512680053711

> <r_mmod_Electrostatic_Energy-OPLS-2005>
-438.215087890625

> <r_mmod_Solvation_Energy-OPLS-2005>
-217.12255859375

> <b_mmod_Minimization_Converged-OPLS-2005>
0

> <r_mmod_RMS_Derivative-OPLS-2005>
2.22999787330627

$$$$
94
                    3D
 Structure written by MMmdl.
164173  0  0  1  0            999 V2000
  -30.6577  -14.4938   20.5185 C   0  0  0  0  0  0
  -30.4231  -12.2997   19.4360 C   0  0  0  0  0  0
  -29.5005  -12.5007   18.2147 C   0  0  0  0  0  0
  -28.0174  -12.3583   18.6168 C   0  0  0  0  0  0
  -27.6558  -13.2034   19.8686 C   0  0  2  0  0  0
  -28.6932  -12.9860   20.9959 C   0  0  0  0  0  0
  -25.2552  -13.8123   20.5661 C   0  0  0  0  0  0
  -24.1809  -13.0405   20.9164 C   0  0  0  0  0  0
  -24.6354  -11.6871   20.8712 C   0  0  0  0  0  0
  -23.9017  -10.4265   21.0399 C   0  0  0  0  0  0
  -24.3583   -9.4193   21.9178 C   0  0  0  0  0  0
  -23.6277   -8.2219   22.0745 C   0  0  0  0  0  0
  -22.4257   -8.0243   21.3530 C   0  0  0  0  0  0
  -21.9883   -9.0207   20.4629 C   0  0  0  0  0  0
  -22.7192  -10.2097   20.3051 C   0  0  0  0  0  0
  -21.6836   -6.0724   22.5280 C   0  0  0  0  0  0
  -21.3994   -6.5632   23.8209 C   0  0  0  0  0  0
  -21.3669   -5.6789   24.9180 C   0  0  0  0  0  0
  -21.6065   -4.3056   24.7232 C   0  0  0  0  0  0
  -21.8813   -3.8138   23.4355 C   0  0  0  0  0  0
  -21.9181   -4.6954   22.3409 C   0  0  0  0  0  0
  -22.7839  -13.5211   21.1856 C   0  0  0  0  0  0
  -22.1649   -4.2149   21.0985 F   0  0  0  0  0  0
  -21.5661   -3.4536   25.7747 F   0  0  0  0  0  0
  -30.0268  -13.2897   20.4511 N   0  0  0  0  0  0
  -26.2968  -12.9292   20.3294 N   0  0  0  0  0  0
  -25.9265  -11.6447   20.5696 N   0  0  0  0  0  0
  -22.0468  -12.8228   22.0426 N   0  0  0  0  0  0
  -25.4265  -15.1846   20.4098 N   0  0  0  0  0  0
  -31.8111  -14.6612   20.1144 O   0  0  0  0  0  0
  -21.6616   -6.8858   21.4228 O   0  0  0  0  0  0
  -22.3529  -14.5519   20.6712 O   0  0  0  0  0  0
  -24.6138  -31.8691   23.2109 C   0  0  0  0  0  0
  -25.9040  -32.4810   23.8403 C   0  0  1  0  0  0
  -27.2267  -27.4315   20.0999 C   0  0  0  0  0  0
  -25.5903  -33.8614   24.2321 N   0  0  0  0  0  0
  -23.4005  -30.4936   21.5520 C   0  0  2  0  0  0
  -24.8490  -28.9609   20.1146 C   0  0  0  0  0  0
  -22.7397  -29.4654   22.4983 C   0  0  0  0  0  0
  -18.0284  -28.1351   22.8505 C   0  0  0  0  0  0
  -24.1495  -36.7317   23.2638 C   0  0  0  0  0  0
  -25.9314  -30.8281   21.3709 C   0  0  0  0  0  0
  -26.0071  -29.4615   20.7238 C   0  0  0  0  0  0
  -27.1979  -28.6990   20.7296 C   0  0  0  0  0  0
  -26.0668  -26.9655   19.4507 C   0  0  0  0  0  0
  -24.8726  -27.7089   19.4779 C   0  0  0  0  0  0
  -23.6103  -29.8268   20.1664 C   0  0  0  0  0  0
  -25.4117  -36.3104   24.0333 C   0  0  1  0  0  0
  -20.5877  -28.3618   23.1311 C   0  0  2  0  0  0
  -20.6765  -26.9365   22.5397 C   0  0  0  0  0  0
  -19.5743  -26.6402   21.5169 C   0  0  0  0  0  0
  -18.1915  -26.7918   22.1596 C   0  0  0  0  0  0
  -19.1544  -28.8804   23.2911 C   0  0  0  0  0  0
  -18.9480  -30.1397   23.8923 C   0  0  0  0  0  0
  -17.6478  -30.6554   24.0566 C   0  0  0  0  0  0
  -25.9042  -34.9465   23.5126 C   0  0  0  0  0  0
  -16.5369  -29.9072   23.6317 C   0  0  0  0  0  0
  -16.7269  -28.6471   23.0362 C   0  0  0  0  0  0
  -26.4479  -31.6590   25.0726 C   0  0  0  0  0  0
  -25.3738  -31.3710   26.1462 C   0  0  0  0  0  0
  -27.0315  -30.3036   24.6103 C   0  0  0  0  0  0
  -27.6045  -32.4320   25.7491 C   0  0  0  0  0  0
  -27.5579  -37.1810   24.8464 C   0  0  0  0  0  0
  -21.4132  -29.2994   22.3713 N   0  0  0  0  0  0
  -26.4295  -37.3790   23.9397 N   0  0  0  0  0  0
  -24.6662  -31.0776   22.1026 N   0  0  0  0  0  0
  -23.4190  -28.8223   23.3035 O   0  0  0  0  0  0
  -28.3542  -26.6391   20.0863 O   0  0  0  0  0  0
  -26.5597  -34.8917   22.4681 O   0  0  0  0  0  0
  -23.5326  -32.1464   23.7485 O   0  0  0  0  0  0
  -30.1233  -18.3507   18.4040 C   0  0  0  0  0  0
  -30.3467  -17.1116   19.0303 C   0  0  0  0  0  0
  -29.0366  -17.8527   20.9311 C   0  0  0  0  0  0
  -29.3383  -19.3480   19.0176 C   0  0  0  0  0  0
  -28.8061  -19.1139   20.3137 C   0  0  0  0  0  0
  -29.7920  -16.8312   20.3001 C   0  0  0  0  0  0
  -29.3464  -22.0713   21.5507 C   0  0  0  0  0  0
  -29.6294  -23.5862   21.4363 C   0  0  0  0  0  0
  -27.4117  -23.9096   20.3486 C   0  0  0  0  0  0
  -27.0800  -22.4234   20.5979 C   0  0  0  0  0  0
  -28.3595  -24.4631   21.4182 C   0  0  1  0  0  0
  -29.0569  -20.6201   18.2358 C   0  0  0  0  0  0
  -27.8878  -20.1204   21.0341 C   0  0  0  0  0  0
  -28.6541  -25.9980   21.3369 C   0  0  0  0  0  0
  -28.2175  -21.5666   20.9934 N   0  0  0  0  0  0
  -29.8802  -15.5301   20.9081 N   0  0  0  0  0  0
  -30.1816  -21.3624   22.1204 O   0  0  0  0  0  0
  -31.4710  -12.3924   19.1443 H   0  0  0  0  0  0
  -30.3175  -11.2906   19.8379 H   0  0  0  0  0  0
  -29.7440  -11.7738   17.4396 H   0  0  0  0  0  0
  -29.6703  -13.4874   17.7800 H   0  0  0  0  0  0
  -27.8308  -11.3028   18.8183 H   0  0  0  0  0  0
  -27.3704  -12.6227   17.7782 H   0  0  0  0  0  0
  -27.6939  -14.2492   19.5594 H   0  0  0  0  0  0
  -28.6691  -11.9489   21.3363 H   0  0  0  0  0  0
  -28.4551  -13.5861   21.8756 H   0  0  0  0  0  0
  -25.2732   -9.5697   22.4750 H   0  0  0  0  0  0
  -24.0000   -7.4621   22.7483 H   0  0  0  0  0  0
  -21.0814   -8.8706   19.8945 H   0  0  0  0  0  0
  -22.3630  -10.9629   19.6170 H   0  0  0  0  0  0
  -21.1953   -7.6134   23.9713 H   0  0  0  0  0  0
  -21.1509   -6.0524   25.9090 H   0  0  0  0  0  0
  -22.0582   -2.7598   23.2852 H   0  0  0  0  0  0
  -22.4043  -11.9892   22.4853 H   0  0  0  0  0  0
  -21.1068  -13.1247   22.2568 H   0  0  0  0  0  0
  -24.6559  -15.8364   20.5135 H   0  0  0  0  0  0
  -26.2845  -15.6247   20.0978 H   0  0  0  0  0  0
  -26.7101  -32.5528   23.1152 H   0  0  0  0  0  0
  -25.0056  -33.9799   25.0462 H   0  0  0  0  0  0
  -22.6899  -31.3108   21.4141 H   0  0  0  0  0  0
  -23.3741  -35.9665   23.3317 H   0  0  0  0  0  0
  -24.3585  -36.8923   22.2048 H   0  0  0  0  0  0
  -23.7264  -37.6537   23.6648 H   0  0  0  0  0  0
  -26.0441  -31.5944   20.6016 H   0  0  0  0  0  0
  -26.8179  -30.8817   21.9905 H   0  0  0  0  0  0
  -28.0857  -29.0779   21.2170 H   0  0  0  0  0  0
  -26.0796  -26.0250   18.9211 H   0  0  0  0  0  0
  -23.9878  -27.3221   18.9908 H   0  0  0  0  0  0
  -23.7131  -30.6030   19.4072 H   0  0  0  0  0  0
  -22.7351  -29.2458   19.8701 H   0  0  0  0  0  0
  -25.1287  -36.1973   25.0827 H   0  0  0  0  0  0
  -20.9993  -28.3171   24.1420 H   0  0  0  0  0  0
  -20.5672  -26.2224   23.3572 H   0  0  0  0  0  0
  -21.6640  -26.7420   22.1167 H   0  0  0  0  0  0
  -19.6874  -25.6345   21.1104 H   0  0  0  0  0  0
  -19.6670  -27.3291   20.6750 H   0  0  0  0  0  0
  -17.4186  -26.6736   21.3974 H   0  0  0  0  0  0
  -18.0280  -26.0003   22.8930 H   0  0  0  0  0  0
  -19.7973  -30.7184   24.2289 H   0  0  0  0  0  0
  -17.5051  -31.6225   24.5148 H   0  0  0  0  0  0
  -15.5380  -30.2994   23.7610 H   0  0  0  0  0  0
  -15.8673  -28.0797   22.7071 H   0  0  0  0  0  0
  -24.5887  -30.7086   25.7799 H   0  0  0  0  0  0
  -24.8956  -32.2880   26.4922 H   0  0  0  0  0  0
  -25.8076  -30.8866   27.0211 H   0  0  0  0  0  0
  -26.2877  -29.6786   24.1150 H   0  0  0  0  0  0
  -27.4088  -29.7275   25.4556 H   0  0  0  0  0  0
  -27.8704  -30.4360   23.9264 H   0  0  0  0  0  0
  -27.2650  -33.3596   26.2105 H   0  0  0  0  0  0
  -28.3838  -32.6916   25.0315 H   0  0  0  0  0  0
  -28.0730  -31.8428   26.5376 H   0  0  0  0  0  0
  -28.2603  -38.0101   24.7488 H   0  0  0  0  0  0
  -28.1066  -36.2624   24.6316 H   0  0  0  0  0  0
  -27.2287  -37.1496   25.8867 H   0  0  0  0  0  0
  -20.9266  -29.8706   21.6943 H   0  0  0  0  0  0
  -26.0184  -38.2871   24.1391 H   0  0  0  0  0  0
  -30.5379  -18.5182   17.4183 H   0  0  0  0  0  0
  -30.9111  -16.3703   18.4841 H   0  0  0  0  0  0
  -28.5920  -17.6555   21.8973 H   0  0  0  0  0  0
  -30.2111  -23.7469   20.5293 H   0  0  0  0  0  0
  -30.2676  -23.8836   22.2690 H   0  0  0  0  0  0
  -26.4777  -24.4664   20.3579 H   0  0  0  0  0  0
  -27.8503  -24.0344   19.3565 H   0  0  0  0  0  0
  -26.5858  -22.0192   19.7130 H   0  0  0  0  0  0
  -26.3479  -22.3668   21.4061 H   0  0  0  0  0  0
  -27.8717  -24.3118   22.3826 H   0  0  0  0  0  0
  -29.6283  -21.4589   18.6324 H   0  0  0  0  0  0
  -27.9949  -20.8660   18.2615 H   0  0  0  0  0  0
  -29.3354  -20.5121   17.1882 H   0  0  0  0  0  0
  -27.8042  -19.8310   22.0816 H   0  0  0  0  0  0
  -26.8907  -19.9618   20.6171 H   0  0  0  0  0  0
  -29.7101  -26.1788   21.5408 H   0  0  0  0  0  0
  -28.1289  -26.4953   22.1545 H   0  0  0  0  0  0
  -29.0764  -15.2638   21.4557 H   0  0  0  0  0  0
  1 25  1  0  0  0
  1 30  2  0  0  0
  1 86  1  0  0  0
  2  3  1  0  0  0
  2 25  1  0  0  0
  2 88  1  0  0  0
  2 89  1  0  0  0
  3  4  1  0  0  0
  3 90  1  0  0  0
  3 91  1  0  0  0
  4  5  1  0  0  0
  4 92  1  0  0  0
  4 93  1  0  0  0
  5  6  1  0  0  0
  5 26  1  0  0  0
  5 94  1  0  0  0
  6 25  1  0  0  0
  6 95  1  0  0  0
  6 96  1  0  0  0
  7  8  2  0  0  0
  7 26  1  0  0  0
  7 29  1  0  0  0
  8  9  1  0  0  0
  8 22  1  0  0  0
  9 10  1  0  0  0
  9 27  2  0  0  0
 10 11  2  0  0  0
 10 15  1  0  0  0
 11 12  1  0  0  0
 11 97  1  0  0  0
 12 13  2  0  0  0
 12 98  1  0  0  0
 13 14  1  0  0  0
 13 31  1  0  0  0
 14 15  2  0  0  0
 14 99  1  0  0  0
 15100  1  0  0  0
 16 17  2  0  0  0
 16 21  1  0  0  0
 16 31  1  0  0  0
 17 18  1  0  0  0
 17101  1  0  0  0
 18 19  2  0  0  0
 18102  1  0  0  0
 19 20  1  0  0  0
 19 24  1  0  0  0
 20 21  2  0  0  0
 20103  1  0  0  0
 21 23  1  0  0  0
 22 28  1  0  0  0
 22 32  2  0  0  0
 26 27  1  0  0  0
 28104  1  0  0  0
 28105  1  0  0  0
 29106  1  0  0  0
 29107  1  0  0  0
 33 34  1  0  0  0
 33 66  1  0  0  0
 33 70  2  0  0  0
 34 36  1  0  0  0
 34 59  1  0  0  0
 34108  1  0  0  0
 35 44  2  0  0  0
 35 45  1  0  0  0
 35 68  1  0  0  0
 36 56  1  0  0  0
 36109  1  0  0  0
 37 39  1  0  0  0
 37 47  1  0  0  0
 37 66  1  0  0  0
 37110  1  0  0  0
 38 43  2  0  0  0
 38 46  1  0  0  0
 38 47  1  0  0  0
 39 64  1  0  0  0
 39 67  2  0  0  0
 40 52  1  0  0  0
 40 53  2  0  0  0
 40 58  1  0  0  0
 41111  1  0  0  0
 41112  1  0  0  0
 41113  1  0  0  0
 41 48  1  0  0  0
 42 43  1  0  0  0
 42 66  1  0  0  0
 42114  1  0  0  0
 42115  1  0  0  0
 43 44  1  0  0  0
 44116  1  0  0  0
 45 46  2  0  0  0
 45117  1  0  0  0
 46118  1  0  0  0
 47119  1  0  0  0
 47120  1  0  0  0
 48 56  1  0  0  0
 48 65  1  0  0  0
 48121  1  0  0  0
 49 50  1  0  0  0
 49 53  1  0  0  0
 49 64  1  0  0  0
 49122  1  0  0  0
 50 51  1  0  0  0
 50123  1  0  0  0
 50124  1  0  0  0
 51 52  1  0  0  0
 51125  1  0  0  0
 51126  1  0  0  0
 52127  1  0  0  0
 52128  1  0  0  0
 53 54  1  0  0  0
 54 55  2  0  0  0
 54129  1  0  0  0
 55 57  1  0  0  0
 55130  1  0  0  0
 56 69  2  0  0  0
 57 58  2  0  0  0
 57131  1  0  0  0
 58132  1  0  0  0
 59 60  1  0  0  0
 59 61  1  0  0  0
 59 62  1  0  0  0
 60133  1  0  0  0
 60134  1  0  0  0
 60135  1  0  0  0
 61136  1  0  0  0
 61137  1  0  0  0
 61138  1  0  0  0
 62139  1  0  0  0
 62140  1  0  0  0
 62141  1  0  0  0
 63 65  1  0  0  0
 63142  1  0  0  0
 63143  1  0  0  0
 63144  1  0  0  0
 64145  1  0  0  0
 65146  1  0  0  0
 68 84  1  0  0  0
 71 72  2  0  0  0
 71 74  1  0  0  0
 71147  1  0  0  0
 72 76  1  0  0  0
 72148  1  0  0  0
 73 75  1  0  0  0
 73 76  2  0  0  0
 73149  1  0  0  0
 74 75  2  0  0  0
 74 82  1  0  0  0
 75 83  1  0  0  0
 76 86  1  0  0  0
 77 78  1  0  0  0
 77 85  1  0  0  0
 77 87  2  0  0  0
 78 81  1  0  0  0
 78150  1  0  0  0
 78151  1  0  0  0
 79 80  1  0  0  0
 79 81  1  0  0  0
 79152  1  0  0  0
 79153  1  0  0  0
 80 85  1  0  0  0
 80154  1  0  0  0
 80155  1  0  0  0
 81 84  1  0  0  0
 81156  1  0  0  0
 82157  1  0  0  0
 82158  1  0  0  0
 82159  1  0  0  0
 83 85  1  0  0  0
 83160  1  0  0  0
 83161  1  0  0  0
 84162  1  0  0  0
 84163  1  0  0  0
 86164  1  0  0  0
M  ISO  4   1 100  68 101  84 101  86 100
M  END
> <chiral flag>
0

> <version>
0

> <s_m_source_file>
/data/baiqing/PycharmProjects/Reinvent-master-3.2/result/LINK_invent/BTK/process_docking_weight1_custom_product_contain_oxygen_bond_distance_aromatic_linkinvent_7_9_3/rearranged_h_0060.sdf

> <i_m_source_file_index>
95

> <r_mmod_Potential_Energy-OPLS-2005>
4.01880741119385

> <r_mmod_Stretch_Energy-OPLS-2005>
44.0081520080566

> <r_mmod_Bend_Energy-OPLS-2005>
110.070503234863

> <r_mmod_Torsional_Energy-OPLS-2005>
287.900970458984

> <r_mmod_Improper_Torsional_Energy-OPLS-2005>
6.34795951843262

> <r_mmod_Van_der_Waal_Energy-OPLS-2005>
160.289291381836

> <r_mmod_Electrostatic_Energy-OPLS-2005>
-391.033538818359

> <r_mmod_Solvation_Energy-OPLS-2005>
-230.109939575195

> <b_mmod_Minimization_Converged-OPLS-2005>
0

> <r_mmod_RMS_Derivative-OPLS-2005>
3.20136952400208

$$$$
