0
                    3D
 Structure written by MMmdl.
155164  0  0  1  0            999 V2000
  -30.5953  -14.7984   20.4351 C   0  0  0  0  0  0
  -30.4336  -12.4849   19.4831 C   0  0  0  0  0  0
  -29.5114  -12.5207   18.2429 C   0  0  0  0  0  0
  -28.0394  -12.3356   18.6547 C   0  0  0  0  0  0
  -27.6411  -13.2374   19.8536 C   0  0  2  0  0  0
  -28.6872  -13.1885   20.9894 C   0  0  0  0  0  0
  -25.2512  -13.8205   20.5721 C   0  0  0  0  0  0
  -24.1807  -13.0444   20.9220 C   0  0  0  0  0  0
  -24.6399  -11.6923   20.8746 C   0  0  0  0  0  0
  -23.9075  -10.4295   21.0401 C   0  0  0  0  0  0
  -24.3634   -9.4207   21.9173 C   0  0  0  0  0  0
  -23.6314   -8.2241   22.0743 C   0  0  0  0  0  0
  -22.4294   -8.0273   21.3539 C   0  0  0  0  0  0
  -21.9931   -9.0241   20.4636 C   0  0  0  0  0  0
  -22.7251  -10.2127   20.3048 C   0  0  0  0  0  0
  -21.6864   -6.0744   22.5283 C   0  0  0  0  0  0
  -21.4009   -6.5653   23.8216 C   0  0  0  0  0  0
  -21.3664   -5.6799   24.9178 C   0  0  0  0  0  0
  -21.6046   -4.3060   24.7230 C   0  0  0  0  0  0
  -21.8821   -3.8158   23.4350 C   0  0  0  0  0  0
  -21.9193   -4.6969   22.3402 C   0  0  0  0  0  0
  -22.7821  -13.5212   21.1879 C   0  0  0  0  0  0
  -22.1662   -4.2156   21.0977 F   0  0  0  0  0  0
  -21.5634   -3.4544   25.7747 F   0  0  0  0  0  0
  -29.9867  -13.5565   20.4090 N   0  0  0  0  0  0
  -26.2943  -12.9415   20.3310 N   0  0  0  0  0  0
  -25.9335  -11.6552   20.5775 N   0  0  0  0  0  0
  -22.0482  -12.8172   22.0431 N   0  0  0  0  0  0
  -25.4204  -15.1929   20.4136 N   0  0  0  0  0  0
  -31.7763  -14.8870   20.0881 O   0  0  0  0  0  0
  -21.6652   -6.8876   21.4239 O   0  0  0  0  0  0
  -22.3489  -14.5510   20.6734 O   0  0  0  0  0  0
  -24.6347  -31.8523   23.1965 C   0  0  0  0  0  0
  -25.9152  -32.4743   23.8335 C   0  0  1  0  0  0
  -27.2282  -27.2248   20.1328 C   0  0  0  0  0  0
  -25.5937  -33.8549   24.2255 N   0  0  0  0  0  0
  -23.4350  -30.4720   21.5395 C   0  0  2  0  0  0
  -24.8853  -28.9148   20.1082 C   0  0  0  0  0  0
  -22.7524  -29.4580   22.4896 C   0  0  0  0  0  0
  -18.0300  -28.1392   22.8492 C   0  0  0  0  0  0
  -24.1484  -36.7267   23.2643 C   0  0  0  0  0  0
  -25.9841  -30.7505   21.3859 C   0  0  0  0  0  0
  -26.0564  -29.3696   20.7265 C   0  0  0  0  0  0
  -27.2271  -28.5371   20.7291 C   0  0  0  0  0  0
  -26.0374  -26.8607   19.4623 C   0  0  0  0  0  0
  -24.8840  -27.6700   19.4635 C   0  0  0  0  0  0
  -23.6568  -29.8048   20.1560 C   0  0  0  0  0  0
  -25.4116  -36.3070   24.0331 C   0  0  1  0  0  0
  -20.5901  -28.3703   23.1260 C   0  0  2  0  0  0
  -20.6779  -26.9415   22.5409 C   0  0  0  0  0  0
  -19.5751  -26.6381   21.5212 C   0  0  0  0  0  0
  -18.1930  -26.7935   22.1628 C   0  0  0  0  0  0
  -19.1554  -28.8867   23.2869 C   0  0  0  0  0  0
  -18.9477  -30.1467   23.8886 C   0  0  0  0  0  0
  -17.6474  -30.6591   24.0563 C   0  0  0  0  0  0
  -25.9063  -34.9437   23.5100 C   0  0  0  0  0  0
  -16.5366  -29.9084   23.6338 C   0  0  0  0  0  0
  -16.7288  -28.6502   23.0364 C   0  0  0  0  0  0
  -26.4505  -31.6585   25.0744 C   0  0  0  0  0  0
  -25.3730  -31.3730   26.1466 C   0  0  0  0  0  0
  -27.0370  -30.3005   24.6265 C   0  0  0  0  0  0
  -27.6059  -32.4326   25.7517 C   0  0  0  0  0  0
  -27.5586  -37.1787   24.8467 C   0  0  0  0  0  0
  -21.4229  -29.3041   22.3640 N   0  0  0  0  0  0
  -26.4286  -37.3777   23.9422 N   0  0  0  0  0  0
  -24.7031  -31.0445   22.0965 N   0  0  0  0  0  0
  -23.4200  -28.8127   23.3019 O   0  0  0  0  0  0
  -28.3130  -26.3027   20.2173 O   0  0  0  0  0  0
  -26.5642  -34.8916   22.4674 O   0  0  0  0  0  0
  -23.5485  -32.1355   23.7234 O   0  0  0  0  0  0
  -29.3899  -18.4785   20.9334 C   0  0  0  0  0  0
  -29.7720  -19.7963   20.3605 C   0  0  0  0  0  0
  -29.9957  -17.3118   20.3983 C   0  0  0  0  0  0
  -30.6806  -19.6000   19.3435 C   0  0  0  0  0  0
  -28.7931  -23.7518   20.9684 C   0  0  0  0  0  0
  -29.4083  -21.1940   20.9472 C   0  0  0  0  0  0
  -28.5430  -24.2029   18.6688 C   0  0  0  0  0  0
  -28.7408  -22.6621   18.8904 C   0  0  0  0  0  0
  -28.0962  -24.8028   20.0113 C   0  0  2  0  0  0
  -29.0373  -22.4192   20.3211 N   0  0  0  0  0  0
  -31.3901  -20.5270   18.5887 N   0  0  0  0  0  0
  -29.8285  -15.9362   20.7168 N   0  0  0  0  0  0
  -29.5060  -21.2044   22.2914 N   0  3  0  0  0  0
  -29.0409  -23.9735   22.1636 O   0  0  0  0  0  0
  -31.0315  -17.8810   19.0943 S   0  0  0  0  0  0
  -31.4747  -12.6064   19.1792 H   0  0  0  0  0  0
  -30.3793  -11.5122   19.9749 H   0  0  0  0  0  0
  -29.8007  -11.7452   17.5314 H   0  0  0  0  0  0
  -29.6292  -13.4726   17.7222 H   0  0  0  0  0  0
  -27.9018  -11.2853   18.9154 H   0  0  0  0  0  0
  -27.3827  -12.5251   17.8047 H   0  0  0  0  0  0
  -27.6279  -14.2574   19.4680 H   0  0  0  0  0  0
  -28.7333  -12.1925   21.4335 H   0  0  0  0  0  0
  -28.4139  -13.8677   21.7982 H   0  0  0  0  0  0
  -25.2787   -9.5680   22.4740 H   0  0  0  0  0  0
  -24.0033   -7.4642   22.7463 H   0  0  0  0  0  0
  -21.0872   -8.8760   19.8935 H   0  0  0  0  0  0
  -22.3721  -10.9666   19.6154 H   0  0  0  0  0  0
  -21.1993   -7.6161   23.9719 H   0  0  0  0  0  0
  -21.1488   -6.0536   25.9080 H   0  0  0  0  0  0
  -22.0595   -2.7618   23.2859 H   0  0  0  0  0  0
  -22.4154  -11.9851   22.4801 H   0  0  0  0  0  0
  -21.1068  -13.1124   22.2633 H   0  0  0  0  0  0
  -24.6511  -15.8452   20.5199 H   0  0  0  0  0  0
  -26.2660  -15.6314   20.0718 H   0  0  0  0  0  0
  -26.7222  -32.5379   23.1079 H   0  0  0  0  0  0
  -25.0094  -33.9688   25.0411 H   0  0  0  0  0  0
  -22.7331  -31.2948   21.3890 H   0  0  0  0  0  0
  -23.3769  -35.9573   23.3290 H   0  0  0  0  0  0
  -24.3577  -36.8904   22.2058 H   0  0  0  0  0  0
  -23.7199  -37.6445   23.6680 H   0  0  0  0  0  0
  -26.1312  -31.5096   20.6161 H   0  0  0  0  0  0
  -26.8582  -30.7998   22.0243 H   0  0  0  0  0  0
  -28.1177  -28.8779   21.2382 H   0  0  0  0  0  0
  -25.9658  -25.9231   18.9338 H   0  0  0  0  0  0
  -23.9939  -27.3217   18.9578 H   0  0  0  0  0  0
  -23.7838  -30.5796   19.3990 H   0  0  0  0  0  0
  -22.7746  -29.2400   19.8497 H   0  0  0  0  0  0
  -25.1291  -36.1922   25.0825 H   0  0  0  0  0  0
  -21.0005  -28.3283   24.1381 H   0  0  0  0  0  0
  -20.5667  -26.2312   23.3621 H   0  0  0  0  0  0
  -21.6645  -26.7418   22.1209 H   0  0  0  0  0  0
  -19.6901  -25.6289   21.1248 H   0  0  0  0  0  0
  -19.6684  -27.3190   20.6744 H   0  0  0  0  0  0
  -17.4199  -26.6700   21.4031 H   0  0  0  0  0  0
  -18.0319  -26.0074   22.9021 H   0  0  0  0  0  0
  -19.7950  -30.7289   24.2245 H   0  0  0  0  0  0
  -17.5026  -31.6276   24.5161 H   0  0  0  0  0  0
  -15.5364  -30.2985   23.7664 H   0  0  0  0  0  0
  -15.8689  -28.0816   22.7091 H   0  0  0  0  0  0
  -24.5921  -30.7055   25.7804 H   0  0  0  0  0  0
  -24.8912  -32.2892   26.4889 H   0  0  0  0  0  0
  -25.8059  -30.8921   27.0251 H   0  0  0  0  0  0
  -26.2977  -29.6733   24.1277 H   0  0  0  0  0  0
  -27.4024  -29.7285   25.4800 H   0  0  0  0  0  0
  -27.8861  -30.4278   23.9550 H   0  0  0  0  0  0
  -27.2692  -33.3647   26.2070 H   0  0  0  0  0  0
  -28.3895  -32.6848   25.0362 H   0  0  0  0  0  0
  -28.0707  -31.8469   26.5457 H   0  0  0  0  0  0
  -28.2578  -38.0109   24.7567 H   0  0  0  0  0  0
  -28.1106  -36.2648   24.6234 H   0  0  0  0  0  0
  -27.2314  -37.1363   25.8869 H   0  0  0  0  0  0
  -20.9419  -29.8763   21.6841 H   0  0  0  0  0  0
  -26.0163  -38.2838   24.1464 H   0  0  0  0  0  0
  -28.6959  -18.4471   21.7589 H   0  0  0  0  0  0
  -27.8033  -24.3959   17.8924 H   0  0  0  0  0  0
  -29.4789  -24.6606   18.3447 H   0  0  0  0  0  0
  -29.5289  -22.2845   18.2439 H   0  0  0  0  0  0
  -27.8290  -22.1223   18.6343 H   0  0  0  0  0  0
  -27.0436  -24.5745   20.1694 H   0  0  0  0  0  0
  -31.7123  -21.3933   19.0068 H   0  0  0  0  0  0
  -32.1048  -20.1621   17.9650 H   0  0  0  0  0  0
  -28.9421  -15.7087   21.1443 H   0  0  0  0  0  0
  -29.8275  -20.3925   22.7956 H   0  0  0  0  0  0
  -29.3718  -22.0685   22.8064 H   0  0  0  0  0  0
  1 25  1  0  0  0
  1 30  2  0  0  0
  1 82  1  0  0  0
  2  3  1  0  0  0
  2 25  1  0  0  0
  2 86  1  0  0  0
  2 87  1  0  0  0
  3  4  1  0  0  0
  3 88  1  0  0  0
  3 89  1  0  0  0
  4  5  1  0  0  0
  4 90  1  0  0  0
  4 91  1  0  0  0
  5  6  1  0  0  0
  5 26  1  0  0  0
  5 92  1  0  0  0
  6 25  1  0  0  0
  6 93  1  0  0  0
  6 94  1  0  0  0
  7  8  2  0  0  0
  7 26  1  0  0  0
  7 29  1  0  0  0
  8  9  1  0  0  0
  8 22  1  0  0  0
  9 10  1  0  0  0
  9 27  2  0  0  0
 10 11  2  0  0  0
 10 15  1  0  0  0
 11 12  1  0  0  0
 11 95  1  0  0  0
 12 13  2  0  0  0
 12 96  1  0  0  0
 13 14  1  0  0  0
 13 31  1  0  0  0
 14 15  2  0  0  0
 14 97  1  0  0  0
 15 98  1  0  0  0
 16 17  2  0  0  0
 16 21  1  0  0  0
 16 31  1  0  0  0
 17 18  1  0  0  0
 17 99  1  0  0  0
 18 19  2  0  0  0
 18100  1  0  0  0
 19 20  1  0  0  0
 19 24  1  0  0  0
 20 21  2  0  0  0
 20101  1  0  0  0
 21 23  1  0  0  0
 22 28  1  0  0  0
 22 32  2  0  0  0
 26 27  1  0  0  0
 28102  1  0  0  0
 28103  1  0  0  0
 29104  1  0  0  0
 29105  1  0  0  0
 33 34  1  0  0  0
 33 66  1  0  0  0
 33 70  2  0  0  0
 34 36  1  0  0  0
 34 59  1  0  0  0
 34106  1  0  0  0
 35 44  2  0  0  0
 35 45  1  0  0  0
 35 68  1  0  0  0
 36 56  1  0  0  0
 36107  1  0  0  0
 37 39  1  0  0  0
 37 47  1  0  0  0
 37 66  1  0  0  0
 37108  1  0  0  0
 38 43  2  0  0  0
 38 46  1  0  0  0
 38 47  1  0  0  0
 39 64  1  0  0  0
 39 67  2  0  0  0
 40 52  1  0  0  0
 40 53  2  0  0  0
 40 58  1  0  0  0
 41109  1  0  0  0
 41110  1  0  0  0
 41111  1  0  0  0
 41 48  1  0  0  0
 42 43  1  0  0  0
 42 66  1  0  0  0
 42112  1  0  0  0
 42113  1  0  0  0
 43 44  1  0  0  0
 44114  1  0  0  0
 45 46  2  0  0  0
 45115  1  0  0  0
 46116  1  0  0  0
 47117  1  0  0  0
 47118  1  0  0  0
 48 56  1  0  0  0
 48 65  1  0  0  0
 48119  1  0  0  0
 49 50  1  0  0  0
 49 53  1  0  0  0
 49 64  1  0  0  0
 49120  1  0  0  0
 50 51  1  0  0  0
 50121  1  0  0  0
 50122  1  0  0  0
 51 52  1  0  0  0
 51123  1  0  0  0
 51124  1  0  0  0
 52125  1  0  0  0
 52126  1  0  0  0
 53 54  1  0  0  0
 54 55  2  0  0  0
 54127  1  0  0  0
 55 57  1  0  0  0
 55128  1  0  0  0
 56 69  2  0  0  0
 57 58  2  0  0  0
 57129  1  0  0  0
 58130  1  0  0  0
 59 60  1  0  0  0
 59 61  1  0  0  0
 59 62  1  0  0  0
 60131  1  0  0  0
 60132  1  0  0  0
 60133  1  0  0  0
 61134  1  0  0  0
 61135  1  0  0  0
 61136  1  0  0  0
 62137  1  0  0  0
 62138  1  0  0  0
 62139  1  0  0  0
 63 65  1  0  0  0
 63140  1  0  0  0
 63141  1  0  0  0
 63142  1  0  0  0
 64143  1  0  0  0
 65144  1  0  0  0
 68 79  1  0  0  0
 71 72  1  0  0  0
 71 73  2  0  0  0
 71145  1  0  0  0
 72 74  2  0  0  0
 72 76  1  0  0  0
 73 82  1  0  0  0
 73 85  1  0  0  0
 74 81  1  0  0  0
 74 85  1  0  0  0
 75 79  1  0  0  0
 75 80  1  0  0  0
 75 84  2  0  0  0
 76 80  1  0  0  0
 76 83  2  0  0  0
 77 78  1  0  0  0
 77 79  1  0  0  0
 77146  1  0  0  0
 77147  1  0  0  0
 78 80  1  0  0  0
 78148  1  0  0  0
 78149  1  0  0  0
 79150  1  0  0  0
 81151  1  0  0  0
 81152  1  0  0  0
 82153  1  0  0  0
 83154  1  0  0  0
 83155  1  0  0  0
M  CHG  1  83   1
M  ISO  4   1 100  68 101  79 101  82 100
M  END
> <chiral flag>
0

> <version>
0

> <s_m_source_file>
/data/baiqing/PycharmProjects/Reinvent-master-3.2/result/LINK_invent/BTK/process_docking_weight1_custom_product_contain_oxygen_bond_distance_aromatic_linkinvent_7_9_3/rearranged_h_0154.sdf

> <i_m_source_file_index>
1

> <r_mmod_Potential_Energy-OPLS-2005>
210.673736572266

> <r_mmod_Stretch_Energy-OPLS-2005>
149.125930786133

> <r_mmod_Bend_Energy-OPLS-2005>
227.673324584961

> <r_mmod_Torsional_Energy-OPLS-2005>
248.927108764648

> <r_mmod_Improper_Torsional_Energy-OPLS-2005>
9.25727939605713

> <r_mmod_Van_der_Waal_Energy-OPLS-2005>
120.890869140625

> <r_mmod_Electrostatic_Energy-OPLS-2005>
-170.680847167969

> <r_mmod_Solvation_Energy-OPLS-2005>
-484.058074951172

> <b_mmod_Minimization_Converged-OPLS-2005>
0

> <r_mmod_RMS_Derivative-OPLS-2005>
1.8917179107666

$$$$
1
                    3D
 Structure written by MMmdl.
153162  0  0  1  0            999 V2000
  -30.5706  -14.7230   20.4737 C   0  0  0  0  0  0
  -30.4459  -12.4394   19.4591 C   0  0  0  0  0  0
  -29.5105  -12.5077   18.2294 C   0  0  0  0  0  0
  -28.0358  -12.3278   18.6459 C   0  0  0  0  0  0
  -27.6458  -13.2170   19.8559 C   0  0  2  0  0  0
  -28.6931  -13.1082   20.9868 C   0  0  0  0  0  0
  -25.2541  -13.8166   20.5709 C   0  0  0  0  0  0
  -24.1815  -13.0423   20.9208 C   0  0  0  0  0  0
  -24.6387  -11.6902   20.8754 C   0  0  0  0  0  0
  -23.9063  -10.4285   21.0413 C   0  0  0  0  0  0
  -24.3619   -9.4206   21.9192 C   0  0  0  0  0  0
  -23.6293   -8.2243   22.0761 C   0  0  0  0  0  0
  -22.4277   -8.0278   21.3544 C   0  0  0  0  0  0
  -21.9911   -9.0255   20.4646 C   0  0  0  0  0  0
  -22.7242  -10.2133   20.3057 C   0  0  0  0  0  0
  -21.6852   -6.0742   22.5278 C   0  0  0  0  0  0
  -21.4013   -6.5644   23.8217 C   0  0  0  0  0  0
  -21.3658   -5.6794   24.9176 C   0  0  0  0  0  0
  -21.6045   -4.3056   24.7224 C   0  0  0  0  0  0
  -21.8813   -3.8150   23.4342 C   0  0  0  0  0  0
  -21.9193   -4.6969   22.3400 C   0  0  0  0  0  0
  -22.7842  -13.5216   21.1879 C   0  0  0  0  0  0
  -22.1660   -4.2162   21.0973 F   0  0  0  0  0  0
  -21.5632   -3.4536   25.7732 F   0  0  0  0  0  0
  -29.9966  -13.4755   20.4132 N   0  0  0  0  0  0
  -26.2955  -12.9340   20.3302 N   0  0  0  0  0  0
  -25.9311  -11.6491   20.5761 N   0  0  0  0  0  0
  -22.0480  -12.8206   22.0425 N   0  0  0  0  0  0
  -25.4232  -15.1903   20.4157 N   0  0  0  0  0  0
  -31.7580  -14.8906   20.1780 O   0  0  0  0  0  0
  -21.6636   -6.8882   21.4235 O   0  0  0  0  0  0
  -22.3526  -14.5529   20.6743 O   0  0  0  0  0  0
  -24.6289  -31.8573   23.1969 C   0  0  0  0  0  0
  -25.9120  -32.4774   23.8320 C   0  0  1  0  0  0
  -27.2276  -27.2823   20.1440 C   0  0  0  0  0  0
  -25.5918  -33.8570   24.2258 N   0  0  0  0  0  0
  -23.4246  -30.4780   21.5406 C   0  0  2  0  0  0
  -24.8745  -28.9170   20.1200 C   0  0  0  0  0  0
  -22.7494  -29.4609   22.4919 C   0  0  0  0  0  0
  -18.0290  -28.1412   22.8502 C   0  0  0  0  0  0
  -24.1485  -36.7275   23.2645 C   0  0  0  0  0  0
  -25.9675  -30.7788   21.3703 C   0  0  0  0  0  0
  -26.0442  -29.3974   20.7242 C   0  0  0  0  0  0
  -27.2261  -28.5941   20.7208 C   0  0  0  0  0  0
  -26.0365  -26.8500   19.5267 C   0  0  0  0  0  0
  -24.8736  -27.6492   19.5119 C   0  0  0  0  0  0
  -23.6448  -29.8046   20.1591 C   0  0  0  0  0  0
  -25.4111  -36.3071   24.0335 C   0  0  1  0  0  0
  -20.5900  -28.3698   23.1290 C   0  0  2  0  0  0
  -20.6782  -26.9414   22.5422 C   0  0  0  0  0  0
  -19.5752  -26.6384   21.5239 C   0  0  0  0  0  0
  -18.1929  -26.7964   22.1630 C   0  0  0  0  0  0
  -19.1551  -28.8873   23.2893 C   0  0  0  0  0  0
  -18.9477  -30.1486   23.8901 C   0  0  0  0  0  0
  -17.6478  -30.6612   24.0572 C   0  0  0  0  0  0
  -25.9043  -34.9447   23.5091 C   0  0  0  0  0  0
  -16.5363  -29.9115   23.6344 C   0  0  0  0  0  0
  -16.7282  -28.6532   23.0358 C   0  0  0  0  0  0
  -26.4495  -31.6600   25.0698 C   0  0  0  0  0  0
  -25.3718  -31.3765   26.1421 C   0  0  0  0  0  0
  -27.0333  -30.3020   24.6154 C   0  0  0  0  0  0
  -27.6054  -32.4337   25.7479 C   0  0  0  0  0  0
  -27.5574  -37.1780   24.8473 C   0  0  0  0  0  0
  -21.4199  -29.3047   22.3677 N   0  0  0  0  0  0
  -26.4282  -37.3768   23.9419 N   0  0  0  0  0  0
  -24.6931  -31.0549   22.0937 N   0  0  0  0  0  0
  -23.4215  -28.8136   23.2982 O   0  0  0  0  0  0
  -28.3499  -26.4385   20.0830 O   0  0  0  0  0  0
  -26.5615  -34.8931   22.4660 O   0  0  0  0  0  0
  -23.5442  -32.1391   23.7274 O   0  0  0  0  0  0
  -30.7816  -18.0358   21.0419 C   0  0  0  0  0  0
  -29.7855  -17.1713   20.6149 C   0  0  0  0  0  0
  -29.2486  -19.7407   20.5318 C   0  0  0  0  0  0
  -27.6653  -21.4775   21.7027 C   0  0  0  0  0  0
  -27.2635  -22.9758   21.5979 C   0  0  0  0  0  0
  -29.2178  -22.5626   20.2440 C   0  0  0  0  0  0
  -28.5262  -21.1476   20.4831 C   0  0  1  0  0  0
  -28.1074  -23.6917   20.5055 C   0  0  2  0  0  0
  -28.4413  -25.2232   20.9394 C   0  0  0  0  0  0
  -30.4571  -19.4308   21.0413 N   0  0  0  0  0  0
  -29.6844  -15.7725   20.6319 N   0  0  0  0  0  0
  -28.4291  -18.2022   20.0856 S   0  0  0  0  0  0
  -31.4842  -12.5871   19.1563 H   0  0  0  0  0  0
  -30.4044  -11.4525   19.9219 H   0  0  0  0  0  0
  -29.7885  -11.7446   17.5014 H   0  0  0  0  0  0
  -29.6335  -13.4684   17.7272 H   0  0  0  0  0  0
  -27.8928  -11.2775   18.9011 H   0  0  0  0  0  0
  -27.3742  -12.5256   17.8017 H   0  0  0  0  0  0
  -27.6469  -14.2432   19.4880 H   0  0  0  0  0  0
  -28.7260  -12.0937   21.3866 H   0  0  0  0  0  0
  -28.4321  -13.7534   21.8276 H   0  0  0  0  0  0
  -25.2761   -9.5683   22.4774 H   0  0  0  0  0  0
  -24.0002   -7.4625   22.7475 H   0  0  0  0  0  0
  -21.0854   -8.8764   19.8948 H   0  0  0  0  0  0
  -22.3700  -10.9671   19.6173 H   0  0  0  0  0  0
  -21.1998   -7.6157   23.9725 H   0  0  0  0  0  0
  -21.1489   -6.0525   25.9083 H   0  0  0  0  0  0
  -22.0595   -2.7614   23.2831 H   0  0  0  0  0  0
  -22.4079  -11.9836   22.4768 H   0  0  0  0  0  0
  -21.1116  -13.1246   22.2672 H   0  0  0  0  0  0
  -24.6492  -15.8358   20.5316 H   0  0  0  0  0  0
  -26.2612  -15.6392   20.0720 H   0  0  0  0  0  0
  -26.7177  -32.5435   23.1059 H   0  0  0  0  0  0
  -25.0083  -33.9733   25.0412 H   0  0  0  0  0  0
  -22.7201  -31.2981   21.3892 H   0  0  0  0  0  0
  -23.3769  -35.9584   23.3306 H   0  0  0  0  0  0
  -24.3571  -36.8896   22.2059 H   0  0  0  0  0  0
  -23.7218  -37.6464   23.6669 H   0  0  0  0  0  0
  -26.0956  -31.5367   20.5954 H   0  0  0  0  0  0
  -26.8487  -30.8359   21.9966 H   0  0  0  0  0  0
  -28.1315  -28.9680   21.1796 H   0  0  0  0  0  0
  -26.0086  -25.8773   19.0550 H   0  0  0  0  0  0
  -23.9753  -27.2772   19.0367 H   0  0  0  0  0  0
  -23.7683  -30.5795   19.4011 H   0  0  0  0  0  0
  -22.7651  -29.2349   19.8531 H   0  0  0  0  0  0
  -25.1290  -36.1910   25.0827 H   0  0  0  0  0  0
  -20.9992  -28.3272   24.1408 H   0  0  0  0  0  0
  -20.5699  -26.2301   23.3625 H   0  0  0  0  0  0
  -21.6644  -26.7442   22.1186 H   0  0  0  0  0  0
  -19.6901  -25.6288   21.1276 H   0  0  0  0  0  0
  -19.6706  -27.3195   20.6776 H   0  0  0  0  0  0
  -17.4198  -26.6757   21.4025 H   0  0  0  0  0  0
  -18.0275  -26.0119   22.9028 H   0  0  0  0  0  0
  -19.7966  -30.7308   24.2254 H   0  0  0  0  0  0
  -17.5044  -31.6305   24.5161 H   0  0  0  0  0  0
  -15.5367  -30.3016   23.7699 H   0  0  0  0  0  0
  -15.8681  -28.0863   22.7055 H   0  0  0  0  0  0
  -24.5916  -30.7079   25.7757 H   0  0  0  0  0  0
  -24.8884  -32.2951   26.4769 H   0  0  0  0  0  0
  -25.8040  -30.9008   27.0238 H   0  0  0  0  0  0
  -26.2905  -29.6768   24.1183 H   0  0  0  0  0  0
  -27.4058  -29.7260   25.4636 H   0  0  0  0  0  0
  -27.8761  -30.4315   23.9359 H   0  0  0  0  0  0
  -27.2668  -33.3672   26.1993 H   0  0  0  0  0  0
  -28.3911  -32.6839   25.0334 H   0  0  0  0  0  0
  -28.0665  -31.8494   26.5452 H   0  0  0  0  0  0
  -28.2572  -38.0090   24.7505 H   0  0  0  0  0  0
  -28.1077  -36.2613   24.6297 H   0  0  0  0  0  0
  -27.2293  -37.1420   25.8875 H   0  0  0  0  0  0
  -20.9380  -29.8791   21.6902 H   0  0  0  0  0  0
  -26.0166  -38.2833   24.1444 H   0  0  0  0  0  0
  -31.7430  -17.7421   21.4401 H   0  0  0  0  0  0
  -26.7956  -20.8240   21.7796 H   0  0  0  0  0  0
  -28.2584  -21.3281   22.6059 H   0  0  0  0  0  0
  -27.4101  -23.4313   22.5777 H   0  0  0  0  0  0
  -26.2020  -23.0788   21.3714 H   0  0  0  0  0  0
  -29.6519  -22.6392   19.2470 H   0  0  0  0  0  0
  -30.0353  -22.6845   20.9566 H   0  0  0  0  0  0
  -27.8308  -21.0458   19.6494 H   0  0  0  0  0  0
  -27.4831  -23.7435   19.6121 H   0  0  0  0  0  0
  -29.4579  -25.2174   21.3322 H   0  0  0  0  0  0
  -27.8325  -25.4631   21.8120 H   0  0  0  0  0  0
  -28.7366  -15.4366   20.6970 H   0  0  0  0  0  0
  1 25  1  0  0  0
  1 30  2  0  0  0
  1 81  1  0  0  0
  2  3  1  0  0  0
  2 25  1  0  0  0
  2 83  1  0  0  0
  2 84  1  0  0  0
  3  4  1  0  0  0
  3 85  1  0  0  0
  3 86  1  0  0  0
  4  5  1  0  0  0
  4 87  1  0  0  0
  4 88  1  0  0  0
  5  6  1  0  0  0
  5 26  1  0  0  0
  5 89  1  0  0  0
  6 25  1  0  0  0
  6 90  1  0  0  0
  6 91  1  0  0  0
  7  8  2  0  0  0
  7 26  1  0  0  0
  7 29  1  0  0  0
  8  9  1  0  0  0
  8 22  1  0  0  0
  9 10  1  0  0  0
  9 27  2  0  0  0
 10 11  2  0  0  0
 10 15  1  0  0  0
 11 12  1  0  0  0
 11 92  1  0  0  0
 12 13  2  0  0  0
 12 93  1  0  0  0
 13 14  1  0  0  0
 13 31  1  0  0  0
 14 15  2  0  0  0
 14 94  1  0  0  0
 15 95  1  0  0  0
 16 17  2  0  0  0
 16 21  1  0  0  0
 16 31  1  0  0  0
 17 18  1  0  0  0
 17 96  1  0  0  0
 18 19  2  0  0  0
 18 97  1  0  0  0
 19 20  1  0  0  0
 19 24  1  0  0  0
 20 21  2  0  0  0
 20 98  1  0  0  0
 21 23  1  0  0  0
 22 28  1  0  0  0
 22 32  2  0  0  0
 26 27  1  0  0  0
 28 99  1  0  0  0
 28100  1  0  0  0
 29101  1  0  0  0
 29102  1  0  0  0
 33 34  1  0  0  0
 33 66  1  0  0  0
 33 70  2  0  0  0
 34 36  1  0  0  0
 34 59  1  0  0  0
 34103  1  0  0  0
 35 44  2  0  0  0
 35 45  1  0  0  0
 35 68  1  0  0  0
 36 56  1  0  0  0
 36104  1  0  0  0
 37 39  1  0  0  0
 37 47  1  0  0  0
 37 66  1  0  0  0
 37105  1  0  0  0
 38 43  2  0  0  0
 38 46  1  0  0  0
 38 47  1  0  0  0
 39 64  1  0  0  0
 39 67  2  0  0  0
 40 52  1  0  0  0
 40 53  2  0  0  0
 40 58  1  0  0  0
 41106  1  0  0  0
 41107  1  0  0  0
 41108  1  0  0  0
 41 48  1  0  0  0
 42 43  1  0  0  0
 42 66  1  0  0  0
 42109  1  0  0  0
 42110  1  0  0  0
 43 44  1  0  0  0
 44111  1  0  0  0
 45 46  2  0  0  0
 45112  1  0  0  0
 46113  1  0  0  0
 47114  1  0  0  0
 47115  1  0  0  0
 48 56  1  0  0  0
 48 65  1  0  0  0
 48116  1  0  0  0
 49 50  1  0  0  0
 49 53  1  0  0  0
 49 64  1  0  0  0
 49117  1  0  0  0
 50 51  1  0  0  0
 50118  1  0  0  0
 50119  1  0  0  0
 51 52  1  0  0  0
 51120  1  0  0  0
 51121  1  0  0  0
 52122  1  0  0  0
 52123  1  0  0  0
 53 54  1  0  0  0
 54 55  2  0  0  0
 54124  1  0  0  0
 55 57  1  0  0  0
 55125  1  0  0  0
 56 69  2  0  0  0
 57 58  2  0  0  0
 57126  1  0  0  0
 58127  1  0  0  0
 59 60  1  0  0  0
 59 61  1  0  0  0
 59 62  1  0  0  0
 60128  1  0  0  0
 60129  1  0  0  0
 60130  1  0  0  0
 61131  1  0  0  0
 61132  1  0  0  0
 61133  1  0  0  0
 62134  1  0  0  0
 62135  1  0  0  0
 62136  1  0  0  0
 63 65  1  0  0  0
 63137  1  0  0  0
 63138  1  0  0  0
 63139  1  0  0  0
 64140  1  0  0  0
 65141  1  0  0  0
 68 79  1  0  0  0
 71 72  2  0  0  0
 71 80  1  0  0  0
 71142  1  0  0  0
 72 81  1  0  0  0
 72 82  1  0  0  0
 73 80  2  0  0  0
 73 82  1  0  0  0
 73 77  1  0  0  0
 74 75  1  0  0  0
 74 77  1  0  0  0
 74143  1  0  0  0
 74144  1  0  0  0
 75 78  1  0  0  0
 75145  1  0  0  0
 75146  1  0  0  0
 76 77  1  0  0  0
 76 78  1  0  0  0
 76147  1  0  0  0
 76148  1  0  0  0
 77149  1  0  0  0
 78 79  1  0  0  0
 78150  1  0  0  0
 79151  1  0  0  0
 79152  1  0  0  0
 81153  1  0  0  0
M  ISO  4   1 100  68 101  79 101  81 100
M  END
> <chiral flag>
0

> <version>
0

> <s_m_source_file>
/data/baiqing/PycharmProjects/Reinvent-master-3.2/result/LINK_invent/BTK/process_docking_weight1_custom_product_contain_oxygen_bond_distance_aromatic_linkinvent_7_9_3/rearranged_h_0154.sdf

> <i_m_source_file_index>
2

> <r_mmod_Potential_Energy-OPLS-2005>
212.975128173828

> <r_mmod_Stretch_Energy-OPLS-2005>
99.9095993041992

> <r_mmod_Bend_Energy-OPLS-2005>
218.603164672852

> <r_mmod_Torsional_Energy-OPLS-2005>
278.644012451172

> <r_mmod_Improper_Torsional_Energy-OPLS-2005>
7.02942848205566

> <r_mmod_Van_der_Waal_Energy-OPLS-2005>
106.658782958984

> <r_mmod_Electrostatic_Energy-OPLS-2005>
-358.338226318359

> <r_mmod_Solvation_Energy-OPLS-2005>
-211.205947875977

> <b_mmod_Minimization_Converged-OPLS-2005>
0

> <r_mmod_RMS_Derivative-OPLS-2005>
1.9667546749115

$$$$
2
                    3D
 Structure written by MMmdl.
170180  0  0  1  0            999 V2000
  -30.6445  -14.5946   20.5304 C   0  0  0  0  0  0
  -30.4303  -12.3690   19.4434 C   0  0  0  0  0  0
  -29.5014  -12.4904   18.2154 C   0  0  0  0  0  0
  -28.0237  -12.3409   18.6282 C   0  0  0  0  0  0
  -27.6515  -13.2124   19.8569 C   0  0  2  0  0  0
  -28.6932  -13.0583   20.9868 C   0  0  0  0  0  0
  -25.2574  -13.8166   20.5677 C   0  0  0  0  0  0
  -24.1848  -13.0437   20.9214 C   0  0  0  0  0  0
  -24.6416  -11.6911   20.8753 C   0  0  0  0  0  0
  -23.9089  -10.4299   21.0427 C   0  0  0  0  0  0
  -24.3639   -9.4206   21.9201 C   0  0  0  0  0  0
  -23.6312   -8.2240   22.0755 C   0  0  0  0  0  0
  -22.4283   -8.0295   21.3552 C   0  0  0  0  0  0
  -21.9935   -9.0269   20.4643 C   0  0  0  0  0  0
  -22.7269  -10.2147   20.3060 C   0  0  0  0  0  0
  -21.6853   -6.0760   22.5294 C   0  0  0  0  0  0
  -21.4006   -6.5658   23.8231 C   0  0  0  0  0  0
  -21.3644   -5.6797   24.9186 C   0  0  0  0  0  0
  -21.6043   -4.3061   24.7232 C   0  0  0  0  0  0
  -21.8816   -3.8164   23.4346 C   0  0  0  0  0  0
  -21.9197   -4.6989   22.3407 C   0  0  0  0  0  0
  -22.7872  -13.5242   21.1864 C   0  0  0  0  0  0
  -22.1670   -4.2179   21.0982 F   0  0  0  0  0  0
  -21.5624   -3.4536   25.7742 F   0  0  0  0  0  0
  -30.0077  -13.3891   20.4228 N   0  0  0  0  0  0
  -26.2985  -12.9344   20.3275 N   0  0  0  0  0  0
  -25.9333  -11.6506   20.5739 N   0  0  0  0  0  0
  -22.0476  -12.8237   22.0382 N   0  0  0  0  0  0
  -25.4292  -15.1891   20.4085 N   0  0  0  0  0  0
  -31.8085  -14.7301   20.1441 O   0  0  0  0  0  0
  -21.6625   -6.8906   21.4257 O   0  0  0  0  0  0
  -22.3587  -14.5558   20.6713 O   0  0  0  0  0  0
  -24.6232  -31.8601   23.1942 C   0  0  0  0  0  0
  -25.9074  -32.4783   23.8294 C   0  0  1  0  0  0
  -27.2414  -27.3443   20.1191 C   0  0  0  0  0  0
  -25.5873  -33.8577   24.2239 N   0  0  0  0  0  0
  -23.4162  -30.4762   21.5368 C   0  0  2  0  0  0
  -24.8633  -28.9165   20.1083 C   0  0  0  0  0  0
  -22.7454  -29.4626   22.4936 C   0  0  0  0  0  0
  -18.0291  -28.1402   22.8508 C   0  0  0  0  0  0
  -24.1464  -36.7260   23.2646 C   0  0  0  0  0  0
  -25.9481  -30.7994   21.3547 C   0  0  0  0  0  0
  -26.0220  -29.4211   20.7096 C   0  0  0  0  0  0
  -27.2055  -28.6420   20.7061 C   0  0  0  0  0  0
  -26.0689  -26.8706   19.4990 C   0  0  0  0  0  0
  -24.8869  -27.6467   19.4967 C   0  0  0  0  0  0
  -23.6264  -29.7904   20.1566 C   0  0  0  0  0  0
  -25.4109  -36.3081   24.0330 C   0  0  1  0  0  0
  -20.5886  -28.3701   23.1296 C   0  0  2  0  0  0
  -20.6749  -26.9424   22.5420 C   0  0  0  0  0  0
  -19.5728  -26.6411   21.5213 C   0  0  0  0  0  0
  -18.1915  -26.7958   22.1634 C   0  0  0  0  0  0
  -19.1546  -28.8871   23.2907 C   0  0  0  0  0  0
  -18.9473  -30.1473   23.8934 C   0  0  0  0  0  0
  -17.6468  -30.6607   24.0587 C   0  0  0  0  0  0
  -25.9059  -34.9456   23.5105 C   0  0  0  0  0  0
  -16.5362  -29.9116   23.6323 C   0  0  0  0  0  0
  -16.7279  -28.6522   23.0368 C   0  0  0  0  0  0
  -26.4460  -31.6596   25.0661 C   0  0  0  0  0  0
  -25.3706  -31.3708   26.1394 C   0  0  0  0  0  0
  -27.0311  -30.3040   24.6072 C   0  0  0  0  0  0
  -27.6055  -32.4305   25.7424 C   0  0  0  0  0  0
  -27.5572  -37.1800   24.8486 C   0  0  0  0  0  0
  -21.4175  -29.3041   22.3663 N   0  0  0  0  0  0
  -26.4285  -37.3787   23.9426 N   0  0  0  0  0  0
  -24.6822  -31.0635   22.0856 N   0  0  0  0  0  0
  -23.4183  -28.8205   23.3036 O   0  0  0  0  0  0
  -28.4229  -26.6140   20.1959 O   0  0  0  0  0  0
  -26.5667  -34.8941   22.4691 O   0  0  0  0  0  0
  -23.5397  -32.1389   23.7293 O   0  0  0  0  0  0
  -30.7690  -19.8523   21.4092 C   0  0  0  0  0  0
  -29.1417  -18.0880   21.0112 C   0  0  0  0  0  0
  -31.5008  -17.5311   21.2291 C   0  0  0  0  0  0
  -29.4246  -19.4818   21.2150 C   0  0  0  0  0  0
  -31.8164  -18.8982   21.4366 C   0  0  0  0  0  0
  -30.1718  -17.0860   21.0127 C   0  0  0  0  0  0
  -28.3015  -24.1133   20.3754 C   0  0  0  0  0  0
  -28.6653  -25.2943   19.7834 C   0  0  0  0  0  0
  -27.2309  -23.8721   21.3941 C   0  0  0  0  0  0
  -28.9458  -22.7217   20.1513 C   0  0  0  0  0  0
  -34.8115  -20.5838   22.8722 C   0  0  0  0  0  0
  -35.3557  -19.1954   22.5297 C   0  0  0  0  0  0
  -33.3907  -20.6175   22.2987 C   0  0  0  0  0  0
  -34.1085  -18.3613   22.2482 C   0  0  0  0  0  0
  -26.7625  -22.4398   21.0420 C   0  0  0  0  0  0
  -28.3257  -20.5565   21.5107 C   0  0  0  0  0  0
  -33.1469  -19.3080   21.6987 N   0  0  0  0  0  0
  -29.8588  -15.6631   20.8831 N   0  0  0  0  0  0
  -27.9453  -21.6702   20.5483 N   0  3  2  0  0  0
  -31.4720  -12.4883   19.1401 H   0  0  0  0  0  0
  -30.3621  -11.3722   19.8826 H   0  0  0  0  0  0
  -29.7558  -11.7322   17.4730 H   0  0  0  0  0  0
  -29.6537  -13.4549   17.7285 H   0  0  0  0  0  0
  -27.8533  -11.2890   18.8602 H   0  0  0  0  0  0
  -27.3720  -12.5748   17.7854 H   0  0  0  0  0  0
  -27.6730  -14.2458   19.5121 H   0  0  0  0  0  0
  -28.6991  -12.0360   21.3682 H   0  0  0  0  0  0
  -28.4470  -13.6942   21.8378 H   0  0  0  0  0  0
  -25.2785   -9.5684   22.4780 H   0  0  0  0  0  0
  -24.0029   -7.4628   22.7464 H   0  0  0  0  0  0
  -21.0872   -8.8803   19.8939 H   0  0  0  0  0  0
  -22.3753  -10.9697   19.6166 H   0  0  0  0  0  0
  -21.1980   -7.6163   23.9757 H   0  0  0  0  0  0
  -21.1461   -6.0511   25.9096 H   0  0  0  0  0  0
  -22.0602   -2.7627   23.2834 H   0  0  0  0  0  0
  -22.4040  -11.9875   22.4769 H   0  0  0  0  0  0
  -21.1085  -13.1279   22.2519 H   0  0  0  0  0  0
  -24.6574  -15.8385   20.5128 H   0  0  0  0  0  0
  -26.2608  -15.6237   20.0311 H   0  0  0  0  0  0
  -26.7157  -32.5483   23.1063 H   0  0  0  0  0  0
  -24.9954  -33.9698   25.0338 H   0  0  0  0  0  0
  -22.7102  -31.2946   21.3846 H   0  0  0  0  0  0
  -23.3743  -35.9573   23.3331 H   0  0  0  0  0  0
  -24.3548  -36.8854   22.2055 H   0  0  0  0  0  0
  -23.7183  -37.6457   23.6645 H   0  0  0  0  0  0
  -26.0672  -31.5569   20.5769 H   0  0  0  0  0  0
  -26.8341  -30.8596   21.9752 H   0  0  0  0  0  0
  -28.1035  -29.0239   21.1706 H   0  0  0  0  0  0
  -26.0600  -25.8935   19.0373 H   0  0  0  0  0  0
  -23.9968  -27.2534   19.0278 H   0  0  0  0  0  0
  -23.7351  -30.5542   19.3873 H   0  0  0  0  0  0
  -22.7492  -29.2075   19.8688 H   0  0  0  0  0  0
  -25.1281  -36.1927   25.0820 H   0  0  0  0  0  0
  -21.0024  -28.3282   24.1396 H   0  0  0  0  0  0
  -20.5611  -26.2324   23.3620 H   0  0  0  0  0  0
  -21.6630  -26.7419   22.1245 H   0  0  0  0  0  0
  -19.6871  -25.6327   21.1216 H   0  0  0  0  0  0
  -19.6638  -27.3230   20.6745 H   0  0  0  0  0  0
  -17.4175  -26.6728   21.4043 H   0  0  0  0  0  0
  -18.0314  -26.0092   22.9016 H   0  0  0  0  0  0
  -19.7952  -30.7289   24.2302 H   0  0  0  0  0  0
  -17.5024  -31.6283   24.5188 H   0  0  0  0  0  0
  -15.5364  -30.3022   23.7631 H   0  0  0  0  0  0
  -15.8682  -28.0835   22.7088 H   0  0  0  0  0  0
  -24.5890  -30.7045   25.7698 H   0  0  0  0  0  0
  -24.8890  -32.2870   26.4836 H   0  0  0  0  0  0
  -25.8045  -30.8873   27.0155 H   0  0  0  0  0  0
  -26.2860  -29.6785   24.1138 H   0  0  0  0  0  0
  -27.4082  -29.7293   25.4539 H   0  0  0  0  0  0
  -27.8674  -30.4349   23.9205 H   0  0  0  0  0  0
  -27.2703  -33.3628   26.1979 H   0  0  0  0  0  0
  -28.3867  -32.6824   25.0237 H   0  0  0  0  0  0
  -28.0693  -31.8428   26.5351 H   0  0  0  0  0  0
  -28.2638  -38.0060   24.7548 H   0  0  0  0  0  0
  -28.1017  -36.2605   24.6288 H   0  0  0  0  0  0
  -27.2309  -37.1451   25.8897 H   0  0  0  0  0  0
  -20.9337  -29.8704   21.6834 H   0  0  0  0  0  0
  -26.0154  -38.2856   24.1439 H   0  0  0  0  0  0
  -30.9753  -20.8903   21.6187 H   0  0  0  0  0  0
  -28.1102  -17.7781   20.9090 H   0  0  0  0  0  0
  -32.2910  -16.7997   21.2703 H   0  0  0  0  0  0
  -29.4739  -25.2983   19.0646 H   0  0  0  0  0  0
  -26.4289  -24.6099   21.3518 H   0  0  0  0  0  0
  -27.6797  -23.8965   22.3875 H   0  0  0  0  0  0
  -29.8251  -22.6597   20.7902 H   0  0  0  0  0  0
  -29.2747  -22.5951   19.1194 H   0  0  0  0  0  0
  -35.4339  -21.3758   22.4544 H   0  0  0  0  0  0
  -34.7804  -20.7284   23.9532 H   0  0  0  0  0  0
  -35.9697  -18.7717   23.3256 H   0  0  0  0  0  0
  -35.9716  -19.2560   21.6311 H   0  0  0  0  0  0
  -33.2932  -21.4061   21.5501 H   0  0  0  0  0  0
  -32.6749  -20.8196   23.0982 H   0  0  0  0  0  0
  -33.7152  -17.9348   23.1732 H   0  0  0  0  0  0
  -34.3380  -17.5428   21.5640 H   0  0  0  0  0  0
  -26.0445  -22.4926   20.2223 H   0  0  0  0  0  0
  -26.2442  -21.9599   21.8749 H   0  0  0  0  0  0
  -28.5814  -21.0201   22.4651 H   0  0  0  0  0  0
  -27.4155  -19.9897   21.7142 H   0  0  0  0  0  0
  -28.8937  -15.4151   21.0404 H   0  0  0  0  0  0
  -27.6523  -21.2038   19.7022 H   0  0  0  0  0  0
  1 25  1  0  0  0
  1 30  2  0  0  0
  1 88  1  0  0  0
  2  3  1  0  0  0
  2 25  1  0  0  0
  2 90  1  0  0  0
  2 91  1  0  0  0
  3  4  1  0  0  0
  3 92  1  0  0  0
  3 93  1  0  0  0
  4  5  1  0  0  0
  4 94  1  0  0  0
  4 95  1  0  0  0
  5  6  1  0  0  0
  5 26  1  0  0  0
  5 96  1  0  0  0
  6 25  1  0  0  0
  6 97  1  0  0  0
  6 98  1  0  0  0
  7  8  2  0  0  0
  7 26  1  0  0  0
  7 29  1  0  0  0
  8  9  1  0  0  0
  8 22  1  0  0  0
  9 10  1  0  0  0
  9 27  2  0  0  0
 10 11  2  0  0  0
 10 15  1  0  0  0
 11 12  1  0  0  0
 11 99  1  0  0  0
 12 13  2  0  0  0
 12100  1  0  0  0
 13 14  1  0  0  0
 13 31  1  0  0  0
 14 15  2  0  0  0
 14101  1  0  0  0
 15102  1  0  0  0
 16 17  2  0  0  0
 16 21  1  0  0  0
 16 31  1  0  0  0
 17 18  1  0  0  0
 17103  1  0  0  0
 18 19  2  0  0  0
 18104  1  0  0  0
 19 20  1  0  0  0
 19 24  1  0  0  0
 20 21  2  0  0  0
 20105  1  0  0  0
 21 23  1  0  0  0
 22 28  1  0  0  0
 22 32  2  0  0  0
 26 27  1  0  0  0
 28106  1  0  0  0
 28107  1  0  0  0
 29108  1  0  0  0
 29109  1  0  0  0
 33 34  1  0  0  0
 33 66  1  0  0  0
 33 70  2  0  0  0
 34 36  1  0  0  0
 34 59  1  0  0  0
 34110  1  0  0  0
 35 44  2  0  0  0
 35 45  1  0  0  0
 35 68  1  0  0  0
 36 56  1  0  0  0
 36111  1  0  0  0
 37 39  1  0  0  0
 37 47  1  0  0  0
 37 66  1  0  0  0
 37112  1  0  0  0
 38 43  2  0  0  0
 38 46  1  0  0  0
 38 47  1  0  0  0
 39 64  1  0  0  0
 39 67  2  0  0  0
 40 52  1  0  0  0
 40 53  2  0  0  0
 40 58  1  0  0  0
 41113  1  0  0  0
 41114  1  0  0  0
 41115  1  0  0  0
 41 48  1  0  0  0
 42 43  1  0  0  0
 42 66  1  0  0  0
 42116  1  0  0  0
 42117  1  0  0  0
 43 44  1  0  0  0
 44118  1  0  0  0
 45 46  2  0  0  0
 45119  1  0  0  0
 46120  1  0  0  0
 47121  1  0  0  0
 47122  1  0  0  0
 48 56  1  0  0  0
 48 65  1  0  0  0
 48123  1  0  0  0
 49 50  1  0  0  0
 49 53  1  0  0  0
 49 64  1  0  0  0
 49124  1  0  0  0
 50 51  1  0  0  0
 50125  1  0  0  0
 50126  1  0  0  0
 51 52  1  0  0  0
 51127  1  0  0  0
 51128  1  0  0  0
 52129  1  0  0  0
 52130  1  0  0  0
 53 54  1  0  0  0
 54 55  2  0  0  0
 54131  1  0  0  0
 55 57  1  0  0  0
 55132  1  0  0  0
 56 69  2  0  0  0
 57 58  2  0  0  0
 57133  1  0  0  0
 58134  1  0  0  0
 59 60  1  0  0  0
 59 61  1  0  0  0
 59 62  1  0  0  0
 60135  1  0  0  0
 60136  1  0  0  0
 60137  1  0  0  0
 61138  1  0  0  0
 61139  1  0  0  0
 61140  1  0  0  0
 62141  1  0  0  0
 62142  1  0  0  0
 62143  1  0  0  0
 63 65  1  0  0  0
 63144  1  0  0  0
 63145  1  0  0  0
 63146  1  0  0  0
 64147  1  0  0  0
 65148  1  0  0  0
 68 78  1  0  0  0
 71 74  2  0  0  0
 71 75  1  0  0  0
 71149  1  0  0  0
 72 74  1  0  0  0
 72 76  2  0  0  0
 72150  1  0  0  0
 73 75  2  0  0  0
 73 76  1  0  0  0
 73151  1  0  0  0
 74 86  1  0  0  0
 75 87  1  0  0  0
 76 88  1  0  0  0
 77 78  2  0  0  0
 77 79  1  0  0  0
 77 80  1  0  0  0
 78152  1  0  0  0
 79 85  1  0  0  0
 79153  1  0  0  0
 79154  1  0  0  0
 80 89  1  0  0  0
 80155  1  0  0  0
 80156  1  0  0  0
 81 82  1  0  0  0
 81 83  1  0  0  0
 81157  1  0  0  0
 81158  1  0  0  0
 82 84  1  0  0  0
 82159  1  0  0  0
 82160  1  0  0  0
 83 87  1  0  0  0
 83161  1  0  0  0
 83162  1  0  0  0
 84 87  1  0  0  0
 84163  1  0  0  0
 84164  1  0  0  0
 85 89  1  0  0  0
 85165  1  0  0  0
 85166  1  0  0  0
 86167  1  0  0  0
 86168  1  0  0  0
 86 89  1  0  0  0
 88169  1  0  0  0
 89170  1  0  0  0
M  CHG  1  89   1
M  ISO  4   1 100  68 101  78 101  88 100
M  END
> <chiral flag>
0

> <version>
0

> <s_m_source_file>
/data/baiqing/PycharmProjects/Reinvent-master-3.2/result/LINK_invent/BTK/process_docking_weight1_custom_product_contain_oxygen_bond_distance_aromatic_linkinvent_7_9_3/rearranged_h_0154.sdf

> <i_m_source_file_index>
3

> <r_mmod_Potential_Energy-OPLS-2005>
59.666919708252

> <r_mmod_Stretch_Energy-OPLS-2005>
69.8019866943359

> <r_mmod_Bend_Energy-OPLS-2005>
223.037353515625

> <r_mmod_Torsional_Energy-OPLS-2005>
319.155639648438

> <r_mmod_Improper_Torsional_Energy-OPLS-2005>
10.9690189361572

> <r_mmod_Van_der_Waal_Energy-OPLS-2005>
143.157867431641

> <r_mmod_Electrostatic_Energy-OPLS-2005>
-260.733337402344

> <r_mmod_Solvation_Energy-OPLS-2005>
-481.032318115234

> <b_mmod_Minimization_Converged-OPLS-2005>
0

> <r_mmod_RMS_Derivative-OPLS-2005>
3.04626417160034

$$$$
3
                    3D
 Structure written by MMmdl.
161170  0  0  1  0            999 V2000
  -30.5645  -14.7843   20.4565 C   0  0  0  0  0  0
  -30.4340  -12.4644   19.4787 C   0  0  0  0  0  0
  -29.5295  -12.5726   18.2286 C   0  0  0  0  0  0
  -28.0412  -12.3899   18.6077 C   0  0  0  0  0  0
  -27.6429  -13.2404   19.8470 C   0  0  2  0  0  0
  -28.6943  -13.1375   20.9803 C   0  0  0  0  0  0
  -25.2344  -13.7944   20.5567 C   0  0  0  0  0  0
  -24.1731  -13.0200   20.9116 C   0  0  0  0  0  0
  -24.6411  -11.6751   20.8646 C   0  0  0  0  0  0
  -23.9071  -10.4163   21.0290 C   0  0  0  0  0  0
  -24.3637   -9.4143   21.9101 C   0  0  0  0  0  0
  -23.6331   -8.2191   22.0667 C   0  0  0  0  0  0
  -22.4320   -8.0179   21.3456 C   0  0  0  0  0  0
  -21.9951   -9.0121   20.4573 C   0  0  0  0  0  0
  -22.7251  -10.2007   20.2944 C   0  0  0  0  0  0
  -21.6874   -6.0683   22.5260 C   0  0  0  0  0  0
  -21.4042   -6.5592   23.8170 C   0  0  0  0  0  0
  -21.3658   -5.6753   24.9135 C   0  0  0  0  0  0
  -21.6054   -4.3024   24.7173 C   0  0  0  0  0  0
  -21.8860   -3.8107   23.4288 C   0  0  0  0  0  0
  -21.9201   -4.6912   22.3369 C   0  0  0  0  0  0
  -22.7775  -13.4996   21.1736 C   0  0  0  0  0  0
  -22.1684   -4.2116   21.0945 F   0  0  0  0  0  0
  -21.5581   -3.4497   25.7672 F   0  0  0  0  0  0
  -29.9988  -13.5218   20.4251 N   0  0  0  0  0  0
  -26.2940  -12.9312   20.3229 N   0  0  0  0  0  0
  -25.9384  -11.6424   20.5714 N   0  0  0  0  0  0
  -22.0476  -12.8060   22.0386 N   0  0  0  0  0  0
  -25.3467  -15.1592   20.3824 N   0  0  0  0  0  0
  -31.7121  -14.9333   20.0087 O   0  0  0  0  0  0
  -21.6646   -6.8810   21.4211 O   0  0  0  0  0  0
  -22.3422  -14.5268   20.6537 O   0  0  0  0  0  0
  -24.6341  -31.8492   23.1938 C   0  0  0  0  0  0
  -25.9180  -32.4692   23.8248 C   0  0  1  0  0  0
  -27.1651  -27.1755   20.1353 C   0  0  0  0  0  0
  -25.5959  -33.8514   24.2104 N   0  0  0  0  0  0
  -23.4293  -30.4747   21.5503 C   0  0  2  0  0  0
  -24.8578  -28.8987   20.1241 C   0  0  0  0  0  0
  -22.7492  -29.4569   22.4994 C   0  0  0  0  0  0
  -18.0281  -28.1398   22.8534 C   0  0  0  0  0  0
  -24.1512  -36.7250   23.2655 C   0  0  0  0  0  0
  -25.9811  -30.7332   21.3809 C   0  0  0  0  0  0
  -26.0417  -29.3463   20.7275 C   0  0  0  0  0  0
  -27.2031  -28.4991   20.7164 C   0  0  0  0  0  0
  -25.9611  -26.8053   19.5082 C   0  0  0  0  0  0
  -24.8252  -27.6380   19.5091 C   0  0  0  0  0  0
  -23.6430  -29.8069   20.1692 C   0  0  0  0  0  0
  -25.4159  -36.3007   24.0286 C   0  0  1  0  0  0
  -20.5886  -28.3678   23.1323 C   0  0  2  0  0  0
  -20.6763  -26.9403   22.5435 C   0  0  0  0  0  0
  -19.5739  -26.6390   21.5242 C   0  0  0  0  0  0
  -18.1910  -26.7944   22.1639 C   0  0  0  0  0  0
  -19.1534  -28.8857   23.2913 C   0  0  0  0  0  0
  -18.9434  -30.1481   23.8906 C   0  0  0  0  0  0
  -17.6434  -30.6579   24.0556 C   0  0  0  0  0  0
  -25.9107  -34.9409   23.5009 C   0  0  0  0  0  0
  -16.5324  -29.9072   23.6352 C   0  0  0  0  0  0
  -16.7270  -28.6489   23.0357 C   0  0  0  0  0  0
  -26.4494  -31.6537   25.0671 C   0  0  0  0  0  0
  -25.3637  -31.3668   26.1301 C   0  0  0  0  0  0
  -27.0299  -30.2938   24.6140 C   0  0  0  0  0  0
  -27.5955  -32.4336   25.7507 C   0  0  0  0  0  0
  -27.5587  -37.1795   24.8447 C   0  0  0  0  0  0
  -21.4181  -29.2997   22.3696 N   0  0  0  0  0  0
  -26.4290  -37.3743   23.9395 N   0  0  0  0  0  0
  -24.7036  -31.0346   22.0987 N   0  0  0  0  0  0
  -23.4167  -28.8121   23.3086 O   0  0  0  0  0  0
  -28.2528  -26.2755   20.0266 O   0  0  0  0  0  0
  -26.5749  -34.8918   22.4597 O   0  0  0  0  0  0
  -23.5496  -32.1374   23.7213 O   0  0  0  0  0  0
  -27.6297  -19.0329   20.0623 C   0  0  0  0  0  0
  -28.8848  -19.5505   20.2674 C   0  0  0  0  0  0
  -29.2899  -17.1464   20.4736 C   0  0  0  0  0  0
  -29.8321  -24.6417   20.8915 C   0  0  0  0  0  0
  -29.9785  -21.4779   18.0167 C   0  0  0  0  0  0
  -30.5083  -21.2986   19.4398 C   0  0  0  0  0  0
  -28.7754  -22.3988   18.2178 C   0  0  0  0  0  0
  -29.2356  -21.1254   20.2761 C   0  0  1  0  0  0
  -30.2490  -24.0157   22.2183 C   0  0  0  0  0  0
  -27.6146  -23.4380   20.2333 C   0  0  0  0  0  0
  -28.3361  -24.8789   20.6504 C   0  0  2  0  0  0
  -29.8060  -18.4342   20.5658 N   0  0  0  0  0  0
  -29.8094  -15.8302   20.9762 N   0  0  0  0  0  0
  -28.2792  -22.1567   19.5981 N   0  3  1  0  0  0
  -30.6714  -24.9219   20.0271 O   0  0  0  0  0  0
  -27.5748  -17.2808   20.0974 S   0  0  0  0  0  0
  -31.4870  -12.5559   19.2069 H   0  0  0  0  0  0
  -30.3238  -11.4709   19.9236 H   0  0  0  0  0  0
  -29.8401  -11.8388   17.4802 H   0  0  0  0  0  0
  -29.6639  -13.5512   17.7616 H   0  0  0  0  0  0
  -27.8639  -11.3305   18.7951 H   0  0  0  0  0  0
  -27.4144  -12.6459   17.7501 H   0  0  0  0  0  0
  -27.6290  -14.2785   19.5065 H   0  0  0  0  0  0
  -28.7467  -12.1182   21.3674 H   0  0  0  0  0  0
  -28.4337  -13.7640   21.8309 H   0  0  0  0  0  0
  -25.2766   -9.5664   22.4662 H   0  0  0  0  0  0
  -24.0036   -7.4589   22.7402 H   0  0  0  0  0  0
  -21.0833   -8.8646   19.8939 H   0  0  0  0  0  0
  -22.3663  -10.9508   19.6050 H   0  0  0  0  0  0
  -21.2137   -7.6109   23.9695 H   0  0  0  0  0  0
  -21.1416   -6.0452   25.9039 H   0  0  0  0  0  0
  -22.0673   -2.7567   23.2793 H   0  0  0  0  0  0
  -22.4207  -11.9874   22.4980 H   0  0  0  0  0  0
  -21.0997  -13.0955   22.2403 H   0  0  0  0  0  0
  -24.5346  -15.7586   20.4629 H   0  0  0  0  0  0
  -26.1670  -15.6380   20.0407 H   0  0  0  0  0  0
  -26.7237  -32.5287   23.0968 H   0  0  0  0  0  0
  -24.9870  -33.9606   25.0090 H   0  0  0  0  0  0
  -22.7324  -31.3019   21.4122 H   0  0  0  0  0  0
  -23.3779  -35.9572   23.3258 H   0  0  0  0  0  0
  -24.3574  -36.8947   22.2071 H   0  0  0  0  0  0
  -23.7276  -37.6430   23.6750 H   0  0  0  0  0  0
  -26.1189  -31.4886   20.6059 H   0  0  0  0  0  0
  -26.8646  -30.7854   22.0072 H   0  0  0  0  0  0
  -28.1185  -28.8381   21.1818 H   0  0  0  0  0  0
  -25.8917  -25.8528   19.0015 H   0  0  0  0  0  0
  -23.9125  -27.2953   19.0361 H   0  0  0  0  0  0
  -23.7691  -30.5844   19.4156 H   0  0  0  0  0  0
  -22.7471  -29.2540   19.8687 H   0  0  0  0  0  0
  -25.1361  -36.1787   25.0786 H   0  0  0  0  0  0
  -20.9989  -28.3225   24.1435 H   0  0  0  0  0  0
  -20.5693  -26.2245   23.3609 H   0  0  0  0  0  0
  -21.6607  -26.7442   22.1172 H   0  0  0  0  0  0
  -19.6851  -25.6300   21.1237 H   0  0  0  0  0  0
  -19.6660  -27.3213   20.6783 H   0  0  0  0  0  0
  -17.4178  -26.6764   21.4014 H   0  0  0  0  0  0
  -18.0255  -26.0073   22.9015 H   0  0  0  0  0  0
  -19.7903  -30.7330   24.2234 H   0  0  0  0  0  0
  -17.4957  -31.6260   24.5146 H   0  0  0  0  0  0
  -15.5307  -30.2935   23.7695 H   0  0  0  0  0  0
  -15.8671  -28.0819   22.7026 H   0  0  0  0  0  0
  -24.5770  -30.7139   25.7482 H   0  0  0  0  0  0
  -24.8897  -32.2838   26.4797 H   0  0  0  0  0  0
  -25.7842  -30.8659   27.0024 H   0  0  0  0  0  0
  -26.2800  -29.6734   24.1204 H   0  0  0  0  0  0
  -27.3968  -29.7152   25.4625 H   0  0  0  0  0  0
  -27.8716  -30.4150   23.9324 H   0  0  0  0  0  0
  -27.2412  -33.3567   26.2117 H   0  0  0  0  0  0
  -28.3769  -32.7046   25.0395 H   0  0  0  0  0  0
  -28.0649  -31.8489   26.5422 H   0  0  0  0  0  0
  -28.2530  -38.0162   24.7556 H   0  0  0  0  0  0
  -28.1144  -36.2683   24.6187 H   0  0  0  0  0  0
  -27.2301  -37.1333   25.8845 H   0  0  0  0  0  0
  -20.9378  -29.8668   21.6859 H   0  0  0  0  0  0
  -26.0117  -38.2786   24.1416 H   0  0  0  0  0  0
  -26.7012  -19.5662   19.8912 H   0  0  0  0  0  0
  -29.6462  -20.5116   17.6237 H   0  0  0  0  0  0
  -30.7083  -21.8888   17.3123 H   0  0  0  0  0  0
  -31.0274  -22.2092   19.7375 H   0  0  0  0  0  0
  -31.2168  -20.4773   19.5393 H   0  0  0  0  0  0
  -27.9859  -22.2159   17.4856 H   0  0  0  0  0  0
  -29.0853  -23.4371   18.0828 H   0  0  0  0  0  0
  -29.3878  -21.4389   21.3060 H   0  0  0  0  0  0
  -29.4963  -23.3100   22.5635 H   0  0  0  0  0  0
  -30.3657  -24.7922   22.9732 H   0  0  0  0  0  0
  -31.1954  -23.4839   22.1305 H   0  0  0  0  0  0
  -26.7755  -23.6894   19.5804 H   0  0  0  0  0  0
  -27.1240  -23.0648   21.1431 H   0  0  0  0  0  0
  -27.9213  -25.0785   21.6407 H   0  0  0  0  0  0
  -29.0814  -15.3664   21.4937 H   0  0  0  0  0  0
  -27.4793  -21.5644   19.4321 H   0  0  0  0  0  0
  1 25  1  0  0  0
  1 30  2  0  0  0
  1 83  1  0  0  0
  2  3  1  0  0  0
  2 25  1  0  0  0
  2 87  1  0  0  0
  2 88  1  0  0  0
  3  4  1  0  0  0
  3 89  1  0  0  0
  3 90  1  0  0  0
  4  5  1  0  0  0
  4 91  1  0  0  0
  4 92  1  0  0  0
  5  6  1  0  0  0
  5 26  1  0  0  0
  5 93  1  0  0  0
  6 25  1  0  0  0
  6 94  1  0  0  0
  6 95  1  0  0  0
  7  8  2  0  0  0
  7 26  1  0  0  0
  7 29  1  0  0  0
  8  9  1  0  0  0
  8 22  1  0  0  0
  9 10  1  0  0  0
  9 27  2  0  0  0
 10 11  2  0  0  0
 10 15  1  0  0  0
 11 12  1  0  0  0
 11 96  1  0  0  0
 12 13  2  0  0  0
 12 97  1  0  0  0
 13 14  1  0  0  0
 13 31  1  0  0  0
 14 15  2  0  0  0
 14 98  1  0  0  0
 15 99  1  0  0  0
 16 17  2  0  0  0
 16 21  1  0  0  0
 16 31  1  0  0  0
 17 18  1  0  0  0
 17100  1  0  0  0
 18 19  2  0  0  0
 18101  1  0  0  0
 19 20  1  0  0  0
 19 24  1  0  0  0
 20 21  2  0  0  0
 20102  1  0  0  0
 21 23  1  0  0  0
 22 28  1  0  0  0
 22 32  2  0  0  0
 26 27  1  0  0  0
 28103  1  0  0  0
 28104  1  0  0  0
 29105  1  0  0  0
 29106  1  0  0  0
 33 34  1  0  0  0
 33 66  1  0  0  0
 33 70  2  0  0  0
 34 36  1  0  0  0
 34 59  1  0  0  0
 34107  1  0  0  0
 35 44  2  0  0  0
 35 45  1  0  0  0
 35 68  1  0  0  0
 36 56  1  0  0  0
 36108  1  0  0  0
 37 39  1  0  0  0
 37 47  1  0  0  0
 37 66  1  0  0  0
 37109  1  0  0  0
 38 43  2  0  0  0
 38 46  1  0  0  0
 38 47  1  0  0  0
 39 64  1  0  0  0
 39 67  2  0  0  0
 40 52  1  0  0  0
 40 53  2  0  0  0
 40 58  1  0  0  0
 41110  1  0  0  0
 41111  1  0  0  0
 41112  1  0  0  0
 41 48  1  0  0  0
 42 43  1  0  0  0
 42 66  1  0  0  0
 42113  1  0  0  0
 42114  1  0  0  0
 43 44  1  0  0  0
 44115  1  0  0  0
 45 46  2  0  0  0
 45116  1  0  0  0
 46117  1  0  0  0
 47118  1  0  0  0
 47119  1  0  0  0
 48 56  1  0  0  0
 48 65  1  0  0  0
 48120  1  0  0  0
 49 50  1  0  0  0
 49 53  1  0  0  0
 49 64  1  0  0  0
 49121  1  0  0  0
 50 51  1  0  0  0
 50122  1  0  0  0
 50123  1  0  0  0
 51 52  1  0  0  0
 51124  1  0  0  0
 51125  1  0  0  0
 52126  1  0  0  0
 52127  1  0  0  0
 53 54  1  0  0  0
 54 55  2  0  0  0
 54128  1  0  0  0
 55 57  1  0  0  0
 55129  1  0  0  0
 56 69  2  0  0  0
 57 58  2  0  0  0
 57130  1  0  0  0
 58131  1  0  0  0
 59 60  1  0  0  0
 59 61  1  0  0  0
 59 62  1  0  0  0
 60132  1  0  0  0
 60133  1  0  0  0
 60134  1  0  0  0
 61135  1  0  0  0
 61136  1  0  0  0
 61137  1  0  0  0
 62138  1  0  0  0
 62139  1  0  0  0
 62140  1  0  0  0
 63 65  1  0  0  0
 63141  1  0  0  0
 63142  1  0  0  0
 63143  1  0  0  0
 64144  1  0  0  0
 65145  1  0  0  0
 68 81  1  0  0  0
 71 72  2  0  0  0
 71 86  1  0  0  0
 71146  1  0  0  0
 72 82  1  0  0  0
 72 78  1  0  0  0
 73 82  2  0  0  0
 73 83  1  0  0  0
 73 86  1  0  0  0
 74 79  1  0  0  0
 74 81  1  0  0  0
 74 85  2  0  0  0
 75 76  1  0  0  0
 75 77  1  0  0  0
 75147  1  0  0  0
 75148  1  0  0  0
 76 78  1  0  0  0
 76149  1  0  0  0
 76150  1  0  0  0
 77 84  1  0  0  0
 77151  1  0  0  0
 77152  1  0  0  0
 78 84  1  0  0  0
 78153  1  0  0  0
 79154  1  0  0  0
 79155  1  0  0  0
 79156  1  0  0  0
 80157  1  0  0  0
 80158  1  0  0  0
 80 81  1  0  0  0
 80 84  1  0  0  0
 81159  1  0  0  0
 83160  1  0  0  0
 84161  1  0  0  0
M  CHG  1  84   1
M  ISO  4   1 100  68 101  81 101  83 100
M  END
> <chiral flag>
0

> <version>
0

> <s_m_source_file>
/data/baiqing/PycharmProjects/Reinvent-master-3.2/result/LINK_invent/BTK/process_docking_weight1_custom_product_contain_oxygen_bond_distance_aromatic_linkinvent_7_9_3/rearranged_h_0154.sdf

> <i_m_source_file_index>
4

> <r_mmod_Potential_Energy-OPLS-2005>
289.224731445312

> <r_mmod_Stretch_Energy-OPLS-2005>
175.754058837891

> <r_mmod_Bend_Energy-OPLS-2005>
329.499298095703

> <r_mmod_Torsional_Energy-OPLS-2005>
323.098022460938

> <r_mmod_Improper_Torsional_Energy-OPLS-2005>
9.3840160369873

> <r_mmod_Van_der_Waal_Energy-OPLS-2005>
99.8419418334961

> <r_mmod_Electrostatic_Energy-OPLS-2005>
-285.425476074219

> <r_mmod_Solvation_Energy-OPLS-2005>
-478.583343505859

> <b_mmod_Minimization_Converged-OPLS-2005>
0

> <r_mmod_RMS_Derivative-OPLS-2005>
9.20798873901367

$$$$
4
                    3D
 Structure written by MMmdl.
160169  0  0  1  0            999 V2000
  -30.6013  -14.6930   20.4095 C   0  0  0  0  0  0
  -30.4261  -12.4003   19.4724 C   0  0  0  0  0  0
  -29.5082  -12.5034   18.2346 C   0  0  0  0  0  0
  -28.0221  -12.3589   18.6281 C   0  0  0  0  0  0
  -27.6400  -13.2346   19.8521 C   0  0  2  0  0  0
  -28.6824  -13.1133   20.9846 C   0  0  0  0  0  0
  -25.2450  -13.8238   20.5669 C   0  0  0  0  0  0
  -24.1759  -13.0467   20.9219 C   0  0  0  0  0  0
  -24.6352  -11.6940   20.8771 C   0  0  0  0  0  0
  -23.9030  -10.4302   21.0396 C   0  0  0  0  0  0
  -24.3578   -9.4194   21.9175 C   0  0  0  0  0  0
  -23.6247   -8.2250   22.0744 C   0  0  0  0  0  0
  -22.4230   -8.0282   21.3554 C   0  0  0  0  0  0
  -21.9873   -9.0238   20.4645 C   0  0  0  0  0  0
  -22.7203  -10.2125   20.3039 C   0  0  0  0  0  0
  -21.6845   -6.0724   22.5282 C   0  0  0  0  0  0
  -21.4010   -6.5631   23.8225 C   0  0  0  0  0  0
  -21.3663   -5.6788   24.9185 C   0  0  0  0  0  0
  -21.6041   -4.3049   24.7232 C   0  0  0  0  0  0
  -21.8814   -3.8137   23.4367 C   0  0  0  0  0  0
  -21.9180   -4.6949   22.3412 C   0  0  0  0  0  0
  -22.7751  -13.5216   21.1917 C   0  0  0  0  0  0
  -22.1650   -4.2137   21.0992 F   0  0  0  0  0  0
  -21.5623   -3.4530   25.7758 F   0  0  0  0  0  0
  -29.9969  -13.4554   20.4159 N   0  0  0  0  0  0
  -26.2882  -12.9452   20.3252 N   0  0  0  0  0  0
  -25.9292  -11.6593   20.5765 N   0  0  0  0  0  0
  -22.0375  -12.8207   22.0435 N   0  0  0  0  0  0
  -25.4176  -15.1941   20.4100 N   0  0  0  0  0  0
  -31.7760  -14.7974   20.0454 O   0  0  0  0  0  0
  -21.6620   -6.8857   21.4253 O   0  0  0  0  0  0
  -22.3423  -14.5505   20.6716 O   0  0  0  0  0  0
  -24.6315  -31.8542   23.1942 C   0  0  0  0  0  0
  -25.9130  -32.4746   23.8290 C   0  0  1  0  0  0
  -27.2388  -27.3045   20.0735 C   0  0  0  0  0  0
  -25.5928  -33.8538   24.2248 N   0  0  0  0  0  0
  -23.4237  -30.4751   21.5414 C   0  0  2  0  0  0
  -24.8682  -28.9214   20.1064 C   0  0  0  0  0  0
  -22.7478  -29.4600   22.4937 C   0  0  0  0  0  0
  -18.0281  -28.1342   22.8538 C   0  0  0  0  0  0
  -24.1483  -36.7284   23.2640 C   0  0  0  0  0  0
  -25.9639  -30.7770   21.3639 C   0  0  0  0  0  0
  -26.0393  -29.4006   20.7061 C   0  0  0  0  0  0
  -27.2203  -28.5999   20.6871 C   0  0  0  0  0  0
  -26.0357  -26.8713   19.4729 C   0  0  0  0  0  0
  -24.8706  -27.6626   19.4859 C   0  0  0  0  0  0
  -23.6355  -29.8007   20.1602 C   0  0  0  0  0  0
  -25.4108  -36.3055   24.0331 C   0  0  1  0  0  0
  -20.5884  -28.3690   23.1273 C   0  0  2  0  0  0
  -20.6831  -26.9392   22.5432 C   0  0  0  0  0  0
  -19.5756  -26.6277   21.5297 C   0  0  0  0  0  0
  -18.1925  -26.7866   22.1719 C   0  0  0  0  0  0
  -19.1539  -28.8831   23.2902 C   0  0  0  0  0  0
  -18.9453  -30.1447   23.8891 C   0  0  0  0  0  0
  -17.6430  -30.6585   24.0553 C   0  0  0  0  0  0
  -25.9052  -34.9434   23.5091 C   0  0  0  0  0  0
  -16.5349  -29.9055   23.6319 C   0  0  0  0  0  0
  -16.7269  -28.6471   23.0365 C   0  0  0  0  0  0
  -26.4509  -31.6542   25.0669 C   0  0  0  0  0  0
  -25.3735  -31.3658   26.1399 C   0  0  0  0  0  0
  -27.0356  -30.2978   24.6080 C   0  0  0  0  0  0
  -27.6069  -32.4279   25.7448 C   0  0  0  0  0  0
  -27.5571  -37.1795   24.8475 C   0  0  0  0  0  0
  -21.4197  -29.3061   22.3676 N   0  0  0  0  0  0
  -26.4281  -37.3769   23.9401 N   0  0  0  0  0  0
  -24.6914  -31.0514   22.0901 N   0  0  0  0  0  0
  -23.4176  -28.8121   23.3017 O   0  0  0  0  0  0
  -28.3843  -26.4905   20.1093 O   0  0  0  0  0  0
  -26.5645  -34.8926   22.4676 O   0  0  0  0  0  0
  -23.5463  -32.1342   23.7271 O   0  0  0  0  0  0
  -28.3861  -19.5905   22.8487 C   0  0  0  0  0  0
  -28.8600  -19.4870   21.4935 C   0  0  0  0  0  0
  -29.2877  -18.1252   21.3631 C   0  0  0  0  0  0
  -28.4481  -18.3523   23.3810 C   0  0  0  0  0  0
  -29.9925  -17.1388   20.4332 C   0  0  0  0  0  0
  -29.6862  -22.7362   19.4160 C   0  0  0  0  0  0
  -27.4939  -22.9846   20.3988 C   0  0  0  0  0  0
  -29.9549  -21.3915   20.2224 C   0  0  0  0  0  0
  -27.7397  -21.6414   21.1638 C   0  0  0  0  0  0
  -28.7755  -23.8037   20.1306 C   0  0  0  0  0  0
  -28.5410  -25.2082   19.3686 C   0  0  0  0  0  0
  -28.7320  -20.6584   20.6250 N   0  0  0  0  0  0
  -28.0033  -17.9752   24.6371 N   0  0  0  0  0  0
  -29.8069  -15.7861   20.6878 N   0  0  0  0  0  0
  -30.7193  -17.5681   19.5306 O   0  0  0  0  0  0
  -28.9884  -17.4718   22.5367 O   0  0  0  0  0  0
  -29.3584  -24.1180   21.2898 F   0  0  0  0  0  0
  -31.4675  -12.5046   19.1761 H   0  0  0  0  0  0
  -30.3600  -11.4128   19.9290 H   0  0  0  0  0  0
  -29.7777  -11.7490   17.4952 H   0  0  0  0  0  0
  -29.6653  -13.4713   17.7559 H   0  0  0  0  0  0
  -27.8412  -11.3065   18.8460 H   0  0  0  0  0  0
  -27.3830  -12.6055   17.7775 H   0  0  0  0  0  0
  -27.6510  -14.2652   19.4976 H   0  0  0  0  0  0
  -28.6928  -12.0917   21.3731 H   0  0  0  0  0  0
  -28.4232  -13.7628   21.8249 H   0  0  0  0  0  0
  -25.2716   -9.5691   22.4744 H   0  0  0  0  0  0
  -23.9954   -7.4635   22.7434 H   0  0  0  0  0  0
  -21.0810   -8.8716   19.8948 H   0  0  0  0  0  0
  -22.3605  -10.9633   19.6123 H   0  0  0  0  0  0
  -21.2016   -7.6134   23.9738 H   0  0  0  0  0  0
  -21.1481   -6.0508   25.9092 H   0  0  0  0  0  0
  -22.0591   -2.7598   23.2872 H   0  0  0  0  0  0
  -22.3945  -11.9857   22.4866 H   0  0  0  0  0  0
  -21.0995  -13.1258   22.2684 H   0  0  0  0  0  0
  -24.6551  -15.8527   20.5172 H   0  0  0  0  0  0
  -26.2591  -15.6220   20.0509 H   0  0  0  0  0  0
  -26.7200  -32.5409   23.1029 H   0  0  0  0  0  0
  -25.0013  -33.9655   25.0351 H   0  0  0  0  0  0
  -22.7180  -31.2943   21.3917 H   0  0  0  0  0  0
  -23.3743  -35.9623   23.3307 H   0  0  0  0  0  0
  -24.3562  -36.8899   22.2050 H   0  0  0  0  0  0
  -23.7259  -37.6495   23.6663 H   0  0  0  0  0  0
  -26.0892  -31.5301   20.5844 H   0  0  0  0  0  0
  -26.8488  -30.8354   21.9861 H   0  0  0  0  0  0
  -28.1191  -28.9622   21.1681 H   0  0  0  0  0  0
  -25.9576  -25.9041   19.0069 H   0  0  0  0  0  0
  -23.9717  -27.2859   19.0174 H   0  0  0  0  0  0
  -23.7506  -30.5663   19.3917 H   0  0  0  0  0  0
  -22.7569  -29.2227   19.8684 H   0  0  0  0  0  0
  -25.1292  -36.1897   25.0830 H   0  0  0  0  0  0
  -20.9987  -28.3282   24.1385 H   0  0  0  0  0  0
  -20.5825  -26.2328   23.3697 H   0  0  0  0  0  0
  -21.6689  -26.7474   22.1187 H   0  0  0  0  0  0
  -19.6658  -27.2989   20.6750 H   0  0  0  0  0  0
  -19.6895  -25.6118   21.1464 H   0  0  0  0  0  0
  -17.4235  -26.6666   21.4064 H   0  0  0  0  0  0
  -18.0291  -26.0007   22.9133 H   0  0  0  0  0  0
  -19.7974  -30.7253   24.2209 H   0  0  0  0  0  0
  -17.4952  -31.6289   24.5106 H   0  0  0  0  0  0
  -15.5322  -30.2936   23.7593 H   0  0  0  0  0  0
  -15.8673  -28.0803   22.7082 H   0  0  0  0  0  0
  -24.5939  -30.6979   25.7713 H   0  0  0  0  0  0
  -24.8899  -32.2812   26.4815 H   0  0  0  0  0  0
  -25.8078  -30.8840   27.0167 H   0  0  0  0  0  0
  -26.2905  -29.6746   24.1117 H   0  0  0  0  0  0
  -27.4103  -29.7216   25.4544 H   0  0  0  0  0  0
  -27.8755  -30.4306   23.9260 H   0  0  0  0  0  0
  -27.2678  -33.3593   26.1999 H   0  0  0  0  0  0
  -28.3893  -32.6808   25.0276 H   0  0  0  0  0  0
  -28.0717  -31.8404   26.5375 H   0  0  0  0  0  0
  -28.2606  -38.0076   24.7498 H   0  0  0  0  0  0
  -28.1053  -36.2606   24.6331 H   0  0  0  0  0  0
  -27.2283  -37.1481   25.8881 H   0  0  0  0  0  0
  -20.9410  -29.8824   21.6881 H   0  0  0  0  0  0
  -26.0158  -38.2839   24.1412 H   0  0  0  0  0  0
  -27.9967  -20.4317   23.4001 H   0  0  0  0  0  0
  -29.2284  -22.4850   18.4560 H   0  0  0  0  0  0
  -30.6468  -23.1926   19.1692 H   0  0  0  0  0  0
  -26.8167  -23.6021   20.9920 H   0  0  0  0  0  0
  -26.9807  -22.7839   19.4598 H   0  0  0  0  0  0
  -30.5400  -21.6330   21.1086 H   0  0  0  0  0  0
  -30.5904  -20.7297   19.6313 H   0  0  0  0  0  0
  -26.7779  -21.1415   21.3106 H   0  0  0  0  0  0
  -28.0764  -21.9800   22.1439 H   0  0  0  0  0  0
  -29.4614  -25.3864   18.8099 H   0  0  0  0  0  0
  -27.8066  -25.0789   18.5781 H   0  0  0  0  0  0
  -27.3921  -18.6115   25.1459 H   0  0  0  0  0  0
  -27.7551  -17.0111   24.8201 H   0  0  0  0  0  0
  -28.9819  -15.5840   21.2254 H   0  0  0  0  0  0
  1 25  1  0  0  0
  1 30  2  0  0  0
  1 84  1  0  0  0
  2  3  1  0  0  0
  2 25  1  0  0  0
  2 88  1  0  0  0
  2 89  1  0  0  0
  3  4  1  0  0  0
  3 90  1  0  0  0
  3 91  1  0  0  0
  4  5  1  0  0  0
  4 92  1  0  0  0
  4 93  1  0  0  0
  5  6  1  0  0  0
  5 26  1  0  0  0
  5 94  1  0  0  0
  6 25  1  0  0  0
  6 95  1  0  0  0
  6 96  1  0  0  0
  7  8  2  0  0  0
  7 26  1  0  0  0
  7 29  1  0  0  0
  8  9  1  0  0  0
  8 22  1  0  0  0
  9 10  1  0  0  0
  9 27  2  0  0  0
 10 11  2  0  0  0
 10 15  1  0  0  0
 11 12  1  0  0  0
 11 97  1  0  0  0
 12 13  2  0  0  0
 12 98  1  0  0  0
 13 14  1  0  0  0
 13 31  1  0  0  0
 14 15  2  0  0  0
 14 99  1  0  0  0
 15100  1  0  0  0
 16 17  2  0  0  0
 16 21  1  0  0  0
 16 31  1  0  0  0
 17 18  1  0  0  0
 17101  1  0  0  0
 18 19  2  0  0  0
 18102  1  0  0  0
 19 20  1  0  0  0
 19 24  1  0  0  0
 20 21  2  0  0  0
 20103  1  0  0  0
 21 23  1  0  0  0
 22 28  1  0  0  0
 22 32  2  0  0  0
 26 27  1  0  0  0
 28104  1  0  0  0
 28105  1  0  0  0
 29106  1  0  0  0
 29107  1  0  0  0
 33 34  1  0  0  0
 33 66  1  0  0  0
 33 70  2  0  0  0
 34 36  1  0  0  0
 34 59  1  0  0  0
 34108  1  0  0  0
 35 44  2  0  0  0
 35 45  1  0  0  0
 35 68  1  0  0  0
 36 56  1  0  0  0
 36109  1  0  0  0
 37 39  1  0  0  0
 37 47  1  0  0  0
 37 66  1  0  0  0
 37110  1  0  0  0
 38 43  2  0  0  0
 38 46  1  0  0  0
 38 47  1  0  0  0
 39 64  1  0  0  0
 39 67  2  0  0  0
 40 52  1  0  0  0
 40 53  2  0  0  0
 40 58  1  0  0  0
 41111  1  0  0  0
 41112  1  0  0  0
 41113  1  0  0  0
 41 48  1  0  0  0
 42 43  1  0  0  0
 42 66  1  0  0  0
 42114  1  0  0  0
 42115  1  0  0  0
 43 44  1  0  0  0
 44116  1  0  0  0
 45 46  2  0  0  0
 45117  1  0  0  0
 46118  1  0  0  0
 47119  1  0  0  0
 47120  1  0  0  0
 48 56  1  0  0  0
 48 65  1  0  0  0
 48121  1  0  0  0
 49 50  1  0  0  0
 49 53  1  0  0  0
 49 64  1  0  0  0
 49122  1  0  0  0
 50 51  1  0  0  0
 50123  1  0  0  0
 50124  1  0  0  0
 51 52  1  0  0  0
 51125  1  0  0  0
 51126  1  0  0  0
 52127  1  0  0  0
 52128  1  0  0  0
 53 54  1  0  0  0
 54 55  2  0  0  0
 54129  1  0  0  0
 55 57  1  0  0  0
 55130  1  0  0  0
 56 69  2  0  0  0
 57 58  2  0  0  0
 57131  1  0  0  0
 58132  1  0  0  0
 59 60  1  0  0  0
 59 61  1  0  0  0
 59 62  1  0  0  0
 60133  1  0  0  0
 60134  1  0  0  0
 60135  1  0  0  0
 61136  1  0  0  0
 61137  1  0  0  0
 61138  1  0  0  0
 62139  1  0  0  0
 62140  1  0  0  0
 62141  1  0  0  0
 63 65  1  0  0  0
 63142  1  0  0  0
 63143  1  0  0  0
 63144  1  0  0  0
 64145  1  0  0  0
 65146  1  0  0  0
 68 81  1  0  0  0
 71 72  1  0  0  0
 71 74  2  0  0  0
 71147  1  0  0  0
 72 73  2  0  0  0
 72 82  1  0  0  0
 73 75  1  0  0  0
 73 86  1  0  0  0
 74 83  1  0  0  0
 74 86  1  0  0  0
 75 84  1  0  0  0
 75 85  2  0  0  0
 76 78  1  0  0  0
 76 80  1  0  0  0
 76148  1  0  0  0
 76149  1  0  0  0
 77 79  1  0  0  0
 77 80  1  0  0  0
 77150  1  0  0  0
 77151  1  0  0  0
 78 82  1  0  0  0
 78152  1  0  0  0
 78153  1  0  0  0
 79 82  1  0  0  0
 79154  1  0  0  0
 79155  1  0  0  0
 80 81  1  0  0  0
 80 87  1  0  0  0
 81156  1  0  0  0
 81157  1  0  0  0
 83158  1  0  0  0
 83159  1  0  0  0
 84160  1  0  0  0
M  ISO  4   1 100  68 101  81 101  84 100
M  END
> <chiral flag>
0

> <version>
0

> <s_m_source_file>
/data/baiqing/PycharmProjects/Reinvent-master-3.2/result/LINK_invent/BTK/process_docking_weight1_custom_product_contain_oxygen_bond_distance_aromatic_linkinvent_7_9_3/rearranged_h_0154.sdf

> <i_m_source_file_index>
5

> <r_mmod_Potential_Energy-OPLS-2005>
176.240417480469

> <r_mmod_Stretch_Energy-OPLS-2005>
109.467514038086

> <r_mmod_Bend_Energy-OPLS-2005>
226.34521484375

> <r_mmod_Torsional_Energy-OPLS-2005>
299.563140869141

> <r_mmod_Improper_Torsional_Energy-OPLS-2005>
12.3800849914551

> <r_mmod_Van_der_Waal_Energy-OPLS-2005>
140.309539794922

> <r_mmod_Electrostatic_Energy-OPLS-2005>
-420.284149169922

> <r_mmod_Solvation_Energy-OPLS-2005>
-251.793472290039

> <b_mmod_Minimization_Converged-OPLS-2005>
0

> <r_mmod_RMS_Derivative-OPLS-2005>
7.45239877700806

$$$$
5
                    3D
 Structure written by MMmdl.
154163  0  0  1  0            999 V2000
  -30.5798  -14.7709   20.4610 C   0  0  0  0  0  0
  -30.4556  -12.4721   19.4729 C   0  0  0  0  0  0
  -29.5235  -12.5028   18.2402 C   0  0  0  0  0  0
  -28.0499  -12.3166   18.6572 C   0  0  0  0  0  0
  -27.6490  -13.2223   19.8516 C   0  0  2  0  0  0
  -28.6949  -13.1539   20.9865 C   0  0  0  0  0  0
  -25.2566  -13.8178   20.5669 C   0  0  0  0  0  0
  -24.1838  -13.0441   20.9183 C   0  0  0  0  0  0
  -24.6408  -11.6913   20.8736 C   0  0  0  0  0  0
  -23.9075  -10.4295   21.0405 C   0  0  0  0  0  0
  -24.3622   -9.4211   21.9185 C   0  0  0  0  0  0
  -23.6287   -8.2259   22.0768 C   0  0  0  0  0  0
  -22.4278   -8.0290   21.3551 C   0  0  0  0  0  0
  -21.9910   -9.0266   20.4650 C   0  0  0  0  0  0
  -22.7255  -10.2137   20.3050 C   0  0  0  0  0  0
  -21.6855   -6.0732   22.5275 C   0  0  0  0  0  0
  -21.4021   -6.5637   23.8209 C   0  0  0  0  0  0
  -21.3650   -5.6789   24.9165 C   0  0  0  0  0  0
  -21.6045   -4.3053   24.7220 C   0  0  0  0  0  0
  -21.8824   -3.8142   23.4342 C   0  0  0  0  0  0
  -21.9198   -4.6957   22.3398 C   0  0  0  0  0  0
  -22.7858  -13.5232   21.1829 C   0  0  0  0  0  0
  -22.1664   -4.2147   21.0972 F   0  0  0  0  0  0
  -21.5620   -3.4528   25.7727 F   0  0  0  0  0  0
  -29.9944  -13.5243   20.4073 N   0  0  0  0  0  0
  -26.2981  -12.9359   20.3274 N   0  0  0  0  0  0
  -25.9339  -11.6515   20.5753 N   0  0  0  0  0  0
  -22.0482  -12.8237   22.0375 N   0  0  0  0  0  0
  -25.4289  -15.1908   20.4071 N   0  0  0  0  0  0
  -31.7691  -14.9073   20.1544 O   0  0  0  0  0  0
  -21.6645   -6.8889   21.4242 O   0  0  0  0  0  0
  -22.3559  -14.5546   20.6684 O   0  0  0  0  0  0
  -24.6337  -31.8525   23.1925 C   0  0  0  0  0  0
  -25.9130  -32.4753   23.8301 C   0  0  1  0  0  0
  -27.2314  -27.2480   20.1483 C   0  0  0  0  0  0
  -25.5931  -33.8552   24.2251 N   0  0  0  0  0  0
  -23.4338  -30.4719   21.5357 C   0  0  2  0  0  0
  -24.8858  -28.9080   20.1161 C   0  0  0  0  0  0
  -22.7509  -29.4606   22.4888 C   0  0  0  0  0  0
  -18.0295  -28.1427   22.8495 C   0  0  0  0  0  0
  -24.1474  -36.7255   23.2636 C   0  0  0  0  0  0
  -25.9790  -30.7644   21.3717 C   0  0  0  0  0  0
  -26.0571  -29.3807   20.7236 C   0  0  0  0  0  0
  -27.2368  -28.5648   20.7230 C   0  0  0  0  0  0
  -26.0383  -26.8371   19.5213 C   0  0  0  0  0  0
  -24.8817  -27.6458   19.5005 C   0  0  0  0  0  0
  -23.6547  -29.7959   20.1565 C   0  0  0  0  0  0
  -25.4114  -36.3063   24.0323 C   0  0  1  0  0  0
  -20.5897  -28.3726   23.1262 C   0  0  2  0  0  0
  -20.6794  -26.9447   22.5406 C   0  0  0  0  0  0
  -19.5762  -26.6410   21.5219 C   0  0  0  0  0  0
  -18.1932  -26.7990   22.1615 C   0  0  0  0  0  0
  -19.1547  -28.8899   23.2877 C   0  0  0  0  0  0
  -18.9484  -30.1505   23.8884 C   0  0  0  0  0  0
  -17.6477  -30.6623   24.0587 C   0  0  0  0  0  0
  -25.9053  -34.9443   23.5093 C   0  0  0  0  0  0
  -16.5362  -29.9130   23.6349 C   0  0  0  0  0  0
  -16.7277  -28.6554   23.0354 C   0  0  0  0  0  0
  -26.4508  -31.6576   25.0680 C   0  0  0  0  0  0
  -25.3721  -31.3750   26.1390 C   0  0  0  0  0  0
  -27.0343  -30.2998   24.6156 C   0  0  0  0  0  0
  -27.6077  -32.4301   25.7463 C   0  0  0  0  0  0
  -27.5584  -37.1779   24.8472 C   0  0  0  0  0  0
  -21.4221  -29.3052   22.3633 N   0  0  0  0  0  0
  -26.4293  -37.3761   23.9421 N   0  0  0  0  0  0
  -24.7009  -31.0479   22.0912 N   0  0  0  0  0  0
  -23.4190  -28.8157   23.3006 O   0  0  0  0  0  0
  -28.3204  -26.3452   20.1307 O   0  0  0  0  0  0
  -26.5609  -34.8931   22.4659 O   0  0  0  0  0  0
  -23.5475  -32.1360   23.7206 O   0  0  0  0  0  0
  -30.7369  -19.5074   20.8388 C   0  0  0  0  0  0
  -30.9692  -18.0666   20.8827 C   0  0  0  0  0  0
  -29.4686  -19.9212   20.4743 C   0  0  0  0  0  0
  -29.8827  -17.2600   20.5951 C   0  0  0  0  0  0
  -28.4480  -23.5980   20.3952 C   0  0  0  0  0  0
  -29.2049  -22.5488   20.8685 C   0  0  0  0  0  0
  -27.5257  -23.0335   19.3425 C   0  0  0  0  0  0
  -27.8372  -21.5005   19.3285 C   0  0  0  0  0  0
  -30.1785  -22.6080   22.0302 C   0  0  0  0  0  0
  -28.2359  -25.0925   20.9582 C   0  0  0  0  0  0
  -28.9196  -21.2719   20.2895 N   0  0  0  0  0  0
  -29.7276  -15.8574   20.6371 N   0  0  0  0  0  0
  -28.5485  -18.4032   20.2042 S   0  0  0  0  0  0
  -31.4896  -12.6307   19.1616 H   0  0  0  0  0  0
  -30.4363  -11.4961   19.9605 H   0  0  0  0  0  0
  -29.8161  -11.7247   17.5342 H   0  0  0  0  0  0
  -29.6411  -13.4530   17.7172 H   0  0  0  0  0  0
  -27.9191  -11.2692   18.9314 H   0  0  0  0  0  0
  -27.3918  -12.4943   17.8068 H   0  0  0  0  0  0
  -27.6440  -14.2413   19.4649 H   0  0  0  0  0  0
  -28.7409  -12.1522   21.4171 H   0  0  0  0  0  0
  -28.4226  -13.8226   21.8051 H   0  0  0  0  0  0
  -25.2767   -9.5678   22.4753 H   0  0  0  0  0  0
  -23.9980   -7.4651   22.7496 H   0  0  0  0  0  0
  -21.0844   -8.8792   19.8951 H   0  0  0  0  0  0
  -22.3731  -10.9668   19.6141 H   0  0  0  0  0  0
  -21.2025   -7.6146   23.9712 H   0  0  0  0  0  0
  -21.1459   -6.0512   25.9069 H   0  0  0  0  0  0
  -22.0614   -2.7605   23.2838 H   0  0  0  0  0  0
  -22.4057  -11.9851   22.4709 H   0  0  0  0  0  0
  -21.1118  -13.1311   22.2599 H   0  0  0  0  0  0
  -24.6623  -15.8451   20.5215 H   0  0  0  0  0  0
  -26.2666  -15.6266   20.0439 H   0  0  0  0  0  0
  -26.7210  -32.5406   23.1058 H   0  0  0  0  0  0
  -25.0145  -33.9698   25.0450 H   0  0  0  0  0  0
  -22.7334  -31.2957   21.3843 H   0  0  0  0  0  0
  -23.3765  -35.9552   23.3287 H   0  0  0  0  0  0
  -24.3588  -36.8879   22.2056 H   0  0  0  0  0  0
  -23.7200  -37.6447   23.6660 H   0  0  0  0  0  0
  -26.1089  -31.5170   20.5919 H   0  0  0  0  0  0
  -26.8617  -30.8282   21.9975 H   0  0  0  0  0  0
  -28.1410  -28.9318   21.1919 H   0  0  0  0  0  0
  -26.0002  -25.8620   19.0567 H   0  0  0  0  0  0
  -23.9865  -27.2836   19.0148 H   0  0  0  0  0  0
  -23.7790  -30.5677   19.3965 H   0  0  0  0  0  0
  -22.7729  -29.2254   19.8572 H   0  0  0  0  0  0
  -25.1300  -36.1899   25.0812 H   0  0  0  0  0  0
  -21.0001  -28.3327   24.1375 H   0  0  0  0  0  0
  -20.5715  -26.2342   23.3618 H   0  0  0  0  0  0
  -21.6665  -26.7494   22.1179 H   0  0  0  0  0  0
  -19.6925  -25.6313   21.1259 H   0  0  0  0  0  0
  -19.6717  -27.3226   20.6758 H   0  0  0  0  0  0
  -17.4220  -26.6751   21.3996 H   0  0  0  0  0  0
  -18.0314  -26.0157   22.9025 H   0  0  0  0  0  0
  -19.7951  -30.7342   24.2228 H   0  0  0  0  0  0
  -17.5031  -31.6295   24.5218 H   0  0  0  0  0  0
  -15.5363  -30.3035   23.7691 H   0  0  0  0  0  0
  -15.8679  -28.0881   22.7041 H   0  0  0  0  0  0
  -24.5940  -30.7038   25.7736 H   0  0  0  0  0  0
  -24.8846  -32.2916   26.4700 H   0  0  0  0  0  0
  -25.8022  -30.9031   27.0225 H   0  0  0  0  0  0
  -26.2915  -29.6745   24.1190 H   0  0  0  0  0  0
  -27.4067  -29.7244   25.4637 H   0  0  0  0  0  0
  -27.8762  -30.4288   23.9362 H   0  0  0  0  0  0
  -27.2742  -33.3662   26.1951 H   0  0  0  0  0  0
  -28.3954  -32.6746   25.0322 H   0  0  0  0  0  0
  -28.0669  -31.8456   26.5449 H   0  0  0  0  0  0
  -28.2578  -38.0088   24.7546 H   0  0  0  0  0  0
  -28.1092  -36.2633   24.6257 H   0  0  0  0  0  0
  -27.2311  -37.1380   25.8869 H   0  0  0  0  0  0
  -20.9409  -29.8732   21.6803 H   0  0  0  0  0  0
  -26.0158  -38.2814   24.1460 H   0  0  0  0  0  0
  -31.5407  -20.1934   21.0620 H   0  0  0  0  0  0
  -31.9404  -17.6803   21.1590 H   0  0  0  0  0  0
  -27.7241  -23.4991   18.3777 H   0  0  0  0  0  0
  -26.4853  -23.2171   19.6126 H   0  0  0  0  0  0
  -28.1476  -21.1743   18.3352 H   0  0  0  0  0  0
  -26.9516  -20.9283   19.6091 H   0  0  0  0  0  0
  -29.8736  -23.3550   22.7634 H   0  0  0  0  0  0
  -31.1762  -22.8682   21.6737 H   0  0  0  0  0  0
  -30.2427  -21.6540   22.5546 H   0  0  0  0  0  0
  -28.9603  -25.2328   21.7599 H   0  0  0  0  0  0
  -27.2681  -25.0824   21.4627 H   0  0  0  0  0  0
  -28.7729  -15.5593   20.7628 H   0  0  0  0  0  0
  1 25  1  0  0  0
  1 30  2  0  0  0
  1 82  1  0  0  0
  2  3  1  0  0  0
  2 25  1  0  0  0
  2 84  1  0  0  0
  2 85  1  0  0  0
  3  4  1  0  0  0
  3 86  1  0  0  0
  3 87  1  0  0  0
  4  5  1  0  0  0
  4 88  1  0  0  0
  4 89  1  0  0  0
  5  6  1  0  0  0
  5 26  1  0  0  0
  5 90  1  0  0  0
  6 25  1  0  0  0
  6 91  1  0  0  0
  6 92  1  0  0  0
  7  8  2  0  0  0
  7 26  1  0  0  0
  7 29  1  0  0  0
  8  9  1  0  0  0
  8 22  1  0  0  0
  9 10  1  0  0  0
  9 27  2  0  0  0
 10 11  2  0  0  0
 10 15  1  0  0  0
 11 12  1  0  0  0
 11 93  1  0  0  0
 12 13  2  0  0  0
 12 94  1  0  0  0
 13 14  1  0  0  0
 13 31  1  0  0  0
 14 15  2  0  0  0
 14 95  1  0  0  0
 15 96  1  0  0  0
 16 17  2  0  0  0
 16 21  1  0  0  0
 16 31  1  0  0  0
 17 18  1  0  0  0
 17 97  1  0  0  0
 18 19  2  0  0  0
 18 98  1  0  0  0
 19 20  1  0  0  0
 19 24  1  0  0  0
 20 21  2  0  0  0
 20 99  1  0  0  0
 21 23  1  0  0  0
 22 28  1  0  0  0
 22 32  2  0  0  0
 26 27  1  0  0  0
 28100  1  0  0  0
 28101  1  0  0  0
 29102  1  0  0  0
 29103  1  0  0  0
 33 34  1  0  0  0
 33 66  1  0  0  0
 33 70  2  0  0  0
 34 36  1  0  0  0
 34 59  1  0  0  0
 34104  1  0  0  0
 35 44  2  0  0  0
 35 45  1  0  0  0
 35 68  1  0  0  0
 36 56  1  0  0  0
 36105  1  0  0  0
 37 39  1  0  0  0
 37 47  1  0  0  0
 37 66  1  0  0  0
 37106  1  0  0  0
 38 43  2  0  0  0
 38 46  1  0  0  0
 38 47  1  0  0  0
 39 64  1  0  0  0
 39 67  2  0  0  0
 40 52  1  0  0  0
 40 53  2  0  0  0
 40 58  1  0  0  0
 41107  1  0  0  0
 41108  1  0  0  0
 41109  1  0  0  0
 41 48  1  0  0  0
 42 43  1  0  0  0
 42 66  1  0  0  0
 42110  1  0  0  0
 42111  1  0  0  0
 43 44  1  0  0  0
 44112  1  0  0  0
 45 46  2  0  0  0
 45113  1  0  0  0
 46114  1  0  0  0
 47115  1  0  0  0
 47116  1  0  0  0
 48 56  1  0  0  0
 48 65  1  0  0  0
 48117  1  0  0  0
 49 50  1  0  0  0
 49 53  1  0  0  0
 49 64  1  0  0  0
 49118  1  0  0  0
 50 51  1  0  0  0
 50119  1  0  0  0
 50120  1  0  0  0
 51 52  1  0  0  0
 51121  1  0  0  0
 51122  1  0  0  0
 52123  1  0  0  0
 52124  1  0  0  0
 53 54  1  0  0  0
 54 55  2  0  0  0
 54125  1  0  0  0
 55 57  1  0  0  0
 55126  1  0  0  0
 56 69  2  0  0  0
 57 58  2  0  0  0
 57127  1  0  0  0
 58128  1  0  0  0
 59 60  1  0  0  0
 59 61  1  0  0  0
 59 62  1  0  0  0
 60129  1  0  0  0
 60130  1  0  0  0
 60131  1  0  0  0
 61132  1  0  0  0
 61133  1  0  0  0
 61134  1  0  0  0
 62135  1  0  0  0
 62136  1  0  0  0
 62137  1  0  0  0
 63 65  1  0  0  0
 63138  1  0  0  0
 63139  1  0  0  0
 63140  1  0  0  0
 64141  1  0  0  0
 65142  1  0  0  0
 68 80  1  0  0  0
 71 72  1  0  0  0
 71 73  2  0  0  0
 71143  1  0  0  0
 72 74  2  0  0  0
 72144  1  0  0  0
 73 81  1  0  0  0
 73 83  1  0  0  0
 74 82  1  0  0  0
 74 83  1  0  0  0
 75 76  2  0  0  0
 75 77  1  0  0  0
 75 80  1  0  0  0
 76 79  1  0  0  0
 76 81  1  0  0  0
 77 78  1  0  0  0
 77145  1  0  0  0
 77146  1  0  0  0
 78 81  1  0  0  0
 78147  1  0  0  0
 78148  1  0  0  0
 79149  1  0  0  0
 79150  1  0  0  0
 79151  1  0  0  0
 80152  1  0  0  0
 80153  1  0  0  0
 82154  1  0  0  0
M  ISO  4   1 100  68 101  80 101  82 100
M  END
> <chiral flag>
0

> <version>
0

> <s_m_source_file>
/data/baiqing/PycharmProjects/Reinvent-master-3.2/result/LINK_invent/BTK/process_docking_weight1_custom_product_contain_oxygen_bond_distance_aromatic_linkinvent_7_9_3/rearranged_h_0154.sdf

> <i_m_source_file_index>
6

> <r_mmod_Potential_Energy-OPLS-2005>
239.289566040039

> <r_mmod_Stretch_Energy-OPLS-2005>
115.714683532715

> <r_mmod_Bend_Energy-OPLS-2005>
233.708297729492

> <r_mmod_Torsional_Energy-OPLS-2005>
246.955917358398

> <r_mmod_Improper_Torsional_Energy-OPLS-2005>
6.1264796257019

> <r_mmod_Van_der_Waal_Energy-OPLS-2005>
105.927131652832

> <r_mmod_Electrostatic_Energy-OPLS-2005>
-355.921966552734

> <r_mmod_Solvation_Energy-OPLS-2005>
-208.265853881836

> <b_mmod_Minimization_Converged-OPLS-2005>
0

> <r_mmod_RMS_Derivative-OPLS-2005>
2.99454069137573

$$$$
6
                    3D
 Structure written by MMmdl.
158167  0  0  1  0            999 V2000
  -30.5828  -14.7486   20.4154 C   0  0  0  0  0  0
  -30.4290  -12.4454   19.4845 C   0  0  0  0  0  0
  -29.5132  -12.4902   18.2422 C   0  0  0  0  0  0
  -28.0392  -12.3147   18.6525 C   0  0  0  0  0  0
  -27.6365  -13.2236   19.8405 C   0  0  2  0  0  0
  -28.6740  -13.1697   20.9825 C   0  0  0  0  0  0
  -25.2486  -13.8162   20.5649 C   0  0  0  0  0  0
  -24.1779  -13.0429   20.9195 C   0  0  0  0  0  0
  -24.6364  -11.6905   20.8748 C   0  0  0  0  0  0
  -23.9039  -10.4280   21.0402 C   0  0  0  0  0  0
  -24.3594   -9.4204   21.9199 C   0  0  0  0  0  0
  -23.6272   -8.2235   22.0764 C   0  0  0  0  0  0
  -22.4260   -8.0269   21.3536 C   0  0  0  0  0  0
  -21.9888   -9.0243   20.4637 C   0  0  0  0  0  0
  -22.7201  -10.2133   20.3045 C   0  0  0  0  0  0
  -21.6853   -6.0730   22.5268 C   0  0  0  0  0  0
  -21.4025   -6.5633   23.8203 C   0  0  0  0  0  0
  -21.3668   -5.6792   24.9170 C   0  0  0  0  0  0
  -21.6036   -4.3046   24.7223 C   0  0  0  0  0  0
  -21.8815   -3.8140   23.4340 C   0  0  0  0  0  0
  -21.9193   -4.6961   22.3398 C   0  0  0  0  0  0
  -22.7807  -13.5238   21.1852 C   0  0  0  0  0  0
  -22.1650   -4.2143   21.0974 F   0  0  0  0  0  0
  -21.5631   -3.4522   25.7736 F   0  0  0  0  0  0
  -29.9771  -13.5140   20.4013 N   0  0  0  0  0  0
  -26.2888  -12.9355   20.3205 N   0  0  0  0  0  0
  -25.9279  -11.6514   20.5702 N   0  0  0  0  0  0
  -22.0420  -12.8275   22.0409 N   0  0  0  0  0  0
  -25.4210  -15.1895   20.4058 N   0  0  0  0  0  0
  -31.7869  -14.8302   20.1471 O   0  0  0  0  0  0
  -21.6622   -6.8868   21.4225 O   0  0  0  0  0  0
  -22.3508  -14.5553   20.6685 O   0  0  0  0  0  0
  -24.6317  -31.8575   23.2039 C   0  0  0  0  0  0
  -25.9149  -32.4774   23.8353 C   0  0  1  0  0  0
  -27.2043  -27.2558   20.1149 C   0  0  0  0  0  0
  -25.5971  -33.8575   24.2302 N   0  0  0  0  0  0
  -23.4258  -30.4854   21.5454 C   0  0  2  0  0  0
  -24.8735  -28.9425   20.1066 C   0  0  0  0  0  0
  -22.7477  -29.4635   22.4889 C   0  0  0  0  0  0
  -18.0270  -28.1382   22.8462 C   0  0  0  0  0  0
  -24.1483  -36.7273   23.2631 C   0  0  0  0  0  0
  -25.9740  -30.7683   21.3881 C   0  0  0  0  0  0
  -26.0463  -29.3917   20.7271 C   0  0  0  0  0  0
  -27.2161  -28.5578   20.7270 C   0  0  0  0  0  0
  -26.0183  -26.9031   19.4331 C   0  0  0  0  0  0
  -24.8668  -27.7057   19.4472 C   0  0  0  0  0  0
  -23.6478  -29.8323   20.1577 C   0  0  0  0  0  0
  -25.4112  -36.3080   24.0322 C   0  0  1  0  0  0
  -20.5871  -28.3723   23.1246 C   0  0  2  0  0  0
  -20.6788  -26.9441   22.5383 C   0  0  0  0  0  0
  -19.5764  -26.6397   21.5176 C   0  0  0  0  0  0
  -18.1930  -26.7912   22.1587 C   0  0  0  0  0  0
  -19.1532  -28.8852   23.2848 C   0  0  0  0  0  0
  -18.9483  -30.1424   23.8909 C   0  0  0  0  0  0
  -17.6497  -30.6579   24.0555 C   0  0  0  0  0  0
  -25.9054  -34.9451   23.5100 C   0  0  0  0  0  0
  -16.5382  -29.9096   23.6320 C   0  0  0  0  0  0
  -16.7254  -28.6503   23.0347 C   0  0  0  0  0  0
  -26.4517  -31.6581   25.0731 C   0  0  0  0  0  0
  -25.3737  -31.3759   26.1448 C   0  0  0  0  0  0
  -27.0385  -30.3004   24.6233 C   0  0  0  0  0  0
  -27.6064  -32.4309   25.7511 C   0  0  0  0  0  0
  -27.5568  -37.1807   24.8461 C   0  0  0  0  0  0
  -21.4174  -29.3106   22.3655 N   0  0  0  0  0  0
  -26.4288  -37.3781   23.9402 N   0  0  0  0  0  0
  -24.6953  -31.0538   22.1025 N   0  0  0  0  0  0
  -23.4174  -28.8120   23.2948 O   0  0  0  0  0  0
  -28.2544  -26.3040   20.1706 O   0  0  0  0  0  0
  -26.5605  -34.8914   22.4658 O   0  0  0  0  0  0
  -23.5467  -32.1427   23.7347 O   0  0  0  0  0  0
  -31.2126  -18.9589   18.7636 C   0  0  0  0  0  0
  -30.3666  -20.0159   19.1563 C   0  0  0  0  0  0
  -31.0329  -17.6402   19.2378 C   0  0  0  0  0  0
  -29.1188  -18.4110   20.4973 C   0  0  0  0  0  0
  -29.2929  -19.7885   20.0374 C   0  0  0  0  0  0
  -29.9812  -17.2991   20.1230 C   0  0  0  0  0  0
  -28.8081  -23.6168   20.3739 C   0  0  0  0  0  0
  -26.1565  -21.7273   19.5206 C   0  0  0  0  0  0
  -26.8720  -20.5470   20.1710 C   0  0  0  0  0  0
  -27.3024  -22.4356   18.8111 C   0  0  0  0  0  0
  -28.3315  -21.0016   20.4377 C   0  0  2  0  0  0
  -27.8325  -24.8946   20.5326 C   0  0  0  0  0  0
  -28.3750  -22.4137   19.8063 N   0  0  0  0  0  0
  -29.7784  -15.8789   20.5453 N   0  0  0  0  0  0
  -29.9115  -23.6677   20.9266 O   0  0  0  0  0  0
  -31.4702  -12.5688   19.1849 H   0  0  0  0  0  0
  -30.3682  -11.4728   19.9783 H   0  0  0  0  0  0
  -29.7974  -11.7095   17.5347 H   0  0  0  0  0  0
  -29.6404  -13.4405   17.7232 H   0  0  0  0  0  0
  -27.9032  -11.2678   18.9302 H   0  0  0  0  0  0
  -27.3851  -12.4905   17.7971 H   0  0  0  0  0  0
  -27.6249  -14.2398   19.4486 H   0  0  0  0  0  0
  -28.7021  -12.1789   21.4372 H   0  0  0  0  0  0
  -28.3982  -13.8642   21.7787 H   0  0  0  0  0  0
  -25.2723   -9.5709   22.4785 H   0  0  0  0  0  0
  -23.9966   -7.4643   22.7515 H   0  0  0  0  0  0
  -21.0799   -8.8751   19.8966 H   0  0  0  0  0  0
  -22.3622  -10.9678   19.6161 H   0  0  0  0  0  0
  -21.2016   -7.6142   23.9700 H   0  0  0  0  0  0
  -21.1497   -6.0525   25.9077 H   0  0  0  0  0  0
  -22.0592   -2.7595   23.2831 H   0  0  0  0  0  0
  -22.3988  -11.9942   22.4839 H   0  0  0  0  0  0
  -21.1045  -13.1360   22.2592 H   0  0  0  0  0  0
  -24.6464  -15.8392   20.4938 H   0  0  0  0  0  0
  -26.2596  -15.6232   20.0441 H   0  0  0  0  0  0
  -26.7213  -32.5425   23.1066 H   0  0  0  0  0  0
  -25.0149  -33.9709   25.0463 H   0  0  0  0  0  0
  -22.7235  -31.3104   21.4048 H   0  0  0  0  0  0
  -23.3750  -35.9598   23.3294 H   0  0  0  0  0  0
  -24.3555  -36.8896   22.2043 H   0  0  0  0  0  0
  -23.7231  -37.6466   23.6654 H   0  0  0  0  0  0
  -26.1103  -31.5313   20.6213 H   0  0  0  0  0  0
  -26.8498  -30.8186   22.0212 H   0  0  0  0  0  0
  -28.1059  -28.8854   21.2458 H   0  0  0  0  0  0
  -25.9561  -25.9827   18.8696 H   0  0  0  0  0  0
  -23.9787  -27.3733   18.9280 H   0  0  0  0  0  0
  -23.7680  -30.6144   19.4075 H   0  0  0  0  0  0
  -22.7649  -29.2723   19.8452 H   0  0  0  0  0  0
  -25.1290  -36.1915   25.0815 H   0  0  0  0  0  0
  -20.9962  -28.3307   24.1356 H   0  0  0  0  0  0
  -20.5683  -26.2324   23.3575 H   0  0  0  0  0  0
  -21.6655  -26.7449   22.1207 H   0  0  0  0  0  0
  -19.6960  -25.6314   21.1203 H   0  0  0  0  0  0
  -19.6711  -27.3198   20.6696 H   0  0  0  0  0  0
  -17.4199  -26.6595   21.3993 H   0  0  0  0  0  0
  -18.0357  -26.0031   22.8983 H   0  0  0  0  0  0
  -19.7990  -30.7177   24.2331 H   0  0  0  0  0  0
  -17.5094  -31.6262   24.5177 H   0  0  0  0  0  0
  -15.5395  -30.3034   23.7652 H   0  0  0  0  0  0
  -15.8624  -28.0813   22.7112 H   0  0  0  0  0  0
  -24.5895  -30.7125   25.7770 H   0  0  0  0  0  0
  -24.8949  -32.2962   26.4839 H   0  0  0  0  0  0
  -25.8043  -30.8951   27.0248 H   0  0  0  0  0  0
  -26.3017  -29.6741   24.1219 H   0  0  0  0  0  0
  -27.4010  -29.7266   25.4769 H   0  0  0  0  0  0
  -27.8891  -30.4239   23.9524 H   0  0  0  0  0  0
  -27.2677  -33.3606   26.2087 H   0  0  0  0  0  0
  -28.3903  -32.6898   25.0377 H   0  0  0  0  0  0
  -28.0709  -31.8442   26.5443 H   0  0  0  0  0  0
  -28.2608  -38.0096   24.7503 H   0  0  0  0  0  0
  -28.1056  -36.2624   24.6297 H   0  0  0  0  0  0
  -27.2272  -37.1449   25.8868 H   0  0  0  0  0  0
  -20.9326  -29.8868   21.6901 H   0  0  0  0  0  0
  -26.0156  -38.2839   24.1447 H   0  0  0  0  0  0
  -32.0170  -19.1576   18.0700 H   0  0  0  0  0  0
  -30.5448  -21.0081   18.7679 H   0  0  0  0  0  0
  -31.7214  -16.8913   18.8776 H   0  0  0  0  0  0
  -28.2830  -18.2007   21.1498 H   0  0  0  0  0  0
  -25.7203  -22.3756   20.2856 H   0  0  0  0  0  0
  -25.3481  -21.4276   18.8539 H   0  0  0  0  0  0
  -26.8561  -19.7324   19.4406 H   0  0  0  0  0  0
  -26.3667  -20.1806   21.0637 H   0  0  0  0  0  0
  -27.0274  -23.4174   18.4253 H   0  0  0  0  0  0
  -27.6220  -21.8607   17.9382 H   0  0  0  0  0  0
  -28.4500  -21.1407   21.5132 H   0  0  0  0  0  0
  -27.6376  -24.9437   21.6033 H   0  0  0  0  0  0
  -26.8588  -24.6381   20.1393 H   0  0  0  0  0  0
  -28.8470  -15.6604   20.8694 H   0  0  0  0  0  0
  1 25  1  0  0  0
  1 30  2  0  0  0
  1 84  1  0  0  0
  2  3  1  0  0  0
  2 25  1  0  0  0
  2 86  1  0  0  0
  2 87  1  0  0  0
  3  4  1  0  0  0
  3 88  1  0  0  0
  3 89  1  0  0  0
  4  5  1  0  0  0
  4 90  1  0  0  0
  4 91  1  0  0  0
  5  6  1  0  0  0
  5 26  1  0  0  0
  5 92  1  0  0  0
  6 25  1  0  0  0
  6 93  1  0  0  0
  6 94  1  0  0  0
  7  8  2  0  0  0
  7 26  1  0  0  0
  7 29  1  0  0  0
  8  9  1  0  0  0
  8 22  1  0  0  0
  9 10  1  0  0  0
  9 27  2  0  0  0
 10 11  2  0  0  0
 10 15  1  0  0  0
 11 12  1  0  0  0
 11 95  1  0  0  0
 12 13  2  0  0  0
 12 96  1  0  0  0
 13 14  1  0  0  0
 13 31  1  0  0  0
 14 15  2  0  0  0
 14 97  1  0  0  0
 15 98  1  0  0  0
 16 17  2  0  0  0
 16 21  1  0  0  0
 16 31  1  0  0  0
 17 18  1  0  0  0
 17 99  1  0  0  0
 18 19  2  0  0  0
 18100  1  0  0  0
 19 20  1  0  0  0
 19 24  1  0  0  0
 20 21  2  0  0  0
 20101  1  0  0  0
 21 23  1  0  0  0
 22 28  1  0  0  0
 22 32  2  0  0  0
 26 27  1  0  0  0
 28102  1  0  0  0
 28103  1  0  0  0
 29104  1  0  0  0
 29105  1  0  0  0
 33 34  1  0  0  0
 33 66  1  0  0  0
 33 70  2  0  0  0
 34 36  1  0  0  0
 34 59  1  0  0  0
 34106  1  0  0  0
 35 44  2  0  0  0
 35 45  1  0  0  0
 35 68  1  0  0  0
 36 56  1  0  0  0
 36107  1  0  0  0
 37 39  1  0  0  0
 37 47  1  0  0  0
 37 66  1  0  0  0
 37108  1  0  0  0
 38 43  2  0  0  0
 38 46  1  0  0  0
 38 47  1  0  0  0
 39 64  1  0  0  0
 39 67  2  0  0  0
 40 52  1  0  0  0
 40 53  2  0  0  0
 40 58  1  0  0  0
 41109  1  0  0  0
 41110  1  0  0  0
 41111  1  0  0  0
 41 48  1  0  0  0
 42 43  1  0  0  0
 42 66  1  0  0  0
 42112  1  0  0  0
 42113  1  0  0  0
 43 44  1  0  0  0
 44114  1  0  0  0
 45 46  2  0  0  0
 45115  1  0  0  0
 46116  1  0  0  0
 47117  1  0  0  0
 47118  1  0  0  0
 48 56  1  0  0  0
 48 65  1  0  0  0
 48119  1  0  0  0
 49 50  1  0  0  0
 49 53  1  0  0  0
 49 64  1  0  0  0
 49120  1  0  0  0
 50 51  1  0  0  0
 50121  1  0  0  0
 50122  1  0  0  0
 51 52  1  0  0  0
 51123  1  0  0  0
 51124  1  0  0  0
 52125  1  0  0  0
 52126  1  0  0  0
 53 54  1  0  0  0
 54 55  2  0  0  0
 54127  1  0  0  0
 55 57  1  0  0  0
 55128  1  0  0  0
 56 69  2  0  0  0
 57 58  2  0  0  0
 57129  1  0  0  0
 58130  1  0  0  0
 59 60  1  0  0  0
 59 61  1  0  0  0
 59 62  1  0  0  0
 60131  1  0  0  0
 60132  1  0  0  0
 60133  1  0  0  0
 61134  1  0  0  0
 61135  1  0  0  0
 61136  1  0  0  0
 62137  1  0  0  0
 62138  1  0  0  0
 62139  1  0  0  0
 63 65  1  0  0  0
 63140  1  0  0  0
 63141  1  0  0  0
 63142  1  0  0  0
 64143  1  0  0  0
 65144  1  0  0  0
 68 82  1  0  0  0
 71 72  2  0  0  0
 71 73  1  0  0  0
 71145  1  0  0  0
 72 75  1  0  0  0
 72146  1  0  0  0
 73 76  2  0  0  0
 73147  1  0  0  0
 74 75  2  0  0  0
 74 76  1  0  0  0
 74148  1  0  0  0
 75 81  1  0  0  0
 76 84  1  0  0  0
 77 82  1  0  0  0
 77 83  1  0  0  0
 77 85  2  0  0  0
 78 79  1  0  0  0
 78 80  1  0  0  0
 78149  1  0  0  0
 78150  1  0  0  0
 79 81  1  0  0  0
 79151  1  0  0  0
 79152  1  0  0  0
 80 83  1  0  0  0
 80153  1  0  0  0
 80154  1  0  0  0
 81 83  1  0  0  0
 81155  1  0  0  0
 82156  1  0  0  0
 82157  1  0  0  0
 84158  1  0  0  0
M  ISO  4   1 100  68 101  82 101  84 100
M  END
> <chiral flag>
0

> <version>
0

> <s_m_source_file>
/data/baiqing/PycharmProjects/Reinvent-master-3.2/result/LINK_invent/BTK/process_docking_weight1_custom_product_contain_oxygen_bond_distance_aromatic_linkinvent_7_9_3/rearranged_h_0154.sdf

> <i_m_source_file_index>
7

> <r_mmod_Potential_Energy-OPLS-2005>
370.678161621094

> <r_mmod_Stretch_Energy-OPLS-2005>
137.997467041016

> <r_mmod_Bend_Energy-OPLS-2005>
205.612503051758

> <r_mmod_Torsional_Energy-OPLS-2005>
337.611785888672

> <r_mmod_Improper_Torsional_Energy-OPLS-2005>
9.3871898651123

> <r_mmod_Van_der_Waal_Energy-OPLS-2005>
145.643508911133

> <r_mmod_Electrostatic_Energy-OPLS-2005>
-327.781066894531

> <r_mmod_Solvation_Energy-OPLS-2005>
-233.940887451172

> <b_mmod_Minimization_Converged-OPLS-2005>
0

> <r_mmod_RMS_Derivative-OPLS-2005>
4.43612098693848

$$$$
7
                    3D
 Structure written by MMmdl.
154163  0  0  1  0            999 V2000
  -30.5917  -14.7515   20.3622 C   0  0  0  0  0  0
  -30.4434  -12.4288   19.4704 C   0  0  0  0  0  0
  -29.5114  -12.4265   18.2358 C   0  0  0  0  0  0
  -28.0293  -12.3076   18.6498 C   0  0  0  0  0  0
  -27.6387  -13.2142   19.8502 C   0  0  2  0  0  0
  -28.6967  -13.1733   20.9736 C   0  0  0  0  0  0
  -25.2531  -13.8140   20.5729 C   0  0  0  0  0  0
  -24.1791  -13.0412   20.9200 C   0  0  0  0  0  0
  -24.6367  -11.6887   20.8764 C   0  0  0  0  0  0
  -23.9044  -10.4279   21.0421 C   0  0  0  0  0  0
  -24.3607   -9.4196   21.9195 C   0  0  0  0  0  0
  -23.6287   -8.2230   22.0759 C   0  0  0  0  0  0
  -22.4272   -8.0269   21.3543 C   0  0  0  0  0  0
  -21.9904   -9.0240   20.4647 C   0  0  0  0  0  0
  -22.7227  -10.2119   20.3062 C   0  0  0  0  0  0
  -21.6849   -6.0738   22.5278 C   0  0  0  0  0  0
  -21.4013   -6.5641   23.8212 C   0  0  0  0  0  0
  -21.3659   -5.6793   24.9171 C   0  0  0  0  0  0
  -21.6044   -4.3056   24.7218 C   0  0  0  0  0  0
  -21.8825   -3.8149   23.4338 C   0  0  0  0  0  0
  -21.9190   -4.6966   22.3399 C   0  0  0  0  0  0
  -22.7817  -13.5209   21.1845 C   0  0  0  0  0  0
  -22.1654   -4.2159   21.0971 F   0  0  0  0  0  0
  -21.5632   -3.4537   25.7728 F   0  0  0  0  0  0
  -29.9929  -13.5108   20.3700 N   0  0  0  0  0  0
  -26.2939  -12.9305   20.3361 N   0  0  0  0  0  0
  -25.9297  -11.6474   20.5817 N   0  0  0  0  0  0
  -22.0454  -12.8217   22.0411 N   0  0  0  0  0  0
  -25.4252  -15.1870   20.4186 N   0  0  0  0  0  0
  -31.8151  -14.8465   20.2246 O   0  0  0  0  0  0
  -21.6632   -6.8870   21.4238 O   0  0  0  0  0  0
  -22.3523  -14.5523   20.6690 O   0  0  0  0  0  0
  -24.6299  -31.8576   23.2011 C   0  0  0  0  0  0
  -25.9130  -32.4771   23.8347 C   0  0  1  0  0  0
  -27.2197  -27.2794   20.1176 C   0  0  0  0  0  0
  -25.5929  -33.8572   24.2274 N   0  0  0  0  0  0
  -23.4254  -30.4830   21.5444 C   0  0  2  0  0  0
  -24.8724  -28.9387   20.1079 C   0  0  0  0  0  0
  -22.7491  -29.4616   22.4909 C   0  0  0  0  0  0
  -18.0291  -28.1384   22.8488 C   0  0  0  0  0  0
  -24.1487  -36.7291   23.2639 C   0  0  0  0  0  0
  -25.9714  -30.7759   21.3800 C   0  0  0  0  0  0
  -26.0439  -29.4004   20.7209 C   0  0  0  0  0  0
  -27.2185  -28.5818   20.7201 C   0  0  0  0  0  0
  -26.0251  -26.8943   19.4614 C   0  0  0  0  0  0
  -24.8675  -27.6925   19.4686 C   0  0  0  0  0  0
  -23.6427  -29.8235   20.1584 C   0  0  0  0  0  0
  -25.4113  -36.3081   24.0330 C   0  0  1  0  0  0
  -20.5892  -28.3694   23.1271 C   0  0  2  0  0  0
  -20.6770  -26.9410   22.5406 C   0  0  0  0  0  0
  -19.5746  -26.6380   21.5210 C   0  0  0  0  0  0
  -18.1930  -26.7927   22.1625 C   0  0  0  0  0  0
  -19.1541  -28.8855   23.2880 C   0  0  0  0  0  0
  -18.9465  -30.1454   23.8900 C   0  0  0  0  0  0
  -17.6464  -30.6588   24.0562 C   0  0  0  0  0  0
  -25.9054  -34.9448   23.5103 C   0  0  0  0  0  0
  -16.5355  -29.9086   23.6329 C   0  0  0  0  0  0
  -16.7278  -28.6503   23.0354 C   0  0  0  0  0  0
  -26.4498  -31.6584   25.0726 C   0  0  0  0  0  0
  -25.3722  -31.3724   26.1445 C   0  0  0  0  0  0
  -27.0345  -30.3003   24.6195 C   0  0  0  0  0  0
  -27.6050  -32.4319   25.7508 C   0  0  0  0  0  0
  -27.5579  -37.1805   24.8467 C   0  0  0  0  0  0
  -21.4197  -29.3049   22.3662 N   0  0  0  0  0  0
  -26.4291  -37.3776   23.9409 N   0  0  0  0  0  0
  -24.6946  -31.0554   22.0986 N   0  0  0  0  0  0
  -23.4203  -28.8138   23.2983 O   0  0  0  0  0  0
  -28.3084  -26.3785   20.1919 O   0  0  0  0  0  0
  -26.5626  -34.8920   22.4673 O   0  0  0  0  0  0
  -23.5447  -32.1390   23.7315 O   0  0  0  0  0  0
  -29.7510  -18.5236   20.6652 C   0  0  0  0  0  0
  -29.3949  -19.6823   18.4803 C   0  0  0  0  0  0
  -29.6054  -17.3151   18.5169 C   0  0  0  0  0  0
  -29.7964  -17.2787   19.9344 C   0  0  0  0  0  0
  -29.5391  -19.7709   19.9102 C   0  0  0  0  0  0
  -29.4126  -18.4625   17.7530 C   0  0  0  0  0  0
  -28.9849  -23.7833   20.4167 C   0  0  0  0  0  0
  -29.6030  -15.8275   18.4187 C   0  0  0  0  0  0
  -28.8521  -22.3065   19.8180 C   0  0  0  0  0  0
  -28.0432  -24.9407   19.8500 C   0  0  0  0  0  0
  -29.7695  -15.7847   19.9238 N   0  0  0  0  0  0
  -29.2204  -18.4079   16.3716 N   0  0  0  0  0  0
  -29.4525  -21.0901   20.5123 N   0  0  0  0  0  0
  -29.8005  -24.0108   21.3163 O   0  0  0  0  0  0
  -31.4810  -12.5624   19.1577 H   0  0  0  0  0  0
  -30.4018  -11.4679   19.9867 H   0  0  0  0  0  0
  -29.7731  -11.5941   17.5819 H   0  0  0  0  0  0
  -29.6650  -13.3177   17.6330 H   0  0  0  0  0  0
  -27.8575  -11.2631   18.9123 H   0  0  0  0  0  0
  -27.3820  -12.5102   17.7957 H   0  0  0  0  0  0
  -27.6045  -14.2290   19.4692 H   0  0  0  0  0  0
  -28.7336  -12.1881   21.4407 H   0  0  0  0  0  0
  -28.4455  -13.8855   21.7610 H   0  0  0  0  0  0
  -25.2751   -9.5676   22.4772 H   0  0  0  0  0  0
  -24.0001   -7.4621   22.7478 H   0  0  0  0  0  0
  -21.0838   -8.8752   19.8950 H   0  0  0  0  0  0
  -22.3686  -10.9660   19.6172 H   0  0  0  0  0  0
  -21.2009   -7.6152   23.9719 H   0  0  0  0  0  0
  -21.1474   -6.0521   25.9075 H   0  0  0  0  0  0
  -22.0608   -2.7614   23.2831 H   0  0  0  0  0  0
  -22.4061  -11.9870   22.4795 H   0  0  0  0  0  0
  -21.1072  -13.1244   22.2607 H   0  0  0  0  0  0
  -24.6635  -15.8447   20.5431 H   0  0  0  0  0  0
  -26.2930  -15.6323   20.1474 H   0  0  0  0  0  0
  -26.7197  -32.5429   23.1095 H   0  0  0  0  0  0
  -25.0070  -33.9712   25.0414 H   0  0  0  0  0  0
  -22.7221  -31.3062   21.4014 H   0  0  0  0  0  0
  -23.3752  -35.9620   23.3302 H   0  0  0  0  0  0
  -24.3578  -36.8913   22.2054 H   0  0  0  0  0  0
  -23.7236  -37.6490   23.6663 H   0  0  0  0  0  0
  -26.1071  -31.5376   20.6109 H   0  0  0  0  0  0
  -26.8505  -30.8251   22.0107 H   0  0  0  0  0  0
  -28.1114  -28.9274   21.2215 H   0  0  0  0  0  0
  -25.9439  -25.9528   18.9398 H   0  0  0  0  0  0
  -23.9730  -27.3383   18.9750 H   0  0  0  0  0  0
  -23.7676  -30.6040   19.4067 H   0  0  0  0  0  0
  -22.7611  -29.2587   19.8497 H   0  0  0  0  0  0
  -25.1294  -36.1933   25.0821 H   0  0  0  0  0  0
  -20.9995  -28.3265   24.1388 H   0  0  0  0  0  0
  -20.5658  -26.2303   23.3609 H   0  0  0  0  0  0
  -21.6641  -26.7419   22.1209 H   0  0  0  0  0  0
  -19.6905  -25.6290   21.1244 H   0  0  0  0  0  0
  -19.6688  -27.3187   20.6739 H   0  0  0  0  0  0
  -17.4194  -26.6678   21.4033 H   0  0  0  0  0  0
  -18.0336  -26.0070   22.9023 H   0  0  0  0  0  0
  -19.7936  -30.7269   24.2273 H   0  0  0  0  0  0
  -17.5016  -31.6269   24.5158 H   0  0  0  0  0  0
  -15.5356  -30.2991   23.7644 H   0  0  0  0  0  0
  -15.8678  -28.0821   22.7071 H   0  0  0  0  0  0
  -24.5915  -30.7053   25.7771 H   0  0  0  0  0  0
  -24.8896  -32.2887   26.4847 H   0  0  0  0  0  0
  -25.8042  -30.8921   27.0233 H   0  0  0  0  0  0
  -26.2925  -29.6755   24.1210 H   0  0  0  0  0  0
  -27.4022  -29.7255   25.4704 H   0  0  0  0  0  0
  -27.8802  -30.4282   23.9439 H   0  0  0  0  0  0
  -27.2659  -33.3629   26.2062 H   0  0  0  0  0  0
  -28.3882  -32.6857   25.0354 H   0  0  0  0  0  0
  -28.0692  -31.8455   26.5447 H   0  0  0  0  0  0
  -28.2592  -38.0105   24.7511 H   0  0  0  0  0  0
  -28.1079  -36.2636   24.6296 H   0  0  0  0  0  0
  -27.2297  -37.1460   25.8869 H   0  0  0  0  0  0
  -20.9362  -29.8815   21.6916 H   0  0  0  0  0  0
  -26.0172  -38.2849   24.1408 H   0  0  0  0  0  0
  -29.8195  -18.5295   21.7439 H   0  0  0  0  0  0
  -29.2437  -20.5756   17.8959 H   0  0  0  0  0  0
  -28.6568  -15.4568   18.0275 H   0  0  0  0  0  0
  -30.4552  -15.4734   17.8360 H   0  0  0  0  0  0
  -29.2802  -22.3889   18.8198 H   0  0  0  0  0  0
  -27.7884  -22.1161   19.6697 H   0  0  0  0  0  0
  -27.0545  -24.6753   20.2238 H   0  0  0  0  0  0
  -28.0034  -24.8433   18.7650 H   0  0  0  0  0  0
  -29.3305  -19.2518   15.8169 H   0  0  0  0  0  0
  -29.4633  -17.5620   15.8643 H   0  0  0  0  0  0
  -29.5267  -21.1649   21.5248 H   0  0  0  0  0  0
  1 25  1  0  0  0
  1 30  2  0  0  0
  1 81  1  0  0  0
  2  3  1  0  0  0
  2 25  1  0  0  0
  2 85  1  0  0  0
  2 86  1  0  0  0
  3  4  1  0  0  0
  3 87  1  0  0  0
  3 88  1  0  0  0
  4  5  1  0  0  0
  4 89  1  0  0  0
  4 90  1  0  0  0
  5  6  1  0  0  0
  5 26  1  0  0  0
  5 91  1  0  0  0
  6 25  1  0  0  0
  6 92  1  0  0  0
  6 93  1  0  0  0
  7  8  2  0  0  0
  7 26  1  0  0  0
  7 29  1  0  0  0
  8  9  1  0  0  0
  8 22  1  0  0  0
  9 10  1  0  0  0
  9 27  2  0  0  0
 10 11  2  0  0  0
 10 15  1  0  0  0
 11 12  1  0  0  0
 11 94  1  0  0  0
 12 13  2  0  0  0
 12 95  1  0  0  0
 13 14  1  0  0  0
 13 31  1  0  0  0
 14 15  2  0  0  0
 14 96  1  0  0  0
 15 97  1  0  0  0
 16 17  2  0  0  0
 16 21  1  0  0  0
 16 31  1  0  0  0
 17 18  1  0  0  0
 17 98  1  0  0  0
 18 19  2  0  0  0
 18 99  1  0  0  0
 19 20  1  0  0  0
 19 24  1  0  0  0
 20 21  2  0  0  0
 20100  1  0  0  0
 21 23  1  0  0  0
 22 28  1  0  0  0
 22 32  2  0  0  0
 26 27  1  0  0  0
 28101  1  0  0  0
 28102  1  0  0  0
 29103  1  0  0  0
 29104  1  0  0  0
 33 34  1  0  0  0
 33 66  1  0  0  0
 33 70  2  0  0  0
 34 36  1  0  0  0
 34 59  1  0  0  0
 34105  1  0  0  0
 35 44  2  0  0  0
 35 45  1  0  0  0
 35 68  1  0  0  0
 36 56  1  0  0  0
 36106  1  0  0  0
 37 39  1  0  0  0
 37 47  1  0  0  0
 37 66  1  0  0  0
 37107  1  0  0  0
 38 43  2  0  0  0
 38 46  1  0  0  0
 38 47  1  0  0  0
 39 64  1  0  0  0
 39 67  2  0  0  0
 40 52  1  0  0  0
 40 53  2  0  0  0
 40 58  1  0  0  0
 41108  1  0  0  0
 41109  1  0  0  0
 41110  1  0  0  0
 41 48  1  0  0  0
 42 43  1  0  0  0
 42 66  1  0  0  0
 42111  1  0  0  0
 42112  1  0  0  0
 43 44  1  0  0  0
 44113  1  0  0  0
 45 46  2  0  0  0
 45114  1  0  0  0
 46115  1  0  0  0
 47116  1  0  0  0
 47117  1  0  0  0
 48 56  1  0  0  0
 48 65  1  0  0  0
 48118  1  0  0  0
 49 50  1  0  0  0
 49 53  1  0  0  0
 49 64  1  0  0  0
 49119  1  0  0  0
 50 51  1  0  0  0
 50120  1  0  0  0
 50121  1  0  0  0
 51 52  1  0  0  0
 51122  1  0  0  0
 51123  1  0  0  0
 52124  1  0  0  0
 52125  1  0  0  0
 53 54  1  0  0  0
 54 55  2  0  0  0
 54126  1  0  0  0
 55 57  1  0  0  0
 55127  1  0  0  0
 56 69  2  0  0  0
 57 58  2  0  0  0
 57128  1  0  0  0
 58129  1  0  0  0
 59 60  1  0  0  0
 59 61  1  0  0  0
 59 62  1  0  0  0
 60130  1  0  0  0
 60131  1  0  0  0
 60132  1  0  0  0
 61133  1  0  0  0
 61134  1  0  0  0
 61135  1  0  0  0
 62136  1  0  0  0
 62137  1  0  0  0
 62138  1  0  0  0
 63 65  1  0  0  0
 63139  1  0  0  0
 63140  1  0  0  0
 63141  1  0  0  0
 64142  1  0  0  0
 65143  1  0  0  0
 68 80  1  0  0  0
 71 74  2  0  0  0
 71 75  1  0  0  0
 71144  1  0  0  0
 72 75  2  0  0  0
 72 76  1  0  0  0
 72145  1  0  0  0
 73 74  1  0  0  0
 73 76  2  0  0  0
 73 78  1  0  0  0
 74 81  1  0  0  0
 75 83  1  0  0  0
 76 82  1  0  0  0
 77 79  1  0  0  0
 77 80  1  0  0  0
 77 84  2  0  0  0
 78 81  1  0  0  0
 78146  1  0  0  0
 78147  1  0  0  0
 79 83  1  0  0  0
 79148  1  0  0  0
 79149  1  0  0  0
 80150  1  0  0  0
 80151  1  0  0  0
 82152  1  0  0  0
 82153  1  0  0  0
 83154  1  0  0  0
M  ISO  4   1 100  68 101  80 101  81 100
M  END
> <chiral flag>
0

> <version>
0

> <s_m_source_file>
/data/baiqing/PycharmProjects/Reinvent-master-3.2/result/LINK_invent/BTK/process_docking_weight1_custom_product_contain_oxygen_bond_distance_aromatic_linkinvent_7_9_3/rearranged_h_0154.sdf

> <i_m_source_file_index>
8

> <r_mmod_Potential_Energy-OPLS-2005>
801.583190917969

> <r_mmod_Stretch_Energy-OPLS-2005>
135.81298828125

> <r_mmod_Bend_Energy-OPLS-2005>
587.672973632812

> <r_mmod_Torsional_Energy-OPLS-2005>
283.612426757812

> <r_mmod_Improper_Torsional_Energy-OPLS-2005>
32.2888793945312

> <r_mmod_Van_der_Waal_Energy-OPLS-2005>
141.069519042969

> <r_mmod_Electrostatic_Energy-OPLS-2005>
-219.152420043945

> <r_mmod_Solvation_Energy-OPLS-2005>
-251.588607788086

> <b_mmod_Minimization_Converged-OPLS-2005>
0

> <r_mmod_RMS_Derivative-OPLS-2005>
1.09960126876831

$$$$
8
                    3D
 Structure written by MMmdl.
163172  0  0  1  0            999 V2000
  -30.6097  -14.7319   20.4403 C   0  0  0  0  0  0
  -30.4318  -12.4401   19.4799 C   0  0  0  0  0  0
  -29.5090  -12.4986   18.2424 C   0  0  0  0  0  0
  -28.0341  -12.3324   18.6539 C   0  0  0  0  0  0
  -27.6444  -13.2293   19.8581 C   0  0  2  0  0  0
  -28.6889  -13.1561   20.9945 C   0  0  0  0  0  0
  -25.2512  -13.8202   20.5703 C   0  0  0  0  0  0
  -24.1796  -13.0454   20.9205 C   0  0  0  0  0  0
  -24.6381  -11.6924   20.8753 C   0  0  0  0  0  0
  -23.9060  -10.4304   21.0411 C   0  0  0  0  0  0
  -24.3611   -9.4218   21.9185 C   0  0  0  0  0  0
  -23.6293   -8.2246   22.0751 C   0  0  0  0  0  0
  -22.4274   -8.0277   21.3538 C   0  0  0  0  0  0
  -21.9914   -9.0250   20.4642 C   0  0  0  0  0  0
  -22.7234  -10.2136   20.3058 C   0  0  0  0  0  0
  -21.6860   -6.0729   22.5273 C   0  0  0  0  0  0
  -21.4014   -6.5634   23.8207 C   0  0  0  0  0  0
  -21.3658   -5.6790   24.9170 C   0  0  0  0  0  0
  -21.6042   -4.3055   24.7223 C   0  0  0  0  0  0
  -21.8821   -3.8145   23.4348 C   0  0  0  0  0  0
  -21.9197   -4.6957   22.3404 C   0  0  0  0  0  0
  -22.7816  -13.5223   21.1865 C   0  0  0  0  0  0
  -22.1666   -4.2146   21.0986 F   0  0  0  0  0  0
  -21.5632   -3.4539   25.7742 F   0  0  0  0  0  0
  -29.9930  -13.5021   20.4158 N   0  0  0  0  0  0
  -26.2949  -12.9404   20.3319 N   0  0  0  0  0  0
  -25.9315  -11.6547   20.5779 N   0  0  0  0  0  0
  -22.0476  -12.8201   22.0423 N   0  0  0  0  0  0
  -25.4214  -15.1926   20.4105 N   0  0  0  0  0  0
  -31.7942  -14.8233   20.1034 O   0  0  0  0  0  0
  -21.6640   -6.8867   21.4231 O   0  0  0  0  0  0
  -22.3507  -14.5547   20.6749 O   0  0  0  0  0  0
  -24.6293  -31.8522   23.1951 C   0  0  0  0  0  0
  -25.9121  -32.4741   23.8300 C   0  0  1  0  0  0
  -27.2174  -27.2799   20.1287 C   0  0  0  0  0  0
  -25.5908  -33.8540   24.2239 N   0  0  0  0  0  0
  -23.4261  -30.4732   21.5365 C   0  0  2  0  0  0
  -24.8756  -28.9262   20.0961 C   0  0  0  0  0  0
  -22.7500  -29.4565   22.4876 C   0  0  0  0  0  0
  -18.0290  -28.1379   22.8461 C   0  0  0  0  0  0
  -24.1494  -36.7277   23.2647 C   0  0  0  0  0  0
  -25.9688  -30.7767   21.3652 C   0  0  0  0  0  0
  -26.0449  -29.4064   20.6970 C   0  0  0  0  0  0
  -27.2241  -28.5987   20.6919 C   0  0  0  0  0  0
  -26.0329  -26.8573   19.4938 C   0  0  0  0  0  0
  -24.8762  -27.6630   19.4770 C   0  0  0  0  0  0
  -23.6415  -29.8060   20.1528 C   0  0  0  0  0  0
  -25.4114  -36.3062   24.0342 C   0  0  1  0  0  0
  -20.5887  -28.3685   23.1263 C   0  0  2  0  0  0
  -20.6768  -26.9392   22.5401 C   0  0  0  0  0  0
  -19.5761  -26.6359   21.5200 C   0  0  0  0  0  0
  -18.1928  -26.7903   22.1609 C   0  0  0  0  0  0
  -19.1538  -28.8851   23.2853 C   0  0  0  0  0  0
  -18.9469  -30.1441   23.8887 C   0  0  0  0  0  0
  -17.6477  -30.6572   24.0549 C   0  0  0  0  0  0
  -25.9060  -34.9436   23.5101 C   0  0  0  0  0  0
  -16.5364  -29.9078   23.6331 C   0  0  0  0  0  0
  -16.7276  -28.6497   23.0354 C   0  0  0  0  0  0
  -26.4488  -31.6578   25.0701 C   0  0  0  0  0  0
  -25.3704  -31.3718   26.1439 C   0  0  0  0  0  0
  -27.0363  -30.3013   24.6144 C   0  0  0  0  0  0
  -27.6040  -32.4332   25.7473 C   0  0  0  0  0  0
  -27.5584  -37.1782   24.8473 C   0  0  0  0  0  0
  -21.4206  -29.3035   22.3659 N   0  0  0  0  0  0
  -26.4294  -37.3756   23.9422 N   0  0  0  0  0  0
  -24.6932  -31.0508   22.0896 N   0  0  0  0  0  0
  -23.4209  -28.8103   23.2966 O   0  0  0  0  0  0
  -28.2806  -26.3573   20.3062 O   0  0  0  0  0  0
  -26.5633  -34.8912   22.4677 O   0  0  0  0  0  0
  -23.5453  -32.1344   23.7248 O   0  0  0  0  0  0
  -29.4238  -18.4528   20.7719 C   0  0  0  0  0  0
  -30.4335  -19.9283   19.1172 C   0  0  0  0  0  0
  -30.7968  -17.4960   19.0167 C   0  0  0  0  0  0
  -29.6290  -19.8121   20.2697 C   0  0  0  0  0  0
  -30.0267  -17.2650   20.1823 C   0  0  0  0  0  0
  -30.9900  -18.7933   18.4957 C   0  0  0  0  0  0
  -29.1890  -21.0855   21.0062 C   0  0  0  0  0  0
  -28.9674  -24.5775   19.5283 C   0  0  0  0  0  0
  -29.0454  -23.0352   19.2531 C   0  0  0  0  0  0
  -28.7674  -23.6254   21.4534 C   0  0  2  0  0  0
  -27.9972  -24.9126   20.7379 C   0  0  2  0  0  0
  -30.1115  -23.9404   22.1906 C   0  0  0  0  0  0
  -27.9506  -25.6353   22.1671 C   0  0  0  0  0  0
  -28.9775  -22.4148   20.5749 N   0  0  0  0  0  0
  -29.8450  -15.8688   20.6776 N   0  0  0  0  0  0
  -29.0563  -20.9001   22.3181 N   0  3  0  0  0  0
  -31.9524  -19.0004   17.0763 Cl  0  0  0  0  0  0
  -31.4727  -12.5585   19.1747 H   0  0  0  0  0  0
  -30.3736  -11.4623   19.9603 H   0  0  0  0  0  0
  -29.7860  -11.7230   17.5270 H   0  0  0  0  0  0
  -29.6404  -13.4511   17.7268 H   0  0  0  0  0  0
  -27.8799  -11.2846   18.9101 H   0  0  0  0  0  0
  -27.3797  -12.5345   17.8044 H   0  0  0  0  0  0
  -27.6436  -14.2522   19.4830 H   0  0  0  0  0  0
  -28.7165  -12.1571   21.4323 H   0  0  0  0  0  0
  -28.4276  -13.8371   21.8053 H   0  0  0  0  0  0
  -25.2748   -9.5704   22.4759 H   0  0  0  0  0  0
  -24.0010   -7.4638   22.7472 H   0  0  0  0  0  0
  -21.0848   -8.8756   19.8945 H   0  0  0  0  0  0
  -22.3677  -10.9669   19.6173 H   0  0  0  0  0  0
  -21.1993   -7.6141   23.9707 H   0  0  0  0  0  0
  -21.1484   -6.0522   25.9070 H   0  0  0  0  0  0
  -22.0601   -2.7608   23.2855 H   0  0  0  0  0  0
  -22.4116  -11.9850   22.4775 H   0  0  0  0  0  0
  -21.1100  -13.1209   22.2663 H   0  0  0  0  0  0
  -24.6525  -15.8445   20.5143 H   0  0  0  0  0  0
  -26.2614  -15.6275   20.0512 H   0  0  0  0  0  0
  -26.7181  -32.5398   23.1036 H   0  0  0  0  0  0
  -25.0074  -33.9667   25.0402 H   0  0  0  0  0  0
  -22.7217  -31.2934   21.3860 H   0  0  0  0  0  0
  -23.3773  -35.9601   23.3317 H   0  0  0  0  0  0
  -24.3579  -36.8904   22.2060 H   0  0  0  0  0  0
  -23.7240  -37.6475   23.6674 H   0  0  0  0  0  0
  -26.1079  -31.5422   20.5997 H   0  0  0  0  0  0
  -26.8448  -30.8213   22.0006 H   0  0  0  0  0  0
  -28.1176  -28.9457   21.1920 H   0  0  0  0  0  0
  -25.9873  -25.8755   19.0434 H   0  0  0  0  0  0
  -23.9803  -27.2921   18.9998 H   0  0  0  0  0  0
  -23.7540  -30.5802   19.3938 H   0  0  0  0  0  0
  -22.7589  -29.2359   19.8569 H   0  0  0  0  0  0
  -25.1285  -36.1907   25.0831 H   0  0  0  0  0  0
  -20.9974  -28.3257   24.1391 H   0  0  0  0  0  0
  -20.5675  -26.2275   23.3603 H   0  0  0  0  0  0
  -21.6627  -26.7401   22.1200 H   0  0  0  0  0  0
  -19.6941  -25.6277   21.1235 H   0  0  0  0  0  0
  -19.6717  -27.3155   20.6727 H   0  0  0  0  0  0
  -17.4190  -26.6658   21.4006 H   0  0  0  0  0  0
  -18.0325  -26.0044   22.9007 H   0  0  0  0  0  0
  -19.7962  -30.7229   24.2249 H   0  0  0  0  0  0
  -17.5052  -31.6253   24.5148 H   0  0  0  0  0  0
  -15.5376  -30.2992   23.7654 H   0  0  0  0  0  0
  -15.8673  -28.0815   22.7093 H   0  0  0  0  0  0
  -24.5886  -30.7057   25.7780 H   0  0  0  0  0  0
  -24.8874  -32.2881   26.4836 H   0  0  0  0  0  0
  -25.8010  -30.8927   27.0240 H   0  0  0  0  0  0
  -26.2950  -29.6746   24.1175 H   0  0  0  0  0  0
  -27.4135  -29.7274   25.4620 H   0  0  0  0  0  0
  -27.8770  -30.4377   23.9343 H   0  0  0  0  0  0
  -27.2658  -33.3665   26.1982 H   0  0  0  0  0  0
  -28.3862  -32.6839   25.0301 H   0  0  0  0  0  0
  -28.0689  -31.8504   26.5435 H   0  0  0  0  0  0
  -28.2573  -38.0095   24.7510 H   0  0  0  0  0  0
  -28.1094  -36.2621   24.6301 H   0  0  0  0  0  0
  -27.2297  -37.1428   25.8872 H   0  0  0  0  0  0
  -20.9376  -29.8794   21.6906 H   0  0  0  0  0  0
  -26.0195  -38.2846   24.1400 H   0  0  0  0  0  0
  -28.8210  -18.3187   21.6594 H   0  0  0  0  0  0
  -30.6751  -20.8918   18.7055 H   0  0  0  0  0  0
  -31.2549  -16.6762   18.4866 H   0  0  0  0  0  0
  -28.6064  -25.0173   18.5945 H   0  0  0  0  0  0
  -29.9784  -24.9705   19.6619 H   0  0  0  0  0  0
  -29.9682  -22.8125   18.7219 H   0  0  0  0  0  0
  -28.2018  -22.7048   18.6447 H   0  0  0  0  0  0
  -28.0666  -23.2137   22.1842 H   0  0  0  0  0  0
  -30.5844  -24.8535   21.8306 H   0  0  0  0  0  0
  -30.8515  -23.1480   22.0783 H   0  0  0  0  0  0
  -29.9504  -24.0594   23.2629 H   0  0  0  0  0  0
  -27.8005  -24.9914   23.0349 H   0  0  0  0  0  0
  -27.0570  -26.2464   22.3004 H   0  0  0  0  0  0
  -28.8165  -26.2544   22.4171 H   0  0  0  0  0  0
  -28.9677  -15.6857   21.1419 H   0  0  0  0  0  0
  -29.3007  -20.0043   22.7088 H   0  0  0  0  0  0
  -28.8187  -21.6455   22.9472 H   0  0  0  0  0  0
  1 25  1  0  0  0
  1 30  2  0  0  0
  1 85  1  0  0  0
  2  3  1  0  0  0
  2 25  1  0  0  0
  2 88  1  0  0  0
  2 89  1  0  0  0
  3  4  1  0  0  0
  3 90  1  0  0  0
  3 91  1  0  0  0
  4  5  1  0  0  0
  4 92  1  0  0  0
  4 93  1  0  0  0
  5  6  1  0  0  0
  5 26  1  0  0  0
  5 94  1  0  0  0
  6 25  1  0  0  0
  6 95  1  0  0  0
  6 96  1  0  0  0
  7  8  2  0  0  0
  7 26  1  0  0  0
  7 29  1  0  0  0
  8  9  1  0  0  0
  8 22  1  0  0  0
  9 10  1  0  0  0
  9 27  2  0  0  0
 10 11  2  0  0  0
 10 15  1  0  0  0
 11 12  1  0  0  0
 11 97  1  0  0  0
 12 13  2  0  0  0
 12 98  1  0  0  0
 13 14  1  0  0  0
 13 31  1  0  0  0
 14 15  2  0  0  0
 14 99  1  0  0  0
 15100  1  0  0  0
 16 17  2  0  0  0
 16 21  1  0  0  0
 16 31  1  0  0  0
 17 18  1  0  0  0
 17101  1  0  0  0
 18 19  2  0  0  0
 18102  1  0  0  0
 19 20  1  0  0  0
 19 24  1  0  0  0
 20 21  2  0  0  0
 20103  1  0  0  0
 21 23  1  0  0  0
 22 28  1  0  0  0
 22 32  2  0  0  0
 26 27  1  0  0  0
 28104  1  0  0  0
 28105  1  0  0  0
 29106  1  0  0  0
 29107  1  0  0  0
 33 34  1  0  0  0
 33 66  1  0  0  0
 33 70  2  0  0  0
 34 36  1  0  0  0
 34 59  1  0  0  0
 34108  1  0  0  0
 35 44  2  0  0  0
 35 45  1  0  0  0
 35 68  1  0  0  0
 36 56  1  0  0  0
 36109  1  0  0  0
 37 39  1  0  0  0
 37 47  1  0  0  0
 37 66  1  0  0  0
 37110  1  0  0  0
 38 43  2  0  0  0
 38 46  1  0  0  0
 38 47  1  0  0  0
 39 64  1  0  0  0
 39 67  2  0  0  0
 40 52  1  0  0  0
 40 53  2  0  0  0
 40 58  1  0  0  0
 41111  1  0  0  0
 41112  1  0  0  0
 41113  1  0  0  0
 41 48  1  0  0  0
 42 43  1  0  0  0
 42 66  1  0  0  0
 42114  1  0  0  0
 42115  1  0  0  0
 43 44  1  0  0  0
 44116  1  0  0  0
 45 46  2  0  0  0
 45117  1  0  0  0
 46118  1  0  0  0
 47119  1  0  0  0
 47120  1  0  0  0
 48 56  1  0  0  0
 48 65  1  0  0  0
 48121  1  0  0  0
 49 50  1  0  0  0
 49 53  1  0  0  0
 49 64  1  0  0  0
 49122  1  0  0  0
 50 51  1  0  0  0
 50123  1  0  0  0
 50124  1  0  0  0
 51 52  1  0  0  0
 51125  1  0  0  0
 51126  1  0  0  0
 52127  1  0  0  0
 52128  1  0  0  0
 53 54  1  0  0  0
 54 55  2  0  0  0
 54129  1  0  0  0
 55 57  1  0  0  0
 55130  1  0  0  0
 56 69  2  0  0  0
 57 58  2  0  0  0
 57131  1  0  0  0
 58132  1  0  0  0
 59 60  1  0  0  0
 59 61  1  0  0  0
 59 62  1  0  0  0
 60133  1  0  0  0
 60134  1  0  0  0
 60135  1  0  0  0
 61136  1  0  0  0
 61137  1  0  0  0
 61138  1  0  0  0
 62139  1  0  0  0
 62140  1  0  0  0
 62141  1  0  0  0
 63 65  1  0  0  0
 63142  1  0  0  0
 63143  1  0  0  0
 63144  1  0  0  0
 64145  1  0  0  0
 65146  1  0  0  0
 68 81  1  0  0  0
 71 74  2  0  0  0
 71 75  1  0  0  0
 71147  1  0  0  0
 72 74  1  0  0  0
 72 76  2  0  0  0
 72148  1  0  0  0
 73 75  2  0  0  0
 73 76  1  0  0  0
 73149  1  0  0  0
 74 77  1  0  0  0
 75 85  1  0  0  0
 76 87  1  0  0  0
 77 84  1  0  0  0
 77 86  2  0  0  0
 78 79  1  0  0  0
 78 81  1  0  0  0
 78150  1  0  0  0
 78151  1  0  0  0
 79 84  1  0  0  0
 79152  1  0  0  0
 79153  1  0  0  0
 80 81  1  0  0  0
 80 82  1  0  0  0
 80 84  1  0  0  0
 80154  1  0  0  0
 81 83  1  0  0  0
 82155  1  0  0  0
 82156  1  0  0  0
 82157  1  0  0  0
 83158  1  0  0  0
 83159  1  0  0  0
 83160  1  0  0  0
 85161  1  0  0  0
 86162  1  0  0  0
 86163  1  0  0  0
M  CHG  1  86   1
M  ISO  4   1 100  68 101  81 101  85 100
M  END
> <chiral flag>
0

> <version>
0

> <s_m_source_file>
/data/baiqing/PycharmProjects/Reinvent-master-3.2/result/LINK_invent/BTK/process_docking_weight1_custom_product_contain_oxygen_bond_distance_aromatic_linkinvent_7_9_3/rearranged_h_0154.sdf

> <i_m_source_file_index>
9

> <r_mmod_Potential_Energy-OPLS-2005>
435.761901855469

> <r_mmod_Stretch_Energy-OPLS-2005>
153.802047729492

> <r_mmod_Bend_Energy-OPLS-2005>
531.422241210938

> <r_mmod_Torsional_Energy-OPLS-2005>
317.680541992188

> <r_mmod_Improper_Torsional_Energy-OPLS-2005>
6.288489818573

> <r_mmod_Van_der_Waal_Energy-OPLS-2005>
195.558044433594

> <r_mmod_Electrostatic_Energy-OPLS-2005>
-444.125762939453

> <r_mmod_Solvation_Energy-OPLS-2005>
-411.993591308594

> <b_mmod_Minimization_Converged-OPLS-2005>
0

> <r_mmod_RMS_Derivative-OPLS-2005>
2.61218976974487

$$$$
9
                    3D
 Structure written by MMmdl.
164173  0  0  1  0            999 V2000
  -30.6133  -14.7056   20.4753 C   0  0  0  0  0  0
  -30.4306  -12.4302   19.4755 C   0  0  0  0  0  0
  -29.5113  -12.5122   18.2366 C   0  0  0  0  0  0
  -28.0337  -12.3476   18.6434 C   0  0  0  0  0  0
  -27.6459  -13.2299   19.8602 C   0  0  2  0  0  0
  -28.6881  -13.1313   20.9973 C   0  0  0  0  0  0
  -25.2524  -13.8199   20.5707 C   0  0  0  0  0  0
  -24.1809  -13.0447   20.9217 C   0  0  0  0  0  0
  -24.6394  -11.6922   20.8751 C   0  0  0  0  0  0
  -23.9069  -10.4299   21.0411 C   0  0  0  0  0  0
  -24.3623   -9.4217   21.9191 C   0  0  0  0  0  0
  -23.6303   -8.2245   22.0753 C   0  0  0  0  0  0
  -22.4284   -8.0282   21.3543 C   0  0  0  0  0  0
  -21.9921   -9.0257   20.4645 C   0  0  0  0  0  0
  -22.7246  -10.2139   20.3055 C   0  0  0  0  0  0
  -21.6851   -6.0741   22.5286 C   0  0  0  0  0  0
  -21.4011   -6.5642   23.8222 C   0  0  0  0  0  0
  -21.3658   -5.6791   24.9182 C   0  0  0  0  0  0
  -21.6045   -4.3055   24.7229 C   0  0  0  0  0  0
  -21.8818   -3.8152   23.4350 C   0  0  0  0  0  0
  -21.9195   -4.6968   22.3408 C   0  0  0  0  0  0
  -22.7829  -13.5232   21.1880 C   0  0  0  0  0  0
  -22.1663   -4.2156   21.0983 F   0  0  0  0  0  0
  -21.5630   -3.4535   25.7743 F   0  0  0  0  0  0
  -29.9960  -13.4780   20.4275 N   0  0  0  0  0  0
  -26.2952  -12.9402   20.3310 N   0  0  0  0  0  0
  -25.9326  -11.6544   20.5761 N   0  0  0  0  0  0
  -22.0462  -12.8219   22.0422 N   0  0  0  0  0  0
  -25.4220  -15.1924   20.4123 N   0  0  0  0  0  0
  -31.7725  -14.8161   20.0755 O   0  0  0  0  0  0
  -21.6639   -6.8883   21.4246 O   0  0  0  0  0  0
  -22.3520  -14.5543   20.6733 O   0  0  0  0  0  0
  -24.6307  -31.8551   23.1985 C   0  0  0  0  0  0
  -25.9147  -32.4747   23.8322 C   0  0  1  0  0  0
  -27.2288  -27.2764   20.1188 C   0  0  0  0  0  0
  -25.5960  -33.8550   24.2260 N   0  0  0  0  0  0
  -23.4253  -30.4768   21.5412 C   0  0  2  0  0  0
  -24.8718  -28.9213   20.1098 C   0  0  0  0  0  0
  -22.7490  -29.4609   22.4925 C   0  0  0  0  0  0
  -18.0281  -28.1397   22.8482 C   0  0  0  0  0  0
  -24.1489  -36.7258   23.2643 C   0  0  0  0  0  0
  -25.9684  -30.7725   21.3741 C   0  0  0  0  0  0
  -26.0408  -29.3954   20.7158 C   0  0  0  0  0  0
  -27.2162  -28.5829   20.7127 C   0  0  0  0  0  0
  -26.0313  -26.8565   19.4974 C   0  0  0  0  0  0
  -24.8706  -27.6586   19.4940 C   0  0  0  0  0  0
  -23.6411  -29.8060   20.1580 C   0  0  0  0  0  0
  -25.4120  -36.3057   24.0331 C   0  0  1  0  0  0
  -20.5882  -28.3706   23.1268 C   0  0  2  0  0  0
  -20.6772  -26.9427   22.5403 C   0  0  0  0  0  0
  -19.5750  -26.6390   21.5209 C   0  0  0  0  0  0
  -18.1927  -26.7938   22.1616 C   0  0  0  0  0  0
  -19.1533  -28.8871   23.2865 C   0  0  0  0  0  0
  -18.9460  -30.1474   23.8878 C   0  0  0  0  0  0
  -17.6460  -30.6596   24.0559 C   0  0  0  0  0  0
  -25.9070  -34.9433   23.5092 C   0  0  0  0  0  0
  -16.5351  -29.9089   23.6338 C   0  0  0  0  0  0
  -16.7266  -28.6507   23.0355 C   0  0  0  0  0  0
  -26.4526  -31.6580   25.0714 C   0  0  0  0  0  0
  -25.3739  -31.3721   26.1423 C   0  0  0  0  0  0
  -27.0404  -30.3010   24.6208 C   0  0  0  0  0  0
  -27.6085  -32.4325   25.7476 C   0  0  0  0  0  0
  -27.5570  -37.1785   24.8468 C   0  0  0  0  0  0
  -21.4200  -29.3041   22.3656 N   0  0  0  0  0  0
  -26.4282  -37.3766   23.9416 N   0  0  0  0  0  0
  -24.6937  -31.0528   22.0946 N   0  0  0  0  0  0
  -23.4194  -28.8158   23.3029 O   0  0  0  0  0  0
  -28.3587  -26.4348   20.2003 O   0  0  0  0  0  0
  -26.5616  -34.8910   22.4648 O   0  0  0  0  0  0
  -23.5464  -32.1371   23.7294 O   0  0  0  0  0  0
  -30.6964  -19.4915   20.2927 C   0  0  0  0  0  0
  -31.0700  -18.0785   20.4099 C   0  0  0  0  0  0
  -29.3734  -19.8068   20.4933 C   0  0  0  0  0  0
  -29.9863  -17.2130   20.6249 C   0  0  0  0  0  0
  -28.4513  -23.7749   20.4606 C   0  0  0  0  0  0
  -34.9962  -18.2497   20.6233 C   0  0  0  0  0  0
  -35.2753  -17.6481   19.2373 C   0  0  0  0  0  0
  -33.5512  -18.7712   20.6845 C   0  0  0  0  0  0
  -34.2371  -16.5653   18.8940 C   0  0  0  0  0  0
  -32.5324  -17.6547   20.3386 C   0  0  2  0  0  0
  -29.1502  -22.4089   19.9807 C   0  0  0  0  0  0
  -28.4674  -25.0881   19.5470 C   0  0  0  0  0  0
  -29.8424  -15.8147   20.7798 N   0  0  0  0  0  0
  -28.6887  -21.0843   20.5602 N   0  0  0  0  0  0
  -32.8515  -17.0755   19.0139 N   0  3  0  0  0  0
  -27.8766  -23.7962   21.5541 O   0  0  0  0  0  0
  -28.5401  -18.2617   20.7679 S   0  0  0  0  0  0
  -31.4744  -12.5455   19.1787 H   0  0  0  0  0  0
  -30.3637  -11.4447   19.9403 H   0  0  0  0  0  0
  -29.7861  -11.7453   17.5116 H   0  0  0  0  0  0
  -29.6505  -13.4720   17.7361 H   0  0  0  0  0  0
  -27.8746  -11.2960   18.8852 H   0  0  0  0  0  0
  -27.3814  -12.5650   17.7970 H   0  0  0  0  0  0
  -27.6500  -14.2588   19.4999 H   0  0  0  0  0  0
  -28.7123  -12.1221   21.4126 H   0  0  0  0  0  0
  -28.4256  -13.7915   21.8255 H   0  0  0  0  0  0
  -25.2765   -9.5694   22.4775 H   0  0  0  0  0  0
  -24.0016   -7.4629   22.7467 H   0  0  0  0  0  0
  -21.0853   -8.8777   19.8949 H   0  0  0  0  0  0
  -22.3708  -10.9679   19.6164 H   0  0  0  0  0  0
  -21.1993   -7.6149   23.9730 H   0  0  0  0  0  0
  -21.1479   -6.0517   25.9086 H   0  0  0  0  0  0
  -22.0596   -2.7614   23.2844 H   0  0  0  0  0  0
  -22.4057  -11.9864   22.4793 H   0  0  0  0  0  0
  -21.1082  -13.1251   22.2628 H   0  0  0  0  0  0
  -24.6519  -15.8434   20.5203 H   0  0  0  0  0  0
  -26.2630  -15.6331   20.0631 H   0  0  0  0  0  0
  -26.7211  -32.5400   23.1063 H   0  0  0  0  0  0
  -25.0169  -33.9695   25.0449 H   0  0  0  0  0  0
  -22.7211  -31.2984   21.3948 H   0  0  0  0  0  0
  -23.3765  -35.9574   23.3299 H   0  0  0  0  0  0
  -24.3571  -36.8883   22.2056 H   0  0  0  0  0  0
  -23.7226  -37.6453   23.6665 H   0  0  0  0  0  0
  -26.1037  -31.5352   20.6057 H   0  0  0  0  0  0
  -26.8476  -30.8210   22.0048 H   0  0  0  0  0  0
  -28.1111  -28.9415   21.2013 H   0  0  0  0  0  0
  -25.9492  -25.8841   19.0378 H   0  0  0  0  0  0
  -23.9704  -27.2847   19.0266 H   0  0  0  0  0  0
  -23.7592  -30.5786   19.3975 H   0  0  0  0  0  0
  -22.7604  -29.2351   19.8592 H   0  0  0  0  0  0
  -25.1307  -36.1892   25.0822 H   0  0  0  0  0  0
  -20.9972  -28.3284   24.1392 H   0  0  0  0  0  0
  -20.5672  -26.2327   23.3613 H   0  0  0  0  0  0
  -21.6644  -26.7452   22.1202 H   0  0  0  0  0  0
  -19.6914  -25.6295   21.1253 H   0  0  0  0  0  0
  -19.6692  -27.3187   20.6730 H   0  0  0  0  0  0
  -17.4205  -26.6688   21.4006 H   0  0  0  0  0  0
  -18.0318  -26.0082   22.9015 H   0  0  0  0  0  0
  -19.7939  -30.7293   24.2237 H   0  0  0  0  0  0
  -17.5017  -31.6273   24.5167 H   0  0  0  0  0  0
  -15.5351  -30.2986   23.7689 H   0  0  0  0  0  0
  -15.8664  -28.0828   22.7082 H   0  0  0  0  0  0
  -24.5939  -30.7048   25.7737 H   0  0  0  0  0  0
  -24.8901  -32.2883   26.4817 H   0  0  0  0  0  0
  -25.8054  -30.8919   27.0215 H   0  0  0  0  0  0
  -26.3007  -29.6712   24.1255 H   0  0  0  0  0  0
  -27.4129  -29.7316   25.4735 H   0  0  0  0  0  0
  -27.8851  -30.4307   23.9439 H   0  0  0  0  0  0
  -27.2722  -33.3656   26.2010 H   0  0  0  0  0  0
  -28.3916  -32.6833   25.0306 H   0  0  0  0  0  0
  -28.0733  -31.8470   26.5422 H   0  0  0  0  0  0
  -28.2591  -38.0080   24.7526 H   0  0  0  0  0  0
  -28.1061  -36.2612   24.6286 H   0  0  0  0  0  0
  -27.2278  -37.1419   25.8867 H   0  0  0  0  0  0
  -20.9402  -29.8749   21.6837 H   0  0  0  0  0  0
  -26.0150  -38.2832   24.1432 H   0  0  0  0  0  0
  -31.4312  -20.2614   20.1142 H   0  0  0  0  0  0
  -35.6985  -19.0576   20.8320 H   0  0  0  0  0  0
  -35.1543  -17.4959   21.3963 H   0  0  0  0  0  0
  -36.2781  -17.2192   19.2108 H   0  0  0  0  0  0
  -35.2592  -18.4317   18.4777 H   0  0  0  0  0  0
  -33.4669  -19.6052   19.9880 H   0  0  0  0  0  0
  -33.3447  -19.1684   21.6793 H   0  0  0  0  0  0
  -34.3597  -15.7124   19.5633 H   0  0  0  0  0  0
  -34.3960  -16.1873   17.8834 H   0  0  0  0  0  0
  -32.6916  -16.8789   21.0884 H   0  0  0  0  0  0
  -30.2181  -22.5159   20.1736 H   0  0  0  0  0  0
  -29.0481  -22.3587   18.8960 H   0  0  0  0  0  0
  -27.7354  -24.9653   18.7520 H   0  0  0  0  0  0
  -29.4291  -25.0798   19.0339 H   0  0  0  0  0  0
  -28.9160  -15.5399   21.0715 H   0  0  0  0  0  0
  -27.7040  -21.0803   20.8190 H   0  0  0  0  0  0
  -32.2505  -16.2651   18.9224 H   0  0  0  0  0  0
  -32.6439  -17.7276   18.2762 H   0  0  0  0  0  0
  1 25  1  0  0  0
  1 30  2  0  0  0
  1 83  1  0  0  0
  2  3  1  0  0  0
  2 25  1  0  0  0
  2 88  1  0  0  0
  2 89  1  0  0  0
  3  4  1  0  0  0
  3 90  1  0  0  0
  3 91  1  0  0  0
  4  5  1  0  0  0
  4 92  1  0  0  0
  4 93  1  0  0  0
  5  6  1  0  0  0
  5 26  1  0  0  0
  5 94  1  0  0  0
  6 25  1  0  0  0
  6 95  1  0  0  0
  6 96  1  0  0  0
  7  8  2  0  0  0
  7 26  1  0  0  0
  7 29  1  0  0  0
  8  9  1  0  0  0
  8 22  1  0  0  0
  9 10  1  0  0  0
  9 27  2  0  0  0
 10 11  2  0  0  0
 10 15  1  0  0  0
 11 12  1  0  0  0
 11 97  1  0  0  0
 12 13  2  0  0  0
 12 98  1  0  0  0
 13 14  1  0  0  0
 13 31  1  0  0  0
 14 15  2  0  0  0
 14 99  1  0  0  0
 15100  1  0  0  0
 16 17  2  0  0  0
 16 21  1  0  0  0
 16 31  1  0  0  0
 17 18  1  0  0  0
 17101  1  0  0  0
 18 19  2  0  0  0
 18102  1  0  0  0
 19 20  1  0  0  0
 19 24  1  0  0  0
 20 21  2  0  0  0
 20103  1  0  0  0
 21 23  1  0  0  0
 22 28  1  0  0  0
 22 32  2  0  0  0
 26 27  1  0  0  0
 28104  1  0  0  0
 28105  1  0  0  0
 29106  1  0  0  0
 29107  1  0  0  0
 33 34  1  0  0  0
 33 66  1  0  0  0
 33 70  2  0  0  0
 34 36  1  0  0  0
 34 59  1  0  0  0
 34108  1  0  0  0
 35 44  2  0  0  0
 35 45  1  0  0  0
 35 68  1  0  0  0
 36 56  1  0  0  0
 36109  1  0  0  0
 37 39  1  0  0  0
 37 47  1  0  0  0
 37 66  1  0  0  0
 37110  1  0  0  0
 38 43  2  0  0  0
 38 46  1  0  0  0
 38 47  1  0  0  0
 39 64  1  0  0  0
 39 67  2  0  0  0
 40 52  1  0  0  0
 40 53  2  0  0  0
 40 58  1  0  0  0
 41111  1  0  0  0
 41112  1  0  0  0
 41113  1  0  0  0
 41 48  1  0  0  0
 42 43  1  0  0  0
 42 66  1  0  0  0
 42114  1  0  0  0
 42115  1  0  0  0
 43 44  1  0  0  0
 44116  1  0  0  0
 45 46  2  0  0  0
 45117  1  0  0  0
 46118  1  0  0  0
 47119  1  0  0  0
 47120  1  0  0  0
 48 56  1  0  0  0
 48 65  1  0  0  0
 48121  1  0  0  0
 49 50  1  0  0  0
 49 53  1  0  0  0
 49 64  1  0  0  0
 49122  1  0  0  0
 50 51  1  0  0  0
 50123  1  0  0  0
 50124  1  0  0  0
 51 52  1  0  0  0
 51125  1  0  0  0
 51126  1  0  0  0
 52127  1  0  0  0
 52128  1  0  0  0
 53 54  1  0  0  0
 54 55  2  0  0  0
 54129  1  0  0  0
 55 57  1  0  0  0
 55130  1  0  0  0
 56 69  2  0  0  0
 57 58  2  0  0  0
 57131  1  0  0  0
 58132  1  0  0  0
 59 60  1  0  0  0
 59 61  1  0  0  0
 59 62  1  0  0  0
 60133  1  0  0  0
 60134  1  0  0  0
 60135  1  0  0  0
 61136  1  0  0  0
 61137  1  0  0  0
 61138  1  0  0  0
 62139  1  0  0  0
 62140  1  0  0  0
 62141  1  0  0  0
 63 65  1  0  0  0
 63142  1  0  0  0
 63143  1  0  0  0
 63144  1  0  0  0
 64145  1  0  0  0
 65146  1  0  0  0
 68 82  1  0  0  0
 71 72  1  0  0  0
 71 73  2  0  0  0
 71147  1  0  0  0
 72 74  2  0  0  0
 72 80  1  0  0  0
 73 84  1  0  0  0
 73 87  1  0  0  0
 74 83  1  0  0  0
 74 87  1  0  0  0
 75 81  1  0  0  0
 75 82  1  0  0  0
 75 86  2  0  0  0
 76 77  1  0  0  0
 76 78  1  0  0  0
 76148  1  0  0  0
 76149  1  0  0  0
 77 79  1  0  0  0
 77150  1  0  0  0
 77151  1  0  0  0
 78 80  1  0  0  0
 78152  1  0  0  0
 78153  1  0  0  0
 79 85  1  0  0  0
 79154  1  0  0  0
 79155  1  0  0  0
 80 85  1  0  0  0
 80156  1  0  0  0
 81 84  1  0  0  0
 81157  1  0  0  0
 81158  1  0  0  0
 82159  1  0  0  0
 82160  1  0  0  0
 83161  1  0  0  0
 84162  1  0  0  0
 85163  1  0  0  0
 85164  1  0  0  0
M  CHG  1  85   1
M  ISO  4   1 100  68 101  82 101  83 100
M  END
> <chiral flag>
0

> <version>
0

> <s_m_source_file>
/data/baiqing/PycharmProjects/Reinvent-master-3.2/result/LINK_invent/BTK/process_docking_weight1_custom_product_contain_oxygen_bond_distance_aromatic_linkinvent_7_9_3/rearranged_h_0154.sdf

> <i_m_source_file_index>
10

> <r_mmod_Potential_Energy-OPLS-2005>
-7.24074745178223

> <r_mmod_Stretch_Energy-OPLS-2005>
110.990798950195

> <r_mmod_Bend_Energy-OPLS-2005>
194.234176635742

> <r_mmod_Torsional_Energy-OPLS-2005>
231.533096313477

> <r_mmod_Improper_Torsional_Energy-OPLS-2005>
5.74255657196045

> <r_mmod_Van_der_Waal_Energy-OPLS-2005>
128.499114990234

> <r_mmod_Electrostatic_Energy-OPLS-2005>
-295.678039550781

> <r_mmod_Solvation_Energy-OPLS-2005>
-451.507781982422

> <b_mmod_Minimization_Converged-OPLS-2005>
0

> <r_mmod_RMS_Derivative-OPLS-2005>
1.20629727840424

$$$$
10
                    3D
 Structure written by MMmdl.
158167  0  0  1  0            999 V2000
  -30.6430  -14.5722   20.5400 C   0  0  0  0  0  0
  -30.4361  -12.3583   19.4414 C   0  0  0  0  0  0
  -29.5041  -12.5123   18.2191 C   0  0  0  0  0  0
  -28.0257  -12.3590   18.6291 C   0  0  0  0  0  0
  -27.6603  -13.2109   19.8738 C   0  0  2  0  0  0
  -28.7025  -13.0187   20.9992 C   0  0  0  0  0  0
  -25.2587  -13.8164   20.5691 C   0  0  0  0  0  0
  -24.1838  -13.0439   20.9178 C   0  0  0  0  0  0
  -24.6394  -11.6904   20.8729 C   0  0  0  0  0  0
  -23.9059  -10.4288   21.0399 C   0  0  0  0  0  0
  -24.3612   -9.4206   21.9180 C   0  0  0  0  0  0
  -23.6288   -8.2244   22.0752 C   0  0  0  0  0  0
  -22.4273   -8.0278   21.3540 C   0  0  0  0  0  0
  -21.9904   -9.0252   20.4645 C   0  0  0  0  0  0
  -22.7232  -10.2130   20.3050 C   0  0  0  0  0  0
  -21.6853   -6.0732   22.5278 C   0  0  0  0  0  0
  -21.4014   -6.5636   23.8211 C   0  0  0  0  0  0
  -21.3659   -5.6791   24.9174 C   0  0  0  0  0  0
  -21.6044   -4.3052   24.7226 C   0  0  0  0  0  0
  -21.8820   -3.8142   23.4346 C   0  0  0  0  0  0
  -21.9193   -4.6960   22.3401 C   0  0  0  0  0  0
  -22.7858  -13.5235   21.1846 C   0  0  0  0  0  0
  -22.1662   -4.2145   21.0979 F   0  0  0  0  0  0
  -21.5630   -3.4538   25.7738 F   0  0  0  0  0  0
  -30.0265  -13.3550   20.4485 N   0  0  0  0  0  0
  -26.3020  -12.9337   20.3362 N   0  0  0  0  0  0
  -25.9324  -11.6495   20.5761 N   0  0  0  0  0  0
  -22.0499  -12.8222   22.0396 N   0  0  0  0  0  0
  -25.4326  -15.1886   20.4129 N   0  0  0  0  0  0
  -31.7719  -14.7684   20.0783 O   0  0  0  0  0  0
  -21.6636   -6.8875   21.4239 O   0  0  0  0  0  0
  -22.3545  -14.5545   20.6700 O   0  0  0  0  0  0
  -24.6226  -31.8629   23.2066 C   0  0  0  0  0  0
  -25.9093  -32.4796   23.8377 C   0  0  1  0  0  0
  -27.2232  -27.3560   20.1056 C   0  0  0  0  0  0
  -25.5924  -33.8597   24.2304 N   0  0  0  0  0  0
  -23.4128  -30.4880   21.5485 C   0  0  2  0  0  0
  -24.8576  -28.9503   20.1092 C   0  0  0  0  0  0
  -22.7458  -29.4631   22.4957 C   0  0  0  0  0  0
  -18.0278  -28.1383   22.8485 C   0  0  0  0  0  0
  -24.1486  -36.7297   23.2637 C   0  0  0  0  0  0
  -25.9510  -30.8028   21.3738 C   0  0  0  0  0  0
  -26.0227  -29.4335   20.7165 C   0  0  0  0  0  0
  -27.2063  -28.6452   20.7103 C   0  0  0  0  0  0
  -26.0396  -26.9239   19.4614 C   0  0  0  0  0  0
  -24.8657  -27.6989   19.4753 C   0  0  0  0  0  0
  -23.6241  -29.8258   20.1617 C   0  0  0  0  0  0
  -25.4108  -36.3094   24.0335 C   0  0  1  0  0  0
  -20.5876  -28.3677   23.1300 C   0  0  2  0  0  0
  -20.6768  -26.9404   22.5415 C   0  0  0  0  0  0
  -19.5747  -26.6386   21.5212 C   0  0  0  0  0  0
  -18.1924  -26.7928   22.1615 C   0  0  0  0  0  0
  -19.1533  -28.8846   23.2888 C   0  0  0  0  0  0
  -18.9458  -30.1450   23.8904 C   0  0  0  0  0  0
  -17.6459  -30.6587   24.0565 C   0  0  0  0  0  0
  -25.9044  -34.9461   23.5116 C   0  0  0  0  0  0
  -16.5350  -29.9086   23.6333 C   0  0  0  0  0  0
  -16.7268  -28.6504   23.0350 C   0  0  0  0  0  0
  -26.4491  -31.6597   25.0734 C   0  0  0  0  0  0
  -25.3745  -31.3719   26.1479 C   0  0  0  0  0  0
  -27.0332  -30.3031   24.6156 C   0  0  0  0  0  0
  -27.6061  -32.4332   25.7488 C   0  0  0  0  0  0
  -27.5583  -37.1798   24.8461 C   0  0  0  0  0  0
  -21.4173  -29.3039   22.3706 N   0  0  0  0  0  0
  -26.4286  -37.3790   23.9417 N   0  0  0  0  0  0
  -24.6807  -31.0676   22.1000 N   0  0  0  0  0  0
  -23.4204  -28.8169   23.3017 O   0  0  0  0  0  0
  -28.3618  -26.5483   20.1686 O   0  0  0  0  0  0
  -26.5608  -34.8922   22.4680 O   0  0  0  0  0  0
  -23.5400  -32.1409   23.7423 O   0  0  0  0  0  0
  -30.5366  -19.1715   20.3094 C   0  0  0  0  0  0
  -30.6332  -17.7517   20.0530 C   0  0  0  0  0  0
  -29.8600  -19.4841   21.4641 C   0  0  0  0  0  0
  -30.0095  -16.9448   20.9851 C   0  0  0  0  0  0
  -29.7880  -20.7294   22.2527 C   0  0  0  0  0  0
  -28.9925  -24.3816   22.2263 C   0  0  0  0  0  0
  -29.5739  -23.1208   22.8692 C   0  0  0  0  0  0
  -29.0797  -22.6224   20.5698 C   0  0  0  0  0  0
  -29.2059  -24.1902   20.7280 C   0  0  1  0  0  0
  -28.2516  -25.1114   19.8812 C   0  0  0  0  0  0
  -29.4997  -22.0286   21.8714 N   0  0  0  0  0  0
  -29.8900  -15.5731   21.0735 N   0  0  0  0  0  0
  -30.0810  -20.5351   23.5523 N   0  3  0  0  0  0
  -30.5261  -24.5465   20.3499 O   0  0  0  0  0  0
  -29.2246  -17.9897   22.1626 S   0  0  0  0  0  0
  -31.4785  -12.4781   19.1399 H   0  0  0  0  0  0
  -30.3627  -11.3514   19.8559 H   0  0  0  0  0  0
  -29.7578  -11.7754   17.4559 H   0  0  0  0  0  0
  -29.6579  -13.4911   17.7616 H   0  0  0  0  0  0
  -27.8492  -11.3033   18.8397 H   0  0  0  0  0  0
  -27.3737  -12.6141   17.7930 H   0  0  0  0  0  0
  -27.6942  -14.2548   19.5607 H   0  0  0  0  0  0
  -28.6992  -11.9843   21.3466 H   0  0  0  0  0  0
  -28.4499  -13.6189   21.8741 H   0  0  0  0  0  0
  -25.2760   -9.5684   22.4751 H   0  0  0  0  0  0
  -23.9999   -7.4636   22.7470 H   0  0  0  0  0  0
  -21.0836   -8.8768   19.8950 H   0  0  0  0  0  0
  -22.3691  -10.9667   19.6155 H   0  0  0  0  0  0
  -21.2004   -7.6143   23.9715 H   0  0  0  0  0  0
  -21.1482   -6.0519   25.9078 H   0  0  0  0  0  0
  -22.0598   -2.7606   23.2849 H   0  0  0  0  0  0
  -22.4105  -11.9872   22.4770 H   0  0  0  0  0  0
  -21.1116  -13.1244   22.2606 H   0  0  0  0  0  0
  -24.6701  -15.8476   20.5268 H   0  0  0  0  0  0
  -26.2897  -15.6264   20.0987 H   0  0  0  0  0  0
  -26.7156  -32.5475   23.1122 H   0  0  0  0  0  0
  -25.0101  -33.9751   25.0468 H   0  0  0  0  0  0
  -22.7044  -31.3078   21.4096 H   0  0  0  0  0  0
  -23.3757  -35.9621   23.3290 H   0  0  0  0  0  0
  -24.3579  -36.8923   22.2053 H   0  0  0  0  0  0
  -23.7224  -37.6492   23.6660 H   0  0  0  0  0  0
  -26.0803  -31.5663   20.6057 H   0  0  0  0  0  0
  -26.8334  -30.8500   22.0001 H   0  0  0  0  0  0
  -28.1003  -29.0094   21.1966 H   0  0  0  0  0  0
  -25.9902  -25.9815   18.9374 H   0  0  0  0  0  0
  -23.9750  -27.3288   18.9860 H   0  0  0  0  0  0
  -23.7392  -30.6042   19.4066 H   0  0  0  0  0  0
  -22.7447  -29.2536   19.8601 H   0  0  0  0  0  0
  -25.1279  -36.1949   25.0828 H   0  0  0  0  0  0
  -20.9961  -28.3242   24.1424 H   0  0  0  0  0  0
  -20.5668  -26.2282   23.3608 H   0  0  0  0  0  0
  -21.6638  -26.7442   22.1207 H   0  0  0  0  0  0
  -19.6910  -25.6301   21.1232 H   0  0  0  0  0  0
  -19.6692  -27.3205   20.6751 H   0  0  0  0  0  0
  -17.4199  -26.6692   21.4010 H   0  0  0  0  0  0
  -18.0310  -26.0061   22.8998 H   0  0  0  0  0  0
  -19.7933  -30.7263   24.2275 H   0  0  0  0  0  0
  -17.5013  -31.6267   24.5166 H   0  0  0  0  0  0
  -15.5350  -30.2990   23.7658 H   0  0  0  0  0  0
  -15.8660  -28.0828   22.7063 H   0  0  0  0  0  0
  -24.5937  -30.7033   25.7829 H   0  0  0  0  0  0
  -24.8916  -32.2877   26.4902 H   0  0  0  0  0  0
  -25.8101  -30.8924   27.0255 H   0  0  0  0  0  0
  -26.2893  -29.6780   24.1205 H   0  0  0  0  0  0
  -27.4077  -29.7282   25.4634 H   0  0  0  0  0  0
  -27.8737  -30.4332   23.9336 H   0  0  0  0  0  0
  -27.2684  -33.3635   26.2066 H   0  0  0  0  0  0
  -28.3863  -32.6892   25.0307 H   0  0  0  0  0  0
  -28.0738  -31.8463   26.5401 H   0  0  0  0  0  0
  -28.2591  -38.0109   24.7538 H   0  0  0  0  0  0
  -28.1093  -36.2642   24.6245 H   0  0  0  0  0  0
  -27.2312  -37.1394   25.8869 H   0  0  0  0  0  0
  -20.9347  -29.8775   21.6930 H   0  0  0  0  0  0
  -26.0170  -38.2862   24.1443 H   0  0  0  0  0  0
  -31.0380  -19.8944   19.6826 H   0  0  0  0  0  0
  -31.1776  -17.3797   19.1960 H   0  0  0  0  0  0
  -29.4595  -25.2932   22.6001 H   0  0  0  0  0  0
  -27.9282  -24.4466   22.4598 H   0  0  0  0  0  0
  -29.0276  -22.8744   23.7800 H   0  0  0  0  0  0
  -30.6208  -23.2789   23.1295 H   0  0  0  0  0  0
  -29.6744  -22.2373   19.7422 H   0  0  0  0  0  0
  -28.0421  -22.3386   20.3936 H   0  0  0  0  0  0
  -27.2474  -24.7503   20.1023 H   0  0  0  0  0  0
  -28.4108  -24.9510   18.8139 H   0  0  0  0  0  0
  -29.0664  -15.2451   21.5555 H   0  0  0  0  0  0
  -30.3253  -19.6125   23.8790 H   0  0  0  0  0  0
  -30.0805  -21.2873   24.2225 H   0  0  0  0  0  0
  -30.5692  -25.4982   20.3592 H   0  0  0  0  0  0
  1 25  1  0  0  0
  1 30  2  0  0  0
  1 82  1  0  0  0
  2  3  1  0  0  0
  2 25  1  0  0  0
  2 86  1  0  0  0
  2 87  1  0  0  0
  3  4  1  0  0  0
  3 88  1  0  0  0
  3 89  1  0  0  0
  4  5  1  0  0  0
  4 90  1  0  0  0
  4 91  1  0  0  0
  5  6  1  0  0  0
  5 26  1  0  0  0
  5 92  1  0  0  0
  6 25  1  0  0  0
  6 93  1  0  0  0
  6 94  1  0  0  0
  7  8  2  0  0  0
  7 26  1  0  0  0
  7 29  1  0  0  0
  8  9  1  0  0  0
  8 22  1  0  0  0
  9 10  1  0  0  0
  9 27  2  0  0  0
 10 11  2  0  0  0
 10 15  1  0  0  0
 11 12  1  0  0  0
 11 95  1  0  0  0
 12 13  2  0  0  0
 12 96  1  0  0  0
 13 14  1  0  0  0
 13 31  1  0  0  0
 14 15  2  0  0  0
 14 97  1  0  0  0
 15 98  1  0  0  0
 16 17  2  0  0  0
 16 21  1  0  0  0
 16 31  1  0  0  0
 17 18  1  0  0  0
 17 99  1  0  0  0
 18 19  2  0  0  0
 18100  1  0  0  0
 19 20  1  0  0  0
 19 24  1  0  0  0
 20 21  2  0  0  0
 20101  1  0  0  0
 21 23  1  0  0  0
 22 28  1  0  0  0
 22 32  2  0  0  0
 26 27  1  0  0  0
 28102  1  0  0  0
 28103  1  0  0  0
 29104  1  0  0  0
 29105  1  0  0  0
 33 34  1  0  0  0
 33 66  1  0  0  0
 33 70  2  0  0  0
 34 36  1  0  0  0
 34 59  1  0  0  0
 34106  1  0  0  0
 35 44  2  0  0  0
 35 45  1  0  0  0
 35 68  1  0  0  0
 36 56  1  0  0  0
 36107  1  0  0  0
 37 39  1  0  0  0
 37 47  1  0  0  0
 37 66  1  0  0  0
 37108  1  0  0  0
 38 43  2  0  0  0
 38 46  1  0  0  0
 38 47  1  0  0  0
 39 64  1  0  0  0
 39 67  2  0  0  0
 40 52  1  0  0  0
 40 53  2  0  0  0
 40 58  1  0  0  0
 41109  1  0  0  0
 41110  1  0  0  0
 41111  1  0  0  0
 41 48  1  0  0  0
 42 43  1  0  0  0
 42 66  1  0  0  0
 42112  1  0  0  0
 42113  1  0  0  0
 43 44  1  0  0  0
 44114  1  0  0  0
 45 46  2  0  0  0
 45115  1  0  0  0
 46116  1  0  0  0
 47117  1  0  0  0
 47118  1  0  0  0
 48 56  1  0  0  0
 48 65  1  0  0  0
 48119  1  0  0  0
 49 50  1  0  0  0
 49 53  1  0  0  0
 49 64  1  0  0  0
 49120  1  0  0  0
 50 51  1  0  0  0
 50121  1  0  0  0
 50122  1  0  0  0
 51 52  1  0  0  0
 51123  1  0  0  0
 51124  1  0  0  0
 52125  1  0  0  0
 52126  1  0  0  0
 53 54  1  0  0  0
 54 55  2  0  0  0
 54127  1  0  0  0
 55 57  1  0  0  0
 55128  1  0  0  0
 56 69  2  0  0  0
 57 58  2  0  0  0
 57129  1  0  0  0
 58130  1  0  0  0
 59 60  1  0  0  0
 59 61  1  0  0  0
 59 62  1  0  0  0
 60131  1  0  0  0
 60132  1  0  0  0
 60133  1  0  0  0
 61134  1  0  0  0
 61135  1  0  0  0
 61136  1  0  0  0
 62137  1  0  0  0
 62138  1  0  0  0
 62139  1  0  0  0
 63 65  1  0  0  0
 63140  1  0  0  0
 63141  1  0  0  0
 63142  1  0  0  0
 64143  1  0  0  0
 65144  1  0  0  0
 68 80  1  0  0  0
 71 72  1  0  0  0
 71 73  2  0  0  0
 71145  1  0  0  0
 72 74  2  0  0  0
 72146  1  0  0  0
 73 75  1  0  0  0
 73 85  1  0  0  0
 74 82  1  0  0  0
 74 85  1  0  0  0
 75 81  1  0  0  0
 75 83  2  0  0  0
 76 77  1  0  0  0
 76 79  1  0  0  0
 76147  1  0  0  0
 76148  1  0  0  0
 77 81  1  0  0  0
 77149  1  0  0  0
 77150  1  0  0  0
 78 79  1  0  0  0
 78 81  1  0  0  0
 78151  1  0  0  0
 78152  1  0  0  0
 79 80  1  0  0  0
 79 84  1  0  0  0
 80153  1  0  0  0
 80154  1  0  0  0
 82155  1  0  0  0
 83156  1  0  0  0
 83157  1  0  0  0
 84158  1  0  0  0
M  CHG  1  83   1
M  ISO  4   1 100  68 101  80 101  82 100
M  END
> <chiral flag>
0

> <version>
0

> <s_m_source_file>
/data/baiqing/PycharmProjects/Reinvent-master-3.2/result/LINK_invent/BTK/process_docking_weight1_custom_product_contain_oxygen_bond_distance_aromatic_linkinvent_7_9_3/rearranged_h_0154.sdf

> <i_m_source_file_index>
11

> <r_mmod_Potential_Energy-OPLS-2005>
-49.2053604125977

> <r_mmod_Stretch_Energy-OPLS-2005>
58.6831893920898

> <r_mmod_Bend_Energy-OPLS-2005>
166.988723754883

> <r_mmod_Torsional_Energy-OPLS-2005>
314.069396972656

> <r_mmod_Improper_Torsional_Energy-OPLS-2005>
3.89351606369019

> <r_mmod_Van_der_Waal_Energy-OPLS-2005>
134.975128173828

> <r_mmod_Electrostatic_Energy-OPLS-2005>
-305.519470214844

> <r_mmod_Solvation_Energy-OPLS-2005>
-453.584259033203

> <b_mmod_Minimization_Converged-OPLS-2005>
0

> <r_mmod_RMS_Derivative-OPLS-2005>
0.879197895526886

$$$$
11
                    3D
 Structure written by MMmdl.
157166  0  0  1  0            999 V2000
  -30.5353  -14.8662   20.4457 C   0  0  0  0  0  0
  -30.4468  -12.5296   19.4958 C   0  0  0  0  0  0
  -29.5218  -12.5256   18.2552 C   0  0  0  0  0  0
  -28.0505  -12.3271   18.6667 C   0  0  0  0  0  0
  -27.6407  -13.2366   19.8541 C   0  0  2  0  0  0
  -28.6826  -13.1949   20.9937 C   0  0  0  0  0  0
  -25.2504  -13.8199   20.5714 C   0  0  0  0  0  0
  -24.1800  -13.0438   20.9214 C   0  0  0  0  0  0
  -24.6399  -11.6919   20.8757 C   0  0  0  0  0  0
  -23.9079  -10.4292   21.0417 C   0  0  0  0  0  0
  -24.3628   -9.4200   21.9189 C   0  0  0  0  0  0
  -23.6297   -8.2241   22.0756 C   0  0  0  0  0  0
  -22.4278   -8.0285   21.3549 C   0  0  0  0  0  0
  -21.9916   -9.0261   20.4652 C   0  0  0  0  0  0
  -22.7252  -10.2138   20.3061 C   0  0  0  0  0  0
  -21.6851   -6.0738   22.5282 C   0  0  0  0  0  0
  -21.4015   -6.5641   23.8217 C   0  0  0  0  0  0
  -21.3660   -5.6792   24.9180 C   0  0  0  0  0  0
  -21.6042   -4.3054   24.7227 C   0  0  0  0  0  0
  -21.8816   -3.8147   23.4347 C   0  0  0  0  0  0
  -21.9192   -4.6965   22.3404 C   0  0  0  0  0  0
  -22.7822  -13.5221   21.1873 C   0  0  0  0  0  0
  -22.1660   -4.2150   21.0982 F   0  0  0  0  0  0
  -21.5627   -3.4537   25.7740 F   0  0  0  0  0  0
  -29.9751  -13.5960   20.4194 N   0  0  0  0  0  0
  -26.2933  -12.9409   20.3296 N   0  0  0  0  0  0
  -25.9329  -11.6550   20.5760 N   0  0  0  0  0  0
  -22.0465  -12.8215   22.0432 N   0  0  0  0  0  0
  -25.4171  -15.1927   20.4146 N   0  0  0  0  0  0
  -31.7043  -15.0055   20.0688 O   0  0  0  0  0  0
  -21.6635   -6.8886   21.4247 O   0  0  0  0  0  0
  -22.3511  -14.5525   20.6720 O   0  0  0  0  0  0
  -24.6384  -31.8466   23.1896 C   0  0  0  0  0  0
  -25.9175  -32.4707   23.8275 C   0  0  1  0  0  0
  -27.2250  -27.1784   20.1315 C   0  0  0  0  0  0
  -25.5939  -33.8513   24.2196 N   0  0  0  0  0  0
  -23.4389  -30.4660   21.5341 C   0  0  2  0  0  0
  -24.8858  -28.8962   20.1053 C   0  0  0  0  0  0
  -22.7537  -29.4556   22.4868 C   0  0  0  0  0  0
  -18.0300  -28.1393   22.8480 C   0  0  0  0  0  0
  -24.1488  -36.7263   23.2643 C   0  0  0  0  0  0
  -25.9900  -30.7333   21.3803 C   0  0  0  0  0  0
  -26.0592  -29.3486   20.7186 C   0  0  0  0  0  0
  -27.2229  -28.5025   20.7187 C   0  0  0  0  0  0
  -26.0155  -26.8035   19.5044 C   0  0  0  0  0  0
  -24.8736  -27.6350   19.4871 C   0  0  0  0  0  0
  -23.6608  -29.7945   20.1519 C   0  0  0  0  0  0
  -25.4120  -36.3038   24.0318 C   0  0  1  0  0  0
  -20.5907  -28.3709   23.1250 C   0  0  2  0  0  0
  -20.6783  -26.9417   22.5407 C   0  0  0  0  0  0
  -19.5759  -26.6378   21.5212 C   0  0  0  0  0  0
  -18.1939  -26.7934   22.1625 C   0  0  0  0  0  0
  -19.1555  -28.8869   23.2859 C   0  0  0  0  0  0
  -18.9475  -30.1469   23.8879 C   0  0  0  0  0  0
  -17.6471  -30.6590   24.0560 C   0  0  0  0  0  0
  -25.9068  -34.9414   23.5064 C   0  0  0  0  0  0
  -16.5362  -29.9083   23.6335 C   0  0  0  0  0  0
  -16.7285  -28.6503   23.0353 C   0  0  0  0  0  0
  -26.4513  -31.6576   25.0710 C   0  0  0  0  0  0
  -25.3712  -31.3763   26.1419 C   0  0  0  0  0  0
  -27.0380  -30.2979   24.6271 C   0  0  0  0  0  0
  -27.6040  -32.4348   25.7493 C   0  0  0  0  0  0
  -27.5574  -37.1786   24.8465 C   0  0  0  0  0  0
  -21.4234  -29.3039   22.3623 N   0  0  0  0  0  0
  -26.4286  -37.3747   23.9408 N   0  0  0  0  0  0
  -24.7086  -31.0360   22.0905 N   0  0  0  0  0  0
  -23.4204  -28.8113   23.3007 O   0  0  0  0  0  0
  -28.3330  -26.2748   20.2615 O   0  0  0  0  0  0
  -26.5650  -34.8907   22.4641 O   0  0  0  0  0  0
  -23.5515  -32.1324   23.7143 O   0  0  0  0  0  0
  -30.0791  -18.5711   20.7857 C   0  0  0  0  0  0
  -29.4386  -19.8237   20.2480 C   0  0  0  0  0  0
  -29.5416  -17.3091   20.4082 C   0  0  0  0  0  0
  -28.3728  -19.4734   19.4550 C   0  0  0  0  0  0
  -30.0213  -21.2747   20.3974 C   0  0  0  0  0  0
  -30.1009  -24.8654   19.4006 C   0  0  0  0  0  0
  -30.5578  -23.7466   20.3621 C   0  0  0  0  0  0
  -28.2696  -23.4864   20.2035 C   0  0  0  0  0  0
  -28.5713  -24.9753   19.5304 C   0  0  1  0  0  0
  -29.5612  -22.6446   20.3071 N   0  0  0  0  0  0
  -27.5140  -20.2754   18.7107 N   0  0  0  0  0  0
  -29.7245  -15.9521   20.8240 N   0  0  0  0  0  0
  -31.3408  -21.1648   20.6512 N   0  3  0  0  0  0
  -28.0335  -25.0134   18.2265 O   0  0  0  0  0  0
  -28.1614  -17.7107   19.3867 S   0  0  0  0  0  0
  -31.4818  -12.6863   19.1888 H   0  0  0  0  0  0
  -30.4307  -11.5592   19.9947 H   0  0  0  0  0  0
  -29.8244  -11.7415   17.5601 H   0  0  0  0  0  0
  -29.6266  -13.4692   17.7178 H   0  0  0  0  0  0
  -27.9279  -11.2804   18.9474 H   0  0  0  0  0  0
  -27.3907  -12.4924   17.8141 H   0  0  0  0  0  0
  -27.6248  -14.2531   19.4604 H   0  0  0  0  0  0
  -28.7457  -12.1943   21.4242 H   0  0  0  0  0  0
  -28.3897  -13.8563   21.8106 H   0  0  0  0  0  0
  -25.2776   -9.5663   22.4763 H   0  0  0  0  0  0
  -23.9998   -7.4627   22.7474 H   0  0  0  0  0  0
  -21.0843   -8.8789   19.8961 H   0  0  0  0  0  0
  -22.3715  -10.9682   19.6170 H   0  0  0  0  0  0
  -21.2006   -7.6150   23.9723 H   0  0  0  0  0  0
  -21.1486   -6.0524   25.9086 H   0  0  0  0  0  0
  -22.0592   -2.7609   23.2849 H   0  0  0  0  0  0
  -22.4079  -11.9881   22.4827 H   0  0  0  0  0  0
  -21.1083  -13.1249   22.2638 H   0  0  0  0  0  0
  -24.6432  -15.8396   20.5235 H   0  0  0  0  0  0
  -26.2556  -15.6375   20.0667 H   0  0  0  0  0  0
  -26.7238  -32.5319   23.1004 H   0  0  0  0  0  0
  -25.0068  -33.9637   25.0330 H   0  0  0  0  0  0
  -22.7391  -31.2905   21.3821 H   0  0  0  0  0  0
  -23.3750  -35.9594   23.3296 H   0  0  0  0  0  0
  -24.3568  -36.8904   22.2059 H   0  0  0  0  0  0
  -23.7247  -37.6459   23.6686 H   0  0  0  0  0  0
  -26.1419  -31.4920   20.6115 H   0  0  0  0  0  0
  -26.8627  -30.7790   22.0209 H   0  0  0  0  0  0
  -28.1178  -28.8439   21.2198 H   0  0  0  0  0  0
  -25.9072  -25.8239   19.0646 H   0  0  0  0  0  0
  -23.9703  -27.2752   19.0139 H   0  0  0  0  0  0
  -23.7918  -30.5694   19.3960 H   0  0  0  0  0  0
  -22.7764  -29.2343   19.8441 H   0  0  0  0  0  0
  -25.1309  -36.1863   25.0810 H   0  0  0  0  0  0
  -21.0000  -28.3293   24.1372 H   0  0  0  0  0  0
  -20.5669  -26.2323   23.3621 H   0  0  0  0  0  0
  -21.6652  -26.7421   22.1209 H   0  0  0  0  0  0
  -19.6916  -25.6280   21.1259 H   0  0  0  0  0  0
  -19.6699  -27.3173   20.6730 H   0  0  0  0  0  0
  -17.4207  -26.6676   21.4029 H   0  0  0  0  0  0
  -18.0340  -26.0080   22.9027 H   0  0  0  0  0  0
  -19.7952  -30.7291   24.2238 H   0  0  0  0  0  0
  -17.5025  -31.6270   24.5166 H   0  0  0  0  0  0
  -15.5362  -30.2980   23.7670 H   0  0  0  0  0  0
  -15.8689  -28.0817   22.7075 H   0  0  0  0  0  0
  -24.5867  -30.7140   25.7743 H   0  0  0  0  0  0
  -24.8932  -32.2951   26.4825 H   0  0  0  0  0  0
  -25.8002  -30.8940   27.0210 H   0  0  0  0  0  0
  -26.2993  -29.6705   24.1270 H   0  0  0  0  0  0
  -27.3998  -29.7276   25.4836 H   0  0  0  0  0  0
  -27.8893  -30.4232   23.9578 H   0  0  0  0  0  0
  -27.2617  -33.3651   26.2041 H   0  0  0  0  0  0
  -28.3862  -32.6915   25.0337 H   0  0  0  0  0  0
  -28.0697  -31.8504   26.5438 H   0  0  0  0  0  0
  -28.2585  -38.0087   24.7500 H   0  0  0  0  0  0
  -28.1074  -36.2614   24.6300 H   0  0  0  0  0  0
  -27.2291  -37.1446   25.8868 H   0  0  0  0  0  0
  -20.9431  -29.8753   21.6812 H   0  0  0  0  0  0
  -26.0151  -38.2815   24.1407 H   0  0  0  0  0  0
  -30.9258  -18.6446   21.4515 H   0  0  0  0  0  0
  -30.3846  -24.5986   18.3810 H   0  0  0  0  0  0
  -30.5734  -25.8200   19.6345 H   0  0  0  0  0  0
  -30.6044  -24.1211   21.3856 H   0  0  0  0  0  0
  -31.5657  -23.4574   20.0722 H   0  0  0  0  0  0
  -27.5223  -22.9629   19.6088 H   0  0  0  0  0  0
  -27.8538  -23.6269   21.2011 H   0  0  0  0  0  0
  -27.6880  -21.2448   18.4705 H   0  0  0  0  0  0
  -26.8109  -19.8615   18.1046 H   0  0  0  0  0  0
  -28.8685  -15.5701   21.1970 H   0  0  0  0  0  0
  -31.7835  -20.2597   20.6514 H   0  0  0  0  0  0
  -31.9208  -21.9707   20.8212 H   0  0  0  0  0  0
  -28.4428  -25.7393   17.7701 H   0  0  0  0  0  0
  1 25  1  0  0  0
  1 30  2  0  0  0
  1 82  1  0  0  0
  2  3  1  0  0  0
  2 25  1  0  0  0
  2 86  1  0  0  0
  2 87  1  0  0  0
  3  4  1  0  0  0
  3 88  1  0  0  0
  3 89  1  0  0  0
  4  5  1  0  0  0
  4 90  1  0  0  0
  4 91  1  0  0  0
  5  6  1  0  0  0
  5 26  1  0  0  0
  5 92  1  0  0  0
  6 25  1  0  0  0
  6 93  1  0  0  0
  6 94  1  0  0  0
  7  8  2  0  0  0
  7 26  1  0  0  0
  7 29  1  0  0  0
  8  9  1  0  0  0
  8 22  1  0  0  0
  9 10  1  0  0  0
  9 27  2  0  0  0
 10 11  2  0  0  0
 10 15  1  0  0  0
 11 12  1  0  0  0
 11 95  1  0  0  0
 12 13  2  0  0  0
 12 96  1  0  0  0
 13 14  1  0  0  0
 13 31  1  0  0  0
 14 15  2  0  0  0
 14 97  1  0  0  0
 15 98  1  0  0  0
 16 17  2  0  0  0
 16 21  1  0  0  0
 16 31  1  0  0  0
 17 18  1  0  0  0
 17 99  1  0  0  0
 18 19  2  0  0  0
 18100  1  0  0  0
 19 20  1  0  0  0
 19 24  1  0  0  0
 20 21  2  0  0  0
 20101  1  0  0  0
 21 23  1  0  0  0
 22 28  1  0  0  0
 22 32  2  0  0  0
 26 27  1  0  0  0
 28102  1  0  0  0
 28103  1  0  0  0
 29104  1  0  0  0
 29105  1  0  0  0
 33 34  1  0  0  0
 33 66  1  0  0  0
 33 70  2  0  0  0
 34 36  1  0  0  0
 34 59  1  0  0  0
 34106  1  0  0  0
 35 44  2  0  0  0
 35 45  1  0  0  0
 35 68  1  0  0  0
 36 56  1  0  0  0
 36107  1  0  0  0
 37 39  1  0  0  0
 37 47  1  0  0  0
 37 66  1  0  0  0
 37108  1  0  0  0
 38 43  2  0  0  0
 38 46  1  0  0  0
 38 47  1  0  0  0
 39 64  1  0  0  0
 39 67  2  0  0  0
 40 52  1  0  0  0
 40 53  2  0  0  0
 40 58  1  0  0  0
 41109  1  0  0  0
 41110  1  0  0  0
 41111  1  0  0  0
 41 48  1  0  0  0
 42 43  1  0  0  0
 42 66  1  0  0  0
 42112  1  0  0  0
 42113  1  0  0  0
 43 44  1  0  0  0
 44114  1  0  0  0
 45 46  2  0  0  0
 45115  1  0  0  0
 46116  1  0  0  0
 47117  1  0  0  0
 47118  1  0  0  0
 48 56  1  0  0  0
 48 65  1  0  0  0
 48119  1  0  0  0
 49 50  1  0  0  0
 49 53  1  0  0  0
 49 64  1  0  0  0
 49120  1  0  0  0
 50 51  1  0  0  0
 50121  1  0  0  0
 50122  1  0  0  0
 51 52  1  0  0  0
 51123  1  0  0  0
 51124  1  0  0  0
 52125  1  0  0  0
 52126  1  0  0  0
 53 54  1  0  0  0
 54 55  2  0  0  0
 54127  1  0  0  0
 55 57  1  0  0  0
 55128  1  0  0  0
 56 69  2  0  0  0
 57 58  2  0  0  0
 57129  1  0  0  0
 58130  1  0  0  0
 59 60  1  0  0  0
 59 61  1  0  0  0
 59 62  1  0  0  0
 60131  1  0  0  0
 60132  1  0  0  0
 60133  1  0  0  0
 61134  1  0  0  0
 61135  1  0  0  0
 61136  1  0  0  0
 62137  1  0  0  0
 62138  1  0  0  0
 62139  1  0  0  0
 63 65  1  0  0  0
 63140  1  0  0  0
 63141  1  0  0  0
 63142  1  0  0  0
 64143  1  0  0  0
 65144  1  0  0  0
 68 79  1  0  0  0
 71 72  1  0  0  0
 71 73  2  0  0  0
 71145  1  0  0  0
 72 74  2  0  0  0
 72 75  1  0  0  0
 73 82  1  0  0  0
 73 85  1  0  0  0
 74 81  1  0  0  0
 74 85  1  0  0  0
 75 80  1  0  0  0
 75 83  2  0  0  0
 76 77  1  0  0  0
 76 79  1  0  0  0
 76146  1  0  0  0
 76147  1  0  0  0
 77 80  1  0  0  0
 77148  1  0  0  0
 77149  1  0  0  0
 78 79  1  0  0  0
 78 80  1  0  0  0
 78150  1  0  0  0
 78151  1  0  0  0
 79 84  1  0  0  0
 81152  1  0  0  0
 81153  1  0  0  0
 82154  1  0  0  0
 83155  1  0  0  0
 83156  1  0  0  0
 84157  1  0  0  0
M  CHG  1  83   1
M  ISO  4   1 100  68 101  79 101  82 100
M  END
> <chiral flag>
0

> <version>
0

> <s_m_source_file>
/data/baiqing/PycharmProjects/Reinvent-master-3.2/result/LINK_invent/BTK/process_docking_weight1_custom_product_contain_oxygen_bond_distance_aromatic_linkinvent_7_9_3/rearranged_h_0154.sdf

> <i_m_source_file_index>
12

> <r_mmod_Potential_Energy-OPLS-2005>
412.869842529297

> <r_mmod_Stretch_Energy-OPLS-2005>
195.066757202148

> <r_mmod_Bend_Energy-OPLS-2005>
344.057495117188

> <r_mmod_Torsional_Energy-OPLS-2005>
312.492828369141

> <r_mmod_Improper_Torsional_Energy-OPLS-2005>
7.70801830291748

> <r_mmod_Van_der_Waal_Energy-OPLS-2005>
124.122024536133

> <r_mmod_Electrostatic_Energy-OPLS-2005>
-241.892547607422

> <r_mmod_Solvation_Energy-OPLS-2005>
-472.596099853516

> <b_mmod_Minimization_Converged-OPLS-2005>
0

> <r_mmod_RMS_Derivative-OPLS-2005>
1.04157316684723

$$$$
12
                    3D
 Structure written by MMmdl.
156165  0  0  1  0            999 V2000
  -30.6162  -14.7623   20.4424 C   0  0  0  0  0  0
  -30.4290  -12.4621   19.4870 C   0  0  0  0  0  0
  -29.5125  -12.5069   18.2440 C   0  0  0  0  0  0
  -28.0390  -12.3293   18.6557 C   0  0  0  0  0  0
  -27.6408  -13.2362   19.8510 C   0  0  2  0  0  0
  -28.6833  -13.1872   20.9902 C   0  0  0  0  0  0
  -25.2505  -13.8209   20.5707 C   0  0  0  0  0  0
  -24.1801  -13.0446   20.9213 C   0  0  0  0  0  0
  -24.6398  -11.6925   20.8752 C   0  0  0  0  0  0
  -23.9078  -10.4299   21.0409 C   0  0  0  0  0  0
  -24.3626   -9.4211   21.9186 C   0  0  0  0  0  0
  -23.6298   -8.2247   22.0755 C   0  0  0  0  0  0
  -22.4279   -8.0287   21.3545 C   0  0  0  0  0  0
  -21.9919   -9.0262   20.4647 C   0  0  0  0  0  0
  -22.7250  -10.2140   20.3058 C   0  0  0  0  0  0
  -21.6857   -6.0741   22.5278 C   0  0  0  0  0  0
  -21.4014   -6.5644   23.8211 C   0  0  0  0  0  0
  -21.3658   -5.6795   24.9173 C   0  0  0  0  0  0
  -21.6046   -4.3058   24.7224 C   0  0  0  0  0  0
  -21.8818   -3.8151   23.4344 C   0  0  0  0  0  0
  -21.9193   -4.6968   22.3401 C   0  0  0  0  0  0
  -22.7821  -13.5224   21.1871 C   0  0  0  0  0  0
  -22.1662   -4.2156   21.0978 F   0  0  0  0  0  0
  -21.5627   -3.4540   25.7734 F   0  0  0  0  0  0
  -29.9857  -13.5355   20.4105 N   0  0  0  0  0  0
  -26.2933  -12.9423   20.3288 N   0  0  0  0  0  0
  -25.9330  -11.6560   20.5759 N   0  0  0  0  0  0
  -22.0466  -12.8212   22.0423 N   0  0  0  0  0  0
  -25.4196  -15.1935   20.4124 N   0  0  0  0  0  0
  -31.8074  -14.8262   20.1251 O   0  0  0  0  0  0
  -21.6641   -6.8885   21.4239 O   0  0  0  0  0  0
  -22.3508  -14.5534   20.6721 O   0  0  0  0  0  0
  -24.6334  -31.8543   23.1975 C   0  0  0  0  0  0
  -25.9152  -32.4749   23.8325 C   0  0  1  0  0  0
  -27.2127  -27.2399   20.1339 C   0  0  0  0  0  0
  -25.5942  -33.8552   24.2247 N   0  0  0  0  0  0
  -23.4304  -30.4780   21.5410 C   0  0  2  0  0  0
  -24.8776  -28.9263   20.1060 C   0  0  0  0  0  0
  -22.7516  -29.4599   22.4897 C   0  0  0  0  0  0
  -18.0296  -28.1392   22.8485 C   0  0  0  0  0  0
  -24.1492  -36.7278   23.2641 C   0  0  0  0  0  0
  -25.9791  -30.7599   21.3823 C   0  0  0  0  0  0
  -26.0497  -29.3817   20.7228 C   0  0  0  0  0  0
  -27.2188  -28.5508   20.7275 C   0  0  0  0  0  0
  -26.0234  -26.8723   19.4638 C   0  0  0  0  0  0
  -24.8717  -27.6812   19.4631 C   0  0  0  0  0  0
  -23.6492  -29.8146   20.1560 C   0  0  0  0  0  0
  -25.4118  -36.3061   24.0322 C   0  0  1  0  0  0
  -20.5904  -28.3706   23.1263 C   0  0  2  0  0  0
  -20.6784  -26.9421   22.5407 C   0  0  0  0  0  0
  -19.5755  -26.6383   21.5216 C   0  0  0  0  0  0
  -18.1935  -26.7934   22.1625 C   0  0  0  0  0  0
  -19.1552  -28.8864   23.2870 C   0  0  0  0  0  0
  -18.9472  -30.1467   23.8888 C   0  0  0  0  0  0
  -17.6469  -30.6592   24.0564 C   0  0  0  0  0  0
  -25.9060  -34.9435   23.5083 C   0  0  0  0  0  0
  -16.5361  -29.9086   23.6336 C   0  0  0  0  0  0
  -16.7282  -28.6505   23.0354 C   0  0  0  0  0  0
  -26.4510  -31.6581   25.0723 C   0  0  0  0  0  0
  -25.3719  -31.3741   26.1434 C   0  0  0  0  0  0
  -27.0370  -30.2995   24.6231 C   0  0  0  0  0  0
  -27.6059  -32.4330   25.7494 C   0  0  0  0  0  0
  -27.5576  -37.1795   24.8467 C   0  0  0  0  0  0
  -21.4221  -29.3050   22.3649 N   0  0  0  0  0  0
  -26.4290  -37.3762   23.9407 N   0  0  0  0  0  0
  -24.7000  -31.0494   22.0959 N   0  0  0  0  0  0
  -23.4213  -28.8138   23.2999 O   0  0  0  0  0  0
  -28.2858  -26.3136   20.2271 O   0  0  0  0  0  0
  -26.5636  -34.8914   22.4656 O   0  0  0  0  0  0
  -23.5479  -32.1370   23.7258 O   0  0  0  0  0  0
  -30.9613  -17.5278   19.0754 C   0  0  0  0  0  0
  -31.2466  -18.8139   18.5803 C   0  0  0  0  0  0
  -29.5259  -18.5479   20.7478 C   0  0  0  0  0  0
  -29.8041  -19.9005   20.2498 C   0  0  0  0  0  0
  -30.1174  -17.3271   20.1935 C   0  0  0  0  0  0
  -30.7076  -19.9754   19.1644 C   0  0  0  0  0  0
  -28.7537  -23.7821   20.9947 C   0  0  0  0  0  0
  -29.3773  -21.2269   20.9206 C   0  0  0  0  0  0
  -28.3340  -24.2002   18.7087 C   0  0  0  0  0  0
  -28.5142  -22.6676   18.9434 C   0  0  0  0  0  0
  -28.0125  -24.8265   20.0716 C   0  0  2  0  0  0
  -28.9479  -22.4487   20.3466 N   0  0  0  0  0  0
  -29.8703  -15.9238   20.6590 N   0  0  0  0  0  0
  -29.4828  -21.2007   22.2532 N   0  3  0  0  0  0
  -29.0821  -24.0115   22.1644 O   0  0  0  0  0  0
  -31.1326  -21.1741   18.6996 F   0  0  0  0  0  0
  -31.4720  -12.5751   19.1861 H   0  0  0  0  0  0
  -30.3664  -11.4894   19.9771 H   0  0  0  0  0  0
  -29.7985  -11.7282   17.5356 H   0  0  0  0  0  0
  -29.6390  -13.4575   17.7235 H   0  0  0  0  0  0
  -27.9005  -11.2821   18.9262 H   0  0  0  0  0  0
  -27.3816  -12.5123   17.8050 H   0  0  0  0  0  0
  -27.6316  -14.2550   19.4627 H   0  0  0  0  0  0
  -28.7192  -12.1956   21.4440 H   0  0  0  0  0  0
  -28.4142  -13.8797   21.7893 H   0  0  0  0  0  0
  -25.2770   -9.5688   22.4764 H   0  0  0  0  0  0
  -24.0007   -7.4638   22.7476 H   0  0  0  0  0  0
  -21.0853   -8.8782   19.8951 H   0  0  0  0  0  0
  -22.3711  -10.9679   19.6169 H   0  0  0  0  0  0
  -21.2007   -7.6153   23.9718 H   0  0  0  0  0  0
  -21.1480   -6.0525   25.9077 H   0  0  0  0  0  0
  -22.0598   -2.7613   23.2840 H   0  0  0  0  0  0
  -22.4076  -11.9867   22.4802 H   0  0  0  0  0  0
  -21.1083  -13.1236   22.2631 H   0  0  0  0  0  0
  -24.6500  -15.8451   20.5203 H   0  0  0  0  0  0
  -26.2630  -15.6324   20.0657 H   0  0  0  0  0  0
  -26.7216  -32.5397   23.1062 H   0  0  0  0  0  0
  -25.0093  -33.9694   25.0395 H   0  0  0  0  0  0
  -22.7280  -31.3010   21.3947 H   0  0  0  0  0  0
  -23.3757  -35.9609   23.3305 H   0  0  0  0  0  0
  -24.3583  -36.8904   22.2056 H   0  0  0  0  0  0
  -23.7249  -37.6478   23.6669 H   0  0  0  0  0  0
  -26.1229  -31.5200   20.6132 H   0  0  0  0  0  0
  -26.8551  -30.8070   22.0171 H   0  0  0  0  0  0
  -28.1101  -28.8891   21.2364 H   0  0  0  0  0  0
  -25.9467  -25.9309   18.9422 H   0  0  0  0  0  0
  -23.9786  -27.3327   18.9624 H   0  0  0  0  0  0
  -23.7744  -30.5920   19.4017 H   0  0  0  0  0  0
  -22.7670  -29.2496   19.8491 H   0  0  0  0  0  0
  -25.1303  -36.1897   25.0815 H   0  0  0  0  0  0
  -20.9998  -28.3288   24.1382 H   0  0  0  0  0  0
  -20.5692  -26.2320   23.3616 H   0  0  0  0  0  0
  -21.6650  -26.7445   22.1193 H   0  0  0  0  0  0
  -19.6920  -25.6293   21.1249 H   0  0  0  0  0  0
  -19.6688  -27.3194   20.6748 H   0  0  0  0  0  0
  -17.4204  -26.6689   21.4025 H   0  0  0  0  0  0
  -18.0329  -26.0079   22.9021 H   0  0  0  0  0  0
  -19.7948  -30.7288   24.2246 H   0  0  0  0  0  0
  -17.5022  -31.6268   24.5172 H   0  0  0  0  0  0
  -15.5361  -30.2984   23.7663 H   0  0  0  0  0  0
  -15.8684  -28.0819   22.7072 H   0  0  0  0  0  0
  -24.5903  -30.7083   25.7759 H   0  0  0  0  0  0
  -24.8902  -32.2916   26.4824 H   0  0  0  0  0  0
  -25.8023  -30.8940   27.0231 H   0  0  0  0  0  0
  -26.2967  -29.6728   24.1247 H   0  0  0  0  0  0
  -27.4042  -29.7271   25.4761 H   0  0  0  0  0  0
  -27.8847  -30.4272   23.9496 H   0  0  0  0  0  0
  -27.2666  -33.3650   26.2027 H   0  0  0  0  0  0
  -28.3887  -32.6861   25.0329 H   0  0  0  0  0  0
  -28.0704  -31.8482   26.5443 H   0  0  0  0  0  0
  -28.2590  -38.0095   24.7508 H   0  0  0  0  0  0
  -28.1073  -36.2623   24.6295 H   0  0  0  0  0  0
  -27.2295  -37.1442   25.8872 H   0  0  0  0  0  0
  -20.9405  -29.8778   21.6859 H   0  0  0  0  0  0
  -26.0164  -38.2836   24.1404 H   0  0  0  0  0  0
  -31.4186  -16.6939   18.5658 H   0  0  0  0  0  0
  -31.9250  -18.9157   17.7466 H   0  0  0  0  0  0
  -28.8694  -18.4531   21.6009 H   0  0  0  0  0  0
  -27.5376  -24.3935   17.9902 H   0  0  0  0  0  0
  -29.2492  -24.6278   18.2986 H   0  0  0  0  0  0
  -29.1937  -22.2570   18.2013 H   0  0  0  0  0  0
  -27.5590  -22.1588   18.8024 H   0  0  0  0  0  0
  -26.9699  -24.6293   20.3192 H   0  0  0  0  0  0
  -28.9683  -15.7637   21.0810 H   0  0  0  0  0  0
  -29.8405  -20.3853   22.7243 H   0  0  0  0  0  0
  -29.3357  -22.0545   22.7761 H   0  0  0  0  0  0
  1 25  1  0  0  0
  1 30  2  0  0  0
  1 83  1  0  0  0
  2  3  1  0  0  0
  2 25  1  0  0  0
  2 87  1  0  0  0
  2 88  1  0  0  0
  3  4  1  0  0  0
  3 89  1  0  0  0
  3 90  1  0  0  0
  4  5  1  0  0  0
  4 91  1  0  0  0
  4 92  1  0  0  0
  5  6  1  0  0  0
  5 26  1  0  0  0
  5 93  1  0  0  0
  6 25  1  0  0  0
  6 94  1  0  0  0
  6 95  1  0  0  0
  7  8  2  0  0  0
  7 26  1  0  0  0
  7 29  1  0  0  0
  8  9  1  0  0  0
  8 22  1  0  0  0
  9 10  1  0  0  0
  9 27  2  0  0  0
 10 11  2  0  0  0
 10 15  1  0  0  0
 11 12  1  0  0  0
 11 96  1  0  0  0
 12 13  2  0  0  0
 12 97  1  0  0  0
 13 14  1  0  0  0
 13 31  1  0  0  0
 14 15  2  0  0  0
 14 98  1  0  0  0
 15 99  1  0  0  0
 16 17  2  0  0  0
 16 21  1  0  0  0
 16 31  1  0  0  0
 17 18  1  0  0  0
 17100  1  0  0  0
 18 19  2  0  0  0
 18101  1  0  0  0
 19 20  1  0  0  0
 19 24  1  0  0  0
 20 21  2  0  0  0
 20102  1  0  0  0
 21 23  1  0  0  0
 22 28  1  0  0  0
 22 32  2  0  0  0
 26 27  1  0  0  0
 28103  1  0  0  0
 28104  1  0  0  0
 29105  1  0  0  0
 29106  1  0  0  0
 33 34  1  0  0  0
 33 66  1  0  0  0
 33 70  2  0  0  0
 34 36  1  0  0  0
 34 59  1  0  0  0
 34107  1  0  0  0
 35 44  2  0  0  0
 35 45  1  0  0  0
 35 68  1  0  0  0
 36 56  1  0  0  0
 36108  1  0  0  0
 37 39  1  0  0  0
 37 47  1  0  0  0
 37 66  1  0  0  0
 37109  1  0  0  0
 38 43  2  0  0  0
 38 46  1  0  0  0
 38 47  1  0  0  0
 39 64  1  0  0  0
 39 67  2  0  0  0
 40 52  1  0  0  0
 40 53  2  0  0  0
 40 58  1  0  0  0
 41110  1  0  0  0
 41111  1  0  0  0
 41112  1  0  0  0
 41 48  1  0  0  0
 42 43  1  0  0  0
 42 66  1  0  0  0
 42113  1  0  0  0
 42114  1  0  0  0
 43 44  1  0  0  0
 44115  1  0  0  0
 45 46  2  0  0  0
 45116  1  0  0  0
 46117  1  0  0  0
 47118  1  0  0  0
 47119  1  0  0  0
 48 56  1  0  0  0
 48 65  1  0  0  0
 48120  1  0  0  0
 49 50  1  0  0  0
 49 53  1  0  0  0
 49 64  1  0  0  0
 49121  1  0  0  0
 50 51  1  0  0  0
 50122  1  0  0  0
 50123  1  0  0  0
 51 52  1  0  0  0
 51124  1  0  0  0
 51125  1  0  0  0
 52126  1  0  0  0
 52127  1  0  0  0
 53 54  1  0  0  0
 54 55  2  0  0  0
 54128  1  0  0  0
 55 57  1  0  0  0
 55129  1  0  0  0
 56 69  2  0  0  0
 57 58  2  0  0  0
 57130  1  0  0  0
 58131  1  0  0  0
 59 60  1  0  0  0
 59 61  1  0  0  0
 59 62  1  0  0  0
 60132  1  0  0  0
 60133  1  0  0  0
 60134  1  0  0  0
 61135  1  0  0  0
 61136  1  0  0  0
 61137  1  0  0  0
 62138  1  0  0  0
 62139  1  0  0  0
 62140  1  0  0  0
 63 65  1  0  0  0
 63141  1  0  0  0
 63142  1  0  0  0
 63143  1  0  0  0
 64144  1  0  0  0
 65145  1  0  0  0
 68 81  1  0  0  0
 71 72  2  0  0  0
 71 75  1  0  0  0
 71146  1  0  0  0
 72 76  1  0  0  0
 72147  1  0  0  0
 73 74  1  0  0  0
 73 75  2  0  0  0
 73148  1  0  0  0
 74 76  2  0  0  0
 74 78  1  0  0  0
 75 83  1  0  0  0
 76 86  1  0  0  0
 77 81  1  0  0  0
 77 82  1  0  0  0
 77 85  2  0  0  0
 78 82  1  0  0  0
 78 84  2  0  0  0
 79 80  1  0  0  0
 79 81  1  0  0  0
 79149  1  0  0  0
 79150  1  0  0  0
 80 82  1  0  0  0
 80151  1  0  0  0
 80152  1  0  0  0
 81153  1  0  0  0
 83154  1  0  0  0
 84155  1  0  0  0
 84156  1  0  0  0
M  CHG  1  84   1
M  ISO  4   1 100  68 101  81 101  83 100
M  END
> <chiral flag>
0

> <version>
0

> <s_m_source_file>
/data/baiqing/PycharmProjects/Reinvent-master-3.2/result/LINK_invent/BTK/process_docking_weight1_custom_product_contain_oxygen_bond_distance_aromatic_linkinvent_7_9_3/rearranged_h_0154.sdf

> <i_m_source_file_index>
13

> <r_mmod_Potential_Energy-OPLS-2005>
33.3204917907715

> <r_mmod_Stretch_Energy-OPLS-2005>
140.051895141602

> <r_mmod_Bend_Energy-OPLS-2005>
206.555038452148

> <r_mmod_Torsional_Energy-OPLS-2005>
259.385711669922

> <r_mmod_Improper_Torsional_Energy-OPLS-2005>
5.94968271255493

> <r_mmod_Van_der_Waal_Energy-OPLS-2005>
151.202713012695

> <r_mmod_Electrostatic_Energy-OPLS-2005>
-406.105895996094

> <r_mmod_Solvation_Energy-OPLS-2005>
-422.537261962891

> <b_mmod_Minimization_Converged-OPLS-2005>
0

> <r_mmod_RMS_Derivative-OPLS-2005>
0.585999548435211

$$$$
13
                    3D
 Structure written by MMmdl.
160169  0  0  1  0            999 V2000
  -30.6548  -14.5287   20.5283 C   0  0  0  0  0  0
  -30.4133  -12.3194   19.4592 C   0  0  0  0  0  0
  -29.5056  -12.5203   18.2265 C   0  0  0  0  0  0
  -28.0213  -12.3774   18.6210 C   0  0  0  0  0  0
  -27.6562  -13.2150   19.8779 C   0  0  2  0  0  0
  -28.6880  -13.0214   21.0124 C   0  0  0  0  0  0
  -25.2528  -13.8180   20.5669 C   0  0  0  0  0  0
  -24.1800  -13.0441   20.9178 C   0  0  0  0  0  0
  -24.6369  -11.6910   20.8733 C   0  0  0  0  0  0
  -23.9054  -10.4302   21.0410 C   0  0  0  0  0  0
  -24.3626   -9.4219   21.9174 C   0  0  0  0  0  0
  -23.6301   -8.2248   22.0744 C   0  0  0  0  0  0
  -22.4274   -8.0299   21.3551 C   0  0  0  0  0  0
  -21.9914   -9.0272   20.4650 C   0  0  0  0  0  0
  -22.7240  -10.2137   20.3049 C   0  0  0  0  0  0
  -21.6859   -6.0747   22.5278 C   0  0  0  0  0  0
  -21.4025   -6.5646   23.8223 C   0  0  0  0  0  0
  -21.3646   -5.6790   24.9177 C   0  0  0  0  0  0
  -21.6037   -4.3059   24.7226 C   0  0  0  0  0  0
  -21.8822   -3.8155   23.4351 C   0  0  0  0  0  0
  -21.9198   -4.6966   22.3406 C   0  0  0  0  0  0
  -22.7820  -13.5227   21.1856 C   0  0  0  0  0  0
  -22.1661   -4.2156   21.0978 F   0  0  0  0  0  0
  -21.5614   -3.4536   25.7742 F   0  0  0  0  0  0
  -30.0203  -13.3225   20.4676 N   0  0  0  0  0  0
  -26.2975  -12.9365   20.3343 N   0  0  0  0  0  0
  -25.9293  -11.6518   20.5736 N   0  0  0  0  0  0
  -22.0463  -12.8226   22.0415 N   0  0  0  0  0  0
  -25.4236  -15.1910   20.4086 N   0  0  0  0  0  0
  -31.7970  -14.6870   20.0832 O   0  0  0  0  0  0
  -21.6643   -6.8893   21.4249 O   0  0  0  0  0  0
  -22.3494  -14.5523   20.6680 O   0  0  0  0  0  0
  -24.6200  -31.8653   23.2068 C   0  0  0  0  0  0
  -25.9096  -32.4793   23.8361 C   0  0  1  0  0  0
  -27.2273  -27.3934   20.0966 C   0  0  0  0  0  0
  -25.5949  -33.8588   24.2311 N   0  0  0  0  0  0
  -23.4094  -30.4932   21.5464 C   0  0  2  0  0  0
  -24.8555  -28.9554   20.1088 C   0  0  0  0  0  0
  -22.7439  -29.4655   22.4918 C   0  0  0  0  0  0
  -18.0293  -28.1382   22.8472 C   0  0  0  0  0  0
  -24.1463  -36.7274   23.2618 C   0  0  0  0  0  0
  -25.9431  -30.8210   21.3631 C   0  0  0  0  0  0
  -26.0201  -29.4515   20.7088 C   0  0  0  0  0  0
  -27.2119  -28.6801   20.6968 C   0  0  0  0  0  0
  -26.0469  -26.9286   19.4786 C   0  0  0  0  0  0
  -24.8664  -27.6962   19.4851 C   0  0  0  0  0  0
  -23.6244  -29.8346   20.1569 C   0  0  0  0  0  0
  -25.4064  -36.3076   24.0343 C   0  0  1  0  0  0
  -20.5890  -28.3679   23.1278 C   0  0  2  0  0  0
  -20.6773  -26.9398   22.5413 C   0  0  0  0  0  0
  -19.5762  -26.6396   21.5196 C   0  0  0  0  0  0
  -18.1944  -26.7925   22.1612 C   0  0  0  0  0  0
  -19.1546  -28.8838   23.2885 C   0  0  0  0  0  0
  -18.9478  -30.1433   23.8914 C   0  0  0  0  0  0
  -17.6485  -30.6576   24.0572 C   0  0  0  0  0  0
  -25.9034  -34.9460   23.5112 C   0  0  0  0  0  0
  -16.5374  -29.9091   23.6319 C   0  0  0  0  0  0
  -16.7283  -28.6513   23.0323 C   0  0  0  0  0  0
  -26.4510  -31.6566   25.0693 C   0  0  0  0  0  0
  -25.3778  -31.3723   26.1454 C   0  0  0  0  0  0
  -27.0306  -30.2988   24.6064 C   0  0  0  0  0  0
  -27.6085  -32.4261   25.7480 C   0  0  0  0  0  0
  -27.5590  -37.1719   24.8406 C   0  0  0  0  0  0
  -21.4165  -29.3038   22.3663 N   0  0  0  0  0  0
  -26.4207  -37.3807   23.9503 N   0  0  0  0  0  0
  -24.6764  -31.0735   22.0982 N   0  0  0  0  0  0
  -23.4191  -28.8188   23.2969 O   0  0  0  0  0  0
  -28.3571  -26.5860   20.1002 O   0  0  0  0  0  0
  -26.5591  -34.8936   22.4666 O   0  0  0  0  0  0
  -23.5388  -32.1425   23.7455 O   0  0  0  0  0  0
  -29.9063  -18.5006   18.9058 C   0  0  0  0  0  0
  -30.0720  -17.0918   19.0584 C   0  0  0  0  0  0
  -29.5684  -19.0229   20.1267 C   0  0  0  0  0  0
  -29.8875  -16.8318   20.3877 C   0  0  0  0  0  0
  -29.2774  -20.3753   20.6366 C   0  0  0  0  0  0
  -26.6742  -21.8356   18.6570 C   0  0  0  0  0  0
  -26.6092  -22.4657   20.0558 C   0  0  0  0  0  0
  -28.0446  -21.1387   18.5922 C   0  0  0  0  0  0
  -28.0825  -22.6438   20.4569 C   0  0  2  0  0  0
  -28.6372  -24.0042   19.8678 C   0  0  0  0  0  0
  -28.1764  -25.2633   20.6857 C   0  0  0  0  0  0
  -28.6441  -21.3645   19.9155 N   0  0  0  0  0  0
  -29.9160  -15.5838   20.9612 N   0  0  0  0  0  0
  -29.6523  -20.6181   21.9019 N   0  3  0  0  0  0
  -29.5473  -17.9889   21.0574 O   0  0  0  0  0  0
  -31.4638  -12.4003   19.1761 H   0  0  0  0  0  0
  -30.2899  -11.3117   19.8605 H   0  0  0  0  0  0
  -29.7574  -11.8032   17.4447 H   0  0  0  0  0  0
  -29.6788  -13.5098   17.8000 H   0  0  0  0  0  0
  -27.8276  -11.3212   18.8081 H   0  0  0  0  0  0
  -27.3820  -12.6624   17.7834 H   0  0  0  0  0  0
  -27.6928  -14.2621   19.5765 H   0  0  0  0  0  0
  -28.6583  -11.9957   21.3830 H   0  0  0  0  0  0
  -28.4404  -13.6475   21.8706 H   0  0  0  0  0  0
  -25.2778   -9.5685   22.4740 H   0  0  0  0  0  0
  -24.0022   -7.4628   22.7448 H   0  0  0  0  0  0
  -21.0845   -8.8806   19.8959 H   0  0  0  0  0  0
  -22.3723  -10.9683   19.6151 H   0  0  0  0  0  0
  -21.2037   -7.6153   23.9722 H   0  0  0  0  0  0
  -21.1445   -6.0520   25.9072 H   0  0  0  0  0  0
  -22.0612   -2.7621   23.2847 H   0  0  0  0  0  0
  -22.4086  -11.9913   22.4864 H   0  0  0  0  0  0
  -21.1055  -13.1237   22.2568 H   0  0  0  0  0  0
  -24.6561  -15.8474   20.5138 H   0  0  0  0  0  0
  -26.2804  -15.6341   20.0994 H   0  0  0  0  0  0
  -26.7169  -32.5502   23.1129 H   0  0  0  0  0  0
  -25.0145  -33.9742   25.0488 H   0  0  0  0  0  0
  -22.6999  -31.3119   21.4090 H   0  0  0  0  0  0
  -23.3747  -35.9578   23.3222 H   0  0  0  0  0  0
  -24.3580  -36.8936   22.2043 H   0  0  0  0  0  0
  -23.7178  -37.6453   23.6644 H   0  0  0  0  0  0
  -26.0538  -31.5863   20.5925 H   0  0  0  0  0  0
  -26.8302  -30.8792   21.9809 H   0  0  0  0  0  0
  -28.1070  -29.0588   21.1694 H   0  0  0  0  0  0
  -26.0410  -25.9630   18.9919 H   0  0  0  0  0  0
  -23.9757  -27.3138   19.0068 H   0  0  0  0  0  0
  -23.7515  -30.6192   19.4093 H   0  0  0  0  0  0
  -22.7430  -29.2725   19.8434 H   0  0  0  0  0  0
  -25.1199  -36.1886   25.0820 H   0  0  0  0  0  0
  -21.0000  -28.3267   24.1393 H   0  0  0  0  0  0
  -20.5642  -26.2293   23.3616 H   0  0  0  0  0  0
  -21.6648  -26.7417   22.1236 H   0  0  0  0  0  0
  -19.6926  -25.6313   21.1207 H   0  0  0  0  0  0
  -19.6696  -27.3213   20.6726 H   0  0  0  0  0  0
  -17.4206  -26.6662   21.4017 H   0  0  0  0  0  0
  -18.0354  -26.0067   22.9011 H   0  0  0  0  0  0
  -19.7960  -30.7226   24.2303 H   0  0  0  0  0  0
  -17.5051  -31.6241   24.5207 H   0  0  0  0  0  0
  -15.5373  -30.3003   23.7627 H   0  0  0  0  0  0
  -15.8691  -28.0840   22.7010 H   0  0  0  0  0  0
  -24.5954  -30.7046   25.7838 H   0  0  0  0  0  0
  -24.8979  -32.2905   26.4842 H   0  0  0  0  0  0
  -25.8157  -30.8966   27.0238 H   0  0  0  0  0  0
  -26.2831  -29.6775   24.1118 H   0  0  0  0  0  0
  -27.4066  -29.7194   25.4509 H   0  0  0  0  0  0
  -27.8679  -30.4271   23.9201 H   0  0  0  0  0  0
  -27.2684  -33.3521   26.2120 H   0  0  0  0  0  0
  -28.3889  -32.6873   25.0323 H   0  0  0  0  0  0
  -28.0756  -31.8335   26.5357 H   0  0  0  0  0  0
  -28.2405  -38.0216   24.7781 H   0  0  0  0  0  0
  -28.1283  -36.2790   24.5758 H   0  0  0  0  0  0
  -27.2404  -37.0829   25.8810 H   0  0  0  0  0  0
  -20.9320  -29.8758   21.6890 H   0  0  0  0  0  0
  -26.0062  -38.2811   24.1752 H   0  0  0  0  0  0
  -30.0049  -19.0696   17.9928 H   0  0  0  0  0  0
  -30.2984  -16.3675   18.2875 H   0  0  0  0  0  0
  -26.6084  -22.6013   17.8843 H   0  0  0  0  0  0
  -25.8479  -21.1419   18.4966 H   0  0  0  0  0  0
  -26.1187  -21.7809   20.7485 H   0  0  0  0  0  0
  -26.0315  -23.3878   20.0505 H   0  0  0  0  0  0
  -28.6785  -21.5765   17.8218 H   0  0  0  0  0  0
  -27.9098  -20.0835   18.3676 H   0  0  0  0  0  0
  -28.1697  -22.6633   21.5417 H   0  0  0  0  0  0
  -28.3037  -24.1244   18.8375 H   0  0  0  0  0  0
  -29.7251  -23.9842   19.8142 H   0  0  0  0  0  0
  -28.7267  -25.2644   21.6266 H   0  0  0  0  0  0
  -27.1410  -25.1195   20.9926 H   0  0  0  0  0  0
  -29.1374  -15.3595   21.5617 H   0  0  0  0  0  0
  -30.0795  -19.8730   22.4334 H   0  0  0  0  0  0
  -29.5173  -21.5088   22.3513 H   0  0  0  0  0  0
  1 25  1  0  0  0
  1 30  2  0  0  0
  1 83  1  0  0  0
  2  3  1  0  0  0
  2 25  1  0  0  0
  2 86  1  0  0  0
  2 87  1  0  0  0
  3  4  1  0  0  0
  3 88  1  0  0  0
  3 89  1  0  0  0
  4  5  1  0  0  0
  4 90  1  0  0  0
  4 91  1  0  0  0
  5  6  1  0  0  0
  5 26  1  0  0  0
  5 92  1  0  0  0
  6 25  1  0  0  0
  6 93  1  0  0  0
  6 94  1  0  0  0
  7  8  2  0  0  0
  7 26  1  0  0  0
  7 29  1  0  0  0
  8  9  1  0  0  0
  8 22  1  0  0  0
  9 10  1  0  0  0
  9 27  2  0  0  0
 10 11  2  0  0  0
 10 15  1  0  0  0
 11 12  1  0  0  0
 11 95  1  0  0  0
 12 13  2  0  0  0
 12 96  1  0  0  0
 13 14  1  0  0  0
 13 31  1  0  0  0
 14 15  2  0  0  0
 14 97  1  0  0  0
 15 98  1  0  0  0
 16 17  2  0  0  0
 16 21  1  0  0  0
 16 31  1  0  0  0
 17 18  1  0  0  0
 17 99  1  0  0  0
 18 19  2  0  0  0
 18100  1  0  0  0
 19 20  1  0  0  0
 19 24  1  0  0  0
 20 21  2  0  0  0
 20101  1  0  0  0
 21 23  1  0  0  0
 22 28  1  0  0  0
 22 32  2  0  0  0
 26 27  1  0  0  0
 28102  1  0  0  0
 28103  1  0  0  0
 29104  1  0  0  0
 29105  1  0  0  0
 33 34  1  0  0  0
 33 66  1  0  0  0
 33 70  2  0  0  0
 34 36  1  0  0  0
 34 59  1  0  0  0
 34106  1  0  0  0
 35 44  2  0  0  0
 35 45  1  0  0  0
 35 68  1  0  0  0
 36 56  1  0  0  0
 36107  1  0  0  0
 37 39  1  0  0  0
 37 47  1  0  0  0
 37 66  1  0  0  0
 37108  1  0  0  0
 38 43  2  0  0  0
 38 46  1  0  0  0
 38 47  1  0  0  0
 39 64  1  0  0  0
 39 67  2  0  0  0
 40 52  1  0  0  0
 40 53  2  0  0  0
 40 58  1  0  0  0
 41109  1  0  0  0
 41110  1  0  0  0
 41111  1  0  0  0
 41 48  1  0  0  0
 42 43  1  0  0  0
 42 66  1  0  0  0
 42112  1  0  0  0
 42113  1  0  0  0
 43 44  1  0  0  0
 44114  1  0  0  0
 45 46  2  0  0  0
 45115  1  0  0  0
 46116  1  0  0  0
 47117  1  0  0  0
 47118  1  0  0  0
 48 56  1  0  0  0
 48 65  1  0  0  0
 48119  1  0  0  0
 49 50  1  0  0  0
 49 53  1  0  0  0
 49 64  1  0  0  0
 49120  1  0  0  0
 50 51  1  0  0  0
 50121  1  0  0  0
 50122  1  0  0  0
 51 52  1  0  0  0
 51123  1  0  0  0
 51124  1  0  0  0
 52125  1  0  0  0
 52126  1  0  0  0
 53 54  1  0  0  0
 54 55  2  0  0  0
 54127  1  0  0  0
 55 57  1  0  0  0
 55128  1  0  0  0
 56 69  2  0  0  0
 57 58  2  0  0  0
 57129  1  0  0  0
 58130  1  0  0  0
 59 60  1  0  0  0
 59 61  1  0  0  0
 59 62  1  0  0  0
 60131  1  0  0  0
 60132  1  0  0  0
 60133  1  0  0  0
 61134  1  0  0  0
 61135  1  0  0  0
 61136  1  0  0  0
 62137  1  0  0  0
 62138  1  0  0  0
 62139  1  0  0  0
 63 65  1  0  0  0
 63140  1  0  0  0
 63141  1  0  0  0
 63142  1  0  0  0
 64143  1  0  0  0
 65144  1  0  0  0
 68 81  1  0  0  0
 71 72  1  0  0  0
 71 73  2  0  0  0
 71145  1  0  0  0
 72 74  2  0  0  0
 72146  1  0  0  0
 73 75  1  0  0  0
 73 85  1  0  0  0
 74 83  1  0  0  0
 74 85  1  0  0  0
 75 82  1  0  0  0
 75 84  2  0  0  0
 76 77  1  0  0  0
 76 78  1  0  0  0
 76147  1  0  0  0
 76148  1  0  0  0
 77 79  1  0  0  0
 77149  1  0  0  0
 77150  1  0  0  0
 78 82  1  0  0  0
 78151  1  0  0  0
 78152  1  0  0  0
 79 80  1  0  0  0
 79 82  1  0  0  0
 79153  1  0  0  0
 80 81  1  0  0  0
 80154  1  0  0  0
 80155  1  0  0  0
 81156  1  0  0  0
 81157  1  0  0  0
 83158  1  0  0  0
 84159  1  0  0  0
 84160  1  0  0  0
M  CHG  1  84   1
M  ISO  4   1 100  68 101  81 101  83 100
M  END
> <chiral flag>
0

> <version>
0

> <s_m_source_file>
/data/baiqing/PycharmProjects/Reinvent-master-3.2/result/LINK_invent/BTK/process_docking_weight1_custom_product_contain_oxygen_bond_distance_aromatic_linkinvent_7_9_3/rearranged_h_0154.sdf

> <i_m_source_file_index>
14

> <r_mmod_Potential_Energy-OPLS-2005>
-8.30631923675537

> <r_mmod_Stretch_Energy-OPLS-2005>
52.7322998046875

> <r_mmod_Bend_Energy-OPLS-2005>
153.49137878418

> <r_mmod_Torsional_Energy-OPLS-2005>
327.80224609375

> <r_mmod_Improper_Torsional_Energy-OPLS-2005>
5.86892986297607

> <r_mmod_Van_der_Waal_Energy-OPLS-2005>
132.193359375

> <r_mmod_Electrostatic_Energy-OPLS-2005>
-255.208129882812

> <r_mmod_Solvation_Energy-OPLS-2005>
-447.309204101562

> <b_mmod_Minimization_Converged-OPLS-2005>
0

> <r_mmod_RMS_Derivative-OPLS-2005>
3.51288342475891

$$$$
14
                    3D
 Structure written by MMmdl.
152161  0  0  1  0            999 V2000
  -30.6665  -14.5661   20.4829 C   0  0  0  0  0  0
  -30.4236  -12.3408   19.4425 C   0  0  0  0  0  0
  -29.4982  -12.4856   18.2161 C   0  0  0  0  0  0
  -28.0202  -12.3428   18.6305 C   0  0  0  0  0  0
  -27.6514  -13.2139   19.8620 C   0  0  2  0  0  0
  -28.6980  -13.0722   20.9904 C   0  0  0  0  0  0
  -25.2561  -13.8169   20.5705 C   0  0  0  0  0  0
  -24.1814  -13.0436   20.9181 C   0  0  0  0  0  0
  -24.6383  -11.6907   20.8744 C   0  0  0  0  0  0
  -23.9056  -10.4291   21.0412 C   0  0  0  0  0  0
  -24.3608   -9.4209   21.9189 C   0  0  0  0  0  0
  -23.6284   -8.2243   22.0758 C   0  0  0  0  0  0
  -22.4266   -8.0281   21.3547 C   0  0  0  0  0  0
  -21.9898   -9.0257   20.4651 C   0  0  0  0  0  0
  -22.7229  -10.2135   20.3064 C   0  0  0  0  0  0
  -21.6846   -6.0735   22.5282 C   0  0  0  0  0  0
  -21.4013   -6.5639   23.8217 C   0  0  0  0  0  0
  -21.3656   -5.6792   24.9179 C   0  0  0  0  0  0
  -21.6037   -4.3055   24.7228 C   0  0  0  0  0  0
  -21.8817   -3.8147   23.4351 C   0  0  0  0  0  0
  -21.9187   -4.6964   22.3407 C   0  0  0  0  0  0
  -22.7838  -13.5232   21.1843 C   0  0  0  0  0  0
  -22.1650   -4.2151   21.0985 F   0  0  0  0  0  0
  -21.5633   -3.4538   25.7740 F   0  0  0  0  0  0
  -30.0155  -13.3694   20.4138 N   0  0  0  0  0  0
  -26.2985  -12.9346   20.3347 N   0  0  0  0  0  0
  -25.9313  -11.6503   20.5779 N   0  0  0  0  0  0
  -22.0481  -12.8231   22.0403 N   0  0  0  0  0  0
  -25.4301  -15.1890   20.4168 N   0  0  0  0  0  0
  -31.8565  -14.6748   20.1686 O   0  0  0  0  0  0
  -21.6632   -6.8879   21.4244 O   0  0  0  0  0  0
  -22.3523  -14.5539   20.6696 O   0  0  0  0  0  0
  -24.6191  -31.8638   23.2060 C   0  0  0  0  0  0
  -25.9067  -32.4800   23.8373 C   0  0  1  0  0  0
  -27.2293  -27.3865   20.1142 C   0  0  0  0  0  0
  -25.5909  -33.8600   24.2307 N   0  0  0  0  0  0
  -23.4101  -30.4857   21.5469 C   0  0  2  0  0  0
  -24.8578  -28.9446   20.1145 C   0  0  0  0  0  0
  -22.7434  -29.4638   22.4967 C   0  0  0  0  0  0
  -18.0278  -28.1377   22.8490 C   0  0  0  0  0  0
  -24.1490  -36.7306   23.2638 C   0  0  0  0  0  0
  -25.9428  -30.8171   21.3644 C   0  0  0  0  0  0
  -26.0212  -29.4479   20.7109 C   0  0  0  0  0  0
  -27.2139  -28.6795   20.6993 C   0  0  0  0  0  0
  -26.0498  -26.9086   19.5070 C   0  0  0  0  0  0
  -24.8696  -27.6775   19.5055 C   0  0  0  0  0  0
  -23.6217  -29.8166   20.1627 C   0  0  0  0  0  0
  -25.4111  -36.3099   24.0336 C   0  0  1  0  0  0
  -20.5869  -28.3671   23.1307 C   0  0  2  0  0  0
  -20.6767  -26.9401   22.5415 C   0  0  0  0  0  0
  -19.5746  -26.6384   21.5211 C   0  0  0  0  0  0
  -18.1926  -26.7924   22.1622 C   0  0  0  0  0  0
  -19.1525  -28.8841   23.2898 C   0  0  0  0  0  0
  -18.9453  -30.1446   23.8911 C   0  0  0  0  0  0
  -17.6455  -30.6585   24.0562 C   0  0  0  0  0  0
  -25.9040  -34.9464   23.5120 C   0  0  0  0  0  0
  -16.5346  -29.9086   23.6324 C   0  0  0  0  0  0
  -16.7265  -28.6499   23.0349 C   0  0  0  0  0  0
  -26.4481  -31.6589   25.0716 C   0  0  0  0  0  0
  -25.3741  -31.3698   26.1459 C   0  0  0  0  0  0
  -27.0316  -30.3028   24.6114 C   0  0  0  0  0  0
  -27.6056  -32.4308   25.7481 C   0  0  0  0  0  0
  -27.5581  -37.1808   24.8466 C   0  0  0  0  0  0
  -21.4155  -29.3033   22.3709 N   0  0  0  0  0  0
  -26.4296  -37.3784   23.9407 N   0  0  0  0  0  0
  -24.6758  -31.0705   22.0976 N   0  0  0  0  0  0
  -23.4186  -28.8180   23.3026 O   0  0  0  0  0  0
  -28.3690  -26.5979   20.1174 O   0  0  0  0  0  0
  -26.5602  -34.8919   22.4683 O   0  0  0  0  0  0
  -23.5374  -32.1405   23.7430 O   0  0  0  0  0  0
  -29.4145  -19.2425   19.1620 C   0  0  0  0  0  0
  -29.5785  -17.9385   19.7380 C   0  0  0  0  0  0
  -29.4981  -17.9269   21.0707 C   0  0  0  0  0  0
  -29.1975  -20.2476   20.0957 C   0  0  0  0  0  0
  -28.7476  -22.6650   20.5508 C   0  0  0  0  0  0
  -29.8281  -16.5414   19.2535 C   0  0  0  0  0  0
  -29.6812  -16.5605   21.6534 C   0  0  0  0  0  0
  -28.6689  -24.0566   19.8400 C   0  0  0  0  0  0
  -28.2485  -25.2796   20.7298 C   0  0  0  0  0  0
  -29.8618  -15.6703   20.4705 N   0  0  0  0  0  0
  -29.0287  -21.5798   19.7812 N   0  0  0  0  0  0
  -28.5540  -22.5886   21.7662 O   0  0  0  0  0  0
  -29.2005  -19.5248   21.7253 S   0  0  0  0  0  0
  -31.4686  -12.4391   19.1411 H   0  0  0  0  0  0
  -30.3289  -11.3474   19.8836 H   0  0  0  0  0  0
  -29.7483  -11.7352   17.4648 H   0  0  0  0  0  0
  -29.6557  -13.4562   17.7434 H   0  0  0  0  0  0
  -27.8431  -11.2905   18.8560 H   0  0  0  0  0  0
  -27.3681  -12.5858   17.7911 H   0  0  0  0  0  0
  -27.6672  -14.2483   19.5201 H   0  0  0  0  0  0
  -28.6902  -12.0628   21.4041 H   0  0  0  0  0  0
  -28.4669  -13.7447   21.8183 H   0  0  0  0  0  0
  -25.2760   -9.5678   22.4754 H   0  0  0  0  0  0
  -23.9999   -7.4632   22.7470 H   0  0  0  0  0  0
  -21.0834   -8.8777   19.8948 H   0  0  0  0  0  0
  -22.3699  -10.9676   19.6171 H   0  0  0  0  0  0
  -21.2009   -7.6147   23.9720 H   0  0  0  0  0  0
  -21.1478   -6.0529   25.9081 H   0  0  0  0  0  0
  -22.0599   -2.7608   23.2861 H   0  0  0  0  0  0
  -22.4092  -11.9895   22.4794 H   0  0  0  0  0  0
  -21.1104  -13.1271   22.2619 H   0  0  0  0  0  0
  -24.6703  -15.8487   20.5445 H   0  0  0  0  0  0
  -26.2998  -15.6326   20.1496 H   0  0  0  0  0  0
  -26.7135  -32.5498   23.1131 H   0  0  0  0  0  0
  -25.0071  -33.9754   25.0462 H   0  0  0  0  0  0
  -22.7009  -31.3038   21.4048 H   0  0  0  0  0  0
  -23.3747  -35.9645   23.3310 H   0  0  0  0  0  0
  -24.3580  -36.8912   22.2051 H   0  0  0  0  0  0
  -23.7250  -37.6516   23.6647 H   0  0  0  0  0  0
  -26.0604  -31.5820   20.5957 H   0  0  0  0  0  0
  -26.8281  -30.8703   21.9866 H   0  0  0  0  0  0
  -28.1128  -29.0630   21.1614 H   0  0  0  0  0  0
  -26.0411  -25.9348   19.0377 H   0  0  0  0  0  0
  -23.9756  -27.2858   19.0399 H   0  0  0  0  0  0
  -23.7343  -30.5909   19.4030 H   0  0  0  0  0  0
  -22.7446  -29.2394   19.8642 H   0  0  0  0  0  0
  -25.1291  -36.1961   25.0829 H   0  0  0  0  0  0
  -20.9963  -28.3236   24.1427 H   0  0  0  0  0  0
  -20.5672  -26.2272   23.3603 H   0  0  0  0  0  0
  -21.6637  -26.7441   22.1203 H   0  0  0  0  0  0
  -19.6908  -25.6297   21.1234 H   0  0  0  0  0  0
  -19.6690  -27.3199   20.6746 H   0  0  0  0  0  0
  -17.4195  -26.6670   21.4026 H   0  0  0  0  0  0
  -18.0330  -26.0063   22.9017 H   0  0  0  0  0  0
  -19.7927  -30.7257   24.2287 H   0  0  0  0  0  0
  -17.5008  -31.6266   24.5162 H   0  0  0  0  0  0
  -15.5346  -30.2994   23.7641 H   0  0  0  0  0  0
  -15.8661  -28.0824   22.7062 H   0  0  0  0  0  0
  -24.5921  -30.7039   25.7789 H   0  0  0  0  0  0
  -24.8927  -32.2853   26.4904 H   0  0  0  0  0  0
  -25.8093  -30.8866   27.0217 H   0  0  0  0  0  0
  -26.2866  -29.6782   24.1171 H   0  0  0  0  0  0
  -27.4082  -29.7271   25.4579 H   0  0  0  0  0  0
  -27.8703  -30.4337   23.9271 H   0  0  0  0  0  0
  -27.2683  -33.3604   26.2075 H   0  0  0  0  0  0
  -28.3861  -32.6871   25.0304 H   0  0  0  0  0  0
  -28.0731  -31.8420   26.5384 H   0  0  0  0  0  0
  -28.2604  -38.0100   24.7505 H   0  0  0  0  0  0
  -28.1074  -36.2631   24.6304 H   0  0  0  0  0  0
  -27.2296  -37.1471   25.8868 H   0  0  0  0  0  0
  -20.9321  -29.8757   21.6928 H   0  0  0  0  0  0
  -26.0185  -38.2864   24.1401 H   0  0  0  0  0  0
  -29.4639  -19.3961   18.0927 H   0  0  0  0  0  0
  -30.7620  -16.4913   18.6910 H   0  0  0  0  0  0
  -29.0329  -16.2076   18.5862 H   0  0  0  0  0  0
  -30.5522  -16.5309   22.3105 H   0  0  0  0  0  0
  -28.8044  -16.2577   22.2269 H   0  0  0  0  0  0
  -27.9779  -23.9761   19.0010 H   0  0  0  0  0  0
  -29.6499  -24.2581   19.4098 H   0  0  0  0  0  0
  -28.8886  -25.3018   21.6125 H   0  0  0  0  0  0
  -27.2421  -25.1104   21.1172 H   0  0  0  0  0  0
  -29.1382  -21.7977   18.7996 H   0  0  0  0  0  0
  1 25  1  0  0  0
  1 30  2  0  0  0
  1 80  1  0  0  0
  2  3  1  0  0  0
  2 25  1  0  0  0
  2 84  1  0  0  0
  2 85  1  0  0  0
  3  4  1  0  0  0
  3 86  1  0  0  0
  3 87  1  0  0  0
  4  5  1  0  0  0
  4 88  1  0  0  0
  4 89  1  0  0  0
  5  6  1  0  0  0
  5 26  1  0  0  0
  5 90  1  0  0  0
  6 25  1  0  0  0
  6 91  1  0  0  0
  6 92  1  0  0  0
  7  8  2  0  0  0
  7 26  1  0  0  0
  7 29  1  0  0  0
  8  9  1  0  0  0
  8 22  1  0  0  0
  9 10  1  0  0  0
  9 27  2  0  0  0
 10 11  2  0  0  0
 10 15  1  0  0  0
 11 12  1  0  0  0
 11 93  1  0  0  0
 12 13  2  0  0  0
 12 94  1  0  0  0
 13 14  1  0  0  0
 13 31  1  0  0  0
 14 15  2  0  0  0
 14 95  1  0  0  0
 15 96  1  0  0  0
 16 17  2  0  0  0
 16 21  1  0  0  0
 16 31  1  0  0  0
 17 18  1  0  0  0
 17 97  1  0  0  0
 18 19  2  0  0  0
 18 98  1  0  0  0
 19 20  1  0  0  0
 19 24  1  0  0  0
 20 21  2  0  0  0
 20 99  1  0  0  0
 21 23  1  0  0  0
 22 28  1  0  0  0
 22 32  2  0  0  0
 26 27  1  0  0  0
 28100  1  0  0  0
 28101  1  0  0  0
 29102  1  0  0  0
 29103  1  0  0  0
 33 34  1  0  0  0
 33 66  1  0  0  0
 33 70  2  0  0  0
 34 36  1  0  0  0
 34 59  1  0  0  0
 34104  1  0  0  0
 35 44  2  0  0  0
 35 45  1  0  0  0
 35 68  1  0  0  0
 36 56  1  0  0  0
 36105  1  0  0  0
 37 39  1  0  0  0
 37 47  1  0  0  0
 37 66  1  0  0  0
 37106  1  0  0  0
 38 43  2  0  0  0
 38 46  1  0  0  0
 38 47  1  0  0  0
 39 64  1  0  0  0
 39 67  2  0  0  0
 40 52  1  0  0  0
 40 53  2  0  0  0
 40 58  1  0  0  0
 41107  1  0  0  0
 41108  1  0  0  0
 41109  1  0  0  0
 41 48  1  0  0  0
 42 43  1  0  0  0
 42 66  1  0  0  0
 42110  1  0  0  0
 42111  1  0  0  0
 43 44  1  0  0  0
 44112  1  0  0  0
 45 46  2  0  0  0
 45113  1  0  0  0
 46114  1  0  0  0
 47115  1  0  0  0
 47116  1  0  0  0
 48 56  1  0  0  0
 48 65  1  0  0  0
 48117  1  0  0  0
 49 50  1  0  0  0
 49 53  1  0  0  0
 49 64  1  0  0  0
 49118  1  0  0  0
 50 51  1  0  0  0
 50119  1  0  0  0
 50120  1  0  0  0
 51 52  1  0  0  0
 51121  1  0  0  0
 51122  1  0  0  0
 52123  1  0  0  0
 52124  1  0  0  0
 53 54  1  0  0  0
 54 55  2  0  0  0
 54125  1  0  0  0
 55 57  1  0  0  0
 55126  1  0  0  0
 56 69  2  0  0  0
 57 58  2  0  0  0
 57127  1  0  0  0
 58128  1  0  0  0
 59 60  1  0  0  0
 59 61  1  0  0  0
 59 62  1  0  0  0
 60129  1  0  0  0
 60130  1  0  0  0
 60131  1  0  0  0
 61132  1  0  0  0
 61133  1  0  0  0
 61134  1  0  0  0
 62135  1  0  0  0
 62136  1  0  0  0
 62137  1  0  0  0
 63 65  1  0  0  0
 63138  1  0  0  0
 63139  1  0  0  0
 63140  1  0  0  0
 64141  1  0  0  0
 65142  1  0  0  0
 68 79  1  0  0  0
 71 72  1  0  0  0
 71 74  2  0  0  0
 71143  1  0  0  0
 72 73  2  0  0  0
 72 76  1  0  0  0
 73 77  1  0  0  0
 73 83  1  0  0  0
 74 81  1  0  0  0
 74 83  1  0  0  0
 75 78  1  0  0  0
 75 81  1  0  0  0
 75 82  2  0  0  0
 76 80  1  0  0  0
 76144  1  0  0  0
 76145  1  0  0  0
 77 80  1  0  0  0
 77146  1  0  0  0
 77147  1  0  0  0
 78 79  1  0  0  0
 78148  1  0  0  0
 78149  1  0  0  0
 79150  1  0  0  0
 79151  1  0  0  0
 81152  1  0  0  0
M  ISO  4   1 100  68 101  79 101  80 100
M  END
> <chiral flag>
0

> <version>
0

> <s_m_source_file>
/data/baiqing/PycharmProjects/Reinvent-master-3.2/result/LINK_invent/BTK/process_docking_weight1_custom_product_contain_oxygen_bond_distance_aromatic_linkinvent_7_9_3/rearranged_h_0154.sdf

> <i_m_source_file_index>
15

> <r_mmod_Potential_Energy-OPLS-2005>
100.187446594238

> <r_mmod_Stretch_Energy-OPLS-2005>
55.5295791625977

> <r_mmod_Bend_Energy-OPLS-2005>
185.400650024414

> <r_mmod_Torsional_Energy-OPLS-2005>
284.017272949219

> <r_mmod_Improper_Torsional_Energy-OPLS-2005>
16.1771183013916

> <r_mmod_Van_der_Waal_Energy-OPLS-2005>
115.923164367676

> <r_mmod_Electrostatic_Energy-OPLS-2005>
-358.373016357422

> <r_mmod_Solvation_Energy-OPLS-2005>
-227.538513183594

> <b_mmod_Minimization_Converged-OPLS-2005>
0

> <r_mmod_RMS_Derivative-OPLS-2005>
0.815696179866791

$$$$
15
                    3D
 Structure written by MMmdl.
166175  0  0  1  0            999 V2000
  -30.5526  -14.7649   20.5047 C   0  0  0  0  0  0
  -30.4401  -12.4808   19.4755 C   0  0  0  0  0  0
  -29.5274  -12.5349   18.2297 C   0  0  0  0  0  0
  -28.0377  -12.3710   18.6162 C   0  0  0  0  0  0
  -27.6369  -13.2322   19.8445 C   0  0  2  0  0  0
  -28.6709  -13.1344   20.9847 C   0  0  0  0  0  0
  -25.2458  -13.8173   20.5631 C   0  0  0  0  0  0
  -24.1757  -13.0417   20.9182 C   0  0  0  0  0  0
  -24.6355  -11.6917   20.8710 C   0  0  0  0  0  0
  -23.9032  -10.4297   21.0380 C   0  0  0  0  0  0
  -24.3590   -9.4212   21.9161 C   0  0  0  0  0  0
  -23.6263   -8.2235   22.0771 C   0  0  0  0  0  0
  -22.4232   -8.0285   21.3563 C   0  0  0  0  0  0
  -21.9851   -9.0257   20.4646 C   0  0  0  0  0  0
  -22.7205  -10.2130   20.3037 C   0  0  0  0  0  0
  -21.6864   -6.0710   22.5265 C   0  0  0  0  0  0
  -21.4038   -6.5605   23.8196 C   0  0  0  0  0  0
  -21.3661   -5.6753   24.9145 C   0  0  0  0  0  0
  -21.6046   -4.3024   24.7197 C   0  0  0  0  0  0
  -21.8814   -3.8115   23.4325 C   0  0  0  0  0  0
  -21.9196   -4.6937   22.3386 C   0  0  0  0  0  0
  -22.7776  -13.5229   21.1820 C   0  0  0  0  0  0
  -22.1657   -4.2113   21.0967 F   0  0  0  0  0  0
  -21.5616   -3.4523   25.7720 F   0  0  0  0  0  0
  -29.9736  -13.5187   20.4221 N   0  0  0  0  0  0
  -26.2870  -12.9373   20.3130 N   0  0  0  0  0  0
  -25.9272  -11.6535   20.5617 N   0  0  0  0  0  0
  -22.0383  -12.8316   22.0388 N   0  0  0  0  0  0
  -25.4031  -15.1925   20.4005 N   0  0  0  0  0  0
  -31.7470  -14.9077   20.2111 O   0  0  0  0  0  0
  -21.6626   -6.8867   21.4236 O   0  0  0  0  0  0
  -22.3501  -14.5523   20.6633 O   0  0  0  0  0  0
  -24.6299  -31.8601   23.1984 C   0  0  0  0  0  0
  -25.9121  -32.4804   23.8338 C   0  0  1  0  0  0
  -27.1908  -27.2649   20.1266 C   0  0  0  0  0  0
  -25.5906  -33.8598   24.2297 N   0  0  0  0  0  0
  -23.4232  -30.4858   21.5477 C   0  0  2  0  0  0
  -24.8610  -28.9387   20.1056 C   0  0  0  0  0  0
  -22.7495  -29.4641   22.4952 C   0  0  0  0  0  0
  -18.0306  -28.1374   22.8507 C   0  0  0  0  0  0
  -24.1490  -36.7303   23.2632 C   0  0  0  0  0  0
  -25.9679  -30.7730   21.3788 C   0  0  0  0  0  0
  -26.0324  -29.3957   20.7254 C   0  0  0  0  0  0
  -27.1978  -28.5655   20.7299 C   0  0  0  0  0  0
  -26.0097  -26.8920   19.4449 C   0  0  0  0  0  0
  -24.8561  -27.6992   19.4575 C   0  0  0  0  0  0
  -23.6332  -29.8236   20.1611 C   0  0  0  0  0  0
  -25.4109  -36.3128   24.0349 C   0  0  1  0  0  0
  -20.5904  -28.3702   23.1289 C   0  0  2  0  0  0
  -20.6793  -26.9428   22.5418 C   0  0  0  0  0  0
  -19.5770  -26.6382   21.5219 C   0  0  0  0  0  0
  -18.1943  -26.7917   22.1624 C   0  0  0  0  0  0
  -19.1566  -28.8845   23.2890 C   0  0  0  0  0  0
  -18.9455  -30.1442   23.8933 C   0  0  0  0  0  0
  -17.6459  -30.6575   24.0551 C   0  0  0  0  0  0
  -25.9055  -34.9490   23.5139 C   0  0  0  0  0  0
  -16.5359  -29.9078   23.6317 C   0  0  0  0  0  0
  -16.7290  -28.6478   23.0376 C   0  0  0  0  0  0
  -26.4447  -31.6602   25.0715 C   0  0  0  0  0  0
  -25.3622  -31.3709   26.1409 C   0  0  0  0  0  0
  -27.0284  -30.3039   24.6149 C   0  0  0  0  0  0
  -27.6074  -32.4268   25.7440 C   0  0  0  0  0  0
  -27.5607  -37.1795   24.8452 C   0  0  0  0  0  0
  -21.4200  -29.3049   22.3680 N   0  0  0  0  0  0
  -26.4298  -37.3816   23.9427 N   0  0  0  0  0  0
  -24.6939  -31.0573   22.0980 N   0  0  0  0  0  0
  -23.4190  -28.8199   23.3047 O   0  0  0  0  0  0
  -28.2779  -26.3706   20.2228 O   0  0  0  0  0  0
  -26.5632  -34.8957   22.4721 O   0  0  0  0  0  0
  -23.5455  -32.1433   23.7284 O   0  0  0  0  0  0
  -31.0425  -17.9842   21.3268 C   0  0  0  0  0  0
  -28.9526  -18.3279   20.6241 C   0  0  0  0  0  0
  -29.8898  -17.3141   20.8255 C   0  0  0  0  0  0
  -30.7980  -19.3447   21.4175 C   0  0  0  0  0  0
  -31.6257  -20.4136   22.0045 C   0  0  0  0  0  0
  -29.1389  -22.3568   20.3753 C   0  0  0  0  0  0
  -34.0072  -19.5848   22.6266 C   0  0  0  0  0  0
  -34.0517  -19.4332   21.1208 C   0  0  0  0  0  0
  -33.1322  -20.4588   21.7602 C   0  0  0  0  0  0
  -27.6479  -23.5861   22.1016 C   0  0  0  0  0  0
  -29.9528  -24.4568   21.6045 C   0  0  0  0  0  0
  -28.6995  -20.9376   20.9915 C   0  0  0  0  0  0
  -28.1385  -24.8935   19.9437 C   0  0  0  0  0  0
  -28.7022  -23.7942   20.9852 C   0  0  0  0  0  0
  -31.1490  -21.2997   22.7674 N   0  0  0  0  0  0
  -29.4854  -19.6097   20.9590 N   0  0  0  0  0  0
  -29.6941  -15.8466   20.6829 N   0  0  0  0  0  0
  -29.8647  -22.3480   19.3764 O   0  0  0  0  0  0
  -31.4815  -12.6324   19.1862 H   0  0  0  0  0  0
  -30.4058  -11.4942   19.9433 H   0  0  0  0  0  0
  -29.8213  -11.7699   17.5065 H   0  0  0  0  0  0
  -29.6713  -13.4913   17.7222 H   0  0  0  0  0  0
  -27.8532  -11.3223   18.8356 H   0  0  0  0  0  0
  -27.4053  -12.6241   17.7638 H   0  0  0  0  0  0
  -27.6352  -14.2608   19.4888 H   0  0  0  0  0  0
  -28.7046  -12.1216   21.3915 H   0  0  0  0  0  0
  -28.3924  -13.7858   21.8167 H   0  0  0  0  0  0
  -25.2729   -9.5707   22.4749 H   0  0  0  0  0  0
  -23.9963   -7.4635   22.7524 H   0  0  0  0  0  0
  -21.0758   -8.8800   19.8971 H   0  0  0  0  0  0
  -22.3650  -10.9678   19.6162 H   0  0  0  0  0  0
  -21.2069   -7.6114   23.9697 H   0  0  0  0  0  0
  -21.1478   -6.0470   25.9049 H   0  0  0  0  0  0
  -22.0600   -2.7585   23.2826 H   0  0  0  0  0  0
  -22.3945  -12.0047   22.4951 H   0  0  0  0  0  0
  -21.1035  -13.1483   22.2477 H   0  0  0  0  0  0
  -24.6050  -15.8151   20.4632 H   0  0  0  0  0  0
  -26.2010  -15.6267   19.9566 H   0  0  0  0  0  0
  -26.7192  -32.5449   23.1081 H   0  0  0  0  0  0
  -24.9989  -33.9733   25.0394 H   0  0  0  0  0  0
  -22.7216  -31.3087   21.4090 H   0  0  0  0  0  0
  -23.3804  -35.9582   23.3243 H   0  0  0  0  0  0
  -24.3620  -36.8963   22.2065 H   0  0  0  0  0  0
  -23.7176  -37.6467   23.6664 H   0  0  0  0  0  0
  -26.1040  -31.5336   20.6080 H   0  0  0  0  0  0
  -26.8486  -30.8262   22.0048 H   0  0  0  0  0  0
  -28.0914  -28.8987   21.2390 H   0  0  0  0  0  0
  -25.9341  -25.9732   18.8848 H   0  0  0  0  0  0
  -23.9676  -27.3633   18.9401 H   0  0  0  0  0  0
  -23.7432  -30.5987   19.4040 H   0  0  0  0  0  0
  -22.7506  -29.2517   19.8704 H   0  0  0  0  0  0
  -25.1283  -36.1995   25.0840 H   0  0  0  0  0  0
  -21.0017  -28.3272   24.1403 H   0  0  0  0  0  0
  -20.5729  -26.2292   23.3608 H   0  0  0  0  0  0
  -21.6658  -26.7465   22.1196 H   0  0  0  0  0  0
  -19.6927  -25.6291   21.1261 H   0  0  0  0  0  0
  -19.6703  -27.3179   20.6741 H   0  0  0  0  0  0
  -17.4220  -26.6709   21.4010 H   0  0  0  0  0  0
  -18.0327  -26.0045   22.9008 H   0  0  0  0  0  0
  -19.7928  -30.7243   24.2338 H   0  0  0  0  0  0
  -17.5009  -31.6286   24.5118 H   0  0  0  0  0  0
  -15.5357  -30.2980   23.7611 H   0  0  0  0  0  0
  -15.8690  -28.0774   22.7122 H   0  0  0  0  0  0
  -24.5802  -30.7104   25.7628 H   0  0  0  0  0  0
  -24.8781  -32.2867   26.4837 H   0  0  0  0  0  0
  -25.7875  -30.8809   27.0182 H   0  0  0  0  0  0
  -26.2863  -29.6805   24.1163 H   0  0  0  0  0  0
  -27.4005  -29.7284   25.4631 H   0  0  0  0  0  0
  -27.8719  -30.4360   23.9365 H   0  0  0  0  0  0
  -27.2818  -33.3614   26.2006 H   0  0  0  0  0  0
  -28.3856  -32.6737   25.0202 H   0  0  0  0  0  0
  -28.0762  -31.8362   26.5320 H   0  0  0  0  0  0
  -28.2586  -38.0129   24.7625 H   0  0  0  0  0  0
  -28.1154  -36.2698   24.6130 H   0  0  0  0  0  0
  -27.2363  -37.1273   25.8853 H   0  0  0  0  0  0
  -20.9385  -29.8717   21.6843 H   0  0  0  0  0  0
  -26.0209  -38.2903   24.1439 H   0  0  0  0  0  0
  -31.9444  -17.5029   21.6776 H   0  0  0  0  0  0
  -27.9176  -18.2543   20.3042 H   0  0  0  0  0  0
  -34.8312  -20.0791   23.1353 H   0  0  0  0  0  0
  -33.5025  -18.8168   23.2128 H   0  0  0  0  0  0
  -33.6278  -18.5400   20.6646 H   0  0  0  0  0  0
  -34.9425  -19.8179   20.6235 H   0  0  0  0  0  0
  -33.4467  -21.4953   21.6355 H   0  0  0  0  0  0
  -28.0393  -23.0109   22.9417 H   0  0  0  0  0  0
  -26.7645  -23.0657   21.7258 H   0  0  0  0  0  0
  -27.3147  -24.5418   22.5083 H   0  0  0  0  0  0
  -30.3812  -23.8682   22.4160 H   0  0  0  0  0  0
  -29.7202  -25.4376   22.0226 H   0  0  0  0  0  0
  -30.7245  -24.6210   20.8511 H   0  0  0  0  0  0
  -27.7418  -20.7253   20.5155 H   0  0  0  0  0  0
  -28.4484  -21.1032   22.0376 H   0  0  0  0  0  0
  -27.1063  -24.5919   19.7874 H   0  0  0  0  0  0
  -28.6117  -24.7388   18.9738 H   0  0  0  0  0  0
  -30.1596  -21.1627   22.9232 H   0  0  0  0  0  0
  -28.7256  -15.5624   20.6855 H   0  0  0  0  0  0
  1 25  1  0  0  0
  1 30  2  0  0  0
  1 87  1  0  0  0
  2  3  1  0  0  0
  2 25  1  0  0  0
  2 89  1  0  0  0
  2 90  1  0  0  0
  3  4  1  0  0  0
  3 91  1  0  0  0
  3 92  1  0  0  0
  4  5  1  0  0  0
  4 93  1  0  0  0
  4 94  1  0  0  0
  5  6  1  0  0  0
  5 26  1  0  0  0
  5 95  1  0  0  0
  6 25  1  0  0  0
  6 96  1  0  0  0
  6 97  1  0  0  0
  7  8  2  0  0  0
  7 26  1  0  0  0
  7 29  1  0  0  0
  8  9  1  0  0  0
  8 22  1  0  0  0
  9 10  1  0  0  0
  9 27  2  0  0  0
 10 11  2  0  0  0
 10 15  1  0  0  0
 11 12  1  0  0  0
 11 98  1  0  0  0
 12 13  2  0  0  0
 12 99  1  0  0  0
 13 14  1  0  0  0
 13 31  1  0  0  0
 14 15  2  0  0  0
 14100  1  0  0  0
 15101  1  0  0  0
 16 17  2  0  0  0
 16 21  1  0  0  0
 16 31  1  0  0  0
 17 18  1  0  0  0
 17102  1  0  0  0
 18 19  2  0  0  0
 18103  1  0  0  0
 19 20  1  0  0  0
 19 24  1  0  0  0
 20 21  2  0  0  0
 20104  1  0  0  0
 21 23  1  0  0  0
 22 28  1  0  0  0
 22 32  2  0  0  0
 26 27  1  0  0  0
 28105  1  0  0  0
 28106  1  0  0  0
 29107  1  0  0  0
 29108  1  0  0  0
 33 34  1  0  0  0
 33 66  1  0  0  0
 33 70  2  0  0  0
 34 36  1  0  0  0
 34 59  1  0  0  0
 34109  1  0  0  0
 35 44  2  0  0  0
 35 45  1  0  0  0
 35 68  1  0  0  0
 36 56  1  0  0  0
 36110  1  0  0  0
 37 39  1  0  0  0
 37 47  1  0  0  0
 37 66  1  0  0  0
 37111  1  0  0  0
 38 43  2  0  0  0
 38 46  1  0  0  0
 38 47  1  0  0  0
 39 64  1  0  0  0
 39 67  2  0  0  0
 40 52  1  0  0  0
 40 53  2  0  0  0
 40 58  1  0  0  0
 41112  1  0  0  0
 41113  1  0  0  0
 41114  1  0  0  0
 41 48  1  0  0  0
 42 43  1  0  0  0
 42 66  1  0  0  0
 42115  1  0  0  0
 42116  1  0  0  0
 43 44  1  0  0  0
 44117  1  0  0  0
 45 46  2  0  0  0
 45118  1  0  0  0
 46119  1  0  0  0
 47120  1  0  0  0
 47121  1  0  0  0
 48 56  1  0  0  0
 48 65  1  0  0  0
 48122  1  0  0  0
 49 50  1  0  0  0
 49 53  1  0  0  0
 49 64  1  0  0  0
 49123  1  0  0  0
 50 51  1  0  0  0
 50124  1  0  0  0
 50125  1  0  0  0
 51 52  1  0  0  0
 51126  1  0  0  0
 51127  1  0  0  0
 52128  1  0  0  0
 52129  1  0  0  0
 53 54  1  0  0  0
 54 55  2  0  0  0
 54130  1  0  0  0
 55 57  1  0  0  0
 55131  1  0  0  0
 56 69  2  0  0  0
 57 58  2  0  0  0
 57132  1  0  0  0
 58133  1  0  0  0
 59 60  1  0  0  0
 59 61  1  0  0  0
 59 62  1  0  0  0
 60134  1  0  0  0
 60135  1  0  0  0
 60136  1  0  0  0
 61137  1  0  0  0
 61138  1  0  0  0
 61139  1  0  0  0
 62140  1  0  0  0
 62141  1  0  0  0
 62142  1  0  0  0
 63 65  1  0  0  0
 63143  1  0  0  0
 63144  1  0  0  0
 63145  1  0  0  0
 64146  1  0  0  0
 65147  1  0  0  0
 68 83  1  0  0  0
 71 73  1  0  0  0
 71 74  2  0  0  0
 71148  1  0  0  0
 72 73  2  0  0  0
 72 86  1  0  0  0
 72149  1  0  0  0
 73 87  1  0  0  0
 74 75  1  0  0  0
 74 86  1  0  0  0
 75 85  2  0  0  0
 75 79  1  0  0  0
 76 82  1  0  0  0
 76 84  1  0  0  0
 76 88  2  0  0  0
 77 78  1  0  0  0
 77 79  1  0  0  0
 77150  1  0  0  0
 77151  1  0  0  0
 78 79  1  0  0  0
 78152  1  0  0  0
 78153  1  0  0  0
 79154  1  0  0  0
 80155  1  0  0  0
 80156  1  0  0  0
 80157  1  0  0  0
 80 84  1  0  0  0
 81 84  1  0  0  0
 81158  1  0  0  0
 81159  1  0  0  0
 81160  1  0  0  0
 82 86  1  0  0  0
 82161  1  0  0  0
 82162  1  0  0  0
 83 84  1  0  0  0
 83163  1  0  0  0
 83164  1  0  0  0
 85165  1  0  0  0
 87166  1  0  0  0
M  ISO  4   1 100  68 101  83 101  87 100
M  END
> <chiral flag>
0

> <version>
0

> <s_m_source_file>
/data/baiqing/PycharmProjects/Reinvent-master-3.2/result/LINK_invent/BTK/process_docking_weight1_custom_product_contain_oxygen_bond_distance_aromatic_linkinvent_7_9_3/rearranged_h_0154.sdf

> <i_m_source_file_index>
16

> <r_mmod_Potential_Energy-OPLS-2005>
274.509490966797

> <r_mmod_Stretch_Energy-OPLS-2005>
127.812698364258

> <r_mmod_Bend_Energy-OPLS-2005>
195.626647949219

> <r_mmod_Torsional_Energy-OPLS-2005>
283.016174316406

> <r_mmod_Improper_Torsional_Energy-OPLS-2005>
8.43903064727783

> <r_mmod_Van_der_Waal_Energy-OPLS-2005>
123.009979248047

> <r_mmod_Electrostatic_Energy-OPLS-2005>
-325.364013671875

> <r_mmod_Solvation_Energy-OPLS-2005>
-231.770065307617

> <b_mmod_Minimization_Converged-OPLS-2005>
0

> <r_mmod_RMS_Derivative-OPLS-2005>
6.96657848358154

$$$$
16
                    3D
 Structure written by MMmdl.
158167  0  0  1  0            999 V2000
  -30.6597  -14.5665   20.5164 C   0  0  0  0  0  0
  -30.4302  -12.3481   19.4445 C   0  0  0  0  0  0
  -29.5013  -12.4889   18.2190 C   0  0  0  0  0  0
  -28.0239  -12.3410   18.6315 C   0  0  0  0  0  0
  -27.6534  -13.2106   19.8612 C   0  0  2  0  0  0
  -28.6964  -13.0487   20.9911 C   0  0  0  0  0  0
  -25.2562  -13.8156   20.5663 C   0  0  0  0  0  0
  -24.1818  -13.0433   20.9175 C   0  0  0  0  0  0
  -24.6377  -11.6901   20.8725 C   0  0  0  0  0  0
  -23.9044  -10.4285   21.0391 C   0  0  0  0  0  0
  -24.3595   -9.4200   21.9166 C   0  0  0  0  0  0
  -23.6273   -8.2234   22.0745 C   0  0  0  0  0  0
  -22.4252   -8.0266   21.3537 C   0  0  0  0  0  0
  -21.9882   -9.0238   20.4644 C   0  0  0  0  0  0
  -22.7217  -10.2113   20.3046 C   0  0  0  0  0  0
  -21.6851   -6.0713   22.5268 C   0  0  0  0  0  0
  -21.4016   -6.5619   23.8200 C   0  0  0  0  0  0
  -21.3663   -5.6778   24.9165 C   0  0  0  0  0  0
  -21.6043   -4.3041   24.7224 C   0  0  0  0  0  0
  -21.8825   -3.8129   23.4351 C   0  0  0  0  0  0
  -21.9193   -4.6941   22.3402 C   0  0  0  0  0  0
  -22.7847  -13.5234   21.1849 C   0  0  0  0  0  0
  -22.1661   -4.2127   21.0983 F   0  0  0  0  0  0
  -21.5632   -3.4531   25.7740 F   0  0  0  0  0  0
  -30.0191  -13.3643   20.4296 N   0  0  0  0  0  0
  -26.2981  -12.9331   20.3293 N   0  0  0  0  0  0
  -25.9299  -11.6489   20.5725 N   0  0  0  0  0  0
  -22.0486  -12.8230   22.0411 N   0  0  0  0  0  0
  -25.4299  -15.1880   20.4085 N   0  0  0  0  0  0
  -31.8272  -14.7073   20.1385 O   0  0  0  0  0  0
  -21.6635   -6.8851   21.4226 O   0  0  0  0  0  0
  -22.3534  -14.5543   20.6708 O   0  0  0  0  0  0
  -24.6210  -31.8635   23.2054 C   0  0  0  0  0  0
  -25.9082  -32.4800   23.8370 C   0  0  1  0  0  0
  -27.2347  -27.3759   20.0999 C   0  0  0  0  0  0
  -25.5916  -33.8598   24.2306 N   0  0  0  0  0  0
  -23.4119  -30.4867   21.5468 C   0  0  2  0  0  0
  -24.8572  -28.9455   20.1125 C   0  0  0  0  0  0
  -22.7448  -29.4637   22.4957 C   0  0  0  0  0  0
  -18.0285  -28.1381   22.8486 C   0  0  0  0  0  0
  -24.1489  -36.7309   23.2638 C   0  0  0  0  0  0
  -25.9466  -30.8108   21.3664 C   0  0  0  0  0  0
  -26.0210  -29.4408   20.7123 C   0  0  0  0  0  0
  -27.2083  -28.6634   20.7030 C   0  0  0  0  0  0
  -26.0392  -26.9021   19.5097 C   0  0  0  0  0  0
  -24.8641  -27.6776   19.5088 C   0  0  0  0  0  0
  -23.6233  -29.8202   20.1612 C   0  0  0  0  0  0
  -25.4109  -36.3099   24.0335 C   0  0  1  0  0  0
  -20.5877  -28.3681   23.1297 C   0  0  2  0  0  0
  -20.6771  -26.9408   22.5416 C   0  0  0  0  0  0
  -19.5748  -26.6385   21.5213 C   0  0  0  0  0  0
  -18.1926  -26.7926   22.1621 C   0  0  0  0  0  0
  -19.1534  -28.8848   23.2888 C   0  0  0  0  0  0
  -18.9458  -30.1449   23.8909 C   0  0  0  0  0  0
  -17.6457  -30.6582   24.0564 C   0  0  0  0  0  0
  -25.9041  -34.9466   23.5121 C   0  0  0  0  0  0
  -16.5349  -29.9082   23.6321 C   0  0  0  0  0  0
  -16.7272  -28.6497   23.0347 C   0  0  0  0  0  0
  -26.4485  -31.6596   25.0725 C   0  0  0  0  0  0
  -25.3741  -31.3728   26.1473 C   0  0  0  0  0  0
  -27.0311  -30.3026   24.6137 C   0  0  0  0  0  0
  -27.6061  -32.4318   25.7483 C   0  0  0  0  0  0
  -27.5581  -37.1808   24.8464 C   0  0  0  0  0  0
  -21.4168  -29.3041   22.3700 N   0  0  0  0  0  0
  -26.4294  -37.3785   23.9407 N   0  0  0  0  0  0
  -24.6785  -31.0691   22.0977 N   0  0  0  0  0  0
  -23.4198  -28.8178   23.3017 O   0  0  0  0  0  0
  -28.3963  -26.6084   20.1524 O   0  0  0  0  0  0
  -26.5602  -34.8922   22.4683 O   0  0  0  0  0  0
  -23.5389  -32.1409   23.7419 O   0  0  0  0  0  0
  -29.0936  -18.0070   20.4040 C   0  0  0  0  0  0
  -31.3685  -17.6369   20.7986 C   0  0  0  0  0  0
  -30.1327  -17.0472   20.6914 C   0  0  0  0  0  0
  -29.5539  -19.3010   20.1922 C   0  0  0  0  0  0
  -28.7773  -24.0767   19.8060 C   0  0  0  0  0  0
  -28.5106  -22.9099   19.1754 C   0  0  0  0  0  0
  -28.8295  -20.4451   19.6026 C   0  0  0  0  0  0
  -29.4837  -23.8259   21.1147 C   0  0  0  0  0  0
  -29.6801  -22.2863   21.1150 C   0  0  0  0  0  0
  -27.9805  -22.7861   17.7511 C   0  0  0  0  0  0
  -28.6097  -25.5102   19.2245 C   0  0  0  0  0  0
  -28.9871  -21.7911   19.9060 N   0  0  0  0  0  0
  -29.8759  -15.6303   20.8503 N   0  0  0  0  0  0
  -27.9483  -20.0764   18.6580 N   0  3  0  0  0  0
  -31.2829  -19.3594   20.4800 S   0  0  0  0  0  0
  -31.4727  -12.4593   19.1415 H   0  0  0  0  0  0
  -30.3500  -11.3513   19.8801 H   0  0  0  0  0  0
  -29.7539  -11.7378   17.4701 H   0  0  0  0  0  0
  -29.6563  -13.4593   17.7440 H   0  0  0  0  0  0
  -27.8531  -11.2885   18.8615 H   0  0  0  0  0  0
  -27.3719  -12.5779   17.7898 H   0  0  0  0  0  0
  -27.6795  -14.2469   19.5238 H   0  0  0  0  0  0
  -28.6892  -12.0274   21.3737 H   0  0  0  0  0  0
  -28.4533  -13.6856   21.8430 H   0  0  0  0  0  0
  -25.2731   -9.5690   22.4745 H   0  0  0  0  0  0
  -23.9979   -7.4628   22.7465 H   0  0  0  0  0  0
  -21.0805   -8.8757   19.8959 H   0  0  0  0  0  0
  -22.3657  -10.9644   19.6161 H   0  0  0  0  0  0
  -21.2006   -7.6125   23.9699 H   0  0  0  0  0  0
  -21.1482   -6.0508   25.9066 H   0  0  0  0  0  0
  -22.0604   -2.7587   23.2869 H   0  0  0  0  0  0
  -22.4093  -11.9896   22.4812 H   0  0  0  0  0  0
  -21.1110  -13.1272   22.2620 H   0  0  0  0  0  0
  -24.6641  -15.8440   20.5196 H   0  0  0  0  0  0
  -26.2737  -15.6198   20.0569 H   0  0  0  0  0  0
  -26.7158  -32.5485   23.1130 H   0  0  0  0  0  0
  -25.0078  -33.9746   25.0460 H   0  0  0  0  0  0
  -22.7033  -31.3053   21.4056 H   0  0  0  0  0  0
  -23.3745  -35.9648   23.3308 H   0  0  0  0  0  0
  -24.3583  -36.8918   22.2052 H   0  0  0  0  0  0
  -23.7248  -37.6519   23.6649 H   0  0  0  0  0  0
  -26.0683  -31.5737   20.5961 H   0  0  0  0  0  0
  -26.8310  -30.8622   21.9898 H   0  0  0  0  0  0
  -28.1053  -29.0427   21.1726 H   0  0  0  0  0  0
  -25.9744  -25.9163   19.0753 H   0  0  0  0  0  0
  -23.9648  -27.2823   19.0568 H   0  0  0  0  0  0
  -23.7408  -30.5963   19.4036 H   0  0  0  0  0  0
  -22.7442  -29.2469   19.8613 H   0  0  0  0  0  0
  -25.1283  -36.1960   25.0826 H   0  0  0  0  0  0
  -20.9971  -28.3257   24.1415 H   0  0  0  0  0  0
  -20.5666  -26.2293   23.3612 H   0  0  0  0  0  0
  -21.6641  -26.7436   22.1214 H   0  0  0  0  0  0
  -19.6906  -25.6298   21.1238 H   0  0  0  0  0  0
  -19.6680  -27.3201   20.6748 H   0  0  0  0  0  0
  -17.4194  -26.6685   21.4020 H   0  0  0  0  0  0
  -18.0316  -26.0065   22.9014 H   0  0  0  0  0  0
  -19.7935  -30.7257   24.2289 H   0  0  0  0  0  0
  -17.5013  -31.6258   24.5170 H   0  0  0  0  0  0
  -15.5349  -30.2986   23.7634 H   0  0  0  0  0  0
  -15.8675  -28.0813   22.7060 H   0  0  0  0  0  0
  -24.5897  -30.7092   25.7815 H   0  0  0  0  0  0
  -24.8957  -32.2898   26.4925 H   0  0  0  0  0  0
  -25.8089  -30.8889   27.0231 H   0  0  0  0  0  0
  -26.2861  -29.6788   24.1186 H   0  0  0  0  0  0
  -27.4052  -29.7265   25.4610 H   0  0  0  0  0  0
  -27.8712  -30.4319   23.9311 H   0  0  0  0  0  0
  -27.2682  -33.3609   26.2081 H   0  0  0  0  0  0
  -28.3857  -32.6892   25.0303 H   0  0  0  0  0  0
  -28.0749  -31.8436   26.5382 H   0  0  0  0  0  0
  -28.2609  -38.0094   24.7497 H   0  0  0  0  0  0
  -28.1066  -36.2627   24.6302 H   0  0  0  0  0  0
  -27.2303  -37.1477   25.8869 H   0  0  0  0  0  0
  -20.9343  -29.8779   21.6927 H   0  0  0  0  0  0
  -26.0184  -38.2866   24.1393 H   0  0  0  0  0  0
  -28.0623  -17.7076   20.2817 H   0  0  0  0  0  0
  -32.3258  -17.1770   21.0149 H   0  0  0  0  0  0
  -28.8763  -24.1665   21.9541 H   0  0  0  0  0  0
  -30.4396  -24.3500   21.1378 H   0  0  0  0  0  0
  -29.2523  -21.8292   22.0076 H   0  0  0  0  0  0
  -30.7401  -22.0388   21.0778 H   0  0  0  0  0  0
  -28.0924  -23.7149   17.1945 H   0  0  0  0  0  0
  -26.9219  -22.5254   17.7522 H   0  0  0  0  0  0
  -28.5429  -22.0451   17.1838 H   0  0  0  0  0  0
  -27.9109  -25.5186   18.3921 H   0  0  0  0  0  0
  -29.5675  -25.7331   18.7542 H   0  0  0  0  0  0
  -28.9223  -15.3797   21.0637 H   0  0  0  0  0  0
  -27.8582  -19.1099   18.3867 H   0  0  0  0  0  0
  -27.4083  -20.7676   18.1605 H   0  0  0  0  0  0
  1 25  1  0  0  0
  1 30  2  0  0  0
  1 83  1  0  0  0
  2  3  1  0  0  0
  2 25  1  0  0  0
  2 86  1  0  0  0
  2 87  1  0  0  0
  3  4  1  0  0  0
  3 88  1  0  0  0
  3 89  1  0  0  0
  4  5  1  0  0  0
  4 90  1  0  0  0
  4 91  1  0  0  0
  5  6  1  0  0  0
  5 26  1  0  0  0
  5 92  1  0  0  0
  6 25  1  0  0  0
  6 93  1  0  0  0
  6 94  1  0  0  0
  7  8  2  0  0  0
  7 26  1  0  0  0
  7 29  1  0  0  0
  8  9  1  0  0  0
  8 22  1  0  0  0
  9 10  1  0  0  0
  9 27  2  0  0  0
 10 11  2  0  0  0
 10 15  1  0  0  0
 11 12  1  0  0  0
 11 95  1  0  0  0
 12 13  2  0  0  0
 12 96  1  0  0  0
 13 14  1  0  0  0
 13 31  1  0  0  0
 14 15  2  0  0  0
 14 97  1  0  0  0
 15 98  1  0  0  0
 16 17  2  0  0  0
 16 21  1  0  0  0
 16 31  1  0  0  0
 17 18  1  0  0  0
 17 99  1  0  0  0
 18 19  2  0  0  0
 18100  1  0  0  0
 19 20  1  0  0  0
 19 24  1  0  0  0
 20 21  2  0  0  0
 20101  1  0  0  0
 21 23  1  0  0  0
 22 28  1  0  0  0
 22 32  2  0  0  0
 26 27  1  0  0  0
 28102  1  0  0  0
 28103  1  0  0  0
 29104  1  0  0  0
 29105  1  0  0  0
 33 34  1  0  0  0
 33 66  1  0  0  0
 33 70  2  0  0  0
 34 36  1  0  0  0
 34 59  1  0  0  0
 34106  1  0  0  0
 35 44  2  0  0  0
 35 45  1  0  0  0
 35 68  1  0  0  0
 36 56  1  0  0  0
 36107  1  0  0  0
 37 39  1  0  0  0
 37 47  1  0  0  0
 37 66  1  0  0  0
 37108  1  0  0  0
 38 43  2  0  0  0
 38 46  1  0  0  0
 38 47  1  0  0  0
 39 64  1  0  0  0
 39 67  2  0  0  0
 40 52  1  0  0  0
 40 53  2  0  0  0
 40 58  1  0  0  0
 41109  1  0  0  0
 41110  1  0  0  0
 41111  1  0  0  0
 41 48  1  0  0  0
 42 43  1  0  0  0
 42 66  1  0  0  0
 42112  1  0  0  0
 42113  1  0  0  0
 43 44  1  0  0  0
 44114  1  0  0  0
 45 46  2  0  0  0
 45115  1  0  0  0
 46116  1  0  0  0
 47117  1  0  0  0
 47118  1  0  0  0
 48 56  1  0  0  0
 48 65  1  0  0  0
 48119  1  0  0  0
 49 50  1  0  0  0
 49 53  1  0  0  0
 49 64  1  0  0  0
 49120  1  0  0  0
 50 51  1  0  0  0
 50121  1  0  0  0
 50122  1  0  0  0
 51 52  1  0  0  0
 51123  1  0  0  0
 51124  1  0  0  0
 52125  1  0  0  0
 52126  1  0  0  0
 53 54  1  0  0  0
 54 55  2  0  0  0
 54127  1  0  0  0
 55 57  1  0  0  0
 55128  1  0  0  0
 56 69  2  0  0  0
 57 58  2  0  0  0
 57129  1  0  0  0
 58130  1  0  0  0
 59 60  1  0  0  0
 59 61  1  0  0  0
 59 62  1  0  0  0
 60131  1  0  0  0
 60132  1  0  0  0
 60133  1  0  0  0
 61134  1  0  0  0
 61135  1  0  0  0
 61136  1  0  0  0
 62137  1  0  0  0
 62138  1  0  0  0
 62139  1  0  0  0
 63 65  1  0  0  0
 63140  1  0  0  0
 63141  1  0  0  0
 63142  1  0  0  0
 64143  1  0  0  0
 65144  1  0  0  0
 68 81  1  0  0  0
 71 73  1  0  0  0
 71 74  2  0  0  0
 71145  1  0  0  0
 72 73  2  0  0  0
 72 85  1  0  0  0
 72146  1  0  0  0
 73 83  1  0  0  0
 74 77  1  0  0  0
 74 85  1  0  0  0
 75 76  2  0  0  0
 75 78  1  0  0  0
 75 81  1  0  0  0
 76 80  1  0  0  0
 76 82  1  0  0  0
 77 82  1  0  0  0
 77 84  2  0  0  0
 78 79  1  0  0  0
 78147  1  0  0  0
 78148  1  0  0  0
 79 82  1  0  0  0
 79149  1  0  0  0
 79150  1  0  0  0
 80151  1  0  0  0
 80152  1  0  0  0
 80153  1  0  0  0
 81154  1  0  0  0
 81155  1  0  0  0
 83156  1  0  0  0
 84157  1  0  0  0
 84158  1  0  0  0
M  CHG  1  84   1
M  ISO  4   1 100  68 101  81 101  83 100
M  END
> <chiral flag>
0

> <version>
0

> <s_m_source_file>
/data/baiqing/PycharmProjects/Reinvent-master-3.2/result/LINK_invent/BTK/process_docking_weight1_custom_product_contain_oxygen_bond_distance_aromatic_linkinvent_7_9_3/rearranged_h_0154.sdf

> <i_m_source_file_index>
17

> <r_mmod_Potential_Energy-OPLS-2005>
-9.5106086730957

> <r_mmod_Stretch_Energy-OPLS-2005>
56.4715995788574

> <r_mmod_Bend_Energy-OPLS-2005>
179.520233154297

> <r_mmod_Torsional_Energy-OPLS-2005>
219.91291809082

> <r_mmod_Improper_Torsional_Energy-OPLS-2005>
6.48449993133545

> <r_mmod_Van_der_Waal_Energy-OPLS-2005>
138.533142089844

> <r_mmod_Electrostatic_Energy-OPLS-2005>
-203.915939331055

> <r_mmod_Solvation_Energy-OPLS-2005>
-434.900634765625

> <b_mmod_Minimization_Converged-OPLS-2005>
0

> <r_mmod_RMS_Derivative-OPLS-2005>
1.43783915042877

$$$$
17
                    3D
 Structure written by MMmdl.
157166  0  0  1  0            999 V2000
  -30.6034  -14.7308   20.5344 C   0  0  0  0  0  0
  -30.4425  -12.4670   19.4579 C   0  0  0  0  0  0
  -29.5087  -12.5295   18.2289 C   0  0  0  0  0  0
  -28.0355  -12.3461   18.6433 C   0  0  0  0  0  0
  -27.6477  -13.2272   19.8604 C   0  0  2  0  0  0
  -28.6901  -13.1132   20.9908 C   0  0  0  0  0  0
  -25.2541  -13.8188   20.5700 C   0  0  0  0  0  0
  -24.1818  -13.0442   20.9199 C   0  0  0  0  0  0
  -24.6407  -11.6919   20.8754 C   0  0  0  0  0  0
  -23.9090  -10.4293   21.0418 C   0  0  0  0  0  0
  -24.3640   -9.4204   21.9194 C   0  0  0  0  0  0
  -23.6308   -8.2246   22.0751 C   0  0  0  0  0  0
  -22.4285   -8.0292   21.3550 C   0  0  0  0  0  0
  -21.9935   -9.0268   20.4650 C   0  0  0  0  0  0
  -22.7265  -10.2147   20.3059 C   0  0  0  0  0  0
  -21.6859   -6.0747   22.5288 C   0  0  0  0  0  0
  -21.4009   -6.5649   23.8223 C   0  0  0  0  0  0
  -21.3654   -5.6799   24.9185 C   0  0  0  0  0  0
  -21.6048   -4.3064   24.7232 C   0  0  0  0  0  0
  -21.8818   -3.8158   23.4352 C   0  0  0  0  0  0
  -21.9192   -4.6974   22.3409 C   0  0  0  0  0  0
  -22.7840  -13.5235   21.1863 C   0  0  0  0  0  0
  -22.1662   -4.2159   21.0985 F   0  0  0  0  0  0
  -21.5631   -3.4547   25.7743 F   0  0  0  0  0  0
  -29.9943  -13.4967   20.4261 N   0  0  0  0  0  0
  -26.2968  -12.9384   20.3321 N   0  0  0  0  0  0
  -25.9337  -11.6533   20.5758 N   0  0  0  0  0  0
  -22.0490  -12.8215   22.0419 N   0  0  0  0  0  0
  -25.4278  -15.1907   20.4131 N   0  0  0  0  0  0
  -31.7398  -14.8992   20.0775 O   0  0  0  0  0  0
  -21.6649   -6.8889   21.4245 O   0  0  0  0  0  0
  -22.3525  -14.5543   20.6712 O   0  0  0  0  0  0
  -24.6340  -31.8523   23.1994 C   0  0  0  0  0  0
  -25.9150  -32.4742   23.8345 C   0  0  1  0  0  0
  -27.2222  -27.2637   20.1312 C   0  0  0  0  0  0
  -25.5942  -33.8548   24.2269 N   0  0  0  0  0  0
  -23.4307  -30.4776   21.5397 C   0  0  2  0  0  0
  -24.8777  -28.9214   20.1139 C   0  0  0  0  0  0
  -22.7500  -29.4620   22.4900 C   0  0  0  0  0  0
  -18.0290  -28.1387   22.8486 C   0  0  0  0  0  0
  -24.1477  -36.7282   23.2643 C   0  0  0  0  0  0
  -25.9769  -30.7706   21.3758 C   0  0  0  0  0  0
  -26.0514  -29.3922   20.7183 C   0  0  0  0  0  0
  -27.2297  -28.5793   20.7073 C   0  0  0  0  0  0
  -26.0271  -26.8582   19.5011 C   0  0  0  0  0  0
  -24.8702  -27.6621   19.4936 C   0  0  0  0  0  0
  -23.6484  -29.8081   20.1578 C   0  0  0  0  0  0
  -25.4102  -36.3064   24.0333 C   0  0  1  0  0  0
  -20.5895  -28.3710   23.1250 C   0  0  2  0  0  0
  -20.6768  -26.9425   22.5394 C   0  0  0  0  0  0
  -19.5750  -26.6382   21.5200 C   0  0  0  0  0  0
  -18.1931  -26.7932   22.1613 C   0  0  0  0  0  0
  -19.1542  -28.8868   23.2864 C   0  0  0  0  0  0
  -18.9465  -30.1467   23.8896 C   0  0  0  0  0  0
  -17.6462  -30.6590   24.0569 C   0  0  0  0  0  0
  -25.9045  -34.9435   23.5099 C   0  0  0  0  0  0
  -16.5358  -29.9088   23.6332 C   0  0  0  0  0  0
  -16.7279  -28.6498   23.0375 C   0  0  0  0  0  0
  -26.4525  -31.6595   25.0744 C   0  0  0  0  0  0
  -25.3743  -31.3732   26.1466 C   0  0  0  0  0  0
  -27.0390  -30.3011   24.6252 C   0  0  0  0  0  0
  -27.6078  -32.4363   25.7499 C   0  0  0  0  0  0
  -27.5577  -37.1793   24.8462 C   0  0  0  0  0  0
  -21.4210  -29.3066   22.3641 N   0  0  0  0  0  0
  -26.4269  -37.3775   23.9429 N   0  0  0  0  0  0
  -24.6998  -31.0500   22.0952 N   0  0  0  0  0  0
  -23.4189  -28.8135   23.2993 O   0  0  0  0  0  0
  -28.3177  -26.3719   20.1408 O   0  0  0  0  0  0
  -26.5609  -34.8899   22.4664 O   0  0  0  0  0  0
  -23.5485  -32.1352   23.7274 O   0  0  0  0  0  0
  -29.6142  -18.4460   20.2568 C   0  0  0  0  0  0
  -29.7496  -19.7382   22.3853 C   0  0  0  0  0  0
  -29.9677  -17.3613   22.4574 C   0  0  0  0  0  0
  -29.8486  -17.2494   21.0356 C   0  0  0  0  0  0
  -29.5349  -19.7423   20.9591 C   0  0  0  0  0  0
  -29.9526  -18.5636   23.1630 C   0  0  0  0  0  0
  -28.8206  -22.2739   20.7814 C   0  0  0  0  0  0
  -30.0233  -15.8692   22.6366 C   0  0  0  0  0  0
  -28.1063  -24.9593   20.6299 C   0  0  0  0  0  0
  -28.8148  -23.6568   19.9539 C   0  0  2  0  0  0
  -29.8890  -15.7593   21.1379 N   0  0  0  0  0  0
  -30.1227  -18.6076   24.5469 N   0  0  0  0  0  0
  -29.2934  -21.0560   20.2798 N   0  0  0  0  0  0
  -28.2618  -23.4402   18.6019 N   0  3  0  0  0  0
  -28.3161  -22.3186   21.9049 O   0  0  0  0  0  0
  -31.4767  -12.6193   19.1433 H   0  0  0  0  0  0
  -30.4154  -11.4766   19.9158 H   0  0  0  0  0  0
  -29.7904  -11.7696   17.4994 H   0  0  0  0  0  0
  -29.6300  -13.4911   17.7270 H   0  0  0  0  0  0
  -27.8917  -11.2942   18.8921 H   0  0  0  0  0  0
  -27.3746  -12.5528   17.7993 H   0  0  0  0  0  0
  -27.6565  -14.2599   19.5109 H   0  0  0  0  0  0
  -28.7270  -12.0966   21.3855 H   0  0  0  0  0  0
  -28.4016  -13.7463   21.8295 H   0  0  0  0  0  0
  -25.2787   -9.5680   22.4780 H   0  0  0  0  0  0
  -24.0025   -7.4636   22.7467 H   0  0  0  0  0  0
  -21.0870   -8.8794   19.8960 H   0  0  0  0  0  0
  -22.3731  -10.9696   19.6174 H   0  0  0  0  0  0
  -21.1991   -7.6157   23.9730 H   0  0  0  0  0  0
  -21.1478   -6.0530   25.9089 H   0  0  0  0  0  0
  -22.0598   -2.7622   23.2854 H   0  0  0  0  0  0
  -22.4099  -11.9863   22.4794 H   0  0  0  0  0  0
  -21.1108  -13.1228   22.2635 H   0  0  0  0  0  0
  -24.6693  -15.8527   20.5340 H   0  0  0  0  0  0
  -26.2946  -15.6297   20.1291 H   0  0  0  0  0  0
  -26.7228  -32.5384   23.1096 H   0  0  0  0  0  0
  -25.0150  -33.9701   25.0450 H   0  0  0  0  0  0
  -22.7299  -31.3020   21.3906 H   0  0  0  0  0  0
  -23.3747  -35.9605   23.3279 H   0  0  0  0  0  0
  -24.3573  -36.8928   22.2064 H   0  0  0  0  0  0
  -23.7200  -37.6463   23.6678 H   0  0  0  0  0  0
  -26.1134  -31.5311   20.6050 H   0  0  0  0  0  0
  -26.8554  -30.8187   22.0069 H   0  0  0  0  0  0
  -28.1337  -28.9397   21.1772 H   0  0  0  0  0  0
  -25.9720  -25.8954   19.0143 H   0  0  0  0  0  0
  -23.9742  -27.2999   19.0087 H   0  0  0  0  0  0
  -23.7747  -30.5817   19.4002 H   0  0  0  0  0  0
  -22.7678  -29.2396   19.8536 H   0  0  0  0  0  0
  -25.1270  -36.1908   25.0821 H   0  0  0  0  0  0
  -21.0013  -28.3286   24.1359 H   0  0  0  0  0  0
  -20.5647  -26.2327   23.3601 H   0  0  0  0  0  0
  -21.6634  -26.7426   22.1205 H   0  0  0  0  0  0
  -19.6908  -25.6286   21.1255 H   0  0  0  0  0  0
  -19.6672  -27.3171   20.6717 H   0  0  0  0  0  0
  -17.4192  -26.6699   21.4025 H   0  0  0  0  0  0
  -18.0338  -26.0044   22.8985 H   0  0  0  0  0  0
  -19.7939  -30.7287   24.2270 H   0  0  0  0  0  0
  -17.5010  -31.6272   24.5169 H   0  0  0  0  0  0
  -15.5363  -30.3000   23.7649 H   0  0  0  0  0  0
  -15.8671  -28.0809   22.7133 H   0  0  0  0  0  0
  -24.5930  -30.7066   25.7803 H   0  0  0  0  0  0
  -24.8923  -32.2894   26.4900 H   0  0  0  0  0  0
  -25.8079  -30.8914   27.0244 H   0  0  0  0  0  0
  -26.2989  -29.6726   24.1299 H   0  0  0  0  0  0
  -27.4080  -29.7315   25.4799 H   0  0  0  0  0  0
  -27.8854  -30.4281   23.9498 H   0  0  0  0  0  0
  -27.2705  -33.3693   26.2032 H   0  0  0  0  0  0
  -28.3910  -32.6909   25.0340 H   0  0  0  0  0  0
  -28.0732  -31.8514   26.5446 H   0  0  0  0  0  0
  -28.2592  -38.0103   24.7552 H   0  0  0  0  0  0
  -28.1089  -36.2646   24.6236 H   0  0  0  0  0  0
  -27.2306  -37.1365   25.8867 H   0  0  0  0  0  0
  -20.9388  -29.8799   21.6861 H   0  0  0  0  0  0
  -26.0152  -38.2842   24.1463 H   0  0  0  0  0  0
  -29.4508  -18.3816   19.1907 H   0  0  0  0  0  0
  -29.7553  -20.6767   22.9185 H   0  0  0  0  0  0
  -29.1739  -15.4891   23.2047 H   0  0  0  0  0  0
  -30.9789  -15.5379   23.0483 H   0  0  0  0  0  0
  -28.4472  -24.9913   21.6648 H   0  0  0  0  0  0
  -27.0393  -24.7518   20.7183 H   0  0  0  0  0  0
  -29.8671  -23.9116   19.8228 H   0  0  0  0  0  0
  -30.4220  -19.4856   24.9609 H   0  0  0  0  0  0
  -30.5518  -17.8062   25.0003 H   0  0  0  0  0  0
  -29.5694  -21.0702   19.3081 H   0  0  0  0  0  0
  -27.3205  -23.0908   18.6553 H   0  0  0  0  0  0
  -28.8176  -22.7882   18.0802 H   0  0  0  0  0  0
  -28.2517  -24.3069   18.0930 H   0  0  0  0  0  0
  1 25  1  0  0  0
  1 30  2  0  0  0
  1 81  1  0  0  0
  2  3  1  0  0  0
  2 25  1  0  0  0
  2 86  1  0  0  0
  2 87  1  0  0  0
  3  4  1  0  0  0
  3 88  1  0  0  0
  3 89  1  0  0  0
  4  5  1  0  0  0
  4 90  1  0  0  0
  4 91  1  0  0  0
  5  6  1  0  0  0
  5 26  1  0  0  0
  5 92  1  0  0  0
  6 25  1  0  0  0
  6 93  1  0  0  0
  6 94  1  0  0  0
  7  8  2  0  0  0
  7 26  1  0  0  0
  7 29  1  0  0  0
  8  9  1  0  0  0
  8 22  1  0  0  0
  9 10  1  0  0  0
  9 27  2  0  0  0
 10 11  2  0  0  0
 10 15  1  0  0  0
 11 12  1  0  0  0
 11 95  1  0  0  0
 12 13  2  0  0  0
 12 96  1  0  0  0
 13 14  1  0  0  0
 13 31  1  0  0  0
 14 15  2  0  0  0
 14 97  1  0  0  0
 15 98  1  0  0  0
 16 17  2  0  0  0
 16 21  1  0  0  0
 16 31  1  0  0  0
 17 18  1  0  0  0
 17 99  1  0  0  0
 18 19  2  0  0  0
 18100  1  0  0  0
 19 20  1  0  0  0
 19 24  1  0  0  0
 20 21  2  0  0  0
 20101  1  0  0  0
 21 23  1  0  0  0
 22 28  1  0  0  0
 22 32  2  0  0  0
 26 27  1  0  0  0
 28102  1  0  0  0
 28103  1  0  0  0
 29104  1  0  0  0
 29105  1  0  0  0
 33 34  1  0  0  0
 33 66  1  0  0  0
 33 70  2  0  0  0
 34 36  1  0  0  0
 34 59  1  0  0  0
 34106  1  0  0  0
 35 44  2  0  0  0
 35 45  1  0  0  0
 35 68  1  0  0  0
 36 56  1  0  0  0
 36107  1  0  0  0
 37 39  1  0  0  0
 37 47  1  0  0  0
 37 66  1  0  0  0
 37108  1  0  0  0
 38 43  2  0  0  0
 38 46  1  0  0  0
 38 47  1  0  0  0
 39 64  1  0  0  0
 39 67  2  0  0  0
 40 52  1  0  0  0
 40 53  2  0  0  0
 40 58  1  0  0  0
 41109  1  0  0  0
 41110  1  0  0  0
 41111  1  0  0  0
 41 48  1  0  0  0
 42 43  1  0  0  0
 42 66  1  0  0  0
 42112  1  0  0  0
 42113  1  0  0  0
 43 44  1  0  0  0
 44114  1  0  0  0
 45 46  2  0  0  0
 45115  1  0  0  0
 46116  1  0  0  0
 47117  1  0  0  0
 47118  1  0  0  0
 48 56  1  0  0  0
 48 65  1  0  0  0
 48119  1  0  0  0
 49 50  1  0  0  0
 49 53  1  0  0  0
 49 64  1  0  0  0
 49120  1  0  0  0
 50 51  1  0  0  0
 50121  1  0  0  0
 50122  1  0  0  0
 51 52  1  0  0  0
 51123  1  0  0  0
 51124  1  0  0  0
 52125  1  0  0  0
 52126  1  0  0  0
 53 54  1  0  0  0
 54 55  2  0  0  0
 54127  1  0  0  0
 55 57  1  0  0  0
 55128  1  0  0  0
 56 69  2  0  0  0
 57 58  2  0  0  0
 57129  1  0  0  0
 58130  1  0  0  0
 59 60  1  0  0  0
 59 61  1  0  0  0
 59 62  1  0  0  0
 60131  1  0  0  0
 60132  1  0  0  0
 60133  1  0  0  0
 61134  1  0  0  0
 61135  1  0  0  0
 61136  1  0  0  0
 62137  1  0  0  0
 62138  1  0  0  0
 62139  1  0  0  0
 63 65  1  0  0  0
 63140  1  0  0  0
 63141  1  0  0  0
 63142  1  0  0  0
 64143  1  0  0  0
 65144  1  0  0  0
 68 79  1  0  0  0
 71 74  2  0  0  0
 71 75  1  0  0  0
 71145  1  0  0  0
 72 75  2  0  0  0
 72 76  1  0  0  0
 72146  1  0  0  0
 73 74  1  0  0  0
 73 76  2  0  0  0
 73 78  1  0  0  0
 74 81  1  0  0  0
 75 83  1  0  0  0
 76 82  1  0  0  0
 77 80  1  0  0  0
 77 83  1  0  0  0
 77 85  2  0  0  0
 78 81  1  0  0  0
 78147  1  0  0  0
 78148  1  0  0  0
 79 80  1  0  0  0
 79149  1  0  0  0
 79150  1  0  0  0
 80 84  1  0  0  0
 80151  1  0  0  0
 82152  1  0  0  0
 82153  1  0  0  0
 83154  1  0  0  0
 84155  1  0  0  0
 84156  1  0  0  0
 84157  1  0  0  0
M  CHG  1  84   1
M  ISO  4   1 100  68 101  79 101  81 100
M  END
> <chiral flag>
0

> <version>
0

> <s_m_source_file>
/data/baiqing/PycharmProjects/Reinvent-master-3.2/result/LINK_invent/BTK/process_docking_weight1_custom_product_contain_oxygen_bond_distance_aromatic_linkinvent_7_9_3/rearranged_h_0154.sdf

> <i_m_source_file_index>
18

> <r_mmod_Potential_Energy-OPLS-2005>
415.695678710938

> <r_mmod_Stretch_Energy-OPLS-2005>
151.612030029297

> <r_mmod_Bend_Energy-OPLS-2005>
583.276184082031

> <r_mmod_Torsional_Energy-OPLS-2005>
317.889007568359

> <r_mmod_Improper_Torsional_Energy-OPLS-2005>
13.1842451095581

> <r_mmod_Van_der_Waal_Energy-OPLS-2005>
134.723114013672

> <r_mmod_Electrostatic_Energy-OPLS-2005>
-331.883941650391

> <r_mmod_Solvation_Energy-OPLS-2005>
-531.388427734375

> <b_mmod_Minimization_Converged-OPLS-2005>
0

> <r_mmod_RMS_Derivative-OPLS-2005>
2.32014489173889

$$$$
18
                    3D
 Structure written by MMmdl.
155163  0  0  1  0            999 V2000
  -30.5381  -14.8984   20.4300 C   0  0  0  0  0  0
  -30.4452  -12.5579   19.4759 C   0  0  0  0  0  0
  -29.5167  -12.5192   18.2405 C   0  0  0  0  0  0
  -28.0478  -12.3137   18.6619 C   0  0  0  0  0  0
  -27.6307  -13.2378   19.8361 C   0  0  2  0  0  0
  -28.6784  -13.2377   20.9684 C   0  0  0  0  0  0
  -25.2472  -13.8195   20.5705 C   0  0  0  0  0  0
  -24.1782  -13.0429   20.9228 C   0  0  0  0  0  0
  -24.6386  -11.6911   20.8754 C   0  0  0  0  0  0
  -23.9068  -10.4287   21.0409 C   0  0  0  0  0  0
  -24.3619   -9.4201   21.9184 C   0  0  0  0  0  0
  -23.6292   -8.2238   22.0754 C   0  0  0  0  0  0
  -22.4274   -8.0278   21.3544 C   0  0  0  0  0  0
  -21.9909   -9.0252   20.4648 C   0  0  0  0  0  0
  -22.7239  -10.2130   20.3057 C   0  0  0  0  0  0
  -21.6853   -6.0730   22.5277 C   0  0  0  0  0  0
  -21.4015   -6.5635   23.8208 C   0  0  0  0  0  0
  -21.3658   -5.6789   24.9171 C   0  0  0  0  0  0
  -21.6045   -4.3052   24.7223 C   0  0  0  0  0  0
  -21.8819   -3.8143   23.4345 C   0  0  0  0  0  0
  -21.9193   -4.6958   22.3400 C   0  0  0  0  0  0
  -22.7803  -13.5209   21.1881 C   0  0  0  0  0  0
  -22.1663   -4.2144   21.0978 F   0  0  0  0  0  0
  -21.5627   -3.4535   25.7736 F   0  0  0  0  0  0
  -29.9544  -13.6415   20.3650 N   0  0  0  0  0  0
  -26.2888  -12.9407   20.3235 N   0  0  0  0  0  0
  -25.9313  -11.6547   20.5733 N   0  0  0  0  0  0
  -22.0454  -12.8203   22.0440 N   0  0  0  0  0  0
  -25.4118  -15.1928   20.4125 N   0  0  0  0  0  0
  -31.7514  -14.9868   20.2173 O   0  0  0  0  0  0
  -21.6640   -6.8875   21.4240 O   0  0  0  0  0  0
  -22.3490  -14.5512   20.6719 O   0  0  0  0  0  0
  -24.6401  -31.8464   23.1901 C   0  0  0  0  0  0
  -25.9182  -32.4709   23.8286 C   0  0  1  0  0  0
  -27.2216  -27.1678   20.1549 C   0  0  0  0  0  0
  -25.5938  -33.8515   24.2201 N   0  0  0  0  0  0
  -23.4429  -30.4645   21.5352 C   0  0  2  0  0  0
  -24.8926  -28.8883   20.1191 C   0  0  0  0  0  0
  -22.7550  -29.4555   22.4879 C   0  0  0  0  0  0
  -18.0302  -28.1395   22.8481 C   0  0  0  0  0  0
  -24.1490  -36.7265   23.2643 C   0  0  0  0  0  0
  -25.9958  -30.7290   21.3849 C   0  0  0  0  0  0
  -26.0684  -29.3397   20.7337 C   0  0  0  0  0  0
  -27.2370  -28.4946   20.7342 C   0  0  0  0  0  0
  -26.0206  -26.8005   19.5154 C   0  0  0  0  0  0
  -24.8778  -27.6293   19.4974 C   0  0  0  0  0  0
  -23.6693  -29.7899   20.1562 C   0  0  0  0  0  0
  -25.4120  -36.3042   24.0318 C   0  0  1  0  0  0
  -20.5911  -28.3714   23.1248 C   0  0  2  0  0  0
  -20.6786  -26.9421   22.5408 C   0  0  0  0  0  0
  -19.5760  -26.6380   21.5216 C   0  0  0  0  0  0
  -18.1942  -26.7933   22.1628 C   0  0  0  0  0  0
  -19.1558  -28.8874   23.2856 C   0  0  0  0  0  0
  -18.9474  -30.1471   23.8880 C   0  0  0  0  0  0
  -17.6470  -30.6592   24.0560 C   0  0  0  0  0  0
  -25.9067  -34.9415   23.5069 C   0  0  0  0  0  0
  -16.5362  -29.9085   23.6335 C   0  0  0  0  0  0
  -16.7287  -28.6504   23.0355 C   0  0  0  0  0  0
  -26.4513  -31.6572   25.0720 C   0  0  0  0  0  0
  -25.3703  -31.3763   26.1421 C   0  0  0  0  0  0
  -27.0373  -30.2970   24.6288 C   0  0  0  0  0  0
  -27.6047  -32.4337   25.7501 C   0  0  0  0  0  0
  -27.5578  -37.1787   24.8463 C   0  0  0  0  0  0
  -21.4246  -29.3043   22.3623 N   0  0  0  0  0  0
  -26.4287  -37.3751   23.9408 N   0  0  0  0  0  0
  -24.7123  -31.0344   22.0921 N   0  0  0  0  0  0
  -23.4204  -28.8106   23.3025 O   0  0  0  0  0  0
  -28.2988  -26.2255   20.1174 O   0  0  0  0  0  0
  -26.5655  -34.8907   22.4649 O   0  0  0  0  0  0
  -23.5526  -32.1330   23.7135 O   0  0  0  0  0  0
  -30.0165  -19.4678   21.7949 C   0  0  0  0  0  0
  -30.2833  -18.0433   21.8600 C   0  0  0  0  0  0
  -29.4369  -19.7790   20.5891 C   0  0  0  0  0  0
  -29.8598  -17.4475   20.6838 C   0  0  0  0  0  0
  -28.1821  -24.8508   20.5847 C   0  0  0  0  0  0
  -30.8248  -17.2984   23.0130 C   0  0  0  0  0  0
  -28.7504  -23.6552   20.0871 C   0  0  0  0  0  0
  -28.6918  -22.2725   20.7763 C   0  0  0  0  0  0
  -32.6903  -15.7253   23.7964 C   0  0  0  0  0  0
  -32.3184  -16.9715   22.9754 C   0  0  0  0  0  0
  -29.1434  -21.1041   20.1205 N   0  0  0  0  0  0
  -29.7005  -16.0400   20.4430 N   0  0  0  0  0  0
  -30.1214  -16.9828   23.9764 O   0  0  0  0  0  0
  -28.2480  -22.1643   21.9215 O   0  0  0  0  0  0
  -29.3258  -18.5272   19.8916 O   0  0  0  0  0  0
  -29.4347  -23.7245   18.9369 O   0  0  0  0  0  0
  -31.4765  -12.7274   19.1618 H   0  0  0  0  0  0
  -30.4426  -11.5999   19.9982 H   0  0  0  0  0  0
  -29.8253  -11.7254   17.5588 H   0  0  0  0  0  0
  -29.6098  -13.4528   17.6836 H   0  0  0  0  0  0
  -27.9353  -11.2703   18.9586 H   0  0  0  0  0  0
  -27.3846  -12.4599   17.8084 H   0  0  0  0  0  0
  -27.5987  -14.2438   19.4183 H   0  0  0  0  0  0
  -28.7569  -12.2533   21.4323 H   0  0  0  0  0  0
  -28.3903  -13.9312   21.7605 H   0  0  0  0  0  0
  -25.2764   -9.5673   22.4759 H   0  0  0  0  0  0
  -23.9997   -7.4629   22.7474 H   0  0  0  0  0  0
  -21.0839   -8.8773   19.8955 H   0  0  0  0  0  0
  -22.3699  -10.9669   19.6169 H   0  0  0  0  0  0
  -21.2010   -7.6144   23.9711 H   0  0  0  0  0  0
  -21.1481   -6.0520   25.9073 H   0  0  0  0  0  0
  -22.0600   -2.7605   23.2847 H   0  0  0  0  0  0
  -22.4080  -11.9874   22.4838 H   0  0  0  0  0  0
  -21.1071  -13.1224   22.2645 H   0  0  0  0  0  0
  -24.6364  -15.8371   20.5248 H   0  0  0  0  0  0
  -26.2419  -15.6397   20.0478 H   0  0  0  0  0  0
  -26.7250  -32.5329   23.1021 H   0  0  0  0  0  0
  -25.0053  -33.9633   25.0326 H   0  0  0  0  0  0
  -22.7443  -31.2892   21.3796 H   0  0  0  0  0  0
  -23.3754  -35.9594   23.3294 H   0  0  0  0  0  0
  -24.3574  -36.8907   22.2059 H   0  0  0  0  0  0
  -23.7243  -37.6458   23.6685 H   0  0  0  0  0  0
  -26.1463  -31.4817   20.6100 H   0  0  0  0  0  0
  -26.8680  -30.7821   22.0249 H   0  0  0  0  0  0
  -28.1420  -28.8401   21.2138 H   0  0  0  0  0  0
  -25.9609  -25.8347   19.0337 H   0  0  0  0  0  0
  -23.9792  -27.2781   19.0089 H   0  0  0  0  0  0
  -23.8072  -30.5620   19.3985 H   0  0  0  0  0  0
  -22.7847  -29.2308   19.8459 H   0  0  0  0  0  0
  -25.1308  -36.1874   25.0810 H   0  0  0  0  0  0
  -21.0003  -28.3301   24.1368 H   0  0  0  0  0  0
  -20.5681  -26.2327   23.3623 H   0  0  0  0  0  0
  -21.6652  -26.7430   22.1206 H   0  0  0  0  0  0
  -19.6919  -25.6286   21.1258 H   0  0  0  0  0  0
  -19.6696  -27.3180   20.6738 H   0  0  0  0  0  0
  -17.4208  -26.6676   21.4034 H   0  0  0  0  0  0
  -18.0342  -26.0081   22.9033 H   0  0  0  0  0  0
  -19.7948  -30.7294   24.2240 H   0  0  0  0  0  0
  -17.5021  -31.6268   24.5166 H   0  0  0  0  0  0
  -15.5361  -30.2979   23.7667 H   0  0  0  0  0  0
  -15.8688  -28.0815   22.7079 H   0  0  0  0  0  0
  -24.5869  -30.7127   25.7740 H   0  0  0  0  0  0
  -24.8906  -32.2949   26.4811 H   0  0  0  0  0  0
  -25.7981  -30.8951   27.0224 H   0  0  0  0  0  0
  -26.2986  -29.6700   24.1281 H   0  0  0  0  0  0
  -27.3974  -29.7262   25.4859 H   0  0  0  0  0  0
  -27.8898  -30.4209   23.9607 H   0  0  0  0  0  0
  -27.2638  -33.3646   26.2044 H   0  0  0  0  0  0
  -28.3873  -32.6885   25.0342 H   0  0  0  0  0  0
  -28.0701  -31.8490   26.5447 H   0  0  0  0  0  0
  -28.2586  -38.0093   24.7511 H   0  0  0  0  0  0
  -28.1083  -36.2621   24.6285 H   0  0  0  0  0  0
  -27.2297  -37.1429   25.8866 H   0  0  0  0  0  0
  -20.9456  -29.8749   21.6798 H   0  0  0  0  0  0
  -26.0157  -38.2819   24.1413 H   0  0  0  0  0  0
  -30.2433  -20.1870   22.5690 H   0  0  0  0  0  0
  -27.5914  -24.8236   21.4910 H   0  0  0  0  0  0
  -33.7593  -15.5239   23.7279 H   0  0  0  0  0  0
  -32.1629  -14.8416   23.4348 H   0  0  0  0  0  0
  -32.4465  -15.8550   24.8514 H   0  0  0  0  0  0
  -32.8624  -17.8387   23.3489 H   0  0  0  0  0  0
  -32.6231  -16.8363   21.9380 H   0  0  0  0  0  0
  -29.3271  -21.2586   19.1384 H   0  0  0  0  0  0
  -28.7379  -15.7807   20.2973 H   0  0  0  0  0  0
  -29.4024  -24.6291   18.6517 H   0  0  0  0  0  0
  1 25  1  0  0  0
  1 30  2  0  0  0
  1 82  1  0  0  0
  2  3  1  0  0  0
  2 25  1  0  0  0
  2 87  1  0  0  0
  2 88  1  0  0  0
  3  4  1  0  0  0
  3 89  1  0  0  0
  3 90  1  0  0  0
  4  5  1  0  0  0
  4 91  1  0  0  0
  4 92  1  0  0  0
  5  6  1  0  0  0
  5 26  1  0  0  0
  5 93  1  0  0  0
  6 25  1  0  0  0
  6 94  1  0  0  0
  6 95  1  0  0  0
  7  8  2  0  0  0
  7 26  1  0  0  0
  7 29  1  0  0  0
  8  9  1  0  0  0
  8 22  1  0  0  0
  9 10  1  0  0  0
  9 27  2  0  0  0
 10 11  2  0  0  0
 10 15  1  0  0  0
 11 12  1  0  0  0
 11 96  1  0  0  0
 12 13  2  0  0  0
 12 97  1  0  0  0
 13 14  1  0  0  0
 13 31  1  0  0  0
 14 15  2  0  0  0
 14 98  1  0  0  0
 15 99  1  0  0  0
 16 17  2  0  0  0
 16 21  1  0  0  0
 16 31  1  0  0  0
 17 18  1  0  0  0
 17100  1  0  0  0
 18 19  2  0  0  0
 18101  1  0  0  0
 19 20  1  0  0  0
 19 24  1  0  0  0
 20 21  2  0  0  0
 20102  1  0  0  0
 21 23  1  0  0  0
 22 28  1  0  0  0
 22 32  2  0  0  0
 26 27  1  0  0  0
 28103  1  0  0  0
 28104  1  0  0  0
 29105  1  0  0  0
 29106  1  0  0  0
 33 34  1  0  0  0
 33 66  1  0  0  0
 33 70  2  0  0  0
 34 36  1  0  0  0
 34 59  1  0  0  0
 34107  1  0  0  0
 35 44  2  0  0  0
 35 45  1  0  0  0
 35 68  1  0  0  0
 36 56  1  0  0  0
 36108  1  0  0  0
 37 39  1  0  0  0
 37 47  1  0  0  0
 37 66  1  0  0  0
 37109  1  0  0  0
 38 43  2  0  0  0
 38 46  1  0  0  0
 38 47  1  0  0  0
 39 64  1  0  0  0
 39 67  2  0  0  0
 40 52  1  0  0  0
 40 53  2  0  0  0
 40 58  1  0  0  0
 41110  1  0  0  0
 41111  1  0  0  0
 41112  1  0  0  0
 41 48  1  0  0  0
 42 43  1  0  0  0
 42 66  1  0  0  0
 42113  1  0  0  0
 42114  1  0  0  0
 43 44  1  0  0  0
 44115  1  0  0  0
 45 46  2  0  0  0
 45116  1  0  0  0
 46117  1  0  0  0
 47118  1  0  0  0
 47119  1  0  0  0
 48 56  1  0  0  0
 48 65  1  0  0  0
 48120  1  0  0  0
 49 50  1  0  0  0
 49 53  1  0  0  0
 49 64  1  0  0  0
 49121  1  0  0  0
 50 51  1  0  0  0
 50122  1  0  0  0
 50123  1  0  0  0
 51 52  1  0  0  0
 51124  1  0  0  0
 51125  1  0  0  0
 52126  1  0  0  0
 52127  1  0  0  0
 53 54  1  0  0  0
 54 55  2  0  0  0
 54128  1  0  0  0
 55 57  1  0  0  0
 55129  1  0  0  0
 56 69  2  0  0  0
 57 58  2  0  0  0
 57130  1  0  0  0
 58131  1  0  0  0
 59 60  1  0  0  0
 59 61  1  0  0  0
 59 62  1  0  0  0
 60132  1  0  0  0
 60133  1  0  0  0
 60134  1  0  0  0
 61135  1  0  0  0
 61136  1  0  0  0
 61137  1  0  0  0
 62138  1  0  0  0
 62139  1  0  0  0
 62140  1  0  0  0
 63 65  1  0  0  0
 63141  1  0  0  0
 63142  1  0  0  0
 63143  1  0  0  0
 64144  1  0  0  0
 65145  1  0  0  0
 68 75  1  0  0  0
 71 72  1  0  0  0
 71 73  2  0  0  0
 71146  1  0  0  0
 72 74  2  0  0  0
 72 76  1  0  0  0
 73 81  1  0  0  0
 73 85  1  0  0  0
 74 82  1  0  0  0
 74 85  1  0  0  0
 75 77  2  0  0  0
 75147  1  0  0  0
 76 80  1  0  0  0
 76 83  2  0  0  0
 77 78  1  0  0  0
 77 86  1  0  0  0
 78 81  1  0  0  0
 78 84  2  0  0  0
 79 80  1  0  0  0
 79148  1  0  0  0
 79149  1  0  0  0
 79150  1  0  0  0
 80151  1  0  0  0
 80152  1  0  0  0
 81153  1  0  0  0
 82154  1  0  0  0
 86155  1  0  0  0
M  ISO  4   1 100  68 101  75 101  82 100
M  END
> <chiral flag>
0

> <version>
0

> <s_m_source_file>
/data/baiqing/PycharmProjects/Reinvent-master-3.2/result/LINK_invent/BTK/process_docking_weight1_custom_product_contain_oxygen_bond_distance_aromatic_linkinvent_7_9_3/rearranged_h_0154.sdf

> <i_m_source_file_index>
19

> <r_mmod_Potential_Energy-OPLS-2005>
328.048248291016

> <r_mmod_Stretch_Energy-OPLS-2005>
181.680099487305

> <r_mmod_Bend_Energy-OPLS-2005>
214.482620239258

> <r_mmod_Torsional_Energy-OPLS-2005>
309.561584472656

> <r_mmod_Improper_Torsional_Energy-OPLS-2005>
9.82912921905518

> <r_mmod_Van_der_Waal_Energy-OPLS-2005>
105.140800476074

> <r_mmod_Electrostatic_Energy-OPLS-2005>
-427.212554931641

> <r_mmod_Solvation_Energy-OPLS-2005>
-225.368606567383

> <b_mmod_Minimization_Converged-OPLS-2005>
0

> <r_mmod_RMS_Derivative-OPLS-2005>
0.421202689409256

$$$$
19
                    3D
 Structure written by MMmdl.
155164  0  0  1  0            999 V2000
  -30.4776  -15.3435   20.4035 C   0  0  0  0  0  0
  -30.4391  -12.8826   19.5277 C   0  0  0  0  0  0
  -29.5340  -12.5882   18.3028 C   0  0  0  0  0  0
  -28.1100  -12.2692   18.7691 C   0  0  0  0  0  0
  -27.6217  -13.2810   19.8305 C   0  0  2  0  0  0
  -28.6477  -13.5224   20.9633 C   0  0  0  0  0  0
  -25.2484  -13.8290   20.5812 C   0  0  0  0  0  0
  -24.1801  -13.0453   20.9302 C   0  0  0  0  0  0
  -24.6476  -11.6962   20.8805 C   0  0  0  0  0  0
  -23.9166  -10.4312   21.0446 C   0  0  0  0  0  0
  -24.3677   -9.4200   21.9205 C   0  0  0  0  0  0
  -23.6313   -8.2254   22.0766 C   0  0  0  0  0  0
  -22.4287   -8.0337   21.3557 C   0  0  0  0  0  0
  -21.9988   -9.0327   20.4645 C   0  0  0  0  0  0
  -22.7364  -10.2181   20.3051 C   0  0  0  0  0  0
  -21.6871   -6.0770   22.5291 C   0  0  0  0  0  0
  -21.4016   -6.5666   23.8241 C   0  0  0  0  0  0
  -21.3626   -5.6794   24.9186 C   0  0  0  0  0  0
  -21.6039   -4.3061   24.7234 C   0  0  0  0  0  0
  -21.8813   -3.8167   23.4340 C   0  0  0  0  0  0
  -21.9206   -4.6995   22.3415 C   0  0  0  0  0  0
  -22.7827  -13.5222   21.1904 C   0  0  0  0  0  0
  -22.1674   -4.2181   21.0982 F   0  0  0  0  0  0
  -21.5616   -3.4535   25.7736 F   0  0  0  0  0  0
  -29.8743  -14.0423   20.3298 N   0  0  0  0  0  0
  -26.2904  -12.9548   20.3288 N   0  0  0  0  0  0
  -25.9412  -11.6659   20.5759 N   0  0  0  0  0  0
  -22.0431  -12.8179   22.0413 N   0  0  0  0  0  0
  -25.4098  -15.2002   20.4306 N   0  0  0  0  0  0
  -31.6864  -15.2794   20.1212 O   0  0  0  0  0  0
  -21.6646   -6.8925   21.4259 O   0  0  0  0  0  0
  -22.3542  -14.5545   20.6768 O   0  0  0  0  0  0
  -24.6597  -31.8242   23.1733 C   0  0  0  0  0  0
  -25.9278  -32.4606   23.8193 C   0  0  1  0  0  0
  -27.2399  -26.9107   20.2200 C   0  0  0  0  0  0
  -25.5916  -33.8419   24.2110 N   0  0  0  0  0  0
  -23.4811  -30.4311   21.5214 C   0  0  2  0  0  0
  -24.9442  -28.8121   20.1190 C   0  0  0  0  0  0
  -22.7674  -29.4420   22.4802 C   0  0  0  0  0  0
  -18.0340  -28.1420   22.8430 C   0  0  0  0  0  0
  -24.1472  -36.7259   23.2646 C   0  0  0  0  0  0
  -26.0478  -30.6282   21.4022 C   0  0  0  0  0  0
  -26.1233  -29.2118   20.7590 C   0  0  0  0  0  0
  -27.2627  -28.2834   20.7786 C   0  0  0  0  0  0
  -26.0297  -26.6648   19.5234 C   0  0  0  0  0  0
  -24.9259  -27.5610   19.4792 C   0  0  0  0  0  0
  -23.7268  -29.7410   20.1497 C   0  0  0  0  0  0
  -25.4124  -36.3039   24.0287 C   0  0  1  0  0  0
  -20.5950  -28.3775   23.1192 C   0  0  2  0  0  0
  -20.6820  -26.9461   22.5388 C   0  0  0  0  0  0
  -19.5791  -26.6397   21.5185 C   0  0  0  0  0  0
  -18.1980  -26.7947   22.1597 C   0  0  0  0  0  0
  -19.1583  -28.8916   23.2786 C   0  0  0  0  0  0
  -18.9486  -30.1501   23.8831 C   0  0  0  0  0  0
  -17.6473  -30.6578   24.0551 C   0  0  0  0  0  0
  -25.9081  -34.9369   23.5045 C   0  0  0  0  0  0
  -16.5369  -29.9084   23.6351 C   0  0  0  0  0  0
  -16.7324  -28.6520   23.0335 C   0  0  0  0  0  0
  -26.4537  -31.6523   25.0685 C   0  0  0  0  0  0
  -25.3650  -31.3703   26.1330 C   0  0  0  0  0  0
  -27.0463  -30.2923   24.6300 C   0  0  0  0  0  0
  -27.6068  -32.4321   25.7461 C   0  0  0  0  0  0
  -27.5618  -37.1769   24.8451 C   0  0  0  0  0  0
  -21.4344  -29.3063   22.3539 N   0  0  0  0  0  0
  -26.4301  -37.3745   23.9423 N   0  0  0  0  0  0
  -24.7511  -30.9896   22.0894 N   0  0  0  0  0  0
  -23.4200  -28.7989   23.3060 O   0  0  0  0  0  0
  -28.2693  -25.8230   20.3199 O   0  0  0  0  0  0
  -26.5723  -34.8880   22.4640 O   0  0  0  0  0  0
  -23.5671  -32.1193   23.6827 O   0  0  0  0  0  0
  -28.4720  -18.6638   21.4753 C   0  0  0  0  0  0
  -29.2600  -19.4402   20.7061 C   0  0  0  0  0  0
  -27.1874  -19.1783   22.1058 C   0  0  0  0  0  0
  -28.7622  -17.1100   21.4886 C   0  0  0  0  0  0
  -30.1565  -18.2200   20.0167 C   0  0  0  0  0  0
  -26.9722  -20.6827   21.8615 C   0  0  0  0  0  0
  -27.2551  -21.0043   20.3791 C   0  0  0  0  0  0
  -29.0758  -22.6597   20.5428 C   0  0  0  0  0  0
  -28.0796  -24.1727   20.2355 C   0  0  0  0  0  0
  -29.8079  -16.6950   20.4979 N   0  0  0  0  0  0
  -28.7214  -21.0514   20.1806 N   0  3  2  0  0  0
  -31.4490  -13.0874   19.1730 H   0  0  0  0  0  0
  -30.5344  -11.9935   20.1516 H   0  0  0  0  0  0
  -29.9335  -11.7534   17.7256 H   0  0  0  0  0  0
  -29.5227  -13.4494   17.6296 H   0  0  0  0  0  0
  -28.1416  -11.2762   19.2208 H   0  0  0  0  0  0
  -27.4208  -12.2032   17.9296 H   0  0  0  0  0  0
  -27.5194  -14.2258   19.2935 H   0  0  0  0  0  0
  -28.8394  -12.6165   21.5404 H   0  0  0  0  0  0
  -28.2586  -14.2607   21.6648 H   0  0  0  0  0  0
  -25.2804   -9.5685   22.4823 H   0  0  0  0  0  0
  -24.0014   -7.4661   22.7502 H   0  0  0  0  0  0
  -21.0911   -8.8893   19.8949 H   0  0  0  0  0  0
  -22.3849  -10.9745   19.6172 H   0  0  0  0  0  0
  -21.1984   -7.6164   23.9755 H   0  0  0  0  0  0
  -21.1444   -6.0513   25.9095 H   0  0  0  0  0  0
  -22.0609   -2.7635   23.2848 H   0  0  0  0  0  0
  -22.4027  -11.9824   22.4770 H   0  0  0  0  0  0
  -21.1031  -13.1235   22.2517 H   0  0  0  0  0  0
  -24.6415  -15.8486   20.5687 H   0  0  0  0  0  0
  -26.2506  -15.6529   20.1013 H   0  0  0  0  0  0
  -26.7321  -32.5162   23.0905 H   0  0  0  0  0  0
  -24.9968  -33.9428   25.0200 H   0  0  0  0  0  0
  -22.7913  -31.2587   21.3474 H   0  0  0  0  0  0
  -23.3749  -35.9576   23.3242 H   0  0  0  0  0  0
  -24.3559  -36.9014   22.2090 H   0  0  0  0  0  0
  -23.7172  -37.6391   23.6749 H   0  0  0  0  0  0
  -26.1955  -31.3576   20.6071 H   0  0  0  0  0  0
  -26.9208  -30.7288   22.0345 H   0  0  0  0  0  0
  -28.1617  -28.5860   21.2947 H   0  0  0  0  0  0
  -25.9025  -25.7133   19.0259 H   0  0  0  0  0  0
  -24.0286  -27.2533   18.9602 H   0  0  0  0  0  0
  -23.8738  -30.5021   19.3837 H   0  0  0  0  0  0
  -22.8354  -29.1906   19.8427 H   0  0  0  0  0  0
  -25.1295  -36.1894   25.0764 H   0  0  0  0  0  0
  -20.9996  -28.3420   24.1312 H   0  0  0  0  0  0
  -20.5746  -26.2379   23.3623 H   0  0  0  0  0  0
  -21.6695  -26.7463   22.1185 H   0  0  0  0  0  0
  -19.6955  -25.6290   21.1285 H   0  0  0  0  0  0
  -19.6770  -27.3152   20.6674 H   0  0  0  0  0  0
  -17.4273  -26.6682   21.4006 H   0  0  0  0  0  0
  -18.0358  -26.0082   22.8972 H   0  0  0  0  0  0
  -19.7958  -30.7329   24.2178 H   0  0  0  0  0  0
  -17.5044  -31.6249   24.5187 H   0  0  0  0  0  0
  -15.5364  -30.2980   23.7741 H   0  0  0  0  0  0
  -15.8702  -28.0862   22.7078 H   0  0  0  0  0  0
  -24.5848  -30.7038   25.7613 H   0  0  0  0  0  0
  -24.8753  -32.2863   26.4657 H   0  0  0  0  0  0
  -25.7884  -30.8927   27.0167 H   0  0  0  0  0  0
  -26.3127  -29.6557   24.1307 H   0  0  0  0  0  0
  -27.4131  -29.7304   25.4905 H   0  0  0  0  0  0
  -27.9005  -30.4201   23.9649 H   0  0  0  0  0  0
  -27.2710  -33.3730   26.1815 H   0  0  0  0  0  0
  -28.3978  -32.6666   25.0336 H   0  0  0  0  0  0
  -28.0565  -31.8526   26.5521 H   0  0  0  0  0  0
  -28.2561  -38.0165   24.7612 H   0  0  0  0  0  0
  -28.1212  -36.2664   24.6172 H   0  0  0  0  0  0
  -27.2293  -37.1291   25.8847 H   0  0  0  0  0  0
  -20.9614  -29.8748   21.6629 H   0  0  0  0  0  0
  -26.0179  -38.2798   24.1474 H   0  0  0  0  0  0
  -27.1876  -18.9480   23.1693 H   0  0  0  0  0  0
  -26.3559  -18.6538   21.6386 H   0  0  0  0  0  0
  -27.8345  -16.5862   21.2568 H   0  0  0  0  0  0
  -29.0672  -16.8174   22.4930 H   0  0  0  0  0  0
  -31.2009  -18.4088   20.2667 H   0  0  0  0  0  0
  -30.0824  -18.2922   18.9315 H   0  0  0  0  0  0
  -27.6395  -21.2554   22.5069 H   0  0  0  0  0  0
  -25.9614  -20.9805   22.1453 H   0  0  0  0  0  0
  -26.7637  -21.9248   20.0791 H   0  0  0  0  0  0
  -26.8241  -20.2399   19.7354 H   0  0  0  0  0  0
  -29.2983  -22.6679   21.6130 H   0  0  0  0  0  0
  -30.0501  -22.8364   20.0879 H   0  0  0  0  0  0
  -27.2318  -24.0398   20.9102 H   0  0  0  0  0  0
  -27.6447  -24.0321   19.2478 H   0  0  0  0  0  0
  -28.8459  -21.0384   19.1791 H   0  0  0  0  0  0
  1 25  1  0  0  0
  1 30  2  0  0  0
  1 80  1  0  0  0
  2  3  1  0  0  0
  2 25  1  0  0  0
  2 82  1  0  0  0
  2 83  1  0  0  0
  3  4  1  0  0  0
  3 84  1  0  0  0
  3 85  1  0  0  0
  4  5  1  0  0  0
  4 86  1  0  0  0
  4 87  1  0  0  0
  5  6  1  0  0  0
  5 26  1  0  0  0
  5 88  1  0  0  0
  6 25  1  0  0  0
  6 89  1  0  0  0
  6 90  1  0  0  0
  7  8  2  0  0  0
  7 26  1  0  0  0
  7 29  1  0  0  0
  8  9  1  0  0  0
  8 22  1  0  0  0
  9 10  1  0  0  0
  9 27  2  0  0  0
 10 11  2  0  0  0
 10 15  1  0  0  0
 11 12  1  0  0  0
 11 91  1  0  0  0
 12 13  2  0  0  0
 12 92  1  0  0  0
 13 14  1  0  0  0
 13 31  1  0  0  0
 14 15  2  0  0  0
 14 93  1  0  0  0
 15 94  1  0  0  0
 16 17  2  0  0  0
 16 21  1  0  0  0
 16 31  1  0  0  0
 17 18  1  0  0  0
 17 95  1  0  0  0
 18 19  2  0  0  0
 18 96  1  0  0  0
 19 20  1  0  0  0
 19 24  1  0  0  0
 20 21  2  0  0  0
 20 97  1  0  0  0
 21 23  1  0  0  0
 22 28  1  0  0  0
 22 32  2  0  0  0
 26 27  1  0  0  0
 28 98  1  0  0  0
 28 99  1  0  0  0
 29100  1  0  0  0
 29101  1  0  0  0
 33 34  1  0  0  0
 33 66  1  0  0  0
 33 70  2  0  0  0
 34 36  1  0  0  0
 34 59  1  0  0  0
 34102  1  0  0  0
 35 44  2  0  0  0
 35 45  1  0  0  0
 35 68  1  0  0  0
 36 56  1  0  0  0
 36103  1  0  0  0
 37 39  1  0  0  0
 37 47  1  0  0  0
 37 66  1  0  0  0
 37104  1  0  0  0
 38 43  2  0  0  0
 38 46  1  0  0  0
 38 47  1  0  0  0
 39 64  1  0  0  0
 39 67  2  0  0  0
 40 52  1  0  0  0
 40 53  2  0  0  0
 40 58  1  0  0  0
 41105  1  0  0  0
 41106  1  0  0  0
 41107  1  0  0  0
 41 48  1  0  0  0
 42 43  1  0  0  0
 42 66  1  0  0  0
 42108  1  0  0  0
 42109  1  0  0  0
 43 44  1  0  0  0
 44110  1  0  0  0
 45 46  2  0  0  0
 45111  1  0  0  0
 46112  1  0  0  0
 47113  1  0  0  0
 47114  1  0  0  0
 48 56  1  0  0  0
 48 65  1  0  0  0
 48115  1  0  0  0
 49 50  1  0  0  0
 49 53  1  0  0  0
 49 64  1  0  0  0
 49116  1  0  0  0
 50 51  1  0  0  0
 50117  1  0  0  0
 50118  1  0  0  0
 51 52  1  0  0  0
 51119  1  0  0  0
 51120  1  0  0  0
 52121  1  0  0  0
 52122  1  0  0  0
 53 54  1  0  0  0
 54 55  2  0  0  0
 54123  1  0  0  0
 55 57  1  0  0  0
 55124  1  0  0  0
 56 69  2  0  0  0
 57 58  2  0  0  0
 57125  1  0  0  0
 58126  1  0  0  0
 59 60  1  0  0  0
 59 61  1  0  0  0
 59 62  1  0  0  0
 60127  1  0  0  0
 60128  1  0  0  0
 60129  1  0  0  0
 61130  1  0  0  0
 61131  1  0  0  0
 61132  1  0  0  0
 62133  1  0  0  0
 62134  1  0  0  0
 62135  1  0  0  0
 63 65  1  0  0  0
 63136  1  0  0  0
 63137  1  0  0  0
 63138  1  0  0  0
 64139  1  0  0  0
 65140  1  0  0  0
 68 79  1  0  0  0
 71 72  2  0  0  0
 71 73  1  0  0  0
 71 74  1  0  0  0
 72 75  1  0  0  0
 72 81  1  0  0  0
 73 76  1  0  0  0
 73141  1  0  0  0
 73142  1  0  0  0
 74 80  1  0  0  0
 74143  1  0  0  0
 74144  1  0  0  0
 75 80  1  0  0  0
 75145  1  0  0  0
 75146  1  0  0  0
 76 77  1  0  0  0
 76147  1  0  0  0
 76148  1  0  0  0
 77 81  1  0  0  0
 77149  1  0  0  0
 77150  1  0  0  0
 78 79  1  0  0  0
 78151  1  0  0  0
 78152  1  0  0  0
 78 81  1  0  0  0
 79153  1  0  0  0
 79154  1  0  0  0
 81155  1  0  0  0
M  CHG  1  81   1
M  ISO  4   1 100  68 101  79 101  80 100
M  END
> <chiral flag>
0

> <version>
0

> <s_m_source_file>
/data/baiqing/PycharmProjects/Reinvent-master-3.2/result/LINK_invent/BTK/process_docking_weight1_custom_product_contain_oxygen_bond_distance_aromatic_linkinvent_7_9_3/rearranged_h_0154.sdf

> <i_m_source_file_index>
20

> <r_mmod_Potential_Energy-OPLS-2005>
1500.14892578125

> <r_mmod_Stretch_Energy-OPLS-2005>
652.891906738281

> <r_mmod_Bend_Energy-OPLS-2005>
573.718505859375

> <r_mmod_Torsional_Energy-OPLS-2005>
281.522155761719

> <r_mmod_Improper_Torsional_Energy-OPLS-2005>
11.1276578903198

> <r_mmod_Van_der_Waal_Energy-OPLS-2005>
116.241119384766

> <r_mmod_Electrostatic_Energy-OPLS-2005>
-197.980560302734

> <r_mmod_Solvation_Energy-OPLS-2005>
-447.256927490234

> <b_mmod_Minimization_Converged-OPLS-2005>
0

> <r_mmod_RMS_Derivative-OPLS-2005>
7.31222200393677

$$$$
20
                    3D
 Structure written by MMmdl.
153161  0  0  1  0            999 V2000
  -30.6010  -14.7660   20.4880 C   0  0  0  0  0  0
  -30.4301  -12.4799   19.4848 C   0  0  0  0  0  0
  -29.5192  -12.5675   18.2391 C   0  0  0  0  0  0
  -28.0365  -12.3893   18.6290 C   0  0  0  0  0  0
  -27.6487  -13.2321   19.8754 C   0  0  2  0  0  0
  -28.6903  -13.1045   21.0042 C   0  0  0  0  0  0
  -25.2573  -13.8170   20.5738 C   0  0  0  0  0  0
  -24.1838  -13.0418   20.9160 C   0  0  0  0  0  0
  -24.6396  -11.6899   20.8674 C   0  0  0  0  0  0
  -23.9089  -10.4293   21.0394 C   0  0  0  0  0  0
  -24.3642   -9.4228   21.9176 C   0  0  0  0  0  0
  -23.6317   -8.2254   22.0780 C   0  0  0  0  0  0
  -22.4306   -8.0275   21.3557 C   0  0  0  0  0  0
  -21.9923   -9.0248   20.4672 C   0  0  0  0  0  0
  -22.7261  -10.2134   20.3067 C   0  0  0  0  0  0
  -21.6863   -6.0754   22.5292 C   0  0  0  0  0  0
  -21.4013   -6.5661   23.8224 C   0  0  0  0  0  0
  -21.3653   -5.6817   24.9168 C   0  0  0  0  0  0
  -21.6028   -4.3076   24.7237 C   0  0  0  0  0  0
  -21.8831   -3.8176   23.4351 C   0  0  0  0  0  0
  -21.9207   -4.6972   22.3412 C   0  0  0  0  0  0
  -22.7860  -13.5230   21.1800 C   0  0  0  0  0  0
  -22.1676   -4.2166   21.0977 F   0  0  0  0  0  0
  -21.5630   -3.4558   25.7752 F   0  0  0  0  0  0
  -29.9863  -13.5222   20.4478 N   0  0  0  0  0  0
  -26.2994  -12.9356   20.3406 N   0  0  0  0  0  0
  -25.9337  -11.6501   20.5714 N   0  0  0  0  0  0
  -22.0523  -12.8172   22.0336 N   0  0  0  0  0  0
  -25.4372  -15.1884   20.4333 N   0  0  0  0  0  0
  -31.7777  -14.8426   20.1133 O   0  0  0  0  0  0
  -21.6658   -6.8875   21.4267 O   0  0  0  0  0  0
  -22.3532  -14.5562   20.6712 O   0  0  0  0  0  0
  -24.6312  -31.8486   23.1961 C   0  0  0  0  0  0
  -25.9109  -32.4729   23.8345 C   0  0  1  0  0  0
  -27.2580  -27.2550   20.1636 C   0  0  0  0  0  0
  -25.5877  -33.8536   24.2256 N   0  0  0  0  0  0
  -23.4336  -30.4639   21.5386 C   0  0  2  0  0  0
  -24.8954  -28.9054   20.1235 C   0  0  0  0  0  0
  -22.7509  -29.4536   22.4921 C   0  0  0  0  0  0
  -18.0242  -28.1417   22.8508 C   0  0  0  0  0  0
  -24.1465  -36.7270   23.2656 C   0  0  0  0  0  0
  -25.9796  -30.7677   21.3777 C   0  0  0  0  0  0
  -26.0639  -29.3853   20.7291 C   0  0  0  0  0  0
  -27.2476  -28.5762   20.7298 C   0  0  0  0  0  0
  -26.0689  -26.8493   19.5168 C   0  0  0  0  0  0
  -24.9021  -27.6436   19.5090 C   0  0  0  0  0  0
  -23.6573  -29.7822   20.1632 C   0  0  0  0  0  0
  -25.4103  -36.3048   24.0336 C   0  0  1  0  0  0
  -20.5855  -28.3683   23.1277 C   0  0  2  0  0  0
  -20.6709  -26.9388   22.5448 C   0  0  0  0  0  0
  -19.5672  -26.6352   21.5252 C   0  0  0  0  0  0
  -18.1874  -26.7945   22.1723 C   0  0  0  0  0  0
  -19.1509  -28.8873   23.2885 C   0  0  0  0  0  0
  -18.9455  -30.1481   23.8910 C   0  0  0  0  0  0
  -17.6469  -30.6636   24.0585 C   0  0  0  0  0  0
  -25.9039  -34.9414   23.5114 C   0  0  0  0  0  0
  -16.5338  -29.9142   23.6373 C   0  0  0  0  0  0
  -16.7240  -28.6559   23.0382 C   0  0  0  0  0  0
  -26.4498  -31.6575   25.0756 C   0  0  0  0  0  0
  -25.3735  -31.3714   26.1490 C   0  0  0  0  0  0
  -27.0397  -30.2994   24.6297 C   0  0  0  0  0  0
  -27.6034  -32.4362   25.7546 C   0  0  0  0  0  0
  -27.5572  -37.1793   24.8469 C   0  0  0  0  0  0
  -21.4202  -29.3015   22.3687 N   0  0  0  0  0  0
  -26.4277  -37.3757   23.9432 N   0  0  0  0  0  0
  -24.6990  -31.0465   22.0931 N   0  0  0  0  0  0
  -23.4199  -28.8079   23.3004 O   0  0  0  0  0  0
  -28.3818  -26.3838   20.1552 O   0  0  0  0  0  0
  -26.5610  -34.8881   22.4670 O   0  0  0  0  0  0
  -23.5442  -32.1258   23.7250 O   0  0  0  0  0  0
  -31.3493  -17.8552   19.5734 C   0  0  0  0  0  0
  -31.3056  -19.2678   19.3368 C   0  0  0  0  0  0
  -30.2824  -17.4878   20.3563 C   0  0  0  0  0  0
  -30.2162  -19.7744   19.9893 C   0  0  0  0  0  0
  -29.7771  -16.1258   20.8478 C   0  0  0  0  0  0
  -27.0407  -24.5431   21.3346 C   0  0  0  0  0  0
  -29.0893  -23.7275   19.9915 C   0  0  0  0  0  0
  -29.2310  -22.2315   20.6547 C   0  0  0  0  0  0
  -28.3978  -24.9887   20.7676 C   0  0  1  0  0  0
  -28.6971  -16.1034   21.5153 N   0  0  0  0  0  0
  -29.7674  -21.1425   19.7466 N   0  0  0  0  0  0
  -29.5536  -18.7010   20.6270 O   0  0  0  0  0  0
  -31.4770  -12.5911   19.1947 H   0  0  0  0  0  0
  -30.3553  -11.4871   19.9296 H   0  0  0  0  0  0
  -29.8135  -11.8221   17.5008 H   0  0  0  0  0  0
  -29.6533  -13.5378   17.7540 H   0  0  0  0  0  0
  -27.8620  -11.3292   18.8139 H   0  0  0  0  0  0
  -27.3997  -12.6666   17.7885 H   0  0  0  0  0  0
  -27.6576  -14.2707   19.5480 H   0  0  0  0  0  0
  -28.7450  -12.0737   21.3570 H   0  0  0  0  0  0
  -28.4000  -13.6794   21.8833 H   0  0  0  0  0  0
  -25.2777   -9.5700   22.4740 H   0  0  0  0  0  0
  -24.0056   -7.4651   22.7485 H   0  0  0  0  0  0
  -21.0867   -8.8743   19.8942 H   0  0  0  0  0  0
  -22.3714  -10.9657   19.6164 H   0  0  0  0  0  0
  -21.1994   -7.6171   23.9712 H   0  0  0  0  0  0
  -21.1464   -6.0547   25.9068 H   0  0  0  0  0  0
  -22.0613   -2.7643   23.2855 H   0  0  0  0  0  0
  -22.4166  -11.9817   22.4681 H   0  0  0  0  0  0
  -21.1142  -13.1172   22.2563 H   0  0  0  0  0  0
  -24.7119  -15.8656   20.6415 H   0  0  0  0  0  0
  -26.3557  -15.6066   20.3317 H   0  0  0  0  0  0
  -26.7195  -32.5410   23.1126 H   0  0  0  0  0  0
  -25.0046  -33.9648   25.0406 H   0  0  0  0  0  0
  -22.7312  -31.2848   21.3843 H   0  0  0  0  0  0
  -23.3734  -35.9601   23.3313 H   0  0  0  0  0  0
  -24.3549  -36.8891   22.2075 H   0  0  0  0  0  0
  -23.7213  -37.6461   23.6679 H   0  0  0  0  0  0
  -26.1052  -31.5257   20.6021 H   0  0  0  0  0  0
  -26.8584  -30.8298   22.0083 H   0  0  0  0  0  0
  -28.1449  -28.9466   21.2080 H   0  0  0  0  0  0
  -26.0380  -25.8884   19.0286 H   0  0  0  0  0  0
  -24.0090  -27.2700   19.0295 H   0  0  0  0  0  0
  -23.7665  -30.5455   19.3910 H   0  0  0  0  0  0
  -22.7825  -29.1957   19.8731 H   0  0  0  0  0  0
  -25.1282  -36.1912   25.0835 H   0  0  0  0  0  0
  -20.9904  -28.3210   24.1411 H   0  0  0  0  0  0
  -20.5581  -26.2306   23.3674 H   0  0  0  0  0  0
  -21.6588  -26.7368   22.1311 H   0  0  0  0  0  0
  -19.6790  -25.6231   21.1287 H   0  0  0  0  0  0
  -19.6618  -27.3161   20.6784 H   0  0  0  0  0  0
  -17.4092  -26.6589   21.4168 H   0  0  0  0  0  0
  -18.0298  -26.0154   22.9215 H   0  0  0  0  0  0
  -19.7924  -30.7278   24.2308 H   0  0  0  0  0  0
  -17.5033  -31.6300   24.5184 H   0  0  0  0  0  0
  -15.5344  -30.3067   23.7728 H   0  0  0  0  0  0
  -15.8620  -28.0894   22.7104 H   0  0  0  0  0  0
  -24.5914  -30.7068   25.7818 H   0  0  0  0  0  0
  -24.8932  -32.2868   26.4955 H   0  0  0  0  0  0
  -25.8063  -30.8878   27.0261 H   0  0  0  0  0  0
  -26.3021  -29.6728   24.1292 H   0  0  0  0  0  0
  -27.3988  -29.7301   25.4882 H   0  0  0  0  0  0
  -27.8912  -30.4255   23.9628 H   0  0  0  0  0  0
  -27.2619  -33.3677   26.2101 H   0  0  0  0  0  0
  -28.3872  -32.6927   25.0401 H   0  0  0  0  0  0
  -28.0695  -31.8532   26.5497 H   0  0  0  0  0  0
  -28.2586  -38.0090   24.7535 H   0  0  0  0  0  0
  -28.1070  -36.2622   24.6287 H   0  0  0  0  0  0
  -27.2280  -37.1449   25.8863 H   0  0  0  0  0  0
  -20.9388  -29.8884   21.6997 H   0  0  0  0  0  0
  -26.0148  -38.2835   24.1423 H   0  0  0  0  0  0
  -32.0775  -17.1646   19.1703 H   0  0  0  0  0  0
  -31.9874  -19.8143   18.7008 H   0  0  0  0  0  0
  -26.3537  -24.2547   20.5380 H   0  0  0  0  0  0
  -27.1597  -23.6749   21.9799 H   0  0  0  0  0  0
  -26.5697  -25.3167   21.9395 H   0  0  0  0  0  0
  -28.5713  -23.6136   19.0392 H   0  0  0  0  0  0
  -30.0957  -24.0477   19.7200 H   0  0  0  0  0  0
  -28.2567  -21.9103   21.0310 H   0  0  0  0  0  0
  -29.8881  -22.3106   21.5250 H   0  0  0  0  0  0
  -29.0237  -25.1324   21.6515 H   0  0  0  0  0  0
  -28.3108  -17.0315   21.6445 H   0  0  0  0  0  0
  -30.3124  -21.5525   18.9916 H   0  0  0  0  0  0
  1 25  1  0  0  0
  1 30  2  0  0  0
  1 75  1  0  0  0
  2  3  1  0  0  0
  2 25  1  0  0  0
  2 83  1  0  0  0
  2 84  1  0  0  0
  3  4  1  0  0  0
  3 85  1  0  0  0
  3 86  1  0  0  0
  4  5  1  0  0  0
  4 87  1  0  0  0
  4 88  1  0  0  0
  5  6  1  0  0  0
  5 26  1  0  0  0
  5 89  1  0  0  0
  6 25  1  0  0  0
  6 90  1  0  0  0
  6 91  1  0  0  0
  7  8  2  0  0  0
  7 26  1  0  0  0
  7 29  1  0  0  0
  8  9  1  0  0  0
  8 22  1  0  0  0
  9 10  1  0  0  0
  9 27  2  0  0  0
 10 11  2  0  0  0
 10 15  1  0  0  0
 11 12  1  0  0  0
 11 92  1  0  0  0
 12 13  2  0  0  0
 12 93  1  0  0  0
 13 14  1  0  0  0
 13 31  1  0  0  0
 14 15  2  0  0  0
 14 94  1  0  0  0
 15 95  1  0  0  0
 16 17  2  0  0  0
 16 21  1  0  0  0
 16 31  1  0  0  0
 17 18  1  0  0  0
 17 96  1  0  0  0
 18 19  2  0  0  0
 18 97  1  0  0  0
 19 20  1  0  0  0
 19 24  1  0  0  0
 20 21  2  0  0  0
 20 98  1  0  0  0
 21 23  1  0  0  0
 22 28  1  0  0  0
 22 32  2  0  0  0
 26 27  1  0  0  0
 28 99  1  0  0  0
 28100  1  0  0  0
 29101  1  0  0  0
 29102  1  0  0  0
 33 34  1  0  0  0
 33 66  1  0  0  0
 33 70  2  0  0  0
 34 36  1  0  0  0
 34 59  1  0  0  0
 34103  1  0  0  0
 35 44  2  0  0  0
 35 45  1  0  0  0
 35 68  1  0  0  0
 36 56  1  0  0  0
 36104  1  0  0  0
 37 39  1  0  0  0
 37 47  1  0  0  0
 37 66  1  0  0  0
 37105  1  0  0  0
 38 43  2  0  0  0
 38 46  1  0  0  0
 38 47  1  0  0  0
 39 64  1  0  0  0
 39 67  2  0  0  0
 40 52  1  0  0  0
 40 53  2  0  0  0
 40 58  1  0  0  0
 41106  1  0  0  0
 41107  1  0  0  0
 41108  1  0  0  0
 41 48  1  0  0  0
 42 43  1  0  0  0
 42 66  1  0  0  0
 42109  1  0  0  0
 42110  1  0  0  0
 43 44  1  0  0  0
 44111  1  0  0  0
 45 46  2  0  0  0
 45112  1  0  0  0
 46113  1  0  0  0
 47114  1  0  0  0
 47115  1  0  0  0
 48 56  1  0  0  0
 48 65  1  0  0  0
 48116  1  0  0  0
 49 50  1  0  0  0
 49 53  1  0  0  0
 49 64  1  0  0  0
 49117  1  0  0  0
 50 51  1  0  0  0
 50118  1  0  0  0
 50119  1  0  0  0
 51 52  1  0  0  0
 51120  1  0  0  0
 51121  1  0  0  0
 52122  1  0  0  0
 52123  1  0  0  0
 53 54  1  0  0  0
 54 55  2  0  0  0
 54124  1  0  0  0
 55 57  1  0  0  0
 55125  1  0  0  0
 56 69  2  0  0  0
 57 58  2  0  0  0
 57126  1  0  0  0
 58127  1  0  0  0
 59 60  1  0  0  0
 59 61  1  0  0  0
 59 62  1  0  0  0
 60128  1  0  0  0
 60129  1  0  0  0
 60130  1  0  0  0
 61131  1  0  0  0
 61132  1  0  0  0
 61133  1  0  0  0
 62134  1  0  0  0
 62135  1  0  0  0
 62136  1  0  0  0
 63 65  1  0  0  0
 63137  1  0  0  0
 63138  1  0  0  0
 63139  1  0  0  0
 64140  1  0  0  0
 65141  1  0  0  0
 68 79  1  0  0  0
 71 72  1  0  0  0
 71 73  2  0  0  0
 71142  1  0  0  0
 72 74  2  0  0  0
 72143  1  0  0  0
 73 75  1  0  0  0
 73 82  1  0  0  0
 74 81  1  0  0  0
 74 82  1  0  0  0
 75 80  2  0  0  0
 76144  1  0  0  0
 76145  1  0  0  0
 76146  1  0  0  0
 76 79  1  0  0  0
 77 78  1  0  0  0
 77 79  1  0  0  0
 77147  1  0  0  0
 77148  1  0  0  0
 78 81  1  0  0  0
 78149  1  0  0  0
 78150  1  0  0  0
 79151  1  0  0  0
 80152  1  0  0  0
 81153  1  0  0  0
M  ISO  4   1 100  68 101  75 100  79 101
M  END
> <chiral flag>
0

> <version>
0

> <s_m_source_file>
/data/baiqing/PycharmProjects/Reinvent-master-3.2/result/LINK_invent/BTK/process_docking_weight1_custom_product_contain_oxygen_bond_distance_aromatic_linkinvent_7_9_3/rearranged_h_0154.sdf

> <i_m_source_file_index>
21

> <r_mmod_Potential_Energy-OPLS-2005>
352.954345703125

> <r_mmod_Stretch_Energy-OPLS-2005>
157.711578369141

> <r_mmod_Bend_Energy-OPLS-2005>
222.888107299805

> <r_mmod_Torsional_Energy-OPLS-2005>
213.809448242188

> <r_mmod_Improper_Torsional_Energy-OPLS-2005>
8.24309921264648

> <r_mmod_Van_der_Waal_Energy-OPLS-2005>
124.693359375

> <r_mmod_Electrostatic_Energy-OPLS-2005>
-253.601684570312

> <r_mmod_Solvation_Energy-OPLS-2005>
-203.765975952148

> <b_mmod_Minimization_Converged-OPLS-2005>
0

> <r_mmod_RMS_Derivative-OPLS-2005>
5.57138395309448

$$$$
21
                    3D
 Structure written by MMmdl.
151160  0  0  1  0            999 V2000
  -30.5548  -14.9715   20.4328 C   0  0  0  0  0  0
  -30.4345  -12.6085   19.4975 C   0  0  0  0  0  0
  -29.5183  -12.5372   18.2550 C   0  0  0  0  0  0
  -28.0538  -12.3188   18.6763 C   0  0  0  0  0  0
  -27.6271  -13.2554   19.8370 C   0  0  2  0  0  0
  -28.6692  -13.3012   20.9735 C   0  0  0  0  0  0
  -25.2454  -13.8234   20.5733 C   0  0  0  0  0  0
  -24.1770  -13.0444   20.9221 C   0  0  0  0  0  0
  -24.6395  -11.6933   20.8743 C   0  0  0  0  0  0
  -23.9082  -10.4298   21.0399 C   0  0  0  0  0  0
  -24.3629   -9.4213   21.9178 C   0  0  0  0  0  0
  -23.6301   -8.2248   22.0752 C   0  0  0  0  0  0
  -22.4281   -8.0284   21.3544 C   0  0  0  0  0  0
  -21.9920   -9.0259   20.4646 C   0  0  0  0  0  0
  -22.7252  -10.2136   20.3053 C   0  0  0  0  0  0
  -21.6857   -6.0737   22.5278 C   0  0  0  0  0  0
  -21.4019   -6.5640   23.8212 C   0  0  0  0  0  0
  -21.3660   -5.6792   24.9173 C   0  0  0  0  0  0
  -21.6044   -4.3055   24.7224 C   0  0  0  0  0  0
  -21.8818   -3.8148   23.4344 C   0  0  0  0  0  0
  -21.9195   -4.6965   22.3401 C   0  0  0  0  0  0
  -22.7790  -13.5209   21.1880 C   0  0  0  0  0  0
  -22.1662   -4.2150   21.0979 F   0  0  0  0  0  0
  -21.5628   -3.4538   25.7736 F   0  0  0  0  0  0
  -29.9411  -13.7169   20.3691 N   0  0  0  0  0  0
  -26.2880  -12.9479   20.3258 N   0  0  0  0  0  0
  -25.9332  -11.6597   20.5735 N   0  0  0  0  0  0
  -22.0446  -12.8194   22.0437 N   0  0  0  0  0  0
  -25.4133  -15.1967   20.4207 N   0  0  0  0  0  0
  -31.7543  -15.0072   20.1322 O   0  0  0  0  0  0
  -21.6644   -6.8881   21.4240 O   0  0  0  0  0  0
  -22.3467  -14.5512   20.6727 O   0  0  0  0  0  0
  -24.6467  -31.8414   23.1868 C   0  0  0  0  0  0
  -25.9227  -32.4680   23.8265 C   0  0  1  0  0  0
  -27.2116  -27.1029   20.1511 C   0  0  0  0  0  0
  -25.5962  -33.8489   24.2177 N   0  0  0  0  0  0
  -23.4518  -30.4613   21.5328 C   0  0  2  0  0  0
  -24.9018  -28.8864   20.1073 C   0  0  0  0  0  0
  -22.7586  -29.4533   22.4844 C   0  0  0  0  0  0
  -18.0308  -28.1396   22.8475 C   0  0  0  0  0  0
  -24.1494  -36.7249   23.2643 C   0  0  0  0  0  0
  -26.0110  -30.7031   21.3932 C   0  0  0  0  0  0
  -26.0801  -29.3121   20.7334 C   0  0  0  0  0  0
  -27.2345  -28.4356   20.7413 C   0  0  0  0  0  0
  -26.0109  -26.7974   19.4704 C   0  0  0  0  0  0
  -24.8823  -27.6439   19.4596 C   0  0  0  0  0  0
  -23.6805  -29.7924   20.1516 C   0  0  0  0  0  0
  -25.4127  -36.3024   24.0312 C   0  0  1  0  0  0
  -20.5924  -28.3728   23.1224 C   0  0  2  0  0  0
  -20.6791  -26.9428   22.5401 C   0  0  0  0  0  0
  -19.5764  -26.6380   21.5210 C   0  0  0  0  0  0
  -18.1947  -26.7933   22.1623 C   0  0  0  0  0  0
  -19.1566  -28.8880   23.2841 C   0  0  0  0  0  0
  -18.9481  -30.1474   23.8871 C   0  0  0  0  0  0
  -17.6477  -30.6592   24.0558 C   0  0  0  0  0  0
  -25.9080  -34.9399   23.5055 C   0  0  0  0  0  0
  -16.5368  -29.9084   23.6336 C   0  0  0  0  0  0
  -16.7293  -28.6501   23.0358 C   0  0  0  0  0  0
  -26.4534  -31.6560   25.0721 C   0  0  0  0  0  0
  -25.3706  -31.3761   26.1407 C   0  0  0  0  0  0
  -27.0405  -30.2949   24.6335 C   0  0  0  0  0  0
  -27.6057  -32.4333   25.7510 C   0  0  0  0  0  0
  -27.5574  -37.1787   24.8468 C   0  0  0  0  0  0
  -21.4273  -29.3050   22.3593 N   0  0  0  0  0  0
  -26.4289  -37.3738   23.9403 N   0  0  0  0  0  0
  -24.7232  -31.0239   22.0923 N   0  0  0  0  0  0
  -23.4214  -28.8081   23.3005 O   0  0  0  0  0  0
  -28.2347  -26.0764   20.2431 O   0  0  0  0  0  0
  -26.5669  -34.8901   22.4635 O   0  0  0  0  0  0
  -23.5577  -32.1309   23.7063 O   0  0  0  0  0  0
  -29.6052  -19.7754   21.2387 C   0  0  0  0  0  0
  -28.6964  -19.5106   19.0044 C   0  0  0  0  0  0
  -29.8230  -18.3316   21.1930 C   0  0  0  0  0  0
  -29.4996  -17.4441   20.1067 C   0  0  0  0  0  0
  -28.9939  -20.4454   20.0906 C   0  0  0  0  0  0
  -28.9225  -18.0633   18.9754 C   0  0  0  0  0  0
  -28.7907  -23.2340   20.4207 C   0  0  0  0  0  0
  -30.2811  -17.0766   21.9656 C   0  0  0  0  0  0
  -27.9125  -24.5707   19.9232 C   0  0  0  0  0  0
  -29.8583  -16.1652   20.8022 N   0  0  0  0  0  0
  -28.5463  -17.2864   17.8820 N   0  0  0  0  0  0
  -28.5383  -21.9202   19.9218 N   0  0  0  0  0  0
  -29.6777  -23.4057   21.2608 O   0  0  0  0  0  0
  -31.4686  -12.7599   19.1842 H   0  0  0  0  0  0
  -30.4268  -11.6614   20.0394 H   0  0  0  0  0  0
  -29.8414  -11.7352   17.5898 H   0  0  0  0  0  0
  -29.6022  -13.4633   17.6838 H   0  0  0  0  0  0
  -27.9547  -11.2786   18.9887 H   0  0  0  0  0  0
  -27.3890  -12.4448   17.8211 H   0  0  0  0  0  0
  -27.5853  -14.2556   19.4043 H   0  0  0  0  0  0
  -28.7620  -12.3325   21.4664 H   0  0  0  0  0  0
  -28.3630  -14.0136   21.7413 H   0  0  0  0  0  0
  -25.2770   -9.5692   22.4756 H   0  0  0  0  0  0
  -24.0010   -7.4640   22.7472 H   0  0  0  0  0  0
  -21.0850   -8.8781   19.8953 H   0  0  0  0  0  0
  -22.3707  -10.9675   19.6166 H   0  0  0  0  0  0
  -21.2013   -7.6148   23.9716 H   0  0  0  0  0  0
  -21.1483   -6.0521   25.9076 H   0  0  0  0  0  0
  -22.0597   -2.7610   23.2843 H   0  0  0  0  0  0
  -22.4075  -11.9865   22.4836 H   0  0  0  0  0  0
  -21.1060  -13.1210   22.2640 H   0  0  0  0  0  0
  -24.6496  -15.8521   20.5445 H   0  0  0  0  0  0
  -26.2738  -15.6422   20.1274 H   0  0  0  0  0  0
  -26.7290  -32.5275   23.0988 H   0  0  0  0  0  0
  -25.0085  -33.9598   25.0309 H   0  0  0  0  0  0
  -22.7559  -31.2885   21.3778 H   0  0  0  0  0  0
  -23.3757  -35.9580   23.3301 H   0  0  0  0  0  0
  -24.3575  -36.8888   22.2058 H   0  0  0  0  0  0
  -23.7250  -37.6444   23.6685 H   0  0  0  0  0  0
  -26.1734  -31.4565   20.6213 H   0  0  0  0  0  0
  -26.8787  -30.7519   22.0394 H   0  0  0  0  0  0
  -28.1269  -28.7524   21.2628 H   0  0  0  0  0  0
  -25.9009  -25.8549   18.9566 H   0  0  0  0  0  0
  -23.9859  -27.3165   18.9508 H   0  0  0  0  0  0
  -23.8210  -30.5682   19.3980 H   0  0  0  0  0  0
  -22.7941  -29.2379   19.8383 H   0  0  0  0  0  0
  -25.1319  -36.1848   25.0804 H   0  0  0  0  0  0
  -21.0014  -28.3321   24.1346 H   0  0  0  0  0  0
  -20.5681  -26.2345   23.3625 H   0  0  0  0  0  0
  -21.6657  -26.7429   22.1203 H   0  0  0  0  0  0
  -19.6928  -25.6283   21.1260 H   0  0  0  0  0  0
  -19.6698  -27.3172   20.6724 H   0  0  0  0  0  0
  -17.4215  -26.6673   21.4029 H   0  0  0  0  0  0
  -18.0351  -26.0082   22.9028 H   0  0  0  0  0  0
  -19.7956  -30.7296   24.2231 H   0  0  0  0  0  0
  -17.5031  -31.6269   24.5162 H   0  0  0  0  0  0
  -15.5367  -30.2977   23.7674 H   0  0  0  0  0  0
  -15.8693  -28.0810   22.7090 H   0  0  0  0  0  0
  -24.5893  -30.7103   25.7725 H   0  0  0  0  0  0
  -24.8888  -32.2947   26.4765 H   0  0  0  0  0  0
  -25.7978  -30.8977   27.0230 H   0  0  0  0  0  0
  -26.3034  -29.6662   24.1327 H   0  0  0  0  0  0
  -27.3983  -29.7261   25.4928 H   0  0  0  0  0  0
  -27.8958  -30.4170   23.9686 H   0  0  0  0  0  0
  -27.2646  -33.3654   26.2026 H   0  0  0  0  0  0
  -28.3901  -32.6860   25.0363 H   0  0  0  0  0  0
  -28.0690  -31.8501   26.5478 H   0  0  0  0  0  0
  -28.2594  -38.0080   24.7496 H   0  0  0  0  0  0
  -28.1066  -36.2607   24.6319 H   0  0  0  0  0  0
  -27.2288  -37.1463   25.8872 H   0  0  0  0  0  0
  -20.9491  -29.8764   21.6769 H   0  0  0  0  0  0
  -26.0154  -38.2809   24.1390 H   0  0  0  0  0  0
  -29.8512  -20.3356   22.1299 H   0  0  0  0  0  0
  -28.2318  -19.9368   18.1269 H   0  0  0  0  0  0
  -29.7111  -16.9199   22.8820 H   0  0  0  0  0  0
  -31.3537  -17.0827   22.1664 H   0  0  0  0  0  0
  -26.9122  -24.3747   20.3100 H   0  0  0  0  0  0
  -27.8314  -24.4928   18.8388 H   0  0  0  0  0  0
  -27.8889  -17.6658   17.2083 H   0  0  0  0  0  0
  -28.4714  -16.2817   17.9936 H   0  0  0  0  0  0
  -27.8405  -21.9977   19.1938 H   0  0  0  0  0  0
  1 25  1  0  0  0
  1 30  2  0  0  0
  1 80  1  0  0  0
  2  3  1  0  0  0
  2 25  1  0  0  0
  2 84  1  0  0  0
  2 85  1  0  0  0
  3  4  1  0  0  0
  3 86  1  0  0  0
  3 87  1  0  0  0
  4  5  1  0  0  0
  4 88  1  0  0  0
  4 89  1  0  0  0
  5  6  1  0  0  0
  5 26  1  0  0  0
  5 90  1  0  0  0
  6 25  1  0  0  0
  6 91  1  0  0  0
  6 92  1  0  0  0
  7  8  2  0  0  0
  7 26  1  0  0  0
  7 29  1  0  0  0
  8  9  1  0  0  0
  8 22  1  0  0  0
  9 10  1  0  0  0
  9 27  2  0  0  0
 10 11  2  0  0  0
 10 15  1  0  0  0
 11 12  1  0  0  0
 11 93  1  0  0  0
 12 13  2  0  0  0
 12 94  1  0  0  0
 13 14  1  0  0  0
 13 31  1  0  0  0
 14 15  2  0  0  0
 14 95  1  0  0  0
 15 96  1  0  0  0
 16 17  2  0  0  0
 16 21  1  0  0  0
 16 31  1  0  0  0
 17 18  1  0  0  0
 17 97  1  0  0  0
 18 19  2  0  0  0
 18 98  1  0  0  0
 19 20  1  0  0  0
 19 24  1  0  0  0
 20 21  2  0  0  0
 20 99  1  0  0  0
 21 23  1  0  0  0
 22 28  1  0  0  0
 22 32  2  0  0  0
 26 27  1  0  0  0
 28100  1  0  0  0
 28101  1  0  0  0
 29102  1  0  0  0
 29103  1  0  0  0
 33 34  1  0  0  0
 33 66  1  0  0  0
 33 70  2  0  0  0
 34 36  1  0  0  0
 34 59  1  0  0  0
 34104  1  0  0  0
 35 44  2  0  0  0
 35 45  1  0  0  0
 35 68  1  0  0  0
 36 56  1  0  0  0
 36105  1  0  0  0
 37 39  1  0  0  0
 37 47  1  0  0  0
 37 66  1  0  0  0
 37106  1  0  0  0
 38 43  2  0  0  0
 38 46  1  0  0  0
 38 47  1  0  0  0
 39 64  1  0  0  0
 39 67  2  0  0  0
 40 52  1  0  0  0
 40 53  2  0  0  0
 40 58  1  0  0  0
 41107  1  0  0  0
 41108  1  0  0  0
 41109  1  0  0  0
 41 48  1  0  0  0
 42 43  1  0  0  0
 42 66  1  0  0  0
 42110  1  0  0  0
 42111  1  0  0  0
 43 44  1  0  0  0
 44112  1  0  0  0
 45 46  2  0  0  0
 45113  1  0  0  0
 46114  1  0  0  0
 47115  1  0  0  0
 47116  1  0  0  0
 48 56  1  0  0  0
 48 65  1  0  0  0
 48117  1  0  0  0
 49 50  1  0  0  0
 49 53  1  0  0  0
 49 64  1  0  0  0
 49118  1  0  0  0
 50 51  1  0  0  0
 50119  1  0  0  0
 50120  1  0  0  0
 51 52  1  0  0  0
 51121  1  0  0  0
 51122  1  0  0  0
 52123  1  0  0  0
 52124  1  0  0  0
 53 54  1  0  0  0
 54 55  2  0  0  0
 54125  1  0  0  0
 55 57  1  0  0  0
 55126  1  0  0  0
 56 69  2  0  0  0
 57 58  2  0  0  0
 57127  1  0  0  0
 58128  1  0  0  0
 59 60  1  0  0  0
 59 61  1  0  0  0
 59 62  1  0  0  0
 60129  1  0  0  0
 60130  1  0  0  0
 60131  1  0  0  0
 61132  1  0  0  0
 61133  1  0  0  0
 61134  1  0  0  0
 62135  1  0  0  0
 62136  1  0  0  0
 62137  1  0  0  0
 63 65  1  0  0  0
 63138  1  0  0  0
 63139  1  0  0  0
 63140  1  0  0  0
 64141  1  0  0  0
 65142  1  0  0  0
 68 79  1  0  0  0
 71 73  2  0  0  0
 71 75  1  0  0  0
 71143  1  0  0  0
 72 75  2  0  0  0
 72 76  1  0  0  0
 72144  1  0  0  0
 73 74  1  0  0  0
 73 78  1  0  0  0
 74 76  2  0  0  0
 74 80  1  0  0  0
 75 82  1  0  0  0
 76 81  1  0  0  0
 77 79  1  0  0  0
 77 82  1  0  0  0
 77 83  2  0  0  0
 78 80  1  0  0  0
 78145  1  0  0  0
 78146  1  0  0  0
 79147  1  0  0  0
 79148  1  0  0  0
 81149  1  0  0  0
 81150  1  0  0  0
 82151  1  0  0  0
M  ISO  4   1 100  68 101  79 101  80 100
M  END
> <chiral flag>
0

> <version>
0

> <s_m_source_file>
/data/baiqing/PycharmProjects/Reinvent-master-3.2/result/LINK_invent/BTK/process_docking_weight1_custom_product_contain_oxygen_bond_distance_aromatic_linkinvent_7_9_3/rearranged_h_0154.sdf

> <i_m_source_file_index>
22

> <r_mmod_Potential_Energy-OPLS-2005>
953.964599609375

> <r_mmod_Stretch_Energy-OPLS-2005>
267.072052001953

> <r_mmod_Bend_Energy-OPLS-2005>
691.963806152344

> <r_mmod_Torsional_Energy-OPLS-2005>
276.417846679688

> <r_mmod_Improper_Torsional_Energy-OPLS-2005>
11.384126663208

> <r_mmod_Van_der_Waal_Energy-OPLS-2005>
121.479858398438

> <r_mmod_Electrostatic_Energy-OPLS-2005>
-383.399017333984

> <r_mmod_Solvation_Energy-OPLS-2005>
-249.222412109375

> <b_mmod_Minimization_Converged-OPLS-2005>
0

> <r_mmod_RMS_Derivative-OPLS-2005>
0.40042918920517

$$$$
22
                    3D
 Structure written by MMmdl.
165173  0  0  1  0            999 V2000
  -30.6879  -14.5385   20.5002 C   0  0  0  0  0  0
  -30.4186  -12.3315   19.4540 C   0  0  0  0  0  0
  -29.5074  -12.5007   18.2212 C   0  0  0  0  0  0
  -28.0239  -12.3707   18.6194 C   0  0  0  0  0  0
  -27.6538  -13.2235   19.8647 C   0  0  2  0  0  0
  -28.6926  -13.0619   20.9968 C   0  0  0  0  0  0
  -25.2533  -13.8192   20.5664 C   0  0  0  0  0  0
  -24.1813  -13.0442   20.9173 C   0  0  0  0  0  0
  -24.6389  -11.6927   20.8715 C   0  0  0  0  0  0
  -23.9053  -10.4311   21.0382 C   0  0  0  0  0  0
  -24.3603   -9.4224   21.9161 C   0  0  0  0  0  0
  -23.6288   -8.2249   22.0738 C   0  0  0  0  0  0
  -22.4262   -8.0283   21.3527 C   0  0  0  0  0  0
  -21.9891   -9.0261   20.4635 C   0  0  0  0  0  0
  -22.7224  -10.2139   20.3042 C   0  0  0  0  0  0
  -21.6857   -6.0731   22.5270 C   0  0  0  0  0  0
  -21.4027   -6.5631   23.8212 C   0  0  0  0  0  0
  -21.3671   -5.6771   24.9168 C   0  0  0  0  0  0
  -21.6045   -4.3031   24.7210 C   0  0  0  0  0  0
  -21.8824   -3.8136   23.4328 C   0  0  0  0  0  0
  -21.9198   -4.6959   22.3389 C   0  0  0  0  0  0
  -22.7835  -13.5244   21.1833 C   0  0  0  0  0  0
  -22.1661   -4.2145   21.0960 F   0  0  0  0  0  0
  -21.5630   -3.4515   25.7719 F   0  0  0  0  0  0
  -30.0201  -13.3527   20.4388 N   0  0  0  0  0  0
  -26.2980  -12.9394   20.3289 N   0  0  0  0  0  0
  -25.9314  -11.6536   20.5723 N   0  0  0  0  0  0
  -22.0433  -12.8287   22.0400 N   0  0  0  0  0  0
  -25.4230  -15.1920   20.4114 N   0  0  0  0  0  0
  -31.8689  -14.6350   20.1587 O   0  0  0  0  0  0
  -21.6638   -6.8873   21.4224 O   0  0  0  0  0  0
  -22.3548  -14.5550   20.6660 O   0  0  0  0  0  0
  -24.6177  -31.8634   23.2062 C   0  0  0  0  0  0
  -25.9074  -32.4784   23.8371 C   0  0  1  0  0  0
  -27.2378  -27.3811   20.0975 C   0  0  0  0  0  0
  -25.5920  -33.8580   24.2292 N   0  0  0  0  0  0
  -23.4094  -30.4842   21.5484 C   0  0  2  0  0  0
  -24.8550  -28.9466   20.1092 C   0  0  0  0  0  0
  -22.7424  -29.4636   22.4986 C   0  0  0  0  0  0
  -18.0269  -28.1373   22.8491 C   0  0  0  0  0  0
  -24.1488  -36.7292   23.2648 C   0  0  0  0  0  0
  -25.9433  -30.8058   21.3739 C   0  0  0  0  0  0
  -26.0159  -29.4402   20.7134 C   0  0  0  0  0  0
  -27.2022  -28.6648   20.7051 C   0  0  0  0  0  0
  -26.0513  -26.9154   19.4857 C   0  0  0  0  0  0
  -24.8727  -27.6872   19.4876 C   0  0  0  0  0  0
  -23.6171  -29.8167   20.1633 C   0  0  0  0  0  0
  -25.4116  -36.3084   24.0335 C   0  0  1  0  0  0
  -20.5869  -28.3662   23.1310 C   0  0  2  0  0  0
  -20.6763  -26.9405   22.5403 C   0  0  0  0  0  0
  -19.5752  -26.6385   21.5199 C   0  0  0  0  0  0
  -18.1926  -26.7930   22.1616 C   0  0  0  0  0  0
  -19.1516  -28.8839   23.2896 C   0  0  0  0  0  0
  -18.9448  -30.1458   23.8892 C   0  0  0  0  0  0
  -17.6454  -30.6587   24.0559 C   0  0  0  0  0  0
  -25.9059  -34.9450   23.5122 C   0  0  0  0  0  0
  -16.5334  -29.9082   23.6331 C   0  0  0  0  0  0
  -16.7258  -28.6498   23.0347 C   0  0  0  0  0  0
  -26.4488  -31.6600   25.0724 C   0  0  0  0  0  0
  -25.3735  -31.3715   26.1459 C   0  0  0  0  0  0
  -27.0346  -30.3028   24.6182 C   0  0  0  0  0  0
  -27.6053  -32.4341   25.7477 C   0  0  0  0  0  0
  -27.5581  -37.1802   24.8462 C   0  0  0  0  0  0
  -21.4147  -29.3026   22.3715 N   0  0  0  0  0  0
  -26.4291  -37.3776   23.9410 N   0  0  0  0  0  0
  -24.6740  -31.0686   22.1000 N   0  0  0  0  0  0
  -23.4173  -28.8195   23.3056 O   0  0  0  0  0  0
  -28.4164  -26.6390   20.1719 O   0  0  0  0  0  0
  -26.5620  -34.8920   22.4683 O   0  0  0  0  0  0
  -23.5356  -32.1427   23.7424 O   0  0  0  0  0  0
  -30.5787  -19.5855   19.1071 C   0  0  0  0  0  0
  -29.6397  -18.1614   20.8552 C   0  0  0  0  0  0
  -30.8730  -17.1688   19.0052 C   0  0  0  0  0  0
  -29.8397  -19.4699   20.3038 C   0  0  0  0  0  0
  -31.0861  -18.4469   18.4537 C   0  0  0  0  0  0
  -30.1707  -16.9903   20.2268 C   0  0  0  0  0  0
  -28.5301  -23.0039   20.5907 C   0  0  0  0  0  0
  -29.3013  -20.7454   20.9168 C   0  0  0  0  0  0
  -28.7060  -25.8830   17.9004 C   0  0  0  0  0  0
  -30.2382  -25.2455   19.7375 C   0  0  0  0  0  0
  -27.9047  -24.1171   19.7002 C   0  0  1  0  0  0
  -28.7478  -25.4476   19.3913 C   0  0  0  0  0  0
  -28.8856  -21.8307   20.1614 N   0  0  0  0  0  0
  -31.7911  -18.5702   17.2485 N   0  0  0  0  0  0
  -29.9484  -15.6514   20.7605 N   0  0  0  0  0  0
  -29.2790  -20.7871   22.2179 N   0  3  0  0  0  0
  -27.4573  -23.4422   18.4593 N   0  3  0  0  0  0
  -31.4688  -12.4119   19.1635 H   0  0  0  0  0  0
  -30.3065  -11.3330   19.8800 H   0  0  0  0  0  0
  -29.7595  -11.7600   17.4623 H   0  0  0  0  0  0
  -29.6784  -13.4751   17.7626 H   0  0  0  0  0  0
  -27.8269  -11.3178   18.8172 H   0  0  0  0  0  0
  -27.3878  -12.6444   17.7786 H   0  0  0  0  0  0
  -27.6812  -14.2639   19.5419 H   0  0  0  0  0  0
  -28.6722  -12.0459   21.3902 H   0  0  0  0  0  0
  -28.4606  -13.7161   21.8389 H   0  0  0  0  0  0
  -25.2737   -9.5726   22.4746 H   0  0  0  0  0  0
  -24.0010   -7.4648   22.7458 H   0  0  0  0  0  0
  -21.0828   -8.8779   19.8954 H   0  0  0  0  0  0
  -22.3662  -10.9673   19.6170 H   0  0  0  0  0  0
  -21.2022   -7.6139   23.9728 H   0  0  0  0  0  0
  -21.1488   -6.0485   25.9073 H   0  0  0  0  0  0
  -22.0593   -2.7601   23.2814 H   0  0  0  0  0  0
  -22.4023  -11.9982   22.4901 H   0  0  0  0  0  0
  -21.1039  -13.1358   22.2496 H   0  0  0  0  0  0
  -24.6506  -15.8392   20.5206 H   0  0  0  0  0  0
  -26.2735  -15.6337   20.0849 H   0  0  0  0  0  0
  -26.7137  -32.5454   23.1125 H   0  0  0  0  0  0
  -25.0050  -33.9728   25.0427 H   0  0  0  0  0  0
  -22.7024  -31.3039   21.4100 H   0  0  0  0  0  0
  -23.3745  -35.9632   23.3309 H   0  0  0  0  0  0
  -24.3568  -36.8900   22.2061 H   0  0  0  0  0  0
  -23.7252  -37.6508   23.6655 H   0  0  0  0  0  0
  -26.0782  -31.5739   20.6115 H   0  0  0  0  0  0
  -26.8215  -30.8466   22.0060 H   0  0  0  0  0  0
  -28.0954  -29.0459   21.1790 H   0  0  0  0  0  0
  -25.9976  -25.9483   19.0141 H   0  0  0  0  0  0
  -23.9815  -27.2977   19.0148 H   0  0  0  0  0  0
  -23.7251  -30.5904   19.4026 H   0  0  0  0  0  0
  -22.7407  -29.2366   19.8723 H   0  0  0  0  0  0
  -25.1299  -36.1949   25.0828 H   0  0  0  0  0  0
  -20.9950  -28.3220   24.1438 H   0  0  0  0  0  0
  -20.5672  -26.2268   23.3581 H   0  0  0  0  0  0
  -21.6636  -26.7449   22.1206 H   0  0  0  0  0  0
  -19.6907  -25.6297   21.1236 H   0  0  0  0  0  0
  -19.6694  -27.3193   20.6731 H   0  0  0  0  0  0
  -17.4199  -26.6669   21.4014 H   0  0  0  0  0  0
  -18.0331  -26.0061   22.9010 H   0  0  0  0  0  0
  -19.7926  -30.7274   24.2255 H   0  0  0  0  0  0
  -17.5005  -31.6268   24.5177 H   0  0  0  0  0  0
  -15.5351  -30.2980   23.7671 H   0  0  0  0  0  0
  -15.8654  -28.0826   22.7063 H   0  0  0  0  0  0
  -24.5895  -30.7095   25.7768 H   0  0  0  0  0  0
  -24.8955  -32.2879   26.4930 H   0  0  0  0  0  0
  -25.8072  -30.8846   27.0211 H   0  0  0  0  0  0
  -26.2922  -29.6745   24.1247 H   0  0  0  0  0  0
  -27.4094  -29.7313   25.4692 H   0  0  0  0  0  0
  -27.8772  -30.4311   23.9375 H   0  0  0  0  0  0
  -27.2676  -33.3638   26.2070 H   0  0  0  0  0  0
  -28.3852  -32.6919   25.0295 H   0  0  0  0  0  0
  -28.0755  -31.8473   26.5383 H   0  0  0  0  0  0
  -28.2613  -38.0087   24.7505 H   0  0  0  0  0  0
  -28.1074  -36.2624   24.6308 H   0  0  0  0  0  0
  -27.2287  -37.1463   25.8860 H   0  0  0  0  0  0
  -20.9319  -29.8718   21.6906 H   0  0  0  0  0  0
  -26.0178  -38.2864   24.1386 H   0  0  0  0  0  0
  -30.7442  -20.5635   18.6898 H   0  0  0  0  0  0
  -29.0623  -18.0592   21.7583 H   0  0  0  0  0  0
  -31.2501  -16.3134   18.4615 H   0  0  0  0  0  0
  -28.6188  -23.2888   21.6417 H   0  0  0  0  0  0
  -27.6963  -26.0107   17.5138 H   0  0  0  0  0  0
  -29.2175  -25.1633   17.2573 H   0  0  0  0  0  0
  -29.2164  -26.8375   17.7645 H   0  0  0  0  0  0
  -30.6633  -24.4021   19.1919 H   0  0  0  0  0  0
  -30.3835  -25.0641   20.8020 H   0  0  0  0  0  0
  -30.8316  -26.1240   19.4846 H   0  0  0  0  0  0
  -26.9978  -24.4183   20.2220 H   0  0  0  0  0  0
  -32.1139  -19.4698   16.9031 H   0  0  0  0  0  0
  -32.2209  -17.7662   16.7977 H   0  0  0  0  0  0
  -29.0603  -15.4872   21.2106 H   0  0  0  0  0  0
  -29.6332  -20.0266   22.7947 H   0  0  0  0  0  0
  -28.9184  -21.5696   22.7534 H   0  0  0  0  0  0
  -28.2432  -22.9591   18.0575 H   0  0  0  0  0  0
  -27.0792  -24.0795   17.7812 H   0  0  0  0  0  0
  -26.7732  -22.7416   18.6806 H   0  0  0  0  0  0
  1 25  1  0  0  0
  1 30  2  0  0  0
  1 85  1  0  0  0
  2  3  1  0  0  0
  2 25  1  0  0  0
  2 88  1  0  0  0
  2 89  1  0  0  0
  3  4  1  0  0  0
  3 90  1  0  0  0
  3 91  1  0  0  0
  4  5  1  0  0  0
  4 92  1  0  0  0
  4 93  1  0  0  0
  5  6  1  0  0  0
  5 26  1  0  0  0
  5 94  1  0  0  0
  6 25  1  0  0  0
  6 95  1  0  0  0
  6 96  1  0  0  0
  7  8  2  0  0  0
  7 26  1  0  0  0
  7 29  1  0  0  0
  8  9  1  0  0  0
  8 22  1  0  0  0
  9 10  1  0  0  0
  9 27  2  0  0  0
 10 11  2  0  0  0
 10 15  1  0  0  0
 11 12  1  0  0  0
 11 97  1  0  0  0
 12 13  2  0  0  0
 12 98  1  0  0  0
 13 14  1  0  0  0
 13 31  1  0  0  0
 14 15  2  0  0  0
 14 99  1  0  0  0
 15100  1  0  0  0
 16 17  2  0  0  0
 16 21  1  0  0  0
 16 31  1  0  0  0
 17 18  1  0  0  0
 17101  1  0  0  0
 18 19  2  0  0  0
 18102  1  0  0  0
 19 20  1  0  0  0
 19 24  1  0  0  0
 20 21  2  0  0  0
 20103  1  0  0  0
 21 23  1  0  0  0
 22 28  1  0  0  0
 22 32  2  0  0  0
 26 27  1  0  0  0
 28104  1  0  0  0
 28105  1  0  0  0
 29106  1  0  0  0
 29107  1  0  0  0
 33 34  1  0  0  0
 33 66  1  0  0  0
 33 70  2  0  0  0
 34 36  1  0  0  0
 34 59  1  0  0  0
 34108  1  0  0  0
 35 44  2  0  0  0
 35 45  1  0  0  0
 35 68  1  0  0  0
 36 56  1  0  0  0
 36109  1  0  0  0
 37 39  1  0  0  0
 37 47  1  0  0  0
 37 66  1  0  0  0
 37110  1  0  0  0
 38 43  2  0  0  0
 38 46  1  0  0  0
 38 47  1  0  0  0
 39 64  1  0  0  0
 39 67  2  0  0  0
 40 52  1  0  0  0
 40 53  2  0  0  0
 40 58  1  0  0  0
 41111  1  0  0  0
 41112  1  0  0  0
 41113  1  0  0  0
 41 48  1  0  0  0
 42 43  1  0  0  0
 42 66  1  0  0  0
 42114  1  0  0  0
 42115  1  0  0  0
 43 44  1  0  0  0
 44116  1  0  0  0
 45 46  2  0  0  0
 45117  1  0  0  0
 46118  1  0  0  0
 47119  1  0  0  0
 47120  1  0  0  0
 48 56  1  0  0  0
 48 65  1  0  0  0
 48121  1  0  0  0
 49 50  1  0  0  0
 49 53  1  0  0  0
 49 64  1  0  0  0
 49122  1  0  0  0
 50 51  1  0  0  0
 50123  1  0  0  0
 50124  1  0  0  0
 51 52  1  0  0  0
 51125  1  0  0  0
 51126  1  0  0  0
 52127  1  0  0  0
 52128  1  0  0  0
 53 54  1  0  0  0
 54 55  2  0  0  0
 54129  1  0  0  0
 55 57  1  0  0  0
 55130  1  0  0  0
 56 69  2  0  0  0
 57 58  2  0  0  0
 57131  1  0  0  0
 58132  1  0  0  0
 59 60  1  0  0  0
 59 61  1  0  0  0
 59 62  1  0  0  0
 60133  1  0  0  0
 60134  1  0  0  0
 60135  1  0  0  0
 61136  1  0  0  0
 61137  1  0  0  0
 61138  1  0  0  0
 62139  1  0  0  0
 62140  1  0  0  0
 62141  1  0  0  0
 63 65  1  0  0  0
 63142  1  0  0  0
 63143  1  0  0  0
 63144  1  0  0  0
 64145  1  0  0  0
 65146  1  0  0  0
 68 82  1  0  0  0
 71 74  2  0  0  0
 71 75  1  0  0  0
 71147  1  0  0  0
 72 74  1  0  0  0
 72 76  2  0  0  0
 72148  1  0  0  0
 73 75  2  0  0  0
 73 76  1  0  0  0
 73149  1  0  0  0
 74 78  1  0  0  0
 75 84  1  0  0  0
 76 85  1  0  0  0
 77 81  1  0  0  0
 77 83  2  0  0  0
 77150  1  0  0  0
 78 83  1  0  0  0
 78 86  2  0  0  0
 79151  1  0  0  0
 79152  1  0  0  0
 79153  1  0  0  0
 79 82  1  0  0  0
 80 82  1  0  0  0
 80154  1  0  0  0
 80155  1  0  0  0
 80156  1  0  0  0
 81 82  1  0  0  0
 81 87  1  0  0  0
 81157  1  0  0  0
 84158  1  0  0  0
 84159  1  0  0  0
 85160  1  0  0  0
 86161  1  0  0  0
 86162  1  0  0  0
 87163  1  0  0  0
 87164  1  0  0  0
 87165  1  0  0  0
M  CHG  2  86   1  87   1
M  ISO  4   1 100  68 101  82 101  85 100
M  END
> <chiral flag>
0

> <version>
0

> <s_m_source_file>
/data/baiqing/PycharmProjects/Reinvent-master-3.2/result/LINK_invent/BTK/process_docking_weight1_custom_product_contain_oxygen_bond_distance_aromatic_linkinvent_7_9_3/rearranged_h_0154.sdf

> <i_m_source_file_index>
23

> <r_mmod_Potential_Energy-OPLS-2005>
-131.034790039062

> <r_mmod_Stretch_Energy-OPLS-2005>
71.5945892333984

> <r_mmod_Bend_Energy-OPLS-2005>
160.662643432617

> <r_mmod_Torsional_Energy-OPLS-2005>
252.186614990234

> <r_mmod_Improper_Torsional_Energy-OPLS-2005>
5.8765606880188

> <r_mmod_Van_der_Waal_Energy-OPLS-2005>
174.323959350586

> <r_mmod_Electrostatic_Energy-OPLS-2005>
152.142196655273

> <r_mmod_Solvation_Energy-OPLS-2005>
-974.911010742188

> <b_mmod_Minimization_Converged-OPLS-2005>
0

> <r_mmod_RMS_Derivative-OPLS-2005>
3.8499801158905

$$$$
23
                    3D
 Structure written by MMmdl.
161170  0  0  1  0            999 V2000
  -30.6411  -14.6111   20.5591 C   0  0  0  0  0  0
  -30.4309  -12.3866   19.4493 C   0  0  0  0  0  0
  -29.5014  -12.5226   18.2232 C   0  0  0  0  0  0
  -28.0245  -12.3651   18.6345 C   0  0  0  0  0  0
  -27.6531  -13.2205   19.8748 C   0  0  2  0  0  0
  -28.6988  -13.0446   21.0021 C   0  0  0  0  0  0
  -25.2446  -13.8117   20.5601 C   0  0  0  0  0  0
  -24.1776  -13.0373   20.9189 C   0  0  0  0  0  0
  -24.6415  -11.6869   20.8781 C   0  0  0  0  0  0
  -23.9122  -10.4245   21.0435 C   0  0  0  0  0  0
  -24.3659   -9.4154   21.9220 C   0  0  0  0  0  0
  -23.6314   -8.2199   22.0783 C   0  0  0  0  0  0
  -22.4290   -8.0262   21.3564 C   0  0  0  0  0  0
  -21.9946   -9.0234   20.4658 C   0  0  0  0  0  0
  -22.7295  -10.2101   20.3081 C   0  0  0  0  0  0
  -21.6843   -6.0740   22.5296 C   0  0  0  0  0  0
  -21.4008   -6.5654   23.8222 C   0  0  0  0  0  0
  -21.3656   -5.6808   24.9186 C   0  0  0  0  0  0
  -21.6052   -4.3068   24.7239 C   0  0  0  0  0  0
  -21.8814   -3.8163   23.4361 C   0  0  0  0  0  0
  -21.9188   -4.6979   22.3416 C   0  0  0  0  0  0
  -22.7801  -13.5140   21.1855 C   0  0  0  0  0  0
  -22.1642   -4.2171   21.0992 F   0  0  0  0  0  0
  -21.5640   -3.4555   25.7755 F   0  0  0  0  0  0
  -30.0267  -13.3893   20.4566 N   0  0  0  0  0  0
  -26.2963  -12.9363   20.3376 N   0  0  0  0  0  0
  -25.9353  -11.6510   20.5846 N   0  0  0  0  0  0
  -22.0461  -12.8140   22.0431 N   0  0  0  0  0  0
  -25.3948  -15.1811   20.3821 N   0  0  0  0  0  0
  -31.7325  -14.8396   20.0263 O   0  0  0  0  0  0
  -21.6636   -6.8879   21.4258 O   0  0  0  0  0  0
  -22.3477  -14.5449   20.6715 O   0  0  0  0  0  0
  -24.6247  -31.8612   23.2047 C   0  0  0  0  0  0
  -25.9124  -32.4762   23.8356 C   0  0  1  0  0  0
  -27.2233  -27.3423   20.1441 C   0  0  0  0  0  0
  -25.5979  -33.8560   24.2280 N   0  0  0  0  0  0
  -23.4162  -30.4822   21.5455 C   0  0  2  0  0  0
  -24.8661  -28.9347   20.1193 C   0  0  0  0  0  0
  -22.7476  -29.4613   22.4977 C   0  0  0  0  0  0
  -18.0287  -28.1389   22.8449 C   0  0  0  0  0  0
  -24.1510  -36.7264   23.2647 C   0  0  0  0  0  0
  -25.9531  -30.8002   21.3734 C   0  0  0  0  0  0
  -26.0290  -29.4215   20.7334 C   0  0  0  0  0  0
  -27.2125  -28.6343   20.7443 C   0  0  0  0  0  0
  -26.0470  -26.8920   19.5166 C   0  0  0  0  0  0
  -24.8739  -27.6716   19.5049 C   0  0  0  0  0  0
  -23.6334  -29.8149   20.1614 C   0  0  0  0  0  0
  -25.4118  -36.3035   24.0359 C   0  0  1  0  0  0
  -20.5878  -28.3661   23.1320 C   0  0  2  0  0  0
  -20.6767  -26.9393   22.5418 C   0  0  0  0  0  0
  -19.5759  -26.6366   21.5212 C   0  0  0  0  0  0
  -18.1933  -26.7928   22.1604 C   0  0  0  0  0  0
  -19.1538  -28.8844   23.2871 C   0  0  0  0  0  0
  -18.9464  -30.1431   23.8902 C   0  0  0  0  0  0
  -17.6471  -30.6568   24.0545 C   0  0  0  0  0  0
  -25.9072  -34.9424   23.5097 C   0  0  0  0  0  0
  -16.5348  -29.9070   23.6337 C   0  0  0  0  0  0
  -16.7283  -28.6513   23.0313 C   0  0  0  0  0  0
  -26.4539  -31.6530   25.0688 C   0  0  0  0  0  0
  -25.3783  -31.3701   26.1416 C   0  0  0  0  0  0
  -27.0350  -30.2959   24.6076 C   0  0  0  0  0  0
  -27.6070  -32.4267   25.7484 C   0  0  0  0  0  0
  -27.5569  -37.1752   24.8470 C   0  0  0  0  0  0
  -21.4191  -29.3023   22.3733 N   0  0  0  0  0  0
  -26.4269  -37.3730   23.9443 N   0  0  0  0  0  0
  -24.6826  -31.0659   22.0974 N   0  0  0  0  0  0
  -23.4220  -28.8165   23.3049 O   0  0  0  0  0  0
  -28.3463  -26.5299   20.0348 O   0  0  0  0  0  0
  -26.5565  -34.8887   22.4619 O   0  0  0  0  0  0
  -23.5424  -32.1385   23.7400 O   0  0  0  0  0  0
  -30.2064  -18.0584   20.7153 C   0  0  0  0  0  0
  -27.9904  -18.8154   20.7458 C   0  0  0  0  0  0
  -29.2961  -19.2039   20.6342 C   0  0  0  0  0  0
  -29.5703  -16.8393   20.9914 C   0  0  0  0  0  0
  -28.5001  -24.1287   21.0501 C   0  0  0  0  0  0
  -29.4552  -23.1537   20.8141 C   0  0  0  0  0  0
  -29.6457  -20.6533   20.3538 C   0  0  0  0  0  0
  -27.0753  -23.7394   21.4816 C   0  0  0  0  0  0
  -26.8824  -22.2367   21.7886 C   0  0  0  0  0  0
  -28.2143  -21.5782   22.1700 C   0  0  0  0  0  0
  -30.9164  -23.4741   20.4959 C   0  0  0  0  0  0
  -28.7451  -25.6822   21.1478 C   0  0  0  0  0  0
  -29.1545  -21.7656   21.0473 N   0  0  0  0  0  0
  -29.9795  -15.5509   21.2893 N   0  0  0  0  0  0
  -30.4338  -20.8414   19.2841 N   0  3  0  0  0  0
  -27.8534  -17.1279   21.1261 S   0  0  0  0  0  0
  -31.4726  -12.5022   19.1496 H   0  0  0  0  0  0
  -30.3520  -11.3843   19.8713 H   0  0  0  0  0  0
  -29.7555  -11.7694   17.4761 H   0  0  0  0  0  0
  -29.6531  -13.4925   17.7464 H   0  0  0  0  0  0
  -27.8564  -11.3100   18.8553 H   0  0  0  0  0  0
  -27.3691  -12.6055   17.7961 H   0  0  0  0  0  0
  -27.6797  -14.2634   19.5583 H   0  0  0  0  0  0
  -28.7028  -12.0132   21.3586 H   0  0  0  0  0  0
  -28.4315  -13.6503   21.8687 H   0  0  0  0  0  0
  -25.2810   -9.5646   22.4796 H   0  0  0  0  0  0
  -24.0033   -7.4611   22.7510 H   0  0  0  0  0  0
  -21.0889   -8.8768   19.8960 H   0  0  0  0  0  0
  -22.3780  -10.9648   19.6196 H   0  0  0  0  0  0
  -21.1980   -7.6155   23.9743 H   0  0  0  0  0  0
  -21.1484   -6.0532   25.9095 H   0  0  0  0  0  0
  -22.0601   -2.7629   23.2861 H   0  0  0  0  0  0
  -22.4052  -11.9772   22.4787 H   0  0  0  0  0  0
  -21.1083  -13.1183   22.2654 H   0  0  0  0  0  0
  -24.6299  -15.8340   20.5080 H   0  0  0  0  0  0
  -26.2489  -15.6281   20.0789 H   0  0  0  0  0  0
  -26.7205  -32.5467   23.1124 H   0  0  0  0  0  0
  -25.0203  -33.9732   25.0467 H   0  0  0  0  0  0
  -22.7068  -31.3012   21.4043 H   0  0  0  0  0  0
  -23.3754  -35.9604   23.3272 H   0  0  0  0  0  0
  -24.3638  -36.8891   22.2064 H   0  0  0  0  0  0
  -23.7262  -37.6466   23.6677 H   0  0  0  0  0  0
  -26.0756  -31.5617   20.6012 H   0  0  0  0  0  0
  -26.8377  -30.8589   21.9956 H   0  0  0  0  0  0
  -28.1125  -29.0077   21.2101 H   0  0  0  0  0  0
  -26.0406  -25.9242   19.0396 H   0  0  0  0  0  0
  -23.9857  -27.2943   19.0190 H   0  0  0  0  0  0
  -23.7531  -30.5916   19.4061 H   0  0  0  0  0  0
  -22.7543  -29.2453   19.8555 H   0  0  0  0  0  0
  -25.1290  -36.1843   25.0846 H   0  0  0  0  0  0
  -20.9932  -28.3170   24.1459 H   0  0  0  0  0  0
  -20.5680  -26.2250   23.3592 H   0  0  0  0  0  0
  -21.6631  -26.7418   22.1202 H   0  0  0  0  0  0
  -19.6929  -25.6289   21.1236 H   0  0  0  0  0  0
  -19.6716  -27.3175   20.6748 H   0  0  0  0  0  0
  -17.4195  -26.6671   21.4013 H   0  0  0  0  0  0
  -18.0304  -26.0094   22.9029 H   0  0  0  0  0  0
  -19.7947  -30.7230   24.2261 H   0  0  0  0  0  0
  -17.5033  -31.6264   24.5114 H   0  0  0  0  0  0
  -15.5351  -30.2952   23.7695 H   0  0  0  0  0  0
  -15.8682  -28.0849   22.6989 H   0  0  0  0  0  0
  -24.5977  -30.7038   25.7758 H   0  0  0  0  0  0
  -24.9005  -32.2904   26.4778 H   0  0  0  0  0  0
  -25.8127  -30.8920   27.0200 H   0  0  0  0  0  0
  -26.2879  -29.6707   24.1179 H   0  0  0  0  0  0
  -27.4169  -29.7212   25.4517 H   0  0  0  0  0  0
  -27.8717  -30.4272   23.9204 H   0  0  0  0  0  0
  -27.2639  -33.3568   26.2019 H   0  0  0  0  0  0
  -28.3903  -32.6779   25.0329 H   0  0  0  0  0  0
  -28.0691  -31.8404   26.5427 H   0  0  0  0  0  0
  -28.2497  -38.0105   24.7480 H   0  0  0  0  0  0
  -28.1112  -36.2610   24.6288 H   0  0  0  0  0  0
  -27.2309  -37.1395   25.8873 H   0  0  0  0  0  0
  -20.9365  -29.8770   21.6980 H   0  0  0  0  0  0
  -26.0134  -38.2802   24.1421 H   0  0  0  0  0  0
  -31.2738  -18.1785   20.6059 H   0  0  0  0  0  0
  -27.0941  -19.4173   20.6725 H   0  0  0  0  0  0
  -26.3641  -24.0493   20.7162 H   0  0  0  0  0  0
  -26.8174  -24.3048   22.3791 H   0  0  0  0  0  0
  -26.4573  -21.7294   20.9210 H   0  0  0  0  0  0
  -26.1560  -22.1088   22.5934 H   0  0  0  0  0  0
  -28.0970  -20.5433   22.4725 H   0  0  0  0  0  0
  -28.6278  -22.0709   23.0502 H   0  0  0  0  0  0
  -31.2793  -24.3677   20.9992 H   0  0  0  0  0  0
  -31.0549  -23.6248   19.4247 H   0  0  0  0  0  0
  -31.5760  -22.6721   20.8336 H   0  0  0  0  0  0
  -29.8060  -25.8778   21.2831 H   0  0  0  0  0  0
  -28.2972  -26.0437   22.0770 H   0  0  0  0  0  0
  -29.2858  -15.0731   21.8469 H   0  0  0  0  0  0
  -30.7411  -20.0613   18.7223 H   0  0  0  0  0  0
  -30.6190  -21.7713   18.9404 H   0  0  0  0  0  0
  1 25  1  0  0  0
  1 30  2  0  0  0
  1 84  1  0  0  0
  2  3  1  0  0  0
  2 25  1  0  0  0
  2 87  1  0  0  0
  2 88  1  0  0  0
  3  4  1  0  0  0
  3 89  1  0  0  0
  3 90  1  0  0  0
  4  5  1  0  0  0
  4 91  1  0  0  0
  4 92  1  0  0  0
  5  6  1  0  0  0
  5 26  1  0  0  0
  5 93  1  0  0  0
  6 25  1  0  0  0
  6 94  1  0  0  0
  6 95  1  0  0  0
  7  8  2  0  0  0
  7 26  1  0  0  0
  7 29  1  0  0  0
  8  9  1  0  0  0
  8 22  1  0  0  0
  9 10  1  0  0  0
  9 27  2  0  0  0
 10 11  2  0  0  0
 10 15  1  0  0  0
 11 12  1  0  0  0
 11 96  1  0  0  0
 12 13  2  0  0  0
 12 97  1  0  0  0
 13 14  1  0  0  0
 13 31  1  0  0  0
 14 15  2  0  0  0
 14 98  1  0  0  0
 15 99  1  0  0  0
 16 17  2  0  0  0
 16 21  1  0  0  0
 16 31  1  0  0  0
 17 18  1  0  0  0
 17100  1  0  0  0
 18 19  2  0  0  0
 18101  1  0  0  0
 19 20  1  0  0  0
 19 24  1  0  0  0
 20 21  2  0  0  0
 20102  1  0  0  0
 21 23  1  0  0  0
 22 28  1  0  0  0
 22 32  2  0  0  0
 26 27  1  0  0  0
 28103  1  0  0  0
 28104  1  0  0  0
 29105  1  0  0  0
 29106  1  0  0  0
 33 34  1  0  0  0
 33 66  1  0  0  0
 33 70  2  0  0  0
 34 36  1  0  0  0
 34 59  1  0  0  0
 34107  1  0  0  0
 35 44  2  0  0  0
 35 45  1  0  0  0
 35 68  1  0  0  0
 36 56  1  0  0  0
 36108  1  0  0  0
 37 39  1  0  0  0
 37 47  1  0  0  0
 37 66  1  0  0  0
 37109  1  0  0  0
 38 43  2  0  0  0
 38 46  1  0  0  0
 38 47  1  0  0  0
 39 64  1  0  0  0
 39 67  2  0  0  0
 40 52  1  0  0  0
 40 53  2  0  0  0
 40 58  1  0  0  0
 41110  1  0  0  0
 41111  1  0  0  0
 41112  1  0  0  0
 41 48  1  0  0  0
 42 43  1  0  0  0
 42 66  1  0  0  0
 42113  1  0  0  0
 42114  1  0  0  0
 43 44  1  0  0  0
 44115  1  0  0  0
 45 46  2  0  0  0
 45116  1  0  0  0
 46117  1  0  0  0
 47118  1  0  0  0
 47119  1  0  0  0
 48 56  1  0  0  0
 48 65  1  0  0  0
 48120  1  0  0  0
 49 50  1  0  0  0
 49 53  1  0  0  0
 49 64  1  0  0  0
 49121  1  0  0  0
 50 51  1  0  0  0
 50122  1  0  0  0
 50123  1  0  0  0
 51 52  1  0  0  0
 51124  1  0  0  0
 51125  1  0  0  0
 52126  1  0  0  0
 52127  1  0  0  0
 53 54  1  0  0  0
 54 55  2  0  0  0
 54128  1  0  0  0
 55 57  1  0  0  0
 55129  1  0  0  0
 56 69  2  0  0  0
 57 58  2  0  0  0
 57130  1  0  0  0
 58131  1  0  0  0
 59 60  1  0  0  0
 59 61  1  0  0  0
 59 62  1  0  0  0
 60132  1  0  0  0
 60133  1  0  0  0
 60134  1  0  0  0
 61135  1  0  0  0
 61136  1  0  0  0
 61137  1  0  0  0
 62138  1  0  0  0
 62139  1  0  0  0
 62140  1  0  0  0
 63 65  1  0  0  0
 63141  1  0  0  0
 63142  1  0  0  0
 63143  1  0  0  0
 64144  1  0  0  0
 65145  1  0  0  0
 68 82  1  0  0  0
 71 73  1  0  0  0
 71 74  2  0  0  0
 71146  1  0  0  0
 72 73  2  0  0  0
 72 86  1  0  0  0
 72147  1  0  0  0
 73 77  1  0  0  0
 74 84  1  0  0  0
 74 86  1  0  0  0
 75 76  2  0  0  0
 75 78  1  0  0  0
 75 82  1  0  0  0
 76 81  1  0  0  0
 76 83  1  0  0  0
 77 83  1  0  0  0
 77 85  2  0  0  0
 78 79  1  0  0  0
 78148  1  0  0  0
 78149  1  0  0  0
 79 80  1  0  0  0
 79150  1  0  0  0
 79151  1  0  0  0
 80 83  1  0  0  0
 80152  1  0  0  0
 80153  1  0  0  0
 81154  1  0  0  0
 81155  1  0  0  0
 81156  1  0  0  0
 82157  1  0  0  0
 82158  1  0  0  0
 84159  1  0  0  0
 85160  1  0  0  0
 85161  1  0  0  0
M  CHG  1  85   1
M  ISO  4   1 100  68 101  82 101  84 100
M  END
> <chiral flag>
0

> <version>
0

> <s_m_source_file>
/data/baiqing/PycharmProjects/Reinvent-master-3.2/result/LINK_invent/BTK/process_docking_weight1_custom_product_contain_oxygen_bond_distance_aromatic_linkinvent_7_9_3/rearranged_h_0154.sdf

> <i_m_source_file_index>
24

> <r_mmod_Potential_Energy-OPLS-2005>
29.3525905609131

> <r_mmod_Stretch_Energy-OPLS-2005>
78.7683181762695

> <r_mmod_Bend_Energy-OPLS-2005>
166.430191040039

> <r_mmod_Torsional_Energy-OPLS-2005>
279.721313476562

> <r_mmod_Improper_Torsional_Energy-OPLS-2005>
7.2229266166687

> <r_mmod_Van_der_Waal_Energy-OPLS-2005>
138.260879516602

> <r_mmod_Electrostatic_Energy-OPLS-2005>
-250.355270385742

> <r_mmod_Solvation_Energy-OPLS-2005>
-427.574768066406

> <b_mmod_Minimization_Converged-OPLS-2005>
0

> <r_mmod_RMS_Derivative-OPLS-2005>
4.2829155921936

$$$$
24
                    3D
 Structure written by MMmdl.
162171  0  0  1  0            999 V2000
  -30.5258  -14.8255   20.4426 C   0  0  0  0  0  0
  -30.4425  -12.5011   19.4965 C   0  0  0  0  0  0
  -29.5228  -12.5253   18.2555 C   0  0  0  0  0  0
  -28.0449  -12.3368   18.6583 C   0  0  0  0  0  0
  -27.6364  -13.2339   19.8596 C   0  0  2  0  0  0
  -28.6769  -13.1674   20.9990 C   0  0  0  0  0  0
  -25.2414  -13.8075   20.5820 C   0  0  0  0  0  0
  -24.1685  -13.0300   20.9214 C   0  0  0  0  0  0
  -24.6335  -11.6815   20.8696 C   0  0  0  0  0  0
  -23.9057  -10.4208   21.0385 C   0  0  0  0  0  0
  -24.3601   -9.4164   21.9176 C   0  0  0  0  0  0
  -23.6296   -8.2194   22.0744 C   0  0  0  0  0  0
  -22.4280   -8.0232   21.3537 C   0  0  0  0  0  0
  -21.9902   -9.0222   20.4621 C   0  0  0  0  0  0
  -22.7218  -10.2086   20.3050 C   0  0  0  0  0  0
  -21.6832   -6.0718   22.5302 C   0  0  0  0  0  0
  -21.4017   -6.5625   23.8237 C   0  0  0  0  0  0
  -21.3668   -5.6780   24.9184 C   0  0  0  0  0  0
  -21.6042   -4.3053   24.7234 C   0  0  0  0  0  0
  -21.8823   -3.8146   23.4339 C   0  0  0  0  0  0
  -21.9193   -4.6961   22.3404 C   0  0  0  0  0  0
  -22.7734  -13.5143   21.1893 C   0  0  0  0  0  0
  -22.1653   -4.2160   21.0988 F   0  0  0  0  0  0
  -21.5642   -3.4521   25.7739 F   0  0  0  0  0  0
  -29.9726  -13.5596   20.4246 N   0  0  0  0  0  0
  -26.2880  -12.9361   20.3317 N   0  0  0  0  0  0
  -25.9289  -11.6499   20.5718 N   0  0  0  0  0  0
  -22.0365  -12.8172   22.0473 N   0  0  0  0  0  0
  -25.4056  -15.1828   20.4660 N   0  0  0  0  0  0
  -31.7025  -14.9737   20.0909 O   0  0  0  0  0  0
  -21.6594   -6.8843   21.4258 O   0  0  0  0  0  0
  -22.3496  -14.5489   20.6746 O   0  0  0  0  0  0
  -24.6305  -31.8522   23.1955 C   0  0  0  0  0  0
  -25.9121  -32.4708   23.8303 C   0  0  1  0  0  0
  -27.2263  -27.2436   20.1528 C   0  0  0  0  0  0
  -25.5918  -33.8519   24.2243 N   0  0  0  0  0  0
  -23.4283  -30.4692   21.5366 C   0  0  2  0  0  0
  -24.8813  -28.9068   20.1175 C   0  0  0  0  0  0
  -22.7492  -29.4568   22.4900 C   0  0  0  0  0  0
  -18.0297  -28.1359   22.8489 C   0  0  0  0  0  0
  -24.1493  -36.7287   23.2639 C   0  0  0  0  0  0
  -25.9753  -30.7618   21.3787 C   0  0  0  0  0  0
  -26.0509  -29.3809   20.7242 C   0  0  0  0  0  0
  -27.2287  -28.5634   20.7259 C   0  0  0  0  0  0
  -26.0358  -26.8305   19.5244 C   0  0  0  0  0  0
  -24.8794  -27.6391   19.5063 C   0  0  0  0  0  0
  -23.6510  -29.7942   20.1559 C   0  0  0  0  0  0
  -25.4108  -36.3044   24.0328 C   0  0  1  0  0  0
  -20.5890  -28.3679   23.1251 C   0  0  2  0  0  0
  -20.6780  -26.9383   22.5416 C   0  0  0  0  0  0
  -19.5763  -26.6370   21.5201 C   0  0  0  0  0  0
  -18.1941  -26.7909   22.1599 C   0  0  0  0  0  0
  -19.1541  -28.8842   23.2875 C   0  0  0  0  0  0
  -18.9469  -30.1450   23.8897 C   0  0  0  0  0  0
  -17.6463  -30.6588   24.0546 C   0  0  0  0  0  0
  -25.9052  -34.9394   23.5074 C   0  0  0  0  0  0
  -16.5366  -29.9083   23.6306 C   0  0  0  0  0  0
  -16.7270  -28.6484   23.0345 C   0  0  0  0  0  0
  -26.4475  -31.6521   25.0714 C   0  0  0  0  0  0
  -25.3715  -31.3772   26.1472 C   0  0  0  0  0  0
  -27.0246  -30.2893   24.6198 C   0  0  0  0  0  0
  -27.6058  -32.4219   25.7482 C   0  0  0  0  0  0
  -27.5567  -37.1801   24.8450 C   0  0  0  0  0  0
  -21.4215  -29.3039   22.3664 N   0  0  0  0  0  0
  -26.4275  -37.3738   23.9403 N   0  0  0  0  0  0
  -24.6958  -31.0484   22.0921 N   0  0  0  0  0  0
  -23.4186  -28.8100   23.3016 O   0  0  0  0  0  0
  -28.3417  -26.3748   20.1181 O   0  0  0  0  0  0
  -26.5631  -34.8878   22.4656 O   0  0  0  0  0  0
  -23.5457  -32.1347   23.7257 O   0  0  0  0  0  0
  -28.9254  -19.9035   19.0181 C   0  0  0  0  0  0
  -29.6249  -18.5590   20.9291 C   0  0  0  0  0  0
  -29.1032  -17.4356   18.8572 C   0  0  0  0  0  0
  -29.3517  -19.8913   20.3572 C   0  0  0  0  0  0
  -28.7892  -18.6985   18.2903 C   0  0  0  0  0  0
  -29.5435  -17.2951   20.1980 C   0  0  0  0  0  0
  -29.7075  -21.2197   21.0545 C   0  0  0  0  0  0
  -29.8826  -24.9904   21.2387 C   0  0  0  0  0  0
  -30.1651  -23.5665   21.7335 C   0  0  0  0  0  0
  -28.3852  -23.5313   20.1690 C   0  0  0  0  0  0
  -28.4137  -25.0354   20.8306 C   0  0  1  0  0  0
  -27.5294  -25.1117   22.0972 C   0  0  0  0  0  0
  -29.3546  -22.6015   20.9416 N   0  0  0  0  0  0
  -28.3415  -18.7696   16.9697 N   0  0  0  0  0  0
  -29.6947  -15.9060   20.7595 N   0  0  0  0  0  0
  -30.6489  -20.9625   21.9637 N   0  3  0  0  0  0
  -31.4794  -12.6525   19.2058 H   0  0  0  0  0  0
  -30.4188  -11.5244   19.9841 H   0  0  0  0  0  0
  -29.8189  -11.7481   17.5529 H   0  0  0  0  0  0
  -29.6359  -13.4777   17.7326 H   0  0  0  0  0  0
  -27.9002  -11.2875   18.9141 H   0  0  0  0  0  0
  -27.3943  -12.5317   17.8038 H   0  0  0  0  0  0
  -27.6147  -14.2542   19.4802 H   0  0  0  0  0  0
  -28.7296  -12.1552   21.4186 H   0  0  0  0  0  0
  -28.3936  -13.8263   21.8246 H   0  0  0  0  0  0
  -25.2753   -9.5656   22.4697 H   0  0  0  0  0  0
  -24.0035   -7.4595   22.7455 H   0  0  0  0  0  0
  -21.0817   -8.8700   19.8924 H   0  0  0  0  0  0
  -22.3689  -10.9596   19.6145 H   0  0  0  0  0  0
  -21.2001   -7.6140   23.9750 H   0  0  0  0  0  0
  -21.1503   -6.0481   25.9079 H   0  0  0  0  0  0
  -22.0606   -2.7605   23.2827 H   0  0  0  0  0  0
  -22.3904  -11.9836   22.4890 H   0  0  0  0  0  0
  -21.0998  -13.1210   22.2677 H   0  0  0  0  0  0
  -24.6542  -15.7713   20.8105 H   0  0  0  0  0  0
  -26.3189  -15.6126   20.5521 H   0  0  0  0  0  0
  -26.7199  -32.5365   23.1066 H   0  0  0  0  0  0
  -25.0043  -33.9668   25.0374 H   0  0  0  0  0  0
  -22.7270  -31.2916   21.3846 H   0  0  0  0  0  0
  -23.3731  -35.9643   23.3305 H   0  0  0  0  0  0
  -24.3584  -36.8924   22.2047 H   0  0  0  0  0  0
  -23.7281  -37.6506   23.6666 H   0  0  0  0  0  0
  -26.1139  -31.5206   20.6070 H   0  0  0  0  0  0
  -26.8512  -30.8095   22.0171 H   0  0  0  0  0  0
  -28.1264  -28.9299   21.1994 H   0  0  0  0  0  0
  -26.0028  -25.8570   19.0530 H   0  0  0  0  0  0
  -23.9865  -27.2688   19.0237 H   0  0  0  0  0  0
  -23.7775  -30.5656   19.3957 H   0  0  0  0  0  0
  -22.7723  -29.2210   19.8538 H   0  0  0  0  0  0
  -25.1305  -36.1879   25.0819 H   0  0  0  0  0  0
  -20.9954  -28.3228   24.1365 H   0  0  0  0  0  0
  -20.5589  -26.2279   23.3621 H   0  0  0  0  0  0
  -21.6656  -26.7371   22.1226 H   0  0  0  0  0  0
  -19.6897  -25.6275   21.1241 H   0  0  0  0  0  0
  -19.6692  -27.3164   20.6716 H   0  0  0  0  0  0
  -17.4190  -26.6639   21.4028 H   0  0  0  0  0  0
  -18.0357  -26.0077   22.9017 H   0  0  0  0  0  0
  -19.7957  -30.7265   24.2249 H   0  0  0  0  0  0
  -17.5031  -31.6257   24.5160 H   0  0  0  0  0  0
  -15.5357  -30.2973   23.7669 H   0  0  0  0  0  0
  -15.8670  -28.0812   22.7043 H   0  0  0  0  0  0
  -24.9100  -32.3030   26.4935 H   0  0  0  0  0  0
  -25.8001  -30.8860   27.0209 H   0  0  0  0  0  0
  -24.5747  -30.7255   25.7831 H   0  0  0  0  0  0
  -26.2804  -29.6713   24.1204 H   0  0  0  0  0  0
  -27.3844  -29.7169   25.4753 H   0  0  0  0  0  0
  -27.8791  -30.4070   23.9510 H   0  0  0  0  0  0
  -27.2687  -33.3617   26.1908 H   0  0  0  0  0  0
  -28.3956  -32.6620   25.0363 H   0  0  0  0  0  0
  -28.0590  -31.8413   26.5508 H   0  0  0  0  0  0
  -28.2563  -38.0111   24.7468 H   0  0  0  0  0  0
  -28.1078  -36.2635   24.6293 H   0  0  0  0  0  0
  -27.2297  -37.1473   25.8858 H   0  0  0  0  0  0
  -20.9385  -29.8797   21.6925 H   0  0  0  0  0  0
  -26.0160  -38.2826   24.1380 H   0  0  0  0  0  0
  -28.7143  -20.8543   18.5531 H   0  0  0  0  0  0
  -29.9197  -18.4973   21.9678 H   0  0  0  0  0  0
  -28.9660  -16.5469   18.2552 H   0  0  0  0  0  0
  -30.5206  -25.2002   20.3802 H   0  0  0  0  0  0
  -30.1211  -25.7301   22.0020 H   0  0  0  0  0  0
  -29.9094  -23.4745   22.7907 H   0  0  0  0  0  0
  -31.2371  -23.3736   21.6319 H   0  0  0  0  0  0
  -28.6974  -23.5853   19.1252 H   0  0  0  0  0  0
  -27.3663  -23.1377   20.1742 H   0  0  0  0  0  0
  -27.6652  -24.2502   22.7512 H   0  0  0  0  0  0
  -26.4713  -25.1491   21.8435 H   0  0  0  0  0  0
  -27.7560  -26.0000   22.6850 H   0  0  0  0  0  0
  -27.8725  -19.6200   16.6747 H   0  0  0  0  0  0
  -27.8908  -17.9447   16.5825 H   0  0  0  0  0  0
  -28.8419  -15.5684   21.1730 H   0  0  0  0  0  0
  -31.0332  -20.0310   21.9858 H   0  0  0  0  0  0
  -31.0185  -21.6550   22.5887 H   0  0  0  0  0  0
  1 25  1  0  0  0
  1 30  2  0  0  0
  1 85  1  0  0  0
  2  3  1  0  0  0
  2 25  1  0  0  0
  2 87  1  0  0  0
  2 88  1  0  0  0
  3  4  1  0  0  0
  3 89  1  0  0  0
  3 90  1  0  0  0
  4  5  1  0  0  0
  4 91  1  0  0  0
  4 92  1  0  0  0
  5  6  1  0  0  0
  5 26  1  0  0  0
  5 93  1  0  0  0
  6 25  1  0  0  0
  6 94  1  0  0  0
  6 95  1  0  0  0
  7  8  2  0  0  0
  7 26  1  0  0  0
  7 29  1  0  0  0
  8  9  1  0  0  0
  8 22  1  0  0  0
  9 10  1  0  0  0
  9 27  2  0  0  0
 10 11  2  0  0  0
 10 15  1  0  0  0
 11 12  1  0  0  0
 11 96  1  0  0  0
 12 13  2  0  0  0
 12 97  1  0  0  0
 13 14  1  0  0  0
 13 31  1  0  0  0
 14 15  2  0  0  0
 14 98  1  0  0  0
 15 99  1  0  0  0
 16 17  2  0  0  0
 16 21  1  0  0  0
 16 31  1  0  0  0
 17 18  1  0  0  0
 17100  1  0  0  0
 18 19  2  0  0  0
 18101  1  0  0  0
 19 20  1  0  0  0
 19 24  1  0  0  0
 20 21  2  0  0  0
 20102  1  0  0  0
 21 23  1  0  0  0
 22 28  1  0  0  0
 22 32  2  0  0  0
 26 27  1  0  0  0
 28103  1  0  0  0
 28104  1  0  0  0
 29105  1  0  0  0
 29106  1  0  0  0
 33 34  1  0  0  0
 33 66  1  0  0  0
 33 70  2  0  0  0
 34 36  1  0  0  0
 34 59  1  0  0  0
 34107  1  0  0  0
 35 44  2  0  0  0
 35 45  1  0  0  0
 35 68  1  0  0  0
 36 56  1  0  0  0
 36108  1  0  0  0
 37 39  1  0  0  0
 37 47  1  0  0  0
 37 66  1  0  0  0
 37109  1  0  0  0
 38 43  2  0  0  0
 38 46  1  0  0  0
 38 47  1  0  0  0
 39 64  1  0  0  0
 39 67  2  0  0  0
 40 52  1  0  0  0
 40 53  2  0  0  0
 40 58  1  0  0  0
 41110  1  0  0  0
 41111  1  0  0  0
 41112  1  0  0  0
 41 48  1  0  0  0
 42 43  1  0  0  0
 42 66  1  0  0  0
 42113  1  0  0  0
 42114  1  0  0  0
 43 44  1  0  0  0
 44115  1  0  0  0
 45 46  2  0  0  0
 45116  1  0  0  0
 46117  1  0  0  0
 47118  1  0  0  0
 47119  1  0  0  0
 48 56  1  0  0  0
 48 65  1  0  0  0
 48120  1  0  0  0
 49 50  1  0  0  0
 49 53  1  0  0  0
 49 64  1  0  0  0
 49121  1  0  0  0
 50 51  1  0  0  0
 50122  1  0  0  0
 50123  1  0  0  0
 51 52  1  0  0  0
 51124  1  0  0  0
 51125  1  0  0  0
 52126  1  0  0  0
 52127  1  0  0  0
 53 54  1  0  0  0
 54 55  2  0  0  0
 54128  1  0  0  0
 55 57  1  0  0  0
 55129  1  0  0  0
 56 69  2  0  0  0
 57 58  2  0  0  0
 57130  1  0  0  0
 58131  1  0  0  0
 59 60  1  0  0  0
 59 61  1  0  0  0
 59 62  1  0  0  0
 60132  1  0  0  0
 60133  1  0  0  0
 60134  1  0  0  0
 61135  1  0  0  0
 61136  1  0  0  0
 61137  1  0  0  0
 62138  1  0  0  0
 62139  1  0  0  0
 62140  1  0  0  0
 63 65  1  0  0  0
 63141  1  0  0  0
 63142  1  0  0  0
 63143  1  0  0  0
 64144  1  0  0  0
 65145  1  0  0  0
 68 81  1  0  0  0
 71 74  2  0  0  0
 71 75  1  0  0  0
 71146  1  0  0  0
 72 74  1  0  0  0
 72 76  2  0  0  0
 72147  1  0  0  0
 73 75  2  0  0  0
 73 76  1  0  0  0
 73148  1  0  0  0
 74 77  1  0  0  0
 75 84  1  0  0  0
 76 85  1  0  0  0
 77 83  1  0  0  0
 77 86  2  0  0  0
 78 79  1  0  0  0
 78 81  1  0  0  0
 78149  1  0  0  0
 78150  1  0  0  0
 79 83  1  0  0  0
 79151  1  0  0  0
 79152  1  0  0  0
 80 81  1  0  0  0
 80 83  1  0  0  0
 80153  1  0  0  0
 80154  1  0  0  0
 81 82  1  0  0  0
 82155  1  0  0  0
 82156  1  0  0  0
 82157  1  0  0  0
 84158  1  0  0  0
 84159  1  0  0  0
 85160  1  0  0  0
 86161  1  0  0  0
 86162  1  0  0  0
M  CHG  1  86   1
M  ISO  4   1 100  68 101  81 101  85 100
M  END
> <chiral flag>
0

> <version>
0

> <s_m_source_file>
/data/baiqing/PycharmProjects/Reinvent-master-3.2/result/LINK_invent/BTK/process_docking_weight1_custom_product_contain_oxygen_bond_distance_aromatic_linkinvent_7_9_3/rearranged_h_0154.sdf

> <i_m_source_file_index>
25

> <r_mmod_Potential_Energy-OPLS-2005>
215.389450073242

> <r_mmod_Stretch_Energy-OPLS-2005>
160.738082885742

> <r_mmod_Bend_Energy-OPLS-2005>
285.666931152344

> <r_mmod_Torsional_Energy-OPLS-2005>
343.791107177734

> <r_mmod_Improper_Torsional_Energy-OPLS-2005>
13.0174760818481

> <r_mmod_Van_der_Waal_Energy-OPLS-2005>
143.028213500977

> <r_mmod_Electrostatic_Energy-OPLS-2005>
-410.177032470703

> <r_mmod_Solvation_Energy-OPLS-2005>
-429.711486816406

> <b_mmod_Minimization_Converged-OPLS-2005>
0

> <r_mmod_RMS_Derivative-OPLS-2005>
7.43399238586426

$$$$
25
                    3D
 Structure written by MMmdl.
153161  0  0  1  0            999 V2000
  -30.6329  -14.8022   20.4399 C   0  0  0  0  0  0
  -30.4266  -12.4968   19.4661 C   0  0  0  0  0  0
  -29.5026  -12.4976   18.2308 C   0  0  0  0  0  0
  -28.0343  -12.3172   18.6582 C   0  0  0  0  0  0
  -27.6338  -13.2413   19.8392 C   0  0  2  0  0  0
  -28.6863  -13.2343   20.9680 C   0  0  0  0  0  0
  -25.2476  -13.8209   20.5708 C   0  0  0  0  0  0
  -24.1787  -13.0443   20.9224 C   0  0  0  0  0  0
  -24.6388  -11.6922   20.8761 C   0  0  0  0  0  0
  -23.9065  -10.4298   21.0416 C   0  0  0  0  0  0
  -24.3624   -9.4217   21.9194 C   0  0  0  0  0  0
  -23.6302   -8.2250   22.0764 C   0  0  0  0  0  0
  -22.4283   -8.0286   21.3550 C   0  0  0  0  0  0
  -21.9916   -9.0255   20.4652 C   0  0  0  0  0  0
  -22.7236  -10.2133   20.3066 C   0  0  0  0  0  0
  -21.6863   -6.0735   22.5274 C   0  0  0  0  0  0
  -21.4014   -6.5645   23.8206 C   0  0  0  0  0  0
  -21.3653   -5.6800   24.9172 C   0  0  0  0  0  0
  -21.6045   -4.3066   24.7225 C   0  0  0  0  0  0
  -21.8818   -3.8151   23.4351 C   0  0  0  0  0  0
  -21.9190   -4.6960   22.3401 C   0  0  0  0  0  0
  -22.7806  -13.5214   21.1883 C   0  0  0  0  0  0
  -22.1668   -4.2145   21.0978 F   0  0  0  0  0  0
  -21.5624   -3.4550   25.7736 F   0  0  0  0  0  0
  -29.9696  -13.5925   20.3554 N   0  0  0  0  0  0
  -26.2914  -12.9437   20.3287 N   0  0  0  0  0  0
  -25.9323  -11.6567   20.5778 N   0  0  0  0  0  0
  -22.0461  -12.8191   22.0432 N   0  0  0  0  0  0
  -25.4122  -15.1942   20.4117 N   0  0  0  0  0  0
  -31.8471  -14.8003   20.2199 O   0  0  0  0  0  0
  -21.6656   -6.8873   21.4235 O   0  0  0  0  0  0
  -22.3476  -14.5519   20.6731 O   0  0  0  0  0  0
  -24.6347  -31.8519   23.1949 C   0  0  0  0  0  0
  -25.9152  -32.4735   23.8314 C   0  0  1  0  0  0
  -27.2321  -27.2412   20.1362 C   0  0  0  0  0  0
  -25.5949  -33.8548   24.2245 N   0  0  0  0  0  0
  -23.4337  -30.4709   21.5394 C   0  0  2  0  0  0
  -24.8847  -28.9036   20.1206 C   0  0  0  0  0  0
  -22.7521  -29.4580   22.4918 C   0  0  0  0  0  0
  -18.0298  -28.1384   22.8475 C   0  0  0  0  0  0
  -24.1484  -36.7272   23.2640 C   0  0  0  0  0  0
  -25.9808  -30.7562   21.3794 C   0  0  0  0  0  0
  -26.0566  -29.3740   20.7279 C   0  0  0  0  0  0
  -27.2352  -28.5554   20.7233 C   0  0  0  0  0  0
  -26.0401  -26.8403   19.5026 C   0  0  0  0  0  0
  -24.8810  -27.6433   19.5004 C   0  0  0  0  0  0
  -23.6575  -29.7957   20.1600 C   0  0  0  0  0  0
  -25.4104  -36.3055   24.0327 C   0  0  1  0  0  0
  -20.5899  -28.3692   23.1266 C   0  0  2  0  0  0
  -20.6780  -26.9413   22.5406 C   0  0  0  0  0  0
  -19.5754  -26.6379   21.5210 C   0  0  0  0  0  0
  -18.1931  -26.7927   22.1613 C   0  0  0  0  0  0
  -19.1548  -28.8860   23.2857 C   0  0  0  0  0  0
  -18.9462  -30.1457   23.8883 C   0  0  0  0  0  0
  -17.6458  -30.6577   24.0556 C   0  0  0  0  0  0
  -25.9044  -34.9436   23.5078 C   0  0  0  0  0  0
  -16.5354  -29.9061   23.6336 C   0  0  0  0  0  0
  -16.7286  -28.6483   23.0354 C   0  0  0  0  0  0
  -26.4492  -31.6562   25.0724 C   0  0  0  0  0  0
  -25.3677  -31.3753   26.1421 C   0  0  0  0  0  0
  -27.0323  -30.2958   24.6242 C   0  0  0  0  0  0
  -27.6060  -32.4295   25.7484 C   0  0  0  0  0  0
  -27.5563  -37.1783   24.8463 C   0  0  0  0  0  0
  -21.4227  -29.3034   22.3660 N   0  0  0  0  0  0
  -26.4268  -37.3758   23.9421 N   0  0  0  0  0  0
  -24.7018  -31.0459   22.0937 N   0  0  0  0  0  0
  -23.4207  -28.8123   23.3028 O   0  0  0  0  0  0
  -28.3394  -26.3555   20.0812 O   0  0  0  0  0  0
  -26.5596  -34.8917   22.4635 O   0  0  0  0  0  0
  -23.5491  -32.1368   23.7219 O   0  0  0  0  0  0
  -29.7326  -19.9435   20.9224 C   0  0  0  0  0  0
  -28.3470  -20.4994   19.1374 C   0  0  0  0  0  0
  -29.0128  -21.0253   20.2195 C   0  0  0  0  0  0
  -29.6252  -18.6379   20.3886 C   0  0  0  0  0  0
  -30.3910  -17.3023   20.6838 C   0  0  0  0  0  0
  -28.5141  -23.6436   20.0169 C   0  0  0  0  0  0
  -27.2645  -24.9171   21.8586 C   0  0  0  0  0  0
  -29.7485  -25.2341   21.6086 C   0  0  0  0  0  0
  -28.4224  -25.0422   20.8457 C   0  0  0  0  0  0
  -28.9697  -22.4684   20.6283 N   0  0  0  0  0  0
  -29.9065  -16.0017   20.5026 N   0  0  0  0  0  0
  -31.5193  -17.4758   21.1553 O   0  0  0  0  0  0
  -28.1645  -23.6465   18.8336 O   0  0  0  0  0  0
  -28.5819  -18.7443   18.9817 S   0  0  0  0  0  0
  -31.4640  -12.6163   19.1492 H   0  0  0  0  0  0
  -30.3813  -11.5370   19.9830 H   0  0  0  0  0  0
  -29.7906  -11.7015   17.5427 H   0  0  0  0  0  0
  -29.6170  -13.4332   17.6820 H   0  0  0  0  0  0
  -27.9030  -11.2732   18.9461 H   0  0  0  0  0  0
  -27.3702  -12.4832   17.8094 H   0  0  0  0  0  0
  -27.6084  -14.2506   19.4269 H   0  0  0  0  0  0
  -28.7446  -12.2574   21.4498 H   0  0  0  0  0  0
  -28.4166  -13.9487   21.7476 H   0  0  0  0  0  0
  -25.2757   -9.5697   22.4775 H   0  0  0  0  0  0
  -24.0009   -7.4642   22.7492 H   0  0  0  0  0  0
  -21.0842   -8.8758   19.8960 H   0  0  0  0  0  0
  -22.3682  -10.9673   19.6183 H   0  0  0  0  0  0
  -21.2007   -7.6152   23.9693 H   0  0  0  0  0  0
  -21.1482   -6.0543   25.9065 H   0  0  0  0  0  0
  -22.0597   -2.7609   23.2851 H   0  0  0  0  0  0
  -22.4089  -11.9861   22.4826 H   0  0  0  0  0  0
  -21.1062  -13.1205   22.2631 H   0  0  0  0  0  0
  -24.6405  -15.8423   20.5250 H   0  0  0  0  0  0
  -26.2496  -15.6382   20.0590 H   0  0  0  0  0  0
  -26.7227  -32.5363   23.1061 H   0  0  0  0  0  0
  -25.0182  -33.9701   25.0446 H   0  0  0  0  0  0
  -22.7302  -31.2919   21.3846 H   0  0  0  0  0  0
  -23.3754  -35.9591   23.3288 H   0  0  0  0  0  0
  -24.3595  -36.8915   22.2061 H   0  0  0  0  0  0
  -23.7216  -37.6465   23.6670 H   0  0  0  0  0  0
  -26.1240  -31.5129   20.6069 H   0  0  0  0  0  0
  -26.8556  -30.8074   22.0160 H   0  0  0  0  0  0
  -28.1379  -28.9170   21.1954 H   0  0  0  0  0  0
  -26.0042  -25.8766   19.0141 H   0  0  0  0  0  0
  -23.9854  -27.2746   19.0205 H   0  0  0  0  0  0
  -23.7917  -30.5671   19.4012 H   0  0  0  0  0  0
  -22.7751  -29.2320   19.8522 H   0  0  0  0  0  0
  -25.1278  -36.1900   25.0814 H   0  0  0  0  0  0
  -20.9977  -28.3265   24.1389 H   0  0  0  0  0  0
  -20.5666  -26.2306   23.3609 H   0  0  0  0  0  0
  -21.6640  -26.7428   22.1193 H   0  0  0  0  0  0
  -19.6912  -25.6284   21.1244 H   0  0  0  0  0  0
  -19.6690  -27.3181   20.6733 H   0  0  0  0  0  0
  -17.4206  -26.6700   21.4012 H   0  0  0  0  0  0
  -18.0309  -26.0075   22.9010 H   0  0  0  0  0  0
  -19.7939  -30.7273   24.2250 H   0  0  0  0  0  0
  -17.5012  -31.6258   24.5141 H   0  0  0  0  0  0
  -15.5345  -30.2942   23.7668 H   0  0  0  0  0  0
  -15.8696  -28.0782   22.7072 H   0  0  0  0  0  0
  -24.5832  -30.7146   25.7715 H   0  0  0  0  0  0
  -24.8894  -32.2945   26.4820 H   0  0  0  0  0  0
  -25.7926  -30.8908   27.0219 H   0  0  0  0  0  0
  -26.2916  -29.6712   24.1238 H   0  0  0  0  0  0
  -27.3944  -29.7230   25.4786 H   0  0  0  0  0  0
  -27.8821  -30.4203   23.9530 H   0  0  0  0  0  0
  -27.2715  -33.3660   26.1964 H   0  0  0  0  0  0
  -28.3898  -32.6741   25.0301 H   0  0  0  0  0  0
  -28.0679  -31.8464   26.5466 H   0  0  0  0  0  0
  -28.2562  -38.0098   24.7519 H   0  0  0  0  0  0
  -28.1058  -36.2623   24.6244 H   0  0  0  0  0  0
  -27.2297  -37.1400   25.8870 H   0  0  0  0  0  0
  -20.9426  -29.8781   21.6876 H   0  0  0  0  0  0
  -26.0146  -38.2827   24.1428 H   0  0  0  0  0  0
  -30.3454  -20.1578   21.7869 H   0  0  0  0  0  0
  -27.7285  -21.0219   18.4162 H   0  0  0  0  0  0
  -27.3810  -24.0335   22.4872 H   0  0  0  0  0  0
  -26.3024  -24.8181   21.3572 H   0  0  0  0  0  0
  -27.2128  -25.7793   22.5228 H   0  0  0  0  0  0
  -29.9237  -24.4544   22.3505 H   0  0  0  0  0  0
  -29.7619  -26.1892   22.1356 H   0  0  0  0  0  0
  -30.5972  -25.2319   20.9231 H   0  0  0  0  0  0
  -29.3182  -22.6387   21.5617 H   0  0  0  0  0  0
  -28.9156  -15.9265   20.3542 H   0  0  0  0  0  0
  1 25  1  0  0  0
  1 30  2  0  0  0
  1 81  1  0  0  0
  2  3  1  0  0  0
  2 25  1  0  0  0
  2 85  1  0  0  0
  2 86  1  0  0  0
  3  4  1  0  0  0
  3 87  1  0  0  0
  3 88  1  0  0  0
  4  5  1  0  0  0
  4 89  1  0  0  0
  4 90  1  0  0  0
  5  6  1  0  0  0
  5 26  1  0  0  0
  5 91  1  0  0  0
  6 25  1  0  0  0
  6 92  1  0  0  0
  6 93  1  0  0  0
  7  8  2  0  0  0
  7 26  1  0  0  0
  7 29  1  0  0  0
  8  9  1  0  0  0
  8 22  1  0  0  0
  9 10  1  0  0  0
  9 27  2  0  0  0
 10 11  2  0  0  0
 10 15  1  0  0  0
 11 12  1  0  0  0
 11 94  1  0  0  0
 12 13  2  0  0  0
 12 95  1  0  0  0
 13 14  1  0  0  0
 13 31  1  0  0  0
 14 15  2  0  0  0
 14 96  1  0  0  0
 15 97  1  0  0  0
 16 17  2  0  0  0
 16 21  1  0  0  0
 16 31  1  0  0  0
 17 18  1  0  0  0
 17 98  1  0  0  0
 18 19  2  0  0  0
 18 99  1  0  0  0
 19 20  1  0  0  0
 19 24  1  0  0  0
 20 21  2  0  0  0
 20100  1  0  0  0
 21 23  1  0  0  0
 22 28  1  0  0  0
 22 32  2  0  0  0
 26 27  1  0  0  0
 28101  1  0  0  0
 28102  1  0  0  0
 29103  1  0  0  0
 29104  1  0  0  0
 33 34  1  0  0  0
 33 66  1  0  0  0
 33 70  2  0  0  0
 34 36  1  0  0  0
 34 59  1  0  0  0
 34105  1  0  0  0
 35 44  2  0  0  0
 35 45  1  0  0  0
 35 68  1  0  0  0
 36 56  1  0  0  0
 36106  1  0  0  0
 37 39  1  0  0  0
 37 47  1  0  0  0
 37 66  1  0  0  0
 37107  1  0  0  0
 38 43  2  0  0  0
 38 46  1  0  0  0
 38 47  1  0  0  0
 39 64  1  0  0  0
 39 67  2  0  0  0
 40 52  1  0  0  0
 40 53  2  0  0  0
 40 58  1  0  0  0
 41108  1  0  0  0
 41109  1  0  0  0
 41110  1  0  0  0
 41 48  1  0  0  0
 42 43  1  0  0  0
 42 66  1  0  0  0
 42111  1  0  0  0
 42112  1  0  0  0
 43 44  1  0  0  0
 44113  1  0  0  0
 45 46  2  0  0  0
 45114  1  0  0  0
 46115  1  0  0  0
 47116  1  0  0  0
 47117  1  0  0  0
 48 56  1  0  0  0
 48 65  1  0  0  0
 48118  1  0  0  0
 49 50  1  0  0  0
 49 53  1  0  0  0
 49 64  1  0  0  0
 49119  1  0  0  0
 50 51  1  0  0  0
 50120  1  0  0  0
 50121  1  0  0  0
 51 52  1  0  0  0
 51122  1  0  0  0
 51123  1  0  0  0
 52124  1  0  0  0
 52125  1  0  0  0
 53 54  1  0  0  0
 54 55  2  0  0  0
 54126  1  0  0  0
 55 57  1  0  0  0
 55127  1  0  0  0
 56 69  2  0  0  0
 57 58  2  0  0  0
 57128  1  0  0  0
 58129  1  0  0  0
 59 60  1  0  0  0
 59 61  1  0  0  0
 59 62  1  0  0  0
 60130  1  0  0  0
 60131  1  0  0  0
 60132  1  0  0  0
 61133  1  0  0  0
 61134  1  0  0  0
 61135  1  0  0  0
 62136  1  0  0  0
 62137  1  0  0  0
 62138  1  0  0  0
 63 65  1  0  0  0
 63139  1  0  0  0
 63140  1  0  0  0
 63141  1  0  0  0
 64142  1  0  0  0
 65143  1  0  0  0
 68 79  1  0  0  0
 71 73  1  0  0  0
 71 74  2  0  0  0
 71144  1  0  0  0
 72 73  2  0  0  0
 72 84  1  0  0  0
 72145  1  0  0  0
 73 80  1  0  0  0
 74 75  1  0  0  0
 74 84  1  0  0  0
 75 81  1  0  0  0
 75 82  2  0  0  0
 76 79  1  0  0  0
 76 80  1  0  0  0
 76 83  2  0  0  0
 77146  1  0  0  0
 77147  1  0  0  0
 77148  1  0  0  0
 77 79  1  0  0  0
 78 79  1  0  0  0
 78149  1  0  0  0
 78150  1  0  0  0
 78151  1  0  0  0
 80152  1  0  0  0
 81153  1  0  0  0
M  ISO  4   1 100  68 101  79 101  81 100
M  END
> <chiral flag>
0

> <version>
0

> <s_m_source_file>
/data/baiqing/PycharmProjects/Reinvent-master-3.2/result/LINK_invent/BTK/process_docking_weight1_custom_product_contain_oxygen_bond_distance_aromatic_linkinvent_7_9_3/rearranged_h_0154.sdf

> <i_m_source_file_index>
26

> <r_mmod_Potential_Energy-OPLS-2005>
143.148162841797

> <r_mmod_Stretch_Energy-OPLS-2005>
143.374847412109

> <r_mmod_Bend_Energy-OPLS-2005>
194.450180053711

> <r_mmod_Torsional_Energy-OPLS-2005>
289.675750732422

> <r_mmod_Improper_Torsional_Energy-OPLS-2005>
7.03323316574097

> <r_mmod_Van_der_Waal_Energy-OPLS-2005>
116.073677062988

> <r_mmod_Electrostatic_Energy-OPLS-2005>
-466.532867431641

> <r_mmod_Solvation_Energy-OPLS-2005>
-246.160995483398

> <b_mmod_Minimization_Converged-OPLS-2005>
0

> <r_mmod_RMS_Derivative-OPLS-2005>
2.30412006378174

$$$$
26
                    3D
 Structure written by MMmdl.
155164  0  0  1  0            999 V2000
  -30.6179  -14.7676   20.4504 C   0  0  0  0  0  0
  -30.4229  -12.4650   19.4852 C   0  0  0  0  0  0
  -29.4980  -12.4940   18.2483 C   0  0  0  0  0  0
  -28.0292  -12.3154   18.6748 C   0  0  0  0  0  0
  -27.6382  -13.2333   19.8613 C   0  0  2  0  0  0
  -28.6856  -13.1960   20.9946 C   0  0  0  0  0  0
  -25.2499  -13.8211   20.5758 C   0  0  0  0  0  0
  -24.1783  -13.0472   20.9252 C   0  0  0  0  0  0
  -24.6369  -11.6937   20.8819 C   0  0  0  0  0  0
  -23.9065  -10.4313   21.0463 C   0  0  0  0  0  0
  -24.3617   -9.4216   21.9214 C   0  0  0  0  0  0
  -23.6304   -8.2235   22.0752 C   0  0  0  0  0  0
  -22.4283   -8.0283   21.3533 C   0  0  0  0  0  0
  -21.9927   -9.0264   20.4641 C   0  0  0  0  0  0
  -22.7252  -10.2155   20.3084 C   0  0  0  0  0  0
  -21.6860   -6.0754   22.5282 C   0  0  0  0  0  0
  -21.4007   -6.5650   23.8208 C   0  0  0  0  0  0
  -21.3663   -5.6794   24.9172 C   0  0  0  0  0  0
  -21.6032   -4.3065   24.7224 C   0  0  0  0  0  0
  -21.8819   -3.8163   23.4344 C   0  0  0  0  0  0
  -21.9183   -4.6978   22.3398 C   0  0  0  0  0  0
  -22.7798  -13.5237   21.1919 C   0  0  0  0  0  0
  -22.1662   -4.2165   21.0985 F   0  0  0  0  0  0
  -21.5629   -3.4546   25.7747 F   0  0  0  0  0  0
  -29.9773  -13.5470   20.3949 N   0  0  0  0  0  0
  -26.2927  -12.9412   20.3413 N   0  0  0  0  0  0
  -25.9309  -11.6561   20.5859 N   0  0  0  0  0  0
  -22.0476  -12.8207   22.0476 N   0  0  0  0  0  0
  -25.4249  -15.1932   20.4164 N   0  0  0  0  0  0
  -31.8146  -14.8307   20.1570 O   0  0  0  0  0  0
  -21.6637   -6.8893   21.4231 O   0  0  0  0  0  0
  -22.3482  -14.5564   20.6790 O   0  0  0  0  0  0
  -24.6338  -31.8474   23.1927 C   0  0  0  0  0  0
  -25.9140  -32.4712   23.8274 C   0  0  1  0  0  0
  -27.2034  -27.2069   20.1207 C   0  0  0  0  0  0
  -25.5890  -33.8518   24.2148 N   0  0  0  0  0  0
  -23.4340  -30.4732   21.5354 C   0  0  2  0  0  0
  -24.8800  -28.9169   20.1028 C   0  0  0  0  0  0
  -22.7519  -29.4554   22.4836 C   0  0  0  0  0  0
  -18.0302  -28.1401   22.8485 C   0  0  0  0  0  0
  -24.1461  -36.7222   23.2650 C   0  0  0  0  0  0
  -25.9893  -30.7392   21.3875 C   0  0  0  0  0  0
  -26.0574  -29.3631   20.7179 C   0  0  0  0  0  0
  -27.2253  -28.5241   20.7074 C   0  0  0  0  0  0
  -26.0041  -26.8446   19.4750 C   0  0  0  0  0  0
  -24.8617  -27.6661   19.4693 C   0  0  0  0  0  0
  -23.6558  -29.8128   20.1507 C   0  0  0  0  0  0
  -25.4106  -36.3032   24.0313 C   0  0  1  0  0  0
  -20.5902  -28.3690   23.1244 C   0  0  2  0  0  0
  -20.6776  -26.9395   22.5396 C   0  0  0  0  0  0
  -19.5749  -26.6366   21.5207 C   0  0  0  0  0  0
  -18.1924  -26.7936   22.1617 C   0  0  0  0  0  0
  -19.1553  -28.8865   23.2856 C   0  0  0  0  0  0
  -18.9499  -30.1477   23.8865 C   0  0  0  0  0  0
  -17.6506  -30.6605   24.0567 C   0  0  0  0  0  0
  -25.9061  -34.9423   23.5035 C   0  0  0  0  0  0
  -16.5392  -29.9094   23.6358 C   0  0  0  0  0  0
  -16.7287  -28.6516   23.0362 C   0  0  0  0  0  0
  -26.4481  -31.6629   25.0720 C   0  0  0  0  0  0
  -25.3670  -31.3837   26.1417 C   0  0  0  0  0  0
  -27.0359  -30.3025   24.6334 C   0  0  0  0  0  0
  -27.5977  -32.4474   25.7473 C   0  0  0  0  0  0
  -27.5574  -37.1730   24.8457 C   0  0  0  0  0  0
  -21.4215  -29.3034   22.3615 N   0  0  0  0  0  0
  -26.4243  -37.3769   23.9465 N   0  0  0  0  0  0
  -24.7049  -31.0390   22.0933 N   0  0  0  0  0  0
  -23.4209  -28.8086   23.2917 O   0  0  0  0  0  0
  -28.2665  -26.2604   20.1632 O   0  0  0  0  0  0
  -26.5653  -34.8914   22.4627 O   0  0  0  0  0  0
  -23.5472  -32.1335   23.7175 O   0  0  0  0  0  0
  -28.6852  -18.9345   19.3783 C   0  0  0  0  0  0
  -28.2383  -20.3127   19.2407 C   0  0  0  0  0  0
  -29.6034  -18.6948   20.3775 C   0  0  0  0  0  0
  -28.7642  -21.2441   20.1219 C   0  0  0  0  0  0
  -27.0932  -23.3913   18.1675 C   0  0  0  0  0  0
  -28.8895  -23.7701   21.1036 C   0  0  0  0  0  0
  -28.1964  -23.6797   19.1564 C   0  0  1  0  0  0
  -27.9524  -24.7669   20.2946 C   0  0  2  0  0  0
  -27.5797  -22.9412   16.7916 C   0  0  0  0  0  0
  -30.4224  -17.3717   20.7212 C   0  0  0  0  0  0
  -28.3503  -22.6847   20.2517 N   0  0  0  0  0  0
  -29.8812  -15.9359   20.6405 N   0  0  0  0  0  0
  -25.8790  -23.4508   18.3783 O   0  0  0  0  0  0
  -29.8727  -20.2981   21.1731 S   0  0  0  0  0  0
  -31.4656  -12.5752   19.1830 H   0  0  0  0  0  0
  -30.3603  -11.4974   19.9881 H   0  0  0  0  0  0
  -29.7780  -11.7092   17.5450 H   0  0  0  0  0  0
  -29.6133  -13.4402   17.7182 H   0  0  0  0  0  0
  -27.9045  -11.2719   18.9680 H   0  0  0  0  0  0
  -27.3582  -12.4770   17.8299 H   0  0  0  0  0  0
  -27.6268  -14.2481   19.4630 H   0  0  0  0  0  0
  -28.7287  -12.2084   21.4556 H   0  0  0  0  0  0
  -28.4254  -13.8943   21.7921 H   0  0  0  0  0  0
  -25.2744   -9.5696   22.4812 H   0  0  0  0  0  0
  -24.0023   -7.4626   22.7459 H   0  0  0  0  0  0
  -21.0868   -8.8791   19.8938 H   0  0  0  0  0  0
  -22.3708  -10.9710   19.6217 H   0  0  0  0  0  0
  -21.1997   -7.6154   23.9721 H   0  0  0  0  0  0
  -21.1479   -6.0533   25.9076 H   0  0  0  0  0  0
  -22.0587   -2.7636   23.2845 H   0  0  0  0  0  0
  -22.4078  -11.9814   22.4780 H   0  0  0  0  0  0
  -21.1118  -13.1220   22.2794 H   0  0  0  0  0  0
  -24.6670  -15.8590   20.5195 H   0  0  0  0  0  0
  -26.2801  -15.6206   20.0870 H   0  0  0  0  0  0
  -26.7209  -32.5314   23.1007 H   0  0  0  0  0  0
  -25.0056  -33.9656   25.0305 H   0  0  0  0  0  0
  -22.7354  -31.2995   21.3900 H   0  0  0  0  0  0
  -23.3779  -35.9489   23.3241 H   0  0  0  0  0  0
  -24.3544  -36.8933   22.2074 H   0  0  0  0  0  0
  -23.7147  -37.6362   23.6754 H   0  0  0  0  0  0
  -26.1543  -31.5029   20.6278 H   0  0  0  0  0  0
  -26.8577  -30.7709   22.0345 H   0  0  0  0  0  0
  -28.1300  -28.8585   21.1946 H   0  0  0  0  0  0
  -25.9221  -25.8937   18.9754 H   0  0  0  0  0  0
  -23.9625  -27.3199   18.9769 H   0  0  0  0  0  0
  -23.7890  -30.5957   19.4014 H   0  0  0  0  0  0
  -22.7708  -29.2560   19.8382 H   0  0  0  0  0  0
  -25.1288  -36.1819   25.0795 H   0  0  0  0  0  0
  -21.0021  -28.3282   24.1354 H   0  0  0  0  0  0
  -20.5668  -26.2282   23.3599 H   0  0  0  0  0  0
  -21.6635  -26.7393   22.1188 H   0  0  0  0  0  0
  -19.6883  -25.6261   21.1264 H   0  0  0  0  0  0
  -19.6715  -27.3142   20.6715 H   0  0  0  0  0  0
  -17.4186  -26.6685   21.4030 H   0  0  0  0  0  0
  -18.0340  -26.0087   22.9024 H   0  0  0  0  0  0
  -19.7979  -30.7307   24.2195 H   0  0  0  0  0  0
  -17.5065  -31.6284   24.5167 H   0  0  0  0  0  0
  -15.5400  -30.3006   23.7719 H   0  0  0  0  0  0
  -15.8665  -28.0872   22.7072 H   0  0  0  0  0  0
  -24.5767  -30.7286   25.7734 H   0  0  0  0  0  0
  -24.8943  -32.3035   26.4874 H   0  0  0  0  0  0
  -25.7896  -30.8955   27.0196 H   0  0  0  0  0  0
  -26.2969  -29.6727   24.1358 H   0  0  0  0  0  0
  -27.3995  -29.7371   25.4929 H   0  0  0  0  0  0
  -27.8864  -30.4272   23.9623 H   0  0  0  0  0  0
  -27.2555  -33.3872   26.1833 H   0  0  0  0  0  0
  -28.3839  -32.6910   25.0310 H   0  0  0  0  0  0
  -28.0560  -31.8759   26.5558 H   0  0  0  0  0  0
  -28.2502  -38.0116   24.7680 H   0  0  0  0  0  0
  -28.1176  -36.2666   24.6099 H   0  0  0  0  0  0
  -27.2317  -37.1148   25.8857 H   0  0  0  0  0  0
  -20.9378  -29.8835   21.6910 H   0  0  0  0  0  0
  -26.0093  -38.2784   24.1666 H   0  0  0  0  0  0
  -28.3185  -18.1658   18.7119 H   0  0  0  0  0  0
  -27.5003  -20.5530   18.4888 H   0  0  0  0  0  0
  -28.6351  -23.6804   22.1604 H   0  0  0  0  0  0
  -29.9571  -23.9526   20.9528 H   0  0  0  0  0  0
  -29.1575  -23.8327   18.6615 H   0  0  0  0  0  0
  -26.9431  -24.6677   20.7059 H   0  0  0  0  0  0
  -28.2290  -22.0686   16.8643 H   0  0  0  0  0  0
  -28.1444  -23.7445   16.3223 H   0  0  0  0  0  0
  -26.7444  -22.6918   16.1395 H   0  0  0  0  0  0
  -30.8119  -17.4779   21.7333 H   0  0  0  0  0  0
  -31.3134  -17.3933   20.0907 H   0  0  0  0  0  0
  -28.8977  -15.8173   20.8343 H   0  0  0  0  0  0
  1 25  1  0  0  0
  1 30  2  0  0  0
  1 82  1  0  0  0
  2  3  1  0  0  0
  2 25  1  0  0  0
  2 85  1  0  0  0
  2 86  1  0  0  0
  3  4  1  0  0  0
  3 87  1  0  0  0
  3 88  1  0  0  0
  4  5  1  0  0  0
  4 89  1  0  0  0
  4 90  1  0  0  0
  5  6  1  0  0  0
  5 26  1  0  0  0
  5 91  1  0  0  0
  6 25  1  0  0  0
  6 92  1  0  0  0
  6 93  1  0  0  0
  7  8  2  0  0  0
  7 26  1  0  0  0
  7 29  1  0  0  0
  8  9  1  0  0  0
  8 22  1  0  0  0
  9 10  1  0  0  0
  9 27  2  0  0  0
 10 11  2  0  0  0
 10 15  1  0  0  0
 11 12  1  0  0  0
 11 94  1  0  0  0
 12 13  2  0  0  0
 12 95  1  0  0  0
 13 14  1  0  0  0
 13 31  1  0  0  0
 14 15  2  0  0  0
 14 96  1  0  0  0
 15 97  1  0  0  0
 16 17  2  0  0  0
 16 21  1  0  0  0
 16 31  1  0  0  0
 17 18  1  0  0  0
 17 98  1  0  0  0
 18 19  2  0  0  0
 18 99  1  0  0  0
 19 20  1  0  0  0
 19 24  1  0  0  0
 20 21  2  0  0  0
 20100  1  0  0  0
 21 23  1  0  0  0
 22 28  1  0  0  0
 22 32  2  0  0  0
 26 27  1  0  0  0
 28101  1  0  0  0
 28102  1  0  0  0
 29103  1  0  0  0
 29104  1  0  0  0
 33 34  1  0  0  0
 33 66  1  0  0  0
 33 70  2  0  0  0
 34 36  1  0  0  0
 34 59  1  0  0  0
 34105  1  0  0  0
 35 44  2  0  0  0
 35 45  1  0  0  0
 35 68  1  0  0  0
 36 56  1  0  0  0
 36106  1  0  0  0
 37 39  1  0  0  0
 37 47  1  0  0  0
 37 66  1  0  0  0
 37107  1  0  0  0
 38 43  2  0  0  0
 38 46  1  0  0  0
 38 47  1  0  0  0
 39 64  1  0  0  0
 39 67  2  0  0  0
 40 52  1  0  0  0
 40 53  2  0  0  0
 40 58  1  0  0  0
 41108  1  0  0  0
 41109  1  0  0  0
 41110  1  0  0  0
 41 48  1  0  0  0
 42 43  1  0  0  0
 42 66  1  0  0  0
 42111  1  0  0  0
 42112  1  0  0  0
 43 44  1  0  0  0
 44113  1  0  0  0
 45 46  2  0  0  0
 45114  1  0  0  0
 46115  1  0  0  0
 47116  1  0  0  0
 47117  1  0  0  0
 48 56  1  0  0  0
 48 65  1  0  0  0
 48118  1  0  0  0
 49 50  1  0  0  0
 49 53  1  0  0  0
 49 64  1  0  0  0
 49119  1  0  0  0
 50 51  1  0  0  0
 50120  1  0  0  0
 50121  1  0  0  0
 51 52  1  0  0  0
 51122  1  0  0  0
 51123  1  0  0  0
 52124  1  0  0  0
 52125  1  0  0  0
 53 54  1  0  0  0
 54 55  2  0  0  0
 54126  1  0  0  0
 55 57  1  0  0  0
 55127  1  0  0  0
 56 69  2  0  0  0
 57 58  2  0  0  0
 57128  1  0  0  0
 58129  1  0  0  0
 59 60  1  0  0  0
 59 61  1  0  0  0
 59 62  1  0  0  0
 60130  1  0  0  0
 60131  1  0  0  0
 60132  1  0  0  0
 61133  1  0  0  0
 61134  1  0  0  0
 61135  1  0  0  0
 62136  1  0  0  0
 62137  1  0  0  0
 62138  1  0  0  0
 63 65  1  0  0  0
 63139  1  0  0  0
 63140  1  0  0  0
 63141  1  0  0  0
 64142  1  0  0  0
 65143  1  0  0  0
 68 78  1  0  0  0
 71 72  1  0  0  0
 71 73  2  0  0  0
 71144  1  0  0  0
 72 74  2  0  0  0
 72145  1  0  0  0
 73 80  1  0  0  0
 73 84  1  0  0  0
 74 81  1  0  0  0
 74 84  1  0  0  0
 75 79  1  0  0  0
 75 83  2  0  0  0
 75 77  1  0  0  0
 76 78  1  0  0  0
 76 81  1  0  0  0
 76146  1  0  0  0
 76147  1  0  0  0
 77 78  1  0  0  0
 77 81  1  0  0  0
 77148  1  0  0  0
 78149  1  0  0  0
 79150  1  0  0  0
 79151  1  0  0  0
 79152  1  0  0  0
 80 82  1  0  0  0
 80153  1  0  0  0
 80154  1  0  0  0
 82155  1  0  0  0
M  ISO  4   1 100  68 101  78 101  82 100
M  END
> <chiral flag>
0

> <version>
0

> <s_m_source_file>
/data/baiqing/PycharmProjects/Reinvent-master-3.2/result/LINK_invent/BTK/process_docking_weight1_custom_product_contain_oxygen_bond_distance_aromatic_linkinvent_7_9_3/rearranged_h_0154.sdf

> <i_m_source_file_index>
27

> <r_mmod_Potential_Energy-OPLS-2005>
248.237884521484

> <r_mmod_Stretch_Energy-OPLS-2005>
136.177398681641

> <r_mmod_Bend_Energy-OPLS-2005>
257.52685546875

> <r_mmod_Torsional_Energy-OPLS-2005>
231.320373535156

> <r_mmod_Improper_Torsional_Energy-OPLS-2005>
10.3601198196411

> <r_mmod_Van_der_Waal_Energy-OPLS-2005>
113.629356384277

> <r_mmod_Electrostatic_Energy-OPLS-2005>
-375.700775146484

> <r_mmod_Solvation_Energy-OPLS-2005>
-236.073974609375

> <b_mmod_Minimization_Converged-OPLS-2005>
0

> <r_mmod_RMS_Derivative-OPLS-2005>
3.58326315879822

$$$$
27
                    3D
 Structure written by MMmdl.
160169  0  0  1  0            999 V2000
  -30.7260  -14.4416   20.5597 C   0  0  0  0  0  0
  -30.4021  -12.2834   19.4220 C   0  0  0  0  0  0
  -29.4931  -12.5189   18.2005 C   0  0  0  0  0  0
  -28.0068  -12.4122   18.6005 C   0  0  0  0  0  0
  -27.6612  -13.2227   19.8814 C   0  0  2  0  0  0
  -28.7062  -12.9988   20.9982 C   0  0  0  0  0  0
  -25.2561  -13.8173   20.5713 C   0  0  0  0  0  0
  -24.1848  -13.0438   20.9177 C   0  0  0  0  0  0
  -24.6415  -11.6902   20.8732 C   0  0  0  0  0  0
  -23.9086  -10.4291   21.0386 C   0  0  0  0  0  0
  -24.3628   -9.4212   21.9172 C   0  0  0  0  0  0
  -23.6302   -8.2251   22.0746 C   0  0  0  0  0  0
  -22.4291   -8.0287   21.3535 C   0  0  0  0  0  0
  -21.9928   -9.0255   20.4641 C   0  0  0  0  0  0
  -22.7253  -10.2131   20.3043 C   0  0  0  0  0  0
  -21.6861   -6.0748   22.5277 C   0  0  0  0  0  0
  -21.4017   -6.5645   23.8216 C   0  0  0  0  0  0
  -21.3660   -5.6795   24.9172 C   0  0  0  0  0  0
  -21.6053   -4.3057   24.7225 C   0  0  0  0  0  0
  -21.8818   -3.8152   23.4339 C   0  0  0  0  0  0
  -21.9197   -4.6971   22.3402 C   0  0  0  0  0  0
  -22.7859  -13.5210   21.1846 C   0  0  0  0  0  0
  -22.1670   -4.2158   21.0976 F   0  0  0  0  0  0
  -21.5627   -3.4541   25.7733 F   0  0  0  0  0  0
  -30.0331  -13.2806   20.4355 N   0  0  0  0  0  0
  -26.3037  -12.9390   20.3424 N   0  0  0  0  0  0
  -25.9352  -11.6523   20.5772 N   0  0  0  0  0  0
  -22.0511  -12.8192   22.0376 N   0  0  0  0  0  0
  -25.4241  -15.1911   20.4131 N   0  0  0  0  0  0
  -31.8758  -14.5755   20.1327 O   0  0  0  0  0  0
  -21.6653   -6.8886   21.4239 O   0  0  0  0  0  0
  -22.3557  -14.5542   20.6713 O   0  0  0  0  0  0
  -24.6090  -31.8694   23.2094 C   0  0  0  0  0  0
  -25.8963  -32.4855   23.8369 C   0  0  1  0  0  0
  -27.2465  -27.4400   20.1207 C   0  0  0  0  0  0
  -25.5827  -33.8651   24.2282 N   0  0  0  0  0  0
  -23.4019  -30.4869   21.5497 C   0  0  2  0  0  0
  -24.8504  -28.9548   20.1186 C   0  0  0  0  0  0
  -22.7399  -29.4627   22.4998 C   0  0  0  0  0  0
  -18.0247  -28.1377   22.8442 C   0  0  0  0  0  0
  -24.1499  -36.7354   23.2639 C   0  0  0  0  0  0
  -25.9251  -30.8403   21.3597 C   0  0  0  0  0  0
  -26.0043  -29.4715   20.7157 C   0  0  0  0  0  0
  -27.2024  -28.7236   20.7075 C   0  0  0  0  0  0
  -26.0737  -26.9384   19.5072 C   0  0  0  0  0  0
  -24.8793  -27.6871   19.5097 C   0  0  0  0  0  0
  -23.6109  -29.8151   20.1659 C   0  0  0  0  0  0
  -25.4121  -36.3136   24.0331 C   0  0  1  0  0  0
  -20.5838  -28.3635   23.1316 C   0  0  2  0  0  0
  -20.6761  -26.9393   22.5375 C   0  0  0  0  0  0
  -19.5749  -26.6424   21.5153 C   0  0  0  0  0  0
  -18.1909  -26.7931   22.1558 C   0  0  0  0  0  0
  -19.1493  -28.8818   23.2881 C   0  0  0  0  0  0
  -18.9455  -30.1428   23.8894 C   0  0  0  0  0  0
  -17.6465  -30.6584   24.0572 C   0  0  0  0  0  0
  -25.9027  -34.9503   23.5107 C   0  0  0  0  0  0
  -16.5340  -29.9107   23.6350 C   0  0  0  0  0  0
  -16.7233  -28.6528   23.0329 C   0  0  0  0  0  0
  -26.4422  -31.6654   25.0691 C   0  0  0  0  0  0
  -25.3679  -31.3814   26.1430 C   0  0  0  0  0  0
  -27.0250  -30.3100   24.6071 C   0  0  0  0  0  0
  -27.5963  -32.4415   25.7468 C   0  0  0  0  0  0
  -27.5596  -37.1811   24.8459 C   0  0  0  0  0  0
  -21.4124  -29.3024   22.3747 N   0  0  0  0  0  0
  -26.4310  -37.3816   23.9399 N   0  0  0  0  0  0
  -24.6645  -31.0803   22.0993 N   0  0  0  0  0  0
  -23.4152  -28.8163   23.3052 O   0  0  0  0  0  0
  -28.4492  -26.7568   20.1376 O   0  0  0  0  0  0
  -26.5651  -34.8975   22.4710 O   0  0  0  0  0  0
  -23.5283  -32.1412   23.7499 O   0  0  0  0  0  0
  -28.7188  -17.8872   22.6376 C   0  0  0  0  0  0
  -27.9758  -19.0552   22.9533 C   0  0  0  0  0  0
  -29.0574  -20.2852   21.1332 C   0  0  0  0  0  0
  -29.6462  -17.9488   21.5795 C   0  0  0  0  0  0
  -29.7957  -19.1238   20.8506 C   0  0  0  0  0  0
  -28.1512  -20.2627   22.2148 C   0  0  0  0  0  0
  -27.7626  -22.7192   22.5303 C   0  0  0  0  0  0
  -30.7914  -18.9698   19.7415 C   0  0  0  0  0  0
  -31.0505  -17.4506   19.7062 C   0  0  0  0  0  0
  -30.5911  -16.8694   21.0788 C   0  0  2  0  0  0
  -28.9164  -24.7401   21.5313 C   0  0  0  0  0  0
  -28.4706  -25.3201   20.1659 C   0  0  0  0  0  0
  -27.3387  -21.4272   22.5273 N   0  0  0  0  0  0
  -30.0388  -15.5052   21.0135 N   0  0  0  0  0  0
  -28.6052  -23.2956   21.6411 N   0  3  0  0  0  0
  -31.4550  -12.3335   19.1396 H   0  0  0  0  0  0
  -30.2486  -11.2786   19.8181 H   0  0  0  0  0  0
  -29.7211  -11.8028   17.4089 H   0  0  0  0  0  0
  -29.6908  -13.5083   17.7857 H   0  0  0  0  0  0
  -27.7703  -11.3587   18.7450 H   0  0  0  0  0  0
  -27.3789  -12.7536   17.7754 H   0  0  0  0  0  0
  -27.7040  -14.2777   19.6055 H   0  0  0  0  0  0
  -28.6738  -11.9684   21.3525 H   0  0  0  0  0  0
  -28.4926  -13.6158   21.8713 H   0  0  0  0  0  0
  -25.2767   -9.5707   22.4747 H   0  0  0  0  0  0
  -24.0027   -7.4650   22.7459 H   0  0  0  0  0  0
  -21.0864   -8.8763   19.8939 H   0  0  0  0  0  0
  -22.3704  -10.9666   19.6158 H   0  0  0  0  0  0
  -21.2008   -7.6154   23.9719 H   0  0  0  0  0  0
  -21.1485   -6.0525   25.9079 H   0  0  0  0  0  0
  -22.0596   -2.7613   23.2837 H   0  0  0  0  0  0
  -22.4131  -11.9835   22.4735 H   0  0  0  0  0  0
  -21.1113  -13.1172   22.2570 H   0  0  0  0  0  0
  -24.6461  -15.8342   20.5065 H   0  0  0  0  0  0
  -26.2750  -15.6403   20.0989 H   0  0  0  0  0  0
  -26.7049  -32.5578   23.1147 H   0  0  0  0  0  0
  -24.9871  -33.9801   25.0355 H   0  0  0  0  0  0
  -22.6871  -31.2991   21.4058 H   0  0  0  0  0  0
  -23.3762  -35.9690   23.3324 H   0  0  0  0  0  0
  -24.3586  -36.8955   22.2054 H   0  0  0  0  0  0
  -23.7253  -37.6553   23.6648 H   0  0  0  0  0  0
  -26.0252  -31.6007   20.5824 H   0  0  0  0  0  0
  -26.8173  -30.9025   21.9697 H   0  0  0  0  0  0
  -28.1009  -29.1233   21.1613 H   0  0  0  0  0  0
  -26.0602  -25.9877   18.9963 H   0  0  0  0  0  0
  -23.9966  -27.2845   19.0324 H   0  0  0  0  0  0
  -23.7125  -30.5819   19.3966 H   0  0  0  0  0  0
  -22.7398  -29.2237   19.8782 H   0  0  0  0  0  0
  -25.1296  -36.2021   25.0826 H   0  0  0  0  0  0
  -20.9894  -28.3209   24.1449 H   0  0  0  0  0  0
  -20.5737  -26.2219   23.3531 H   0  0  0  0  0  0
  -21.6637  -26.7523   22.1119 H   0  0  0  0  0  0
  -19.6970  -25.6383   21.1098 H   0  0  0  0  0  0
  -19.6725  -27.3322   20.6756 H   0  0  0  0  0  0
  -17.4197  -26.6655   21.3949 H   0  0  0  0  0  0
  -18.0332  -26.0062   22.8954 H   0  0  0  0  0  0
  -19.7959  -30.7194   24.2292 H   0  0  0  0  0  0
  -17.5064  -31.6280   24.5161 H   0  0  0  0  0  0
  -15.5359  -30.3023   23.7723 H   0  0  0  0  0  0
  -15.8605  -28.0893   22.7039 H   0  0  0  0  0  0
  -24.5772  -30.7273   25.7779 H   0  0  0  0  0  0
  -24.8933  -32.2990   26.4895 H   0  0  0  0  0  0
  -25.7929  -30.8926   27.0195 H   0  0  0  0  0  0
  -26.2733  -29.6823   24.1251 H   0  0  0  0  0  0
  -27.4172  -29.7393   25.4498 H   0  0  0  0  0  0
  -27.8519  -30.4460   23.9094 H   0  0  0  0  0  0
  -27.2511  -33.3711   26.2042 H   0  0  0  0  0  0
  -28.3731  -32.7018   25.0261 H   0  0  0  0  0  0
  -28.0664  -31.8560   26.5375 H   0  0  0  0  0  0
  -28.2590  -38.0139   24.7522 H   0  0  0  0  0  0
  -28.1093  -36.2637   24.6243 H   0  0  0  0  0  0
  -27.2290  -37.1441   25.8861 H   0  0  0  0  0  0
  -20.9300  -29.8703   21.6921 H   0  0  0  0  0  0
  -26.0211  -38.2898   24.1444 H   0  0  0  0  0  0
  -28.5866  -16.9721   23.2005 H   0  0  0  0  0  0
  -27.2656  -19.0092   23.7642 H   0  0  0  0  0  0
  -29.1791  -21.1517   20.5042 H   0  0  0  0  0  0
  -27.3716  -23.3489   23.3228 H   0  0  0  0  0  0
  -31.6970  -19.5198   19.9999 H   0  0  0  0  0  0
  -30.3986  -19.3563   18.7997 H   0  0  0  0  0  0
  -32.0848  -17.2092   19.4544 H   0  0  0  0  0  0
  -30.4215  -17.0390   18.9144 H   0  0  0  0  0  0
  -31.4481  -16.8587   21.7559 H   0  0  0  0  0  0
  -28.4531  -25.2942   22.3492 H   0  0  0  0  0  0
  -29.9909  -24.8811   21.6453 H   0  0  0  0  0  0
  -27.5426  -24.8483   19.8625 H   0  0  0  0  0  0
  -29.2041  -25.0205   19.4184 H   0  0  0  0  0  0
  -26.5145  -21.2908   23.0987 H   0  0  0  0  0  0
  -29.0794  -15.3648   21.2910 H   0  0  0  0  0  0
  -29.0327  -22.7159   20.9355 H   0  0  0  0  0  0
  1 25  1  0  0  0
  1 30  2  0  0  0
  1 84  1  0  0  0
  2  3  1  0  0  0
  2 25  1  0  0  0
  2 86  1  0  0  0
  2 87  1  0  0  0
  3  4  1  0  0  0
  3 88  1  0  0  0
  3 89  1  0  0  0
  4  5  1  0  0  0
  4 90  1  0  0  0
  4 91  1  0  0  0
  5  6  1  0  0  0
  5 26  1  0  0  0
  5 92  1  0  0  0
  6 25  1  0  0  0
  6 93  1  0  0  0
  6 94  1  0  0  0
  7  8  2  0  0  0
  7 26  1  0  0  0
  7 29  1  0  0  0
  8  9  1  0  0  0
  8 22  1  0  0  0
  9 10  1  0  0  0
  9 27  2  0  0  0
 10 11  2  0  0  0
 10 15  1  0  0  0
 11 12  1  0  0  0
 11 95  1  0  0  0
 12 13  2  0  0  0
 12 96  1  0  0  0
 13 14  1  0  0  0
 13 31  1  0  0  0
 14 15  2  0  0  0
 14 97  1  0  0  0
 15 98  1  0  0  0
 16 17  2  0  0  0
 16 21  1  0  0  0
 16 31  1  0  0  0
 17 18  1  0  0  0
 17 99  1  0  0  0
 18 19  2  0  0  0
 18100  1  0  0  0
 19 20  1  0  0  0
 19 24  1  0  0  0
 20 21  2  0  0  0
 20101  1  0  0  0
 21 23  1  0  0  0
 22 28  1  0  0  0
 22 32  2  0  0  0
 26 27  1  0  0  0
 28102  1  0  0  0
 28103  1  0  0  0
 29104  1  0  0  0
 29105  1  0  0  0
 33 34  1  0  0  0
 33 66  1  0  0  0
 33 70  2  0  0  0
 34 36  1  0  0  0
 34 59  1  0  0  0
 34106  1  0  0  0
 35 44  2  0  0  0
 35 45  1  0  0  0
 35 68  1  0  0  0
 36 56  1  0  0  0
 36107  1  0  0  0
 37 39  1  0  0  0
 37 47  1  0  0  0
 37 66  1  0  0  0
 37108  1  0  0  0
 38 43  2  0  0  0
 38 46  1  0  0  0
 38 47  1  0  0  0
 39 64  1  0  0  0
 39 67  2  0  0  0
 40 52  1  0  0  0
 40 53  2  0  0  0
 40 58  1  0  0  0
 41109  1  0  0  0
 41110  1  0  0  0
 41111  1  0  0  0
 41 48  1  0  0  0
 42 43  1  0  0  0
 42 66  1  0  0  0
 42112  1  0  0  0
 42113  1  0  0  0
 43 44  1  0  0  0
 44114  1  0  0  0
 45 46  2  0  0  0
 45115  1  0  0  0
 46116  1  0  0  0
 47117  1  0  0  0
 47118  1  0  0  0
 48 56  1  0  0  0
 48 65  1  0  0  0
 48119  1  0  0  0
 49 50  1  0  0  0
 49 53  1  0  0  0
 49 64  1  0  0  0
 49120  1  0  0  0
 50 51  1  0  0  0
 50121  1  0  0  0
 50122  1  0  0  0
 51 52  1  0  0  0
 51123  1  0  0  0
 51124  1  0  0  0
 52125  1  0  0  0
 52126  1  0  0  0
 53 54  1  0  0  0
 54 55  2  0  0  0
 54127  1  0  0  0
 55 57  1  0  0  0
 55128  1  0  0  0
 56 69  2  0  0  0
 57 58  2  0  0  0
 57129  1  0  0  0
 58130  1  0  0  0
 59 60  1  0  0  0
 59 61  1  0  0  0
 59 62  1  0  0  0
 60131  1  0  0  0
 60132  1  0  0  0
 60133  1  0  0  0
 61134  1  0  0  0
 61135  1  0  0  0
 61136  1  0  0  0
 62137  1  0  0  0
 62138  1  0  0  0
 62139  1  0  0  0
 63 65  1  0  0  0
 63140  1  0  0  0
 63141  1  0  0  0
 63142  1  0  0  0
 64143  1  0  0  0
 65144  1  0  0  0
 68 82  1  0  0  0
 71 72  2  0  0  0
 71 74  1  0  0  0
 71145  1  0  0  0
 72 76  1  0  0  0
 72146  1  0  0  0
 73 75  1  0  0  0
 73 76  2  0  0  0
 73147  1  0  0  0
 74 75  2  0  0  0
 74 80  1  0  0  0
 75 78  1  0  0  0
 76 83  1  0  0  0
 77 83  1  0  0  0
 77 85  2  0  0  0
 77148  1  0  0  0
 78 79  1  0  0  0
 78149  1  0  0  0
 78150  1  0  0  0
 79 80  1  0  0  0
 79151  1  0  0  0
 79152  1  0  0  0
 80 84  1  0  0  0
 80153  1  0  0  0
 81 82  1  0  0  0
 81 85  1  0  0  0
 81154  1  0  0  0
 81155  1  0  0  0
 82156  1  0  0  0
 82157  1  0  0  0
 83158  1  0  0  0
 84159  1  0  0  0
 85160  1  0  0  0
M  CHG  1  85   1
M  ISO  4   1 100  68 101  82 101  84 100
M  END
> <chiral flag>
0

> <version>
0

> <s_m_source_file>
/data/baiqing/PycharmProjects/Reinvent-master-3.2/result/LINK_invent/BTK/process_docking_weight1_custom_product_contain_oxygen_bond_distance_aromatic_linkinvent_7_9_3/rearranged_h_0154.sdf

> <i_m_source_file_index>
28

> <r_mmod_Potential_Energy-OPLS-2005>
-132.179626464844

> <r_mmod_Stretch_Energy-OPLS-2005>
38.482967376709

> <r_mmod_Bend_Energy-OPLS-2005>
155.510681152344

> <r_mmod_Torsional_Energy-OPLS-2005>
207.0634765625

> <r_mmod_Improper_Torsional_Energy-OPLS-2005>
5.28394842147827

> <r_mmod_Van_der_Waal_Energy-OPLS-2005>
150.341201782227

> <r_mmod_Electrostatic_Energy-OPLS-2005>
-272.928649902344

> <r_mmod_Solvation_Energy-OPLS-2005>
-429.581634521484

> <b_mmod_Minimization_Converged-OPLS-2005>
0

> <r_mmod_RMS_Derivative-OPLS-2005>
5.14778232574463

$$$$
28
                    3D
 Structure written by MMmdl.
154163  0  0  1  0            999 V2000
  -30.5595  -14.8558   20.4412 C   0  0  0  0  0  0
  -30.4410  -12.5248   19.4912 C   0  0  0  0  0  0
  -29.5191  -12.5197   18.2497 C   0  0  0  0  0  0
  -28.0483  -12.3214   18.6639 C   0  0  0  0  0  0
  -27.6373  -13.2374   19.8470 C   0  0  2  0  0  0
  -28.6790  -13.2122   20.9864 C   0  0  0  0  0  0
  -25.2492  -13.8198   20.5692 C   0  0  0  0  0  0
  -24.1795  -13.0442   20.9218 C   0  0  0  0  0  0
  -24.6393  -11.6921   20.8753 C   0  0  0  0  0  0
  -23.9073  -10.4294   21.0409 C   0  0  0  0  0  0
  -24.3625   -9.4207   21.9184 C   0  0  0  0  0  0
  -23.6297   -8.2242   22.0753 C   0  0  0  0  0  0
  -22.4278   -8.0282   21.3545 C   0  0  0  0  0  0
  -21.9916   -9.0257   20.4648 C   0  0  0  0  0  0
  -22.7246  -10.2134   20.3058 C   0  0  0  0  0  0
  -21.6854   -6.0738   22.5280 C   0  0  0  0  0  0
  -21.4012   -6.5642   23.8215 C   0  0  0  0  0  0
  -21.3658   -5.6793   24.9176 C   0  0  0  0  0  0
  -21.6043   -4.3057   24.7224 C   0  0  0  0  0  0
  -21.8819   -3.8149   23.4346 C   0  0  0  0  0  0
  -21.9192   -4.6965   22.3404 C   0  0  0  0  0  0
  -22.7817  -13.5220   21.1876 C   0  0  0  0  0  0
  -22.1662   -4.2153   21.0980 F   0  0  0  0  0  0
  -21.5628   -3.4538   25.7736 F   0  0  0  0  0  0
  -29.9692  -13.6011   20.4027 N   0  0  0  0  0  0
  -26.2914  -12.9412   20.3257 N   0  0  0  0  0  0
  -25.9323  -11.6551   20.5743 N   0  0  0  0  0  0
  -22.0464  -12.8209   22.0433 N   0  0  0  0  0  0
  -25.4177  -15.1923   20.4094 N   0  0  0  0  0  0
  -31.7520  -14.9473   20.1275 O   0  0  0  0  0  0
  -21.6643   -6.8881   21.4242 O   0  0  0  0  0  0
  -22.3504  -14.5526   20.6723 O   0  0  0  0  0  0
  -24.6392  -31.8489   23.1927 C   0  0  0  0  0  0
  -25.9184  -32.4721   23.8295 C   0  0  1  0  0  0
  -27.2141  -27.1808   20.1455 C   0  0  0  0  0  0
  -25.5958  -33.8525   24.2217 N   0  0  0  0  0  0
  -23.4403  -30.4709   21.5375 C   0  0  2  0  0  0
  -24.8884  -28.9077   20.1090 C   0  0  0  0  0  0
  -22.7546  -29.4578   22.4878 C   0  0  0  0  0  0
  -18.0305  -28.1396   22.8487 C   0  0  0  0  0  0
  -24.1488  -36.7255   23.2643 C   0  0  0  0  0  0
  -25.9939  -30.7365   21.3858 C   0  0  0  0  0  0
  -26.0645  -29.3532   20.7257 C   0  0  0  0  0  0
  -27.2298  -28.5053   20.7283 C   0  0  0  0  0  0
  -26.0133  -26.8304   19.4869 C   0  0  0  0  0  0
  -24.8731  -27.6580   19.4747 C   0  0  0  0  0  0
  -23.6633  -29.8044   20.1547 C   0  0  0  0  0  0
  -25.4122  -36.3047   24.0323 C   0  0  1  0  0  0
  -20.5912  -28.3719   23.1250 C   0  0  2  0  0  0
  -20.6789  -26.9425   22.5411 C   0  0  0  0  0  0
  -19.5762  -26.6384   21.5219 C   0  0  0  0  0  0
  -18.1942  -26.7939   22.1623 C   0  0  0  0  0  0
  -19.1560  -28.8875   23.2863 C   0  0  0  0  0  0
  -18.9478  -30.1473   23.8884 C   0  0  0  0  0  0
  -17.6477  -30.6595   24.0565 C   0  0  0  0  0  0
  -25.9072  -34.9423   23.5075 C   0  0  0  0  0  0
  -16.5366  -29.9091   23.6342 C   0  0  0  0  0  0
  -16.7289  -28.6507   23.0364 C   0  0  0  0  0  0
  -26.4520  -31.6578   25.0722 C   0  0  0  0  0  0
  -25.3720  -31.3765   26.1430 C   0  0  0  0  0  0
  -27.0378  -30.2980   24.6275 C   0  0  0  0  0  0
  -27.6067  -32.4333   25.7495 C   0  0  0  0  0  0
  -27.5574  -37.1786   24.8472 C   0  0  0  0  0  0
  -21.4242  -29.3045   22.3621 N   0  0  0  0  0  0
  -26.4292  -37.3755   23.9410 N   0  0  0  0  0  0
  -24.7106  -31.0389   22.0935 N   0  0  0  0  0  0
  -23.4213  -28.8128   23.3013 O   0  0  0  0  0  0
  -28.2710  -26.2139   20.2254 O   0  0  0  0  0  0
  -26.5647  -34.8914   22.4646 O   0  0  0  0  0  0
  -23.5520  -32.1346   23.7175 O   0  0  0  0  0  0
  -29.1200  -18.4915   20.7263 C   0  0  0  0  0  0
  -29.7648  -19.7800   20.3845 C   0  0  0  0  0  0
  -31.0098  -19.3071   19.9672 C   0  0  0  0  0  0
  -29.9676  -17.3914   20.4818 C   0  0  0  0  0  0
  -32.2486  -19.9928   19.5842 C   0  0  0  0  0  0
  -29.5870  -22.3417   19.5508 C   0  0  0  0  0  0
  -28.8963  -23.4098   20.5267 C   0  0  1  0  0  0
  -33.3192  -19.1710   18.8775 C   0  0  0  0  0  0
  -27.9573  -24.7112   20.0919 C   0  0  0  0  0  0
  -28.2146  -22.1901   21.0775 N   0  0  0  0  0  0
  -29.3008  -21.2329   20.4992 N   0  0  0  0  0  0
  -29.7552  -15.9920   20.6576 N   0  0  0  0  0  0
  -32.4838  -21.1754   19.8406 O   0  0  0  0  0  0
  -31.1141  -17.9174   19.9978 O   0  0  0  0  0  0
  -31.4776  -12.6729   19.1839 H   0  0  0  0  0  0
  -30.4163  -11.5580   19.9963 H   0  0  0  0  0  0
  -29.8222  -11.7336   17.5568 H   0  0  0  0  0  0
  -29.6241  -13.4615   17.7085 H   0  0  0  0  0  0
  -27.9268  -11.2759   18.9498 H   0  0  0  0  0  0
  -27.3876  -12.4807   17.8107 H   0  0  0  0  0  0
  -27.6177  -14.2501   19.4435 H   0  0  0  0  0  0
  -28.7404  -12.2215   21.4385 H   0  0  0  0  0  0
  -28.3914  -13.8956   21.7867 H   0  0  0  0  0  0
  -25.2771   -9.5682   22.4760 H   0  0  0  0  0  0
  -24.0010   -7.4630   22.7468 H   0  0  0  0  0  0
  -21.0850   -8.8777   19.8952 H   0  0  0  0  0  0
  -22.3706  -10.9676   19.6168 H   0  0  0  0  0  0
  -21.2005   -7.6149   23.9719 H   0  0  0  0  0  0
  -21.1478   -6.0522   25.9079 H   0  0  0  0  0  0
  -22.0598   -2.7610   23.2843 H   0  0  0  0  0  0
  -22.4085  -11.9873   22.4822 H   0  0  0  0  0  0
  -21.1084  -13.1232   22.2639 H   0  0  0  0  0  0
  -24.6442  -15.8412   20.5080 H   0  0  0  0  0  0
  -26.2526  -15.6290   20.0409 H   0  0  0  0  0  0
  -26.7253  -32.5338   23.1028 H   0  0  0  0  0  0
  -25.0107  -33.9651   25.0365 H   0  0  0  0  0  0
  -22.7410  -31.2961   21.3870 H   0  0  0  0  0  0
  -23.3758  -35.9582   23.3323 H   0  0  0  0  0  0
  -24.3566  -36.8862   22.2054 H   0  0  0  0  0  0
  -23.7240  -37.6458   23.6661 H   0  0  0  0  0  0
  -26.1481  -31.4946   20.6168 H   0  0  0  0  0  0
  -26.8652  -30.7821   22.0274 H   0  0  0  0  0  0
  -28.1251  -28.8401   21.2331 H   0  0  0  0  0  0
  -25.9160  -25.8768   18.9907 H   0  0  0  0  0  0
  -23.9751  -27.3137   18.9799 H   0  0  0  0  0  0
  -23.7960  -30.5809   19.4006 H   0  0  0  0  0  0
  -22.7791  -29.2443   19.8450 H   0  0  0  0  0  0
  -25.1309  -36.1880   25.0816 H   0  0  0  0  0  0
  -21.0008  -28.3303   24.1369 H   0  0  0  0  0  0
  -20.5689  -26.2329   23.3628 H   0  0  0  0  0  0
  -21.6657  -26.7439   22.1201 H   0  0  0  0  0  0
  -19.6928  -25.6293   21.1257 H   0  0  0  0  0  0
  -19.6705  -27.3190   20.6747 H   0  0  0  0  0  0
  -17.4217  -26.6702   21.4019 H   0  0  0  0  0  0
  -18.0329  -26.0080   22.9013 H   0  0  0  0  0  0
  -19.7953  -30.7296   24.2241 H   0  0  0  0  0  0
  -17.5031  -31.6273   24.5169 H   0  0  0  0  0  0
  -15.5366  -30.2990   23.7677 H   0  0  0  0  0  0
  -15.8685  -28.0822   22.7089 H   0  0  0  0  0  0
  -24.5904  -30.7100   25.7762 H   0  0  0  0  0  0
  -24.8902  -32.2949   26.4795 H   0  0  0  0  0  0
  -25.8016  -30.8985   27.0244 H   0  0  0  0  0  0
  -26.2986  -29.6710   24.1277 H   0  0  0  0  0  0
  -27.4005  -29.7264   25.4828 H   0  0  0  0  0  0
  -27.8890  -30.4228   23.9579 H   0  0  0  0  0  0
  -27.2675  -33.3652   26.2025 H   0  0  0  0  0  0
  -28.3897  -32.6859   25.0334 H   0  0  0  0  0  0
  -28.0715  -31.8489   26.5443 H   0  0  0  0  0  0
  -28.2607  -38.0065   24.7490 H   0  0  0  0  0  0
  -28.1050  -36.2596   24.6329 H   0  0  0  0  0  0
  -27.2293  -37.1473   25.8876 H   0  0  0  0  0  0
  -20.9448  -29.8748   21.6794 H   0  0  0  0  0  0
  -26.0161  -38.2826   24.1405 H   0  0  0  0  0  0
  -28.1197  -18.3935   21.1236 H   0  0  0  0  0  0
  -30.6353  -22.5643   19.3741 H   0  0  0  0  0  0
  -29.0546  -22.2209   18.6056 H   0  0  0  0  0  0
  -29.6273  -23.7209   21.2748 H   0  0  0  0  0  0
  -32.9261  -18.7722   17.9429 H   0  0  0  0  0  0
  -33.6323  -18.3380   19.5063 H   0  0  0  0  0  0
  -34.1916  -19.7850   18.6561 H   0  0  0  0  0  0
  -27.0229  -24.5879   20.6408 H   0  0  0  0  0  0
  -27.6840  -24.5583   19.0481 H   0  0  0  0  0  0
  -27.3438  -22.0345   20.5704 H   0  0  0  0  0  0
  -28.8172  -15.7511   20.9377 H   0  0  0  0  0  0
  1 25  1  0  0  0
  1 30  2  0  0  0
  1 82  1  0  0  0
  2  3  1  0  0  0
  2 25  1  0  0  0
  2 85  1  0  0  0
  2 86  1  0  0  0
  3  4  1  0  0  0
  3 87  1  0  0  0
  3 88  1  0  0  0
  4  5  1  0  0  0
  4 89  1  0  0  0
  4 90  1  0  0  0
  5  6  1  0  0  0
  5 26  1  0  0  0
  5 91  1  0  0  0
  6 25  1  0  0  0
  6 92  1  0  0  0
  6 93  1  0  0  0
  7  8  2  0  0  0
  7 26  1  0  0  0
  7 29  1  0  0  0
  8  9  1  0  0  0
  8 22  1  0  0  0
  9 10  1  0  0  0
  9 27  2  0  0  0
 10 11  2  0  0  0
 10 15  1  0  0  0
 11 12  1  0  0  0
 11 94  1  0  0  0
 12 13  2  0  0  0
 12 95  1  0  0  0
 13 14  1  0  0  0
 13 31  1  0  0  0
 14 15  2  0  0  0
 14 96  1  0  0  0
 15 97  1  0  0  0
 16 17  2  0  0  0
 16 21  1  0  0  0
 16 31  1  0  0  0
 17 18  1  0  0  0
 17 98  1  0  0  0
 18 19  2  0  0  0
 18 99  1  0  0  0
 19 20  1  0  0  0
 19 24  1  0  0  0
 20 21  2  0  0  0
 20100  1  0  0  0
 21 23  1  0  0  0
 22 28  1  0  0  0
 22 32  2  0  0  0
 26 27  1  0  0  0
 28101  1  0  0  0
 28102  1  0  0  0
 29103  1  0  0  0
 29104  1  0  0  0
 33 34  1  0  0  0
 33 66  1  0  0  0
 33 70  2  0  0  0
 34 36  1  0  0  0
 34 59  1  0  0  0
 34105  1  0  0  0
 35 44  2  0  0  0
 35 45  1  0  0  0
 35 68  1  0  0  0
 36 56  1  0  0  0
 36106  1  0  0  0
 37 39  1  0  0  0
 37 47  1  0  0  0
 37 66  1  0  0  0
 37107  1  0  0  0
 38 43  2  0  0  0
 38 46  1  0  0  0
 38 47  1  0  0  0
 39 64  1  0  0  0
 39 67  2  0  0  0
 40 52  1  0  0  0
 40 53  2  0  0  0
 40 58  1  0  0  0
 41108  1  0  0  0
 41109  1  0  0  0
 41110  1  0  0  0
 41 48  1  0  0  0
 42 43  1  0  0  0
 42 66  1  0  0  0
 42111  1  0  0  0
 42112  1  0  0  0
 43 44  1  0  0  0
 44113  1  0  0  0
 45 46  2  0  0  0
 45114  1  0  0  0
 46115  1  0  0  0
 47116  1  0  0  0
 47117  1  0  0  0
 48 56  1  0  0  0
 48 65  1  0  0  0
 48118  1  0  0  0
 49 50  1  0  0  0
 49 53  1  0  0  0
 49 64  1  0  0  0
 49119  1  0  0  0
 50 51  1  0  0  0
 50120  1  0  0  0
 50121  1  0  0  0
 51 52  1  0  0  0
 51122  1  0  0  0
 51123  1  0  0  0
 52124  1  0  0  0
 52125  1  0  0  0
 53 54  1  0  0  0
 54 55  2  0  0  0
 54126  1  0  0  0
 55 57  1  0  0  0
 55127  1  0  0  0
 56 69  2  0  0  0
 57 58  2  0  0  0
 57128  1  0  0  0
 58129  1  0  0  0
 59 60  1  0  0  0
 59 61  1  0  0  0
 59 62  1  0  0  0
 60130  1  0  0  0
 60131  1  0  0  0
 60132  1  0  0  0
 61133  1  0  0  0
 61134  1  0  0  0
 61135  1  0  0  0
 62136  1  0  0  0
 62137  1  0  0  0
 62138  1  0  0  0
 63 65  1  0  0  0
 63139  1  0  0  0
 63140  1  0  0  0
 63141  1  0  0  0
 64142  1  0  0  0
 65143  1  0  0  0
 68 79  1  0  0  0
 71 72  1  0  0  0
 71 74  2  0  0  0
 71144  1  0  0  0
 72 73  2  0  0  0
 72 81  1  0  0  0
 73 75  1  0  0  0
 73 84  1  0  0  0
 74 82  1  0  0  0
 74 84  1  0  0  0
 75 78  1  0  0  0
 75 83  2  0  0  0
 76 77  1  0  0  0
 76 81  1  0  0  0
 76145  1  0  0  0
 76146  1  0  0  0
 77 79  1  0  0  0
 77 80  1  0  0  0
 77147  1  0  0  0
 78148  1  0  0  0
 78149  1  0  0  0
 78150  1  0  0  0
 79151  1  0  0  0
 79152  1  0  0  0
 80 81  1  0  0  0
 80153  1  0  0  0
 82154  1  0  0  0
M  ISO  4   1 100  68 101  79 101  82 100
M  END
> <chiral flag>
0

> <version>
0

> <s_m_source_file>
/data/baiqing/PycharmProjects/Reinvent-master-3.2/result/LINK_invent/BTK/process_docking_weight1_custom_product_contain_oxygen_bond_distance_aromatic_linkinvent_7_9_3/rearranged_h_0154.sdf

> <i_m_source_file_index>
29

> <r_mmod_Potential_Energy-OPLS-2005>
357.1904296875

> <r_mmod_Stretch_Energy-OPLS-2005>
177.565063476562

> <r_mmod_Bend_Energy-OPLS-2005>
245.699325561523

> <r_mmod_Torsional_Energy-OPLS-2005>
243.306564331055

> <r_mmod_Improper_Torsional_Energy-OPLS-2005>
6.07516574859619

> <r_mmod_Van_der_Waal_Energy-OPLS-2005>
117.838226318359

> <r_mmod_Electrostatic_Energy-OPLS-2005>
-330.454895019531

> <r_mmod_Solvation_Energy-OPLS-2005>
-246.668029785156

> <b_mmod_Minimization_Converged-OPLS-2005>
0

> <r_mmod_RMS_Derivative-OPLS-2005>
0.81140524148941

$$$$
29
                    3D
 Structure written by MMmdl.
151160  0  0  1  0            999 V2000
  -30.5385  -15.1383   20.3898 C   0  0  0  0  0  0
  -30.4520  -12.7268   19.4971 C   0  0  0  0  0  0
  -29.5387  -12.5583   18.2609 C   0  0  0  0  0  0
  -28.0862  -12.2803   18.6899 C   0  0  0  0  0  0
  -27.6296  -13.2301   19.8230 C   0  0  2  0  0  0
  -28.6808  -13.3723   20.9507 C   0  0  0  0  0  0
  -25.2533  -13.7994   20.5682 C   0  0  0  0  0  0
  -24.1830  -13.0290   20.9176 C   0  0  0  0  0  0
  -24.6434  -11.6793   20.8712 C   0  0  0  0  0  0
  -23.9096  -10.4205   21.0364 C   0  0  0  0  0  0
  -24.3659   -9.4145   21.9152 C   0  0  0  0  0  0
  -23.6312   -8.2218   22.0741 C   0  0  0  0  0  0
  -22.4279   -8.0270   21.3523 C   0  0  0  0  0  0
  -21.9922   -9.0241   20.4626 C   0  0  0  0  0  0
  -22.7265  -10.2102   20.3012 C   0  0  0  0  0  0
  -21.6850   -6.0740   22.5279 C   0  0  0  0  0  0
  -21.4007   -6.5632   23.8220 C   0  0  0  0  0  0
  -21.3658   -5.6774   24.9168 C   0  0  0  0  0  0
  -21.6063   -4.3042   24.7213 C   0  0  0  0  0  0
  -21.8825   -3.8150   23.4332 C   0  0  0  0  0  0
  -21.9213   -4.6979   22.3392 C   0  0  0  0  0  0
  -22.7850  -13.5132   21.1817 C   0  0  0  0  0  0
  -22.1664   -4.2182   21.0972 F   0  0  0  0  0  0
  -21.5652   -3.4512   25.7719 F   0  0  0  0  0  0
  -29.9201  -13.8643   20.3222 N   0  0  0  0  0  0
  -26.2944  -12.9237   20.3188 N   0  0  0  0  0  0
  -25.9390  -11.6404   20.5741 N   0  0  0  0  0  0
  -22.0479  -12.8166   22.0385 N   0  0  0  0  0  0
  -25.4254  -15.1670   20.4265 N   0  0  0  0  0  0
  -31.7608  -15.1074   20.1823 O   0  0  0  0  0  0
  -21.6623   -6.8871   21.4238 O   0  0  0  0  0  0
  -22.3554  -14.5436   20.6634 O   0  0  0  0  0  0
  -24.6497  -31.8376   23.1837 C   0  0  0  0  0  0
  -25.9231  -32.4676   23.8257 C   0  0  1  0  0  0
  -27.2297  -27.0724   20.1569 C   0  0  0  0  0  0
  -25.5944  -33.8492   24.2180 N   0  0  0  0  0  0
  -23.4586  -30.4475   21.5341 C   0  0  2  0  0  0
  -24.9094  -28.8653   20.1085 C   0  0  0  0  0  0
  -22.7616  -29.4471   22.4899 C   0  0  0  0  0  0
  -18.0285  -28.1393   22.8503 C   0  0  0  0  0  0
  -24.1469  -36.7223   23.2647 C   0  0  0  0  0  0
  -26.0176  -30.6874   21.3939 C   0  0  0  0  0  0
  -26.0856  -29.2922   20.7345 C   0  0  0  0  0  0
  -27.2380  -28.4116   20.7419 C   0  0  0  0  0  0
  -26.0238  -26.7557   19.4900 C   0  0  0  0  0  0
  -24.8951  -27.6129   19.4706 C   0  0  0  0  0  0
  -23.6865  -29.7742   20.1536 C   0  0  0  0  0  0
  -25.4114  -36.3037   24.0326 C   0  0  1  0  0  0
  -20.5914  -28.3715   23.1280 C   0  0  2  0  0  0
  -20.6773  -26.9412   22.5461 C   0  0  0  0  0  0
  -19.5755  -26.6383   21.5257 C   0  0  0  0  0  0
  -18.1916  -26.7944   22.1621 C   0  0  0  0  0  0
  -19.1549  -28.8885   23.2875 C   0  0  0  0  0  0
  -18.9459  -30.1486   23.8896 C   0  0  0  0  0  0
  -17.6451  -30.6607   24.0553 C   0  0  0  0  0  0
  -25.9073  -34.9409   23.5071 C   0  0  0  0  0  0
  -16.5340  -29.9090   23.6345 C   0  0  0  0  0  0
  -16.7269  -28.6494   23.0413 C   0  0  0  0  0  0
  -26.4535  -31.6570   25.0734 C   0  0  0  0  0  0
  -25.3692  -31.3805   26.1415 C   0  0  0  0  0  0
  -27.0391  -30.2951   24.6352 C   0  0  0  0  0  0
  -27.6070  -32.4352   25.7504 C   0  0  0  0  0  0
  -27.5602  -37.1745   24.8454 C   0  0  0  0  0  0
  -21.4295  -29.3012   22.3655 N   0  0  0  0  0  0
  -26.4264  -37.3775   23.9456 N   0  0  0  0  0  0
  -24.7285  -31.0152   22.0915 N   0  0  0  0  0  0
  -23.4211  -28.8055   23.3114 O   0  0  0  0  0  0
  -28.2888  -26.0793   20.2926 O   0  0  0  0  0  0
  -26.5700  -34.8921   22.4680 O   0  0  0  0  0  0
  -23.5598  -32.1304   23.6983 O   0  0  0  0  0  0
  -28.0757  -18.1403   20.6656 C   0  0  0  0  0  0
  -29.1227  -19.0792   20.4454 C   0  0  0  0  0  0
  -26.8529  -18.7046   20.8599 C   0  0  0  0  0  0
  -28.6569  -20.5077   20.4378 C   0  0  0  0  0  0
  -28.4309  -23.1690   20.5386 C   0  0  0  0  0  0
  -28.4120  -16.6513   20.6527 C   0  0  0  0  0  0
  -30.3159  -17.9598   20.3162 C   0  0  0  0  0  0
  -28.4052  -24.6221   19.6779 C   0  0  0  0  0  0
  -29.8522  -16.4338   20.4453 N   0  0  0  0  0  0
  -25.6302  -18.0943   21.0661 N   0  0  0  0  0  0
  -29.0428  -21.8967   20.1681 N   0  0  0  0  0  0
  -27.8495  -23.2284   21.6255 O   0  0  0  0  0  0
  -26.9266  -20.4260   20.7762 S   0  0  0  0  0  0
  -31.4775  -12.9125   19.1676 H   0  0  0  0  0  0
  -30.4965  -11.8039   20.0781 H   0  0  0  0  0  0
  -29.9066  -11.7522   17.6234 H   0  0  0  0  0  0
  -29.5813  -13.4677   17.6592 H   0  0  0  0  0  0
  -28.0259  -11.2418   19.0230 H   0  0  0  0  0  0
  -27.4209  -12.3642   17.8301 H   0  0  0  0  0  0
  -27.5447  -14.1886   19.3197 H   0  0  0  0  0  0
  -28.8468  -12.4233   21.4661 H   0  0  0  0  0  0
  -28.3441  -14.0642   21.7183 H   0  0  0  0  0  0
  -25.2821   -9.5629   22.4693 H   0  0  0  0  0  0
  -24.0041   -7.4596   22.7427 H   0  0  0  0  0  0
  -21.0878   -8.8735   19.8893 H   0  0  0  0  0  0
  -22.3735  -10.9644   19.6098 H   0  0  0  0  0  0
  -21.1950   -7.6121   23.9724 H   0  0  0  0  0  0
  -21.1478   -6.0485   25.9075 H   0  0  0  0  0  0
  -22.0613   -2.7611   23.2809 H   0  0  0  0  0  0
  -22.4142  -11.9872   22.4817 H   0  0  0  0  0  0
  -21.1041  -13.1105   22.2493 H   0  0  0  0  0  0
  -24.7133  -15.7522   20.8450 H   0  0  0  0  0  0
  -26.3566  -15.5466   20.5167 H   0  0  0  0  0  0
  -26.7295  -32.5253   23.0986 H   0  0  0  0  0  0
  -25.0027  -33.9592   25.0286 H   0  0  0  0  0  0
  -22.7624  -31.2733   21.3772 H   0  0  0  0  0  0
  -23.3803  -35.9468   23.3214 H   0  0  0  0  0  0
  -24.3566  -36.8958   22.2075 H   0  0  0  0  0  0
  -23.7093  -37.6337   23.6740 H   0  0  0  0  0  0
  -26.1833  -31.4351   20.6178 H   0  0  0  0  0  0
  -26.8832  -30.7378   22.0414 H   0  0  0  0  0  0
  -28.1319  -28.7331   21.2572 H   0  0  0  0  0  0
  -25.9046  -25.7925   19.0164 H   0  0  0  0  0  0
  -23.9952  -27.2798   18.9723 H   0  0  0  0  0  0
  -23.8245  -30.5495   19.3996 H   0  0  0  0  0  0
  -22.8005  -29.2170   19.8472 H   0  0  0  0  0  0
  -25.1282  -36.1861   25.0807 H   0  0  0  0  0  0
  -20.9956  -28.3291   24.1430 H   0  0  0  0  0  0
  -20.5687  -26.2315   23.3683 H   0  0  0  0  0  0
  -21.6644  -26.7437   22.1252 H   0  0  0  0  0  0
  -19.6920  -25.6292   21.1314 H   0  0  0  0  0  0
  -19.6717  -27.3197   20.6790 H   0  0  0  0  0  0
  -17.4219  -26.6775   21.3981 H   0  0  0  0  0  0
  -18.0229  -26.0068   22.8986 H   0  0  0  0  0  0
  -19.7919  -30.7314   24.2269 H   0  0  0  0  0  0
  -17.4987  -31.6294   24.5135 H   0  0  0  0  0  0
  -15.5345  -30.2993   23.7667 H   0  0  0  0  0  0
  -15.8667  -28.0791   22.7196 H   0  0  0  0  0  0
  -24.5838  -30.7203   25.7731 H   0  0  0  0  0  0
  -24.8924  -32.3006   26.4806 H   0  0  0  0  0  0
  -25.7921  -30.8980   27.0234 H   0  0  0  0  0  0
  -26.3027  -29.6699   24.1295 H   0  0  0  0  0  0
  -27.3917  -29.7240   25.4955 H   0  0  0  0  0  0
  -27.8974  -30.4206   23.9749 H   0  0  0  0  0  0
  -27.2676  -33.3676   26.2041 H   0  0  0  0  0  0
  -28.3887  -32.6878   25.0326 H   0  0  0  0  0  0
  -28.0739  -31.8506   26.5453 H   0  0  0  0  0  0
  -28.2534  -38.0133   24.7656 H   0  0  0  0  0  0
  -28.1182  -36.2680   24.6061 H   0  0  0  0  0  0
  -27.2366  -37.1127   25.8861 H   0  0  0  0  0  0
  -20.9533  -29.8651   21.6751 H   0  0  0  0  0  0
  -26.0135  -38.2814   24.1570 H   0  0  0  0  0  0
  -27.8730  -16.1911   19.8324 H   0  0  0  0  0  0
  -28.0927  -16.2042   21.5922 H   0  0  0  0  0  0
  -31.0610  -18.1219   21.0985 H   0  0  0  0  0  0
  -30.8622  -18.0732   19.3798 H   0  0  0  0  0  0
  -27.6272  -24.5146   18.9243 H   0  0  0  0  0  0
  -29.3341  -24.6282   19.1084 H   0  0  0  0  0  0
  -25.4682  -17.3007   20.4551 H   0  0  0  0  0  0
  -24.8327  -18.7224   21.0131 H   0  0  0  0  0  0
  -29.7440  -22.0062   19.4459 H   0  0  0  0  0  0
  1 25  1  0  0  0
  1 30  2  0  0  0
  1 79  1  0  0  0
  2  3  1  0  0  0
  2 25  1  0  0  0
  2 84  1  0  0  0
  2 85  1  0  0  0
  3  4  1  0  0  0
  3 86  1  0  0  0
  3 87  1  0  0  0
  4  5  1  0  0  0
  4 88  1  0  0  0
  4 89  1  0  0  0
  5  6  1  0  0  0
  5 26  1  0  0  0
  5 90  1  0  0  0
  6 25  1  0  0  0
  6 91  1  0  0  0
  6 92  1  0  0  0
  7  8  2  0  0  0
  7 26  1  0  0  0
  7 29  1  0  0  0
  8  9  1  0  0  0
  8 22  1  0  0  0
  9 10  1  0  0  0
  9 27  2  0  0  0
 10 11  2  0  0  0
 10 15  1  0  0  0
 11 12  1  0  0  0
 11 93  1  0  0  0
 12 13  2  0  0  0
 12 94  1  0  0  0
 13 14  1  0  0  0
 13 31  1  0  0  0
 14 15  2  0  0  0
 14 95  1  0  0  0
 15 96  1  0  0  0
 16 17  2  0  0  0
 16 21  1  0  0  0
 16 31  1  0  0  0
 17 18  1  0  0  0
 17 97  1  0  0  0
 18 19  2  0  0  0
 18 98  1  0  0  0
 19 20  1  0  0  0
 19 24  1  0  0  0
 20 21  2  0  0  0
 20 99  1  0  0  0
 21 23  1  0  0  0
 22 28  1  0  0  0
 22 32  2  0  0  0
 26 27  1  0  0  0
 28100  1  0  0  0
 28101  1  0  0  0
 29102  1  0  0  0
 29103  1  0  0  0
 33 34  1  0  0  0
 33 66  1  0  0  0
 33 70  2  0  0  0
 34 36  1  0  0  0
 34 59  1  0  0  0
 34104  1  0  0  0
 35 44  2  0  0  0
 35 45  1  0  0  0
 35 68  1  0  0  0
 36 56  1  0  0  0
 36105  1  0  0  0
 37 39  1  0  0  0
 37 47  1  0  0  0
 37 66  1  0  0  0
 37106  1  0  0  0
 38 43  2  0  0  0
 38 46  1  0  0  0
 38 47  1  0  0  0
 39 64  1  0  0  0
 39 67  2  0  0  0
 40 52  1  0  0  0
 40 53  2  0  0  0
 40 58  1  0  0  0
 41107  1  0  0  0
 41108  1  0  0  0
 41109  1  0  0  0
 41 48  1  0  0  0
 42 43  1  0  0  0
 42 66  1  0  0  0
 42110  1  0  0  0
 42111  1  0  0  0
 43 44  1  0  0  0
 44112  1  0  0  0
 45 46  2  0  0  0
 45113  1  0  0  0
 46114  1  0  0  0
 47115  1  0  0  0
 47116  1  0  0  0
 48 56  1  0  0  0
 48 65  1  0  0  0
 48117  1  0  0  0
 49 50  1  0  0  0
 49 53  1  0  0  0
 49 64  1  0  0  0
 49118  1  0  0  0
 50 51  1  0  0  0
 50119  1  0  0  0
 50120  1  0  0  0
 51 52  1  0  0  0
 51121  1  0  0  0
 51122  1  0  0  0
 52123  1  0  0  0
 52124  1  0  0  0
 53 54  1  0  0  0
 54 55  2  0  0  0
 54125  1  0  0  0
 55 57  1  0  0  0
 55126  1  0  0  0
 56 69  2  0  0  0
 57 58  2  0  0  0
 57127  1  0  0  0
 58128  1  0  0  0
 59 60  1  0  0  0
 59 61  1  0  0  0
 59 62  1  0  0  0
 60129  1  0  0  0
 60130  1  0  0  0
 60131  1  0  0  0
 61132  1  0  0  0
 61133  1  0  0  0
 61134  1  0  0  0
 62135  1  0  0  0
 62136  1  0  0  0
 62137  1  0  0  0
 63 65  1  0  0  0
 63138  1  0  0  0
 63139  1  0  0  0
 63140  1  0  0  0
 64141  1  0  0  0
 65142  1  0  0  0
 68 78  1  0  0  0
 71 72  1  0  0  0
 71 73  2  0  0  0
 71 76  1  0  0  0
 72 74  2  0  0  0
 72 77  1  0  0  0
 73 80  1  0  0  0
 73 83  1  0  0  0
 74 81  1  0  0  0
 74 83  1  0  0  0
 75 78  1  0  0  0
 75 81  1  0  0  0
 75 82  2  0  0  0
 76 79  1  0  0  0
 76143  1  0  0  0
 76144  1  0  0  0
 77 79  1  0  0  0
 77145  1  0  0  0
 77146  1  0  0  0
 78147  1  0  0  0
 78148  1  0  0  0
 80149  1  0  0  0
 80150  1  0  0  0
 81151  1  0  0  0
M  ISO  4   1 100  68 101  78 101  79 100
M  END
> <chiral flag>
0

> <version>
0

> <s_m_source_file>
/data/baiqing/PycharmProjects/Reinvent-master-3.2/result/LINK_invent/BTK/process_docking_weight1_custom_product_contain_oxygen_bond_distance_aromatic_linkinvent_7_9_3/rearranged_h_0154.sdf

> <i_m_source_file_index>
30

> <r_mmod_Potential_Energy-OPLS-2005>
910.480895996094

> <r_mmod_Stretch_Energy-OPLS-2005>
356.670745849609

> <r_mmod_Bend_Energy-OPLS-2005>
438.838684082031

> <r_mmod_Torsional_Energy-OPLS-2005>
269.134643554688

> <r_mmod_Improper_Torsional_Energy-OPLS-2005>
14.5682830810547

> <r_mmod_Van_der_Waal_Energy-OPLS-2005>
114.568550109863

> <r_mmod_Electrostatic_Energy-OPLS-2005>
-324.593933105469

> <r_mmod_Solvation_Energy-OPLS-2005>
-257.472595214844

> <b_mmod_Minimization_Converged-OPLS-2005>
0

> <r_mmod_RMS_Derivative-OPLS-2005>
4.58815479278564

$$$$
30
                    3D
 Structure written by MMmdl.
149158  0  0  1  0            999 V2000
  -30.5641  -14.9811   20.4183 C   0  0  0  0  0  0
  -30.4414  -12.6180   19.4852 C   0  0  0  0  0  0
  -29.5126  -12.5124   18.2538 C   0  0  0  0  0  0
  -28.0527  -12.2841   18.6873 C   0  0  0  0  0  0
  -27.6247  -13.2347   19.8318 C   0  0  2  0  0  0
  -28.6760  -13.2929   20.9631 C   0  0  0  0  0  0
  -25.2399  -13.8126   20.5691 C   0  0  0  0  0  0
  -24.1743  -13.0368   20.9279 C   0  0  0  0  0  0
  -24.6375  -11.6873   20.8815 C   0  0  0  0  0  0
  -23.9063  -10.4251   21.0445 C   0  0  0  0  0  0
  -24.3614   -9.4166   21.9212 C   0  0  0  0  0  0
  -23.6281   -8.2208   22.0762 C   0  0  0  0  0  0
  -22.4265   -8.0261   21.3549 C   0  0  0  0  0  0
  -21.9907   -9.0243   20.4656 C   0  0  0  0  0  0
  -22.7244  -10.2117   20.3077 C   0  0  0  0  0  0
  -21.6842   -6.0729   22.5282 C   0  0  0  0  0  0
  -21.4004   -6.5635   23.8217 C   0  0  0  0  0  0
  -21.3654   -5.6788   24.9180 C   0  0  0  0  0  0
  -21.6042   -4.3052   24.7229 C   0  0  0  0  0  0
  -21.8818   -3.8144   23.4352 C   0  0  0  0  0  0
  -21.9185   -4.6957   22.3406 C   0  0  0  0  0  0
  -22.7762  -13.5166   21.1909 C   0  0  0  0  0  0
  -22.1658   -4.2146   21.0981 F   0  0  0  0  0  0
  -21.5628   -3.4540   25.7738 F   0  0  0  0  0  0
  -29.9392  -13.7289   20.3498 N   0  0  0  0  0  0
  -26.2855  -12.9374   20.3253 N   0  0  0  0  0  0
  -25.9307  -11.6521   20.5807 N   0  0  0  0  0  0
  -22.0405  -12.8179   22.0471 N   0  0  0  0  0  0
  -25.3866  -15.1839   20.3968 N   0  0  0  0  0  0
  -31.7768  -14.9942   20.1782 O   0  0  0  0  0  0
  -21.6621   -6.8871   21.4240 O   0  0  0  0  0  0
  -22.3466  -14.5481   20.6740 O   0  0  0  0  0  0
  -24.6459  -31.8441   23.1872 C   0  0  0  0  0  0
  -25.9228  -32.4695   23.8267 C   0  0  1  0  0  0
  -27.2226  -27.1280   20.1516 C   0  0  0  0  0  0
  -25.5974  -33.8500   24.2187 N   0  0  0  0  0  0
  -23.4505  -30.4638   21.5318 C   0  0  2  0  0  0
  -24.9016  -28.8902   20.1110 C   0  0  0  0  0  0
  -22.7581  -29.4561   22.4843 C   0  0  0  0  0  0
  -18.0302  -28.1417   22.8486 C   0  0  0  0  0  0
  -24.1477  -36.7226   23.2646 C   0  0  0  0  0  0
  -26.0093  -30.7158   21.3875 C   0  0  0  0  0  0
  -26.0801  -29.3265   20.7294 C   0  0  0  0  0  0
  -27.2421  -28.4621   20.7312 C   0  0  0  0  0  0
  -26.0129  -26.7987   19.4965 C   0  0  0  0  0  0
  -24.8815  -27.6405   19.4794 C   0  0  0  0  0  0
  -23.6791  -29.7925   20.1518 C   0  0  0  0  0  0
  -25.4107  -36.3020   24.0327 C   0  0  1  0  0  0
  -20.5928  -28.3743   23.1228 C   0  0  2  0  0  0
  -20.6787  -26.9442   22.5403 C   0  0  0  0  0  0
  -19.5758  -26.6392   21.5226 C   0  0  0  0  0  0
  -18.1936  -26.7960   22.1625 C   0  0  0  0  0  0
  -19.1569  -28.8894   23.2853 C   0  0  0  0  0  0
  -18.9489  -30.1488   23.8883 C   0  0  0  0  0  0
  -17.6487  -30.6612   24.0572 C   0  0  0  0  0  0
  -25.9072  -34.9407   23.5056 C   0  0  0  0  0  0
  -16.5374  -29.9109   23.6352 C   0  0  0  0  0  0
  -16.7288  -28.6526   23.0377 C   0  0  0  0  0  0
  -26.4544  -31.6570   25.0719 C   0  0  0  0  0  0
  -25.3725  -31.3831   26.1421 C   0  0  0  0  0  0
  -27.0372  -30.2940   24.6316 C   0  0  0  0  0  0
  -27.6104  -32.4322   25.7464 C   0  0  0  0  0  0
  -27.5558  -37.1749   24.8474 C   0  0  0  0  0  0
  -21.4273  -29.3068   22.3595 N   0  0  0  0  0  0
  -26.4256  -37.3745   23.9438 N   0  0  0  0  0  0
  -24.7216  -31.0300   22.0902 N   0  0  0  0  0  0
  -23.4216  -28.8104   23.2998 O   0  0  0  0  0  0
  -28.2667  -26.1265   20.2217 O   0  0  0  0  0  0
  -26.5655  -34.8918   22.4631 O   0  0  0  0  0  0
  -23.5568  -32.1308   23.7083 O   0  0  0  0  0  0
  -31.0248  -18.7835   20.2138 C   0  0  0  0  0  0
  -30.5082  -20.1611   20.2034 C   0  0  0  0  0  0
  -28.2254  -19.4204   20.5732 C   0  0  0  0  0  0
  -28.7470  -18.0730   20.5956 C   0  0  0  0  0  0
  -30.1203  -17.6979   20.4132 C   0  0  0  0  0  0
  -29.1138  -20.5599   20.3680 C   0  0  0  0  0  0
  -28.9613  -23.3396   20.2977 C   0  0  0  0  0  0
  -28.3799  -16.5815   20.7109 C   0  0  0  0  0  0
  -27.9136  -24.6110   20.0694 C   0  0  0  0  0  0
  -29.8452  -16.2214   20.5162 N   0  0  0  0  0  0
  -28.5278  -21.9835   20.2768 N   0  0  0  0  0  0
  -30.1535  -23.5989   20.4817 O   0  0  0  0  0  0
  -31.4652  -12.7885   19.1496 H   0  0  0  0  0  0
  -30.4663  -11.6772   20.0365 H   0  0  0  0  0  0
  -29.8389  -11.6983   17.6045 H   0  0  0  0  0  0
  -29.5815  -13.4258   17.6604 H   0  0  0  0  0  0
  -27.9702  -11.2498   19.0248 H   0  0  0  0  0  0
  -27.3791  -12.3806   17.8347 H   0  0  0  0  0  0
  -27.5737  -14.2145   19.3651 H   0  0  0  0  0  0
  -28.7878  -12.3188   21.4420 H   0  0  0  0  0  0
  -28.3698  -13.9843   21.7480 H   0  0  0  0  0  0
  -25.2757   -9.5635   22.4794 H   0  0  0  0  0  0
  -23.9981   -7.4589   22.7472 H   0  0  0  0  0  0
  -21.0837   -8.8774   19.8954 H   0  0  0  0  0  0
  -22.3715  -10.9667   19.6189 H   0  0  0  0  0  0
  -21.1990   -7.6145   23.9717 H   0  0  0  0  0  0
  -21.1480   -6.0523   25.9082 H   0  0  0  0  0  0
  -22.0601   -2.7602   23.2850 H   0  0  0  0  0  0
  -22.4001  -11.9835   22.4870 H   0  0  0  0  0  0
  -21.1035  -13.1239   22.2692 H   0  0  0  0  0  0
  -24.5779  -15.7943   20.4496 H   0  0  0  0  0  0
  -26.1650  -15.6047   19.9113 H   0  0  0  0  0  0
  -26.7296  -32.5295   23.0999 H   0  0  0  0  0  0
  -25.0139  -33.9621   25.0347 H   0  0  0  0  0  0
  -22.7541  -31.2906   21.3736 H   0  0  0  0  0  0
  -23.3780  -35.9512   23.3252 H   0  0  0  0  0  0
  -24.3577  -36.8901   22.2071 H   0  0  0  0  0  0
  -23.7165  -37.6378   23.6711 H   0  0  0  0  0  0
  -26.1668  -31.4678   20.6133 H   0  0  0  0  0  0
  -26.8800  -30.7662   22.0291 H   0  0  0  0  0  0
  -28.1388  -28.7921   21.2364 H   0  0  0  0  0  0
  -25.8964  -25.8452   19.0056 H   0  0  0  0  0  0
  -23.9815  -27.3014   18.9848 H   0  0  0  0  0  0
  -23.8175  -30.5657   19.3953 H   0  0  0  0  0  0
  -22.7960  -29.2326   19.8390 H   0  0  0  0  0  0
  -25.1286  -36.1828   25.0814 H   0  0  0  0  0  0
  -21.0022  -28.3336   24.1348 H   0  0  0  0  0  0
  -20.5695  -26.2369   23.3634 H   0  0  0  0  0  0
  -21.6650  -26.7450   22.1187 H   0  0  0  0  0  0
  -19.6925  -25.6298   21.1262 H   0  0  0  0  0  0
  -19.6695  -27.3200   20.6758 H   0  0  0  0  0  0
  -17.4212  -26.6732   21.4022 H   0  0  0  0  0  0
  -18.0316  -26.0105   22.9017 H   0  0  0  0  0  0
  -19.7972  -30.7307   24.2242 H   0  0  0  0  0  0
  -17.5054  -31.6295   24.5172 H   0  0  0  0  0  0
  -15.5382  -30.3019   23.7700 H   0  0  0  0  0  0
  -15.8684  -28.0839   22.7123 H   0  0  0  0  0  0
  -24.5885  -30.7198   25.7762 H   0  0  0  0  0  0
  -24.8965  -32.3060   26.4747 H   0  0  0  0  0  0
  -25.7996  -30.9063   27.0250 H   0  0  0  0  0  0
  -26.2973  -29.6668   24.1335 H   0  0  0  0  0  0
  -27.3974  -29.7242   25.4890 H   0  0  0  0  0  0
  -27.8900  -30.4142   23.9634 H   0  0  0  0  0  0
  -27.2763  -33.3728   26.1843 H   0  0  0  0  0  0
  -28.4006  -32.6669   25.0328 H   0  0  0  0  0  0
  -28.0645  -31.8546   26.5515 H   0  0  0  0  0  0
  -28.2568  -38.0055   24.7528 H   0  0  0  0  0  0
  -28.1050  -36.2580   24.6270 H   0  0  0  0  0  0
  -27.2293  -37.1367   25.8885 H   0  0  0  0  0  0
  -20.9504  -29.8762   21.6746 H   0  0  0  0  0  0
  -26.0113  -38.2794   24.1498 H   0  0  0  0  0  0
  -32.0785  -18.5978   20.0566 H   0  0  0  0  0  0
  -31.2300  -20.9487   20.0332 H   0  0  0  0  0  0
  -27.1627  -19.5766   20.6960 H   0  0  0  0  0  0
  -27.7362  -16.3003   19.8822 H   0  0  0  0  0  0
  -27.9592  -16.3167   21.6819 H   0  0  0  0  0  0
  -27.0578  -24.4141   20.7158 H   0  0  0  0  0  0
  -27.5591  -24.4756   19.0487 H   0  0  0  0  0  0
  -27.5212  -21.9644   20.1788 H   0  0  0  0  0  0
  1 25  1  0  0  0
  1 30  2  0  0  0
  1 80  1  0  0  0
  2  3  1  0  0  0
  2 25  1  0  0  0
  2 83  1  0  0  0
  2 84  1  0  0  0
  3  4  1  0  0  0
  3 85  1  0  0  0
  3 86  1  0  0  0
  4  5  1  0  0  0
  4 87  1  0  0  0
  4 88  1  0  0  0
  5  6  1  0  0  0
  5 26  1  0  0  0
  5 89  1  0  0  0
  6 25  1  0  0  0
  6 90  1  0  0  0
  6 91  1  0  0  0
  7  8  2  0  0  0
  7 26  1  0  0  0
  7 29  1  0  0  0
  8  9  1  0  0  0
  8 22  1  0  0  0
  9 10  1  0  0  0
  9 27  2  0  0  0
 10 11  2  0  0  0
 10 15  1  0  0  0
 11 12  1  0  0  0
 11 92  1  0  0  0
 12 13  2  0  0  0
 12 93  1  0  0  0
 13 14  1  0  0  0
 13 31  1  0  0  0
 14 15  2  0  0  0
 14 94  1  0  0  0
 15 95  1  0  0  0
 16 17  2  0  0  0
 16 21  1  0  0  0
 16 31  1  0  0  0
 17 18  1  0  0  0
 17 96  1  0  0  0
 18 19  2  0  0  0
 18 97  1  0  0  0
 19 20  1  0  0  0
 19 24  1  0  0  0
 20 21  2  0  0  0
 20 98  1  0  0  0
 21 23  1  0  0  0
 22 28  1  0  0  0
 22 32  2  0  0  0
 26 27  1  0  0  0
 28 99  1  0  0  0
 28100  1  0  0  0
 29101  1  0  0  0
 29102  1  0  0  0
 33 34  1  0  0  0
 33 66  1  0  0  0
 33 70  2  0  0  0
 34 36  1  0  0  0
 34 59  1  0  0  0
 34103  1  0  0  0
 35 44  2  0  0  0
 35 45  1  0  0  0
 35 68  1  0  0  0
 36 56  1  0  0  0
 36104  1  0  0  0
 37 39  1  0  0  0
 37 47  1  0  0  0
 37 66  1  0  0  0
 37105  1  0  0  0
 38 43  2  0  0  0
 38 46  1  0  0  0
 38 47  1  0  0  0
 39 64  1  0  0  0
 39 67  2  0  0  0
 40 52  1  0  0  0
 40 53  2  0  0  0
 40 58  1  0  0  0
 41106  1  0  0  0
 41107  1  0  0  0
 41108  1  0  0  0
 41 48  1  0  0  0
 42 43  1  0  0  0
 42 66  1  0  0  0
 42109  1  0  0  0
 42110  1  0  0  0
 43 44  1  0  0  0
 44111  1  0  0  0
 45 46  2  0  0  0
 45112  1  0  0  0
 46113  1  0  0  0
 47114  1  0  0  0
 47115  1  0  0  0
 48 56  1  0  0  0
 48 65  1  0  0  0
 48116  1  0  0  0
 49 50  1  0  0  0
 49 53  1  0  0  0
 49 64  1  0  0  0
 49117  1  0  0  0
 50 51  1  0  0  0
 50118  1  0  0  0
 50119  1  0  0  0
 51 52  1  0  0  0
 51120  1  0  0  0
 51121  1  0  0  0
 52122  1  0  0  0
 52123  1  0  0  0
 53 54  1  0  0  0
 54 55  2  0  0  0
 54124  1  0  0  0
 55 57  1  0  0  0
 55125  1  0  0  0
 56 69  2  0  0  0
 57 58  2  0  0  0
 57126  1  0  0  0
 58127  1  0  0  0
 59 60  1  0  0  0
 59 61  1  0  0  0
 59 62  1  0  0  0
 60128  1  0  0  0
 60129  1  0  0  0
 60130  1  0  0  0
 61131  1  0  0  0
 61132  1  0  0  0
 61133  1  0  0  0
 62134  1  0  0  0
 62135  1  0  0  0
 62136  1  0  0  0
 63 65  1  0  0  0
 63137  1  0  0  0
 63138  1  0  0  0
 63139  1  0  0  0
 64140  1  0  0  0
 65141  1  0  0  0
 68 79  1  0  0  0
 71 72  2  0  0  0
 71 75  1  0  0  0
 71142  1  0  0  0
 72 76  1  0  0  0
 72143  1  0  0  0
 73 74  1  0  0  0
 73 76  2  0  0  0
 73144  1  0  0  0
 74 75  2  0  0  0
 74 78  1  0  0  0
 75 80  1  0  0  0
 76 81  1  0  0  0
 77 79  1  0  0  0
 77 81  1  0  0  0
 77 82  2  0  0  0
 78 80  1  0  0  0
 78145  1  0  0  0
 78146  1  0  0  0
 79147  1  0  0  0
 79148  1  0  0  0
 81149  1  0  0  0
M  ISO  4   1 100  68 101  79 101  80 100
M  END
> <chiral flag>
0

> <version>
0

> <s_m_source_file>
/data/baiqing/PycharmProjects/Reinvent-master-3.2/result/LINK_invent/BTK/process_docking_weight1_custom_product_contain_oxygen_bond_distance_aromatic_linkinvent_7_9_3/rearranged_h_0154.sdf

> <i_m_source_file_index>
31

> <r_mmod_Potential_Energy-OPLS-2005>
967.912841796875

> <r_mmod_Stretch_Energy-OPLS-2005>
250.132339477539

> <r_mmod_Bend_Energy-OPLS-2005>
686.131164550781

> <r_mmod_Torsional_Energy-OPLS-2005>
264.297912597656

> <r_mmod_Improper_Torsional_Energy-OPLS-2005>
6.35564279556274

> <r_mmod_Van_der_Waal_Energy-OPLS-2005>
126.378677368164

> <r_mmod_Electrostatic_Energy-OPLS-2005>
-334.158142089844

> <r_mmod_Solvation_Energy-OPLS-2005>
-240.042236328125

> <b_mmod_Minimization_Converged-OPLS-2005>
0

> <r_mmod_RMS_Derivative-OPLS-2005>
1.85176646709442

$$$$
31
                    3D
 Structure written by MMmdl.
158167  0  0  1  0            999 V2000
  -30.6155  -14.8082   20.4519 C   0  0  0  0  0  0
  -30.4215  -12.5040   19.4817 C   0  0  0  0  0  0
  -29.5008  -12.4842   18.2431 C   0  0  0  0  0  0
  -28.0280  -12.3095   18.6562 C   0  0  0  0  0  0
  -27.6221  -13.2360   19.8325 C   0  0  2  0  0  0
  -28.6662  -13.2439   20.9678 C   0  0  0  0  0  0
  -25.2468  -13.8221   20.5806 C   0  0  0  0  0  0
  -24.1744  -13.0448   20.9216 C   0  0  0  0  0  0
  -24.6325  -11.6923   20.8720 C   0  0  0  0  0  0
  -23.9011  -10.4304   21.0370 C   0  0  0  0  0  0
  -24.3593   -9.4241   21.9158 C   0  0  0  0  0  0
  -23.6281   -8.2269   22.0739 C   0  0  0  0  0  0
  -22.4260   -8.0282   21.3541 C   0  0  0  0  0  0
  -21.9873   -9.0230   20.4636 C   0  0  0  0  0  0
  -22.7178  -10.2130   20.3030 C   0  0  0  0  0  0
  -21.6872   -6.0727   22.5270 C   0  0  0  0  0  0
  -21.4027   -6.5630   23.8198 C   0  0  0  0  0  0
  -21.3659   -5.6782   24.9156 C   0  0  0  0  0  0
  -21.6032   -4.3048   24.7208 C   0  0  0  0  0  0
  -21.8818   -3.8136   23.4334 C   0  0  0  0  0  0
  -21.9198   -4.6955   22.3391 C   0  0  0  0  0  0
  -22.7770  -13.5243   21.1857 C   0  0  0  0  0  0
  -22.1657   -4.2145   21.0966 F   0  0  0  0  0  0
  -21.5627   -3.4520   25.7723 F   0  0  0  0  0  0
  -29.9542  -13.5994   20.3665 N   0  0  0  0  0  0
  -26.2828  -12.9404   20.3226 N   0  0  0  0  0  0
  -25.9252  -11.6548   20.5717 N   0  0  0  0  0  0
  -22.0420  -12.8198   22.0394 N   0  0  0  0  0  0
  -25.4269  -15.1960   20.4485 N   0  0  0  0  0  0
  -31.8271  -14.8372   20.2177 O   0  0  0  0  0  0
  -21.6646   -6.8864   21.4230 O   0  0  0  0  0  0
  -22.3447  -14.5559   20.6752 O   0  0  0  0  0  0
  -24.6379  -31.8500   23.1909 C   0  0  0  0  0  0
  -25.9179  -32.4710   23.8273 C   0  0  1  0  0  0
  -27.2234  -27.2243   20.1442 C   0  0  0  0  0  0
  -25.5965  -33.8514   24.2210 N   0  0  0  0  0  0
  -23.4333  -30.4706   21.5352 C   0  0  2  0  0  0
  -24.8812  -28.9051   20.1111 C   0  0  0  0  0  0
  -22.7509  -29.4574   22.4884 C   0  0  0  0  0  0
  -18.0276  -28.1403   22.8467 C   0  0  0  0  0  0
  -24.1505  -36.7269   23.2646 C   0  0  0  0  0  0
  -25.9818  -30.7568   21.3686 C   0  0  0  0  0  0
  -26.0559  -29.3734   20.7154 C   0  0  0  0  0  0
  -27.2327  -28.5495   20.7084 C   0  0  0  0  0  0
  -26.0220  -26.8190   19.5315 C   0  0  0  0  0  0
  -24.8724  -27.6370   19.5088 C   0  0  0  0  0  0
  -23.6518  -29.7962   20.1549 C   0  0  0  0  0  0
  -25.4131  -36.3041   24.0321 C   0  0  1  0  0  0
  -20.5885  -28.3702   23.1275 C   0  0  2  0  0  0
  -20.6775  -26.9414   22.5426 C   0  0  0  0  0  0
  -19.5768  -26.6381   21.5217 C   0  0  0  0  0  0
  -18.1935  -26.7928   22.1614 C   0  0  0  0  0  0
  -19.1532  -28.8863   23.2858 C   0  0  0  0  0  0
  -18.9460  -30.1455   23.8887 C   0  0  0  0  0  0
  -17.6460  -30.6598   24.0558 C   0  0  0  0  0  0
  -25.9079  -34.9417   23.5060 C   0  0  0  0  0  0
  -16.5346  -29.9105   23.6337 C   0  0  0  0  0  0
  -16.7253  -28.6528   23.0348 C   0  0  0  0  0  0
  -26.4546  -31.6542   25.0668 C   0  0  0  0  0  0
  -25.3778  -31.3681   26.1392 C   0  0  0  0  0  0
  -27.0432  -30.2973   24.6155 C   0  0  0  0  0  0
  -27.6080  -32.4306   25.7458 C   0  0  0  0  0  0
  -27.5579  -37.1791   24.8471 C   0  0  0  0  0  0
  -21.4206  -29.3043   22.3649 N   0  0  0  0  0  0
  -26.4295  -37.3756   23.9409 N   0  0  0  0  0  0
  -24.7033  -31.0457   22.0874 N   0  0  0  0  0  0
  -23.4193  -28.8114   23.2978 O   0  0  0  0  0  0
  -28.3214  -26.3240   20.1229 O   0  0  0  0  0  0
  -26.5672  -34.8914   22.4638 O   0  0  0  0  0  0
  -23.5517  -32.1329   23.7194 O   0  0  0  0  0  0
  -27.3927  -19.7484   17.7759 C   0  0  0  0  0  0
  -27.6693  -20.9305   18.4674 C   0  0  0  0  0  0
  -29.0208  -19.6392   20.0482 C   0  0  0  0  0  0
  -27.9187  -18.5136   18.1806 C   0  0  0  0  0  0
  -28.7493  -18.3741   19.3358 C   0  0  0  0  0  0
  -28.4926  -20.9587   19.6125 C   0  0  0  0  0  0
  -28.4685  -23.6161   19.7522 C   0  0  0  0  0  0
  -27.5975  -17.3121   17.2890 C   0  0  0  0  0  0
  -28.8283  -16.4430   16.9847 C   0  0  0  0  0  0
  -29.8980  -16.5081   18.0816 C   0  0  0  0  0  0
  -29.2676  -16.8256   19.4627 C   0  0  1  0  0  0
  -28.1980  -24.9139   20.6845 C   0  0  0  0  0  0
  -28.6336  -22.3112   20.2660 N   0  0  0  0  0  0
  -29.9329  -16.0267   20.5835 N   0  0  0  0  0  0
  -28.5734  -23.8258   18.5398 O   0  0  0  0  0  0
  -31.4584  -12.6354   19.1708 H   0  0  0  0  0  0
  -30.3856  -11.5489   20.0087 H   0  0  0  0  0  0
  -29.7987  -11.6811   17.5672 H   0  0  0  0  0  0
  -29.6117  -13.4124   17.6813 H   0  0  0  0  0  0
  -27.8855  -11.2674   18.9411 H   0  0  0  0  0  0
  -27.3686  -12.4767   17.8030 H   0  0  0  0  0  0
  -27.5854  -14.2337   19.4035 H   0  0  0  0  0  0
  -28.7190  -12.2718   21.4586 H   0  0  0  0  0  0
  -28.3935  -13.9637   21.7431 H   0  0  0  0  0  0
  -25.2738   -9.5729   22.4735 H   0  0  0  0  0  0
  -23.9984   -7.4670   22.7473 H   0  0  0  0  0  0
  -21.0791   -8.8711   19.8979 H   0  0  0  0  0  0
  -22.3575  -10.9641   19.6154 H   0  0  0  0  0  0
  -21.2038   -7.6149   23.9691 H   0  0  0  0  0  0
  -21.1479   -6.0524   25.9051 H   0  0  0  0  0  0
  -22.0615   -2.7595   23.2827 H   0  0  0  0  0  0
  -22.4037  -11.9826   22.4706 H   0  0  0  0  0  0
  -21.1061  -13.1244   22.2672 H   0  0  0  0  0  0
  -24.6929  -15.8644   20.6613 H   0  0  0  0  0  0
  -26.3243  -15.6310   20.2895 H   0  0  0  0  0  0
  -26.7235  -32.5352   23.1016 H   0  0  0  0  0  0
  -25.0070  -33.9638   25.0316 H   0  0  0  0  0  0
  -22.7303  -31.2932   21.3848 H   0  0  0  0  0  0
  -23.3753  -35.9616   23.3313 H   0  0  0  0  0  0
  -24.3594  -36.8887   22.2060 H   0  0  0  0  0  0
  -23.7281  -37.6476   23.6669 H   0  0  0  0  0  0
  -26.1193  -31.5132   20.5939 H   0  0  0  0  0  0
  -26.8595  -30.8163   21.9995 H   0  0  0  0  0  0
  -28.1326  -28.9121   21.1830 H   0  0  0  0  0  0
  -25.9628  -25.8410   19.0784 H   0  0  0  0  0  0
  -23.9725  -27.2662   19.0383 H   0  0  0  0  0  0
  -23.7760  -30.5682   19.3955 H   0  0  0  0  0  0
  -22.7685  -29.2311   19.8510 H   0  0  0  0  0  0
  -25.1316  -36.1858   25.0814 H   0  0  0  0  0  0
  -20.9967  -28.3289   24.1401 H   0  0  0  0  0  0
  -20.5684  -26.2292   23.3624 H   0  0  0  0  0  0
  -21.6643  -26.7443   22.1220 H   0  0  0  0  0  0
  -19.6931  -25.6292   21.1256 H   0  0  0  0  0  0
  -19.6736  -27.3186   20.6747 H   0  0  0  0  0  0
  -17.4204  -26.6645   21.4020 H   0  0  0  0  0  0
  -18.0336  -26.0088   22.9033 H   0  0  0  0  0  0
  -19.7936  -30.7270   24.2259 H   0  0  0  0  0  0
  -17.5024  -31.6285   24.5167 H   0  0  0  0  0  0
  -15.5354  -30.3025   23.7677 H   0  0  0  0  0  0
  -15.8637  -28.0868   22.7070 H   0  0  0  0  0  0
  -24.5879  -30.7143   25.7683 H   0  0  0  0  0  0
  -24.9093  -32.2868   26.4927 H   0  0  0  0  0  0
  -25.8109  -30.8727   27.0091 H   0  0  0  0  0  0
  -26.3025  -29.6651   24.1245 H   0  0  0  0  0  0
  -27.4212  -29.7298   25.4668 H   0  0  0  0  0  0
  -27.8852  -30.4272   23.9350 H   0  0  0  0  0  0
  -27.2619  -33.3536   26.2125 H   0  0  0  0  0  0
  -28.3843  -32.6983   25.0272 H   0  0  0  0  0  0
  -28.0815  -31.8393   26.5301 H   0  0  0  0  0  0
  -28.2597  -38.0089   24.7502 H   0  0  0  0  0  0
  -28.1078  -36.2612   24.6314 H   0  0  0  0  0  0
  -27.2304  -37.1462   25.8882 H   0  0  0  0  0  0
  -20.9372  -29.8748   21.6860 H   0  0  0  0  0  0
  -26.0154  -38.2825   24.1393 H   0  0  0  0  0  0
  -26.7641  -19.8018   16.8987 H   0  0  0  0  0  0
  -27.2005  -21.8262   18.0901 H   0  0  0  0  0  0
  -29.6558  -19.5921   20.9234 H   0  0  0  0  0  0
  -27.1401  -17.6267   16.3499 H   0  0  0  0  0  0
  -26.8405  -16.6993   17.7857 H   0  0  0  0  0  0
  -29.2863  -16.7803   16.0536 H   0  0  0  0  0  0
  -28.5122  -15.4125   16.8199 H   0  0  0  0  0  0
  -30.6138  -17.2988   17.8538 H   0  0  0  0  0  0
  -30.4624  -15.5808   18.0151 H   0  0  0  0  0  0
  -28.3165  -16.2970   19.5087 H   0  0  0  0  0  0
  -28.9351  -24.8493   21.4847 H   0  0  0  0  0  0
  -27.2293  -24.7952   21.1723 H   0  0  0  0  0  0
  -28.7653  -22.2858   21.2685 H   0  0  0  0  0  0
  -30.4773  -16.6661   21.1432 H   0  0  0  0  0  0
  1 25  1  0  0  0
  1 30  2  0  0  0
  1 84  1  0  0  0
  2  3  1  0  0  0
  2 25  1  0  0  0
  2 86  1  0  0  0
  2 87  1  0  0  0
  3  4  1  0  0  0
  3 88  1  0  0  0
  3 89  1  0  0  0
  4  5  1  0  0  0
  4 90  1  0  0  0
  4 91  1  0  0  0
  5  6  1  0  0  0
  5 26  1  0  0  0
  5 92  1  0  0  0
  6 25  1  0  0  0
  6 93  1  0  0  0
  6 94  1  0  0  0
  7  8  2  0  0  0
  7 26  1  0  0  0
  7 29  1  0  0  0
  8  9  1  0  0  0
  8 22  1  0  0  0
  9 10  1  0  0  0
  9 27  2  0  0  0
 10 11  2  0  0  0
 10 15  1  0  0  0
 11 12  1  0  0  0
 11 95  1  0  0  0
 12 13  2  0  0  0
 12 96  1  0  0  0
 13 14  1  0  0  0
 13 31  1  0  0  0
 14 15  2  0  0  0
 14 97  1  0  0  0
 15 98  1  0  0  0
 16 17  2  0  0  0
 16 21  1  0  0  0
 16 31  1  0  0  0
 17 18  1  0  0  0
 17 99  1  0  0  0
 18 19  2  0  0  0
 18100  1  0  0  0
 19 20  1  0  0  0
 19 24  1  0  0  0
 20 21  2  0  0  0
 20101  1  0  0  0
 21 23  1  0  0  0
 22 28  1  0  0  0
 22 32  2  0  0  0
 26 27  1  0  0  0
 28102  1  0  0  0
 28103  1  0  0  0
 29104  1  0  0  0
 29105  1  0  0  0
 33 34  1  0  0  0
 33 66  1  0  0  0
 33 70  2  0  0  0
 34 36  1  0  0  0
 34 59  1  0  0  0
 34106  1  0  0  0
 35 44  2  0  0  0
 35 45  1  0  0  0
 35 68  1  0  0  0
 36 56  1  0  0  0
 36107  1  0  0  0
 37 39  1  0  0  0
 37 47  1  0  0  0
 37 66  1  0  0  0
 37108  1  0  0  0
 38 43  2  0  0  0
 38 46  1  0  0  0
 38 47  1  0  0  0
 39 64  1  0  0  0
 39 67  2  0  0  0
 40 52  1  0  0  0
 40 53  2  0  0  0
 40 58  1  0  0  0
 41109  1  0  0  0
 41110  1  0  0  0
 41111  1  0  0  0
 41 48  1  0  0  0
 42 43  1  0  0  0
 42 66  1  0  0  0
 42112  1  0  0  0
 42113  1  0  0  0
 43 44  1  0  0  0
 44114  1  0  0  0
 45 46  2  0  0  0
 45115  1  0  0  0
 46116  1  0  0  0
 47117  1  0  0  0
 47118  1  0  0  0
 48 56  1  0  0  0
 48 65  1  0  0  0
 48119  1  0  0  0
 49 50  1  0  0  0
 49 53  1  0  0  0
 49 64  1  0  0  0
 49120  1  0  0  0
 50 51  1  0  0  0
 50121  1  0  0  0
 50122  1  0  0  0
 51 52  1  0  0  0
 51123  1  0  0  0
 51124  1  0  0  0
 52125  1  0  0  0
 52126  1  0  0  0
 53 54  1  0  0  0
 54 55  2  0  0  0
 54127  1  0  0  0
 55 57  1  0  0  0
 55128  1  0  0  0
 56 69  2  0  0  0
 57 58  2  0  0  0
 57129  1  0  0  0
 58130  1  0  0  0
 59 60  1  0  0  0
 59 61  1  0  0  0
 59 62  1  0  0  0
 60131  1  0  0  0
 60132  1  0  0  0
 60133  1  0  0  0
 61134  1  0  0  0
 61135  1  0  0  0
 61136  1  0  0  0
 62137  1  0  0  0
 62138  1  0  0  0
 62139  1  0  0  0
 63 65  1  0  0  0
 63140  1  0  0  0
 63141  1  0  0  0
 63142  1  0  0  0
 64143  1  0  0  0
 65144  1  0  0  0
 68 82  1  0  0  0
 71 72  2  0  0  0
 71 74  1  0  0  0
 71145  1  0  0  0
 72 76  1  0  0  0
 72146  1  0  0  0
 73 75  1  0  0  0
 73 76  2  0  0  0
 73147  1  0  0  0
 74 75  2  0  0  0
 74 78  1  0  0  0
 75 81  1  0  0  0
 76 83  1  0  0  0
 77 82  1  0  0  0
 77 83  1  0  0  0
 77 85  2  0  0  0
 78 79  1  0  0  0
 78148  1  0  0  0
 78149  1  0  0  0
 79 80  1  0  0  0
 79150  1  0  0  0
 79151  1  0  0  0
 80 81  1  0  0  0
 80152  1  0  0  0
 80153  1  0  0  0
 81 84  1  0  0  0
 81154  1  0  0  0
 82155  1  0  0  0
 82156  1  0  0  0
 83157  1  0  0  0
 84158  1  0  0  0
M  ISO  4   1 100  68 101  82 101  84 100
M  END
> <chiral flag>
0

> <version>
0

> <s_m_source_file>
/data/baiqing/PycharmProjects/Reinvent-master-3.2/result/LINK_invent/BTK/process_docking_weight1_custom_product_contain_oxygen_bond_distance_aromatic_linkinvent_7_9_3/rearranged_h_0154.sdf

> <i_m_source_file_index>
32

> <r_mmod_Potential_Energy-OPLS-2005>
381.287261962891

> <r_mmod_Stretch_Energy-OPLS-2005>
174.638824462891

> <r_mmod_Bend_Energy-OPLS-2005>
274.105773925781

> <r_mmod_Torsional_Energy-OPLS-2005>
320.387878417969

> <r_mmod_Improper_Torsional_Energy-OPLS-2005>
9.88611888885498

> <r_mmod_Van_der_Waal_Energy-OPLS-2005>
146.112014770508

> <r_mmod_Electrostatic_Energy-OPLS-2005>
-419.810638427734

> <r_mmod_Solvation_Energy-OPLS-2005>
-238.526351928711

> <b_mmod_Minimization_Converged-OPLS-2005>
0

> <r_mmod_RMS_Derivative-OPLS-2005>
3.94855713844299

$$$$
32
                    3D
 Structure written by MMmdl.
153162  0  0  1  0            999 V2000
  -30.3888  -15.3177   20.3331 C   0  0  0  0  0  0
  -30.4220  -12.8549   19.5023 C   0  0  0  0  0  0
  -29.5122  -12.5586   18.2854 C   0  0  0  0  0  0
  -28.0757  -12.2706   18.7462 C   0  0  0  0  0  0
  -27.5987  -13.2716   19.8226 C   0  0  2  0  0  0
  -28.6327  -13.4679   20.9456 C   0  0  0  0  0  0
  -25.2370  -13.8231   20.5903 C   0  0  0  0  0  0
  -24.1758  -13.0428   20.9368 C   0  0  0  0  0  0
  -24.6370  -11.6899   20.8829 C   0  0  0  0  0  0
  -23.9111  -10.4284   21.0452 C   0  0  0  0  0  0
  -24.3643   -9.4205   21.9250 C   0  0  0  0  0  0
  -23.6316   -8.2231   22.0736 C   0  0  0  0  0  0
  -22.4292   -8.0302   21.3537 C   0  0  0  0  0  0
  -21.9959   -9.0279   20.4636 C   0  0  0  0  0  0
  -22.7280  -10.2151   20.3106 C   0  0  0  0  0  0
  -21.6842   -6.0798   22.5330 C   0  0  0  0  0  0
  -21.3986   -6.5693   23.8267 C   0  0  0  0  0  0
  -21.3659   -5.6834   24.9238 C   0  0  0  0  0  0
  -21.6009   -4.3089   24.7254 C   0  0  0  0  0  0
  -21.8800   -3.8211   23.4362 C   0  0  0  0  0  0
  -21.9206   -4.7038   22.3450 C   0  0  0  0  0  0
  -22.7783  -13.5174   21.2009 C   0  0  0  0  0  0
  -22.1704   -4.2208   21.1013 F   0  0  0  0  0  0
  -21.5573   -3.4573   25.7768 F   0  0  0  0  0  0
  -29.8384  -14.0041   20.2890 N   0  0  0  0  0  0
  -26.2767  -12.9502   20.3306 N   0  0  0  0  0  0
  -25.9297  -11.6601   20.5755 N   0  0  0  0  0  0
  -22.0389  -12.8167   22.0454 N   0  0  0  0  0  0
  -25.4073  -15.1995   20.4439 N   0  0  0  0  0  0
  -31.6237  -15.3051   20.2022 O   0  0  0  0  0  0
  -21.6629   -6.8921   21.4269 O   0  0  0  0  0  0
  -22.3540  -14.5562   20.6898 O   0  0  0  0  0  0
  -24.6785  -31.8133   23.1714 C   0  0  0  0  0  0
  -25.9409  -32.4534   23.8230 C   0  0  1  0  0  0
  -27.1942  -26.8475   20.1424 C   0  0  0  0  0  0
  -25.6037  -33.8369   24.2078 N   0  0  0  0  0  0
  -23.5002  -30.4285   21.5279 C   0  0  2  0  0  0
  -24.9345  -28.8154   20.0982 C   0  0  0  0  0  0
  -22.7810  -29.4323   22.4756 C   0  0  0  0  0  0
  -18.0357  -28.1401   22.8476 C   0  0  0  0  0  0
  -24.1449  -36.7260   23.2660 C   0  0  0  0  0  0
  -26.0772  -30.5799   21.4178 C   0  0  0  0  0  0
  -26.1214  -29.1686   20.7478 C   0  0  0  0  0  0
  -27.2368  -28.2093   20.7493 C   0  0  0  0  0  0
  -25.9928  -26.7015   19.4032 C   0  0  0  0  0  0
  -24.8973  -27.5992   19.4055 C   0  0  0  0  0  0
  -23.7459  -29.7792   20.1424 C   0  0  0  0  0  0
  -25.4092  -36.2970   24.0311 C   0  0  1  0  0  0
  -20.6022  -28.3740   23.1163 C   0  0  2  0  0  0
  -20.6855  -26.9404   22.5406 C   0  0  0  0  0  0
  -19.5803  -26.6374   21.5250 C   0  0  0  0  0  0
  -18.1970  -26.7932   22.1636 C   0  0  0  0  0  0
  -19.1634  -28.8882   23.2807 C   0  0  0  0  0  0
  -18.9539  -30.1473   23.8843 C   0  0  0  0  0  0
  -17.6527  -30.6596   24.0573 C   0  0  0  0  0  0
  -25.9086  -34.9335   23.4998 C   0  0  0  0  0  0
  -16.5408  -29.9122   23.6319 C   0  0  0  0  0  0
  -16.7329  -28.6568   23.0286 C   0  0  0  0  0  0
  -26.4575  -31.6549   25.0820 C   0  0  0  0  0  0
  -25.3701  -31.3828   26.1485 C   0  0  0  0  0  0
  -27.0455  -30.2923   24.6579 C   0  0  0  0  0  0
  -27.6083  -32.4375   25.7582 C   0  0  0  0  0  0
  -27.5538  -37.1746   24.8481 C   0  0  0  0  0  0
  -21.4463  -29.3042   22.3559 N   0  0  0  0  0  0
  -26.4232  -37.3706   23.9455 N   0  0  0  0  0  0
  -24.7772  -30.9683   22.0950 N   0  0  0  0  0  0
  -23.4274  -28.7770   23.2955 O   0  0  0  0  0  0
  -28.1720  -25.6911   20.2855 O   0  0  0  0  0  0
  -26.5667  -34.8894   22.4563 O   0  0  0  0  0  0
  -23.5826  -32.1203   23.6688 O   0  0  0  0  0  0
  -30.0574  -19.0742   21.7176 C   0  0  0  0  0  0
  -29.7134  -20.5139   21.5534 C   0  0  0  0  0  0
  -28.6087  -20.1551   19.4674 C   0  0  0  0  0  0
  -28.9520  -18.7004   19.6368 C   0  0  0  0  0  0
  -29.7020  -18.0903   20.7260 C   0  0  0  0  0  0
  -28.9988  -21.2161   20.4604 C   0  0  0  0  0  0
  -28.8147  -17.2250   19.0807 C   0  0  0  0  0  0
  -28.7958  -24.0952   18.4550 C   0  0  0  0  0  0
  -26.6027  -23.6593   19.6939 C   0  0  0  0  0  0
  -28.0889  -24.0899   19.8295 C   0  0  0  0  0  0
  -29.6106  -16.6037   20.2712 N   0  0  0  0  0  0
  -28.8031  -22.7686   20.5830 N   0  0  0  0  0  0
  -31.4284  -13.0813   19.1496 H   0  0  0  0  0  0
  -30.5203  -11.9678   20.1318 H   0  0  0  0  0  0
  -29.8993  -11.6994   17.7356 H   0  0  0  0  0  0
  -29.5066  -13.3952   17.5868 H   0  0  0  0  0  0
  -28.0753  -11.2684   19.1754 H   0  0  0  0  0  0
  -27.3896  -12.2391   17.8990 H   0  0  0  0  0  0
  -27.5027  -14.2256   19.3004 H   0  0  0  0  0  0
  -28.8203  -12.5357   21.4840 H   0  0  0  0  0  0
  -28.2660  -14.1815   21.6867 H   0  0  0  0  0  0
  -25.2717   -9.5730   22.4910 H   0  0  0  0  0  0
  -24.0030   -7.4629   22.7445 H   0  0  0  0  0  0
  -21.0882   -8.8845   19.8944 H   0  0  0  0  0  0
  -22.3730  -10.9767   19.6298 H   0  0  0  0  0  0
  -21.1976   -7.6197   23.9806 H   0  0  0  0  0  0
  -21.1472   -6.0558   25.9135 H   0  0  0  0  0  0
  -22.0563   -2.7662   23.2881 H   0  0  0  0  0  0
  -22.3935  -11.9840   22.4987 H   0  0  0  0  0  0
  -21.1007  -13.1273   22.2583 H   0  0  0  0  0  0
  -24.6370  -15.8440   20.5863 H   0  0  0  0  0  0
  -26.2602  -15.6572   20.1491 H   0  0  0  0  0  0
  -26.7553  -32.4938   23.1001 H   0  0  0  0  0  0
  -25.0067  -33.9453   25.0143 H   0  0  0  0  0  0
  -22.8187  -31.2668   21.3688 H   0  0  0  0  0  0
  -23.3686  -35.9605   23.3308 H   0  0  0  0  0  0
  -24.3562  -36.8919   22.2092 H   0  0  0  0  0  0
  -23.7212  -37.6456   23.6710 H   0  0  0  0  0  0
  -26.2649  -31.3049   20.6268 H   0  0  0  0  0  0
  -26.9498  -30.6286   22.0609 H   0  0  0  0  0  0
  -28.1310  -28.4915   21.2846 H   0  0  0  0  0  0
  -25.8344  -25.8239   18.8053 H   0  0  0  0  0  0
  -24.0153  -27.3369   18.8378 H   0  0  0  0  0  0
  -23.9793  -30.5872   19.4475 H   0  0  0  0  0  0
  -22.8441  -29.3066   19.7544 H   0  0  0  0  0  0
  -25.1242  -36.1810   25.0804 H   0  0  0  0  0  0
  -21.0047  -28.3320   24.1313 H   0  0  0  0  0  0
  -20.5804  -26.2346   23.3655 H   0  0  0  0  0  0
  -21.6686  -26.7404   22.1118 H   0  0  0  0  0  0
  -19.6994  -25.6301   21.1282 H   0  0  0  0  0  0
  -19.6738  -27.3188   20.6781 H   0  0  0  0  0  0
  -17.4236  -26.6692   21.4030 H   0  0  0  0  0  0
  -18.0279  -26.0086   22.9027 H   0  0  0  0  0  0
  -19.8020  -30.7317   24.2155 H   0  0  0  0  0  0
  -17.5100  -31.6261   24.5206 H   0  0  0  0  0  0
  -15.5413  -30.3005   23.7719 H   0  0  0  0  0  0
  -15.8713  -28.0965   22.6851 H   0  0  0  0  0  0
  -24.5945  -30.7040   25.7929 H   0  0  0  0  0  0
  -24.8766  -32.2964   26.4771 H   0  0  0  0  0  0
  -25.7980  -30.9218   27.0378 H   0  0  0  0  0  0
  -26.3105  -29.6623   24.1540 H   0  0  0  0  0  0
  -27.3930  -29.7287   25.5245 H   0  0  0  0  0  0
  -27.9084  -30.4200   24.0051 H   0  0  0  0  0  0
  -27.2718  -33.3818   26.1899 H   0  0  0  0  0  0
  -28.3990  -32.6694   25.0432 H   0  0  0  0  0  0
  -28.0599  -31.8647   26.5690 H   0  0  0  0  0  0
  -28.2492  -38.0091   24.7464 H   0  0  0  0  0  0
  -28.1086  -36.2582   24.6332 H   0  0  0  0  0  0
  -27.2289  -37.1434   25.8899 H   0  0  0  0  0  0
  -20.9697  -29.8907   21.6846 H   0  0  0  0  0  0
  -26.0104  -38.2755   24.1517 H   0  0  0  0  0  0
  -30.5607  -18.7783   22.6314 H   0  0  0  0  0  0
  -30.0417  -21.1319   22.3838 H   0  0  0  0  0  0
  -28.0328  -20.4297   18.5893 H   0  0  0  0  0  0
  -29.2891  -17.1031   18.1006 H   0  0  0  0  0  0
  -27.7694  -16.8975   19.0196 H   0  0  0  0  0  0
  -28.6795  -23.1370   17.9404 H   0  0  0  0  0  0
  -29.8669  -24.2704   18.5948 H   0  0  0  0  0  0
  -28.4144  -24.8921   17.8144 H   0  0  0  0  0  0
  -26.4583  -22.5906   19.8742 H   0  0  0  0  0  0
  -26.2445  -23.7999   18.6752 H   0  0  0  0  0  0
  -25.9781  -24.2054   20.4041 H   0  0  0  0  0  0
  -29.1690  -23.0509   21.4907 H   0  0  0  0  0  0
  1 25  1  0  0  0
  1 30  2  0  0  0
  1 81  1  0  0  0
  2  3  1  0  0  0
  2 25  1  0  0  0
  2 83  1  0  0  0
  2 84  1  0  0  0
  3  4  1  0  0  0
  3 85  1  0  0  0
  3 86  1  0  0  0
  4  5  1  0  0  0
  4 87  1  0  0  0
  4 88  1  0  0  0
  5  6  1  0  0  0
  5 26  1  0  0  0
  5 89  1  0  0  0
  6 25  1  0  0  0
  6 90  1  0  0  0
  6 91  1  0  0  0
  7  8  2  0  0  0
  7 26  1  0  0  0
  7 29  1  0  0  0
  8  9  1  0  0  0
  8 22  1  0  0  0
  9 10  1  0  0  0
  9 27  2  0  0  0
 10 11  2  0  0  0
 10 15  1  0  0  0
 11 12  1  0  0  0
 11 92  1  0  0  0
 12 13  2  0  0  0
 12 93  1  0  0  0
 13 14  1  0  0  0
 13 31  1  0  0  0
 14 15  2  0  0  0
 14 94  1  0  0  0
 15 95  1  0  0  0
 16 17  2  0  0  0
 16 21  1  0  0  0
 16 31  1  0  0  0
 17 18  1  0  0  0
 17 96  1  0  0  0
 18 19  2  0  0  0
 18 97  1  0  0  0
 19 20  1  0  0  0
 19 24  1  0  0  0
 20 21  2  0  0  0
 20 98  1  0  0  0
 21 23  1  0  0  0
 22 28  1  0  0  0
 22 32  2  0  0  0
 26 27  1  0  0  0
 28 99  1  0  0  0
 28100  1  0  0  0
 29101  1  0  0  0
 29102  1  0  0  0
 33 34  1  0  0  0
 33 66  1  0  0  0
 33 70  2  0  0  0
 34 36  1  0  0  0
 34 59  1  0  0  0
 34103  1  0  0  0
 35 44  2  0  0  0
 35 45  1  0  0  0
 35 68  1  0  0  0
 36 56  1  0  0  0
 36104  1  0  0  0
 37 39  1  0  0  0
 37 47  1  0  0  0
 37 66  1  0  0  0
 37105  1  0  0  0
 38 43  2  0  0  0
 38 46  1  0  0  0
 38 47  1  0  0  0
 39 64  1  0  0  0
 39 67  2  0  0  0
 40 52  1  0  0  0
 40 53  2  0  0  0
 40 58  1  0  0  0
 41106  1  0  0  0
 41107  1  0  0  0
 41108  1  0  0  0
 41 48  1  0  0  0
 42 43  1  0  0  0
 42 66  1  0  0  0
 42109  1  0  0  0
 42110  1  0  0  0
 43 44  1  0  0  0
 44111  1  0  0  0
 45 46  2  0  0  0
 45112  1  0  0  0
 46113  1  0  0  0
 47114  1  0  0  0
 47115  1  0  0  0
 48 56  1  0  0  0
 48 65  1  0  0  0
 48116  1  0  0  0
 49 50  1  0  0  0
 49 53  1  0  0  0
 49 64  1  0  0  0
 49117  1  0  0  0
 50 51  1  0  0  0
 50118  1  0  0  0
 50119  1  0  0  0
 51 52  1  0  0  0
 51120  1  0  0  0
 51121  1  0  0  0
 52122  1  0  0  0
 52123  1  0  0  0
 53 54  1  0  0  0
 54 55  2  0  0  0
 54124  1  0  0  0
 55 57  1  0  0  0
 55125  1  0  0  0
 56 69  2  0  0  0
 57 58  2  0  0  0
 57126  1  0  0  0
 58127  1  0  0  0
 59 60  1  0  0  0
 59 61  1  0  0  0
 59 62  1  0  0  0
 60128  1  0  0  0
 60129  1  0  0  0
 60130  1  0  0  0
 61131  1  0  0  0
 61132  1  0  0  0
 61133  1  0  0  0
 62134  1  0  0  0
 62135  1  0  0  0
 62136  1  0  0  0
 63 65  1  0  0  0
 63137  1  0  0  0
 63138  1  0  0  0
 63139  1  0  0  0
 64140  1  0  0  0
 65141  1  0  0  0
 68 80  1  0  0  0
 71 72  2  0  0  0
 71 75  1  0  0  0
 71142  1  0  0  0
 72 76  1  0  0  0
 72143  1  0  0  0
 73 74  1  0  0  0
 73 76  2  0  0  0
 73144  1  0  0  0
 74 75  2  0  0  0
 74 77  1  0  0  0
 75 81  1  0  0  0
 76 82  1  0  0  0
 77 81  1  0  0  0
 77145  1  0  0  0
 77146  1  0  0  0
 78147  1  0  0  0
 78148  1  0  0  0
 78149  1  0  0  0
 78 80  1  0  0  0
 79 80  1  0  0  0
 79150  1  0  0  0
 79151  1  0  0  0
 79152  1  0  0  0
 80 82  1  0  0  0
 82153  1  0  0  0
M  ISO  4   1 100  68 101  80 101  81 100
M  END
> <chiral flag>
0

> <version>
0

> <s_m_source_file>
/data/baiqing/PycharmProjects/Reinvent-master-3.2/result/LINK_invent/BTK/process_docking_weight1_custom_product_contain_oxygen_bond_distance_aromatic_linkinvent_7_9_3/rearranged_h_0154.sdf

> <i_m_source_file_index>
33

> <r_mmod_Potential_Energy-OPLS-2005>
1804.76037597656

> <r_mmod_Stretch_Energy-OPLS-2005>
580.560485839844

> <r_mmod_Bend_Energy-OPLS-2005>
876.971313476562

> <r_mmod_Torsional_Energy-OPLS-2005>
263.976165771484

> <r_mmod_Improper_Torsional_Energy-OPLS-2005>
10.277792930603

> <r_mmod_Van_der_Waal_Energy-OPLS-2005>
125.174446105957

> <r_mmod_Electrostatic_Energy-OPLS-2005>
-404.472351074219

> <r_mmod_Solvation_Energy-OPLS-2005>
-205.854598999023

> <b_mmod_Minimization_Converged-OPLS-2005>
0

> <r_mmod_RMS_Derivative-OPLS-2005>
9.38226890563965

$$$$
33
                    3D
 Structure written by MMmdl.
155163  0  0  1  0            999 V2000
  -30.6910  -14.6631   20.4836 C   0  0  0  0  0  0
  -30.4176  -12.4126   19.4623 C   0  0  0  0  0  0
  -29.4971  -12.4740   18.2278 C   0  0  0  0  0  0
  -28.0279  -12.3028   18.6543 C   0  0  0  0  0  0
  -27.6378  -13.2257   19.8400 C   0  0  2  0  0  0
  -28.6827  -13.1800   20.9762 C   0  0  0  0  0  0
  -25.2500  -13.8194   20.5688 C   0  0  0  0  0  0
  -24.1792  -13.0451   20.9244 C   0  0  0  0  0  0
  -24.6373  -11.6925   20.8759 C   0  0  0  0  0  0
  -23.9048  -10.4299   21.0408 C   0  0  0  0  0  0
  -24.3604   -9.4219   21.9184 C   0  0  0  0  0  0
  -23.6302   -8.2248   22.0751 C   0  0  0  0  0  0
  -22.4285   -8.0276   21.3542 C   0  0  0  0  0  0
  -21.9903   -9.0248   20.4643 C   0  0  0  0  0  0
  -22.7220  -10.2136   20.3060 C   0  0  0  0  0  0
  -21.6852   -6.0728   22.5280 C   0  0  0  0  0  0
  -21.4008   -6.5636   23.8208 C   0  0  0  0  0  0
  -21.3660   -5.6789   24.9173 C   0  0  0  0  0  0
  -21.6052   -4.3055   24.7223 C   0  0  0  0  0  0
  -21.8817   -3.8147   23.4341 C   0  0  0  0  0  0
  -21.9199   -4.6961   22.3395 C   0  0  0  0  0  0
  -22.7815  -13.5241   21.1892 C   0  0  0  0  0  0
  -22.1670   -4.2149   21.0974 F   0  0  0  0  0  0
  -21.5629   -3.4540   25.7735 F   0  0  0  0  0  0
  -29.9887  -13.4891   20.3815 N   0  0  0  0  0  0
  -26.2908  -12.9388   20.3243 N   0  0  0  0  0  0
  -25.9296  -11.6545   20.5755 N   0  0  0  0  0  0
  -22.0448  -12.8237   22.0431 N   0  0  0  0  0  0
  -25.4219  -15.1920   20.4115 N   0  0  0  0  0  0
  -31.8873  -14.6654   20.1797 O   0  0  0  0  0  0
  -21.6645   -6.8878   21.4246 O   0  0  0  0  0  0
  -22.3502  -14.5537   20.6727 O   0  0  0  0  0  0
  -24.6282  -31.8612   23.2096 C   0  0  0  0  0  0
  -25.9173  -32.4793   23.8369 C   0  0  1  0  0  0
  -27.1959  -27.2960   20.1140 C   0  0  0  0  0  0
  -25.6015  -33.8595   24.2283 N   0  0  0  0  0  0
  -23.4166  -30.4914   21.5524 C   0  0  2  0  0  0
  -24.8566  -28.9597   20.1066 C   0  0  0  0  0  0
  -22.7468  -29.4610   22.4933 C   0  0  0  0  0  0
  -18.0279  -28.1373   22.8467 C   0  0  0  0  0  0
  -24.1486  -36.7280   23.2610 C   0  0  0  0  0  0
  -25.9613  -30.7844   21.3857 C   0  0  0  0  0  0
  -26.0282  -29.4129   20.7268 C   0  0  0  0  0  0
  -27.1958  -28.5909   20.7290 C   0  0  0  0  0  0
  -26.0058  -26.9290   19.4345 C   0  0  0  0  0  0
  -24.8504  -27.7242   19.4510 C   0  0  0  0  0  0
  -23.6295  -29.8448   20.1597 C   0  0  0  0  0  0
  -25.4108  -36.3068   24.0308 C   0  0  1  0  0  0
  -20.5894  -28.3664   23.1273 C   0  0  2  0  0  0
  -20.6769  -26.9395   22.5386 C   0  0  0  0  0  0
  -19.5767  -26.6379   21.5167 C   0  0  0  0  0  0
  -18.1944  -26.7921   22.1586 C   0  0  0  0  0  0
  -19.1534  -28.8840   23.2870 C   0  0  0  0  0  0
  -18.9455  -30.1443   23.8888 C   0  0  0  0  0  0
  -17.6463  -30.6587   24.0542 C   0  0  0  0  0  0
  -25.9053  -34.9453   23.5054 C   0  0  0  0  0  0
  -16.5343  -29.9083   23.6337 C   0  0  0  0  0  0
  -16.7268  -28.6497   23.0359 C   0  0  0  0  0  0
  -26.4558  -31.6640   25.0741 C   0  0  0  0  0  0
  -25.3792  -31.3812   26.1455 C   0  0  0  0  0  0
  -27.0372  -30.3053   24.6226 C   0  0  0  0  0  0
  -27.6117  -32.4359   25.7514 C   0  0  0  0  0  0
  -27.5567  -37.1775   24.8452 C   0  0  0  0  0  0
  -21.4188  -29.3031   22.3669 N   0  0  0  0  0  0
  -26.4266  -37.3772   23.9421 N   0  0  0  0  0  0
  -24.6875  -31.0619   22.1051 N   0  0  0  0  0  0
  -23.4180  -28.8090   23.2979 O   0  0  0  0  0  0
  -28.2916  -26.4107   20.2088 O   0  0  0  0  0  0
  -26.5568  -34.8914   22.4588 O   0  0  0  0  0  0
  -23.5454  -32.1432   23.7436 O   0  0  0  0  0  0
  -29.2295  -18.7699   19.4702 C   0  0  0  0  0  0
  -28.7800  -20.0953   19.2031 C   0  0  0  0  0  0
  -29.8196  -18.4368   20.7131 C   0  0  0  0  0  0
  -28.9302  -21.1193   20.1663 C   0  0  0  0  0  0
  -29.8705  -19.5337   21.6419 C   0  0  0  0  0  0
  -30.5674  -17.0901   20.9096 C   0  0  0  0  0  0
  -28.7096  -25.0268   18.2844 C   0  0  0  0  0  0
  -28.7713  -23.7566   20.5282 C   0  0  0  0  0  0
  -28.1726  -25.0043   19.7245 C   0  0  1  0  0  0
  -29.4518  -20.8124   21.3776 N   0  0  0  0  0  0
  -30.3512  -19.4032   22.9404 N   0  0  0  0  0  0
  -28.5159  -22.4483   19.8424 N   0  0  0  0  0  0
  -30.0037  -15.8478   20.6769 N   0  0  0  0  0  0
  -31.7355  -17.1968   21.2955 O   0  0  0  0  0  0
  -31.4590  -12.5078   19.1501 H   0  0  0  0  0  0
  -30.3441  -11.4420   19.9571 H   0  0  0  0  0  0
  -29.7716  -11.6923   17.5188 H   0  0  0  0  0  0
  -29.6268  -13.4229   17.7066 H   0  0  0  0  0  0
  -27.9003  -11.2601   18.9487 H   0  0  0  0  0  0
  -27.3596  -12.4604   17.8064 H   0  0  0  0  0  0
  -27.6292  -14.2382   19.4371 H   0  0  0  0  0  0
  -28.7018  -12.1970   21.4507 H   0  0  0  0  0  0
  -28.4254  -13.8950   21.7596 H   0  0  0  0  0  0
  -25.2744   -9.5708   22.4757 H   0  0  0  0  0  0
  -24.0019   -7.4634   22.7455 H   0  0  0  0  0  0
  -21.0837   -8.8761   19.8939 H   0  0  0  0  0  0
  -22.3676  -10.9677   19.6169 H   0  0  0  0  0  0
  -21.1993   -7.6144   23.9707 H   0  0  0  0  0  0
  -21.1488   -6.0520   25.9072 H   0  0  0  0  0  0
  -22.0599   -2.7614   23.2835 H   0  0  0  0  0  0
  -22.4074  -11.9911   22.4837 H   0  0  0  0  0  0
  -21.1063  -13.1261   22.2630 H   0  0  0  0  0  0
  -24.6526  -15.8449   20.5138 H   0  0  0  0  0  0
  -26.2654  -15.6288   20.0636 H   0  0  0  0  0  0
  -26.7179  -32.5465   23.1057 H   0  0  0  0  0  0
  -25.0384  -33.9734   25.0567 H   0  0  0  0  0  0
  -22.7085  -31.3116   21.4211 H   0  0  0  0  0  0
  -23.3751  -35.9598   23.3261 H   0  0  0  0  0  0
  -24.3570  -36.8902   22.2019 H   0  0  0  0  0  0
  -23.7234  -37.6475   23.6634 H   0  0  0  0  0  0
  -26.0954  -31.5466   20.6152 H   0  0  0  0  0  0
  -26.8387  -30.8281   22.0179 H   0  0  0  0  0  0
  -28.0874  -28.9357   21.2385 H   0  0  0  0  0  0
  -25.9063  -26.0154   18.8727 H   0  0  0  0  0  0
  -23.9626  -27.3827   18.9333 H   0  0  0  0  0  0
  -23.7530  -30.6328   19.4141 H   0  0  0  0  0  0
  -22.7471  -29.2805   19.8504 H   0  0  0  0  0  0
  -25.1285  -36.1884   25.0791 H   0  0  0  0  0  0
  -20.9969  -28.3218   24.1395 H   0  0  0  0  0  0
  -20.5646  -26.2268   23.3565 H   0  0  0  0  0  0
  -21.6645  -26.7411   22.1191 H   0  0  0  0  0  0
  -19.6915  -25.6267   21.1237 H   0  0  0  0  0  0
  -19.6744  -27.3151   20.6659 H   0  0  0  0  0  0
  -17.4212  -26.6655   21.3991 H   0  0  0  0  0  0
  -18.0358  -26.0060   22.8981 H   0  0  0  0  0  0
  -19.7919  -30.7271   24.2257 H   0  0  0  0  0  0
  -17.5005  -31.6279   24.5128 H   0  0  0  0  0  0
  -15.5338  -30.2984   23.7687 H   0  0  0  0  0  0
  -15.8646  -28.0815   22.7091 H   0  0  0  0  0  0
  -24.5959  -30.7171   25.7760 H   0  0  0  0  0  0
  -24.9046  -32.3026   26.4856 H   0  0  0  0  0  0
  -25.8137  -30.8991   27.0242 H   0  0  0  0  0  0
  -26.2942  -29.6820   24.1246 H   0  0  0  0  0  0
  -27.3995  -29.7281   25.4749 H   0  0  0  0  0  0
  -27.8865  -30.4258   23.9500 H   0  0  0  0  0  0
  -27.2725  -33.3630   26.2155 H   0  0  0  0  0  0
  -28.3958  -32.6985   25.0392 H   0  0  0  0  0  0
  -28.0810  -31.8496   26.5429 H   0  0  0  0  0  0
  -28.2573  -38.0088   24.7522 H   0  0  0  0  0  0
  -28.1072  -36.2614   24.6245 H   0  0  0  0  0  0
  -27.2299  -37.1383   25.8857 H   0  0  0  0  0  0
  -20.9312  -29.8797   21.6953 H   0  0  0  0  0  0
  -26.0143  -38.2818   24.1492 H   0  0  0  0  0  0
  -29.1751  -18.0282   18.6842 H   0  0  0  0  0  0
  -28.3562  -20.3190   18.2314 H   0  0  0  0  0  0
  -28.3125  -25.8709   17.7232 H   0  0  0  0  0  0
  -28.4398  -24.1247   17.7387 H   0  0  0  0  0  0
  -29.7960  -25.1103   18.2719 H   0  0  0  0  0  0
  -28.3069  -23.7224   21.5158 H   0  0  0  0  0  0
  -29.8411  -23.8785   20.6970 H   0  0  0  0  0  0
  -27.1265  -24.7098   19.6993 H   0  0  0  0  0  0
  -30.7903  -18.5520   23.2700 H   0  0  0  0  0  0
  -30.3981  -20.1970   23.5685 H   0  0  0  0  0  0
  -28.1028  -22.5549   18.9228 H   0  0  0  0  0  0
  -29.0007  -15.8096   20.6150 H   0  0  0  0  0  0
  1 25  1  0  0  0
  1 30  2  0  0  0
  1 83  1  0  0  0
  2  3  1  0  0  0
  2 25  1  0  0  0
  2 85  1  0  0  0
  2 86  1  0  0  0
  3  4  1  0  0  0
  3 87  1  0  0  0
  3 88  1  0  0  0
  4  5  1  0  0  0
  4 89  1  0  0  0
  4 90  1  0  0  0
  5  6  1  0  0  0
  5 26  1  0  0  0
  5 91  1  0  0  0
  6 25  1  0  0  0
  6 92  1  0  0  0
  6 93  1  0  0  0
  7  8  2  0  0  0
  7 26  1  0  0  0
  7 29  1  0  0  0
  8  9  1  0  0  0
  8 22  1  0  0  0
  9 10  1  0  0  0
  9 27  2  0  0  0
 10 11  2  0  0  0
 10 15  1  0  0  0
 11 12  1  0  0  0
 11 94  1  0  0  0
 12 13  2  0  0  0
 12 95  1  0  0  0
 13 14  1  0  0  0
 13 31  1  0  0  0
 14 15  2  0  0  0
 14 96  1  0  0  0
 15 97  1  0  0  0
 16 17  2  0  0  0
 16 21  1  0  0  0
 16 31  1  0  0  0
 17 18  1  0  0  0
 17 98  1  0  0  0
 18 19  2  0  0  0
 18 99  1  0  0  0
 19 20  1  0  0  0
 19 24  1  0  0  0
 20 21  2  0  0  0
 20100  1  0  0  0
 21 23  1  0  0  0
 22 28  1  0  0  0
 22 32  2  0  0  0
 26 27  1  0  0  0
 28101  1  0  0  0
 28102  1  0  0  0
 29103  1  0  0  0
 29104  1  0  0  0
 33 34  1  0  0  0
 33 66  1  0  0  0
 33 70  2  0  0  0
 34 36  1  0  0  0
 34 59  1  0  0  0
 34105  1  0  0  0
 35 44  2  0  0  0
 35 45  1  0  0  0
 35 68  1  0  0  0
 36 56  1  0  0  0
 36106  1  0  0  0
 37 39  1  0  0  0
 37 47  1  0  0  0
 37 66  1  0  0  0
 37107  1  0  0  0
 38 43  2  0  0  0
 38 46  1  0  0  0
 38 47  1  0  0  0
 39 64  1  0  0  0
 39 67  2  0  0  0
 40 52  1  0  0  0
 40 53  2  0  0  0
 40 58  1  0  0  0
 41108  1  0  0  0
 41109  1  0  0  0
 41110  1  0  0  0
 41 48  1  0  0  0
 42 43  1  0  0  0
 42 66  1  0  0  0
 42111  1  0  0  0
 42112  1  0  0  0
 43 44  1  0  0  0
 44113  1  0  0  0
 45 46  2  0  0  0
 45114  1  0  0  0
 46115  1  0  0  0
 47116  1  0  0  0
 47117  1  0  0  0
 48 56  1  0  0  0
 48 65  1  0  0  0
 48118  1  0  0  0
 49 50  1  0  0  0
 49 53  1  0  0  0
 49 64  1  0  0  0
 49119  1  0  0  0
 50 51  1  0  0  0
 50120  1  0  0  0
 50121  1  0  0  0
 51 52  1  0  0  0
 51122  1  0  0  0
 51123  1  0  0  0
 52124  1  0  0  0
 52125  1  0  0  0
 53 54  1  0  0  0
 54 55  2  0  0  0
 54126  1  0  0  0
 55 57  1  0  0  0
 55127  1  0  0  0
 56 69  2  0  0  0
 57 58  2  0  0  0
 57128  1  0  0  0
 58129  1  0  0  0
 59 60  1  0  0  0
 59 61  1  0  0  0
 59 62  1  0  0  0
 60130  1  0  0  0
 60131  1  0  0  0
 60132  1  0  0  0
 61133  1  0  0  0
 61134  1  0  0  0
 61135  1  0  0  0
 62136  1  0  0  0
 62137  1  0  0  0
 62138  1  0  0  0
 63 65  1  0  0  0
 63139  1  0  0  0
 63140  1  0  0  0
 63141  1  0  0  0
 64142  1  0  0  0
 65143  1  0  0  0
 68 79  1  0  0  0
 71 72  2  0  0  0
 71 73  1  0  0  0
 71144  1  0  0  0
 72 74  1  0  0  0
 72145  1  0  0  0
 73 75  2  0  0  0
 73 76  1  0  0  0
 74 80  2  0  0  0
 74 82  1  0  0  0
 75 80  1  0  0  0
 75 81  1  0  0  0
 76 83  1  0  0  0
 76 84  2  0  0  0
 77146  1  0  0  0
 77147  1  0  0  0
 77148  1  0  0  0
 77 79  1  0  0  0
 78 79  1  0  0  0
 78 82  1  0  0  0
 78149  1  0  0  0
 78150  1  0  0  0
 79151  1  0  0  0
 81152  1  0  0  0
 81153  1  0  0  0
 82154  1  0  0  0
 83155  1  0  0  0
M  ISO  4   1 100  68 101  79 101  83 100
M  END
> <chiral flag>
0

> <version>
0

> <s_m_source_file>
/data/baiqing/PycharmProjects/Reinvent-master-3.2/result/LINK_invent/BTK/process_docking_weight1_custom_product_contain_oxygen_bond_distance_aromatic_linkinvent_7_9_3/rearranged_h_0154.sdf

> <i_m_source_file_index>
34

> <r_mmod_Potential_Energy-OPLS-2005>
-111.802703857422

> <r_mmod_Stretch_Energy-OPLS-2005>
84.8377914428711

> <r_mmod_Bend_Energy-OPLS-2005>
185.119430541992

> <r_mmod_Torsional_Energy-OPLS-2005>
229.061080932617

> <r_mmod_Improper_Torsional_Energy-OPLS-2005>
7.52081108093262

> <r_mmod_Van_der_Waal_Energy-OPLS-2005>
162.384582519531

> <r_mmod_Electrostatic_Energy-OPLS-2005>
-590.474426269531

> <r_mmod_Solvation_Energy-OPLS-2005>
-259.604431152344

> <b_mmod_Minimization_Converged-OPLS-2005>
0

> <r_mmod_RMS_Derivative-OPLS-2005>
4.28342056274414

$$$$
34
                    3D
 Structure written by MMmdl.
160169  0  0  1  0            999 V2000
  -30.6053  -14.7409   20.4709 C   0  0  0  0  0  0
  -30.4330  -12.4461   19.4935 C   0  0  0  0  0  0
  -29.5198  -12.5285   18.2479 C   0  0  0  0  0  0
  -28.0423  -12.3545   18.6472 C   0  0  0  0  0  0
  -27.6506  -13.2369   19.8626 C   0  0  2  0  0  0
  -28.6907  -13.1478   21.0045 C   0  0  0  0  0  0
  -25.2544  -13.8205   20.5753 C   0  0  0  0  0  0
  -24.1822  -13.0447   20.9222 C   0  0  0  0  0  0
  -24.6421  -11.6923   20.8749 C   0  0  0  0  0  0
  -23.9094  -10.4293   21.0403 C   0  0  0  0  0  0
  -24.3627   -9.4199   21.9187 C   0  0  0  0  0  0
  -23.6298   -8.2228   22.0756 C   0  0  0  0  0  0
  -22.4274   -8.0280   21.3552 C   0  0  0  0  0  0
  -21.9926   -9.0262   20.4649 C   0  0  0  0  0  0
  -22.7261  -10.2140   20.3055 C   0  0  0  0  0  0
  -21.6853   -6.0737   22.5287 C   0  0  0  0  0  0
  -21.3995   -6.5641   23.8227 C   0  0  0  0  0  0
  -21.3663   -5.6791   24.9193 C   0  0  0  0  0  0
  -21.6044   -4.3059   24.7238 C   0  0  0  0  0  0
  -21.8825   -3.8161   23.4357 C   0  0  0  0  0  0
  -21.9190   -4.6970   22.3416 C   0  0  0  0  0  0
  -22.7829  -13.5232   21.1868 C   0  0  0  0  0  0
  -22.1656   -4.2160   21.0992 F   0  0  0  0  0  0
  -21.5633   -3.4536   25.7743 F   0  0  0  0  0  0
  -30.0034  -13.5007   20.4451 N   0  0  0  0  0  0
  -26.2985  -12.9437   20.3309 N   0  0  0  0  0  0
  -25.9348  -11.6569   20.5700 N   0  0  0  0  0  0
  -22.0457  -12.8231   22.0429 N   0  0  0  0  0  0
  -25.4251  -15.1933   20.4241 N   0  0  0  0  0  0
  -31.7507  -14.8716   20.0236 O   0  0  0  0  0  0
  -21.6622   -6.8874   21.4254 O   0  0  0  0  0  0
  -22.3520  -14.5537   20.6699 O   0  0  0  0  0  0
  -24.6349  -31.8539   23.1997 C   0  0  0  0  0  0
  -25.9179  -32.4724   23.8328 C   0  0  1  0  0  0
  -27.2010  -27.2306   20.1253 C   0  0  0  0  0  0
  -25.5988  -33.8529   24.2264 N   0  0  0  0  0  0
  -23.4302  -30.4833   21.5439 C   0  0  2  0  0  0
  -24.8726  -28.9303   20.1061 C   0  0  0  0  0  0
  -22.7510  -29.4611   22.4875 C   0  0  0  0  0  0
  -18.0279  -28.1397   22.8474 C   0  0  0  0  0  0
  -24.1495  -36.7238   23.2639 C   0  0  0  0  0  0
  -25.9798  -30.7548   21.3869 C   0  0  0  0  0  0
  -26.0466  -29.3768   20.7247 C   0  0  0  0  0  0
  -27.2115  -28.5385   20.7284 C   0  0  0  0  0  0
  -26.0045  -26.8752   19.4598 C   0  0  0  0  0  0
  -24.8569  -27.6888   19.4604 C   0  0  0  0  0  0
  -23.6491  -29.8245   20.1581 C   0  0  0  0  0  0
  -25.4127  -36.3042   24.0332 C   0  0  1  0  0  0
  -20.5896  -28.3718   23.1223 C   0  0  2  0  0  0
  -20.6784  -26.9437   22.5385 C   0  0  0  0  0  0
  -19.5769  -26.6396   21.5185 C   0  0  0  0  0  0
  -18.1933  -26.7952   22.1598 C   0  0  0  0  0  0
  -19.1538  -28.8868   23.2852 C   0  0  0  0  0  0
  -18.9473  -30.1457   23.8890 C   0  0  0  0  0  0
  -17.6476  -30.6605   24.0551 C   0  0  0  0  0  0
  -25.9080  -34.9411   23.5088 C   0  0  0  0  0  0
  -16.5360  -29.9103   23.6328 C   0  0  0  0  0  0
  -16.7263  -28.6511   23.0367 C   0  0  0  0  0  0
  -26.4556  -31.6549   25.0707 C   0  0  0  0  0  0
  -25.3796  -31.3684   26.1428 C   0  0  0  0  0  0
  -27.0411  -30.2953   24.6243 C   0  0  0  0  0  0
  -27.6134  -32.4286   25.7488 C   0  0  0  0  0  0
  -27.5578  -37.1772   24.8465 C   0  0  0  0  0  0
  -21.4216  -29.3063   22.3610 N   0  0  0  0  0  0
  -26.4272  -37.3756   23.9428 N   0  0  0  0  0  0
  -24.7009  -31.0493   22.0986 N   0  0  0  0  0  0
  -23.4183  -28.8149   23.2997 O   0  0  0  0  0  0
  -28.2662  -26.2892   20.2044 O   0  0  0  0  0  0
  -26.5622  -34.8898   22.4641 O   0  0  0  0  0  0
  -23.5494  -32.1362   23.7286 O   0  0  0  0  0  0
  -29.6242  -18.4184   20.9114 C   0  0  0  0  0  0
  -29.1732  -19.5225   20.0239 C   0  0  0  0  0  0
  -28.8550  -18.9652   18.7942 C   0  0  0  0  0  0
  -29.7069  -17.1154   20.3607 C   0  0  0  0  0  0
  -28.1924  -19.5147   17.6306 C   0  0  0  0  0  0
  -29.0667  -23.0700   21.6513 C   0  0  0  0  0  0
  -29.5334  -21.5740   21.6259 C   0  0  0  0  0  0
  -28.4876  -22.1084   19.5847 C   0  0  0  0  0  0
  -28.9194  -23.5264   20.1907 C   0  0  1  0  0  0
  -27.9945  -24.8372   19.8528 C   0  0  0  0  0  0
  -29.0499  -20.9637   20.3851 N   0  0  0  0  0  0
  -28.7396  -19.3971   16.4167 N   0  0  0  0  0  0
  -29.8952  -15.8399   20.9317 N   0  0  0  0  0  0
  -26.9826  -20.0766   17.7431 N   0  3  0  0  0  0
  -30.1964  -23.7580   19.6292 O   0  0  0  0  0  0
  -29.3016  -17.2637   18.6718 S   0  0  0  0  0  0
  -31.4789  -12.5528   19.2018 H   0  0  0  0  0  0
  -30.3568  -11.4630   19.9611 H   0  0  0  0  0  0
  -29.8051  -11.7728   17.5155 H   0  0  0  0  0  0
  -29.6507  -13.4946   17.7587 H   0  0  0  0  0  0
  -27.8780  -11.3026   18.8803 H   0  0  0  0  0  0
  -27.3959  -12.5790   17.7991 H   0  0  0  0  0  0
  -27.6511  -14.2648   19.4988 H   0  0  0  0  0  0
  -28.7153  -12.1421   21.4290 H   0  0  0  0  0  0
  -28.4161  -13.8138   21.8234 H   0  0  0  0  0  0
  -25.2742   -9.5660   22.4795 H   0  0  0  0  0  0
  -23.9980   -7.4605   22.7471 H   0  0  0  0  0  0
  -21.0838   -8.8785   19.8959 H   0  0  0  0  0  0
  -22.3692  -10.9679   19.6176 H   0  0  0  0  0  0
  -21.1955   -7.6152   23.9734 H   0  0  0  0  0  0
  -21.1492   -6.0508   25.9084 H   0  0  0  0  0  0
  -22.0604   -2.7619   23.2830 H   0  0  0  0  0  0
  -22.4004  -11.9886   22.4864 H   0  0  0  0  0  0
  -21.1081  -13.1322   22.2588 H   0  0  0  0  0  0
  -24.6677  -15.8477   20.5782 H   0  0  0  0  0  0
  -26.2813  -15.6407   20.1233 H   0  0  0  0  0  0
  -26.7237  -32.5357   23.1053 H   0  0  0  0  0  0
  -25.0200  -33.9671   25.0459 H   0  0  0  0  0  0
  -22.7304  -31.3086   21.4012 H   0  0  0  0  0  0
  -23.3759  -35.9550   23.3263 H   0  0  0  0  0  0
  -24.3594  -36.8903   22.2056 H   0  0  0  0  0  0
  -23.7225  -37.6430   23.6673 H   0  0  0  0  0  0
  -26.1287  -31.5169   20.6201 H   0  0  0  0  0  0
  -26.8551  -30.7977   22.0239 H   0  0  0  0  0  0
  -28.1008  -28.8699   21.2461 H   0  0  0  0  0  0
  -25.9092  -25.9386   18.9380 H   0  0  0  0  0  0
  -23.9616  -27.3444   18.9613 H   0  0  0  0  0  0
  -23.7815  -30.6050   19.4087 H   0  0  0  0  0  0
  -22.7636  -29.2699   19.8434 H   0  0  0  0  0  0
  -25.1298  -36.1870   25.0815 H   0  0  0  0  0  0
  -20.9987  -28.3320   24.1345 H   0  0  0  0  0  0
  -20.5673  -26.2345   23.3604 H   0  0  0  0  0  0
  -21.6664  -26.7477   22.1206 H   0  0  0  0  0  0
  -19.6957  -25.6294   21.1246 H   0  0  0  0  0  0
  -19.6728  -27.3178   20.6699 H   0  0  0  0  0  0
  -17.4230  -26.6647   21.3989 H   0  0  0  0  0  0
  -18.0376  -26.0088   22.8999 H   0  0  0  0  0  0
  -19.7944  -30.7255   24.2292 H   0  0  0  0  0  0
  -17.5036  -31.6294   24.5147 H   0  0  0  0  0  0
  -15.5358  -30.3017   23.7679 H   0  0  0  0  0  0
  -15.8655  -28.0828   22.7126 H   0  0  0  0  0  0
  -24.6027  -30.6962   25.7761 H   0  0  0  0  0  0
  -24.8889  -32.2821   26.4793 H   0  0  0  0  0  0
  -25.8124  -30.8931   27.0239 H   0  0  0  0  0  0
  -26.2993  -29.6674   24.1282 H   0  0  0  0  0  0
  -27.4082  -29.7258   25.4794 H   0  0  0  0  0  0
  -27.8890  -30.4190   23.9499 H   0  0  0  0  0  0
  -27.2781  -33.3623   26.2020 H   0  0  0  0  0  0
  -28.3976  -32.6785   25.0325 H   0  0  0  0  0  0
  -28.0755  -31.8416   26.5440 H   0  0  0  0  0  0
  -28.2570  -38.0097   24.7568 H   0  0  0  0  0  0
  -28.1105  -36.2630   24.6222 H   0  0  0  0  0  0
  -27.2301  -37.1369   25.8869 H   0  0  0  0  0  0
  -20.9385  -29.8744   21.6791 H   0  0  0  0  0  0
  -26.0131  -38.2810   24.1464 H   0  0  0  0  0  0
  -29.8497  -18.6180   21.9485 H   0  0  0  0  0  0
  -29.7317  -23.7100   22.2326 H   0  0  0  0  0  0
  -28.0873  -23.1169   22.1290 H   0  0  0  0  0  0
  -29.1815  -21.0329   22.5049 H   0  0  0  0  0  0
  -30.6236  -21.5225   21.6334 H   0  0  0  0  0  0
  -28.7449  -22.0301   18.5281 H   0  0  0  0  0  0
  -27.3996  -22.0363   19.6429 H   0  0  0  0  0  0
  -27.0255  -24.5842   20.2852 H   0  0  0  0  0  0
  -27.8469  -24.8299   18.7724 H   0  0  0  0  0  0
  -29.6286  -18.9330   16.3070 H   0  0  0  0  0  0
  -28.3011  -19.7392   15.5774 H   0  0  0  0  0  0
  -29.1660  -15.5802   21.5781 H   0  0  0  0  0  0
  -26.5214  -20.0704   18.6410 H   0  0  0  0  0  0
  -26.4514  -20.4060   16.9524 H   0  0  0  0  0  0
  -30.6759  -22.9416   19.7223 H   0  0  0  0  0  0
  1 25  1  0  0  0
  1 30  2  0  0  0
  1 83  1  0  0  0
  2  3  1  0  0  0
  2 25  1  0  0  0
  2 87  1  0  0  0
  2 88  1  0  0  0
  3  4  1  0  0  0
  3 89  1  0  0  0
  3 90  1  0  0  0
  4  5  1  0  0  0
  4 91  1  0  0  0
  4 92  1  0  0  0
  5  6  1  0  0  0
  5 26  1  0  0  0
  5 93  1  0  0  0
  6 25  1  0  0  0
  6 94  1  0  0  0
  6 95  1  0  0  0
  7  8  2  0  0  0
  7 26  1  0  0  0
  7 29  1  0  0  0
  8  9  1  0  0  0
  8 22  1  0  0  0
  9 10  1  0  0  0
  9 27  2  0  0  0
 10 11  2  0  0  0
 10 15  1  0  0  0
 11 12  1  0  0  0
 11 96  1  0  0  0
 12 13  2  0  0  0
 12 97  1  0  0  0
 13 14  1  0  0  0
 13 31  1  0  0  0
 14 15  2  0  0  0
 14 98  1  0  0  0
 15 99  1  0  0  0
 16 17  2  0  0  0
 16 21  1  0  0  0
 16 31  1  0  0  0
 17 18  1  0  0  0
 17100  1  0  0  0
 18 19  2  0  0  0
 18101  1  0  0  0
 19 20  1  0  0  0
 19 24  1  0  0  0
 20 21  2  0  0  0
 20102  1  0  0  0
 21 23  1  0  0  0
 22 28  1  0  0  0
 22 32  2  0  0  0
 26 27  1  0  0  0
 28103  1  0  0  0
 28104  1  0  0  0
 29105  1  0  0  0
 29106  1  0  0  0
 33 34  1  0  0  0
 33 66  1  0  0  0
 33 70  2  0  0  0
 34 36  1  0  0  0
 34 59  1  0  0  0
 34107  1  0  0  0
 35 44  2  0  0  0
 35 45  1  0  0  0
 35 68  1  0  0  0
 36 56  1  0  0  0
 36108  1  0  0  0
 37 39  1  0  0  0
 37 47  1  0  0  0
 37 66  1  0  0  0
 37109  1  0  0  0
 38 43  2  0  0  0
 38 46  1  0  0  0
 38 47  1  0  0  0
 39 64  1  0  0  0
 39 67  2  0  0  0
 40 52  1  0  0  0
 40 53  2  0  0  0
 40 58  1  0  0  0
 41110  1  0  0  0
 41111  1  0  0  0
 41112  1  0  0  0
 41 48  1  0  0  0
 42 43  1  0  0  0
 42 66  1  0  0  0
 42113  1  0  0  0
 42114  1  0  0  0
 43 44  1  0  0  0
 44115  1  0  0  0
 45 46  2  0  0  0
 45116  1  0  0  0
 46117  1  0  0  0
 47118  1  0  0  0
 47119  1  0  0  0
 48 56  1  0  0  0
 48 65  1  0  0  0
 48120  1  0  0  0
 49 50  1  0  0  0
 49 53  1  0  0  0
 49 64  1  0  0  0
 49121  1  0  0  0
 50 51  1  0  0  0
 50122  1  0  0  0
 50123  1  0  0  0
 51 52  1  0  0  0
 51124  1  0  0  0
 51125  1  0  0  0
 52126  1  0  0  0
 52127  1  0  0  0
 53 54  1  0  0  0
 54 55  2  0  0  0
 54128  1  0  0  0
 55 57  1  0  0  0
 55129  1  0  0  0
 56 69  2  0  0  0
 57 58  2  0  0  0
 57130  1  0  0  0
 58131  1  0  0  0
 59 60  1  0  0  0
 59 61  1  0  0  0
 59 62  1  0  0  0
 60132  1  0  0  0
 60133  1  0  0  0
 60134  1  0  0  0
 61135  1  0  0  0
 61136  1  0  0  0
 61137  1  0  0  0
 62138  1  0  0  0
 62139  1  0  0  0
 62140  1  0  0  0
 63 65  1  0  0  0
 63141  1  0  0  0
 63142  1  0  0  0
 63143  1  0  0  0
 64144  1  0  0  0
 65145  1  0  0  0
 68 80  1  0  0  0
 71 72  1  0  0  0
 71 74  2  0  0  0
 71146  1  0  0  0
 72 73  2  0  0  0
 72 81  1  0  0  0
 73 75  1  0  0  0
 73 86  1  0  0  0
 74 83  1  0  0  0
 74 86  1  0  0  0
 75 82  1  0  0  0
 75 84  2  0  0  0
 76 77  1  0  0  0
 76 79  1  0  0  0
 76147  1  0  0  0
 76148  1  0  0  0
 77 81  1  0  0  0
 77149  1  0  0  0
 77150  1  0  0  0
 78 79  1  0  0  0
 78 81  1  0  0  0
 78151  1  0  0  0
 78152  1  0  0  0
 79 80  1  0  0  0
 79 85  1  0  0  0
 80153  1  0  0  0
 80154  1  0  0  0
 82155  1  0  0  0
 82156  1  0  0  0
 83157  1  0  0  0
 84158  1  0  0  0
 84159  1  0  0  0
 85160  1  0  0  0
M  CHG  1  84   1
M  ISO  4   1 100  68 101  80 101  83 100
M  END
> <chiral flag>
0

> <version>
0

> <s_m_source_file>
/data/baiqing/PycharmProjects/Reinvent-master-3.2/result/LINK_invent/BTK/process_docking_weight1_custom_product_contain_oxygen_bond_distance_aromatic_linkinvent_7_9_3/rearranged_h_0154.sdf

> <i_m_source_file_index>
35

> <r_mmod_Potential_Energy-OPLS-2005>
135.690307617188

> <r_mmod_Stretch_Energy-OPLS-2005>
129.964736938477

> <r_mmod_Bend_Energy-OPLS-2005>
217.243453979492

> <r_mmod_Torsional_Energy-OPLS-2005>
339.294250488281

> <r_mmod_Improper_Torsional_Energy-OPLS-2005>
4.86887884140015

> <r_mmod_Van_der_Waal_Energy-OPLS-2005>
113.851951599121

> <r_mmod_Electrostatic_Energy-OPLS-2005>
-231.417053222656

> <r_mmod_Solvation_Energy-OPLS-2005>
-534.040710449219

> <b_mmod_Minimization_Converged-OPLS-2005>
0

> <r_mmod_RMS_Derivative-OPLS-2005>
4.0494327545166

$$$$
35
                    3D
 Structure written by MMmdl.
149158  0  0  1  0            999 V2000
  -30.6487  -14.8523   20.4447 C   0  0  0  0  0  0
  -30.4167  -12.5355   19.4871 C   0  0  0  0  0  0
  -29.5047  -12.5121   18.2434 C   0  0  0  0  0  0
  -28.0382  -12.3153   18.6653 C   0  0  0  0  0  0
  -27.6261  -13.2470   19.8358 C   0  0  2  0  0  0
  -28.6735  -13.2732   20.9708 C   0  0  0  0  0  0
  -25.2422  -13.8207   20.5703 C   0  0  0  0  0  0
  -24.1755  -13.0428   20.9245 C   0  0  0  0  0  0
  -24.6383  -11.6920   20.8773 C   0  0  0  0  0  0
  -23.9075  -10.4288   21.0415 C   0  0  0  0  0  0
  -24.3626   -9.4201   21.9189 C   0  0  0  0  0  0
  -23.6299   -8.2238   22.0755 C   0  0  0  0  0  0
  -22.4281   -8.0279   21.3545 C   0  0  0  0  0  0
  -21.9919   -9.0253   20.4648 C   0  0  0  0  0  0
  -22.7248  -10.2131   20.3061 C   0  0  0  0  0  0
  -21.6854   -6.0736   22.5279 C   0  0  0  0  0  0
  -21.4014   -6.5640   23.8211 C   0  0  0  0  0  0
  -21.3659   -5.6792   24.9174 C   0  0  0  0  0  0
  -21.6044   -4.3056   24.7224 C   0  0  0  0  0  0
  -21.8819   -3.8147   23.4344 C   0  0  0  0  0  0
  -21.9192   -4.6964   22.3402 C   0  0  0  0  0  0
  -22.7776  -13.5199   21.1891 C   0  0  0  0  0  0
  -22.1662   -4.2149   21.0980 F   0  0  0  0  0  0
  -21.5629   -3.4539   25.7737 F   0  0  0  0  0  0
  -29.9528  -13.6517   20.3596 N   0  0  0  0  0  0
  -26.2864  -12.9455   20.3255 N   0  0  0  0  0  0
  -25.9317  -11.6585   20.5767 N   0  0  0  0  0  0
  -22.0428  -12.8191   22.0448 N   0  0  0  0  0  0
  -25.4012  -15.1927   20.4071 N   0  0  0  0  0  0
  -31.8552  -14.8081   20.1806 O   0  0  0  0  0  0
  -21.6641   -6.8879   21.4241 O   0  0  0  0  0  0
  -22.3460  -14.5501   20.6727 O   0  0  0  0  0  0
  -24.6387  -31.8498   23.1946 C   0  0  0  0  0  0
  -25.9183  -32.4725   23.8312 C   0  0  1  0  0  0
  -27.2071  -27.1869   20.1447 C   0  0  0  0  0  0
  -25.5955  -33.8530   24.2230 N   0  0  0  0  0  0
  -23.4389  -30.4727   21.5396 C   0  0  2  0  0  0
  -24.8867  -28.9123   20.1101 C   0  0  0  0  0  0
  -22.7542  -29.4579   22.4885 C   0  0  0  0  0  0
  -18.0300  -28.1391   22.8479 C   0  0  0  0  0  0
  -24.1492  -36.7268   23.2641 C   0  0  0  0  0  0
  -25.9924  -30.7386   21.3883 C   0  0  0  0  0  0
  -26.0629  -29.3553   20.7296 C   0  0  0  0  0  0
  -27.2278  -28.5073   20.7338 C   0  0  0  0  0  0
  -26.0151  -26.8470   19.4679 C   0  0  0  0  0  0
  -24.8728  -27.6695   19.4638 C   0  0  0  0  0  0
  -23.6618  -29.8082   20.1564 C   0  0  0  0  0  0
  -25.4121  -36.3051   24.0321 C   0  0  1  0  0  0
  -20.5910  -28.3713   23.1246 C   0  0  2  0  0  0
  -20.6786  -26.9423   22.5402 C   0  0  0  0  0  0
  -19.5759  -26.6381   21.5210 C   0  0  0  0  0  0
  -18.1942  -26.7932   22.1624 C   0  0  0  0  0  0
  -19.1555  -28.8870   23.2855 C   0  0  0  0  0  0
  -18.9472  -30.1468   23.8878 C   0  0  0  0  0  0
  -17.6470  -30.6590   24.0557 C   0  0  0  0  0  0
  -25.9068  -34.9423   23.5079 C   0  0  0  0  0  0
  -16.5361  -29.9083   23.6335 C   0  0  0  0  0  0
  -16.7285  -28.6501   23.0357 C   0  0  0  0  0  0
  -26.4520  -31.6574   25.0733 C   0  0  0  0  0  0
  -25.3719  -31.3756   26.1439 C   0  0  0  0  0  0
  -27.0373  -30.2972   24.6286 C   0  0  0  0  0  0
  -27.6063  -32.4328   25.7508 C   0  0  0  0  0  0
  -27.5578  -37.1791   24.8464 C   0  0  0  0  0  0
  -21.4241  -29.3049   22.3626 N   0  0  0  0  0  0
  -26.4290  -37.3757   23.9408 N   0  0  0  0  0  0
  -24.7094  -31.0401   22.0960 N   0  0  0  0  0  0
  -23.4210  -28.8117   23.3008 O   0  0  0  0  0  0
  -28.2489  -26.2074   20.1959 O   0  0  0  0  0  0
  -26.5641  -34.8908   22.4650 O   0  0  0  0  0  0
  -23.5518  -32.1353   23.7197 O   0  0  0  0  0  0
  -29.9206  -20.1305   20.1013 C   0  0  0  0  0  0
  -29.9046  -18.6556   20.2730 C   0  0  0  0  0  0
  -28.7974  -18.1981   20.8608 C   0  0  0  0  0  0
  -28.7826  -20.8212   20.5741 C   0  0  0  0  0  0
  -28.8000  -23.4580   20.2697 C   0  0  0  0  0  0
  -30.7662  -17.4022   19.9940 C   0  0  0  0  0  0
  -28.7653  -16.6727   21.0380 C   0  0  0  0  0  0
  -27.8586  -24.7640   20.5612 C   0  0  0  0  0  0
  -30.0380  -16.1347   20.4455 N   0  0  0  0  0  0
  -28.3462  -22.1790   20.6302 N   0  0  0  0  0  0
  -29.8996  -23.6143   19.7320 O   0  0  0  0  0  0
  -27.7057  -19.5403   21.2380 S   0  0  0  0  0  0
  -31.4563  -12.6440   19.1747 H   0  0  0  0  0  0
  -30.3702  -11.5846   20.0202 H   0  0  0  0  0  0
  -29.8096  -11.7154   17.5636 H   0  0  0  0  0  0
  -29.6087  -13.4467   17.6898 H   0  0  0  0  0  0
  -27.9231  -11.2735   18.9662 H   0  0  0  0  0  0
  -27.3741  -12.4597   17.8122 H   0  0  0  0  0  0
  -27.5902  -14.2467   19.4043 H   0  0  0  0  0  0
  -28.7457  -12.3013   21.4613 H   0  0  0  0  0  0
  -28.3880  -13.9867   21.7441 H   0  0  0  0  0  0
  -25.2766   -9.5680   22.4770 H   0  0  0  0  0  0
  -24.0006   -7.4629   22.7474 H   0  0  0  0  0  0
  -21.0850   -8.8775   19.8953 H   0  0  0  0  0  0
  -22.3706  -10.9674   19.6176 H   0  0  0  0  0  0
  -21.2006   -7.6147   23.9715 H   0  0  0  0  0  0
  -21.1482   -6.0522   25.9077 H   0  0  0  0  0  0
  -22.0599   -2.7609   23.2843 H   0  0  0  0  0  0
  -22.4053  -11.9861   22.4845 H   0  0  0  0  0  0
  -21.1042  -13.1208   22.2651 H   0  0  0  0  0  0
  -24.6244  -15.8362   20.5126 H   0  0  0  0  0  0
  -26.2299  -15.6329   20.0315 H   0  0  0  0  0  0
  -26.7249  -32.5348   23.1046 H   0  0  0  0  0  0
  -25.0096  -33.9656   25.0372 H   0  0  0  0  0  0
  -22.7390  -31.2976   21.3910 H   0  0  0  0  0  0
  -23.3758  -35.9596   23.3295 H   0  0  0  0  0  0
  -24.3579  -36.8901   22.2056 H   0  0  0  0  0  0
  -23.7242  -37.6464   23.6673 H   0  0  0  0  0  0
  -26.1441  -31.4958   20.6180 H   0  0  0  0  0  0
  -26.8648  -30.7856   22.0284 H   0  0  0  0  0  0
  -28.1233  -28.8383   21.2410 H   0  0  0  0  0  0
  -25.9380  -25.9123   18.9336 H   0  0  0  0  0  0
  -23.9799  -27.3320   18.9556 H   0  0  0  0  0  0
  -23.7941  -30.5852   19.4026 H   0  0  0  0  0  0
  -22.7777  -29.2480   19.8468 H   0  0  0  0  0  0
  -25.1308  -36.1888   25.0814 H   0  0  0  0  0  0
  -21.0002  -28.3297   24.1366 H   0  0  0  0  0  0
  -20.5683  -26.2326   23.3615 H   0  0  0  0  0  0
  -21.6653  -26.7436   22.1197 H   0  0  0  0  0  0
  -19.6920  -25.6287   21.1253 H   0  0  0  0  0  0
  -19.6696  -27.3179   20.6730 H   0  0  0  0  0  0
  -17.4210  -26.6672   21.4029 H   0  0  0  0  0  0
  -18.0345  -26.0079   22.9026 H   0  0  0  0  0  0
  -19.7948  -30.7288   24.2239 H   0  0  0  0  0  0
  -17.5024  -31.6270   24.5161 H   0  0  0  0  0  0
  -15.5361  -30.2978   23.7670 H   0  0  0  0  0  0
  -15.8685  -28.0812   22.7085 H   0  0  0  0  0  0
  -24.5886  -30.7118   25.7760 H   0  0  0  0  0  0
  -24.8924  -32.2938   26.4840 H   0  0  0  0  0  0
  -25.8011  -30.8937   27.0233 H   0  0  0  0  0  0
  -26.2979  -29.6706   24.1285 H   0  0  0  0  0  0
  -27.3985  -29.7260   25.4848 H   0  0  0  0  0  0
  -27.8892  -30.4212   23.9596 H   0  0  0  0  0  0
  -27.2667  -33.3642   26.2051 H   0  0  0  0  0  0
  -28.3891  -32.6865   25.0348 H   0  0  0  0  0  0
  -28.0713  -31.8476   26.5453 H   0  0  0  0  0  0
  -28.2593  -38.0091   24.7510 H   0  0  0  0  0  0
  -28.1077  -36.2621   24.6294 H   0  0  0  0  0  0
  -27.2295  -37.1443   25.8867 H   0  0  0  0  0  0
  -20.9440  -29.8770   21.6819 H   0  0  0  0  0  0
  -26.0163  -38.2828   24.1405 H   0  0  0  0  0  0
  -30.7635  -20.6234   19.6370 H   0  0  0  0  0  0
  -31.7214  -17.4779   20.5155 H   0  0  0  0  0  0
  -30.9928  -17.3212   18.9301 H   0  0  0  0  0  0
  -27.9069  -16.2516   20.5222 H   0  0  0  0  0  0
  -28.6960  -16.4056   22.0930 H   0  0  0  0  0  0
  -27.6846  -24.7716   21.6374 H   0  0  0  0  0  0
  -26.8957  -24.4997   20.1323 H   0  0  0  0  0  0
  -27.4325  -22.2561   21.0577 H   0  0  0  0  0  0
  1 25  1  0  0  0
  1 30  2  0  0  0
  1 79  1  0  0  0
  2  3  1  0  0  0
  2 25  1  0  0  0
  2 83  1  0  0  0
  2 84  1  0  0  0
  3  4  1  0  0  0
  3 85  1  0  0  0
  3 86  1  0  0  0
  4  5  1  0  0  0
  4 87  1  0  0  0
  4 88  1  0  0  0
  5  6  1  0  0  0
  5 26  1  0  0  0
  5 89  1  0  0  0
  6 25  1  0  0  0
  6 90  1  0  0  0
  6 91  1  0  0  0
  7  8  2  0  0  0
  7 26  1  0  0  0
  7 29  1  0  0  0
  8  9  1  0  0  0
  8 22  1  0  0  0
  9 10  1  0  0  0
  9 27  2  0  0  0
 10 11  2  0  0  0
 10 15  1  0  0  0
 11 12  1  0  0  0
 11 92  1  0  0  0
 12 13  2  0  0  0
 12 93  1  0  0  0
 13 14  1  0  0  0
 13 31  1  0  0  0
 14 15  2  0  0  0
 14 94  1  0  0  0
 15 95  1  0  0  0
 16 17  2  0  0  0
 16 21  1  0  0  0
 16 31  1  0  0  0
 17 18  1  0  0  0
 17 96  1  0  0  0
 18 19  2  0  0  0
 18 97  1  0  0  0
 19 20  1  0  0  0
 19 24  1  0  0  0
 20 21  2  0  0  0
 20 98  1  0  0  0
 21 23  1  0  0  0
 22 28  1  0  0  0
 22 32  2  0  0  0
 26 27  1  0  0  0
 28 99  1  0  0  0
 28100  1  0  0  0
 29101  1  0  0  0
 29102  1  0  0  0
 33 34  1  0  0  0
 33 66  1  0  0  0
 33 70  2  0  0  0
 34 36  1  0  0  0
 34 59  1  0  0  0
 34103  1  0  0  0
 35 44  2  0  0  0
 35 45  1  0  0  0
 35 68  1  0  0  0
 36 56  1  0  0  0
 36104  1  0  0  0
 37 39  1  0  0  0
 37 47  1  0  0  0
 37 66  1  0  0  0
 37105  1  0  0  0
 38 43  2  0  0  0
 38 46  1  0  0  0
 38 47  1  0  0  0
 39 64  1  0  0  0
 39 67  2  0  0  0
 40 52  1  0  0  0
 40 53  2  0  0  0
 40 58  1  0  0  0
 41106  1  0  0  0
 41107  1  0  0  0
 41108  1  0  0  0
 41 48  1  0  0  0
 42 43  1  0  0  0
 42 66  1  0  0  0
 42109  1  0  0  0
 42110  1  0  0  0
 43 44  1  0  0  0
 44111  1  0  0  0
 45 46  2  0  0  0
 45112  1  0  0  0
 46113  1  0  0  0
 47114  1  0  0  0
 47115  1  0  0  0
 48 56  1  0  0  0
 48 65  1  0  0  0
 48116  1  0  0  0
 49 50  1  0  0  0
 49 53  1  0  0  0
 49 64  1  0  0  0
 49117  1  0  0  0
 50 51  1  0  0  0
 50118  1  0  0  0
 50119  1  0  0  0
 51 52  1  0  0  0
 51120  1  0  0  0
 51121  1  0  0  0
 52122  1  0  0  0
 52123  1  0  0  0
 53 54  1  0  0  0
 54 55  2  0  0  0
 54124  1  0  0  0
 55 57  1  0  0  0
 55125  1  0  0  0
 56 69  2  0  0  0
 57 58  2  0  0  0
 57126  1  0  0  0
 58127  1  0  0  0
 59 60  1  0  0  0
 59 61  1  0  0  0
 59 62  1  0  0  0
 60128  1  0  0  0
 60129  1  0  0  0
 60130  1  0  0  0
 61131  1  0  0  0
 61132  1  0  0  0
 61133  1  0  0  0
 62134  1  0  0  0
 62135  1  0  0  0
 62136  1  0  0  0
 63 65  1  0  0  0
 63137  1  0  0  0
 63138  1  0  0  0
 63139  1  0  0  0
 64140  1  0  0  0
 65141  1  0  0  0
 68 78  1  0  0  0
 71 72  1  0  0  0
 71 74  2  0  0  0
 71142  1  0  0  0
 72 73  2  0  0  0
 72 76  1  0  0  0
 73 77  1  0  0  0
 73 82  1  0  0  0
 74 80  1  0  0  0
 74 82  1  0  0  0
 75 78  1  0  0  0
 75 80  1  0  0  0
 75 81  2  0  0  0
 76 79  1  0  0  0
 76143  1  0  0  0
 76144  1  0  0  0
 77 79  1  0  0  0
 77145  1  0  0  0
 77146  1  0  0  0
 78147  1  0  0  0
 78148  1  0  0  0
 80149  1  0  0  0
M  ISO  4   1 100  68 101  78 101  79 100
M  END
> <chiral flag>
0

> <version>
0

> <s_m_source_file>
/data/baiqing/PycharmProjects/Reinvent-master-3.2/result/LINK_invent/BTK/process_docking_weight1_custom_product_contain_oxygen_bond_distance_aromatic_linkinvent_7_9_3/rearranged_h_0154.sdf

> <i_m_source_file_index>
36

> <r_mmod_Potential_Energy-OPLS-2005>
427.202453613281

> <r_mmod_Stretch_Energy-OPLS-2005>
167.784561157227

> <r_mmod_Bend_Energy-OPLS-2005>
306.031890869141

> <r_mmod_Torsional_Energy-OPLS-2005>
257.585876464844

> <r_mmod_Improper_Torsional_Energy-OPLS-2005>
10.344162940979

> <r_mmod_Van_der_Waal_Energy-OPLS-2005>
111.17017364502

> <r_mmod_Electrostatic_Energy-OPLS-2005>
-329.476287841797

> <r_mmod_Solvation_Energy-OPLS-2005>
-240.983840942383

> <b_mmod_Minimization_Converged-OPLS-2005>
0

> <r_mmod_RMS_Derivative-OPLS-2005>
0.333023279905319

$$$$
36
                    3D
 Structure written by MMmdl.
160169  0  0  1  0            999 V2000
  -30.6707  -14.5264   20.5384 C   0  0  0  0  0  0
  -30.4288  -12.3282   19.4359 C   0  0  0  0  0  0
  -29.5004  -12.5016   18.2144 C   0  0  0  0  0  0
  -28.0212  -12.3573   18.6248 C   0  0  0  0  0  0
  -27.6597  -13.2077   19.8717 C   0  0  2  0  0  0
  -28.7019  -13.0113   20.9968 C   0  0  0  0  0  0
  -25.2587  -13.8160   20.5679 C   0  0  0  0  0  0
  -24.1839  -13.0438   20.9177 C   0  0  0  0  0  0
  -24.6390  -11.6903   20.8731 C   0  0  0  0  0  0
  -23.9053  -10.4292   21.0400 C   0  0  0  0  0  0
  -24.3608   -9.4209   21.9181 C   0  0  0  0  0  0
  -23.6285   -8.2244   22.0751 C   0  0  0  0  0  0
  -22.4269   -8.0278   21.3540 C   0  0  0  0  0  0
  -21.9899   -9.0253   20.4645 C   0  0  0  0  0  0
  -22.7224  -10.2134   20.3053 C   0  0  0  0  0  0
  -21.6853   -6.0731   22.5277 C   0  0  0  0  0  0
  -21.4015   -6.5637   23.8209 C   0  0  0  0  0  0
  -21.3659   -5.6791   24.9172 C   0  0  0  0  0  0
  -21.6045   -4.3055   24.7225 C   0  0  0  0  0  0
  -21.8820   -3.8143   23.4347 C   0  0  0  0  0  0
  -21.9192   -4.6958   22.3403 C   0  0  0  0  0  0
  -22.7863  -13.5240   21.1840 C   0  0  0  0  0  0
  -22.1662   -4.2142   21.0981 F   0  0  0  0  0  0
  -21.5627   -3.4540   25.7740 F   0  0  0  0  0  0
  -30.0299  -13.3257   20.4435 N   0  0  0  0  0  0
  -26.3015  -12.9326   20.3345 N   0  0  0  0  0  0
  -25.9318  -11.6488   20.5760 N   0  0  0  0  0  0
  -22.0500  -12.8238   22.0397 N   0  0  0  0  0  0
  -25.4321  -15.1879   20.4090 N   0  0  0  0  0  0
  -31.8142  -14.6952   20.1024 O   0  0  0  0  0  0
  -21.6637   -6.8873   21.4238 O   0  0  0  0  0  0
  -22.3554  -14.5549   20.6690 O   0  0  0  0  0  0
  -24.6177  -31.8654   23.2074 C   0  0  0  0  0  0
  -25.9055  -32.4811   23.8383 C   0  0  1  0  0  0
  -27.2328  -27.4073   20.1087 C   0  0  0  0  0  0
  -25.5901  -33.8610   24.2316 N   0  0  0  0  0  0
  -23.4081  -30.4875   21.5481 C   0  0  2  0  0  0
  -24.8567  -28.9496   20.1137 C   0  0  0  0  0  0
  -22.7431  -29.4645   22.4975 C   0  0  0  0  0  0
  -18.0277  -28.1380   22.8491 C   0  0  0  0  0  0
  -24.1487  -36.7314   23.2637 C   0  0  0  0  0  0
  -25.9392  -30.8243   21.3634 C   0  0  0  0  0  0
  -26.0188  -29.4565   20.7106 C   0  0  0  0  0  0
  -27.2140  -28.6947   20.7006 C   0  0  0  0  0  0
  -26.0572  -26.9229   19.4994 C   0  0  0  0  0  0
  -24.8722  -27.6837   19.5020 C   0  0  0  0  0  0
  -23.6187  -29.8184   20.1635 C   0  0  0  0  0  0
  -25.4107  -36.3106   24.0336 C   0  0  1  0  0  0
  -20.5869  -28.3672   23.1311 C   0  0  2  0  0  0
  -20.6766  -26.9405   22.5418 C   0  0  0  0  0  0
  -19.5746  -26.6386   21.5214 C   0  0  0  0  0  0
  -18.1924  -26.7927   22.1623 C   0  0  0  0  0  0
  -19.1526  -28.8842   23.2898 C   0  0  0  0  0  0
  -18.9453  -30.1447   23.8911 C   0  0  0  0  0  0
  -17.6454  -30.6584   24.0566 C   0  0  0  0  0  0
  -25.9036  -34.9471   23.5125 C   0  0  0  0  0  0
  -16.5345  -29.9087   23.6326 C   0  0  0  0  0  0
  -16.7265  -28.6504   23.0347 C   0  0  0  0  0  0
  -26.4473  -31.6594   25.0718 C   0  0  0  0  0  0
  -25.3736  -31.3710   26.1466 C   0  0  0  0  0  0
  -27.0298  -30.3033   24.6101 C   0  0  0  0  0  0
  -27.6056  -32.4307   25.7473 C   0  0  0  0  0  0
  -27.5582  -37.1808   24.8461 C   0  0  0  0  0  0
  -21.4154  -29.3034   22.3715 N   0  0  0  0  0  0
  -26.4293  -37.3791   23.9408 N   0  0  0  0  0  0
  -24.6734  -31.0734   22.0983 N   0  0  0  0  0  0
  -23.4189  -28.8190   23.3031 O   0  0  0  0  0  0
  -28.3635  -26.6116   20.1211 O   0  0  0  0  0  0
  -26.5601  -34.8926   22.4688 O   0  0  0  0  0  0
  -23.5361  -32.1412   23.7453 O   0  0  0  0  0  0
  -29.2588  -17.8653   21.3619 C   0  0  0  0  0  0
  -29.8254  -19.1273   20.9807 C   0  0  0  0  0  0
  -30.1058  -16.8988   20.8634 C   0  0  0  0  0  0
  -30.9682  -18.8172   20.2868 C   0  0  0  0  0  0
  -29.2958  -24.0300   19.0891 C   0  0  0  0  0  0
  -28.7336  -24.0989   20.3065 C   0  0  0  0  0  0
  -29.3069  -20.4600   21.4078 C   0  0  0  0  0  0
  -29.7603  -22.7327   18.4567 C   0  0  0  0  0  0
  -28.5614  -22.8415   21.1829 C   0  0  0  0  0  0
  -29.1701  -21.4752   19.1292 C   0  0  0  0  0  0
  -28.2473  -25.4192   20.9398 C   0  0  0  0  0  0
  -29.1068  -21.5635   20.6056 N   0  0  0  0  0  0
  -31.9289  -19.6793   19.7777 N   0  0  0  0  0  0
  -29.9177  -15.5484   21.0136 N   0  0  0  0  0  0
  -29.0006  -20.5519   22.7157 N   0  3  0  0  0  0
  -31.1560  -17.4658   20.1868 O   0  0  0  0  0  0
  -31.4729  -12.4320   19.1355 H   0  0  0  0  0  0
  -30.3379  -11.3219   19.8480 H   0  0  0  0  0  0
  -29.7473  -11.7666   17.4471 H   0  0  0  0  0  0
  -29.6624  -13.4814   17.7625 H   0  0  0  0  0  0
  -27.8387  -11.3022   18.8318 H   0  0  0  0  0  0
  -27.3706  -12.6181   17.7892 H   0  0  0  0  0  0
  -27.6957  -14.2515   19.5595 H   0  0  0  0  0  0
  -28.6870  -11.9797   21.3520 H   0  0  0  0  0  0
  -28.4586  -13.6220   21.8675 H   0  0  0  0  0  0
  -25.2756   -9.5686   22.4752 H   0  0  0  0  0  0
  -23.9994   -7.4636   22.7472 H   0  0  0  0  0  0
  -21.0826   -8.8769   19.8956 H   0  0  0  0  0  0
  -22.3676  -10.9672   19.6163 H   0  0  0  0  0  0
  -21.2011   -7.6146   23.9711 H   0  0  0  0  0  0
  -21.1479   -6.0523   25.9074 H   0  0  0  0  0  0
  -22.0600   -2.7603   23.2852 H   0  0  0  0  0  0
  -22.4109  -11.9896   22.4787 H   0  0  0  0  0  0
  -21.1118  -13.1268   22.2600 H   0  0  0  0  0  0
  -24.6640  -15.8423   20.5116 H   0  0  0  0  0  0
  -26.2794  -15.6234   20.0675 H   0  0  0  0  0  0
  -26.7130  -32.5518   23.1150 H   0  0  0  0  0  0
  -25.0049  -33.9766   25.0459 H   0  0  0  0  0  0
  -22.6983  -31.3051   21.4068 H   0  0  0  0  0  0
  -23.3743  -35.9652   23.3305 H   0  0  0  0  0  0
  -24.3581  -36.8921   22.2051 H   0  0  0  0  0  0
  -23.7243  -37.6523   23.6647 H   0  0  0  0  0  0
  -26.0526  -31.5888   20.5936 H   0  0  0  0  0  0
  -26.8264  -30.8797   21.9825 H   0  0  0  0  0  0
  -28.1106  -29.0791   21.1666 H   0  0  0  0  0  0
  -26.0567  -25.9483   19.0315 H   0  0  0  0  0  0
  -23.9801  -27.2881   19.0364 H   0  0  0  0  0  0
  -23.7283  -30.5929   19.4036 H   0  0  0  0  0  0
  -22.7423  -29.2390   19.8673 H   0  0  0  0  0  0
  -25.1283  -36.1972   25.0830 H   0  0  0  0  0  0
  -20.9959  -28.3241   24.1432 H   0  0  0  0  0  0
  -20.5668  -26.2282   23.3608 H   0  0  0  0  0  0
  -21.6638  -26.7445   22.1212 H   0  0  0  0  0  0
  -19.6909  -25.6301   21.1234 H   0  0  0  0  0  0
  -19.6688  -27.3207   20.6753 H   0  0  0  0  0  0
  -17.4195  -26.6679   21.4022 H   0  0  0  0  0  0
  -18.0324  -26.0065   22.9015 H   0  0  0  0  0  0
  -19.7928  -30.7259   24.2289 H   0  0  0  0  0  0
  -17.5008  -31.6265   24.5166 H   0  0  0  0  0  0
  -15.5347  -30.2993   23.7639 H   0  0  0  0  0  0
  -15.8666  -28.0828   22.7052 H   0  0  0  0  0  0
  -24.5906  -30.7059   25.7804 H   0  0  0  0  0  0
  -24.8930  -32.2869   26.4916 H   0  0  0  0  0  0
  -25.8085  -30.8876   27.0223 H   0  0  0  0  0  0
  -26.2843  -29.6798   24.1152 H   0  0  0  0  0  0
  -27.4059  -29.7267   25.4563 H   0  0  0  0  0  0
  -27.8684  -30.4346   23.9259 H   0  0  0  0  0  0
  -27.2686  -33.3600   26.2080 H   0  0  0  0  0  0
  -28.3847  -32.6876   25.0283 H   0  0  0  0  0  0
  -28.0744  -31.8411   26.5360 H   0  0  0  0  0  0
  -28.2603  -38.0101   24.7507 H   0  0  0  0  0  0
  -28.1073  -36.2634   24.6283 H   0  0  0  0  0  0
  -27.2302  -37.1454   25.8865 H   0  0  0  0  0  0
  -20.9321  -29.8757   21.6933 H   0  0  0  0  0  0
  -26.0183  -38.2870   24.1406 H   0  0  0  0  0  0
  -28.3617  -17.6969   21.9399 H   0  0  0  0  0  0
  -29.4379  -24.9300   18.5065 H   0  0  0  0  0  0
  -30.8501  -22.6990   18.4733 H   0  0  0  0  0  0
  -29.4660  -22.7442   17.4067 H   0  0  0  0  0  0
  -27.5024  -22.7038   21.4030 H   0  0  0  0  0  0
  -29.0667  -23.0420   22.1272 H   0  0  0  0  0  0
  -29.7050  -20.5930   18.7899 H   0  0  0  0  0  0
  -28.1445  -21.3404   18.7852 H   0  0  0  0  0  0
  -28.8314  -25.5897   21.8446 H   0  0  0  0  0  0
  -27.2213  -25.2622   21.2787 H   0  0  0  0  0  0
  -31.9564  -20.6812   19.9281 H   0  0  0  0  0  0
  -32.7765  -19.3362   19.3370 H   0  0  0  0  0  0
  -29.0356  -15.2675   21.4122 H   0  0  0  0  0  0
  -29.1624  -19.7675   23.3290 H   0  0  0  0  0  0
  -28.6267  -21.3941   23.1231 H   0  0  0  0  0  0
  1 25  1  0  0  0
  1 30  2  0  0  0
  1 84  1  0  0  0
  2  3  1  0  0  0
  2 25  1  0  0  0
  2 87  1  0  0  0
  2 88  1  0  0  0
  3  4  1  0  0  0
  3 89  1  0  0  0
  3 90  1  0  0  0
  4  5  1  0  0  0
  4 91  1  0  0  0
  4 92  1  0  0  0
  5  6  1  0  0  0
  5 26  1  0  0  0
  5 93  1  0  0  0
  6 25  1  0  0  0
  6 94  1  0  0  0
  6 95  1  0  0  0
  7  8  2  0  0  0
  7 26  1  0  0  0
  7 29  1  0  0  0
  8  9  1  0  0  0
  8 22  1  0  0  0
  9 10  1  0  0  0
  9 27  2  0  0  0
 10 11  2  0  0  0
 10 15  1  0  0  0
 11 12  1  0  0  0
 11 96  1  0  0  0
 12 13  2  0  0  0
 12 97  1  0  0  0
 13 14  1  0  0  0
 13 31  1  0  0  0
 14 15  2  0  0  0
 14 98  1  0  0  0
 15 99  1  0  0  0
 16 17  2  0  0  0
 16 21  1  0  0  0
 16 31  1  0  0  0
 17 18  1  0  0  0
 17100  1  0  0  0
 18 19  2  0  0  0
 18101  1  0  0  0
 19 20  1  0  0  0
 19 24  1  0  0  0
 20 21  2  0  0  0
 20102  1  0  0  0
 21 23  1  0  0  0
 22 28  1  0  0  0
 22 32  2  0  0  0
 26 27  1  0  0  0
 28103  1  0  0  0
 28104  1  0  0  0
 29105  1  0  0  0
 29106  1  0  0  0
 33 34  1  0  0  0
 33 66  1  0  0  0
 33 70  2  0  0  0
 34 36  1  0  0  0
 34 59  1  0  0  0
 34107  1  0  0  0
 35 44  2  0  0  0
 35 45  1  0  0  0
 35 68  1  0  0  0
 36 56  1  0  0  0
 36108  1  0  0  0
 37 39  1  0  0  0
 37 47  1  0  0  0
 37 66  1  0  0  0
 37109  1  0  0  0
 38 43  2  0  0  0
 38 46  1  0  0  0
 38 47  1  0  0  0
 39 64  1  0  0  0
 39 67  2  0  0  0
 40 52  1  0  0  0
 40 53  2  0  0  0
 40 58  1  0  0  0
 41110  1  0  0  0
 41111  1  0  0  0
 41112  1  0  0  0
 41 48  1  0  0  0
 42 43  1  0  0  0
 42 66  1  0  0  0
 42113  1  0  0  0
 42114  1  0  0  0
 43 44  1  0  0  0
 44115  1  0  0  0
 45 46  2  0  0  0
 45116  1  0  0  0
 46117  1  0  0  0
 47118  1  0  0  0
 47119  1  0  0  0
 48 56  1  0  0  0
 48 65  1  0  0  0
 48120  1  0  0  0
 49 50  1  0  0  0
 49 53  1  0  0  0
 49 64  1  0  0  0
 49121  1  0  0  0
 50 51  1  0  0  0
 50122  1  0  0  0
 50123  1  0  0  0
 51 52  1  0  0  0
 51124  1  0  0  0
 51125  1  0  0  0
 52126  1  0  0  0
 52127  1  0  0  0
 53 54  1  0  0  0
 54 55  2  0  0  0
 54128  1  0  0  0
 55 57  1  0  0  0
 55129  1  0  0  0
 56 69  2  0  0  0
 57 58  2  0  0  0
 57130  1  0  0  0
 58131  1  0  0  0
 59 60  1  0  0  0
 59 61  1  0  0  0
 59 62  1  0  0  0
 60132  1  0  0  0
 60133  1  0  0  0
 60134  1  0  0  0
 61135  1  0  0  0
 61136  1  0  0  0
 61137  1  0  0  0
 62138  1  0  0  0
 62139  1  0  0  0
 62140  1  0  0  0
 63 65  1  0  0  0
 63141  1  0  0  0
 63142  1  0  0  0
 63143  1  0  0  0
 64144  1  0  0  0
 65145  1  0  0  0
 68 81  1  0  0  0
 71 72  1  0  0  0
 71 73  2  0  0  0
 71146  1  0  0  0
 72 74  2  0  0  0
 72 77  1  0  0  0
 73 84  1  0  0  0
 73 86  1  0  0  0
 74 83  1  0  0  0
 74 86  1  0  0  0
 75 76  2  0  0  0
 75 78  1  0  0  0
 75147  1  0  0  0
 76 79  1  0  0  0
 76 81  1  0  0  0
 77 82  1  0  0  0
 77 85  2  0  0  0
 78 80  1  0  0  0
 78148  1  0  0  0
 78149  1  0  0  0
 79 82  1  0  0  0
 79150  1  0  0  0
 79151  1  0  0  0
 80 82  1  0  0  0
 80152  1  0  0  0
 80153  1  0  0  0
 81154  1  0  0  0
 81155  1  0  0  0
 83156  1  0  0  0
 83157  1  0  0  0
 84158  1  0  0  0
 85159  1  0  0  0
 85160  1  0  0  0
M  CHG  1  85   1
M  ISO  4   1 100  68 101  81 101  84 100
M  END
> <chiral flag>
0

> <version>
0

> <s_m_source_file>
/data/baiqing/PycharmProjects/Reinvent-master-3.2/result/LINK_invent/BTK/process_docking_weight1_custom_product_contain_oxygen_bond_distance_aromatic_linkinvent_7_9_3/rearranged_h_0154.sdf

> <i_m_source_file_index>
37

> <r_mmod_Potential_Energy-OPLS-2005>
-94.7995758056641

> <r_mmod_Stretch_Energy-OPLS-2005>
47.905704498291

> <r_mmod_Bend_Energy-OPLS-2005>
138.394241333008

> <r_mmod_Torsional_Energy-OPLS-2005>
234.152755737305

> <r_mmod_Improper_Torsional_Energy-OPLS-2005>
4.81460189819336

> <r_mmod_Van_der_Waal_Energy-OPLS-2005>
138.694229125977

> <r_mmod_Electrostatic_Energy-OPLS-2005>
-211.940582275391

> <r_mmod_Solvation_Energy-OPLS-2005>
-466.533111572266

> <b_mmod_Minimization_Converged-OPLS-2005>
0

> <r_mmod_RMS_Derivative-OPLS-2005>
0.34860223531723

$$$$
37
                    3D
 Structure written by MMmdl.
150158  0  0  1  0            999 V2000
  -30.6174  -14.7739   20.4543 C   0  0  0  0  0  0
  -30.4360  -12.4750   19.4746 C   0  0  0  0  0  0
  -29.5123  -12.5063   18.2362 C   0  0  0  0  0  0
  -28.0412  -12.3225   18.6555 C   0  0  0  0  0  0
  -27.6426  -13.2332   19.8479 C   0  0  2  0  0  0
  -28.6883  -13.1965   20.9848 C   0  0  0  0  0  0
  -25.2535  -13.8194   20.5693 C   0  0  0  0  0  0
  -24.1823  -13.0447   20.9201 C   0  0  0  0  0  0
  -24.6406  -11.6923   20.8740 C   0  0  0  0  0  0
  -23.9079  -10.4300   21.0418 C   0  0  0  0  0  0
  -24.3626   -9.4211   21.9195 C   0  0  0  0  0  0
  -23.6300   -8.2251   22.0766 C   0  0  0  0  0  0
  -22.4283   -8.0288   21.3554 C   0  0  0  0  0  0
  -21.9918   -9.0263   20.4662 C   0  0  0  0  0  0
  -22.7252  -10.2142   20.3072 C   0  0  0  0  0  0
  -21.6864   -6.0739   22.5280 C   0  0  0  0  0  0
  -21.4016   -6.5646   23.8207 C   0  0  0  0  0  0
  -21.3658   -5.6807   24.9174 C   0  0  0  0  0  0
  -21.6036   -4.3066   24.7230 C   0  0  0  0  0  0
  -21.8821   -3.8154   23.4355 C   0  0  0  0  0  0
  -21.9193   -4.6967   22.3410 C   0  0  0  0  0  0
  -22.7844  -13.5230   21.1848 C   0  0  0  0  0  0
  -22.1669   -4.2142   21.0992 F   0  0  0  0  0  0
  -21.5623   -3.4557   25.7750 F   0  0  0  0  0  0
  -29.9843  -13.5494   20.3915 N   0  0  0  0  0  0
  -26.2960  -12.9405   20.3282 N   0  0  0  0  0  0
  -25.9341  -11.6548   20.5752 N   0  0  0  0  0  0
  -22.0487  -12.8235   22.0402 N   0  0  0  0  0  0
  -25.4221  -15.1921   20.4096 N   0  0  0  0  0  0
  -31.8142  -14.8368   20.1594 O   0  0  0  0  0  0
  -21.6656   -6.8882   21.4241 O   0  0  0  0  0  0
  -22.3542  -14.5535   20.6684 O   0  0  0  0  0  0
  -24.6358  -31.8533   23.1948 C   0  0  0  0  0  0
  -25.9176  -32.4732   23.8313 C   0  0  1  0  0  0
  -27.2206  -27.2373   20.1350 C   0  0  0  0  0  0
  -25.5975  -33.8536   24.2239 N   0  0  0  0  0  0
  -23.4328  -30.4741   21.5397 C   0  0  2  0  0  0
  -24.8817  -28.9181   20.1109 C   0  0  0  0  0  0
  -22.7525  -29.4594   22.4906 C   0  0  0  0  0  0
  -18.0291  -28.1363   22.8462 C   0  0  0  0  0  0
  -24.1494  -36.7271   23.2640 C   0  0  0  0  0  0
  -25.9822  -30.7587   21.3789 C   0  0  0  0  0  0
  -26.0561  -29.3810   20.7183 C   0  0  0  0  0  0
  -27.2297  -28.5554   20.7141 C   0  0  0  0  0  0
  -26.0202  -26.8517   19.4970 C   0  0  0  0  0  0
  -24.8702  -27.6621   19.4890 C   0  0  0  0  0  0
  -23.6533  -29.8046   20.1578 C   0  0  0  0  0  0
  -25.4123  -36.3055   24.0321 C   0  0  1  0  0  0
  -20.5892  -28.3693   23.1233 C   0  0  2  0  0  0
  -20.6779  -26.9408   22.5380 C   0  0  0  0  0  0
  -19.5759  -26.6365   21.5182 C   0  0  0  0  0  0
  -18.1936  -26.7902   22.1597 C   0  0  0  0  0  0
  -19.1548  -28.8839   23.2828 C   0  0  0  0  0  0
  -18.9475  -30.1433   23.8853 C   0  0  0  0  0  0
  -17.6475  -30.6565   24.0534 C   0  0  0  0  0  0
  -25.9071  -34.9431   23.5077 C   0  0  0  0  0  0
  -16.5364  -29.9058   23.6316 C   0  0  0  0  0  0
  -16.7275  -28.6477   23.0354 C   0  0  0  0  0  0
  -26.4531  -31.6585   25.0728 C   0  0  0  0  0  0
  -25.3730  -31.3747   26.1429 C   0  0  0  0  0  0
  -27.0399  -30.3003   24.6258 C   0  0  0  0  0  0
  -27.6070  -32.4349   25.7487 C   0  0  0  0  0  0
  -27.5575  -37.1787   24.8462 C   0  0  0  0  0  0
  -21.4230  -29.3051   22.3646 N   0  0  0  0  0  0
  -26.4290  -37.3764   23.9406 N   0  0  0  0  0  0
  -24.7027  -31.0479   22.0931 N   0  0  0  0  0  0
  -23.4200  -28.8152   23.3036 O   0  0  0  0  0  0
  -28.3050  -26.3213   20.1944 O   0  0  0  0  0  0
  -26.5633  -34.8915   22.4642 O   0  0  0  0  0  0
  -23.5505  -32.1378   23.7230 O   0  0  0  0  0  0
  -29.4404  -18.4995   20.4607 C   0  0  0  0  0  0
  -30.1888  -19.7696   20.6123 C   0  0  0  0  0  0
  -30.1970  -17.3037   20.6457 C   0  0  0  0  0  0
  -31.4936  -19.5101   20.9380 C   0  0  0  0  0  0
  -28.8478  -22.1120   20.4182 C   0  0  0  0  0  0
  -29.1654  -23.6983   20.3849 C   0  0  0  0  0  0
  -28.0225  -24.8312   20.1543 C   0  0  0  0  0  0
  -32.4987  -20.4383   21.1914 N   0  0  0  0  0  0
  -29.9064  -21.2245   20.4453 N   0  0  0  0  0  0
  -29.8438  -15.9308   20.5975 N   0  0  0  0  0  0
  -27.6791  -21.7203   20.4240 O   0  0  0  0  0  0
  -31.8392  -17.7975   21.0435 S   0  0  0  0  0  0
  -31.4760  -12.6013   19.1664 H   0  0  0  0  0  0
  -30.3891  -11.5040   19.9714 H   0  0  0  0  0  0
  -29.8016  -11.7266   17.5305 H   0  0  0  0  0  0
  -29.6310  -13.4548   17.7092 H   0  0  0  0  0  0
  -27.9094  -11.2753   18.9294 H   0  0  0  0  0  0
  -27.3807  -12.4999   17.8057 H   0  0  0  0  0  0
  -27.6294  -14.2486   19.4515 H   0  0  0  0  0  0
  -28.7337  -12.2121   21.4520 H   0  0  0  0  0  0
  -28.4200  -13.8985   21.7766 H   0  0  0  0  0  0
  -25.2769   -9.5698   22.4768 H   0  0  0  0  0  0
  -24.0006   -7.4656   22.7497 H   0  0  0  0  0  0
  -21.0839   -8.8785   19.8980 H   0  0  0  0  0  0
  -22.3700  -10.9682   19.6181 H   0  0  0  0  0  0
  -21.2012   -7.6155   23.9706 H   0  0  0  0  0  0
  -21.1473   -6.0545   25.9073 H   0  0  0  0  0  0
  -22.0593   -2.7609   23.2872 H   0  0  0  0  0  0
  -22.4122  -11.9912   22.4803 H   0  0  0  0  0  0
  -21.1093  -13.1257   22.2583 H   0  0  0  0  0  0
  -24.6518  -15.8424   20.5202 H   0  0  0  0  0  0
  -26.2635  -15.6326   20.0623 H   0  0  0  0  0  0
  -26.7253  -32.5369   23.1058 H   0  0  0  0  0  0
  -25.0142  -33.9654   25.0400 H   0  0  0  0  0  0
  -22.7314  -31.2971   21.3871 H   0  0  0  0  0  0
  -23.3767  -35.9592   23.3312 H   0  0  0  0  0  0
  -24.3587  -36.8900   22.2053 H   0  0  0  0  0  0
  -23.7248  -37.6475   23.6669 H   0  0  0  0  0  0
  -26.1301  -31.5202   20.6126 H   0  0  0  0  0  0
  -26.8543  -30.8035   22.0171 H   0  0  0  0  0  0
  -28.1306  -28.9046   21.2004 H   0  0  0  0  0  0
  -25.9305  -25.8948   19.0080 H   0  0  0  0  0  0
  -23.9748  -27.2964   19.0080 H   0  0  0  0  0  0
  -23.7777  -30.5744   19.3966 H   0  0  0  0  0  0
  -22.7733  -29.2345   19.8570 H   0  0  0  0  0  0
  -25.1309  -36.1876   25.0815 H   0  0  0  0  0  0
  -20.9965  -28.3270   24.1360 H   0  0  0  0  0  0
  -20.5646  -26.2314   23.3594 H   0  0  0  0  0  0
  -21.6656  -26.7400   22.1203 H   0  0  0  0  0  0
  -19.6930  -25.6270   21.1235 H   0  0  0  0  0  0
  -19.6700  -27.3143   20.6690 H   0  0  0  0  0  0
  -17.4209  -26.6627   21.4004 H   0  0  0  0  0  0
  -18.0351  -26.0016   22.8972 H   0  0  0  0  0  0
  -19.7960  -30.7231   24.2237 H   0  0  0  0  0  0
  -17.5048  -31.6247   24.5141 H   0  0  0  0  0  0
  -15.5375  -30.2957   23.7668 H   0  0  0  0  0  0
  -15.8673  -28.0775   22.7110 H   0  0  0  0  0  0
  -24.5899  -30.7110   25.7760 H   0  0  0  0  0  0
  -24.8922  -32.2918   26.4846 H   0  0  0  0  0  0
  -25.8033  -30.8927   27.0212 H   0  0  0  0  0  0
  -26.3008  -29.6721   24.1284 H   0  0  0  0  0  0
  -27.4085  -29.7298   25.4795 H   0  0  0  0  0  0
  -27.8881  -30.4294   23.9527 H   0  0  0  0  0  0
  -27.2682  -33.3664   26.2026 H   0  0  0  0  0  0
  -28.3891  -32.6901   25.0325 H   0  0  0  0  0  0
  -28.0735  -31.8505   26.5423 H   0  0  0  0  0  0
  -28.2596  -38.0083   24.7512 H   0  0  0  0  0  0
  -28.1068  -36.2613   24.6288 H   0  0  0  0  0  0
  -27.2279  -37.1437   25.8863 H   0  0  0  0  0  0
  -20.9439  -29.8779   21.6840 H   0  0  0  0  0  0
  -26.0161  -38.2836   24.1412 H   0  0  0  0  0  0
  -28.3910  -18.5125   20.2041 H   0  0  0  0  0  0
  -29.9280  -23.8458   19.6206 H   0  0  0  0  0  0
  -29.6592  -23.9249   21.3297 H   0  0  0  0  0  0
  -27.5877  -24.6000   19.1822 H   0  0  0  0  0  0
  -27.2352  -24.6398   20.8860 H   0  0  0  0  0  0
  -32.2606  -21.2266   21.7847 H   0  0  0  0  0  0
  -33.3972  -20.0593   21.4794 H   0  0  0  0  0  0
  -30.7864  -21.7224   20.4215 H   0  0  0  0  0  0
  -28.8561  -15.7426   20.6676 H   0  0  0  0  0  0
  1 25  1  0  0  0
  1 30  2  0  0  0
  1 80  1  0  0  0
  2  3  1  0  0  0
  2 25  1  0  0  0
  2 83  1  0  0  0
  2 84  1  0  0  0
  3  4  1  0  0  0
  3 85  1  0  0  0
  3 86  1  0  0  0
  4  5  1  0  0  0
  4 87  1  0  0  0
  4 88  1  0  0  0
  5  6  1  0  0  0
  5 26  1  0  0  0
  5 89  1  0  0  0
  6 25  1  0  0  0
  6 90  1  0  0  0
  6 91  1  0  0  0
  7  8  2  0  0  0
  7 26  1  0  0  0
  7 29  1  0  0  0
  8  9  1  0  0  0
  8 22  1  0  0  0
  9 10  1  0  0  0
  9 27  2  0  0  0
 10 11  2  0  0  0
 10 15  1  0  0  0
 11 12  1  0  0  0
 11 92  1  0  0  0
 12 13  2  0  0  0
 12 93  1  0  0  0
 13 14  1  0  0  0
 13 31  1  0  0  0
 14 15  2  0  0  0
 14 94  1  0  0  0
 15 95  1  0  0  0
 16 17  2  0  0  0
 16 21  1  0  0  0
 16 31  1  0  0  0
 17 18  1  0  0  0
 17 96  1  0  0  0
 18 19  2  0  0  0
 18 97  1  0  0  0
 19 20  1  0  0  0
 19 24  1  0  0  0
 20 21  2  0  0  0
 20 98  1  0  0  0
 21 23  1  0  0  0
 22 28  1  0  0  0
 22 32  2  0  0  0
 26 27  1  0  0  0
 28 99  1  0  0  0
 28100  1  0  0  0
 29101  1  0  0  0
 29102  1  0  0  0
 33 34  1  0  0  0
 33 66  1  0  0  0
 33 70  2  0  0  0
 34 36  1  0  0  0
 34 59  1  0  0  0
 34103  1  0  0  0
 35 44  2  0  0  0
 35 45  1  0  0  0
 35 68  1  0  0  0
 36 56  1  0  0  0
 36104  1  0  0  0
 37 39  1  0  0  0
 37 47  1  0  0  0
 37 66  1  0  0  0
 37105  1  0  0  0
 38 43  2  0  0  0
 38 46  1  0  0  0
 38 47  1  0  0  0
 39 64  1  0  0  0
 39 67  2  0  0  0
 40 52  1  0  0  0
 40 53  2  0  0  0
 40 58  1  0  0  0
 41106  1  0  0  0
 41107  1  0  0  0
 41108  1  0  0  0
 41 48  1  0  0  0
 42 43  1  0  0  0
 42 66  1  0  0  0
 42109  1  0  0  0
 42110  1  0  0  0
 43 44  1  0  0  0
 44111  1  0  0  0
 45 46  2  0  0  0
 45112  1  0  0  0
 46113  1  0  0  0
 47114  1  0  0  0
 47115  1  0  0  0
 48 56  1  0  0  0
 48 65  1  0  0  0
 48116  1  0  0  0
 49 50  1  0  0  0
 49 53  1  0  0  0
 49 64  1  0  0  0
 49117  1  0  0  0
 50 51  1  0  0  0
 50118  1  0  0  0
 50119  1  0  0  0
 51 52  1  0  0  0
 51120  1  0  0  0
 51121  1  0  0  0
 52122  1  0  0  0
 52123  1  0  0  0
 53 54  1  0  0  0
 54 55  2  0  0  0
 54124  1  0  0  0
 55 57  1  0  0  0
 55125  1  0  0  0
 56 69  2  0  0  0
 57 58  2  0  0  0
 57126  1  0  0  0
 58127  1  0  0  0
 59 60  1  0  0  0
 59 61  1  0  0  0
 59 62  1  0  0  0
 60128  1  0  0  0
 60129  1  0  0  0
 60130  1  0  0  0
 61131  1  0  0  0
 61132  1  0  0  0
 61133  1  0  0  0
 62134  1  0  0  0
 62135  1  0  0  0
 62136  1  0  0  0
 63 65  1  0  0  0
 63137  1  0  0  0
 63138  1  0  0  0
 63139  1  0  0  0
 64140  1  0  0  0
 65141  1  0  0  0
 68 77  1  0  0  0
 71 72  1  0  0  0
 71 73  2  0  0  0
 71142  1  0  0  0
 72 74  2  0  0  0
 72 79  1  0  0  0
 73 80  1  0  0  0
 73 82  1  0  0  0
 74 78  1  0  0  0
 74 82  1  0  0  0
 75 76  1  0  0  0
 75 79  1  0  0  0
 75 81  2  0  0  0
 76 77  1  0  0  0
 76143  1  0  0  0
 76144  1  0  0  0
 77145  1  0  0  0
 77146  1  0  0  0
 78147  1  0  0  0
 78148  1  0  0  0
 79149  1  0  0  0
 80150  1  0  0  0
M  ISO  4   1 100  68 101  77 101  80 100
M  END
> <chiral flag>
0

> <version>
0

> <s_m_source_file>
/data/baiqing/PycharmProjects/Reinvent-master-3.2/result/LINK_invent/BTK/process_docking_weight1_custom_product_contain_oxygen_bond_distance_aromatic_linkinvent_7_9_3/rearranged_h_0154.sdf

> <i_m_source_file_index>
38

> <r_mmod_Potential_Energy-OPLS-2005>
111.909820556641

> <r_mmod_Stretch_Energy-OPLS-2005>
132.03825378418

> <r_mmod_Bend_Energy-OPLS-2005>
218.182540893555

> <r_mmod_Torsional_Energy-OPLS-2005>
221.779876708984

> <r_mmod_Improper_Torsional_Energy-OPLS-2005>
10.649881362915

> <r_mmod_Van_der_Waal_Energy-OPLS-2005>
123.890129089355

> <r_mmod_Electrostatic_Energy-OPLS-2005>
-449.719268798828

> <r_mmod_Solvation_Energy-OPLS-2005>
-245.269897460938

> <b_mmod_Minimization_Converged-OPLS-2005>
0

> <r_mmod_RMS_Derivative-OPLS-2005>
2.60315871238708

$$$$
38
                    3D
 Structure written by MMmdl.
149158  0  0  1  0            999 V2000
  -30.6487  -14.8523   20.4447 C   0  0  0  0  0  0
  -30.4167  -12.5355   19.4871 C   0  0  0  0  0  0
  -29.5047  -12.5121   18.2434 C   0  0  0  0  0  0
  -28.0382  -12.3153   18.6653 C   0  0  0  0  0  0
  -27.6261  -13.2470   19.8358 C   0  0  2  0  0  0
  -28.6735  -13.2732   20.9708 C   0  0  0  0  0  0
  -25.2422  -13.8207   20.5703 C   0  0  0  0  0  0
  -24.1755  -13.0428   20.9245 C   0  0  0  0  0  0
  -24.6383  -11.6920   20.8773 C   0  0  0  0  0  0
  -23.9075  -10.4288   21.0415 C   0  0  0  0  0  0
  -24.3626   -9.4201   21.9189 C   0  0  0  0  0  0
  -23.6299   -8.2238   22.0755 C   0  0  0  0  0  0
  -22.4281   -8.0279   21.3545 C   0  0  0  0  0  0
  -21.9919   -9.0253   20.4648 C   0  0  0  0  0  0
  -22.7248  -10.2131   20.3061 C   0  0  0  0  0  0
  -21.6854   -6.0736   22.5279 C   0  0  0  0  0  0
  -21.4014   -6.5640   23.8211 C   0  0  0  0  0  0
  -21.3659   -5.6792   24.9174 C   0  0  0  0  0  0
  -21.6044   -4.3056   24.7224 C   0  0  0  0  0  0
  -21.8819   -3.8147   23.4344 C   0  0  0  0  0  0
  -21.9192   -4.6964   22.3402 C   0  0  0  0  0  0
  -22.7776  -13.5199   21.1891 C   0  0  0  0  0  0
  -22.1662   -4.2149   21.0980 F   0  0  0  0  0  0
  -21.5629   -3.4539   25.7737 F   0  0  0  0  0  0
  -29.9528  -13.6517   20.3596 N   0  0  0  0  0  0
  -26.2864  -12.9455   20.3255 N   0  0  0  0  0  0
  -25.9317  -11.6585   20.5767 N   0  0  0  0  0  0
  -22.0428  -12.8191   22.0448 N   0  0  0  0  0  0
  -25.4012  -15.1927   20.4071 N   0  0  0  0  0  0
  -31.8552  -14.8081   20.1806 O   0  0  0  0  0  0
  -21.6641   -6.8879   21.4241 O   0  0  0  0  0  0
  -22.3460  -14.5501   20.6727 O   0  0  0  0  0  0
  -24.6387  -31.8498   23.1946 C   0  0  0  0  0  0
  -25.9183  -32.4725   23.8312 C   0  0  1  0  0  0
  -27.2071  -27.1869   20.1447 C   0  0  0  0  0  0
  -25.5955  -33.8530   24.2230 N   0  0  0  0  0  0
  -23.4389  -30.4727   21.5396 C   0  0  2  0  0  0
  -24.8867  -28.9123   20.1101 C   0  0  0  0  0  0
  -22.7542  -29.4579   22.4885 C   0  0  0  0  0  0
  -18.0300  -28.1391   22.8479 C   0  0  0  0  0  0
  -24.1492  -36.7268   23.2641 C   0  0  0  0  0  0
  -25.9924  -30.7386   21.3883 C   0  0  0  0  0  0
  -26.0629  -29.3553   20.7296 C   0  0  0  0  0  0
  -27.2278  -28.5073   20.7338 C   0  0  0  0  0  0
  -26.0151  -26.8470   19.4679 C   0  0  0  0  0  0
  -24.8728  -27.6695   19.4638 C   0  0  0  0  0  0
  -23.6618  -29.8082   20.1564 C   0  0  0  0  0  0
  -25.4121  -36.3051   24.0321 C   0  0  1  0  0  0
  -20.5910  -28.3713   23.1246 C   0  0  2  0  0  0
  -20.6786  -26.9423   22.5402 C   0  0  0  0  0  0
  -19.5759  -26.6381   21.5210 C   0  0  0  0  0  0
  -18.1942  -26.7932   22.1624 C   0  0  0  0  0  0
  -19.1555  -28.8870   23.2855 C   0  0  0  0  0  0
  -18.9472  -30.1468   23.8878 C   0  0  0  0  0  0
  -17.6470  -30.6590   24.0557 C   0  0  0  0  0  0
  -25.9068  -34.9423   23.5079 C   0  0  0  0  0  0
  -16.5361  -29.9083   23.6335 C   0  0  0  0  0  0
  -16.7285  -28.6501   23.0357 C   0  0  0  0  0  0
  -26.4520  -31.6574   25.0733 C   0  0  0  0  0  0
  -25.3719  -31.3756   26.1439 C   0  0  0  0  0  0
  -27.0373  -30.2972   24.6286 C   0  0  0  0  0  0
  -27.6063  -32.4328   25.7508 C   0  0  0  0  0  0
  -27.5578  -37.1791   24.8464 C   0  0  0  0  0  0
  -21.4241  -29.3049   22.3626 N   0  0  0  0  0  0
  -26.4290  -37.3757   23.9408 N   0  0  0  0  0  0
  -24.7094  -31.0401   22.0960 N   0  0  0  0  0  0
  -23.4210  -28.8117   23.3008 O   0  0  0  0  0  0
  -28.2489  -26.2074   20.1959 O   0  0  0  0  0  0
  -26.5641  -34.8908   22.4650 O   0  0  0  0  0  0
  -23.5518  -32.1353   23.7197 O   0  0  0  0  0  0
  -29.9206  -20.1305   20.1013 C   0  0  0  0  0  0
  -29.9046  -18.6556   20.2730 C   0  0  0  0  0  0
  -28.7974  -18.1981   20.8608 C   0  0  0  0  0  0
  -28.7826  -20.8212   20.5741 C   0  0  0  0  0  0
  -28.8000  -23.4580   20.2697 C   0  0  0  0  0  0
  -30.7662  -17.4022   19.9940 C   0  0  0  0  0  0
  -28.7653  -16.6727   21.0380 C   0  0  0  0  0  0
  -27.8586  -24.7640   20.5612 C   0  0  0  0  0  0
  -30.0380  -16.1347   20.4455 N   0  0  0  0  0  0
  -28.3462  -22.1790   20.6302 N   0  0  0  0  0  0
  -29.8996  -23.6143   19.7320 O   0  0  0  0  0  0
  -27.7057  -19.5403   21.2380 S   0  0  0  0  0  0
  -31.4563  -12.6440   19.1747 H   0  0  0  0  0  0
  -30.3702  -11.5846   20.0202 H   0  0  0  0  0  0
  -29.8096  -11.7154   17.5636 H   0  0  0  0  0  0
  -29.6087  -13.4467   17.6898 H   0  0  0  0  0  0
  -27.9231  -11.2735   18.9662 H   0  0  0  0  0  0
  -27.3741  -12.4597   17.8122 H   0  0  0  0  0  0
  -27.5902  -14.2467   19.4043 H   0  0  0  0  0  0
  -28.7457  -12.3013   21.4613 H   0  0  0  0  0  0
  -28.3880  -13.9867   21.7441 H   0  0  0  0  0  0
  -25.2766   -9.5680   22.4770 H   0  0  0  0  0  0
  -24.0006   -7.4629   22.7474 H   0  0  0  0  0  0
  -21.0850   -8.8775   19.8953 H   0  0  0  0  0  0
  -22.3706  -10.9674   19.6176 H   0  0  0  0  0  0
  -21.2006   -7.6147   23.9715 H   0  0  0  0  0  0
  -21.1482   -6.0522   25.9077 H   0  0  0  0  0  0
  -22.0599   -2.7609   23.2843 H   0  0  0  0  0  0
  -22.4053  -11.9861   22.4845 H   0  0  0  0  0  0
  -21.1042  -13.1208   22.2651 H   0  0  0  0  0  0
  -24.6244  -15.8362   20.5126 H   0  0  0  0  0  0
  -26.2299  -15.6329   20.0315 H   0  0  0  0  0  0
  -26.7249  -32.5348   23.1046 H   0  0  0  0  0  0
  -25.0096  -33.9656   25.0372 H   0  0  0  0  0  0
  -22.7390  -31.2976   21.3910 H   0  0  0  0  0  0
  -23.3758  -35.9596   23.3295 H   0  0  0  0  0  0
  -24.3579  -36.8901   22.2056 H   0  0  0  0  0  0
  -23.7242  -37.6464   23.6673 H   0  0  0  0  0  0
  -26.1441  -31.4958   20.6180 H   0  0  0  0  0  0
  -26.8648  -30.7856   22.0284 H   0  0  0  0  0  0
  -28.1233  -28.8383   21.2410 H   0  0  0  0  0  0
  -25.9380  -25.9123   18.9336 H   0  0  0  0  0  0
  -23.9799  -27.3320   18.9556 H   0  0  0  0  0  0
  -23.7941  -30.5852   19.4026 H   0  0  0  0  0  0
  -22.7777  -29.2480   19.8468 H   0  0  0  0  0  0
  -25.1308  -36.1888   25.0814 H   0  0  0  0  0  0
  -21.0002  -28.3297   24.1366 H   0  0  0  0  0  0
  -20.5683  -26.2326   23.3615 H   0  0  0  0  0  0
  -21.6653  -26.7436   22.1197 H   0  0  0  0  0  0
  -19.6920  -25.6287   21.1253 H   0  0  0  0  0  0
  -19.6696  -27.3179   20.6730 H   0  0  0  0  0  0
  -17.4210  -26.6672   21.4029 H   0  0  0  0  0  0
  -18.0345  -26.0079   22.9026 H   0  0  0  0  0  0
  -19.7948  -30.7288   24.2239 H   0  0  0  0  0  0
  -17.5024  -31.6270   24.5161 H   0  0  0  0  0  0
  -15.5361  -30.2978   23.7670 H   0  0  0  0  0  0
  -15.8685  -28.0812   22.7085 H   0  0  0  0  0  0
  -24.5886  -30.7118   25.7760 H   0  0  0  0  0  0
  -24.8924  -32.2938   26.4840 H   0  0  0  0  0  0
  -25.8011  -30.8937   27.0233 H   0  0  0  0  0  0
  -26.2979  -29.6706   24.1285 H   0  0  0  0  0  0
  -27.3985  -29.7260   25.4848 H   0  0  0  0  0  0
  -27.8892  -30.4212   23.9596 H   0  0  0  0  0  0
  -27.2667  -33.3642   26.2051 H   0  0  0  0  0  0
  -28.3891  -32.6865   25.0348 H   0  0  0  0  0  0
  -28.0713  -31.8476   26.5453 H   0  0  0  0  0  0
  -28.2593  -38.0091   24.7510 H   0  0  0  0  0  0
  -28.1077  -36.2621   24.6294 H   0  0  0  0  0  0
  -27.2295  -37.1443   25.8867 H   0  0  0  0  0  0
  -20.9440  -29.8770   21.6819 H   0  0  0  0  0  0
  -26.0163  -38.2828   24.1405 H   0  0  0  0  0  0
  -30.7635  -20.6234   19.6370 H   0  0  0  0  0  0
  -31.7214  -17.4779   20.5155 H   0  0  0  0  0  0
  -30.9928  -17.3212   18.9301 H   0  0  0  0  0  0
  -27.9069  -16.2516   20.5222 H   0  0  0  0  0  0
  -28.6960  -16.4056   22.0930 H   0  0  0  0  0  0
  -27.6846  -24.7716   21.6374 H   0  0  0  0  0  0
  -26.8957  -24.4997   20.1323 H   0  0  0  0  0  0
  -27.4325  -22.2561   21.0577 H   0  0  0  0  0  0
  1 25  1  0  0  0
  1 30  2  0  0  0
  1 79  1  0  0  0
  2  3  1  0  0  0
  2 25  1  0  0  0
  2 83  1  0  0  0
  2 84  1  0  0  0
  3  4  1  0  0  0
  3 85  1  0  0  0
  3 86  1  0  0  0
  4  5  1  0  0  0
  4 87  1  0  0  0
  4 88  1  0  0  0
  5  6  1  0  0  0
  5 26  1  0  0  0
  5 89  1  0  0  0
  6 25  1  0  0  0
  6 90  1  0  0  0
  6 91  1  0  0  0
  7  8  2  0  0  0
  7 26  1  0  0  0
  7 29  1  0  0  0
  8  9  1  0  0  0
  8 22  1  0  0  0
  9 10  1  0  0  0
  9 27  2  0  0  0
 10 11  2  0  0  0
 10 15  1  0  0  0
 11 12  1  0  0  0
 11 92  1  0  0  0
 12 13  2  0  0  0
 12 93  1  0  0  0
 13 14  1  0  0  0
 13 31  1  0  0  0
 14 15  2  0  0  0
 14 94  1  0  0  0
 15 95  1  0  0  0
 16 17  2  0  0  0
 16 21  1  0  0  0
 16 31  1  0  0  0
 17 18  1  0  0  0
 17 96  1  0  0  0
 18 19  2  0  0  0
 18 97  1  0  0  0
 19 20  1  0  0  0
 19 24  1  0  0  0
 20 21  2  0  0  0
 20 98  1  0  0  0
 21 23  1  0  0  0
 22 28  1  0  0  0
 22 32  2  0  0  0
 26 27  1  0  0  0
 28 99  1  0  0  0
 28100  1  0  0  0
 29101  1  0  0  0
 29102  1  0  0  0
 33 34  1  0  0  0
 33 66  1  0  0  0
 33 70  2  0  0  0
 34 36  1  0  0  0
 34 59  1  0  0  0
 34103  1  0  0  0
 35 44  2  0  0  0
 35 45  1  0  0  0
 35 68  1  0  0  0
 36 56  1  0  0  0
 36104  1  0  0  0
 37 39  1  0  0  0
 37 47  1  0  0  0
 37 66  1  0  0  0
 37105  1  0  0  0
 38 43  2  0  0  0
 38 46  1  0  0  0
 38 47  1  0  0  0
 39 64  1  0  0  0
 39 67  2  0  0  0
 40 52  1  0  0  0
 40 53  2  0  0  0
 40 58  1  0  0  0
 41106  1  0  0  0
 41107  1  0  0  0
 41108  1  0  0  0
 41 48  1  0  0  0
 42 43  1  0  0  0
 42 66  1  0  0  0
 42109  1  0  0  0
 42110  1  0  0  0
 43 44  1  0  0  0
 44111  1  0  0  0
 45 46  2  0  0  0
 45112  1  0  0  0
 46113  1  0  0  0
 47114  1  0  0  0
 47115  1  0  0  0
 48 56  1  0  0  0
 48 65  1  0  0  0
 48116  1  0  0  0
 49 50  1  0  0  0
 49 53  1  0  0  0
 49 64  1  0  0  0
 49117  1  0  0  0
 50 51  1  0  0  0
 50118  1  0  0  0
 50119  1  0  0  0
 51 52  1  0  0  0
 51120  1  0  0  0
 51121  1  0  0  0
 52122  1  0  0  0
 52123  1  0  0  0
 53 54  1  0  0  0
 54 55  2  0  0  0
 54124  1  0  0  0
 55 57  1  0  0  0
 55125  1  0  0  0
 56 69  2  0  0  0
 57 58  2  0  0  0
 57126  1  0  0  0
 58127  1  0  0  0
 59 60  1  0  0  0
 59 61  1  0  0  0
 59 62  1  0  0  0
 60128  1  0  0  0
 60129  1  0  0  0
 60130  1  0  0  0
 61131  1  0  0  0
 61132  1  0  0  0
 61133  1  0  0  0
 62134  1  0  0  0
 62135  1  0  0  0
 62136  1  0  0  0
 63 65  1  0  0  0
 63137  1  0  0  0
 63138  1  0  0  0
 63139  1  0  0  0
 64140  1  0  0  0
 65141  1  0  0  0
 68 78  1  0  0  0
 71 72  1  0  0  0
 71 74  2  0  0  0
 71142  1  0  0  0
 72 73  2  0  0  0
 72 76  1  0  0  0
 73 77  1  0  0  0
 73 82  1  0  0  0
 74 80  1  0  0  0
 74 82  1  0  0  0
 75 78  1  0  0  0
 75 80  1  0  0  0
 75 81  2  0  0  0
 76 79  1  0  0  0
 76143  1  0  0  0
 76144  1  0  0  0
 77 79  1  0  0  0
 77145  1  0  0  0
 77146  1  0  0  0
 78147  1  0  0  0
 78148  1  0  0  0
 80149  1  0  0  0
M  ISO  4   1 100  68 101  78 101  79 100
M  END
> <chiral flag>
0

> <version>
0

> <s_m_source_file>
/data/baiqing/PycharmProjects/Reinvent-master-3.2/result/LINK_invent/BTK/process_docking_weight1_custom_product_contain_oxygen_bond_distance_aromatic_linkinvent_7_9_3/rearranged_h_0154.sdf

> <i_m_source_file_index>
39

> <r_mmod_Potential_Energy-OPLS-2005>
427.202453613281

> <r_mmod_Stretch_Energy-OPLS-2005>
167.784561157227

> <r_mmod_Bend_Energy-OPLS-2005>
306.031890869141

> <r_mmod_Torsional_Energy-OPLS-2005>
257.585876464844

> <r_mmod_Improper_Torsional_Energy-OPLS-2005>
10.344162940979

> <r_mmod_Van_der_Waal_Energy-OPLS-2005>
111.17017364502

> <r_mmod_Electrostatic_Energy-OPLS-2005>
-329.476287841797

> <r_mmod_Solvation_Energy-OPLS-2005>
-240.983840942383

> <b_mmod_Minimization_Converged-OPLS-2005>
0

> <r_mmod_RMS_Derivative-OPLS-2005>
0.333023279905319

$$$$
39
                    3D
 Structure written by MMmdl.
163172  0  0  1  0            999 V2000
  -30.7038  -14.4987   20.5703 C   0  0  0  0  0  0
  -30.4228  -12.3294   19.4179 C   0  0  0  0  0  0
  -29.4892  -12.5200   18.2042 C   0  0  0  0  0  0
  -28.0123  -12.3734   18.6210 C   0  0  0  0  0  0
  -27.6603  -13.2139   19.8782 C   0  0  2  0  0  0
  -28.7080  -13.0074   20.9957 C   0  0  0  0  0  0
  -25.2560  -13.8182   20.5710 C   0  0  0  0  0  0
  -24.1826  -13.0451   20.9199 C   0  0  0  0  0  0
  -24.6393  -11.6918   20.8768 C   0  0  0  0  0  0
  -23.9073  -10.4301   21.0434 C   0  0  0  0  0  0
  -24.3626   -9.4207   21.9208 C   0  0  0  0  0  0
  -23.6291   -8.2248   22.0780 C   0  0  0  0  0  0
  -22.4272   -8.0290   21.3568 C   0  0  0  0  0  0
  -21.9929   -9.0262   20.4664 C   0  0  0  0  0  0
  -22.7255  -10.2138   20.3065 C   0  0  0  0  0  0
  -21.6841   -6.0742   22.5288 C   0  0  0  0  0  0
  -21.4012   -6.5644   23.8221 C   0  0  0  0  0  0
  -21.3660   -5.6792   24.9184 C   0  0  0  0  0  0
  -21.6040   -4.3058   24.7226 C   0  0  0  0  0  0
  -21.8816   -3.8148   23.4351 C   0  0  0  0  0  0
  -21.9195   -4.6974   22.3412 C   0  0  0  0  0  0
  -22.7841  -13.5244   21.1841 C   0  0  0  0  0  0
  -22.1664   -4.2158   21.0993 F   0  0  0  0  0  0
  -21.5629   -3.4545   25.7740 F   0  0  0  0  0  0
  -30.0344  -13.3194   20.4363 N   0  0  0  0  0  0
  -26.3026  -12.9369   20.3439 N   0  0  0  0  0  0
  -25.9330  -11.6518   20.5831 N   0  0  0  0  0  0
  -22.0453  -12.8259   22.0384 N   0  0  0  0  0  0
  -25.4205  -15.1908   20.4050 N   0  0  0  0  0  0
  -31.8364  -14.6763   20.1106 O   0  0  0  0  0  0
  -21.6633   -6.8895   21.4254 O   0  0  0  0  0  0
  -22.3533  -14.5537   20.6646 O   0  0  0  0  0  0
  -24.6187  -31.8650   23.2106 C   0  0  0  0  0  0
  -25.9071  -32.4804   23.8396 C   0  0  1  0  0  0
  -27.2420  -27.3980   20.0750 C   0  0  0  0  0  0
  -25.5917  -33.8604   24.2320 N   0  0  0  0  0  0
  -23.4085  -30.4893   21.5535 C   0  0  2  0  0  0
  -24.8542  -28.9553   20.1154 C   0  0  0  0  0  0
  -22.7428  -29.4636   22.4996 C   0  0  0  0  0  0
  -18.0266  -28.1383   22.8497 C   0  0  0  0  0  0
  -24.1490  -36.7310   23.2638 C   0  0  0  0  0  0
  -25.9439  -30.8121   21.3757 C   0  0  0  0  0  0
  -26.0177  -29.4450   20.7201 C   0  0  0  0  0  0
  -27.2060  -28.6698   20.7079 C   0  0  0  0  0  0
  -26.0498  -26.9436   19.4561 C   0  0  0  0  0  0
  -24.8664  -27.7027   19.4856 C   0  0  0  0  0  0
  -23.6182  -29.8256   20.1677 C   0  0  0  0  0  0
  -25.4111  -36.3099   24.0332 C   0  0  1  0  0  0
  -20.5857  -28.3673   23.1317 C   0  0  2  0  0  0
  -20.6762  -26.9406   22.5417 C   0  0  0  0  0  0
  -19.5734  -26.6385   21.5223 C   0  0  0  0  0  0
  -18.1911  -26.7935   22.1620 C   0  0  0  0  0  0
  -19.1515  -28.8847   23.2899 C   0  0  0  0  0  0
  -18.9442  -30.1460   23.8898 C   0  0  0  0  0  0
  -17.6443  -30.6593   24.0560 C   0  0  0  0  0  0
  -25.9046  -34.9463   23.5123 C   0  0  0  0  0  0
  -16.5333  -29.9088   23.6336 C   0  0  0  0  0  0
  -16.7252  -28.6505   23.0358 C   0  0  0  0  0  0
  -26.4478  -31.6590   25.0739 C   0  0  0  0  0  0
  -25.3737  -31.3706   26.1484 C   0  0  0  0  0  0
  -27.0308  -30.3021   24.6157 C   0  0  0  0  0  0
  -27.6053  -32.4304   25.7503 C   0  0  0  0  0  0
  -27.5588  -37.1801   24.8452 C   0  0  0  0  0  0
  -21.4150  -29.3039   22.3736 N   0  0  0  0  0  0
  -26.4289  -37.3795   23.9415 N   0  0  0  0  0  0
  -24.6757  -31.0702   22.1042 N   0  0  0  0  0  0
  -23.4181  -28.8164   23.3039 O   0  0  0  0  0  0
  -28.4142  -26.6426   20.1002 O   0  0  0  0  0  0
  -26.5606  -34.8917   22.4684 O   0  0  0  0  0  0
  -23.5367  -32.1423   23.7470 O   0  0  0  0  0  0
  -31.5922  -18.4416   22.8063 C   0  0  0  0  0  0
  -31.5023  -19.4448   21.8205 C   0  0  0  0  0  0
  -31.0864  -17.1510   22.5604 C   0  0  0  0  0  0
  -30.3373  -17.8832   20.3563 C   0  0  0  0  0  0
  -30.8625  -19.1910   20.5871 C   0  0  0  0  0  0
  -30.4810  -16.8497   21.3229 C   0  0  0  0  0  0
  -30.8884  -20.2123   19.5052 C   0  0  0  0  0  0
  -30.0227  -23.6273   18.3401 C   0  0  0  0  0  0
  -29.2995  -23.4076   20.7109 C   0  0  0  0  0  0
  -31.0895  -22.5419   18.5779 C   0  0  0  0  0  0
  -30.3239  -22.2522   20.9118 C   0  0  0  0  0  0
  -29.6633  -24.4355   19.6058 C   0  0  0  0  0  0
  -28.5036  -25.4427   19.2896 C   0  0  0  0  0  0
  -30.6914  -21.5690   19.6388 N   0  0  0  0  0  0
  -29.9966  -15.5230   21.0926 N   0  0  0  0  0  0
  -31.1727  -19.7420   18.2916 N   0  3  0  0  0  0
  -30.7454  -25.1286   19.9691 F   0  0  0  0  0  0
  -31.4649  -12.4351   19.1096 H   0  0  0  0  0  0
  -30.3310  -11.3192   19.8201 H   0  0  0  0  0  0
  -29.7309  -11.7996   17.4216 H   0  0  0  0  0  0
  -29.6475  -13.5073   17.7673 H   0  0  0  0  0  0
  -27.8251  -11.3162   18.8155 H   0  0  0  0  0  0
  -27.3586  -12.6498   17.7928 H   0  0  0  0  0  0
  -27.6997  -14.2608   19.5763 H   0  0  0  0  0  0
  -28.6935  -11.9731   21.3421 H   0  0  0  0  0  0
  -28.4737  -13.6116   21.8741 H   0  0  0  0  0  0
  -25.2783   -9.5676   22.4782 H   0  0  0  0  0  0
  -23.9991   -7.4638   22.7506 H   0  0  0  0  0  0
  -21.0875   -8.8788   19.8960 H   0  0  0  0  0  0
  -22.3735  -10.9684   19.6166 H   0  0  0  0  0  0
  -21.1989   -7.6144   23.9734 H   0  0  0  0  0  0
  -21.1489   -6.0526   25.9095 H   0  0  0  0  0  0
  -22.0590   -2.7611   23.2853 H   0  0  0  0  0  0
  -22.4027  -11.9909   22.4785 H   0  0  0  0  0  0
  -21.1068  -13.1319   22.2551 H   0  0  0  0  0  0
  -24.6388  -15.8338   20.4742 H   0  0  0  0  0  0
  -26.2592  -15.6303   20.0469 H   0  0  0  0  0  0
  -26.7142  -32.5499   23.1152 H   0  0  0  0  0  0
  -25.0071  -33.9766   25.0469 H   0  0  0  0  0  0
  -22.6990  -31.3084   21.4156 H   0  0  0  0  0  0
  -23.3755  -35.9635   23.3267 H   0  0  0  0  0  0
  -24.3592  -36.8962   22.2056 H   0  0  0  0  0  0
  -23.7231  -37.6500   23.6675 H   0  0  0  0  0  0
  -26.0668  -31.5767   20.6070 H   0  0  0  0  0  0
  -26.8284  -30.8609   21.9986 H   0  0  0  0  0  0
  -28.0996  -29.0434   21.1888 H   0  0  0  0  0  0
  -25.9824  -26.0023   18.9364 H   0  0  0  0  0  0
  -23.9737  -27.3192   19.0094 H   0  0  0  0  0  0
  -23.7280  -30.6028   19.4105 H   0  0  0  0  0  0
  -22.7406  -29.2480   19.8707 H   0  0  0  0  0  0
  -25.1283  -36.1956   25.0826 H   0  0  0  0  0  0
  -20.9938  -28.3233   24.1442 H   0  0  0  0  0  0
  -20.5679  -26.2272   23.3605 H   0  0  0  0  0  0
  -21.6628  -26.7458   22.1200 H   0  0  0  0  0  0
  -19.6895  -25.6298   21.1247 H   0  0  0  0  0  0
  -19.6681  -27.3200   20.6756 H   0  0  0  0  0  0
  -17.4187  -26.6699   21.4010 H   0  0  0  0  0  0
  -18.0285  -26.0068   22.9004 H   0  0  0  0  0  0
  -19.7918  -30.7286   24.2252 H   0  0  0  0  0  0
  -17.4997  -31.6279   24.5152 H   0  0  0  0  0  0
  -15.5335  -30.2990   23.7672 H   0  0  0  0  0  0
  -15.8648  -28.0835   22.7070 H   0  0  0  0  0  0
  -24.5888  -30.7086   25.7809 H   0  0  0  0  0  0
  -24.8963  -32.2872   26.4964 H   0  0  0  0  0  0
  -25.8083  -30.8833   27.0225 H   0  0  0  0  0  0
  -26.2866  -29.6781   24.1197 H   0  0  0  0  0  0
  -27.4032  -29.7258   25.4638 H   0  0  0  0  0  0
  -27.8723  -30.4307   23.9346 H   0  0  0  0  0  0
  -27.2689  -33.3617   26.2068 H   0  0  0  0  0  0
  -28.3877  -32.6837   25.0337 H   0  0  0  0  0  0
  -28.0701  -31.8428   26.5431 H   0  0  0  0  0  0
  -28.2562  -38.0140   24.7563 H   0  0  0  0  0  0
  -28.1127  -36.2677   24.6196 H   0  0  0  0  0  0
  -27.2312  -37.1347   25.8852 H   0  0  0  0  0  0
  -20.9308  -29.8795   21.6985 H   0  0  0  0  0  0
  -26.0168  -38.2859   24.1452 H   0  0  0  0  0  0
  -32.0789  -18.6549   23.7477 H   0  0  0  0  0  0
  -31.9632  -20.4024   22.0123 H   0  0  0  0  0  0
  -31.1835  -16.3899   23.3206 H   0  0  0  0  0  0
  -29.8620  -17.6515   19.4123 H   0  0  0  0  0  0
  -29.1285  -23.1567   17.9290 H   0  0  0  0  0  0
  -30.3855  -24.3064   17.5677 H   0  0  0  0  0  0
  -29.1742  -23.9405   21.6534 H   0  0  0  0  0  0
  -28.3295  -22.9605   20.4917 H   0  0  0  0  0  0
  -32.0284  -23.0107   18.8799 H   0  0  0  0  0  0
  -31.3030  -22.0673   17.6201 H   0  0  0  0  0  0
  -29.8988  -21.5455   21.6253 H   0  0  0  0  0  0
  -31.2327  -22.6466   21.3697 H   0  0  0  0  0  0
  -27.5943  -24.8488   19.3391 H   0  0  0  0  0  0
  -28.5915  -25.7828   18.2557 H   0  0  0  0  0  0
  -29.0643  -15.3103   21.4125 H   0  0  0  0  0  0
  -31.3895  -18.7626   18.1881 H   0  0  0  0  0  0
  -31.1463  -20.3206   17.4705 H   0  0  0  0  0  0
  1 25  1  0  0  0
  1 30  2  0  0  0
  1 85  1  0  0  0
  2  3  1  0  0  0
  2 25  1  0  0  0
  2 88  1  0  0  0
  2 89  1  0  0  0
  3  4  1  0  0  0
  3 90  1  0  0  0
  3 91  1  0  0  0
  4  5  1  0  0  0
  4 92  1  0  0  0
  4 93  1  0  0  0
  5  6  1  0  0  0
  5 26  1  0  0  0
  5 94  1  0  0  0
  6 25  1  0  0  0
  6 95  1  0  0  0
  6 96  1  0  0  0
  7  8  2  0  0  0
  7 26  1  0  0  0
  7 29  1  0  0  0
  8  9  1  0  0  0
  8 22  1  0  0  0
  9 10  1  0  0  0
  9 27  2  0  0  0
 10 11  2  0  0  0
 10 15  1  0  0  0
 11 12  1  0  0  0
 11 97  1  0  0  0
 12 13  2  0  0  0
 12 98  1  0  0  0
 13 14  1  0  0  0
 13 31  1  0  0  0
 14 15  2  0  0  0
 14 99  1  0  0  0
 15100  1  0  0  0
 16 17  2  0  0  0
 16 21  1  0  0  0
 16 31  1  0  0  0
 17 18  1  0  0  0
 17101  1  0  0  0
 18 19  2  0  0  0
 18102  1  0  0  0
 19 20  1  0  0  0
 19 24  1  0  0  0
 20 21  2  0  0  0
 20103  1  0  0  0
 21 23  1  0  0  0
 22 28  1  0  0  0
 22 32  2  0  0  0
 26 27  1  0  0  0
 28104  1  0  0  0
 28105  1  0  0  0
 29106  1  0  0  0
 29107  1  0  0  0
 33 34  1  0  0  0
 33 66  1  0  0  0
 33 70  2  0  0  0
 34 36  1  0  0  0
 34 59  1  0  0  0
 34108  1  0  0  0
 35 44  2  0  0  0
 35 45  1  0  0  0
 35 68  1  0  0  0
 36 56  1  0  0  0
 36109  1  0  0  0
 37 39  1  0  0  0
 37 47  1  0  0  0
 37 66  1  0  0  0
 37110  1  0  0  0
 38 43  2  0  0  0
 38 46  1  0  0  0
 38 47  1  0  0  0
 39 64  1  0  0  0
 39 67  2  0  0  0
 40 52  1  0  0  0
 40 53  2  0  0  0
 40 58  1  0  0  0
 41111  1  0  0  0
 41112  1  0  0  0
 41113  1  0  0  0
 41 48  1  0  0  0
 42 43  1  0  0  0
 42 66  1  0  0  0
 42114  1  0  0  0
 42115  1  0  0  0
 43 44  1  0  0  0
 44116  1  0  0  0
 45 46  2  0  0  0
 45117  1  0  0  0
 46118  1  0  0  0
 47119  1  0  0  0
 47120  1  0  0  0
 48 56  1  0  0  0
 48 65  1  0  0  0
 48121  1  0  0  0
 49 50  1  0  0  0
 49 53  1  0  0  0
 49 64  1  0  0  0
 49122  1  0  0  0
 50 51  1  0  0  0
 50123  1  0  0  0
 50124  1  0  0  0
 51 52  1  0  0  0
 51125  1  0  0  0
 51126  1  0  0  0
 52127  1  0  0  0
 52128  1  0  0  0
 53 54  1  0  0  0
 54 55  2  0  0  0
 54129  1  0  0  0
 55 57  1  0  0  0
 55130  1  0  0  0
 56 69  2  0  0  0
 57 58  2  0  0  0
 57131  1  0  0  0
 58132  1  0  0  0
 59 60  1  0  0  0
 59 61  1  0  0  0
 59 62  1  0  0  0
 60133  1  0  0  0
 60134  1  0  0  0
 60135  1  0  0  0
 61136  1  0  0  0
 61137  1  0  0  0
 61138  1  0  0  0
 62139  1  0  0  0
 62140  1  0  0  0
 62141  1  0  0  0
 63 65  1  0  0  0
 63142  1  0  0  0
 63143  1  0  0  0
 63144  1  0  0  0
 64145  1  0  0  0
 65146  1  0  0  0
 68 83  1  0  0  0
 71 72  2  0  0  0
 71 73  1  0  0  0
 71147  1  0  0  0
 72 75  1  0  0  0
 72148  1  0  0  0
 73 76  2  0  0  0
 73149  1  0  0  0
 74 75  2  0  0  0
 74 76  1  0  0  0
 74150  1  0  0  0
 75 77  1  0  0  0
 76 85  1  0  0  0
 77 84  1  0  0  0
 77 86  2  0  0  0
 78 80  1  0  0  0
 78 82  1  0  0  0
 78151  1  0  0  0
 78152  1  0  0  0
 79 81  1  0  0  0
 79 82  1  0  0  0
 79153  1  0  0  0
 79154  1  0  0  0
 80 84  1  0  0  0
 80155  1  0  0  0
 80156  1  0  0  0
 81 84  1  0  0  0
 81157  1  0  0  0
 81158  1  0  0  0
 82 83  1  0  0  0
 82 87  1  0  0  0
 83159  1  0  0  0
 83160  1  0  0  0
 85161  1  0  0  0
 86162  1  0  0  0
 86163  1  0  0  0
M  CHG  1  86   1
M  ISO  4   1 100  68 101  83 101  85 100
M  END
> <chiral flag>
0

> <version>
0

> <s_m_source_file>
/data/baiqing/PycharmProjects/Reinvent-master-3.2/result/LINK_invent/BTK/process_docking_weight1_custom_product_contain_oxygen_bond_distance_aromatic_linkinvent_7_9_3/rearranged_h_0154.sdf

> <i_m_source_file_index>
40

> <r_mmod_Potential_Energy-OPLS-2005>
-172.699920654297

> <r_mmod_Stretch_Energy-OPLS-2005>
50.6791305541992

> <r_mmod_Bend_Energy-OPLS-2005>
118.441436767578

> <r_mmod_Torsional_Energy-OPLS-2005>
277.714050292969

> <r_mmod_Improper_Torsional_Energy-OPLS-2005>
4.85115242004395

> <r_mmod_Van_der_Waal_Energy-OPLS-2005>
170.316604614258

> <r_mmod_Electrostatic_Energy-OPLS-2005>
-407.072357177734

> <r_mmod_Solvation_Energy-OPLS-2005>
-405.100830078125

> <b_mmod_Minimization_Converged-OPLS-2005>
0

> <r_mmod_RMS_Derivative-OPLS-2005>
2.11598134040833

$$$$
40
                    3D
 Structure written by MMmdl.
164174  0  0  1  0            999 V2000
  -30.7405  -14.3573   20.7168 C   0  0  0  0  0  0
  -30.4262  -12.2894   19.3931 C   0  0  0  0  0  0
  -29.4896  -12.5203   18.1918 C   0  0  0  0  0  0
  -28.0122  -12.3675   18.6082 C   0  0  0  0  0  0
  -27.6659  -13.1898   19.8765 C   0  0  2  0  0  0
  -28.6977  -12.9015   20.9876 C   0  0  0  0  0  0
  -25.2589  -13.8117   20.5645 C   0  0  0  0  0  0
  -24.1817  -13.0404   20.9149 C   0  0  0  0  0  0
  -24.6360  -11.6876   20.8712 C   0  0  0  0  0  0
  -23.9035  -10.4259   21.0404 C   0  0  0  0  0  0
  -24.3609   -9.4190   21.9178 C   0  0  0  0  0  0
  -23.6291   -8.2229   22.0743 C   0  0  0  0  0  0
  -22.4266   -8.0262   21.3549 C   0  0  0  0  0  0
  -21.9897   -9.0209   20.4638 C   0  0  0  0  0  0
  -22.7219  -10.2088   20.3045 C   0  0  0  0  0  0
  -21.6833   -6.0747   22.5296 C   0  0  0  0  0  0
  -21.3999   -6.5639   23.8238 C   0  0  0  0  0  0
  -21.3657   -5.6784   24.9192 C   0  0  0  0  0  0
  -21.6049   -4.3050   24.7234 C   0  0  0  0  0  0
  -21.8815   -3.8152   23.4347 C   0  0  0  0  0  0
  -21.9174   -4.6978   22.3409 C   0  0  0  0  0  0
  -22.7858  -13.5216   21.1843 C   0  0  0  0  0  0
  -22.1641   -4.2182   21.0985 F   0  0  0  0  0  0
  -21.5644   -3.4526   25.7732 F   0  0  0  0  0  0
  -30.0445  -13.2169   20.4682 N   0  0  0  0  0  0
  -26.3009  -12.9252   20.3314 N   0  0  0  0  0  0
  -25.9273  -11.6432   20.5719 N   0  0  0  0  0  0
  -22.0500  -12.8200   22.0413 N   0  0  0  0  0  0
  -25.4346  -15.1833   20.4090 N   0  0  0  0  0  0
  -31.7608  -14.6730   20.0903 O   0  0  0  0  0  0
  -21.6609   -6.8879   21.4256 O   0  0  0  0  0  0
  -22.3552  -14.5524   20.6706 O   0  0  0  0  0  0
  -24.6062  -31.8714   23.2109 C   0  0  0  0  0  0
  -25.8983  -32.4842   23.8397 C   0  0  1  0  0  0
  -27.2767  -27.4987   20.0922 C   0  0  0  0  0  0
  -25.5869  -33.8636   24.2346 N   0  0  0  0  0  0
  -23.3914  -30.4907   21.5442 C   0  0  2  0  0  0
  -24.8499  -28.9573   20.1158 C   0  0  0  0  0  0
  -22.7349  -29.4676   22.4969 C   0  0  0  0  0  0
  -18.0269  -28.1379   22.8496 C   0  0  0  0  0  0
  -24.1486  -36.7343   23.2643 C   0  0  0  0  0  0
  -25.9068  -30.8645   21.3420 C   0  0  0  0  0  0
  -25.9972  -29.4937   20.7104 C   0  0  0  0  0  0
  -27.2061  -28.7742   20.7047 C   0  0  0  0  0  0
  -26.1098  -26.9666   19.5027 C   0  0  0  0  0  0
  -24.8984  -27.6884   19.5119 C   0  0  0  0  0  0
  -23.6020  -29.8085   20.1618 C   0  0  0  0  0  0
  -25.4102  -36.3117   24.0340 C   0  0  1  0  0  0
  -20.5851  -28.3663   23.1324 C   0  0  2  0  0  0
  -20.6755  -26.9407   22.5425 C   0  0  0  0  0  0
  -19.5753  -26.6396   21.5198 C   0  0  0  0  0  0
  -18.1917  -26.7937   22.1606 C   0  0  0  0  0  0
  -19.1515  -28.8827   23.2918 C   0  0  0  0  0  0
  -18.9450  -30.1427   23.8945 C   0  0  0  0  0  0
  -17.6454  -30.6590   24.0556 C   0  0  0  0  0  0
  -25.9014  -34.9483   23.5133 C   0  0  0  0  0  0
  -16.5343  -29.9095   23.6317 C   0  0  0  0  0  0
  -16.7255  -28.6503   23.0350 C   0  0  0  0  0  0
  -26.4508  -31.6571   25.0664 C   0  0  0  0  0  0
  -25.3855  -31.3595   26.1455 C   0  0  0  0  0  0
  -27.0326  -30.3043   24.5917 C   0  0  0  0  0  0
  -27.6084  -32.4273   25.7448 C   0  0  0  0  0  0
  -27.5568  -37.1815   24.8460 C   0  0  0  0  0  0
  -21.4087  -29.3036   22.3719 N   0  0  0  0  0  0
  -26.4284  -37.3803   23.9405 N   0  0  0  0  0  0
  -24.6526  -31.0882   22.0944 N   0  0  0  0  0  0
  -23.4163  -28.8231   23.2982 O   0  0  0  0  0  0
  -28.4286  -26.7420   20.0296 O   0  0  0  0  0  0
  -26.5573  -34.8931   22.4690 O   0  0  0  0  0  0
  -23.5281  -32.1398   23.7575 O   0  0  0  0  0  0
  -30.7480  -18.1464   23.4002 C   0  0  0  0  0  0
  -30.0570  -16.9096   23.2653 C   0  0  0  0  0  0
  -31.8535  -23.1507   20.4839 C   0  0  0  0  0  0
  -33.0710  -21.9802   18.7189 C   0  0  0  0  0  0
  -31.8817  -24.0375   18.2044 C   0  0  0  0  0  0
  -32.6382  -22.0538   20.0600 C   0  0  0  0  0  0
  -31.4577  -24.1319   19.5455 C   0  0  0  0  0  0
  -32.6982  -22.9708   17.7920 C   0  0  0  0  0  0
  -31.6564  -18.2017   22.3762 C   0  0  0  0  0  0
  -30.6259  -16.2965   22.1860 C   0  0  0  0  0  0
  -30.7795  -26.2822   20.5438 C   0  0  0  0  0  0
  -32.6740  -19.4639   20.5910 C   0  0  0  0  0  0
  -32.1850  -20.5761   22.2706 C   0  0  0  0  0  0
  -32.9771  -20.9095   20.9999 C   0  0  0  0  0  0
  -29.6104  -27.2724   20.6491 C   0  0  0  0  0  0
  -32.5999  -19.1962   22.0230 N   0  0  0  0  0  0
  -30.5297  -25.1419   19.8888 N   0  0  0  0  0  0
  -30.2432  -15.0787   21.7347 N   0  0  0  0  0  0
  -31.8758  -26.5512   21.0451 O   0  0  0  0  0  0
  -31.6033  -17.0616   21.6259 O   0  0  0  0  0  0
  -33.0950  -22.8799   16.4996 F   0  0  0  0  0  0
  -31.4695  -12.4033   19.0954 H   0  0  0  0  0  0
  -30.3386  -11.2610   19.7455 H   0  0  0  0  0  0
  -29.7273  -11.8132   17.3939 H   0  0  0  0  0  0
  -29.6570  -13.5180   17.7830 H   0  0  0  0  0  0
  -27.8281  -11.3080   18.7925 H   0  0  0  0  0  0
  -27.3539  -12.6445   17.7835 H   0  0  0  0  0  0
  -27.7317  -14.2455   19.6111 H   0  0  0  0  0  0
  -28.6633  -11.8438   21.2531 H   0  0  0  0  0  0
  -28.4310  -13.4245   21.9066 H   0  0  0  0  0  0
  -25.2759   -9.5662   22.4741 H   0  0  0  0  0  0
  -24.0003   -7.4610   22.7435 H   0  0  0  0  0  0
  -21.0832   -8.8685   19.8937 H   0  0  0  0  0  0
  -22.3664  -10.9604   19.6132 H   0  0  0  0  0  0
  -21.1995   -7.6144   23.9763 H   0  0  0  0  0  0
  -21.1486   -6.0501   25.9099 H   0  0  0  0  0  0
  -22.0608   -2.7625   23.2813 H   0  0  0  0  0  0
  -22.4059  -11.9807   22.4761 H   0  0  0  0  0  0
  -21.1136  -13.1244   22.2663 H   0  0  0  0  0  0
  -24.6726  -15.8429   20.5258 H   0  0  0  0  0  0
  -26.2951  -15.6241   20.1054 H   0  0  0  0  0  0
  -26.7049  -32.5606   23.1184 H   0  0  0  0  0  0
  -25.0018  -33.9820   25.0490 H   0  0  0  0  0  0
  -22.6748  -31.3019   21.3985 H   0  0  0  0  0  0
  -23.3718  -35.9696   23.3321 H   0  0  0  0  0  0
  -24.3580  -36.8947   22.2050 H   0  0  0  0  0  0
  -23.7282  -37.6574   23.6657 H   0  0  0  0  0  0
  -25.9753  -31.6132   20.5524 H   0  0  0  0  0  0
  -26.8100  -30.9558   21.9320 H   0  0  0  0  0  0
  -28.0703  -29.2312   21.1647 H   0  0  0  0  0  0
  -26.1449  -25.9968   19.0266 H   0  0  0  0  0  0
  -24.0185  -27.2687   19.0446 H   0  0  0  0  0  0
  -23.6947  -30.5738   19.3904 H   0  0  0  0  0  0
  -22.7371  -29.2059   19.8767 H   0  0  0  0  0  0
  -25.1279  -36.1975   25.0831 H   0  0  0  0  0  0
  -20.9946  -28.3249   24.1438 H   0  0  0  0  0  0
  -20.5611  -26.2284   23.3617 H   0  0  0  0  0  0
  -21.6628  -26.7416   22.1234 H   0  0  0  0  0  0
  -19.6894  -25.6303   21.1230 H   0  0  0  0  0  0
  -19.6720  -27.3201   20.6729 H   0  0  0  0  0  0
  -17.4193  -26.6686   21.3991 H   0  0  0  0  0  0
  -18.0312  -26.0081   22.8998 H   0  0  0  0  0  0
  -19.7940  -30.7209   24.2343 H   0  0  0  0  0  0
  -17.5034  -31.6279   24.5134 H   0  0  0  0  0  0
  -15.5349  -30.3000   23.7640 H   0  0  0  0  0  0
  -15.8659  -28.0826   22.7051 H   0  0  0  0  0  0
  -24.6006  -30.6977   25.7790 H   0  0  0  0  0  0
  -24.9113  -32.2724   26.5048 H   0  0  0  0  0  0
  -25.8298  -30.8664   27.0105 H   0  0  0  0  0  0
  -26.2774  -29.6758   24.1187 H   0  0  0  0  0  0
  -27.4375  -29.7316   25.4265 H   0  0  0  0  0  0
  -27.8481  -30.4387   23.8808 H   0  0  0  0  0  0
  -27.2679  -33.3519   26.2105 H   0  0  0  0  0  0
  -28.3888  -32.6899   25.0300 H   0  0  0  0  0  0
  -28.0761  -31.8350   26.5315 H   0  0  0  0  0  0
  -28.2581  -38.0116   24.7475 H   0  0  0  0  0  0
  -28.1058  -36.2635   24.6299 H   0  0  0  0  0  0
  -27.2282  -37.1478   25.8867 H   0  0  0  0  0  0
  -20.9216  -29.8757   21.6965 H   0  0  0  0  0  0
  -26.0167  -38.2869   24.1435 H   0  0  0  0  0  0
  -30.5917  -18.9045   24.1554 H   0  0  0  0  0  0
  -29.2581  -16.5257   23.8848 H   0  0  0  0  0  0
  -31.5157  -23.2131   21.5107 H   0  0  0  0  0  0
  -33.6703  -21.1466   18.3796 H   0  0  0  0  0  0
  -31.5716  -24.7762   17.4807 H   0  0  0  0  0  0
  -33.4787  -18.9600   20.0548 H   0  0  0  0  0  0
  -31.7087  -19.3608   20.0875 H   0  0  0  0  0  0
  -31.1085  -20.7275   22.1545 H   0  0  0  0  0  0
  -32.5761  -21.0228   23.1857 H   0  0  0  0  0  0
  -34.0392  -21.0087   21.2436 H   0  0  0  0  0  0
  -29.9044  -28.2075   20.1676 H   0  0  0  0  0  0
  -29.4312  -27.4688   21.7076 H   0  0  0  0  0  0
  -29.6048  -25.0907   19.4800 H   0  0  0  0  0  0
  -29.4481  -14.6626   22.1948 H   0  0  0  0  0  0
  1 25  1  0  0  0
  1 30  2  0  0  0
  1 88  1  0  0  0
  2  3  1  0  0  0
  2 25  1  0  0  0
  2 92  1  0  0  0
  2 93  1  0  0  0
  3  4  1  0  0  0
  3 94  1  0  0  0
  3 95  1  0  0  0
  4  5  1  0  0  0
  4 96  1  0  0  0
  4 97  1  0  0  0
  5  6  1  0  0  0
  5 26  1  0  0  0
  5 98  1  0  0  0
  6 25  1  0  0  0
  6 99  1  0  0  0
  6100  1  0  0  0
  7  8  2  0  0  0
  7 26  1  0  0  0
  7 29  1  0  0  0
  8  9  1  0  0  0
  8 22  1  0  0  0
  9 10  1  0  0  0
  9 27  2  0  0  0
 10 11  2  0  0  0
 10 15  1  0  0  0
 11 12  1  0  0  0
 11101  1  0  0  0
 12 13  2  0  0  0
 12102  1  0  0  0
 13 14  1  0  0  0
 13 31  1  0  0  0
 14 15  2  0  0  0
 14103  1  0  0  0
 15104  1  0  0  0
 16 17  2  0  0  0
 16 21  1  0  0  0
 16 31  1  0  0  0
 17 18  1  0  0  0
 17105  1  0  0  0
 18 19  2  0  0  0
 18106  1  0  0  0
 19 20  1  0  0  0
 19 24  1  0  0  0
 20 21  2  0  0  0
 20107  1  0  0  0
 21 23  1  0  0  0
 22 28  1  0  0  0
 22 32  2  0  0  0
 26 27  1  0  0  0
 28108  1  0  0  0
 28109  1  0  0  0
 29110  1  0  0  0
 29111  1  0  0  0
 33 34  1  0  0  0
 33 66  1  0  0  0
 33 70  2  0  0  0
 34 36  1  0  0  0
 34 59  1  0  0  0
 34112  1  0  0  0
 35 44  2  0  0  0
 35 45  1  0  0  0
 35 68  1  0  0  0
 36 56  1  0  0  0
 36113  1  0  0  0
 37 39  1  0  0  0
 37 47  1  0  0  0
 37 66  1  0  0  0
 37114  1  0  0  0
 38 43  2  0  0  0
 38 46  1  0  0  0
 38 47  1  0  0  0
 39 64  1  0  0  0
 39 67  2  0  0  0
 40 52  1  0  0  0
 40 53  2  0  0  0
 40 58  1  0  0  0
 41115  1  0  0  0
 41116  1  0  0  0
 41117  1  0  0  0
 41 48  1  0  0  0
 42 43  1  0  0  0
 42 66  1  0  0  0
 42118  1  0  0  0
 42119  1  0  0  0
 43 44  1  0  0  0
 44120  1  0  0  0
 45 46  2  0  0  0
 45121  1  0  0  0
 46122  1  0  0  0
 47123  1  0  0  0
 47124  1  0  0  0
 48 56  1  0  0  0
 48 65  1  0  0  0
 48125  1  0  0  0
 49 50  1  0  0  0
 49 53  1  0  0  0
 49 64  1  0  0  0
 49126  1  0  0  0
 50 51  1  0  0  0
 50127  1  0  0  0
 50128  1  0  0  0
 51 52  1  0  0  0
 51129  1  0  0  0
 51130  1  0  0  0
 52131  1  0  0  0
 52132  1  0  0  0
 53 54  1  0  0  0
 54 55  2  0  0  0
 54133  1  0  0  0
 55 57  1  0  0  0
 55134  1  0  0  0
 56 69  2  0  0  0
 57 58  2  0  0  0
 57135  1  0  0  0
 58136  1  0  0  0
 59 60  1  0  0  0
 59 61  1  0  0  0
 59 62  1  0  0  0
 60137  1  0  0  0
 60138  1  0  0  0
 60139  1  0  0  0
 61140  1  0  0  0
 61141  1  0  0  0
 61142  1  0  0  0
 62143  1  0  0  0
 62144  1  0  0  0
 62145  1  0  0  0
 63 65  1  0  0  0
 63146  1  0  0  0
 63147  1  0  0  0
 63148  1  0  0  0
 64149  1  0  0  0
 65150  1  0  0  0
 68 85  1  0  0  0
 71 72  1  0  0  0
 71 79  2  0  0  0
 71151  1  0  0  0
 72 80  2  0  0  0
 72152  1  0  0  0
 73 76  2  0  0  0
 73 77  1  0  0  0
 73153  1  0  0  0
 74 76  1  0  0  0
 74 78  2  0  0  0
 74154  1  0  0  0
 75 77  2  0  0  0
 75 78  1  0  0  0
 75155  1  0  0  0
 76 84  1  0  0  0
 77 87  1  0  0  0
 78 91  1  0  0  0
 79 86  1  0  0  0
 79 90  1  0  0  0
 80 88  1  0  0  0
 80 90  1  0  0  0
 81 85  1  0  0  0
 81 87  1  0  0  0
 81 89  2  0  0  0
 82 84  1  0  0  0
 82 86  1  0  0  0
 82156  1  0  0  0
 82157  1  0  0  0
 83 84  1  0  0  0
 83 86  1  0  0  0
 83158  1  0  0  0
 83159  1  0  0  0
 84160  1  0  0  0
 85161  1  0  0  0
 85162  1  0  0  0
 87163  1  0  0  0
 88164  1  0  0  0
M  ISO  4   1 100  68 101  85 101  88 100
M  END
> <chiral flag>
0

> <version>
0

> <s_m_source_file>
/data/baiqing/PycharmProjects/Reinvent-master-3.2/result/LINK_invent/BTK/process_docking_weight1_custom_product_contain_oxygen_bond_distance_aromatic_linkinvent_7_9_3/rearranged_h_0154.sdf

> <i_m_source_file_index>
41

> <r_mmod_Potential_Energy-OPLS-2005>
-53.8894996643066

> <r_mmod_Stretch_Energy-OPLS-2005>
33.6135482788086

> <r_mmod_Bend_Energy-OPLS-2005>
123.273071289062

> <r_mmod_Torsional_Energy-OPLS-2005>
264.722717285156

> <r_mmod_Improper_Torsional_Energy-OPLS-2005>
10.6388893127441

> <r_mmod_Van_der_Waal_Energy-OPLS-2005>
158.60514831543

> <r_mmod_Electrostatic_Energy-OPLS-2005>
-384.301727294922

> <r_mmod_Solvation_Energy-OPLS-2005>
-266.562347412109

> <b_mmod_Minimization_Converged-OPLS-2005>
0

> <r_mmod_RMS_Derivative-OPLS-2005>
3.33208847045898

$$$$
41
                    3D
 Structure written by MMmdl.
161170  0  0  1  0            999 V2000
  -30.6754  -14.4749   20.5937 C   0  0  0  0  0  0
  -30.4294  -12.3174   19.4098 C   0  0  0  0  0  0
  -29.4956  -12.5151   18.1995 C   0  0  0  0  0  0
  -28.0169  -12.3587   18.6147 C   0  0  0  0  0  0
  -27.6589  -13.1894   19.8747 C   0  0  2  0  0  0
  -28.7015  -12.9619   20.9910 C   0  0  0  0  0  0
  -25.2599  -13.8086   20.5670 C   0  0  0  0  0  0
  -24.1840  -13.0414   20.9180 C   0  0  0  0  0  0
  -24.6369  -11.6869   20.8737 C   0  0  0  0  0  0
  -23.9043  -10.4283   21.0419 C   0  0  0  0  0  0
  -24.3609   -9.4213   21.9195 C   0  0  0  0  0  0
  -23.6288   -8.2259   22.0758 C   0  0  0  0  0  0
  -22.4276   -8.0291   21.3539 C   0  0  0  0  0  0
  -21.9902   -9.0276   20.4651 C   0  0  0  0  0  0
  -22.7230  -10.2147   20.3062 C   0  0  0  0  0  0
  -21.6861   -6.0747   22.5276 C   0  0  0  0  0  0
  -21.4025   -6.5649   23.8207 C   0  0  0  0  0  0
  -21.3644   -5.6793   24.9163 C   0  0  0  0  0  0
  -21.6031   -4.3058   24.7205 C   0  0  0  0  0  0
  -21.8834   -3.8161   23.4328 C   0  0  0  0  0  0
  -21.9197   -4.6981   22.3388 C   0  0  0  0  0  0
  -22.7862  -13.5242   21.1829 C   0  0  0  0  0  0
  -22.1668   -4.2169   21.0966 F   0  0  0  0  0  0
  -21.5604   -3.4536   25.7717 F   0  0  0  0  0  0
  -30.0286  -13.2867   20.4408 N   0  0  0  0  0  0
  -26.3007  -12.9226   20.3358 N   0  0  0  0  0  0
  -25.9288  -11.6403   20.5771 N   0  0  0  0  0  0
  -22.0482  -12.8251   22.0375 N   0  0  0  0  0  0
  -25.4345  -15.1783   20.4029 N   0  0  0  0  0  0
  -31.7949  -14.6987   20.1201 O   0  0  0  0  0  0
  -21.6636   -6.8897   21.4238 O   0  0  0  0  0  0
  -22.3576  -14.5559   20.6654 O   0  0  0  0  0  0
  -24.6155  -31.8700   23.2095 C   0  0  0  0  0  0
  -25.9045  -32.4841   23.8400 C   0  0  1  0  0  0
  -27.2283  -27.4357   20.0863 C   0  0  0  0  0  0
  -25.5911  -33.8636   24.2351 N   0  0  0  0  0  0
  -23.4019  -30.4972   21.5500 C   0  0  2  0  0  0
  -24.8422  -28.9652   20.1131 C   0  0  0  0  0  0
  -22.7404  -29.4675   22.4939 C   0  0  0  0  0  0
  -18.0308  -28.1382   22.8520 C   0  0  0  0  0  0
  -24.1487  -36.7325   23.2637 C   0  0  0  0  0  0
  -25.9313  -30.8378   21.3624 C   0  0  0  0  0  0
  -26.0045  -29.4734   20.7046 C   0  0  0  0  0  0
  -27.1993  -28.7188   20.6797 C   0  0  0  0  0  0
  -26.0397  -26.9354   19.5037 C   0  0  0  0  0  0
  -24.8574  -27.6972   19.5084 C   0  0  0  0  0  0
  -23.6081  -29.8384   20.1617 C   0  0  0  0  0  0
  -25.4107  -36.3132   24.0346 C   0  0  1  0  0  0
  -20.5876  -28.3736   23.1347 C   0  0  2  0  0  0
  -20.6807  -26.9458   22.5454 C   0  0  0  0  0  0
  -19.5781  -26.6307   21.5294 C   0  0  0  0  0  0
  -18.1970  -26.7877   22.1727 C   0  0  0  0  0  0
  -19.1530  -28.8897   23.2874 C   0  0  0  0  0  0
  -18.9412  -30.1522   23.8849 C   0  0  0  0  0  0
  -17.6389  -30.6617   24.0505 C   0  0  0  0  0  0
  -25.9026  -34.9484   23.5137 C   0  0  0  0  0  0
  -16.5308  -29.9073   23.6261 C   0  0  0  0  0  0
  -16.7289  -28.6470   23.0340 C   0  0  0  0  0  0
  -26.4484  -31.6612   25.0720 C   0  0  0  0  0  0
  -25.3770  -31.3673   26.1476 C   0  0  0  0  0  0
  -27.0316  -30.3063   24.6082 C   0  0  0  0  0  0
  -27.6087  -32.4310   25.7473 C   0  0  0  0  0  0
  -27.5591  -37.1817   24.8476 C   0  0  0  0  0  0
  -21.4128  -29.3093   22.3736 N   0  0  0  0  0  0
  -26.4303  -37.3816   23.9412 N   0  0  0  0  0  0
  -24.6679  -31.0848   22.0966 N   0  0  0  0  0  0
  -23.4187  -28.8158   23.2918 O   0  0  0  0  0  0
  -28.4263  -26.7486   20.0683 O   0  0  0  0  0  0
  -26.5598  -34.8915   22.4708 O   0  0  0  0  0  0
  -23.5352  -32.1412   23.7517 O   0  0  0  0  0  0
  -26.0873  -19.7446   19.5146 C   0  0  0  0  0  0
  -26.7090  -18.5952   20.0301 C   0  0  0  0  0  0
  -26.6797  -21.0026   19.7028 C   0  0  0  0  0  0
  -28.5278  -19.9509   20.9222 C   0  0  0  0  0  0
  -27.9310  -18.6753   20.7323 C   0  0  0  0  0  0
  -27.8861  -21.1153   20.4230 C   0  0  0  0  0  0
  -27.9949  -23.2334   21.6072 C   0  0  0  0  0  0
  -29.4269  -17.3931   22.4962 C   0  0  0  0  0  0
  -30.0668  -15.9864   22.4778 C   0  0  0  0  0  0
  -29.3385  -16.5389   20.2836 C   0  0  0  0  0  0
  -28.5135  -17.3628   21.2744 C   0  0  2  0  0  0
  -28.2060  -24.7562   21.4923 C   0  0  0  0  0  0
  -28.4269  -25.3111   20.0657 C   0  0  0  0  0  0
  -29.9156  -15.4713   21.1092 N   0  0  0  0  0  0
  -28.4095  -22.4184   20.6187 N   0  0  0  0  0  0
  -27.4757  -22.7905   22.6366 O   0  0  0  0  0  0
  -31.4712  -12.4364   19.1064 H   0  0  0  0  0  0
  -30.3442  -11.3009   19.7955 H   0  0  0  0  0  0
  -29.7395  -11.7974   17.4151 H   0  0  0  0  0  0
  -29.6578  -13.5058   17.7700 H   0  0  0  0  0  0
  -27.8391  -11.3012   18.8119 H   0  0  0  0  0  0
  -27.3614  -12.6257   17.7849 H   0  0  0  0  0  0
  -27.6983  -14.2336   19.5805 H   0  0  0  0  0  0
  -28.6865  -11.9220   21.3198 H   0  0  0  0  0  0
  -28.4567  -13.5464   21.8782 H   0  0  0  0  0  0
  -25.2771   -9.5690   22.4737 H   0  0  0  0  0  0
  -23.9994   -7.4662   22.7488 H   0  0  0  0  0  0
  -21.0818   -8.8816   19.8969 H   0  0  0  0  0  0
  -22.3722  -10.9686   19.6156 H   0  0  0  0  0  0
  -21.2046   -7.6162   23.9711 H   0  0  0  0  0  0
  -21.1425   -6.0521   25.9057 H   0  0  0  0  0  0
  -22.0626   -2.7626   23.2821 H   0  0  0  0  0  0
  -22.4050  -11.9882   22.4762 H   0  0  0  0  0  0
  -21.1112  -13.1315   22.2559 H   0  0  0  0  0  0
  -24.6718  -15.8388   20.5024 H   0  0  0  0  0  0
  -26.2928  -15.5965   20.0712 H   0  0  0  0  0  0
  -26.7138  -32.5528   23.1175 H   0  0  0  0  0  0
  -25.0062  -33.9821   25.0492 H   0  0  0  0  0  0
  -22.6915  -31.3165   21.4165 H   0  0  0  0  0  0
  -23.3755  -35.9659   23.3317 H   0  0  0  0  0  0
  -24.3585  -36.8918   22.2057 H   0  0  0  0  0  0
  -23.7235  -37.6524   23.6627 H   0  0  0  0  0  0
  -26.0494  -31.6089   20.6003 H   0  0  0  0  0  0
  -26.8180  -30.8873   21.9833 H   0  0  0  0  0  0
  -28.1009  -29.1190   21.1214 H   0  0  0  0  0  0
  -25.9995  -25.9738   19.0158 H   0  0  0  0  0  0
  -23.9620  -27.3094   19.0407 H   0  0  0  0  0  0
  -23.7243  -30.6214   19.4130 H   0  0  0  0  0  0
  -22.7269  -29.2738   19.8554 H   0  0  0  0  0  0
  -25.1281  -36.2013   25.0849 H   0  0  0  0  0  0
  -20.9887  -28.3396   24.1494 H   0  0  0  0  0  0
  -20.5773  -26.2399   23.3709 H   0  0  0  0  0  0
  -21.6676  -26.7473   22.1222 H   0  0  0  0  0  0
  -19.6971  -25.6144   21.1549 H   0  0  0  0  0  0
  -19.6686  -27.2976   20.6696 H   0  0  0  0  0  0
  -17.4232  -26.6564   21.4157 H   0  0  0  0  0  0
  -18.0332  -26.0061   22.9158 H   0  0  0  0  0  0
  -19.7873  -30.7387   24.2239 H   0  0  0  0  0  0
  -17.4864  -31.6319   24.5021 H   0  0  0  0  0  0
  -15.5290  -30.2974   23.7464 H   0  0  0  0  0  0
  -15.8719  -28.0746   22.7036 H   0  0  0  0  0  0
  -24.5961  -30.7020   25.7795 H   0  0  0  0  0  0
  -24.8932  -32.2796   26.4962 H   0  0  0  0  0  0
  -25.8149  -30.8806   27.0209 H   0  0  0  0  0  0
  -26.2846  -29.6813   24.1188 H   0  0  0  0  0  0
  -27.4160  -29.7314   25.4526 H   0  0  0  0  0  0
  -27.8650  -30.4399   23.9182 H   0  0  0  0  0  0
  -27.2747  -33.3604   26.2093 H   0  0  0  0  0  0
  -28.3858  -32.6886   25.0267 H   0  0  0  0  0  0
  -28.0794  -31.8396   26.5333 H   0  0  0  0  0  0
  -28.2621  -38.0102   24.7515 H   0  0  0  0  0  0
  -28.1071  -36.2638   24.6305 H   0  0  0  0  0  0
  -27.2310  -37.1481   25.8878 H   0  0  0  0  0  0
  -20.9226  -29.8985   21.7159 H   0  0  0  0  0  0
  -26.0201  -38.2900   24.1401 H   0  0  0  0  0  0
  -25.1492  -19.6608   18.9847 H   0  0  0  0  0  0
  -26.2250  -17.6430   19.8853 H   0  0  0  0  0  0
  -26.1845  -21.8822   19.3150 H   0  0  0  0  0  0
  -29.4553  -20.0424   21.4672 H   0  0  0  0  0  0
  -30.2095  -18.1412   22.3827 H   0  0  0  0  0  0
  -28.8873  -17.6054   23.4204 H   0  0  0  0  0  0
  -29.5373  -15.3223   23.1604 H   0  0  0  0  0  0
  -31.1113  -16.0153   22.7897 H   0  0  0  0  0  0
  -30.1371  -17.1431   19.8488 H   0  0  0  0  0  0
  -28.7309  -16.1632   19.4618 H   0  0  0  0  0  0
  -27.6512  -16.7542   21.5597 H   0  0  0  0  0  0
  -29.0330  -25.0482   22.1425 H   0  0  0  0  0  0
  -27.3128  -25.2222   21.9101 H   0  0  0  0  0  0
  -27.7277  -24.8849   19.3501 H   0  0  0  0  0  0
  -29.4110  -24.9971   19.7131 H   0  0  0  0  0  0
  -28.8584  -22.8444   19.8185 H   0  0  0  0  0  0
  1 25  1  0  0  0
  1 30  2  0  0  0
  1 84  1  0  0  0
  2  3  1  0  0  0
  2 25  1  0  0  0
  2 87  1  0  0  0
  2 88  1  0  0  0
  3  4  1  0  0  0
  3 89  1  0  0  0
  3 90  1  0  0  0
  4  5  1  0  0  0
  4 91  1  0  0  0
  4 92  1  0  0  0
  5  6  1  0  0  0
  5 26  1  0  0  0
  5 93  1  0  0  0
  6 25  1  0  0  0
  6 94  1  0  0  0
  6 95  1  0  0  0
  7  8  2  0  0  0
  7 26  1  0  0  0
  7 29  1  0  0  0
  8  9  1  0  0  0
  8 22  1  0  0  0
  9 10  1  0  0  0
  9 27  2  0  0  0
 10 11  2  0  0  0
 10 15  1  0  0  0
 11 12  1  0  0  0
 11 96  1  0  0  0
 12 13  2  0  0  0
 12 97  1  0  0  0
 13 14  1  0  0  0
 13 31  1  0  0  0
 14 15  2  0  0  0
 14 98  1  0  0  0
 15 99  1  0  0  0
 16 17  2  0  0  0
 16 21  1  0  0  0
 16 31  1  0  0  0
 17 18  1  0  0  0
 17100  1  0  0  0
 18 19  2  0  0  0
 18101  1  0  0  0
 19 20  1  0  0  0
 19 24  1  0  0  0
 20 21  2  0  0  0
 20102  1  0  0  0
 21 23  1  0  0  0
 22 28  1  0  0  0
 22 32  2  0  0  0
 26 27  1  0  0  0
 28103  1  0  0  0
 28104  1  0  0  0
 29105  1  0  0  0
 29106  1  0  0  0
 33 34  1  0  0  0
 33 66  1  0  0  0
 33 70  2  0  0  0
 34 36  1  0  0  0
 34 59  1  0  0  0
 34107  1  0  0  0
 35 44  2  0  0  0
 35 45  1  0  0  0
 35 68  1  0  0  0
 36 56  1  0  0  0
 36108  1  0  0  0
 37 39  1  0  0  0
 37 47  1  0  0  0
 37 66  1  0  0  0
 37109  1  0  0  0
 38 43  2  0  0  0
 38 46  1  0  0  0
 38 47  1  0  0  0
 39 64  1  0  0  0
 39 67  2  0  0  0
 40 52  1  0  0  0
 40 53  2  0  0  0
 40 58  1  0  0  0
 41110  1  0  0  0
 41111  1  0  0  0
 41112  1  0  0  0
 41 48  1  0  0  0
 42 43  1  0  0  0
 42 66  1  0  0  0
 42113  1  0  0  0
 42114  1  0  0  0
 43 44  1  0  0  0
 44115  1  0  0  0
 45 46  2  0  0  0
 45116  1  0  0  0
 46117  1  0  0  0
 47118  1  0  0  0
 47119  1  0  0  0
 48 56  1  0  0  0
 48 65  1  0  0  0
 48120  1  0  0  0
 49 50  1  0  0  0
 49 53  1  0  0  0
 49 64  1  0  0  0
 49121  1  0  0  0
 50 51  1  0  0  0
 50122  1  0  0  0
 50123  1  0  0  0
 51 52  1  0  0  0
 51124  1  0  0  0
 51125  1  0  0  0
 52126  1  0  0  0
 52127  1  0  0  0
 53 54  1  0  0  0
 54 55  2  0  0  0
 54128  1  0  0  0
 55 57  1  0  0  0
 55129  1  0  0  0
 56 69  2  0  0  0
 57 58  2  0  0  0
 57130  1  0  0  0
 58131  1  0  0  0
 59 60  1  0  0  0
 59 61  1  0  0  0
 59 62  1  0  0  0
 60132  1  0  0  0
 60133  1  0  0  0
 60134  1  0  0  0
 61135  1  0  0  0
 61136  1  0  0  0
 61137  1  0  0  0
 62138  1  0  0  0
 62139  1  0  0  0
 62140  1  0  0  0
 63 65  1  0  0  0
 63141  1  0  0  0
 63142  1  0  0  0
 63143  1  0  0  0
 64144  1  0  0  0
 65145  1  0  0  0
 68 83  1  0  0  0
 71 72  2  0  0  0
 71 73  1  0  0  0
 71146  1  0  0  0
 72 75  1  0  0  0
 72147  1  0  0  0
 73 76  2  0  0  0
 73148  1  0  0  0
 74 75  2  0  0  0
 74 76  1  0  0  0
 74149  1  0  0  0
 75 81  1  0  0  0
 76 85  1  0  0  0
 77 82  1  0  0  0
 77 85  1  0  0  0
 77 86  2  0  0  0
 78 79  1  0  0  0
 78 81  1  0  0  0
 78150  1  0  0  0
 78151  1  0  0  0
 79 84  1  0  0  0
 79152  1  0  0  0
 79153  1  0  0  0
 80 81  1  0  0  0
 80 84  1  0  0  0
 80154  1  0  0  0
 80155  1  0  0  0
 81156  1  0  0  0
 82 83  1  0  0  0
 82157  1  0  0  0
 82158  1  0  0  0
 83159  1  0  0  0
 83160  1  0  0  0
 85161  1  0  0  0
M  ISO  4   1 100  68 101  83 101  84 100
M  END
> <chiral flag>
0

> <version>
0

> <s_m_source_file>
/data/baiqing/PycharmProjects/Reinvent-master-3.2/result/LINK_invent/BTK/process_docking_weight1_custom_product_contain_oxygen_bond_distance_aromatic_linkinvent_7_9_3/rearranged_h_0154.sdf

> <i_m_source_file_index>
42

> <r_mmod_Potential_Energy-OPLS-2005>
166.422821044922

> <r_mmod_Stretch_Energy-OPLS-2005>
37.120677947998

> <r_mmod_Bend_Energy-OPLS-2005>
134.383560180664

> <r_mmod_Torsional_Energy-OPLS-2005>
383.037963867188

> <r_mmod_Improper_Torsional_Energy-OPLS-2005>
8.07679557800293

> <r_mmod_Van_der_Waal_Energy-OPLS-2005>
140.452255249023

> <r_mmod_Electrostatic_Energy-OPLS-2005>
-327.411895751953

> <r_mmod_Solvation_Energy-OPLS-2005>
-221.759292602539

> <b_mmod_Minimization_Converged-OPLS-2005>
0

> <r_mmod_RMS_Derivative-OPLS-2005>
3.77747750282288

$$$$
42
                    3D
 Structure written by MMmdl.
155164  0  0  1  0            999 V2000
  -30.5750  -14.8300   20.4392 C   0  0  0  0  0  0
  -30.4374  -12.5052   19.4930 C   0  0  0  0  0  0
  -29.5180  -12.5183   18.2498 C   0  0  0  0  0  0
  -28.0456  -12.3280   18.6611 C   0  0  0  0  0  0
  -27.6394  -13.2388   19.8500 C   0  0  2  0  0  0
  -28.6816  -13.2033   20.9897 C   0  0  0  0  0  0
  -25.2498  -13.8206   20.5705 C   0  0  0  0  0  0
  -24.1795  -13.0443   20.9213 C   0  0  0  0  0  0
  -24.6397  -11.6924   20.8748 C   0  0  0  0  0  0
  -23.9077  -10.4296   21.0406 C   0  0  0  0  0  0
  -24.3626   -9.4209   21.9183 C   0  0  0  0  0  0
  -23.6298   -8.2245   22.0755 C   0  0  0  0  0  0
  -22.4279   -8.0283   21.3545 C   0  0  0  0  0  0
  -21.9917   -9.0257   20.4647 C   0  0  0  0  0  0
  -22.7249  -10.2135   20.3055 C   0  0  0  0  0  0
  -21.6854   -6.0738   22.5279 C   0  0  0  0  0  0
  -21.4013   -6.5640   23.8213 C   0  0  0  0  0  0
  -21.3659   -5.6794   24.9174 C   0  0  0  0  0  0
  -21.6044   -4.3055   24.7223 C   0  0  0  0  0  0
  -21.8818   -3.8148   23.4344 C   0  0  0  0  0  0
  -21.9193   -4.6966   22.3402 C   0  0  0  0  0  0
  -22.7814  -13.5219   21.1870 C   0  0  0  0  0  0
  -22.1660   -4.2151   21.0981 F   0  0  0  0  0  0
  -21.5630   -3.4540   25.7737 F   0  0  0  0  0  0
  -29.9767  -13.5806   20.4100 N   0  0  0  0  0  0
  -26.2928  -12.9424   20.3281 N   0  0  0  0  0  0
  -25.9330  -11.6561   20.5748 N   0  0  0  0  0  0
  -22.0463  -12.8204   22.0425 N   0  0  0  0  0  0
  -25.4183  -15.1934   20.4130 N   0  0  0  0  0  0
  -31.7602  -14.9174   20.0998 O   0  0  0  0  0  0
  -21.6641   -6.8882   21.4241 O   0  0  0  0  0  0
  -22.3496  -14.5527   20.6722 O   0  0  0  0  0  0
  -24.6377  -31.8502   23.1943 C   0  0  0  0  0  0
  -25.9179  -32.4727   23.8308 C   0  0  1  0  0  0
  -27.2104  -27.1897   20.1355 C   0  0  0  0  0  0
  -25.5955  -33.8534   24.2226 N   0  0  0  0  0  0
  -23.4371  -30.4730   21.5388 C   0  0  2  0  0  0
  -24.8840  -28.9139   20.1065 C   0  0  0  0  0  0
  -22.7538  -29.4578   22.4878 C   0  0  0  0  0  0
  -18.0300  -28.1394   22.8480 C   0  0  0  0  0  0
  -24.1492  -36.7268   23.2640 C   0  0  0  0  0  0
  -25.9896  -30.7384   21.3879 C   0  0  0  0  0  0
  -26.0577  -29.3554   20.7295 C   0  0  0  0  0  0
  -27.2189  -28.5050   20.7367 C   0  0  0  0  0  0
  -26.0200  -26.8546   19.4487 C   0  0  0  0  0  0
  -24.8756  -27.6752   19.4528 C   0  0  0  0  0  0
  -23.6592  -29.8091   20.1545 C   0  0  0  0  0  0
  -25.4119  -36.3049   24.0320 C   0  0  1  0  0  0
  -20.5909  -28.3715   23.1247 C   0  0  2  0  0  0
  -20.6785  -26.9426   22.5401 C   0  0  0  0  0  0
  -19.5757  -26.6384   21.5210 C   0  0  0  0  0  0
  -18.1940  -26.7935   22.1624 C   0  0  0  0  0  0
  -19.1556  -28.8871   23.2858 C   0  0  0  0  0  0
  -18.9473  -30.1469   23.8882 C   0  0  0  0  0  0
  -17.6471  -30.6591   24.0562 C   0  0  0  0  0  0
  -25.9069  -34.9425   23.5075 C   0  0  0  0  0  0
  -16.5363  -29.9087   23.6336 C   0  0  0  0  0  0
  -16.7285  -28.6505   23.0357 C   0  0  0  0  0  0
  -26.4519  -31.6577   25.0728 C   0  0  0  0  0  0
  -25.3717  -31.3750   26.1432 C   0  0  0  0  0  0
  -27.0375  -30.2980   24.6270 C   0  0  0  0  0  0
  -27.6065  -32.4331   25.7500 C   0  0  0  0  0  0
  -27.5574  -37.1791   24.8465 C   0  0  0  0  0  0
  -21.4236  -29.3054   22.3631 N   0  0  0  0  0  0
  -26.4285  -37.3757   23.9408 N   0  0  0  0  0  0
  -24.7077  -31.0406   22.0957 N   0  0  0  0  0  0
  -23.4211  -28.8119   23.2999 O   0  0  0  0  0  0
  -28.2792  -26.2412   20.2342 O   0  0  0  0  0  0
  -26.5645  -34.8911   22.4648 O   0  0  0  0  0  0
  -23.5511  -32.1359   23.7193 O   0  0  0  0  0  0
  -30.8382  -17.8861   19.4828 C   0  0  0  0  0  0
  -30.6530  -19.3167   19.4859 C   0  0  0  0  0  0
  -29.6596  -19.7075   20.3651 C   0  0  0  0  0  0
  -29.9704  -17.3531   20.4013 C   0  0  0  0  0  0
  -28.4929  -23.6068   20.9588 C   0  0  0  0  0  0
  -29.1025  -21.0267   20.9312 C   0  0  0  0  0  0
  -28.9131  -24.2053   18.7147 C   0  0  0  0  0  0
  -29.0654  -22.6525   18.8929 C   0  0  0  0  0  0
  -28.1089  -24.7422   19.9105 C   0  0  2  0  0  0
  -28.9227  -22.3090   20.3248 N   0  0  0  0  0  0
  -31.4527  -20.1676   18.7196 N   0  0  0  0  0  0
  -29.7961  -15.9708   20.7009 N   0  0  0  0  0  0
  -28.7616  -20.9053   22.2294 N   0  3  0  0  0  0
  -28.3655  -23.7378   22.1850 O   0  0  0  0  0  0
  -29.2334  -18.4576   20.9349 O   0  0  0  0  0  0
  -31.4772  -12.6387   19.1898 H   0  0  0  0  0  0
  -30.3983  -11.5357   19.9922 H   0  0  0  0  0  0
  -29.8157  -11.7359   17.5504 H   0  0  0  0  0  0
  -29.6311  -13.4639   17.7173 H   0  0  0  0  0  0
  -27.9158  -11.2812   18.9382 H   0  0  0  0  0  0
  -27.3876  -12.5002   17.8083 H   0  0  0  0  0  0
  -27.6237  -14.2545   19.4541 H   0  0  0  0  0  0
  -28.7346  -12.2103   21.4388 H   0  0  0  0  0  0
  -28.4001  -13.8862   21.7924 H   0  0  0  0  0  0
  -25.2770   -9.5684   22.4758 H   0  0  0  0  0  0
  -24.0007   -7.4635   22.7474 H   0  0  0  0  0  0
  -21.0850   -8.8775   19.8951 H   0  0  0  0  0  0
  -22.3708  -10.9672   19.6164 H   0  0  0  0  0  0
  -21.2003   -7.6147   23.9716 H   0  0  0  0  0  0
  -21.1483   -6.0523   25.9078 H   0  0  0  0  0  0
  -22.0597   -2.7610   23.2844 H   0  0  0  0  0  0
  -22.4079  -11.9864   22.4810 H   0  0  0  0  0  0
  -21.1077  -13.1218   22.2628 H   0  0  0  0  0  0
  -24.6495  -15.8457   20.5231 H   0  0  0  0  0  0
  -26.2612  -15.6332   20.0662 H   0  0  0  0  0  0
  -26.7243  -32.5346   23.1039 H   0  0  0  0  0  0
  -25.0105  -33.9667   25.0375 H   0  0  0  0  0  0
  -22.7370  -31.2974   21.3898 H   0  0  0  0  0  0
  -23.3756  -35.9600   23.3302 H   0  0  0  0  0  0
  -24.3578  -36.8896   22.2054 H   0  0  0  0  0  0
  -23.7248  -37.6469   23.6670 H   0  0  0  0  0  0
  -26.1402  -31.4948   20.6165 H   0  0  0  0  0  0
  -26.8632  -30.7861   22.0265 H   0  0  0  0  0  0
  -28.1095  -28.8331   21.2543 H   0  0  0  0  0  0
  -25.9243  -25.9355   18.8944 H   0  0  0  0  0  0
  -23.9849  -27.3417   18.9382 H   0  0  0  0  0  0
  -23.7904  -30.5866   19.4011 H   0  0  0  0  0  0
  -22.7752  -29.2486   19.8443 H   0  0  0  0  0  0
  -25.1303  -36.1884   25.0813 H   0  0  0  0  0  0
  -21.0000  -28.3299   24.1367 H   0  0  0  0  0  0
  -20.5682  -26.2331   23.3616 H   0  0  0  0  0  0
  -21.6652  -26.7440   22.1194 H   0  0  0  0  0  0
  -19.6923  -25.6289   21.1252 H   0  0  0  0  0  0
  -19.6692  -27.3184   20.6732 H   0  0  0  0  0  0
  -17.4206  -26.6681   21.4029 H   0  0  0  0  0  0
  -18.0342  -26.0077   22.9020 H   0  0  0  0  0  0
  -19.7949  -30.7289   24.2244 H   0  0  0  0  0  0
  -17.5024  -31.6269   24.5168 H   0  0  0  0  0  0
  -15.5363  -30.2987   23.7664 H   0  0  0  0  0  0
  -15.8685  -28.0815   22.7085 H   0  0  0  0  0  0
  -24.5907  -30.7082   25.7758 H   0  0  0  0  0  0
  -24.8890  -32.2924   26.4811 H   0  0  0  0  0  0
  -25.8011  -30.8960   27.0240 H   0  0  0  0  0  0
  -26.2974  -29.6716   24.1277 H   0  0  0  0  0  0
  -27.4009  -29.7264   25.4822 H   0  0  0  0  0  0
  -27.8878  -30.4235   23.9564 H   0  0  0  0  0  0
  -27.2679  -33.3664   26.2010 H   0  0  0  0  0  0
  -28.3907  -32.6835   25.0344 H   0  0  0  0  0  0
  -28.0694  -31.8494   26.5468 H   0  0  0  0  0  0
  -28.2586  -38.0095   24.7512 H   0  0  0  0  0  0
  -28.1077  -36.2623   24.6290 H   0  0  0  0  0  0
  -27.2292  -37.1434   25.8870 H   0  0  0  0  0  0
  -20.9433  -29.8787   21.6835 H   0  0  0  0  0  0
  -26.0158  -38.2828   24.1412 H   0  0  0  0  0  0
  -31.5419  -17.3196   18.8892 H   0  0  0  0  0  0
  -28.4129  -24.4441   17.7763 H   0  0  0  0  0  0
  -29.8962  -24.6756   18.6792 H   0  0  0  0  0  0
  -30.0233  -22.3240   18.4991 H   0  0  0  0  0  0
  -28.2877  -22.1252   18.3398 H   0  0  0  0  0  0
  -27.0626  -24.5072   19.7448 H   0  0  0  0  0  0
  -32.2706  -19.7566   18.2783 H   0  0  0  0  0  0
  -31.6647  -21.0885   19.0886 H   0  0  0  0  0  0
  -28.8991  -15.7482   21.1044 H   0  0  0  0  0  0
  -28.8497  -20.0097   22.6873 H   0  0  0  0  0  0
  -28.4354  -21.7009   22.7652 H   0  0  0  0  0  0
  1 25  1  0  0  0
  1 30  2  0  0  0
  1 82  1  0  0  0
  2  3  1  0  0  0
  2 25  1  0  0  0
  2 86  1  0  0  0
  2 87  1  0  0  0
  3  4  1  0  0  0
  3 88  1  0  0  0
  3 89  1  0  0  0
  4  5  1  0  0  0
  4 90  1  0  0  0
  4 91  1  0  0  0
  5  6  1  0  0  0
  5 26  1  0  0  0
  5 92  1  0  0  0
  6 25  1  0  0  0
  6 93  1  0  0  0
  6 94  1  0  0  0
  7  8  2  0  0  0
  7 26  1  0  0  0
  7 29  1  0  0  0
  8  9  1  0  0  0
  8 22  1  0  0  0
  9 10  1  0  0  0
  9 27  2  0  0  0
 10 11  2  0  0  0
 10 15  1  0  0  0
 11 12  1  0  0  0
 11 95  1  0  0  0
 12 13  2  0  0  0
 12 96  1  0  0  0
 13 14  1  0  0  0
 13 31  1  0  0  0
 14 15  2  0  0  0
 14 97  1  0  0  0
 15 98  1  0  0  0
 16 17  2  0  0  0
 16 21  1  0  0  0
 16 31  1  0  0  0
 17 18  1  0  0  0
 17 99  1  0  0  0
 18 19  2  0  0  0
 18100  1  0  0  0
 19 20  1  0  0  0
 19 24  1  0  0  0
 20 21  2  0  0  0
 20101  1  0  0  0
 21 23  1  0  0  0
 22 28  1  0  0  0
 22 32  2  0  0  0
 26 27  1  0  0  0
 28102  1  0  0  0
 28103  1  0  0  0
 29104  1  0  0  0
 29105  1  0  0  0
 33 34  1  0  0  0
 33 66  1  0  0  0
 33 70  2  0  0  0
 34 36  1  0  0  0
 34 59  1  0  0  0
 34106  1  0  0  0
 35 44  2  0  0  0
 35 45  1  0  0  0
 35 68  1  0  0  0
 36 56  1  0  0  0
 36107  1  0  0  0
 37 39  1  0  0  0
 37 47  1  0  0  0
 37 66  1  0  0  0
 37108  1  0  0  0
 38 43  2  0  0  0
 38 46  1  0  0  0
 38 47  1  0  0  0
 39 64  1  0  0  0
 39 67  2  0  0  0
 40 52  1  0  0  0
 40 53  2  0  0  0
 40 58  1  0  0  0
 41109  1  0  0  0
 41110  1  0  0  0
 41111  1  0  0  0
 41 48  1  0  0  0
 42 43  1  0  0  0
 42 66  1  0  0  0
 42112  1  0  0  0
 42113  1  0  0  0
 43 44  1  0  0  0
 44114  1  0  0  0
 45 46  2  0  0  0
 45115  1  0  0  0
 46116  1  0  0  0
 47117  1  0  0  0
 47118  1  0  0  0
 48 56  1  0  0  0
 48 65  1  0  0  0
 48119  1  0  0  0
 49 50  1  0  0  0
 49 53  1  0  0  0
 49 64  1  0  0  0
 49120  1  0  0  0
 50 51  1  0  0  0
 50121  1  0  0  0
 50122  1  0  0  0
 51 52  1  0  0  0
 51123  1  0  0  0
 51124  1  0  0  0
 52125  1  0  0  0
 52126  1  0  0  0
 53 54  1  0  0  0
 54 55  2  0  0  0
 54127  1  0  0  0
 55 57  1  0  0  0
 55128  1  0  0  0
 56 69  2  0  0  0
 57 58  2  0  0  0
 57129  1  0  0  0
 58130  1  0  0  0
 59 60  1  0  0  0
 59 61  1  0  0  0
 59 62  1  0  0  0
 60131  1  0  0  0
 60132  1  0  0  0
 60133  1  0  0  0
 61134  1  0  0  0
 61135  1  0  0  0
 61136  1  0  0  0
 62137  1  0  0  0
 62138  1  0  0  0
 62139  1  0  0  0
 63 65  1  0  0  0
 63140  1  0  0  0
 63141  1  0  0  0
 63142  1  0  0  0
 64143  1  0  0  0
 65144  1  0  0  0
 68 79  1  0  0  0
 71 72  1  0  0  0
 71 74  2  0  0  0
 71145  1  0  0  0
 72 73  2  0  0  0
 72 81  1  0  0  0
 73 76  1  0  0  0
 73 85  1  0  0  0
 74 82  1  0  0  0
 74 85  1  0  0  0
 75 79  1  0  0  0
 75 80  1  0  0  0
 75 84  2  0  0  0
 76 80  1  0  0  0
 76 83  2  0  0  0
 77 78  1  0  0  0
 77 79  1  0  0  0
 77146  1  0  0  0
 77147  1  0  0  0
 78 80  1  0  0  0
 78148  1  0  0  0
 78149  1  0  0  0
 79150  1  0  0  0
 81151  1  0  0  0
 81152  1  0  0  0
 82153  1  0  0  0
 83154  1  0  0  0
 83155  1  0  0  0
M  CHG  1  83   1
M  ISO  4   1 100  68 101  79 101  82 100
M  END
> <chiral flag>
0

> <version>
0

> <s_m_source_file>
/data/baiqing/PycharmProjects/Reinvent-master-3.2/result/LINK_invent/BTK/process_docking_weight1_custom_product_contain_oxygen_bond_distance_aromatic_linkinvent_7_9_3/rearranged_h_0154.sdf

> <i_m_source_file_index>
43

> <r_mmod_Potential_Energy-OPLS-2005>
262.506622314453

> <r_mmod_Stretch_Energy-OPLS-2005>
169.376419067383

> <r_mmod_Bend_Energy-OPLS-2005>
248.5302734375

> <r_mmod_Torsional_Energy-OPLS-2005>
253.46061706543

> <r_mmod_Improper_Torsional_Energy-OPLS-2005>
8.74491786956787

> <r_mmod_Van_der_Waal_Energy-OPLS-2005>
121.354713439941

> <r_mmod_Electrostatic_Energy-OPLS-2005>
-197.855331420898

> <r_mmod_Solvation_Energy-OPLS-2005>
-472.508544921875

> <b_mmod_Minimization_Converged-OPLS-2005>
0

> <r_mmod_RMS_Derivative-OPLS-2005>
0.601619124412537

$$$$
43
                    3D
 Structure written by MMmdl.
160169  0  0  1  0            999 V2000
  -30.6298  -14.5504   20.5730 C   0  0  0  0  0  0
  -30.4464  -12.3529   19.4284 C   0  0  0  0  0  0
  -29.5082  -12.5149   18.2112 C   0  0  0  0  0  0
  -28.0268  -12.3669   18.6185 C   0  0  0  0  0  0
  -27.6638  -13.2019   19.8750 C   0  0  2  0  0  0
  -28.7056  -12.9741   20.9931 C   0  0  0  0  0  0
  -25.2603  -13.8132   20.5637 C   0  0  0  0  0  0
  -24.1857  -13.0431   20.9183 C   0  0  0  0  0  0
  -24.6398  -11.6890   20.8745 C   0  0  0  0  0  0
  -23.9059  -10.4286   21.0422 C   0  0  0  0  0  0
  -24.3612   -9.4202   21.9204 C   0  0  0  0  0  0
  -23.6282   -8.2237   22.0763 C   0  0  0  0  0  0
  -22.4272   -8.0279   21.3544 C   0  0  0  0  0  0
  -21.9903   -9.0260   20.4655 C   0  0  0  0  0  0
  -22.7224  -10.2142   20.3064 C   0  0  0  0  0  0
  -21.6858   -6.0733   22.5270 C   0  0  0  0  0  0
  -21.4019   -6.5643   23.8202 C   0  0  0  0  0  0
  -21.3651   -5.6789   24.9165 C   0  0  0  0  0  0
  -21.6035   -4.3050   24.7217 C   0  0  0  0  0  0
  -21.8824   -3.8137   23.4341 C   0  0  0  0  0  0
  -21.9196   -4.6956   22.3397 C   0  0  0  0  0  0
  -22.7882  -13.5249   21.1831 C   0  0  0  0  0  0
  -22.1666   -4.2144   21.0977 F   0  0  0  0  0  0
  -21.5617   -3.4533   25.7726 F   0  0  0  0  0  0
  -30.0323  -13.3278   20.4522 N   0  0  0  0  0  0
  -26.3033  -12.9289   20.3323 N   0  0  0  0  0  0
  -25.9321  -11.6461   20.5760 N   0  0  0  0  0  0
  -22.0505  -12.8268   22.0397 N   0  0  0  0  0  0
  -25.4306  -15.1839   20.3949 N   0  0  0  0  0  0
  -31.7514  -14.7911   20.1118 O   0  0  0  0  0  0
  -21.6634   -6.8877   21.4234 O   0  0  0  0  0  0
  -22.3576  -14.5548   20.6661 O   0  0  0  0  0  0
  -24.6176  -31.8637   23.2075 C   0  0  0  0  0  0
  -25.9053  -32.4801   23.8384 C   0  0  1  0  0  0
  -27.2430  -27.3955   20.1159 C   0  0  0  0  0  0
  -25.5898  -33.8599   24.2314 N   0  0  0  0  0  0
  -23.4104  -30.4838   21.5475 C   0  0  2  0  0  0
  -24.8645  -28.9413   20.1201 C   0  0  0  0  0  0
  -22.7434  -29.4616   22.4969 C   0  0  0  0  0  0
  -18.0282  -28.1374   22.8495 C   0  0  0  0  0  0
  -24.1486  -36.7307   23.2640 C   0  0  0  0  0  0
  -25.9427  -30.8158   21.3711 C   0  0  0  0  0  0
  -26.0244  -29.4434   20.7266 C   0  0  0  0  0  0
  -27.2185  -28.6757   20.7274 C   0  0  0  0  0  0
  -26.0702  -26.9183   19.4994 C   0  0  0  0  0  0
  -24.8826  -27.6769   19.5050 C   0  0  0  0  0  0
  -23.6259  -29.8121   20.1647 C   0  0  0  0  0  0
  -25.4101  -36.3091   24.0340 C   0  0  1  0  0  0
  -20.5872  -28.3658   23.1312 C   0  0  2  0  0  0
  -20.6768  -26.9388   22.5421 C   0  0  0  0  0  0
  -19.5749  -26.6376   21.5213 C   0  0  0  0  0  0
  -18.1925  -26.7920   22.1622 C   0  0  0  0  0  0
  -19.1532  -28.8837   23.2898 C   0  0  0  0  0  0
  -18.9453  -30.1444   23.8904 C   0  0  0  0  0  0
  -17.6453  -30.6579   24.0563 C   0  0  0  0  0  0
  -25.9034  -34.9462   23.5124 C   0  0  0  0  0  0
  -16.5347  -29.9075   23.6331 C   0  0  0  0  0  0
  -16.7272  -28.6496   23.0350 C   0  0  0  0  0  0
  -26.4473  -31.6594   25.0727 C   0  0  0  0  0  0
  -25.3730  -31.3733   26.1478 C   0  0  0  0  0  0
  -27.0309  -30.3028   24.6138 C   0  0  0  0  0  0
  -27.6053  -32.4327   25.7475 C   0  0  0  0  0  0
  -27.5584  -37.1795   24.8455 C   0  0  0  0  0  0
  -21.4157  -29.3015   22.3710 N   0  0  0  0  0  0
  -26.4286  -37.3777   23.9414 N   0  0  0  0  0  0
  -24.6746  -31.0706   22.0999 N   0  0  0  0  0  0
  -23.4182  -28.8159   23.3031 O   0  0  0  0  0  0
  -28.3759  -26.6019   20.0548 O   0  0  0  0  0  0
  -26.5595  -34.8913   22.4685 O   0  0  0  0  0  0
  -23.5356  -32.1409   23.7436 O   0  0  0  0  0  0
  -30.6052  -19.2318   20.8704 C   0  0  0  0  0  0
  -30.8243  -17.8220   20.8844 C   0  0  0  0  0  0
  -28.4403  -17.4804   21.0545 C   0  0  0  0  0  0
  -29.3012  -19.7946   20.9577 C   0  0  0  0  0  0
  -29.7376  -16.9201   20.9995 C   0  0  0  0  0  0
  -28.2141  -18.8778   21.0137 C   0  0  0  0  0  0
  -28.6368  -23.6027   19.8851 C   0  0  0  0  0  0
  -28.9418  -24.2989   21.0034 C   0  0  0  0  0  0
  -28.8410  -22.0840   19.7155 C   0  0  0  0  0  0
  -29.5683  -23.5738   22.2000 C   0  0  0  0  0  0
  -30.0756  -22.1341   21.8962 C   0  0  0  0  0  0
  -29.0552  -21.3373   21.0610 C   0  0  2  0  0  0
  -28.6625  -25.8104   21.2274 C   0  0  0  0  0  0
  -26.8926  -19.3256   21.0470 N   0  0  0  0  0  0
  -29.8404  -15.4877   21.1546 N   0  0  0  0  0  0
  -31.4859  -12.4918   19.1254 H   0  0  0  0  0  0
  -30.3860  -11.3385   19.8265 H   0  0  0  0  0  0
  -29.7577  -11.7779   17.4455 H   0  0  0  0  0  0
  -29.6652  -13.4938   17.7550 H   0  0  0  0  0  0
  -27.8407  -11.3098   18.8104 H   0  0  0  0  0  0
  -27.3813  -12.6451   17.7843 H   0  0  0  0  0  0
  -27.7075  -14.2499   19.5795 H   0  0  0  0  0  0
  -28.7042  -11.9279   21.3021 H   0  0  0  0  0  0
  -28.4475  -13.5366   21.8914 H   0  0  0  0  0  0
  -25.2771   -9.5664   22.4777 H   0  0  0  0  0  0
  -23.9979   -7.4626   22.7486 H   0  0  0  0  0  0
  -21.0827   -8.8785   19.8979 H   0  0  0  0  0  0
  -22.3695  -10.9686   19.6168 H   0  0  0  0  0  0
  -21.2030   -7.6153   23.9709 H   0  0  0  0  0  0
  -21.1466   -6.0523   25.9065 H   0  0  0  0  0  0
  -22.0614   -2.7595   23.2851 H   0  0  0  0  0  0
  -22.4105  -11.9927   22.4798 H   0  0  0  0  0  0
  -21.1128  -13.1329   22.2592 H   0  0  0  0  0  0
  -24.6551  -15.8325   20.4717 H   0  0  0  0  0  0
  -26.2512  -15.5961   19.9716 H   0  0  0  0  0  0
  -26.7121  -32.5513   23.1145 H   0  0  0  0  0  0
  -25.0027  -33.9760   25.0441 H   0  0  0  0  0  0
  -22.7003  -31.2999   21.4021 H   0  0  0  0  0  0
  -23.3736  -35.9653   23.3298 H   0  0  0  0  0  0
  -24.3581  -36.8927   22.2056 H   0  0  0  0  0  0
  -23.7250  -37.6512   23.6661 H   0  0  0  0  0  0
  -26.0620  -31.5776   20.5988 H   0  0  0  0  0  0
  -26.8260  -30.8726   21.9949 H   0  0  0  0  0  0
  -28.1154  -29.0587   21.1952 H   0  0  0  0  0  0
  -26.0770  -25.9500   19.0188 H   0  0  0  0  0  0
  -23.9939  -27.2841   19.0304 H   0  0  0  0  0  0
  -23.7362  -30.5841   19.4025 H   0  0  0  0  0  0
  -22.7496  -29.2324   19.8697 H   0  0  0  0  0  0
  -25.1267  -36.1952   25.0832 H   0  0  0  0  0  0
  -20.9972  -28.3233   24.1428 H   0  0  0  0  0  0
  -20.5671  -26.2254   23.3603 H   0  0  0  0  0  0
  -21.6641  -26.7424   22.1220 H   0  0  0  0  0  0
  -19.6912  -25.6291   21.1229 H   0  0  0  0  0  0
  -19.6693  -27.3201   20.6756 H   0  0  0  0  0  0
  -17.4194  -26.6685   21.4024 H   0  0  0  0  0  0
  -18.0308  -26.0060   22.9013 H   0  0  0  0  0  0
  -19.7921  -30.7268   24.2279 H   0  0  0  0  0  0
  -17.4995  -31.6260   24.5161 H   0  0  0  0  0  0
  -15.5347  -30.2976   23.7652 H   0  0  0  0  0  0
  -15.8671  -28.0821   22.7049 H   0  0  0  0  0  0
  -24.5872  -30.7118   25.7811 H   0  0  0  0  0  0
  -24.8954  -32.2908   26.4938 H   0  0  0  0  0  0
  -25.8057  -30.8871   27.0232 H   0  0  0  0  0  0
  -26.2874  -29.6779   24.1179 H   0  0  0  0  0  0
  -27.4049  -29.7281   25.4619 H   0  0  0  0  0  0
  -27.8719  -30.4333   23.9327 H   0  0  0  0  0  0
  -27.2672  -33.3612   26.2093 H   0  0  0  0  0  0
  -28.3832  -32.6923   25.0282 H   0  0  0  0  0  0
  -28.0766  -31.8436   26.5353 H   0  0  0  0  0  0
  -28.2588  -38.0104   24.7508 H   0  0  0  0  0  0
  -28.1091  -36.2636   24.6257 H   0  0  0  0  0  0
  -27.2304  -37.1421   25.8857 H   0  0  0  0  0  0
  -20.9323  -29.8720   21.6913 H   0  0  0  0  0  0
  -26.0170  -38.2852   24.1417 H   0  0  0  0  0  0
  -31.4642  -19.8857   20.8218 H   0  0  0  0  0  0
  -31.8366  -17.4432   20.8485 H   0  0  0  0  0  0
  -27.5902  -16.8186   21.1455 H   0  0  0  0  0  0
  -28.2036  -24.1230   19.0421 H   0  0  0  0  0  0
  -29.6904  -21.9239   19.0501 H   0  0  0  0  0  0
  -27.9673  -21.6741   19.2088 H   0  0  0  0  0  0
  -28.8147  -23.5336   22.9879 H   0  0  0  0  0  0
  -30.3926  -24.1696   22.5934 H   0  0  0  0  0  0
  -30.2674  -21.6203   22.8396 H   0  0  0  0  0  0
  -31.0303  -22.1814   21.3712 H   0  0  0  0  0  0
  -28.1276  -21.4470   21.6235 H   0  0  0  0  0  0
  -29.5508  -26.2478   21.6847 H   0  0  0  0  0  0
  -27.8705  -25.8996   21.9735 H   0  0  0  0  0  0
  -26.1490  -18.6744   20.8163 H   0  0  0  0  0  0
  -26.6946  -20.2727   20.7419 H   0  0  0  0  0  0
  -29.0034  -15.0618   21.5214 H   0  0  0  0  0  0
  1 25  1  0  0  0
  1 30  2  0  0  0
  1 85  1  0  0  0
  2  3  1  0  0  0
  2 25  1  0  0  0
  2 86  1  0  0  0
  2 87  1  0  0  0
  3  4  1  0  0  0
  3 88  1  0  0  0
  3 89  1  0  0  0
  4  5  1  0  0  0
  4 90  1  0  0  0
  4 91  1  0  0  0
  5  6  1  0  0  0
  5 26  1  0  0  0
  5 92  1  0  0  0
  6 25  1  0  0  0
  6 93  1  0  0  0
  6 94  1  0  0  0
  7  8  2  0  0  0
  7 26  1  0  0  0
  7 29  1  0  0  0
  8  9  1  0  0  0
  8 22  1  0  0  0
  9 10  1  0  0  0
  9 27  2  0  0  0
 10 11  2  0  0  0
 10 15  1  0  0  0
 11 12  1  0  0  0
 11 95  1  0  0  0
 12 13  2  0  0  0
 12 96  1  0  0  0
 13 14  1  0  0  0
 13 31  1  0  0  0
 14 15  2  0  0  0
 14 97  1  0  0  0
 15 98  1  0  0  0
 16 17  2  0  0  0
 16 21  1  0  0  0
 16 31  1  0  0  0
 17 18  1  0  0  0
 17 99  1  0  0  0
 18 19  2  0  0  0
 18100  1  0  0  0
 19 20  1  0  0  0
 19 24  1  0  0  0
 20 21  2  0  0  0
 20101  1  0  0  0
 21 23  1  0  0  0
 22 28  1  0  0  0
 22 32  2  0  0  0
 26 27  1  0  0  0
 28102  1  0  0  0
 28103  1  0  0  0
 29104  1  0  0  0
 29105  1  0  0  0
 33 34  1  0  0  0
 33 66  1  0  0  0
 33 70  2  0  0  0
 34 36  1  0  0  0
 34 59  1  0  0  0
 34106  1  0  0  0
 35 44  2  0  0  0
 35 45  1  0  0  0
 35 68  1  0  0  0
 36 56  1  0  0  0
 36107  1  0  0  0
 37 39  1  0  0  0
 37 47  1  0  0  0
 37 66  1  0  0  0
 37108  1  0  0  0
 38 43  2  0  0  0
 38 46  1  0  0  0
 38 47  1  0  0  0
 39 64  1  0  0  0
 39 67  2  0  0  0
 40 52  1  0  0  0
 40 53  2  0  0  0
 40 58  1  0  0  0
 41109  1  0  0  0
 41110  1  0  0  0
 41111  1  0  0  0
 41 48  1  0  0  0
 42 43  1  0  0  0
 42 66  1  0  0  0
 42112  1  0  0  0
 42113  1  0  0  0
 43 44  1  0  0  0
 44114  1  0  0  0
 45 46  2  0  0  0
 45115  1  0  0  0
 46116  1  0  0  0
 47117  1  0  0  0
 47118  1  0  0  0
 48 56  1  0  0  0
 48 65  1  0  0  0
 48119  1  0  0  0
 49 50  1  0  0  0
 49 53  1  0  0  0
 49 64  1  0  0  0
 49120  1  0  0  0
 50 51  1  0  0  0
 50121  1  0  0  0
 50122  1  0  0  0
 51 52  1  0  0  0
 51123  1  0  0  0
 51124  1  0  0  0
 52125  1  0  0  0
 52126  1  0  0  0
 53 54  1  0  0  0
 54 55  2  0  0  0
 54127  1  0  0  0
 55 57  1  0  0  0
 55128  1  0  0  0
 56 69  2  0  0  0
 57 58  2  0  0  0
 57129  1  0  0  0
 58130  1  0  0  0
 59 60  1  0  0  0
 59 61  1  0  0  0
 59 62  1  0  0  0
 60131  1  0  0  0
 60132  1  0  0  0
 60133  1  0  0  0
 61134  1  0  0  0
 61135  1  0  0  0
 61136  1  0  0  0
 62137  1  0  0  0
 62138  1  0  0  0
 62139  1  0  0  0
 63 65  1  0  0  0
 63140  1  0  0  0
 63141  1  0  0  0
 63142  1  0  0  0
 64143  1  0  0  0
 65144  1  0  0  0
 68 83  1  0  0  0
 71 72  2  0  0  0
 71 74  1  0  0  0
 71145  1  0  0  0
 72 75  1  0  0  0
 72146  1  0  0  0
 73 75  2  0  0  0
 73 76  1  0  0  0
 73147  1  0  0  0
 74 76  2  0  0  0
 74 82  1  0  0  0
 75 85  1  0  0  0
 76 84  1  0  0  0
 77 78  2  0  0  0
 77 79  1  0  0  0
 77148  1  0  0  0
 78 80  1  0  0  0
 78 83  1  0  0  0
 79 82  1  0  0  0
 79149  1  0  0  0
 79150  1  0  0  0
 80 81  1  0  0  0
 80151  1  0  0  0
 80152  1  0  0  0
 81 82  1  0  0  0
 81153  1  0  0  0
 81154  1  0  0  0
 82155  1  0  0  0
 83156  1  0  0  0
 83157  1  0  0  0
 84158  1  0  0  0
 84159  1  0  0  0
 85160  1  0  0  0
M  ISO  4   1 100  68 101  83 101  85 100
M  END
> <chiral flag>
0

> <version>
0

> <s_m_source_file>
/data/baiqing/PycharmProjects/Reinvent-master-3.2/result/LINK_invent/BTK/process_docking_weight1_custom_product_contain_oxygen_bond_distance_aromatic_linkinvent_7_9_3/rearranged_h_0154.sdf

> <i_m_source_file_index>
44

> <r_mmod_Potential_Energy-OPLS-2005>
44.6378898620605

> <r_mmod_Stretch_Energy-OPLS-2005>
52.7529182434082

> <r_mmod_Bend_Energy-OPLS-2005>
122.902610778809

> <r_mmod_Torsional_Energy-OPLS-2005>
253.909545898438

> <r_mmod_Improper_Torsional_Energy-OPLS-2005>
7.77893304824829

> <r_mmod_Van_der_Waal_Energy-OPLS-2005>
146.228057861328

> <r_mmod_Electrostatic_Energy-OPLS-2005>
-357.281066894531

> <r_mmod_Solvation_Energy-OPLS-2005>
-204.037353515625

> <b_mmod_Minimization_Converged-OPLS-2005>
0

> <r_mmod_RMS_Derivative-OPLS-2005>
1.88083136081696

$$$$
44
                    3D
 Structure written by MMmdl.
160169  0  0  1  0            999 V2000
  -30.7639  -14.3917   20.6526 C   0  0  0  0  0  0
  -30.4125  -12.2899   19.4155 C   0  0  0  0  0  0
  -29.4870  -12.5096   18.2040 C   0  0  0  0  0  0
  -28.0127  -12.3623   18.6216 C   0  0  0  0  0  0
  -27.6628  -13.2048   19.8768 C   0  0  2  0  0  0
  -28.6997  -12.9780   21.0010 C   0  0  0  0  0  0
  -25.2580  -13.8169   20.5671 C   0  0  0  0  0  0
  -24.1830  -13.0448   20.9169 C   0  0  0  0  0  0
  -24.6381  -11.6911   20.8728 C   0  0  0  0  0  0
  -23.9053  -10.4293   21.0403 C   0  0  0  0  0  0
  -24.3603   -9.4214   21.9187 C   0  0  0  0  0  0
  -23.6281   -8.2251   22.0761 C   0  0  0  0  0  0
  -22.4269   -8.0284   21.3547 C   0  0  0  0  0  0
  -21.9898   -9.0258   20.4651 C   0  0  0  0  0  0
  -22.7225  -10.2135   20.3057 C   0  0  0  0  0  0
  -21.6845   -6.0735   22.5280 C   0  0  0  0  0  0
  -21.4012   -6.5636   23.8218 C   0  0  0  0  0  0
  -21.3660   -5.6783   24.9178 C   0  0  0  0  0  0
  -21.6044   -4.3049   24.7224 C   0  0  0  0  0  0
  -21.8819   -3.8144   23.4347 C   0  0  0  0  0  0
  -21.9190   -4.6961   22.3404 C   0  0  0  0  0  0
  -22.7857  -13.5250   21.1844 C   0  0  0  0  0  0
  -22.1659   -4.2150   21.0977 F   0  0  0  0  0  0
  -21.5633   -3.4536   25.7737 F   0  0  0  0  0  0
  -30.0398  -13.2594   20.4574 N   0  0  0  0  0  0
  -26.3019  -12.9332   20.3360 N   0  0  0  0  0  0
  -25.9308  -11.6494   20.5765 N   0  0  0  0  0  0
  -22.0485  -12.8245   22.0392 N   0  0  0  0  0  0
  -25.4310  -15.1882   20.4102 N   0  0  0  0  0  0
  -31.8223  -14.6204   20.0594 O   0  0  0  0  0  0
  -21.6633   -6.8881   21.4244 O   0  0  0  0  0  0
  -22.3549  -14.5561   20.6695 O   0  0  0  0  0  0
  -24.6113  -31.8695   23.2142 C   0  0  0  0  0  0
  -25.9011  -32.4836   23.8425 C   0  0  1  0  0  0
  -27.2301  -27.4584   20.0935 C   0  0  0  0  0  0
  -25.5876  -33.8636   24.2360 N   0  0  0  0  0  0
  -23.3987  -30.4939   21.5534 C   0  0  2  0  0  0
  -24.8455  -28.9657   20.1154 C   0  0  0  0  0  0
  -22.7405  -29.4656   22.5011 C   0  0  0  0  0  0
  -18.0279  -28.1360   22.8490 C   0  0  0  0  0  0
  -24.1487  -36.7323   23.2637 C   0  0  0  0  0  0
  -25.9251  -30.8447   21.3620 C   0  0  0  0  0  0
  -26.0051  -29.4807   20.7101 C   0  0  0  0  0  0
  -27.2029  -28.7340   20.6962 C   0  0  0  0  0  0
  -26.0594  -26.9577   19.4847 C   0  0  0  0  0  0
  -24.8664  -27.7027   19.4998 C   0  0  0  0  0  0
  -23.6058  -29.8282   20.1678 C   0  0  0  0  0  0
  -25.4102  -36.3127   24.0345 C   0  0  1  0  0  0
  -20.5861  -28.3640   23.1334 C   0  0  2  0  0  0
  -20.6763  -26.9385   22.5414 C   0  0  0  0  0  0
  -19.5746  -26.6376   21.5205 C   0  0  0  0  0  0
  -18.1922  -26.7910   22.1609 C   0  0  0  0  0  0
  -19.1523  -28.8817   23.2904 C   0  0  0  0  0  0
  -18.9459  -30.1417   23.8928 C   0  0  0  0  0  0
  -17.6460  -30.6572   24.0564 C   0  0  0  0  0  0
  -25.9034  -34.9481   23.5154 C   0  0  0  0  0  0
  -16.5351  -29.9076   23.6317 C   0  0  0  0  0  0
  -16.7267  -28.6484   23.0356 C   0  0  0  0  0  0
  -26.4462  -31.6600   25.0729 C   0  0  0  0  0  0
  -25.3742  -31.3653   26.1481 C   0  0  0  0  0  0
  -27.0291  -30.3068   24.6037 C   0  0  0  0  0  0
  -27.6062  -32.4306   25.7469 C   0  0  0  0  0  0
  -27.5593  -37.1799   24.8455 C   0  0  0  0  0  0
  -21.4139  -29.3022   22.3752 N   0  0  0  0  0  0
  -26.4295  -37.3804   23.9427 N   0  0  0  0  0  0
  -24.6631  -31.0827   22.1022 N   0  0  0  0  0  0
  -23.4189  -28.8198   23.3036 O   0  0  0  0  0  0
  -28.3893  -26.7229   20.0867 O   0  0  0  0  0  0
  -26.5601  -34.8915   22.4719 O   0  0  0  0  0  0
  -23.5317  -32.1421   23.7559 O   0  0  0  0  0  0
  -31.1774  -20.1568   20.9549 C   0  0  0  0  0  0
  -32.0461  -20.5913   19.9772 C   0  0  0  0  0  0
  -30.2424  -22.1789   20.4735 C   0  0  0  0  0  0
  -29.3681  -24.4853   20.1877 C   0  0  0  0  0  0
  -30.4157  -18.6720   22.9552 C   0  0  0  0  0  0
  -30.3980  -17.1524   23.2209 C   0  0  0  0  0  0
  -30.9583  -17.6018   20.8912 C   0  0  0  0  0  0
  -31.2918  -18.8495   21.7053 C   0  0  1  0  0  0
  -30.9743  -16.4890   21.9522 C   0  0  2  0  0  0
  -33.2531  -19.8900   19.4418 C   0  0  0  0  0  0
  -28.2732  -25.4298   20.6972 C   0  0  0  0  0  0
  -30.1221  -21.0544   21.1882 N   0  0  0  0  0  0
  -29.3291  -23.2371   20.6843 N   0  0  0  0  0  0
  -30.2694  -15.2721   21.5388 N   0  0  0  0  0  0
  -30.2026  -24.8849   19.3695 O   0  0  0  0  0  0
  -31.6066  -22.1613   19.3617 S   0  0  0  0  0  0
  -31.4578  -12.3751   19.1142 H   0  0  0  0  0  0
  -30.3019  -11.2751   19.8002 H   0  0  0  0  0  0
  -29.7260  -11.7950   17.4152 H   0  0  0  0  0  0
  -29.6548  -13.5021   17.7816 H   0  0  0  0  0  0
  -27.8333  -11.3061   18.8261 H   0  0  0  0  0  0
  -27.3552  -12.6248   17.7918 H   0  0  0  0  0  0
  -27.7131  -14.2536   19.5823 H   0  0  0  0  0  0
  -28.6629  -11.9443   21.3470 H   0  0  0  0  0  0
  -28.4514  -13.5823   21.8738 H   0  0  0  0  0  0
  -25.2741   -9.5699   22.4765 H   0  0  0  0  0  0
  -23.9989   -7.4650   22.7483 H   0  0  0  0  0  0
  -21.0827   -8.8774   19.8958 H   0  0  0  0  0  0
  -22.3679  -10.9677   19.6170 H   0  0  0  0  0  0
  -21.1999   -7.6144   23.9723 H   0  0  0  0  0  0
  -21.1483   -6.0512   25.9079 H   0  0  0  0  0  0
  -22.0595   -2.7607   23.2840 H   0  0  0  0  0  0
  -22.4073  -11.9880   22.4758 H   0  0  0  0  0  0
  -21.1121  -13.1308   22.2632 H   0  0  0  0  0  0
  -24.6658  -15.8441   20.5227 H   0  0  0  0  0  0
  -26.2918  -15.6308   20.1134 H   0  0  0  0  0  0
  -26.7084  -32.5570   23.1194 H   0  0  0  0  0  0
  -24.9998  -33.9811   25.0491 H   0  0  0  0  0  0
  -22.6865  -31.3097   21.4170 H   0  0  0  0  0  0
  -23.3750  -35.9656   23.3277 H   0  0  0  0  0  0
  -24.3585  -36.8964   22.2058 H   0  0  0  0  0  0
  -23.7224  -37.6513   23.6664 H   0  0  0  0  0  0
  -26.0292  -31.6110   20.5930 H   0  0  0  0  0  0
  -26.8157  -30.9030   21.9762 H   0  0  0  0  0  0
  -28.0999  -29.1248   21.1576 H   0  0  0  0  0  0
  -26.0670  -25.9966   18.9906 H   0  0  0  0  0  0
  -23.9771  -27.3076   19.0285 H   0  0  0  0  0  0
  -23.7098  -30.6037   19.4081 H   0  0  0  0  0  0
  -22.7298  -29.2463   19.8754 H   0  0  0  0  0  0
  -25.1268  -36.1998   25.0837 H   0  0  0  0  0  0
  -20.9962  -28.3223   24.1448 H   0  0  0  0  0  0
  -20.5676  -26.2253   23.3596 H   0  0  0  0  0  0
  -21.6634  -26.7438   22.1200 H   0  0  0  0  0  0
  -19.6925  -25.6299   21.1206 H   0  0  0  0  0  0
  -19.6700  -27.3210   20.6759 H   0  0  0  0  0  0
  -17.4191  -26.6663   21.4008 H   0  0  0  0  0  0
  -18.0324  -26.0046   22.8994 H   0  0  0  0  0  0
  -19.7941  -30.7204   24.2334 H   0  0  0  0  0  0
  -17.5018  -31.6270   24.5132 H   0  0  0  0  0  0
  -15.5349  -30.2979   23.7629 H   0  0  0  0  0  0
  -15.8666  -28.0806   22.7072 H   0  0  0  0  0  0
  -24.5956  -30.6965   25.7796 H   0  0  0  0  0  0
  -24.8870  -32.2774   26.4949 H   0  0  0  0  0  0
  -25.8110  -30.8817   27.0224 H   0  0  0  0  0  0
  -26.2809  -29.6815   24.1148 H   0  0  0  0  0  0
  -27.4168  -29.7312   25.4441 H   0  0  0  0  0  0
  -27.8587  -30.4421   23.9094 H   0  0  0  0  0  0
  -27.2734  -33.3606   26.2077 H   0  0  0  0  0  0
  -28.3853  -32.6848   25.0277 H   0  0  0  0  0  0
  -28.0734  -31.8382   26.5350 H   0  0  0  0  0  0
  -28.2573  -38.0132   24.7570 H   0  0  0  0  0  0
  -28.1131  -36.2664   24.6204 H   0  0  0  0  0  0
  -27.2310  -37.1357   25.8853 H   0  0  0  0  0  0
  -20.9294  -29.8746   21.6980 H   0  0  0  0  0  0
  -26.0188  -38.2883   24.1448 H   0  0  0  0  0  0
  -30.7811  -19.2493   23.8049 H   0  0  0  0  0  0
  -29.3947  -18.9985   22.7531 H   0  0  0  0  0  0
  -29.3837  -16.8184   23.4458 H   0  0  0  0  0  0
  -31.0161  -16.9050   24.0853 H   0  0  0  0  0  0
  -31.6734  -17.4261   20.0883 H   0  0  0  0  0  0
  -29.9664  -17.7005   20.4467 H   0  0  0  0  0  0
  -32.3272  -18.7498   22.0360 H   0  0  0  0  0  0
  -32.0171  -16.2332   22.1591 H   0  0  0  0  0  0
  -33.8518  -19.4677   20.2508 H   0  0  0  0  0  0
  -33.8901  -20.5752   18.8808 H   0  0  0  0  0  0
  -32.9658  -19.0792   18.7698 H   0  0  0  0  0  0
  -28.3785  -25.5432   21.7763 H   0  0  0  0  0  0
  -27.3095  -24.9506   20.5275 H   0  0  0  0  0  0
  -28.5834  -23.0472   21.3353 H   0  0  0  0  0  0
  -29.3960  -15.0418   21.9899 H   0  0  0  0  0  0
  1 25  1  0  0  0
  1 30  2  0  0  0
  1 84  1  0  0  0
  2  3  1  0  0  0
  2 25  1  0  0  0
  2 87  1  0  0  0
  2 88  1  0  0  0
  3  4  1  0  0  0
  3 89  1  0  0  0
  3 90  1  0  0  0
  4  5  1  0  0  0
  4 91  1  0  0  0
  4 92  1  0  0  0
  5  6  1  0  0  0
  5 26  1  0  0  0
  5 93  1  0  0  0
  6 25  1  0  0  0
  6 94  1  0  0  0
  6 95  1  0  0  0
  7  8  2  0  0  0
  7 26  1  0  0  0
  7 29  1  0  0  0
  8  9  1  0  0  0
  8 22  1  0  0  0
  9 10  1  0  0  0
  9 27  2  0  0  0
 10 11  2  0  0  0
 10 15  1  0  0  0
 11 12  1  0  0  0
 11 96  1  0  0  0
 12 13  2  0  0  0
 12 97  1  0  0  0
 13 14  1  0  0  0
 13 31  1  0  0  0
 14 15  2  0  0  0
 14 98  1  0  0  0
 15 99  1  0  0  0
 16 17  2  0  0  0
 16 21  1  0  0  0
 16 31  1  0  0  0
 17 18  1  0  0  0
 17100  1  0  0  0
 18 19  2  0  0  0
 18101  1  0  0  0
 19 20  1  0  0  0
 19 24  1  0  0  0
 20 21  2  0  0  0
 20102  1  0  0  0
 21 23  1  0  0  0
 22 28  1  0  0  0
 22 32  2  0  0  0
 26 27  1  0  0  0
 28103  1  0  0  0
 28104  1  0  0  0
 29105  1  0  0  0
 29106  1  0  0  0
 33 34  1  0  0  0
 33 66  1  0  0  0
 33 70  2  0  0  0
 34 36  1  0  0  0
 34 59  1  0  0  0
 34107  1  0  0  0
 35 44  2  0  0  0
 35 45  1  0  0  0
 35 68  1  0  0  0
 36 56  1  0  0  0
 36108  1  0  0  0
 37 39  1  0  0  0
 37 47  1  0  0  0
 37 66  1  0  0  0
 37109  1  0  0  0
 38 43  2  0  0  0
 38 46  1  0  0  0
 38 47  1  0  0  0
 39 64  1  0  0  0
 39 67  2  0  0  0
 40 52  1  0  0  0
 40 53  2  0  0  0
 40 58  1  0  0  0
 41110  1  0  0  0
 41111  1  0  0  0
 41112  1  0  0  0
 41 48  1  0  0  0
 42 43  1  0  0  0
 42 66  1  0  0  0
 42113  1  0  0  0
 42114  1  0  0  0
 43 44  1  0  0  0
 44115  1  0  0  0
 45 46  2  0  0  0
 45116  1  0  0  0
 46117  1  0  0  0
 47118  1  0  0  0
 47119  1  0  0  0
 48 56  1  0  0  0
 48 65  1  0  0  0
 48120  1  0  0  0
 49 50  1  0  0  0
 49 53  1  0  0  0
 49 64  1  0  0  0
 49121  1  0  0  0
 50 51  1  0  0  0
 50122  1  0  0  0
 50123  1  0  0  0
 51 52  1  0  0  0
 51124  1  0  0  0
 51125  1  0  0  0
 52126  1  0  0  0
 52127  1  0  0  0
 53 54  1  0  0  0
 54 55  2  0  0  0
 54128  1  0  0  0
 55 57  1  0  0  0
 55129  1  0  0  0
 56 69  2  0  0  0
 57 58  2  0  0  0
 57130  1  0  0  0
 58131  1  0  0  0
 59 60  1  0  0  0
 59 61  1  0  0  0
 59 62  1  0  0  0
 60132  1  0  0  0
 60133  1  0  0  0
 60134  1  0  0  0
 61135  1  0  0  0
 61136  1  0  0  0
 61137  1  0  0  0
 62138  1  0  0  0
 62139  1  0  0  0
 62140  1  0  0  0
 63 65  1  0  0  0
 63141  1  0  0  0
 63142  1  0  0  0
 63143  1  0  0  0
 64144  1  0  0  0
 65145  1  0  0  0
 68 81  1  0  0  0
 71 72  2  0  0  0
 71 82  1  0  0  0
 71 78  1  0  0  0
 72 80  1  0  0  0
 72 86  1  0  0  0
 73 82  2  0  0  0
 73 83  1  0  0  0
 73 86  1  0  0  0
 74 81  1  0  0  0
 74 83  1  0  0  0
 74 85  2  0  0  0
 75 76  1  0  0  0
 75 78  1  0  0  0
 75146  1  0  0  0
 75147  1  0  0  0
 76 79  1  0  0  0
 76148  1  0  0  0
 76149  1  0  0  0
 77 78  1  0  0  0
 77 79  1  0  0  0
 77150  1  0  0  0
 77151  1  0  0  0
 78152  1  0  0  0
 79 84  1  0  0  0
 79153  1  0  0  0
 80154  1  0  0  0
 80155  1  0  0  0
 80156  1  0  0  0
 81157  1  0  0  0
 81158  1  0  0  0
 83159  1  0  0  0
 84160  1  0  0  0
M  ISO  4   1 100  68 101  81 101  84 100
M  END
> <chiral flag>
0

> <version>
0

> <s_m_source_file>
/data/baiqing/PycharmProjects/Reinvent-master-3.2/result/LINK_invent/BTK/process_docking_weight1_custom_product_contain_oxygen_bond_distance_aromatic_linkinvent_7_9_3/rearranged_h_0154.sdf

> <i_m_source_file_index>
45

> <r_mmod_Potential_Energy-OPLS-2005>
-124.285140991211

> <r_mmod_Stretch_Energy-OPLS-2005>
31.6658592224121

> <r_mmod_Bend_Energy-OPLS-2005>
125.905616760254

> <r_mmod_Torsional_Energy-OPLS-2005>
247.615921020508

> <r_mmod_Improper_Torsional_Energy-OPLS-2005>
1.72161638736725

> <r_mmod_Van_der_Waal_Energy-OPLS-2005>
134.302963256836

> <r_mmod_Electrostatic_Energy-OPLS-2005>
-437.205688476562

> <r_mmod_Solvation_Energy-OPLS-2005>
-236.318832397461

> <b_mmod_Minimization_Converged-OPLS-2005>
0

> <r_mmod_RMS_Derivative-OPLS-2005>
2.08217835426331

$$$$
45
                    3D
 Structure written by MMmdl.
153161  0  0  1  0            999 V2000
  -30.6291  -14.7233   20.4697 C   0  0  0  0  0  0
  -30.4264  -12.4455   19.4685 C   0  0  0  0  0  0
  -29.5053  -12.5033   18.2311 C   0  0  0  0  0  0
  -28.0320  -12.3308   18.6467 C   0  0  0  0  0  0
  -27.6402  -13.2326   19.8479 C   0  0  2  0  0  0
  -28.6840  -13.1672   20.9830 C   0  0  0  0  0  0
  -25.2507  -13.8206   20.5688 C   0  0  0  0  0  0
  -24.1803  -13.0450   20.9211 C   0  0  0  0  0  0
  -24.6394  -11.6926   20.8754 C   0  0  0  0  0  0
  -23.9072  -10.4299   21.0412 C   0  0  0  0  0  0
  -24.3625   -9.4209   21.9186 C   0  0  0  0  0  0
  -23.6300   -8.2244   22.0756 C   0  0  0  0  0  0
  -22.4280   -8.0285   21.3547 C   0  0  0  0  0  0
  -21.9917   -9.0259   20.4649 C   0  0  0  0  0  0
  -22.7246  -10.2137   20.3059 C   0  0  0  0  0  0
  -21.6855   -6.0737   22.5279 C   0  0  0  0  0  0
  -21.4014   -6.5642   23.8212 C   0  0  0  0  0  0
  -21.3659   -5.6795   24.9175 C   0  0  0  0  0  0
  -21.6042   -4.3057   24.7225 C   0  0  0  0  0  0
  -21.8820   -3.8148   23.4347 C   0  0  0  0  0  0
  -21.9193   -4.6965   22.3402 C   0  0  0  0  0  0
  -22.7823  -13.5225   21.1872 C   0  0  0  0  0  0
  -22.1661   -4.2150   21.0979 F   0  0  0  0  0  0
  -21.5629   -3.4539   25.7737 F   0  0  0  0  0  0
  -29.9844  -13.5106   20.3980 N   0  0  0  0  0  0
  -26.2930  -12.9412   20.3269 N   0  0  0  0  0  0
  -25.9321  -11.6555   20.5753 N   0  0  0  0  0  0
  -22.0474  -12.8211   22.0429 N   0  0  0  0  0  0
  -25.4210  -15.1927   20.4078 N   0  0  0  0  0  0
  -31.8223  -14.7974   20.1637 O   0  0  0  0  0  0
  -21.6643   -6.8881   21.4241 O   0  0  0  0  0  0
  -22.3502  -14.5526   20.6716 O   0  0  0  0  0  0
  -24.6301  -31.8555   23.1979 C   0  0  0  0  0  0
  -25.9130  -32.4757   23.8325 C   0  0  1  0  0  0
  -27.2198  -27.2757   20.1359 C   0  0  0  0  0  0
  -25.5933  -33.8560   24.2256 N   0  0  0  0  0  0
  -23.4264  -30.4765   21.5411 C   0  0  2  0  0  0
  -24.8740  -28.9192   20.1148 C   0  0  0  0  0  0
  -22.7494  -29.4604   22.4923 C   0  0  0  0  0  0
  -18.0287  -28.1391   22.8488 C   0  0  0  0  0  0
  -24.1485  -36.7280   23.2642 C   0  0  0  0  0  0
  -25.9701  -30.7744   21.3735 C   0  0  0  0  0  0
  -26.0450  -29.3957   20.7201 C   0  0  0  0  0  0
  -27.2252  -28.5873   20.7151 C   0  0  0  0  0  0
  -26.0290  -26.8546   19.5122 C   0  0  0  0  0  0
  -24.8698  -27.6561   19.5000 C   0  0  0  0  0  0
  -23.6441  -29.8056   20.1588 C   0  0  0  0  0  0
  -25.4116  -36.3072   24.0325 C   0  0  1  0  0  0
  -20.5890  -28.3698   23.1277 C   0  0  2  0  0  0
  -20.6777  -26.9415   22.5414 C   0  0  0  0  0  0
  -19.5754  -26.6386   21.5217 C   0  0  0  0  0  0
  -18.1932  -26.7935   22.1622 C   0  0  0  0  0  0
  -19.1541  -28.8862   23.2875 C   0  0  0  0  0  0
  -18.9465  -30.1463   23.8892 C   0  0  0  0  0  0
  -17.6464  -30.6593   24.0564 C   0  0  0  0  0  0
  -25.9055  -34.9444   23.5093 C   0  0  0  0  0  0
  -16.5353  -29.9091   23.6334 C   0  0  0  0  0  0
  -16.7273  -28.6507   23.0356 C   0  0  0  0  0  0
  -26.4502  -31.6586   25.0714 C   0  0  0  0  0  0
  -25.3728  -31.3741   26.1436 C   0  0  0  0  0  0
  -27.0355  -30.3008   24.6194 C   0  0  0  0  0  0
  -27.6055  -32.4333   25.7490 C   0  0  0  0  0  0
  -27.5576  -37.1796   24.8466 C   0  0  0  0  0  0
  -21.4202  -29.3045   22.3667 N   0  0  0  0  0  0
  -26.4288  -37.3773   23.9410 N   0  0  0  0  0  0
  -24.6947  -31.0531   22.0945 N   0  0  0  0  0  0
  -23.4198  -28.8146   23.3022 O   0  0  0  0  0  0
  -28.3150  -26.3926   20.1295 O   0  0  0  0  0  0
  -26.5626  -34.8921   22.4662 O   0  0  0  0  0  0
  -23.5458  -32.1363   23.7292 O   0  0  0  0  0  0
  -28.3664  -20.4490   19.5171 C   0  0  0  0  0  0
  -28.6981  -19.0214   19.5023 C   0  0  0  0  0  0
  -29.6289  -18.6332   20.4614 C   0  0  0  0  0  0
  -28.9833  -21.2262   20.4786 C   0  0  0  0  0  0
  -28.1303  -18.0904   18.5199 C   0  0  0  0  0  0
  -28.4332  -23.7041   20.0905 C   0  0  0  0  0  0
  -26.9946  -18.6247   17.6549 C   0  0  0  0  0  0
  -30.4518  -17.3001   20.7106 C   0  0  0  0  0  0
  -28.1760  -25.0901   20.8577 C   0  0  0  0  0  0
  -28.8494  -22.5877   20.8009 N   0  0  0  0  0  0
  -29.8968  -15.8790   20.6929 N   0  0  0  0  0  0
  -28.4737  -16.9185   18.3504 O   0  0  0  0  0  0
  -28.2369  -23.6505   18.8730 O   0  0  0  0  0  0
  -30.0060  -20.1014   21.4094 S   0  0  0  0  0  0
  -31.4679  -12.5630   19.1647 H   0  0  0  0  0  0
  -30.3652  -11.4691   19.9515 H   0  0  0  0  0  0
  -29.7851  -11.7295   17.5146 H   0  0  0  0  0  0
  -29.6341  -13.4584   17.7193 H   0  0  0  0  0  0
  -27.8875  -11.2826   18.9105 H   0  0  0  0  0  0
  -27.3737  -12.5237   17.7988 H   0  0  0  0  0  0
  -27.6359  -14.2541   19.4666 H   0  0  0  0  0  0
  -28.7167  -12.1714   21.4277 H   0  0  0  0  0  0
  -28.4233  -13.8548   21.7892 H   0  0  0  0  0  0
  -25.2771   -9.5683   22.4760 H   0  0  0  0  0  0
  -24.0010   -7.4632   22.7472 H   0  0  0  0  0  0
  -21.0850   -8.8774   19.8953 H   0  0  0  0  0  0
  -22.3705  -10.9676   19.6168 H   0  0  0  0  0  0
  -21.2006   -7.6151   23.9715 H   0  0  0  0  0  0
  -21.1479   -6.0526   25.9077 H   0  0  0  0  0  0
  -22.0598   -2.7612   23.2845 H   0  0  0  0  0  0
  -22.4102  -11.9873   22.4809 H   0  0  0  0  0  0
  -21.1091  -13.1226   22.2640 H   0  0  0  0  0  0
  -24.6518  -15.8458   20.5096 H   0  0  0  0  0  0
  -26.2628  -15.6223   20.0472 H   0  0  0  0  0  0
  -26.7195  -32.5414   23.1068 H   0  0  0  0  0  0
  -25.0093  -33.9701   25.0409 H   0  0  0  0  0  0
  -22.7223  -31.2981   21.3935 H   0  0  0  0  0  0
  -23.3753  -35.9605   23.3305 H   0  0  0  0  0  0
  -24.3572  -36.8902   22.2055 H   0  0  0  0  0  0
  -23.7230  -37.6480   23.6663 H   0  0  0  0  0  0
  -26.1043  -31.5341   20.6023 H   0  0  0  0  0  0
  -26.8497  -30.8268   22.0037 H   0  0  0  0  0  0
  -28.1270  -28.9510   21.1874 H   0  0  0  0  0  0
  -25.9934  -25.8820   19.0406 H   0  0  0  0  0  0
  -23.9726  -27.2861   19.0232 H   0  0  0  0  0  0
  -23.7670  -30.5788   19.3997 H   0  0  0  0  0  0
  -22.7626  -29.2372   19.8560 H   0  0  0  0  0  0
  -25.1297  -36.1914   25.0816 H   0  0  0  0  0  0
  -20.9979  -28.3275   24.1399 H   0  0  0  0  0  0
  -20.5683  -26.2307   23.3621 H   0  0  0  0  0  0
  -21.6645  -26.7449   22.1204 H   0  0  0  0  0  0
  -19.6917  -25.6295   21.1252 H   0  0  0  0  0  0
  -19.6692  -27.3193   20.6744 H   0  0  0  0  0  0
  -17.4204  -26.6687   21.4018 H   0  0  0  0  0  0
  -18.0320  -26.0080   22.9017 H   0  0  0  0  0  0
  -19.7941  -30.7279   24.2259 H   0  0  0  0  0  0
  -17.5021  -31.6275   24.5163 H   0  0  0  0  0  0
  -15.5355  -30.2993   23.7671 H   0  0  0  0  0  0
  -15.8669  -28.0827   22.7077 H   0  0  0  0  0  0
  -24.5906  -30.7079   25.7770 H   0  0  0  0  0  0
  -24.8912  -32.2914   26.4832 H   0  0  0  0  0  0
  -25.8047  -30.8942   27.0226 H   0  0  0  0  0  0
  -26.2937  -29.6751   24.1214 H   0  0  0  0  0  0
  -27.4043  -29.7268   25.4706 H   0  0  0  0  0  0
  -27.8807  -30.4291   23.9431 H   0  0  0  0  0  0
  -27.2655  -33.3639   26.2045 H   0  0  0  0  0  0
  -28.3876  -32.6885   25.0328 H   0  0  0  0  0  0
  -28.0710  -31.8473   26.5424 H   0  0  0  0  0  0
  -28.2597  -38.0090   24.7513 H   0  0  0  0  0  0
  -28.1067  -36.2622   24.6290 H   0  0  0  0  0  0
  -27.2295  -37.1441   25.8870 H   0  0  0  0  0  0
  -20.9389  -29.8753   21.6858 H   0  0  0  0  0  0
  -26.0165  -38.2843   24.1419 H   0  0  0  0  0  0
  -27.6660  -20.8700   18.8100 H   0  0  0  0  0  0
  -26.2051  -19.0397   18.2810 H   0  0  0  0  0  0
  -26.5657  -17.8237   17.0539 H   0  0  0  0  0  0
  -27.3599  -19.4003   16.9825 H   0  0  0  0  0  0
  -30.9468  -17.3985   21.6778 H   0  0  0  0  0  0
  -31.2747  -17.3178   19.9937 H   0  0  0  0  0  0
  -28.8722  -25.1305   21.6955 H   0  0  0  0  0  0
  -27.1859  -25.0256   21.3111 H   0  0  0  0  0  0
  -29.0992  -22.8072   21.7566 H   0  0  0  0  0  0
  -28.9091  -15.7686   20.8621 H   0  0  0  0  0  0
  1 25  1  0  0  0
  1 30  2  0  0  0
  1 81  1  0  0  0
  2  3  1  0  0  0
  2 25  1  0  0  0
  2 85  1  0  0  0
  2 86  1  0  0  0
  3  4  1  0  0  0
  3 87  1  0  0  0
  3 88  1  0  0  0
  4  5  1  0  0  0
  4 89  1  0  0  0
  4 90  1  0  0  0
  5  6  1  0  0  0
  5 26  1  0  0  0
  5 91  1  0  0  0
  6 25  1  0  0  0
  6 92  1  0  0  0
  6 93  1  0  0  0
  7  8  2  0  0  0
  7 26  1  0  0  0
  7 29  1  0  0  0
  8  9  1  0  0  0
  8 22  1  0  0  0
  9 10  1  0  0  0
  9 27  2  0  0  0
 10 11  2  0  0  0
 10 15  1  0  0  0
 11 12  1  0  0  0
 11 94  1  0  0  0
 12 13  2  0  0  0
 12 95  1  0  0  0
 13 14  1  0  0  0
 13 31  1  0  0  0
 14 15  2  0  0  0
 14 96  1  0  0  0
 15 97  1  0  0  0
 16 17  2  0  0  0
 16 21  1  0  0  0
 16 31  1  0  0  0
 17 18  1  0  0  0
 17 98  1  0  0  0
 18 19  2  0  0  0
 18 99  1  0  0  0
 19 20  1  0  0  0
 19 24  1  0  0  0
 20 21  2  0  0  0
 20100  1  0  0  0
 21 23  1  0  0  0
 22 28  1  0  0  0
 22 32  2  0  0  0
 26 27  1  0  0  0
 28101  1  0  0  0
 28102  1  0  0  0
 29103  1  0  0  0
 29104  1  0  0  0
 33 34  1  0  0  0
 33 66  1  0  0  0
 33 70  2  0  0  0
 34 36  1  0  0  0
 34 59  1  0  0  0
 34105  1  0  0  0
 35 44  2  0  0  0
 35 45  1  0  0  0
 35 68  1  0  0  0
 36 56  1  0  0  0
 36106  1  0  0  0
 37 39  1  0  0  0
 37 47  1  0  0  0
 37 66  1  0  0  0
 37107  1  0  0  0
 38 43  2  0  0  0
 38 46  1  0  0  0
 38 47  1  0  0  0
 39 64  1  0  0  0
 39 67  2  0  0  0
 40 52  1  0  0  0
 40 53  2  0  0  0
 40 58  1  0  0  0
 41108  1  0  0  0
 41109  1  0  0  0
 41110  1  0  0  0
 41 48  1  0  0  0
 42 43  1  0  0  0
 42 66  1  0  0  0
 42111  1  0  0  0
 42112  1  0  0  0
 43 44  1  0  0  0
 44113  1  0  0  0
 45 46  2  0  0  0
 45114  1  0  0  0
 46115  1  0  0  0
 47116  1  0  0  0
 47117  1  0  0  0
 48 56  1  0  0  0
 48 65  1  0  0  0
 48118  1  0  0  0
 49 50  1  0  0  0
 49 53  1  0  0  0
 49 64  1  0  0  0
 49119  1  0  0  0
 50 51  1  0  0  0
 50120  1  0  0  0
 50121  1  0  0  0
 51 52  1  0  0  0
 51122  1  0  0  0
 51123  1  0  0  0
 52124  1  0  0  0
 52125  1  0  0  0
 53 54  1  0  0  0
 54 55  2  0  0  0
 54126  1  0  0  0
 55 57  1  0  0  0
 55127  1  0  0  0
 56 69  2  0  0  0
 57 58  2  0  0  0
 57128  1  0  0  0
 58129  1  0  0  0
 59 60  1  0  0  0
 59 61  1  0  0  0
 59 62  1  0  0  0
 60130  1  0  0  0
 60131  1  0  0  0
 60132  1  0  0  0
 61133  1  0  0  0
 61134  1  0  0  0
 61135  1  0  0  0
 62136  1  0  0  0
 62137  1  0  0  0
 62138  1  0  0  0
 63 65  1  0  0  0
 63139  1  0  0  0
 63140  1  0  0  0
 63141  1  0  0  0
 64142  1  0  0  0
 65143  1  0  0  0
 68 79  1  0  0  0
 71 72  1  0  0  0
 71 74  2  0  0  0
 71144  1  0  0  0
 72 73  2  0  0  0
 72 75  1  0  0  0
 73 78  1  0  0  0
 73 84  1  0  0  0
 74 80  1  0  0  0
 74 84  1  0  0  0
 75 77  1  0  0  0
 75 82  2  0  0  0
 76 79  1  0  0  0
 76 80  1  0  0  0
 76 83  2  0  0  0
 77145  1  0  0  0
 77146  1  0  0  0
 77147  1  0  0  0
 78 81  1  0  0  0
 78148  1  0  0  0
 78149  1  0  0  0
 79150  1  0  0  0
 79151  1  0  0  0
 80152  1  0  0  0
 81153  1  0  0  0
M  ISO  4   1 100  68 101  79 101  81 100
M  END
> <chiral flag>
0

> <version>
0

> <s_m_source_file>
/data/baiqing/PycharmProjects/Reinvent-master-3.2/result/LINK_invent/BTK/process_docking_weight1_custom_product_contain_oxygen_bond_distance_aromatic_linkinvent_7_9_3/rearranged_h_0154.sdf

> <i_m_source_file_index>
46

> <r_mmod_Potential_Energy-OPLS-2005>
43.5474853515625

> <r_mmod_Stretch_Energy-OPLS-2005>
106.412124633789

> <r_mmod_Bend_Energy-OPLS-2005>
174.897613525391

> <r_mmod_Torsional_Energy-OPLS-2005>
257.888092041016

> <r_mmod_Improper_Torsional_Energy-OPLS-2005>
4.81770515441895

> <r_mmod_Van_der_Waal_Energy-OPLS-2005>
112.288528442383

> <r_mmod_Electrostatic_Energy-OPLS-2005>
-447.333374023438

> <r_mmod_Solvation_Energy-OPLS-2005>
-241.713470458984

> <b_mmod_Minimization_Converged-OPLS-2005>
0

> <r_mmod_RMS_Derivative-OPLS-2005>
0.709126651287079

$$$$
46
                    3D
 Structure written by MMmdl.
167177  0  0  1  0            999 V2000
  -30.7043  -14.4085   20.5301 C   0  0  0  0  0  0
  -30.4209  -12.2571   19.4091 C   0  0  0  0  0  0
  -29.4896  -12.4791   18.1996 C   0  0  0  0  0  0
  -28.0088  -12.3655   18.6129 C   0  0  0  0  0  0
  -27.6628  -13.1959   19.8778 C   0  0  2  0  0  0
  -28.7055  -12.9528   20.9934 C   0  0  0  0  0  0
  -25.2597  -13.8148   20.5691 C   0  0  0  0  0  0
  -24.1830  -13.0434   20.9167 C   0  0  0  0  0  0
  -24.6360  -11.6889   20.8713 C   0  0  0  0  0  0
  -23.9021  -10.4274   21.0383 C   0  0  0  0  0  0
  -24.3573   -9.4194   21.9174 C   0  0  0  0  0  0
  -23.6248   -8.2227   22.0747 C   0  0  0  0  0  0
  -22.4229   -8.0267   21.3543 C   0  0  0  0  0  0
  -21.9851   -9.0237   20.4651 C   0  0  0  0  0  0
  -22.7181  -10.2117   20.3049 C   0  0  0  0  0  0
  -21.6842   -6.0708   22.5263 C   0  0  0  0  0  0
  -21.4023   -6.5616   23.8203 C   0  0  0  0  0  0
  -21.3664   -5.6778   24.9168 C   0  0  0  0  0  0
  -21.6042   -4.3036   24.7223 C   0  0  0  0  0  0
  -21.8831   -3.8130   23.4342 C   0  0  0  0  0  0
  -21.9194   -4.6938   22.3401 C   0  0  0  0  0  0
  -22.7860  -13.5252   21.1844 C   0  0  0  0  0  0
  -22.1673   -4.2125   21.0979 F   0  0  0  0  0  0
  -21.5611   -3.4527   25.7736 F   0  0  0  0  0  0
  -30.0435  -13.2302   20.4408 N   0  0  0  0  0  0
  -26.3019  -12.9294   20.3375 N   0  0  0  0  0  0
  -25.9282  -11.6462   20.5746 N   0  0  0  0  0  0
  -22.0484  -12.8269   22.0406 N   0  0  0  0  0  0
  -25.4342  -15.1871   20.4110 N   0  0  0  0  0  0
  -31.8609  -14.5824   20.1329 O   0  0  0  0  0  0
  -21.6623   -6.8838   21.4222 O   0  0  0  0  0  0
  -22.3566  -14.5568   20.6695 O   0  0  0  0  0  0
  -24.6121  -31.8699   23.2152 C   0  0  0  0  0  0
  -25.9036  -32.4827   23.8420 C   0  0  1  0  0  0
  -27.2335  -27.4724   20.0666 C   0  0  0  0  0  0
  -25.5906  -33.8632   24.2352 N   0  0  0  0  0  0
  -23.3957  -30.4959   21.5568 C   0  0  2  0  0  0
  -24.8348  -28.9627   20.1235 C   0  0  0  0  0  0
  -22.7385  -29.4666   22.5033 C   0  0  0  0  0  0
  -18.0259  -28.1359   22.8487 C   0  0  0  0  0  0
  -24.1483  -36.7347   23.2634 C   0  0  0  0  0  0
  -25.9208  -30.8455   21.3598 C   0  0  0  0  0  0
  -25.9953  -29.4815   20.7095 C   0  0  0  0  0  0
  -27.1941  -28.7427   20.6779 C   0  0  0  0  0  0
  -26.0439  -26.9459   19.5060 C   0  0  0  0  0  0
  -24.8507  -27.6911   19.5282 C   0  0  0  0  0  0
  -23.5993  -29.8289   20.1713 C   0  0  0  0  0  0
  -25.4096  -36.3122   24.0334 C   0  0  1  0  0  0
  -20.5849  -28.3654   23.1329 C   0  0  2  0  0  0
  -20.6753  -26.9392   22.5421 C   0  0  0  0  0  0
  -19.5728  -26.6376   21.5213 C   0  0  0  0  0  0
  -18.1907  -26.7910   22.1619 C   0  0  0  0  0  0
  -19.1507  -28.8825   23.2907 C   0  0  0  0  0  0
  -18.9443  -30.1434   23.8909 C   0  0  0  0  0  0
  -17.6447  -30.6570   24.0570 C   0  0  0  0  0  0
  -25.9029  -34.9481   23.5137 C   0  0  0  0  0  0
  -16.5337  -29.9079   23.6318 C   0  0  0  0  0  0
  -16.7251  -28.6496   23.0336 C   0  0  0  0  0  0
  -26.4479  -31.6589   25.0730 C   0  0  0  0  0  0
  -25.3767  -31.3694   26.1498 C   0  0  0  0  0  0
  -27.0296  -30.3029   24.6092 C   0  0  0  0  0  0
  -27.6070  -32.4288   25.7477 C   0  0  0  0  0  0
  -27.5580  -37.1819   24.8451 C   0  0  0  0  0  0
  -21.4124  -29.3031   22.3761 N   0  0  0  0  0  0
  -26.4287  -37.3801   23.9401 N   0  0  0  0  0  0
  -24.6620  -31.0844   22.1031 N   0  0  0  0  0  0
  -23.4172  -28.8196   23.3052 O   0  0  0  0  0  0
  -28.4512  -26.8341   20.0204 O   0  0  0  0  0  0
  -26.5588  -34.8930   22.4694 O   0  0  0  0  0  0
  -23.5329  -32.1430   23.7582 O   0  0  0  0  0  0
  -29.4467  -17.6872   17.9246 C   0  0  0  0  0  0
  -29.9143  -18.9087   18.4407 C   0  0  0  0  0  0
  -29.4352  -16.5417   18.7371 C   0  0  0  0  0  0
  -30.3700  -17.8332   20.5841 C   0  0  0  0  0  0
  -30.3745  -18.9909   19.7766 C   0  0  0  0  0  0
  -29.9151  -16.6074   20.0636 C   0  0  0  0  0  0
  -31.3815  -21.3366   19.3839 C   0  0  0  0  0  0
  -29.7019  -20.9049   21.2451 C   0  0  0  0  0  0
  -31.8204  -22.6358   20.0861 C   0  0  0  0  0  0
  -30.1348  -22.2101   21.9305 C   0  0  0  0  0  0
  -28.4946  -24.4913   20.7072 C   0  0  0  0  0  0
  -29.9659  -25.0593   19.3669 C   0  0  0  0  0  0
  -30.8364  -20.3029   20.3953 C   0  0  1  0  0  0
  -30.6818  -23.2535   20.9311 C   0  0  2  0  0  0
  -28.5215  -25.4937   19.5579 C   0  0  2  0  0  0
  -29.9332  -15.4470   20.8682 N   0  0  0  0  0  0
  -29.6185  -23.8182   20.0570 N   0  3  1  0  0  0
  -31.4639  -12.3496   19.1015 H   0  0  0  0  0  0
  -30.3147  -11.2420   19.7929 H   0  0  0  0  0  0
  -29.7107  -11.7505   17.4177 H   0  0  0  0  0  0
  -29.6764  -13.4584   17.7604 H   0  0  0  0  0  0
  -27.7998  -11.3107   18.7952 H   0  0  0  0  0  0
  -27.3657  -12.6632   17.7848 H   0  0  0  0  0  0
  -27.7087  -14.2452   19.5927 H   0  0  0  0  0  0
  -28.6607  -11.9152   21.3278 H   0  0  0  0  0  0
  -28.4864  -13.5526   21.8781 H   0  0  0  0  0  0
  -25.2705   -9.5672   22.4765 H   0  0  0  0  0  0
  -23.9948   -7.4618   22.7467 H   0  0  0  0  0  0
  -21.0771   -8.8759   19.8968 H   0  0  0  0  0  0
  -22.3620  -10.9657   19.6169 H   0  0  0  0  0  0
  -21.2037   -7.6127   23.9692 H   0  0  0  0  0  0
  -21.1474   -6.0513   25.9069 H   0  0  0  0  0  0
  -22.0608   -2.7585   23.2855 H   0  0  0  0  0  0
  -22.4049  -11.9918   22.4811 H   0  0  0  0  0  0
  -21.1128  -13.1364   22.2632 H   0  0  0  0  0  0
  -24.6720  -15.8459   20.5266 H   0  0  0  0  0  0
  -26.2924  -15.6261   20.1029 H   0  0  0  0  0  0
  -26.7115  -32.5541   23.1194 H   0  0  0  0  0  0
  -25.0036  -33.9780   25.0486 H   0  0  0  0  0  0
  -22.6826  -31.3121   21.4218 H   0  0  0  0  0  0
  -23.3722  -35.9701   23.3293 H   0  0  0  0  0  0
  -24.3599  -36.8970   22.2053 H   0  0  0  0  0  0
  -23.7271  -37.6568   23.6657 H   0  0  0  0  0  0
  -26.0273  -31.6095   20.5888 H   0  0  0  0  0  0
  -26.8132  -30.9008   21.9720 H   0  0  0  0  0  0
  -28.0987  -29.1502   21.1086 H   0  0  0  0  0  0
  -26.0030  -25.9778   19.0326 H   0  0  0  0  0  0
  -23.9533  -27.2819   19.0848 H   0  0  0  0  0  0
  -23.7108  -30.6021   19.4103 H   0  0  0  0  0  0
  -22.7220  -29.2505   19.8767 H   0  0  0  0  0  0
  -25.1263  -36.1994   25.0828 H   0  0  0  0  0  0
  -20.9935  -28.3221   24.1452 H   0  0  0  0  0  0
  -20.5666  -26.2264   23.3607 H   0  0  0  0  0  0
  -21.6632  -26.7447   22.1220 H   0  0  0  0  0  0
  -19.6908  -25.6299   21.1221 H   0  0  0  0  0  0
  -19.6661  -27.3204   20.6758 H   0  0  0  0  0  0
  -17.4191  -26.6671   21.4008 H   0  0  0  0  0  0
  -18.0294  -26.0034   22.8992 H   0  0  0  0  0  0
  -19.7916  -30.7248   24.2279 H   0  0  0  0  0  0
  -17.4998  -31.6242   24.5182 H   0  0  0  0  0  0
  -15.5338  -30.2989   23.7623 H   0  0  0  0  0  0
  -15.8650  -28.0828   22.7029 H   0  0  0  0  0  0
  -24.5930  -30.7040   25.7866 H   0  0  0  0  0  0
  -24.8958  -32.2841   26.4971 H   0  0  0  0  0  0
  -25.8131  -30.8864   27.0249 H   0  0  0  0  0  0
  -26.2823  -29.6788   24.1180 H   0  0  0  0  0  0
  -27.4105  -29.7272   25.4544 H   0  0  0  0  0  0
  -27.8642  -30.4339   23.9197 H   0  0  0  0  0  0
  -27.2710  -33.3567   26.2120 H   0  0  0  0  0  0
  -28.3844  -32.6887   25.0277 H   0  0  0  0  0  0
  -28.0789  -31.8375   26.5336 H   0  0  0  0  0  0
  -28.2596  -38.0117   24.7510 H   0  0  0  0  0  0
  -28.1073  -36.2658   24.6240 H   0  0  0  0  0  0
  -27.2317  -37.1449   25.8858 H   0  0  0  0  0  0
  -20.9292  -29.8779   21.7003 H   0  0  0  0  0  0
  -26.0176  -38.2880   24.1393 H   0  0  0  0  0  0
  -29.0921  -17.6266   16.9047 H   0  0  0  0  0  0
  -29.8935  -19.7710   17.7917 H   0  0  0  0  0  0
  -29.0690  -15.6143   18.3237 H   0  0  0  0  0  0
  -30.7183  -17.8898   21.6067 H   0  0  0  0  0  0
  -32.2235  -20.9124   18.8351 H   0  0  0  0  0  0
  -30.6282  -21.5856   18.6374 H   0  0  0  0  0  0
  -28.8212  -21.0732   20.6248 H   0  0  0  0  0  0
  -29.3909  -20.1893   22.0064 H   0  0  0  0  0  0
  -32.1878  -23.3522   19.3498 H   0  0  0  0  0  0
  -32.6700  -22.4199   20.7350 H   0  0  0  0  0  0
  -30.9202  -21.9781   22.6514 H   0  0  0  0  0  0
  -29.3127  -22.6186   22.5190 H   0  0  0  0  0  0
  -27.5894  -23.8867   20.7665 H   0  0  0  0  0  0
  -28.7562  -24.9327   21.6713 H   0  0  0  0  0  0
  -30.6791  -25.6809   19.9118 H   0  0  0  0  0  0
  -30.2633  -24.9164   18.3277 H   0  0  0  0  0  0
  -31.6634  -20.0558   21.0655 H   0  0  0  0  0  0
  -31.0992  -24.0737   21.5184 H   0  0  0  0  0  0
  -27.9272  -25.2245   18.6824 H   0  0  0  0  0  0
  -29.0468  -15.1844   21.2729 H   0  0  0  0  0  0
  -29.2668  -23.1413   19.3961 H   0  0  0  0  0  0
  1 25  1  0  0  0
  1 30  2  0  0  0
  1 86  1  0  0  0
  2  3  1  0  0  0
  2 25  1  0  0  0
  2 88  1  0  0  0
  2 89  1  0  0  0
  3  4  1  0  0  0
  3 90  1  0  0  0
  3 91  1  0  0  0
  4  5  1  0  0  0
  4 92  1  0  0  0
  4 93  1  0  0  0
  5  6  1  0  0  0
  5 26  1  0  0  0
  5 94  1  0  0  0
  6 25  1  0  0  0
  6 95  1  0  0  0
  6 96  1  0  0  0
  7  8  2  0  0  0
  7 26  1  0  0  0
  7 29  1  0  0  0
  8  9  1  0  0  0
  8 22  1  0  0  0
  9 10  1  0  0  0
  9 27  2  0  0  0
 10 11  2  0  0  0
 10 15  1  0  0  0
 11 12  1  0  0  0
 11 97  1  0  0  0
 12 13  2  0  0  0
 12 98  1  0  0  0
 13 14  1  0  0  0
 13 31  1  0  0  0
 14 15  2  0  0  0
 14 99  1  0  0  0
 15100  1  0  0  0
 16 17  2  0  0  0
 16 21  1  0  0  0
 16 31  1  0  0  0
 17 18  1  0  0  0
 17101  1  0  0  0
 18 19  2  0  0  0
 18102  1  0  0  0
 19 20  1  0  0  0
 19 24  1  0  0  0
 20 21  2  0  0  0
 20103  1  0  0  0
 21 23  1  0  0  0
 22 28  1  0  0  0
 22 32  2  0  0  0
 26 27  1  0  0  0
 28104  1  0  0  0
 28105  1  0  0  0
 29106  1  0  0  0
 29107  1  0  0  0
 33 34  1  0  0  0
 33 66  1  0  0  0
 33 70  2  0  0  0
 34 36  1  0  0  0
 34 59  1  0  0  0
 34108  1  0  0  0
 35 44  2  0  0  0
 35 45  1  0  0  0
 35 68  1  0  0  0
 36 56  1  0  0  0
 36109  1  0  0  0
 37 39  1  0  0  0
 37 47  1  0  0  0
 37 66  1  0  0  0
 37110  1  0  0  0
 38 43  2  0  0  0
 38 46  1  0  0  0
 38 47  1  0  0  0
 39 64  1  0  0  0
 39 67  2  0  0  0
 40 52  1  0  0  0
 40 53  2  0  0  0
 40 58  1  0  0  0
 41111  1  0  0  0
 41112  1  0  0  0
 41113  1  0  0  0
 41 48  1  0  0  0
 42 43  1  0  0  0
 42 66  1  0  0  0
 42114  1  0  0  0
 42115  1  0  0  0
 43 44  1  0  0  0
 44116  1  0  0  0
 45 46  2  0  0  0
 45117  1  0  0  0
 46118  1  0  0  0
 47119  1  0  0  0
 47120  1  0  0  0
 48 56  1  0  0  0
 48 65  1  0  0  0
 48121  1  0  0  0
 49 50  1  0  0  0
 49 53  1  0  0  0
 49 64  1  0  0  0
 49122  1  0  0  0
 50 51  1  0  0  0
 50123  1  0  0  0
 50124  1  0  0  0
 51 52  1  0  0  0
 51125  1  0  0  0
 51126  1  0  0  0
 52127  1  0  0  0
 52128  1  0  0  0
 53 54  1  0  0  0
 54 55  2  0  0  0
 54129  1  0  0  0
 55 57  1  0  0  0
 55130  1  0  0  0
 56 69  2  0  0  0
 57 58  2  0  0  0
 57131  1  0  0  0
 58132  1  0  0  0
 59 60  1  0  0  0
 59 61  1  0  0  0
 59 62  1  0  0  0
 60133  1  0  0  0
 60134  1  0  0  0
 60135  1  0  0  0
 61136  1  0  0  0
 61137  1  0  0  0
 61138  1  0  0  0
 62139  1  0  0  0
 62140  1  0  0  0
 62141  1  0  0  0
 63 65  1  0  0  0
 63142  1  0  0  0
 63143  1  0  0  0
 63144  1  0  0  0
 64145  1  0  0  0
 65146  1  0  0  0
 68 85  1  0  0  0
 71 72  2  0  0  0
 71 73  1  0  0  0
 71147  1  0  0  0
 72 75  1  0  0  0
 72148  1  0  0  0
 73 76  2  0  0  0
 73149  1  0  0  0
 74 75  2  0  0  0
 74 76  1  0  0  0
 74150  1  0  0  0
 75 83  1  0  0  0
 76 86  1  0  0  0
 77 79  1  0  0  0
 77 83  1  0  0  0
 77151  1  0  0  0
 77152  1  0  0  0
 78 80  1  0  0  0
 78 83  1  0  0  0
 78153  1  0  0  0
 78154  1  0  0  0
 79155  1  0  0  0
 79156  1  0  0  0
 79 84  1  0  0  0
 80 84  1  0  0  0
 80157  1  0  0  0
 80158  1  0  0  0
 81 85  1  0  0  0
 81159  1  0  0  0
 81160  1  0  0  0
 81 87  1  0  0  0
 82 85  1  0  0  0
 82 87  1  0  0  0
 82161  1  0  0  0
 82162  1  0  0  0
 83163  1  0  0  0
 84 87  1  0  0  0
 84164  1  0  0  0
 85165  1  0  0  0
 86166  1  0  0  0
 87167  1  0  0  0
M  CHG  1  87   1
M  ISO  4   1 100  68 101  85 101  86 100
M  END
> <chiral flag>
0

> <version>
0

> <s_m_source_file>
/data/baiqing/PycharmProjects/Reinvent-master-3.2/result/LINK_invent/BTK/process_docking_weight1_custom_product_contain_oxygen_bond_distance_aromatic_linkinvent_7_9_3/rearranged_h_0154.sdf

> <i_m_source_file_index>
47

> <r_mmod_Potential_Energy-OPLS-2005>
-114.079200744629

> <r_mmod_Stretch_Energy-OPLS-2005>
32.2133674621582

> <r_mmod_Bend_Energy-OPLS-2005>
114.546463012695

> <r_mmod_Torsional_Energy-OPLS-2005>
301.300689697266

> <r_mmod_Improper_Torsional_Energy-OPLS-2005>
8.33690738677979

> <r_mmod_Van_der_Waal_Energy-OPLS-2005>
159.654861450195

> <r_mmod_Electrostatic_Energy-OPLS-2005>
-293.486541748047

> <r_mmod_Solvation_Energy-OPLS-2005>
-449.391845703125

> <b_mmod_Minimization_Converged-OPLS-2005>
0

> <r_mmod_RMS_Derivative-OPLS-2005>
2.3602557182312

$$$$
47
                    3D
 Structure written by MMmdl.
159168  0  0  1  0            999 V2000
  -30.5499  -14.8342   20.4379 C   0  0  0  0  0  0
  -30.4476  -12.5148   19.4606 C   0  0  0  0  0  0
  -29.5132  -12.5070   18.2296 C   0  0  0  0  0  0
  -28.0420  -12.3125   18.6524 C   0  0  0  0  0  0
  -27.6341  -13.2282   19.8367 C   0  0  2  0  0  0
  -28.6847  -13.1987   20.9658 C   0  0  0  0  0  0
  -25.2497  -13.8179   20.5699 C   0  0  0  0  0  0
  -24.1793  -13.0426   20.9220 C   0  0  0  0  0  0
  -24.6383  -11.6905   20.8754 C   0  0  0  0  0  0
  -23.9059  -10.4287   21.0411 C   0  0  0  0  0  0
  -24.3614   -9.4201   21.9184 C   0  0  0  0  0  0
  -23.6291   -8.2236   22.0750 C   0  0  0  0  0  0
  -22.4272   -8.0277   21.3541 C   0  0  0  0  0  0
  -21.9906   -9.0250   20.4641 C   0  0  0  0  0  0
  -22.7235  -10.2129   20.3054 C   0  0  0  0  0  0
  -21.6849   -6.0730   22.5277 C   0  0  0  0  0  0
  -21.4012   -6.5634   23.8211 C   0  0  0  0  0  0
  -21.3660   -5.6787   24.9173 C   0  0  0  0  0  0
  -21.6047   -4.3051   24.7224 C   0  0  0  0  0  0
  -21.8820   -3.8141   23.4344 C   0  0  0  0  0  0
  -21.9192   -4.6958   22.3400 C   0  0  0  0  0  0
  -22.7817  -13.5213   21.1879 C   0  0  0  0  0  0
  -22.1662   -4.2146   21.0977 F   0  0  0  0  0  0
  -21.5631   -3.4534   25.7736 F   0  0  0  0  0  0
  -29.9667  -13.5845   20.3638 N   0  0  0  0  0  0
  -26.2904  -12.9372   20.3233 N   0  0  0  0  0  0
  -25.9306  -11.6522   20.5734 N   0  0  0  0  0  0
  -22.0454  -12.8210   22.0433 N   0  0  0  0  0  0
  -25.4162  -15.1912   20.4132 N   0  0  0  0  0  0
  -31.7672  -14.9450   20.2626 O   0  0  0  0  0  0
  -21.6636   -6.8874   21.4239 O   0  0  0  0  0  0
  -22.3507  -14.5518   20.6720 O   0  0  0  0  0  0
  -24.6351  -31.8504   23.1926 C   0  0  0  0  0  0
  -25.9154  -32.4729   23.8297 C   0  0  1  0  0  0
  -27.2246  -27.2089   20.1588 C   0  0  0  0  0  0
  -25.5929  -33.8532   24.2220 N   0  0  0  0  0  0
  -23.4350  -30.4682   21.5375 C   0  0  2  0  0  0
  -24.8830  -28.8899   20.1286 C   0  0  0  0  0  0
  -22.7517  -29.4581   22.4913 C   0  0  0  0  0  0
  -18.0293  -28.1391   22.8483 C   0  0  0  0  0  0
  -24.1489  -36.7275   23.2643 C   0  0  0  0  0  0
  -25.9829  -30.7469   21.3781 C   0  0  0  0  0  0
  -26.0562  -29.3574   20.7354 C   0  0  0  0  0  0
  -27.2325  -28.5329   20.7293 C   0  0  0  0  0  0
  -26.0262  -26.8066   19.5389 C   0  0  0  0  0  0
  -24.8738  -27.6229   19.5206 C   0  0  0  0  0  0
  -23.6586  -29.7885   20.1602 C   0  0  0  0  0  0
  -25.4118  -36.3055   24.0323 C   0  0  1  0  0  0
  -20.5898  -28.3707   23.1265 C   0  0  2  0  0  0
  -20.6781  -26.9421   22.5411 C   0  0  0  0  0  0
  -19.5756  -26.6384   21.5215 C   0  0  0  0  0  0
  -18.1937  -26.7931   22.1625 C   0  0  0  0  0  0
  -19.1547  -28.8866   23.2866 C   0  0  0  0  0  0
  -18.9467  -30.1465   23.8887 C   0  0  0  0  0  0
  -17.6466  -30.6591   24.0561 C   0  0  0  0  0  0
  -25.9061  -34.9427   23.5078 C   0  0  0  0  0  0
  -16.5357  -29.9087   23.6332 C   0  0  0  0  0  0
  -16.7279  -28.6504   23.0353 C   0  0  0  0  0  0
  -26.4505  -31.6573   25.0709 C   0  0  0  0  0  0
  -25.3713  -31.3740   26.1422 C   0  0  0  0  0  0
  -27.0360  -30.2984   24.6227 C   0  0  0  0  0  0
  -27.6045  -32.4329   25.7490 C   0  0  0  0  0  0
  -27.5576  -37.1794   24.8466 C   0  0  0  0  0  0
  -21.4222  -29.3044   22.3649 N   0  0  0  0  0  0
  -26.4289  -37.3759   23.9406 N   0  0  0  0  0  0
  -24.7038  -31.0422   22.0922 N   0  0  0  0  0  0
  -23.4193  -28.8134   23.3041 O   0  0  0  0  0  0
  -28.3519  -26.3591   20.0271 O   0  0  0  0  0  0
  -26.5647  -34.8913   22.4657 O   0  0  0  0  0  0
  -23.5490  -32.1347   23.7192 O   0  0  0  0  0  0
  -29.3483  -17.4556   22.2256 C   0  0  0  0  0  0
  -29.0731  -18.7071   22.8160 C   0  0  0  0  0  0
  -29.6880  -18.6068   20.1242 C   0  0  0  0  0  0
  -29.4621  -19.9437   20.7149 C   0  0  0  0  0  0
  -29.6657  -17.3356   20.8595 C   0  0  0  0  0  0
  -29.1307  -19.9295   22.1035 C   0  0  0  0  0  0
  -29.8334  -21.2716   19.9805 C   0  0  0  0  0  0
  -30.1245  -24.8795   20.6857 C   0  0  0  0  0  0
  -30.4126  -23.7109   19.7204 C   0  0  0  0  0  0
  -28.1933  -23.4911   20.4033 C   0  0  0  0  0  0
  -28.5988  -25.0460   20.7539 C   0  0  2  0  0  0
  -29.4354  -22.6452   20.0529 N   0  0  0  0  0  0
  -28.8917  -21.0889   22.8499 N   0  0  0  0  0  0
  -29.6966  -15.9388   20.3112 N   0  0  0  0  0  0
  -30.8463  -21.0770   19.1310 N   0  3  0  0  0  0
  -31.4794  -12.6837   19.1472 H   0  0  0  0  0  0
  -30.4367  -11.5488   19.9677 H   0  0  0  0  0  0
  -29.8104  -11.7203   17.5348 H   0  0  0  0  0  0
  -29.6157  -13.4482   17.6868 H   0  0  0  0  0  0
  -27.9193  -11.2672   18.9388 H   0  0  0  0  0  0
  -27.3782  -12.4738   17.8021 H   0  0  0  0  0  0
  -27.6100  -14.2392   19.4310 H   0  0  0  0  0  0
  -28.7492  -12.2080   21.4181 H   0  0  0  0  0  0
  -28.4097  -13.8880   21.7659 H   0  0  0  0  0  0
  -25.2759   -9.5679   22.4759 H   0  0  0  0  0  0
  -24.0000   -7.4625   22.7467 H   0  0  0  0  0  0
  -21.0836   -8.8767   19.8947 H   0  0  0  0  0  0
  -22.3691  -10.9668   19.6165 H   0  0  0  0  0  0
  -21.2003   -7.6144   23.9716 H   0  0  0  0  0  0
  -21.1482   -6.0515   25.9078 H   0  0  0  0  0  0
  -22.0599   -2.7604   23.2842 H   0  0  0  0  0  0
  -22.4064  -11.9876   22.4837 H   0  0  0  0  0  0
  -21.1066  -13.1232   22.2621 H   0  0  0  0  0  0
  -24.6432  -15.8374   20.5310 H   0  0  0  0  0  0
  -26.2529  -15.6412   20.0684 H   0  0  0  0  0  0
  -26.7220  -32.5367   23.1034 H   0  0  0  0  0  0
  -25.0051  -33.9656   25.0349 H   0  0  0  0  0  0
  -22.7342  -31.2911   21.3822 H   0  0  0  0  0  0
  -23.3751  -35.9607   23.3302 H   0  0  0  0  0  0
  -24.3576  -36.8906   22.2058 H   0  0  0  0  0  0
  -23.7244  -37.6473   23.6677 H   0  0  0  0  0  0
  -26.1222  -31.4973   20.5987 H   0  0  0  0  0  0
  -26.8603  -30.8060   22.0107 H   0  0  0  0  0  0
  -28.1440  -28.9028   21.1771 H   0  0  0  0  0  0
  -25.9843  -25.8424   19.0522 H   0  0  0  0  0  0
  -23.9763  -27.2600   19.0388 H   0  0  0  0  0  0
  -23.7938  -30.5573   19.3986 H   0  0  0  0  0  0
  -22.7748  -29.2258   19.8540 H   0  0  0  0  0  0
  -25.1304  -36.1894   25.0816 H   0  0  0  0  0  0
  -20.9988  -28.3288   24.1386 H   0  0  0  0  0  0
  -20.5680  -26.2318   23.3618 H   0  0  0  0  0  0
  -21.6648  -26.7440   22.1205 H   0  0  0  0  0  0
  -19.6918  -25.6291   21.1251 H   0  0  0  0  0  0
  -19.6693  -27.3188   20.6739 H   0  0  0  0  0  0
  -17.4206  -26.6677   21.4029 H   0  0  0  0  0  0
  -18.0337  -26.0077   22.9025 H   0  0  0  0  0  0
  -19.7943  -30.7284   24.2253 H   0  0  0  0  0  0
  -17.5019  -31.6270   24.5163 H   0  0  0  0  0  0
  -15.5357  -30.2985   23.7660 H   0  0  0  0  0  0
  -15.8680  -28.0819   22.7074 H   0  0  0  0  0  0
  -24.5886  -30.7095   25.7747 H   0  0  0  0  0  0
  -24.8908  -32.2914   26.4829 H   0  0  0  0  0  0
  -25.8015  -30.8925   27.0212 H   0  0  0  0  0  0
  -26.2955  -29.6721   24.1240 H   0  0  0  0  0  0
  -27.4012  -29.7264   25.4766 H   0  0  0  0  0  0
  -27.8842  -30.4248   23.9497 H   0  0  0  0  0  0
  -27.2641  -33.3636   26.2039 H   0  0  0  0  0  0
  -28.3869  -32.6878   25.0330 H   0  0  0  0  0  0
  -28.0697  -31.8475   26.5430 H   0  0  0  0  0  0
  -28.2593  -38.0091   24.7505 H   0  0  0  0  0  0
  -28.1072  -36.2620   24.6301 H   0  0  0  0  0  0
  -27.2293  -37.1454   25.8869 H   0  0  0  0  0  0
  -20.9422  -29.8751   21.6830 H   0  0  0  0  0  0
  -26.0163  -38.2831   24.1403 H   0  0  0  0  0  0
  -29.2641  -16.5696   22.8381 H   0  0  0  0  0  0
  -28.8219  -18.7125   23.8671 H   0  0  0  0  0  0
  -29.9121  -18.5571   19.0686 H   0  0  0  0  0  0
  -30.6269  -25.7924   20.3643 H   0  0  0  0  0  0
  -30.5202  -24.6353   21.6723 H   0  0  0  0  0  0
  -31.4513  -23.3981   19.8427 H   0  0  0  0  0  0
  -30.2788  -24.0242   18.6834 H   0  0  0  0  0  0
  -27.4847  -23.4654   19.5748 H   0  0  0  0  0  0
  -27.6840  -23.0431   21.2569 H   0  0  0  0  0  0
  -28.3149  -25.2357   21.7900 H   0  0  0  0  0  0
  -28.9141  -21.0296   23.8636 H   0  0  0  0  0  0
  -29.2331  -21.9797   22.5046 H   0  0  0  0  0  0
  -28.7716  -15.6150   20.0788 H   0  0  0  0  0  0
  -31.2763  -20.1665   19.0823 H   0  0  0  0  0  0
  -31.1325  -21.7805   18.4723 H   0  0  0  0  0  0
  1 25  1  0  0  0
  1 30  2  0  0  0
  1 84  1  0  0  0
  2  3  1  0  0  0
  2 25  1  0  0  0
  2 86  1  0  0  0
  2 87  1  0  0  0
  3  4  1  0  0  0
  3 88  1  0  0  0
  3 89  1  0  0  0
  4  5  1  0  0  0
  4 90  1  0  0  0
  4 91  1  0  0  0
  5  6  1  0  0  0
  5 26  1  0  0  0
  5 92  1  0  0  0
  6 25  1  0  0  0
  6 93  1  0  0  0
  6 94  1  0  0  0
  7  8  2  0  0  0
  7 26  1  0  0  0
  7 29  1  0  0  0
  8  9  1  0  0  0
  8 22  1  0  0  0
  9 10  1  0  0  0
  9 27  2  0  0  0
 10 11  2  0  0  0
 10 15  1  0  0  0
 11 12  1  0  0  0
 11 95  1  0  0  0
 12 13  2  0  0  0
 12 96  1  0  0  0
 13 14  1  0  0  0
 13 31  1  0  0  0
 14 15  2  0  0  0
 14 97  1  0  0  0
 15 98  1  0  0  0
 16 17  2  0  0  0
 16 21  1  0  0  0
 16 31  1  0  0  0
 17 18  1  0  0  0
 17 99  1  0  0  0
 18 19  2  0  0  0
 18100  1  0  0  0
 19 20  1  0  0  0
 19 24  1  0  0  0
 20 21  2  0  0  0
 20101  1  0  0  0
 21 23  1  0  0  0
 22 28  1  0  0  0
 22 32  2  0  0  0
 26 27  1  0  0  0
 28102  1  0  0  0
 28103  1  0  0  0
 29104  1  0  0  0
 29105  1  0  0  0
 33 34  1  0  0  0
 33 66  1  0  0  0
 33 70  2  0  0  0
 34 36  1  0  0  0
 34 59  1  0  0  0
 34106  1  0  0  0
 35 44  2  0  0  0
 35 45  1  0  0  0
 35 68  1  0  0  0
 36 56  1  0  0  0
 36107  1  0  0  0
 37 39  1  0  0  0
 37 47  1  0  0  0
 37 66  1  0  0  0
 37108  1  0  0  0
 38 43  2  0  0  0
 38 46  1  0  0  0
 38 47  1  0  0  0
 39 64  1  0  0  0
 39 67  2  0  0  0
 40 52  1  0  0  0
 40 53  2  0  0  0
 40 58  1  0  0  0
 41109  1  0  0  0
 41110  1  0  0  0
 41111  1  0  0  0
 41 48  1  0  0  0
 42 43  1  0  0  0
 42 66  1  0  0  0
 42112  1  0  0  0
 42113  1  0  0  0
 43 44  1  0  0  0
 44114  1  0  0  0
 45 46  2  0  0  0
 45115  1  0  0  0
 46116  1  0  0  0
 47117  1  0  0  0
 47118  1  0  0  0
 48 56  1  0  0  0
 48 65  1  0  0  0
 48119  1  0  0  0
 49 50  1  0  0  0
 49 53  1  0  0  0
 49 64  1  0  0  0
 49120  1  0  0  0
 50 51  1  0  0  0
 50121  1  0  0  0
 50122  1  0  0  0
 51 52  1  0  0  0
 51123  1  0  0  0
 51124  1  0  0  0
 52125  1  0  0  0
 52126  1  0  0  0
 53 54  1  0  0  0
 54 55  2  0  0  0
 54127  1  0  0  0
 55 57  1  0  0  0
 55128  1  0  0  0
 56 69  2  0  0  0
 57 58  2  0  0  0
 57129  1  0  0  0
 58130  1  0  0  0
 59 60  1  0  0  0
 59 61  1  0  0  0
 59 62  1  0  0  0
 60131  1  0  0  0
 60132  1  0  0  0
 60133  1  0  0  0
 61134  1  0  0  0
 61135  1  0  0  0
 61136  1  0  0  0
 62137  1  0  0  0
 62138  1  0  0  0
 62139  1  0  0  0
 63 65  1  0  0  0
 63140  1  0  0  0
 63141  1  0  0  0
 63142  1  0  0  0
 64143  1  0  0  0
 65144  1  0  0  0
 68 81  1  0  0  0
 71 72  2  0  0  0
 71 75  1  0  0  0
 71145  1  0  0  0
 72 76  1  0  0  0
 72146  1  0  0  0
 73 74  1  0  0  0
 73 75  2  0  0  0
 73147  1  0  0  0
 74 76  2  0  0  0
 74 77  1  0  0  0
 75 84  1  0  0  0
 76 83  1  0  0  0
 77 82  1  0  0  0
 77 85  2  0  0  0
 78 79  1  0  0  0
 78 81  1  0  0  0
 78148  1  0  0  0
 78149  1  0  0  0
 79 82  1  0  0  0
 79150  1  0  0  0
 79151  1  0  0  0
 80 81  1  0  0  0
 80 82  1  0  0  0
 80152  1  0  0  0
 80153  1  0  0  0
 81154  1  0  0  0
 83155  1  0  0  0
 83156  1  0  0  0
 84157  1  0  0  0
 85158  1  0  0  0
 85159  1  0  0  0
M  CHG  1  85   1
M  ISO  4   1 100  68 101  81 101  84 100
M  END
> <chiral flag>
0

> <version>
0

> <s_m_source_file>
/data/baiqing/PycharmProjects/Reinvent-master-3.2/result/LINK_invent/BTK/process_docking_weight1_custom_product_contain_oxygen_bond_distance_aromatic_linkinvent_7_9_3/rearranged_h_0154.sdf

> <i_m_source_file_index>
48

> <r_mmod_Potential_Energy-OPLS-2005>
425.839691162109

> <r_mmod_Stretch_Energy-OPLS-2005>
168.878005981445

> <r_mmod_Bend_Energy-OPLS-2005>
307.812805175781

> <r_mmod_Torsional_Energy-OPLS-2005>
383.438690185547

> <r_mmod_Improper_Torsional_Energy-OPLS-2005>
19.9903869628906

> <r_mmod_Van_der_Waal_Energy-OPLS-2005>
134.314376831055

> <r_mmod_Electrostatic_Energy-OPLS-2005>
-292.466339111328

> <r_mmod_Solvation_Energy-OPLS-2005>
-417.111663818359

> <b_mmod_Minimization_Converged-OPLS-2005>
0

> <r_mmod_RMS_Derivative-OPLS-2005>
0.455624759197235

$$$$
48
                    3D
 Structure written by MMmdl.
155164  0  0  1  0            999 V2000
  -30.6607  -14.5844   20.4368 C   0  0  0  0  0  0
  -30.4337  -12.3465   19.4402 C   0  0  0  0  0  0
  -29.4977  -12.4588   18.2171 C   0  0  0  0  0  0
  -28.0230  -12.3097   18.6435 C   0  0  0  0  0  0
  -27.6472  -13.2021   19.8556 C   0  0  2  0  0  0
  -28.7010  -13.1005   20.9820 C   0  0  0  0  0  0
  -25.2574  -13.8130   20.5732 C   0  0  0  0  0  0
  -24.1814  -13.0422   20.9217 C   0  0  0  0  0  0
  -24.6346  -11.6884   20.8755 C   0  0  0  0  0  0
  -23.9008  -10.4277   21.0406 C   0  0  0  0  0  0
  -24.3572   -9.4187   21.9170 C   0  0  0  0  0  0
  -23.6272   -8.2208   22.0728 C   0  0  0  0  0  0
  -22.4251   -8.0246   21.3526 C   0  0  0  0  0  0
  -21.9870   -9.0218   20.4637 C   0  0  0  0  0  0
  -22.7179  -10.2113   20.3055 C   0  0  0  0  0  0
  -21.6840   -6.0707   22.5275 C   0  0  0  0  0  0
  -21.4003   -6.5621   23.8204 C   0  0  0  0  0  0
  -21.3668   -5.6779   24.9173 C   0  0  0  0  0  0
  -21.6049   -4.3043   24.7228 C   0  0  0  0  0  0
  -21.8820   -3.8125   23.4350 C   0  0  0  0  0  0
  -21.9187   -4.6934   22.3400 C   0  0  0  0  0  0
  -22.7840  -13.5232   21.1873 C   0  0  0  0  0  0
  -22.1659   -4.2117   21.0982 F   0  0  0  0  0  0
  -21.5639   -3.4534   25.7744 F   0  0  0  0  0  0
  -30.0163  -13.3846   20.3932 N   0  0  0  0  0  0
  -26.2962  -12.9275   20.3356 N   0  0  0  0  0  0
  -25.9277  -11.6447   20.5794 N   0  0  0  0  0  0
  -22.0474  -12.8249   22.0447 N   0  0  0  0  0  0
  -25.4358  -15.1848   20.4182 N   0  0  0  0  0  0
  -31.8731  -14.6881   20.2290 O   0  0  0  0  0  0
  -21.6625   -6.8837   21.4227 O   0  0  0  0  0  0
  -22.3533  -14.5529   20.6692 O   0  0  0  0  0  0
  -24.6200  -31.8649   23.2048 C   0  0  0  0  0  0
  -25.9068  -32.4810   23.8360 C   0  0  1  0  0  0
  -27.2441  -27.3977   20.1131 C   0  0  0  0  0  0
  -25.5918  -33.8611   24.2290 N   0  0  0  0  0  0
  -23.4105  -30.4852   21.5451 C   0  0  2  0  0  0
  -24.8623  -28.9386   20.1215 C   0  0  0  0  0  0
  -22.7438  -29.4639   22.4963 C   0  0  0  0  0  0
  -18.0282  -28.1394   22.8493 C   0  0  0  0  0  0
  -24.1487  -36.7307   23.2633 C   0  0  0  0  0  0
  -25.9431  -30.8167   21.3647 C   0  0  0  0  0  0
  -26.0226  -29.4436   20.7238 C   0  0  0  0  0  0
  -27.2190  -28.6799   20.7186 C   0  0  0  0  0  0
  -26.0675  -26.9124   19.5110 C   0  0  0  0  0  0
  -24.8795  -27.6708   19.5132 C   0  0  0  0  0  0
  -23.6254  -29.8105   20.1626 C   0  0  0  0  0  0
  -25.4116  -36.3104   24.0328 C   0  0  1  0  0  0
  -20.5883  -28.3685   23.1316 C   0  0  2  0  0  0
  -20.6780  -26.9413   22.5430 C   0  0  0  0  0  0
  -19.5756  -26.6397   21.5223 C   0  0  0  0  0  0
  -18.1928  -26.7942   22.1625 C   0  0  0  0  0  0
  -19.1534  -28.8860   23.2897 C   0  0  0  0  0  0
  -18.9456  -30.1473   23.8899 C   0  0  0  0  0  0
  -17.6456  -30.6594   24.0582 C   0  0  0  0  0  0
  -25.9051  -34.9476   23.5109 C   0  0  0  0  0  0
  -16.5352  -29.9103   23.6329 C   0  0  0  0  0  0
  -16.7273  -28.6529   23.0331 C   0  0  0  0  0  0
  -26.4485  -31.6605   25.0705 C   0  0  0  0  0  0
  -25.3747  -31.3763   26.1459 C   0  0  0  0  0  0
  -27.0279  -30.3030   24.6105 C   0  0  0  0  0  0
  -27.6070  -32.4313   25.7460 C   0  0  0  0  0  0
  -27.5582  -37.1812   24.8465 C   0  0  0  0  0  0
  -21.4165  -29.3035   22.3705 N   0  0  0  0  0  0
  -26.4295  -37.3794   23.9410 N   0  0  0  0  0  0
  -24.6755  -31.0713   22.0966 N   0  0  0  0  0  0
  -23.4185  -28.8179   23.3021 O   0  0  0  0  0  0
  -28.3731  -26.6002   20.0572 O   0  0  0  0  0  0
  -26.5592  -34.8947   22.4657 O   0  0  0  0  0  0
  -23.5385  -32.1405   23.7428 O   0  0  0  0  0  0
  -29.1466  -23.6460   20.3898 C   0  0  0  0  0  0
  -28.2456  -23.8774   22.5215 C   0  0  0  0  0  0
  -28.6622  -24.5536   21.4018 C   0  0  0  0  0  0
  -29.0564  -22.3091   20.7513 C   0  0  0  0  0  0
  -29.7421  -17.7148   18.9029 C   0  0  0  0  0  0
  -29.7070  -16.1808   18.8761 C   0  0  0  0  0  0
  -29.8687  -16.8779   21.1281 C   0  0  0  0  0  0
  -29.2800  -18.0662   20.3087 C   0  0  1  0  0  0
  -29.8563  -15.6760   20.2562 N   0  0  0  0  0  0
  -28.6491  -25.9804   21.3283 N   0  0  0  0  0  0
  -29.6823  -19.4371   20.7652 N   0  0  0  0  0  0
  -28.2862  -20.6040   18.9098 O   0  0  0  0  0  0
  -30.7700  -21.1263   19.1153 O   0  0  0  0  0  0
  -28.4147  -22.1437   22.3615 S   0  0  0  0  0  0
  -29.4684  -20.8542   19.7484 S   0  0  0  0  0  0
  -31.4749  -12.4629   19.1295 H   0  0  0  0  0  0
  -30.3628  -11.3589   19.8994 H   0  0  0  0  0  0
  -29.7514  -11.6937   17.4822 H   0  0  0  0  0  0
  -29.6423  -13.4182   17.7193 H   0  0  0  0  0  0
  -27.8664  -11.2620   18.9039 H   0  0  0  0  0  0
  -27.3598  -12.5142   17.8029 H   0  0  0  0  0  0
  -27.6431  -14.2240   19.4870 H   0  0  0  0  0  0
  -28.6979  -12.1095   21.4374 H   0  0  0  0  0  0
  -28.4747  -13.8117   21.7795 H   0  0  0  0  0  0
  -25.2706   -9.5671   22.4758 H   0  0  0  0  0  0
  -23.9984   -7.4589   22.7437 H   0  0  0  0  0  0
  -21.0791   -8.8725   19.8960 H   0  0  0  0  0  0
  -22.3602  -10.9650   19.6184 H   0  0  0  0  0  0
  -21.1985   -7.6129   23.9699 H   0  0  0  0  0  0
  -21.1506   -6.0513   25.9079 H   0  0  0  0  0  0
  -22.0594   -2.7586   23.2859 H   0  0  0  0  0  0
  -22.4068  -11.9935   22.4900 H   0  0  0  0  0  0
  -21.1082  -13.1286   22.2618 H   0  0  0  0  0  0
  -24.6815  -15.8510   20.5457 H   0  0  0  0  0  0
  -26.3058  -15.6206   20.1410 H   0  0  0  0  0  0
  -26.7135  -32.5509   23.1126 H   0  0  0  0  0  0
  -25.0124  -33.9765   25.0475 H   0  0  0  0  0  0
  -22.7005  -31.3019   21.3977 H   0  0  0  0  0  0
  -23.3740  -35.9644   23.3318 H   0  0  0  0  0  0
  -24.3573  -36.8892   22.2039 H   0  0  0  0  0  0
  -23.7253  -37.6535   23.6622 H   0  0  0  0  0  0
  -26.0554  -31.5719   20.5851 H   0  0  0  0  0  0
  -26.8330  -30.8793   21.9796 H   0  0  0  0  0  0
  -28.1179  -29.0677   21.1777 H   0  0  0  0  0  0
  -26.0748  -25.9385   19.0424 H   0  0  0  0  0  0
  -23.9895  -27.2706   19.0466 H   0  0  0  0  0  0
  -23.7408  -30.5804   19.3988 H   0  0  0  0  0  0
  -22.7506  -29.2311   19.8639 H   0  0  0  0  0  0
  -25.1290  -36.1960   25.0816 H   0  0  0  0  0  0
  -20.9974  -28.3257   24.1441 H   0  0  0  0  0  0
  -20.5689  -26.2288   23.3620 H   0  0  0  0  0  0
  -21.6650  -26.7455   22.1212 H   0  0  0  0  0  0
  -19.6905  -25.6308   21.1247 H   0  0  0  0  0  0
  -19.6702  -27.3222   20.6761 H   0  0  0  0  0  0
  -17.4207  -26.6706   21.4021 H   0  0  0  0  0  0
  -18.0310  -26.0088   22.9020 H   0  0  0  0  0  0
  -19.7935  -30.7295   24.2253 H   0  0  0  0  0  0
  -17.5015  -31.6267   24.5196 H   0  0  0  0  0  0
  -15.5361  -30.3007   23.7657 H   0  0  0  0  0  0
  -15.8670  -28.0870   22.7011 H   0  0  0  0  0  0
  -24.5924  -30.7090   25.7836 H   0  0  0  0  0  0
  -24.8945  -32.2945   26.4853 H   0  0  0  0  0  0
  -25.8111  -30.8998   27.0244 H   0  0  0  0  0  0
  -26.2819  -29.6831   24.1133 H   0  0  0  0  0  0
  -27.3987  -29.7245   25.4571 H   0  0  0  0  0  0
  -27.8685  -30.4308   23.9282 H   0  0  0  0  0  0
  -27.2693  -33.3597   26.2074 H   0  0  0  0  0  0
  -28.3871  -32.6898   25.0286 H   0  0  0  0  0  0
  -28.0744  -31.8411   26.5352 H   0  0  0  0  0  0
  -28.2627  -38.0085   24.7489 H   0  0  0  0  0  0
  -28.1043  -36.2622   24.6299 H   0  0  0  0  0  0
  -27.2294  -37.1477   25.8866 H   0  0  0  0  0  0
  -20.9325  -29.8773   21.6940 H   0  0  0  0  0  0
  -26.0177  -38.2866   24.1418 H   0  0  0  0  0  0
  -29.5337  -23.9872   19.4411 H   0  0  0  0  0  0
  -27.8530  -24.2850   23.4451 H   0  0  0  0  0  0
  -29.1061  -18.1458   18.1282 H   0  0  0  0  0  0
  -30.7601  -18.0645   18.7263 H   0  0  0  0  0  0
  -30.4706  -15.7987   18.1952 H   0  0  0  0  0  0
  -28.7481  -15.8486   18.4816 H   0  0  0  0  0  0
  -29.2864  -16.6989   22.0325 H   0  0  0  0  0  0
  -30.8965  -17.0844   21.4313 H   0  0  0  0  0  0
  -28.1897  -18.0066   20.3326 H   0  0  0  0  0  0
  -28.0796  -26.4455   22.0297 H   0  0  0  0  0  0
  -30.5826  -19.4737   21.2468 H   0  0  0  0  0  0
  1 25  1  0  0  0
  1 30  2  0  0  0
  1 79  1  0  0  0
  2  3  1  0  0  0
  2 25  1  0  0  0
  2 86  1  0  0  0
  2 87  1  0  0  0
  3  4  1  0  0  0
  3 88  1  0  0  0
  3 89  1  0  0  0
  4  5  1  0  0  0
  4 90  1  0  0  0
  4 91  1  0  0  0
  5  6  1  0  0  0
  5 26  1  0  0  0
  5 92  1  0  0  0
  6 25  1  0  0  0
  6 93  1  0  0  0
  6 94  1  0  0  0
  7  8  2  0  0  0
  7 26  1  0  0  0
  7 29  1  0  0  0
  8  9  1  0  0  0
  8 22  1  0  0  0
  9 10  1  0  0  0
  9 27  2  0  0  0
 10 11  2  0  0  0
 10 15  1  0  0  0
 11 12  1  0  0  0
 11 95  1  0  0  0
 12 13  2  0  0  0
 12 96  1  0  0  0
 13 14  1  0  0  0
 13 31  1  0  0  0
 14 15  2  0  0  0
 14 97  1  0  0  0
 15 98  1  0  0  0
 16 17  2  0  0  0
 16 21  1  0  0  0
 16 31  1  0  0  0
 17 18  1  0  0  0
 17 99  1  0  0  0
 18 19  2  0  0  0
 18100  1  0  0  0
 19 20  1  0  0  0
 19 24  1  0  0  0
 20 21  2  0  0  0
 20101  1  0  0  0
 21 23  1  0  0  0
 22 28  1  0  0  0
 22 32  2  0  0  0
 26 27  1  0  0  0
 28102  1  0  0  0
 28103  1  0  0  0
 29104  1  0  0  0
 29105  1  0  0  0
 33 34  1  0  0  0
 33 66  1  0  0  0
 33 70  2  0  0  0
 34 36  1  0  0  0
 34 59  1  0  0  0
 34106  1  0  0  0
 35 44  2  0  0  0
 35 45  1  0  0  0
 35 68  1  0  0  0
 36 56  1  0  0  0
 36107  1  0  0  0
 37 39  1  0  0  0
 37 47  1  0  0  0
 37 66  1  0  0  0
 37108  1  0  0  0
 38 43  2  0  0  0
 38 46  1  0  0  0
 38 47  1  0  0  0
 39 64  1  0  0  0
 39 67  2  0  0  0
 40 52  1  0  0  0
 40 53  2  0  0  0
 40 58  1  0  0  0
 41109  1  0  0  0
 41110  1  0  0  0
 41111  1  0  0  0
 41 48  1  0  0  0
 42 43  1  0  0  0
 42 66  1  0  0  0
 42112  1  0  0  0
 42113  1  0  0  0
 43 44  1  0  0  0
 44114  1  0  0  0
 45 46  2  0  0  0
 45115  1  0  0  0
 46116  1  0  0  0
 47117  1  0  0  0
 47118  1  0  0  0
 48 56  1  0  0  0
 48 65  1  0  0  0
 48119  1  0  0  0
 49 50  1  0  0  0
 49 53  1  0  0  0
 49 64  1  0  0  0
 49120  1  0  0  0
 50 51  1  0  0  0
 50121  1  0  0  0
 50122  1  0  0  0
 51 52  1  0  0  0
 51123  1  0  0  0
 51124  1  0  0  0
 52125  1  0  0  0
 52126  1  0  0  0
 53 54  1  0  0  0
 54 55  2  0  0  0
 54127  1  0  0  0
 55 57  1  0  0  0
 55128  1  0  0  0
 56 69  2  0  0  0
 57 58  2  0  0  0
 57129  1  0  0  0
 58130  1  0  0  0
 59 60  1  0  0  0
 59 61  1  0  0  0
 59 62  1  0  0  0
 60131  1  0  0  0
 60132  1  0  0  0
 60133  1  0  0  0
 61134  1  0  0  0
 61135  1  0  0  0
 61136  1  0  0  0
 62137  1  0  0  0
 62138  1  0  0  0
 62139  1  0  0  0
 63 65  1  0  0  0
 63140  1  0  0  0
 63141  1  0  0  0
 63142  1  0  0  0
 64143  1  0  0  0
 65144  1  0  0  0
 68 80  1  0  0  0
 71 73  1  0  0  0
 71 74  2  0  0  0
 71145  1  0  0  0
 72 73  2  0  0  0
 72 84  1  0  0  0
 72146  1  0  0  0
 73 80  1  0  0  0
 74 84  1  0  0  0
 74 85  1  0  0  0
 75 76  1  0  0  0
 75 78  1  0  0  0
 75147  1  0  0  0
 75148  1  0  0  0
 76 79  1  0  0  0
 76149  1  0  0  0
 76150  1  0  0  0
 77 78  1  0  0  0
 77 79  1  0  0  0
 77151  1  0  0  0
 77152  1  0  0  0
 78 81  1  0  0  0
 78153  1  0  0  0
 80154  1  0  0  0
 81155  1  0  0  0
 81 85  1  0  0  0
 82 85  2  0  0  0
 83 85  2  0  0  0
M  ISO  4   1 100  68 101  79 100  80 101
M  END
> <chiral flag>
0

> <version>
0

> <s_m_source_file>
/data/baiqing/PycharmProjects/Reinvent-master-3.2/result/LINK_invent/BTK/process_docking_weight1_custom_product_contain_oxygen_bond_distance_aromatic_linkinvent_7_9_3/rearranged_h_0154.sdf

> <i_m_source_file_index>
49

> <r_mmod_Potential_Energy-OPLS-2005>
-10.1969633102417

> <r_mmod_Stretch_Energy-OPLS-2005>
45.7302551269531

> <r_mmod_Bend_Energy-OPLS-2005>
137.938980102539

> <r_mmod_Torsional_Energy-OPLS-2005>
331.587463378906

> <r_mmod_Improper_Torsional_Energy-OPLS-2005>
25.9645938873291

> <r_mmod_Van_der_Waal_Energy-OPLS-2005>
101.791656494141

> <r_mmod_Electrostatic_Energy-OPLS-2005>
-448.842132568359

> <r_mmod_Solvation_Energy-OPLS-2005>
-239.531158447266

> <b_mmod_Minimization_Converged-OPLS-2005>
0

> <r_mmod_RMS_Derivative-OPLS-2005>
2.45768260955811

$$$$
49
                    3D
 Structure written by MMmdl.
156164  0  0  1  0            999 V2000
  -30.6129  -14.7396   20.4714 C   0  0  0  0  0  0
  -30.4343  -12.4570   19.4668 C   0  0  0  0  0  0
  -29.5090  -12.5005   18.2318 C   0  0  0  0  0  0
  -28.0366  -12.3151   18.6509 C   0  0  0  0  0  0
  -27.6384  -13.2255   19.8426 C   0  0  2  0  0  0
  -28.6830  -13.1682   20.9767 C   0  0  0  0  0  0
  -25.2491  -13.8188   20.5672 C   0  0  0  0  0  0
  -24.1783  -13.0442   20.9203 C   0  0  0  0  0  0
  -24.6370  -11.6920   20.8753 C   0  0  0  0  0  0
  -23.9053  -10.4293   21.0408 C   0  0  0  0  0  0
  -24.3608   -9.4212   21.9189 C   0  0  0  0  0  0
  -23.6296   -8.2242   22.0752 C   0  0  0  0  0  0
  -22.4278   -8.0285   21.3542 C   0  0  0  0  0  0
  -21.9909   -9.0257   20.4645 C   0  0  0  0  0  0
  -22.7228  -10.2138   20.3061 C   0  0  0  0  0  0
  -21.6853   -6.0740   22.5280 C   0  0  0  0  0  0
  -21.4018   -6.5635   23.8214 C   0  0  0  0  0  0
  -21.3669   -5.6788   24.9168 C   0  0  0  0  0  0
  -21.6042   -4.3049   24.7224 C   0  0  0  0  0  0
  -21.8818   -3.8146   23.4341 C   0  0  0  0  0  0
  -21.9183   -4.6966   22.3395 C   0  0  0  0  0  0
  -22.7807  -13.5245   21.1854 C   0  0  0  0  0  0
  -22.1653   -4.2148   21.0974 F   0  0  0  0  0  0
  -21.5636   -3.4533   25.7734 F   0  0  0  0  0  0
  -29.9803  -13.5221   20.3867 N   0  0  0  0  0  0
  -26.2910  -12.9379   20.3244 N   0  0  0  0  0  0
  -25.9295  -11.6531   20.5745 N   0  0  0  0  0  0
  -22.0412  -12.8279   22.0415 N   0  0  0  0  0  0
  -25.4176  -15.1912   20.4068 N   0  0  0  0  0  0
  -31.8144  -14.8256   20.1977 O   0  0  0  0  0  0
  -21.6642   -6.8888   21.4244 O   0  0  0  0  0  0
  -22.3506  -14.5539   20.6668 O   0  0  0  0  0  0
  -24.6297  -31.8541   23.1982 C   0  0  0  0  0  0
  -25.9128  -32.4749   23.8318 C   0  0  1  0  0  0
  -27.2290  -27.2750   20.1256 C   0  0  0  0  0  0
  -25.5925  -33.8546   24.2253 N   0  0  0  0  0  0
  -23.4274  -30.4739   21.5417 C   0  0  2  0  0  0
  -24.8772  -28.9185   20.1149 C   0  0  0  0  0  0
  -22.7497  -29.4586   22.4925 C   0  0  0  0  0  0
  -18.0288  -28.1384   22.8484 C   0  0  0  0  0  0
  -24.1485  -36.7280   23.2643 C   0  0  0  0  0  0
  -25.9716  -30.7717   21.3759 C   0  0  0  0  0  0
  -26.0484  -29.3939   20.7201 C   0  0  0  0  0  0
  -27.2305  -28.5864   20.7075 C   0  0  0  0  0  0
  -26.0352  -26.8616   19.4961 C   0  0  0  0  0  0
  -24.8749  -27.6600   19.4922 C   0  0  0  0  0  0
  -23.6459  -29.8022   20.1604 C   0  0  0  0  0  0
  -25.4111  -36.3068   24.0327 C   0  0  1  0  0  0
  -20.5890  -28.3684   23.1279 C   0  0  2  0  0  0
  -20.6769  -26.9401   22.5407 C   0  0  0  0  0  0
  -19.5752  -26.6379   21.5202 C   0  0  0  0  0  0
  -18.1934  -26.7928   22.1616 C   0  0  0  0  0  0
  -19.1540  -28.8852   23.2873 C   0  0  0  0  0  0
  -18.9461  -30.1454   23.8887 C   0  0  0  0  0  0
  -17.6460  -30.6586   24.0558 C   0  0  0  0  0  0
  -25.9043  -34.9434   23.5089 C   0  0  0  0  0  0
  -16.5350  -29.9082   23.6338 C   0  0  0  0  0  0
  -16.7271  -28.6502   23.0354 C   0  0  0  0  0  0
  -26.4505  -31.6576   25.0703 C   0  0  0  0  0  0
  -25.3745  -31.3702   26.1438 C   0  0  0  0  0  0
  -27.0358  -30.3006   24.6175 C   0  0  0  0  0  0
  -27.6062  -32.4319   25.7470 C   0  0  0  0  0  0
  -27.5571  -37.1791   24.8467 C   0  0  0  0  0  0
  -21.4202  -29.3034   22.3680 N   0  0  0  0  0  0
  -26.4291  -37.3765   23.9399 N   0  0  0  0  0  0
  -24.6958  -31.0506   22.0960 N   0  0  0  0  0  0
  -23.4196  -28.8137   23.3033 O   0  0  0  0  0  0
  -28.3346  -26.3974   20.1229 O   0  0  0  0  0  0
  -26.5618  -34.8915   22.4660 O   0  0  0  0  0  0
  -23.5450  -32.1356   23.7282 O   0  0  0  0  0  0
  -29.5241  -18.4905   20.4245 C   0  0  0  0  0  0
  -31.2844  -17.4971   21.7829 C   0  0  0  0  0  0
  -30.2087  -17.2877   20.8951 C   0  0  0  0  0  0
  -29.8984  -19.8510   20.8075 C   0  0  0  0  0  0
  -31.0084  -19.9412   21.7014 C   0  0  0  0  0  0
  -31.6685  -18.7883   22.1786 C   0  0  0  0  0  0
  -29.0667  -22.3542   20.7669 C   0  0  0  0  0  0
  -28.1524  -24.9875   20.6186 C   0  0  0  0  0  0
  -28.8295  -23.6940   19.9004 C   0  0  2  0  0  0
  -31.5239  -21.1639   22.1305 N   0  0  0  0  0  0
  -29.2926  -21.0896   20.2196 N   0  0  0  0  0  0
  -29.8300  -15.8835   20.5885 N   0  0  0  0  0  0
  -28.1530  -23.4019   18.6182 N   0  3  0  0  0  0
  -29.0163  -22.4779   21.9916 O   0  0  0  0  0  0
  -32.7058  -18.9292   23.0433 F   0  0  0  0  0  0
  -31.4745  -12.5887   19.1652 H   0  0  0  0  0  0
  -30.3848  -11.4844   19.9578 H   0  0  0  0  0  0
  -29.7972  -11.7260   17.5202 H   0  0  0  0  0  0
  -29.6274  -13.4536   17.7138 H   0  0  0  0  0  0
  -27.9054  -11.2693   18.9295 H   0  0  0  0  0  0
  -27.3751  -12.4848   17.8000 H   0  0  0  0  0  0
  -27.6335  -14.2420   19.4505 H   0  0  0  0  0  0
  -28.7193  -12.1728   21.4219 H   0  0  0  0  0  0
  -28.4176  -13.8534   21.7821 H   0  0  0  0  0  0
  -25.2744   -9.5708   22.4771 H   0  0  0  0  0  0
  -23.9997   -7.4637   22.7482 H   0  0  0  0  0  0
  -21.0836   -8.8790   19.8961 H   0  0  0  0  0  0
  -22.3682  -10.9686   19.6180 H   0  0  0  0  0  0
  -21.2019   -7.6141   23.9730 H   0  0  0  0  0  0
  -21.1494   -6.0501   25.9073 H   0  0  0  0  0  0
  -22.0585   -2.7610   23.2830 H   0  0  0  0  0  0
  -22.4005  -11.9975   22.4882 H   0  0  0  0  0  0
  -21.1025  -13.1341   22.2559 H   0  0  0  0  0  0
  -24.6468  -15.8424   20.5109 H   0  0  0  0  0  0
  -26.2605  -15.6324   20.0631 H   0  0  0  0  0  0
  -26.7193  -32.5415   23.1055 H   0  0  0  0  0  0
  -25.0060  -33.9668   25.0395 H   0  0  0  0  0  0
  -22.7237  -31.2955   21.3936 H   0  0  0  0  0  0
  -23.3741  -35.9621   23.3329 H   0  0  0  0  0  0
  -24.3574  -36.8878   22.2054 H   0  0  0  0  0  0
  -23.7252  -37.6490   23.6658 H   0  0  0  0  0  0
  -26.1059  -31.5321   20.6058 H   0  0  0  0  0  0
  -26.8511  -30.8240   22.0061 H   0  0  0  0  0  0
  -28.1333  -28.9494   21.1797 H   0  0  0  0  0  0
  -25.9884  -25.9008   19.0043 H   0  0  0  0  0  0
  -23.9776  -27.2934   19.0118 H   0  0  0  0  0  0
  -23.7678  -30.5744   19.4002 H   0  0  0  0  0  0
  -22.7666  -29.2302   19.8589 H   0  0  0  0  0  0
  -25.1300  -36.1913   25.0822 H   0  0  0  0  0  0
  -20.9965  -28.3254   24.1408 H   0  0  0  0  0  0
  -20.5663  -26.2280   23.3599 H   0  0  0  0  0  0
  -21.6638  -26.7431   22.1207 H   0  0  0  0  0  0
  -19.6904  -25.6291   21.1230 H   0  0  0  0  0  0
  -19.6698  -27.3190   20.6736 H   0  0  0  0  0  0
  -17.4194  -26.6670   21.4025 H   0  0  0  0  0  0
  -18.0346  -26.0078   22.9024 H   0  0  0  0  0  0
  -19.7931  -30.7274   24.2254 H   0  0  0  0  0  0
  -17.5013  -31.6268   24.5153 H   0  0  0  0  0  0
  -15.5350  -30.2974   23.7672 H   0  0  0  0  0  0
  -15.8671  -28.0813   22.7077 H   0  0  0  0  0  0
  -24.5915  -30.7066   25.7760 H   0  0  0  0  0  0
  -24.8939  -32.2858   26.4898 H   0  0  0  0  0  0
  -25.8078  -30.8848   27.0195 H   0  0  0  0  0  0
  -26.2926  -29.6739   24.1240 H   0  0  0  0  0  0
  -27.4101  -29.7292   25.4674 H   0  0  0  0  0  0
  -27.8782  -30.4297   23.9379 H   0  0  0  0  0  0
  -27.2678  -33.3621   26.2051 H   0  0  0  0  0  0
  -28.3868  -32.6880   25.0293 H   0  0  0  0  0  0
  -28.0755  -31.8449   26.5378 H   0  0  0  0  0  0
  -28.2605  -38.0072   24.7499 H   0  0  0  0  0  0
  -28.1052  -36.2601   24.6324 H   0  0  0  0  0  0
  -27.2284  -37.1482   25.8870 H   0  0  0  0  0  0
  -20.9389  -29.8742   21.6874 H   0  0  0  0  0  0
  -26.0171  -38.2838   24.1405 H   0  0  0  0  0  0
  -28.6965  -18.3720   19.7394 H   0  0  0  0  0  0
  -31.8311  -16.6617   22.1945 H   0  0  0  0  0  0
  -28.5464  -25.0279   21.6331 H   0  0  0  0  0  0
  -27.0932  -24.7748   20.7602 H   0  0  0  0  0  0
  -29.8405  -24.0067   19.6358 H   0  0  0  0  0  0
  -30.7958  -21.8567   22.2939 H   0  0  0  0  0  0
  -32.1391  -21.0779   22.9335 H   0  0  0  0  0  0
  -29.1070  -21.0032   19.2321 H   0  0  0  0  0  0
  -28.8387  -15.7148   20.5120 H   0  0  0  0  0  0
  -27.2465  -22.9924   18.7707 H   0  0  0  0  0  0
  -28.7004  -22.7805   18.0507 H   0  0  0  0  0  0
  -28.0331  -24.2517   18.0953 H   0  0  0  0  0  0
  1 25  1  0  0  0
  1 30  2  0  0  0
  1 82  1  0  0  0
  2  3  1  0  0  0
  2 25  1  0  0  0
  2 86  1  0  0  0
  2 87  1  0  0  0
  3  4  1  0  0  0
  3 88  1  0  0  0
  3 89  1  0  0  0
  4  5  1  0  0  0
  4 90  1  0  0  0
  4 91  1  0  0  0
  5  6  1  0  0  0
  5 26  1  0  0  0
  5 92  1  0  0  0
  6 25  1  0  0  0
  6 93  1  0  0  0
  6 94  1  0  0  0
  7  8  2  0  0  0
  7 26  1  0  0  0
  7 29  1  0  0  0
  8  9  1  0  0  0
  8 22  1  0  0  0
  9 10  1  0  0  0
  9 27  2  0  0  0
 10 11  2  0  0  0
 10 15  1  0  0  0
 11 12  1  0  0  0
 11 95  1  0  0  0
 12 13  2  0  0  0
 12 96  1  0  0  0
 13 14  1  0  0  0
 13 31  1  0  0  0
 14 15  2  0  0  0
 14 97  1  0  0  0
 15 98  1  0  0  0
 16 17  2  0  0  0
 16 21  1  0  0  0
 16 31  1  0  0  0
 17 18  1  0  0  0
 17 99  1  0  0  0
 18 19  2  0  0  0
 18100  1  0  0  0
 19 20  1  0  0  0
 19 24  1  0  0  0
 20 21  2  0  0  0
 20101  1  0  0  0
 21 23  1  0  0  0
 22 28  1  0  0  0
 22 32  2  0  0  0
 26 27  1  0  0  0
 28102  1  0  0  0
 28103  1  0  0  0
 29104  1  0  0  0
 29105  1  0  0  0
 33 34  1  0  0  0
 33 66  1  0  0  0
 33 70  2  0  0  0
 34 36  1  0  0  0
 34 59  1  0  0  0
 34106  1  0  0  0
 35 44  2  0  0  0
 35 45  1  0  0  0
 35 68  1  0  0  0
 36 56  1  0  0  0
 36107  1  0  0  0
 37 39  1  0  0  0
 37 47  1  0  0  0
 37 66  1  0  0  0
 37108  1  0  0  0
 38 43  2  0  0  0
 38 46  1  0  0  0
 38 47  1  0  0  0
 39 64  1  0  0  0
 39 67  2  0  0  0
 40 52  1  0  0  0
 40 53  2  0  0  0
 40 58  1  0  0  0
 41109  1  0  0  0
 41110  1  0  0  0
 41111  1  0  0  0
 41 48  1  0  0  0
 42 43  1  0  0  0
 42 66  1  0  0  0
 42112  1  0  0  0
 42113  1  0  0  0
 43 44  1  0  0  0
 44114  1  0  0  0
 45 46  2  0  0  0
 45115  1  0  0  0
 46116  1  0  0  0
 47117  1  0  0  0
 47118  1  0  0  0
 48 56  1  0  0  0
 48 65  1  0  0  0
 48119  1  0  0  0
 49 50  1  0  0  0
 49 53  1  0  0  0
 49 64  1  0  0  0
 49120  1  0  0  0
 50 51  1  0  0  0
 50121  1  0  0  0
 50122  1  0  0  0
 51 52  1  0  0  0
 51123  1  0  0  0
 51124  1  0  0  0
 52125  1  0  0  0
 52126  1  0  0  0
 53 54  1  0  0  0
 54 55  2  0  0  0
 54127  1  0  0  0
 55 57  1  0  0  0
 55128  1  0  0  0
 56 69  2  0  0  0
 57 58  2  0  0  0
 57129  1  0  0  0
 58130  1  0  0  0
 59 60  1  0  0  0
 59 61  1  0  0  0
 59 62  1  0  0  0
 60131  1  0  0  0
 60132  1  0  0  0
 60133  1  0  0  0
 61134  1  0  0  0
 61135  1  0  0  0
 61136  1  0  0  0
 62137  1  0  0  0
 62138  1  0  0  0
 62139  1  0  0  0
 63 65  1  0  0  0
 63140  1  0  0  0
 63141  1  0  0  0
 63142  1  0  0  0
 64143  1  0  0  0
 65144  1  0  0  0
 68 78  1  0  0  0
 71 73  2  0  0  0
 71 74  1  0  0  0
 71145  1  0  0  0
 72 73  1  0  0  0
 72 76  2  0  0  0
 72146  1  0  0  0
 73 82  1  0  0  0
 74 75  2  0  0  0
 74 81  1  0  0  0
 75 76  1  0  0  0
 75 80  1  0  0  0
 76 85  1  0  0  0
 77 79  1  0  0  0
 77 81  1  0  0  0
 77 84  2  0  0  0
 78 79  1  0  0  0
 78147  1  0  0  0
 78148  1  0  0  0
 79 83  1  0  0  0
 79149  1  0  0  0
 80150  1  0  0  0
 80151  1  0  0  0
 81152  1  0  0  0
 82153  1  0  0  0
 83154  1  0  0  0
 83155  1  0  0  0
 83156  1  0  0  0
M  CHG  1  83   1
M  ISO  4   1 100  68 101  78 101  82 100
M  END
> <chiral flag>
0

> <version>
0

> <s_m_source_file>
/data/baiqing/PycharmProjects/Reinvent-master-3.2/result/LINK_invent/BTK/process_docking_weight1_custom_product_contain_oxygen_bond_distance_aromatic_linkinvent_7_9_3/rearranged_h_0154.sdf

> <i_m_source_file_index>
50

> <r_mmod_Potential_Energy-OPLS-2005>
-165.650146484375

> <r_mmod_Stretch_Energy-OPLS-2005>
130.453796386719

> <r_mmod_Bend_Energy-OPLS-2005>
160.260406494141

> <r_mmod_Torsional_Energy-OPLS-2005>
281.624481201172

> <r_mmod_Improper_Torsional_Energy-OPLS-2005>
12.5401258468628

> <r_mmod_Van_der_Waal_Energy-OPLS-2005>
149.957855224609

> <r_mmod_Electrostatic_Energy-OPLS-2005>
-434.363372802734

> <r_mmod_Solvation_Energy-OPLS-2005>
-546.761108398438

> <b_mmod_Minimization_Converged-OPLS-2005>
0

> <r_mmod_RMS_Derivative-OPLS-2005>
2.22756361961365

$$$$
50
                    3D
 Structure written by MMmdl.
169178  0  0  1  0            999 V2000
  -30.5880  -14.6587   20.4979 C   0  0  0  0  0  0
  -30.4485  -12.4026   19.4530 C   0  0  0  0  0  0
  -29.5134  -12.5128   18.2271 C   0  0  0  0  0  0
  -28.0359  -12.3396   18.6380 C   0  0  0  0  0  0
  -27.6536  -13.2100   19.8645 C   0  0  2  0  0  0
  -28.6982  -13.0592   20.9940 C   0  0  0  0  0  0
  -25.2557  -13.8150   20.5672 C   0  0  0  0  0  0
  -24.1824  -13.0421   20.9175 C   0  0  0  0  0  0
  -24.6393  -11.6892   20.8736 C   0  0  0  0  0  0
  -23.9059  -10.4285   21.0408 C   0  0  0  0  0  0
  -24.3609   -9.4205   21.9186 C   0  0  0  0  0  0
  -23.6283   -8.2242   22.0764 C   0  0  0  0  0  0
  -22.4265   -8.0282   21.3553 C   0  0  0  0  0  0
  -21.9901   -9.0252   20.4654 C   0  0  0  0  0  0
  -22.7233  -10.2129   20.3060 C   0  0  0  0  0  0
  -21.6848   -6.0734   22.5281 C   0  0  0  0  0  0
  -21.4015   -6.5640   23.8211 C   0  0  0  0  0  0
  -21.3660   -5.6797   24.9173 C   0  0  0  0  0  0
  -21.6043   -4.3061   24.7225 C   0  0  0  0  0  0
  -21.8816   -3.8150   23.4346 C   0  0  0  0  0  0
  -21.9189   -4.6962   22.3403 C   0  0  0  0  0  0
  -22.7849  -13.5223   21.1835 C   0  0  0  0  0  0
  -22.1654   -4.2150   21.0979 F   0  0  0  0  0  0
  -21.5629   -3.4546   25.7737 F   0  0  0  0  0  0
  -30.0135  -13.4156   20.4331 N   0  0  0  0  0  0
  -26.2989  -12.9319   20.3315 N   0  0  0  0  0  0
  -25.9318  -11.6483   20.5755 N   0  0  0  0  0  0
  -22.0489  -12.8227   22.0401 N   0  0  0  0  0  0
  -25.4240  -15.1873   20.4089 N   0  0  0  0  0  0
  -31.7533  -14.8558   20.1360 O   0  0  0  0  0  0
  -21.6637   -6.8878   21.4244 O   0  0  0  0  0  0
  -22.3540  -14.5530   20.6681 O   0  0  0  0  0  0
  -24.6229  -31.8588   23.2026 C   0  0  0  0  0  0
  -25.9082  -32.4774   23.8346 C   0  0  1  0  0  0
  -27.2387  -27.3330   20.1025 C   0  0  0  0  0  0
  -25.5898  -33.8575   24.2266 N   0  0  0  0  0  0
  -23.4151  -30.4781   21.5471 C   0  0  2  0  0  0
  -24.8615  -28.9279   20.1143 C   0  0  0  0  0  0
  -22.7444  -29.4592   22.4978 C   0  0  0  0  0  0
  -18.0273  -28.1346   22.8507 C   0  0  0  0  0  0
  -24.1480  -36.7291   23.2642 C   0  0  0  0  0  0
  -25.9528  -30.7935   21.3675 C   0  0  0  0  0  0
  -26.0278  -29.4214   20.7087 C   0  0  0  0  0  0
  -27.2133  -28.6347   20.6906 C   0  0  0  0  0  0
  -26.0381  -26.8667   19.5241 C   0  0  0  0  0  0
  -24.8668  -27.6541   19.5203 C   0  0  0  0  0  0
  -23.6284  -29.8082   20.1633 C   0  0  0  0  0  0
  -25.4104  -36.3078   24.0329 C   0  0  1  0  0  0
  -20.5867  -28.3634   23.1322 C   0  0  2  0  0  0
  -20.6757  -26.9363   22.5428 C   0  0  0  0  0  0
  -19.5741  -26.6363   21.5217 C   0  0  0  0  0  0
  -18.1917  -26.7896   22.1626 C   0  0  0  0  0  0
  -19.1522  -28.8809   23.2906 C   0  0  0  0  0  0
  -18.9446  -30.1416   23.8916 C   0  0  0  0  0  0
  -17.6449  -30.6565   24.0549 C   0  0  0  0  0  0
  -25.9046  -34.9451   23.5105 C   0  0  0  0  0  0
  -16.5340  -29.9063   23.6319 C   0  0  0  0  0  0
  -16.7260  -28.6467   23.0373 C   0  0  0  0  0  0
  -26.4484  -31.6590   25.0714 C   0  0  0  0  0  0
  -25.3731  -31.3711   26.1452 C   0  0  0  0  0  0
  -27.0314  -30.3021   24.6140 C   0  0  0  0  0  0
  -27.6047  -32.4335   25.7471 C   0  0  0  0  0  0
  -27.5570  -37.1789   24.8460 C   0  0  0  0  0  0
  -21.4161  -29.2997   22.3726 N   0  0  0  0  0  0
  -26.4278  -37.3774   23.9413 N   0  0  0  0  0  0
  -24.6828  -31.0595   22.0972 N   0  0  0  0  0  0
  -23.4180  -28.8145   23.3057 O   0  0  0  0  0  0
  -28.4234  -26.5849   20.1411 O   0  0  0  0  0  0
  -26.5632  -34.8919   22.4684 O   0  0  0  0  0  0
  -23.5401  -32.1389   23.7366 O   0  0  0  0  0  0
  -30.2103  -19.4113   21.4478 C   0  0  0  0  0  0
  -30.5132  -18.0149   21.3813 C   0  0  0  0  0  0
  -28.6729  -17.7233   19.8809 C   0  0  0  0  0  0
  -29.0693  -20.0085   20.8174 C   0  0  0  0  0  0
  -28.3688  -19.1196   19.9336 C   0  0  0  0  0  0
  -29.7047  -17.1182   20.6427 C   0  0  0  0  0  0
  -26.6493  -22.2776   22.7498 C   0  0  0  0  0  0
  -27.9579  -22.5312   23.4925 C   0  0  0  0  0  0
  -26.9978  -21.3732   21.5581 C   0  0  0  0  0  0
  -29.0505  -21.8190   22.6805 C   0  0  0  0  0  0
  -28.5219  -21.4602   21.2576 C   0  0  0  0  0  0
  -27.2198  -19.5856   19.0525 C   0  0  0  0  0  0
  -28.4099  -25.0578   18.1353 C   0  0  0  0  0  0
  -28.1335  -23.9791   20.5103 C   0  0  0  0  0  0
  -28.6458  -25.2055   19.6483 C   0  0  2  0  0  0
  -29.7140  -15.6660   20.8133 N   0  0  0  0  0  0
  -28.8154  -22.6181   20.3011 N   0  3  0  0  0  0
  -31.4884  -12.5459   19.1530 H   0  0  0  0  0  0
  -30.3963  -11.4054   19.8917 H   0  0  0  0  0  0
  -29.7848  -11.7680   17.4777 H   0  0  0  0  0  0
  -29.6483  -13.4862   17.7519 H   0  0  0  0  0  0
  -27.8788  -11.2855   18.8693 H   0  0  0  0  0  0
  -27.3817  -12.5654   17.7956 H   0  0  0  0  0  0
  -27.6704  -14.2441   19.5209 H   0  0  0  0  0  0
  -28.7150  -12.0351   21.3689 H   0  0  0  0  0  0
  -28.4380  -13.6807   21.8531 H   0  0  0  0  0  0
  -25.2753   -9.5672   22.4759 H   0  0  0  0  0  0
  -23.9985   -7.4637   22.7487 H   0  0  0  0  0  0
  -21.0832   -8.8773   19.8959 H   0  0  0  0  0  0
  -22.3698  -10.9665   19.6169 H   0  0  0  0  0  0
  -21.2016   -7.6149   23.9714 H   0  0  0  0  0  0
  -21.1484   -6.0529   25.9073 H   0  0  0  0  0  0
  -22.0597   -2.7612   23.2852 H   0  0  0  0  0  0
  -22.4096  -11.9882   22.4780 H   0  0  0  0  0  0
  -21.1114  -13.1268   22.2610 H   0  0  0  0  0  0
  -24.6480  -15.8323   20.5113 H   0  0  0  0  0  0
  -26.2679  -15.6368   20.0810 H   0  0  0  0  0  0
  -26.7146  -32.5440   23.1091 H   0  0  0  0  0  0
  -24.9997  -33.9726   25.0374 H   0  0  0  0  0  0
  -22.7063  -31.2970   21.4031 H   0  0  0  0  0  0
  -23.3748  -35.9615   23.3302 H   0  0  0  0  0  0
  -24.3571  -36.8935   22.2060 H   0  0  0  0  0  0
  -23.7238  -37.6489   23.6680 H   0  0  0  0  0  0
  -26.0765  -31.5591   20.6006 H   0  0  0  0  0  0
  -26.8352  -30.8429   21.9942 H   0  0  0  0  0  0
  -28.1128  -29.0173   21.1521 H   0  0  0  0  0  0
  -25.9671  -25.8818   19.0948 H   0  0  0  0  0  0
  -23.9627  -27.2597   19.0766 H   0  0  0  0  0  0
  -23.7429  -30.5854   19.4060 H   0  0  0  0  0  0
  -22.7475  -29.2371   19.8651 H   0  0  0  0  0  0
  -25.1283  -36.1928   25.0819 H   0  0  0  0  0  0
  -20.9938  -28.3185   24.1450 H   0  0  0  0  0  0
  -20.5648  -26.2223   23.3606 H   0  0  0  0  0  0
  -21.6628  -26.7390   22.1222 H   0  0  0  0  0  0
  -19.6898  -25.6280   21.1239 H   0  0  0  0  0  0
  -19.6699  -27.3184   20.6758 H   0  0  0  0  0  0
  -17.4188  -26.6667   21.4024 H   0  0  0  0  0  0
  -18.0301  -26.0008   22.8992 H   0  0  0  0  0  0
  -19.7919  -30.7223   24.2305 H   0  0  0  0  0  0
  -17.5001  -31.6258   24.5126 H   0  0  0  0  0  0
  -15.5343  -30.2978   23.7615 H   0  0  0  0  0  0
  -15.8656  -28.0780   22.7109 H   0  0  0  0  0  0
  -24.5924  -30.7032   25.7797 H   0  0  0  0  0  0
  -24.8888  -32.2861   26.4874 H   0  0  0  0  0  0
  -25.8073  -30.8913   27.0232 H   0  0  0  0  0  0
  -26.2861  -29.6790   24.1185 H   0  0  0  0  0  0
  -27.4049  -29.7257   25.4615 H   0  0  0  0  0  0
  -27.8711  -30.4324   23.9309 H   0  0  0  0  0  0
  -27.2659  -33.3640   26.2036 H   0  0  0  0  0  0
  -28.3842  -32.6911   25.0286 H   0  0  0  0  0  0
  -28.0726  -31.8480   26.5398 H   0  0  0  0  0  0
  -28.2578  -38.0092   24.7512 H   0  0  0  0  0  0
  -28.1076  -36.2630   24.6270 H   0  0  0  0  0  0
  -27.2291  -37.1415   25.8862 H   0  0  0  0  0  0
  -20.9316  -29.8722   21.6952 H   0  0  0  0  0  0
  -26.0162  -38.2840   24.1454 H   0  0  0  0  0  0
  -30.8377  -20.0064   22.0966 H   0  0  0  0  0  0
  -31.3199  -17.6266   21.9879 H   0  0  0  0  0  0
  -28.0463  -17.0877   19.2706 H   0  0  0  0  0  0
  -26.2207  -23.2229   22.4174 H   0  0  0  0  0  0
  -25.9022  -21.8112   23.3933 H   0  0  0  0  0  0
  -27.9114  -22.1390   24.5099 H   0  0  0  0  0  0
  -28.1545  -23.5993   23.5930 H   0  0  0  0  0  0
  -26.3680  -21.5860   20.6946 H   0  0  0  0  0  0
  -26.7599  -20.3549   21.8701 H   0  0  0  0  0  0
  -29.2277  -20.9078   23.2502 H   0  0  0  0  0  0
  -29.9981  -22.3580   22.6662 H   0  0  0  0  0  0
  -27.1901  -19.0118   18.1249 H   0  0  0  0  0  0
  -27.3136  -20.6325   18.7675 H   0  0  0  0  0  0
  -26.2657  -19.4377   19.5591 H   0  0  0  0  0  0
  -28.9474  -24.1932   17.7478 H   0  0  0  0  0  0
  -28.7844  -25.9300   17.6004 H   0  0  0  0  0  0
  -27.3650  -24.9202   17.8700 H   0  0  0  0  0  0
  -27.0572  -23.8832   20.3733 H   0  0  0  0  0  0
  -28.2912  -24.2836   21.5396 H   0  0  0  0  0  0
  -29.7301  -25.1457   19.7502 H   0  0  0  0  0  0
  -28.8042  -15.2853   21.0231 H   0  0  0  0  0  0
  -28.6008  -22.3009   19.3695 H   0  0  0  0  0  0
  -29.8128  -22.7605   20.3266 H   0  0  0  0  0  0
  1 25  1  0  0  0
  1 30  2  0  0  0
  1 86  1  0  0  0
  2  3  1  0  0  0
  2 25  1  0  0  0
  2 88  1  0  0  0
  2 89  1  0  0  0
  3  4  1  0  0  0
  3 90  1  0  0  0
  3 91  1  0  0  0
  4  5  1  0  0  0
  4 92  1  0  0  0
  4 93  1  0  0  0
  5  6  1  0  0  0
  5 26  1  0  0  0
  5 94  1  0  0  0
  6 25  1  0  0  0
  6 95  1  0  0  0
  6 96  1  0  0  0
  7  8  2  0  0  0
  7 26  1  0  0  0
  7 29  1  0  0  0
  8  9  1  0  0  0
  8 22  1  0  0  0
  9 10  1  0  0  0
  9 27  2  0  0  0
 10 11  2  0  0  0
 10 15  1  0  0  0
 11 12  1  0  0  0
 11 97  1  0  0  0
 12 13  2  0  0  0
 12 98  1  0  0  0
 13 14  1  0  0  0
 13 31  1  0  0  0
 14 15  2  0  0  0
 14 99  1  0  0  0
 15100  1  0  0  0
 16 17  2  0  0  0
 16 21  1  0  0  0
 16 31  1  0  0  0
 17 18  1  0  0  0
 17101  1  0  0  0
 18 19  2  0  0  0
 18102  1  0  0  0
 19 20  1  0  0  0
 19 24  1  0  0  0
 20 21  2  0  0  0
 20103  1  0  0  0
 21 23  1  0  0  0
 22 28  1  0  0  0
 22 32  2  0  0  0
 26 27  1  0  0  0
 28104  1  0  0  0
 28105  1  0  0  0
 29106  1  0  0  0
 29107  1  0  0  0
 33 34  1  0  0  0
 33 66  1  0  0  0
 33 70  2  0  0  0
 34 36  1  0  0  0
 34 59  1  0  0  0
 34108  1  0  0  0
 35 44  2  0  0  0
 35 45  1  0  0  0
 35 68  1  0  0  0
 36 56  1  0  0  0
 36109  1  0  0  0
 37 39  1  0  0  0
 37 47  1  0  0  0
 37 66  1  0  0  0
 37110  1  0  0  0
 38 43  2  0  0  0
 38 46  1  0  0  0
 38 47  1  0  0  0
 39 64  1  0  0  0
 39 67  2  0  0  0
 40 52  1  0  0  0
 40 53  2  0  0  0
 40 58  1  0  0  0
 41111  1  0  0  0
 41112  1  0  0  0
 41113  1  0  0  0
 41 48  1  0  0  0
 42 43  1  0  0  0
 42 66  1  0  0  0
 42114  1  0  0  0
 42115  1  0  0  0
 43 44  1  0  0  0
 44116  1  0  0  0
 45 46  2  0  0  0
 45117  1  0  0  0
 46118  1  0  0  0
 47119  1  0  0  0
 47120  1  0  0  0
 48 56  1  0  0  0
 48 65  1  0  0  0
 48121  1  0  0  0
 49 50  1  0  0  0
 49 53  1  0  0  0
 49 64  1  0  0  0
 49122  1  0  0  0
 50 51  1  0  0  0
 50123  1  0  0  0
 50124  1  0  0  0
 51 52  1  0  0  0
 51125  1  0  0  0
 51126  1  0  0  0
 52127  1  0  0  0
 52128  1  0  0  0
 53 54  1  0  0  0
 54 55  2  0  0  0
 54129  1  0  0  0
 55 57  1  0  0  0
 55130  1  0  0  0
 56 69  2  0  0  0
 57 58  2  0  0  0
 57131  1  0  0  0
 58132  1  0  0  0
 59 60  1  0  0  0
 59 61  1  0  0  0
 59 62  1  0  0  0
 60133  1  0  0  0
 60134  1  0  0  0
 60135  1  0  0  0
 61136  1  0  0  0
 61137  1  0  0  0
 61138  1  0  0  0
 62139  1  0  0  0
 62140  1  0  0  0
 62141  1  0  0  0
 63 65  1  0  0  0
 63142  1  0  0  0
 63143  1  0  0  0
 63144  1  0  0  0
 64145  1  0  0  0
 65146  1  0  0  0
 68 85  1  0  0  0
 71 72  2  0  0  0
 71 74  1  0  0  0
 71147  1  0  0  0
 72 76  1  0  0  0
 72148  1  0  0  0
 73 75  1  0  0  0
 73 76  2  0  0  0
 73149  1  0  0  0
 74 75  2  0  0  0
 74 81  1  0  0  0
 75 82  1  0  0  0
 76 86  1  0  0  0
 77 78  1  0  0  0
 77 79  1  0  0  0
 77150  1  0  0  0
 77151  1  0  0  0
 78 80  1  0  0  0
 78152  1  0  0  0
 78153  1  0  0  0
 79 81  1  0  0  0
 79154  1  0  0  0
 79155  1  0  0  0
 80 81  1  0  0  0
 80156  1  0  0  0
 80157  1  0  0  0
 81 87  1  0  0  0
 82158  1  0  0  0
 82159  1  0  0  0
 82160  1  0  0  0
 83161  1  0  0  0
 83162  1  0  0  0
 83163  1  0  0  0
 83 85  1  0  0  0
 84 85  1  0  0  0
 84 87  1  0  0  0
 84164  1  0  0  0
 84165  1  0  0  0
 85166  1  0  0  0
 86167  1  0  0  0
 87168  1  0  0  0
 87169  1  0  0  0
M  CHG  1  87   1
M  ISO  4   1 100  68 101  85 101  86 100
M  END
> <chiral flag>
0

> <version>
0

> <s_m_source_file>
/data/baiqing/PycharmProjects/Reinvent-master-3.2/result/LINK_invent/BTK/process_docking_weight1_custom_product_contain_oxygen_bond_distance_aromatic_linkinvent_7_9_3/rearranged_h_0154.sdf

> <i_m_source_file_index>
51

> <r_mmod_Potential_Energy-OPLS-2005>
71.3240585327148

> <r_mmod_Stretch_Energy-OPLS-2005>
92.4660186767578

> <r_mmod_Bend_Energy-OPLS-2005>
200.712356567383

> <r_mmod_Torsional_Energy-OPLS-2005>
318.868041992188

> <r_mmod_Improper_Torsional_Energy-OPLS-2005>
7.61011552810669

> <r_mmod_Van_der_Waal_Energy-OPLS-2005>
146.26432800293

> <r_mmod_Electrostatic_Energy-OPLS-2005>
-303.272979736328

> <r_mmod_Solvation_Energy-OPLS-2005>
-437.910583496094

> <b_mmod_Minimization_Converged-OPLS-2005>
0

> <r_mmod_RMS_Derivative-OPLS-2005>
1.53069543838501

$$$$
51
                    3D
 Structure written by MMmdl.
153162  0  0  1  0            999 V2000
  -30.5836  -14.8089   20.4488 C   0  0  0  0  0  0
  -30.4378  -12.4902   19.4931 C   0  0  0  0  0  0
  -29.5176  -12.5195   18.2511 C   0  0  0  0  0  0
  -28.0445  -12.3355   18.6655 C   0  0  0  0  0  0
  -27.6444  -13.2388   19.8629 C   0  0  2  0  0  0
  -28.6881  -13.1817   21.0011 C   0  0  0  0  0  0
  -25.2500  -13.8199   20.5723 C   0  0  0  0  0  0
  -24.1783  -13.0442   20.9190 C   0  0  0  0  0  0
  -24.6394  -11.6930   20.8749 C   0  0  0  0  0  0
  -23.9079  -10.4297   21.0409 C   0  0  0  0  0  0
  -24.3633   -9.4207   21.9180 C   0  0  0  0  0  0
  -23.6306   -8.2246   22.0756 C   0  0  0  0  0  0
  -22.4287   -8.0289   21.3545 C   0  0  0  0  0  0
  -21.9921   -9.0265   20.4643 C   0  0  0  0  0  0
  -22.7258  -10.2136   20.3047 C   0  0  0  0  0  0
  -21.6848   -6.0738   22.5276 C   0  0  0  0  0  0
  -21.4013   -6.5645   23.8209 C   0  0  0  0  0  0
  -21.3668   -5.6802   24.9175 C   0  0  0  0  0  0
  -21.6043   -4.3063   24.7222 C   0  0  0  0  0  0
  -21.8813   -3.8147   23.4346 C   0  0  0  0  0  0
  -21.9194   -4.6968   22.3402 C   0  0  0  0  0  0
  -22.7798  -13.5220   21.1849 C   0  0  0  0  0  0
  -22.1667   -4.2151   21.0984 F   0  0  0  0  0  0
  -21.5633   -3.4549   25.7736 F   0  0  0  0  0  0
  -29.9873  -13.5582   20.4258 N   0  0  0  0  0  0
  -26.2951  -12.9426   20.3353 N   0  0  0  0  0  0
  -25.9340  -11.6559   20.5794 N   0  0  0  0  0  0
  -22.0487  -12.8191   22.0431 N   0  0  0  0  0  0
  -25.4191  -15.1923   20.4191 N   0  0  0  0  0  0
  -31.7508  -14.9149   20.0608 O   0  0  0  0  0  0
  -21.6644   -6.8891   21.4241 O   0  0  0  0  0  0
  -22.3457  -14.5529   20.6713 O   0  0  0  0  0  0
  -24.6344  -31.8518   23.1964 C   0  0  0  0  0  0
  -25.9156  -32.4740   23.8320 C   0  0  1  0  0  0
  -27.2199  -27.2134   20.1402 C   0  0  0  0  0  0
  -25.5942  -33.8552   24.2235 N   0  0  0  0  0  0
  -23.4361  -30.4733   21.5386 C   0  0  2  0  0  0
  -24.8875  -28.9176   20.1085 C   0  0  0  0  0  0
  -22.7534  -29.4576   22.4879 C   0  0  0  0  0  0
  -18.0306  -28.1393   22.8495 C   0  0  0  0  0  0
  -24.1489  -36.7274   23.2637 C   0  0  0  0  0  0
  -25.9865  -30.7464   21.3901 C   0  0  0  0  0  0
  -26.0587  -29.3651   20.7335 C   0  0  0  0  0  0
  -27.2252  -28.5236   20.7445 C   0  0  0  0  0  0
  -26.0352  -26.8676   19.4498 C   0  0  0  0  0  0
  -24.8829  -27.6769   19.4560 C   0  0  0  0  0  0
  -23.6596  -29.8090   20.1559 C   0  0  0  0  0  0
  -25.4123  -36.3069   24.0317 C   0  0  1  0  0  0
  -20.5908  -28.3711   23.1256 C   0  0  2  0  0  0
  -20.6788  -26.9413   22.5412 C   0  0  0  0  0  0
  -19.5757  -26.6376   21.5220 C   0  0  0  0  0  0
  -18.1939  -26.7939   22.1639 C   0  0  0  0  0  0
  -19.1560  -28.8870   23.2867 C   0  0  0  0  0  0
  -18.9480  -30.1472   23.8874 C   0  0  0  0  0  0
  -17.6474  -30.6586   24.0575 C   0  0  0  0  0  0
  -25.9068  -34.9436   23.5087 C   0  0  0  0  0  0
  -16.5367  -29.9082   23.6333 C   0  0  0  0  0  0
  -16.7291  -28.6502   23.0355 C   0  0  0  0  0  0
  -26.4506  -31.6587   25.0737 C   0  0  0  0  0  0
  -25.3710  -31.3751   26.1443 C   0  0  0  0  0  0
  -27.0370  -30.2998   24.6261 C   0  0  0  0  0  0
  -27.6037  -32.4355   25.7512 C   0  0  0  0  0  0
  -27.5586  -37.1787   24.8458 C   0  0  0  0  0  0
  -21.4234  -29.3049   22.3627 N   0  0  0  0  0  0
  -26.4291  -37.3776   23.9416 N   0  0  0  0  0  0
  -24.7041  -31.0433   22.0972 N   0  0  0  0  0  0
  -23.4202  -28.8116   23.3006 O   0  0  0  0  0  0
  -28.2797  -26.2578   20.2074 O   0  0  0  0  0  0
  -26.5637  -34.8916   22.4658 O   0  0  0  0  0  0
  -23.5480  -32.1362   23.7227 O   0  0  0  0  0  0
  -29.6686  -18.6180   21.0587 C   0  0  0  0  0  0
  -29.8122  -17.3442   20.3002 C   0  0  0  0  0  0
  -29.5401  -19.8141   20.3014 C   0  0  0  0  0  0
  -29.7477  -17.6063   18.9527 C   0  0  0  0  0  0
  -28.7860  -23.6955   20.3457 C   0  0  0  0  0  0
  -27.9839  -24.8424   20.2863 C   0  0  0  0  0  0
  -30.2917  -23.6049   20.4074 C   0  0  0  0  0  0
  -28.3369  -22.1808   20.3898 C   0  0  0  0  0  0
  -30.6641  -22.0841   20.3456 C   0  0  0  0  0  0
  -29.4918  -21.2474   20.6560 N   0  0  0  0  0  0
  -29.7542  -16.6991   17.8995 N   0  0  0  0  0  0
  -29.8341  -15.9311   20.8166 N   0  0  0  0  0  0
  -29.5672  -19.3345   18.6105 S   0  0  0  0  0  0
  -31.4778  -12.6167   19.1892 H   0  0  0  0  0  0
  -30.3919  -11.5153   19.9811 H   0  0  0  0  0  0
  -29.8053  -11.7373   17.5464 H   0  0  0  0  0  0
  -29.6386  -13.4670   17.7241 H   0  0  0  0  0  0
  -27.9107  -11.2869   18.9364 H   0  0  0  0  0  0
  -27.3855  -12.5158   17.8150 H   0  0  0  0  0  0
  -27.6360  -14.2598   19.4823 H   0  0  0  0  0  0
  -28.7360  -12.1810   21.4330 H   0  0  0  0  0  0
  -28.4104  -13.8480   21.8181 H   0  0  0  0  0  0
  -25.2785   -9.5690   22.4741 H   0  0  0  0  0  0
  -24.0024   -7.4648   22.7483 H   0  0  0  0  0  0
  -21.0852   -8.8805   19.8941 H   0  0  0  0  0  0
  -22.3735  -10.9680   19.6154 H   0  0  0  0  0  0
  -21.1998   -7.6152   23.9708 H   0  0  0  0  0  0
  -21.1496   -6.0533   25.9081 H   0  0  0  0  0  0
  -22.0572   -2.7602   23.2848 H   0  0  0  0  0  0
  -22.4160  -11.9876   22.4806 H   0  0  0  0  0  0
  -21.1090  -13.1138   22.2664 H   0  0  0  0  0  0
  -24.6467  -15.8437   20.5148 H   0  0  0  0  0  0
  -26.2764  -15.6386   20.1189 H   0  0  0  0  0  0
  -26.7229  -32.5384   23.1062 H   0  0  0  0  0  0
  -25.0099  -33.9689   25.0382 H   0  0  0  0  0  0
  -22.7342  -31.2963   21.3907 H   0  0  0  0  0  0
  -23.3773  -35.9585   23.3273 H   0  0  0  0  0  0
  -24.3574  -36.8939   22.2059 H   0  0  0  0  0  0
  -23.7214  -37.6448   23.6691 H   0  0  0  0  0  0
  -26.1369  -31.5040   20.6194 H   0  0  0  0  0  0
  -26.8601  -30.7968   22.0279 H   0  0  0  0  0  0
  -28.1167  -28.8538   21.2589 H   0  0  0  0  0  0
  -25.9703  -25.9334   18.9117 H   0  0  0  0  0  0
  -23.9925  -27.3350   18.9461 H   0  0  0  0  0  0
  -23.7899  -30.5865   19.4025 H   0  0  0  0  0  0
  -22.7772  -29.2460   19.8462 H   0  0  0  0  0  0
  -25.1304  -36.1911   25.0804 H   0  0  0  0  0  0
  -21.0012  -28.3309   24.1371 H   0  0  0  0  0  0
  -20.5698  -26.2316   23.3628 H   0  0  0  0  0  0
  -21.6650  -26.7436   22.1199 H   0  0  0  0  0  0
  -19.6904  -25.6294   21.1252 H   0  0  0  0  0  0
  -19.6680  -27.3190   20.6760 H   0  0  0  0  0  0
  -17.4207  -26.6706   21.4034 H   0  0  0  0  0  0
  -18.0315  -26.0073   22.9021 H   0  0  0  0  0  0
  -19.7955  -30.7311   24.2199 H   0  0  0  0  0  0
  -17.5028  -31.6252   24.5209 H   0  0  0  0  0  0
  -15.5366  -30.2981   23.7652 H   0  0  0  0  0  0
  -15.8703  -28.0821   22.7060 H   0  0  0  0  0  0
  -24.5895  -30.7090   25.7772 H   0  0  0  0  0  0
  -24.8886  -32.2929   26.4818 H   0  0  0  0  0  0
  -25.8012  -30.8963   27.0250 H   0  0  0  0  0  0
  -26.2978  -29.6730   24.1259 H   0  0  0  0  0  0
  -27.4013  -29.7277   25.4801 H   0  0  0  0  0  0
  -27.8874  -30.4260   23.9555 H   0  0  0  0  0  0
  -27.2627  -33.3676   26.2022 H   0  0  0  0  0  0
  -28.3867  -32.6883   25.0358 H   0  0  0  0  0  0
  -28.0673  -31.8533   26.5476 H   0  0  0  0  0  0
  -28.2568  -38.0119   24.7574 H   0  0  0  0  0  0
  -28.1121  -36.2655   24.6218 H   0  0  0  0  0  0
  -27.2308  -37.1361   25.8859 H   0  0  0  0  0  0
  -20.9408  -29.8773   21.6838 H   0  0  0  0  0  0
  -26.0162  -38.2837   24.1476 H   0  0  0  0  0  0
  -29.6763  -18.6124   22.1385 H   0  0  0  0  0  0
  -26.9190  -24.6692   20.3131 H   0  0  0  0  0  0
  -30.6226  -24.0359   21.3523 H   0  0  0  0  0  0
  -30.7601  -24.1743   19.6038 H   0  0  0  0  0  0
  -27.8744  -21.9260   19.4353 H   0  0  0  0  0  0
  -27.5755  -22.0539   21.1601 H   0  0  0  0  0  0
  -31.4862  -21.8619   21.0283 H   0  0  0  0  0  0
  -31.0202  -21.8412   19.3430 H   0  0  0  0  0  0
  -29.8404  -15.6964   18.0096 H   0  0  0  0  0  0
  -29.6377  -16.9786   16.9304 H   0  0  0  0  0  0
  -29.0164  -15.6925   21.3544 H   0  0  0  0  0  0
  1 25  1  0  0  0
  1 30  2  0  0  0
  1 82  1  0  0  0
  2  3  1  0  0  0
  2 25  1  0  0  0
  2 84  1  0  0  0
  2 85  1  0  0  0
  3  4  1  0  0  0
  3 86  1  0  0  0
  3 87  1  0  0  0
  4  5  1  0  0  0
  4 88  1  0  0  0
  4 89  1  0  0  0
  5  6  1  0  0  0
  5 26  1  0  0  0
  5 90  1  0  0  0
  6 25  1  0  0  0
  6 91  1  0  0  0
  6 92  1  0  0  0
  7  8  2  0  0  0
  7 26  1  0  0  0
  7 29  1  0  0  0
  8  9  1  0  0  0
  8 22  1  0  0  0
  9 10  1  0  0  0
  9 27  2  0  0  0
 10 11  2  0  0  0
 10 15  1  0  0  0
 11 12  1  0  0  0
 11 93  1  0  0  0
 12 13  2  0  0  0
 12 94  1  0  0  0
 13 14  1  0  0  0
 13 31  1  0  0  0
 14 15  2  0  0  0
 14 95  1  0  0  0
 15 96  1  0  0  0
 16 17  2  0  0  0
 16 21  1  0  0  0
 16 31  1  0  0  0
 17 18  1  0  0  0
 17 97  1  0  0  0
 18 19  2  0  0  0
 18 98  1  0  0  0
 19 20  1  0  0  0
 19 24  1  0  0  0
 20 21  2  0  0  0
 20 99  1  0  0  0
 21 23  1  0  0  0
 22 28  1  0  0  0
 22 32  2  0  0  0
 26 27  1  0  0  0
 28100  1  0  0  0
 28101  1  0  0  0
 29102  1  0  0  0
 29103  1  0  0  0
 33 34  1  0  0  0
 33 66  1  0  0  0
 33 70  2  0  0  0
 34 36  1  0  0  0
 34 59  1  0  0  0
 34104  1  0  0  0
 35 44  2  0  0  0
 35 45  1  0  0  0
 35 68  1  0  0  0
 36 56  1  0  0  0
 36105  1  0  0  0
 37 39  1  0  0  0
 37 47  1  0  0  0
 37 66  1  0  0  0
 37106  1  0  0  0
 38 43  2  0  0  0
 38 46  1  0  0  0
 38 47  1  0  0  0
 39 64  1  0  0  0
 39 67  2  0  0  0
 40 52  1  0  0  0
 40 53  2  0  0  0
 40 58  1  0  0  0
 41107  1  0  0  0
 41108  1  0  0  0
 41109  1  0  0  0
 41 48  1  0  0  0
 42 43  1  0  0  0
 42 66  1  0  0  0
 42110  1  0  0  0
 42111  1  0  0  0
 43 44  1  0  0  0
 44112  1  0  0  0
 45 46  2  0  0  0
 45113  1  0  0  0
 46114  1  0  0  0
 47115  1  0  0  0
 47116  1  0  0  0
 48 56  1  0  0  0
 48 65  1  0  0  0
 48117  1  0  0  0
 49 50  1  0  0  0
 49 53  1  0  0  0
 49 64  1  0  0  0
 49118  1  0  0  0
 50 51  1  0  0  0
 50119  1  0  0  0
 50120  1  0  0  0
 51 52  1  0  0  0
 51121  1  0  0  0
 51122  1  0  0  0
 52123  1  0  0  0
 52124  1  0  0  0
 53 54  1  0  0  0
 54 55  2  0  0  0
 54125  1  0  0  0
 55 57  1  0  0  0
 55126  1  0  0  0
 56 69  2  0  0  0
 57 58  2  0  0  0
 57127  1  0  0  0
 58128  1  0  0  0
 59 60  1  0  0  0
 59 61  1  0  0  0
 59 62  1  0  0  0
 60129  1  0  0  0
 60130  1  0  0  0
 60131  1  0  0  0
 61132  1  0  0  0
 61133  1  0  0  0
 61134  1  0  0  0
 62135  1  0  0  0
 62136  1  0  0  0
 62137  1  0  0  0
 63 65  1  0  0  0
 63138  1  0  0  0
 63139  1  0  0  0
 63140  1  0  0  0
 64141  1  0  0  0
 65142  1  0  0  0
 68 76  1  0  0  0
 71 72  1  0  0  0
 71 73  2  0  0  0
 71143  1  0  0  0
 72 74  2  0  0  0
 72 82  1  0  0  0
 73 80  1  0  0  0
 73 83  1  0  0  0
 74 81  1  0  0  0
 74 83  1  0  0  0
 75 76  2  0  0  0
 75 77  1  0  0  0
 75 78  1  0  0  0
 76144  1  0  0  0
 77 79  1  0  0  0
 77145  1  0  0  0
 77146  1  0  0  0
 78 80  1  0  0  0
 78147  1  0  0  0
 78148  1  0  0  0
 79 80  1  0  0  0
 79149  1  0  0  0
 79150  1  0  0  0
 81151  1  0  0  0
 81152  1  0  0  0
 82153  1  0  0  0
M  ISO  4   1 100  68 101  76 101  82 100
M  END
> <chiral flag>
0

> <version>
0

> <s_m_source_file>
/data/baiqing/PycharmProjects/Reinvent-master-3.2/result/LINK_invent/BTK/process_docking_weight1_custom_product_contain_oxygen_bond_distance_aromatic_linkinvent_7_9_3/rearranged_h_0154.sdf

> <i_m_source_file_index>
52

> <r_mmod_Potential_Energy-OPLS-2005>
250.308990478516

> <r_mmod_Stretch_Energy-OPLS-2005>
140.465087890625

> <r_mmod_Bend_Energy-OPLS-2005>
202.831314086914

> <r_mmod_Torsional_Energy-OPLS-2005>
286.242095947266

> <r_mmod_Improper_Torsional_Energy-OPLS-2005>
8.57284259796143

> <r_mmod_Van_der_Waal_Energy-OPLS-2005>
114.196228027344

> <r_mmod_Electrostatic_Energy-OPLS-2005>
-378.876403808594

> <r_mmod_Solvation_Energy-OPLS-2005>
-241.303970336914

> <b_mmod_Minimization_Converged-OPLS-2005>
0

> <r_mmod_RMS_Derivative-OPLS-2005>
2.06022524833679

$$$$
52
                    3D
 Structure written by MMmdl.
155164  0  0  1  0            999 V2000
  -30.4953  -15.0715   20.3615 C   0  0  0  0  0  0
  -30.4507  -12.6663   19.4950 C   0  0  0  0  0  0
  -29.5227  -12.5206   18.2643 C   0  0  0  0  0  0
  -28.0655  -12.2841   18.7016 C   0  0  0  0  0  0
  -27.6267  -13.2486   19.8309 C   0  0  2  0  0  0
  -28.6744  -13.3403   20.9627 C   0  0  0  0  0  0
  -25.2473  -13.8216   20.5722 C   0  0  0  0  0  0
  -24.1785  -13.0443   20.9251 C   0  0  0  0  0  0
  -24.6409  -11.6930   20.8790 C   0  0  0  0  0  0
  -23.9090  -10.4299   21.0423 C   0  0  0  0  0  0
  -24.3631   -9.4200   21.9196 C   0  0  0  0  0  0
  -23.6293   -8.2240   22.0763 C   0  0  0  0  0  0
  -22.4278   -8.0287   21.3547 C   0  0  0  0  0  0
  -21.9922   -9.0265   20.4651 C   0  0  0  0  0  0
  -22.7262  -10.2141   20.3065 C   0  0  0  0  0  0
  -21.6852   -6.0738   22.5270 C   0  0  0  0  0  0
  -21.4011   -6.5643   23.8205 C   0  0  0  0  0  0
  -21.3657   -5.6792   24.9172 C   0  0  0  0  0  0
  -21.6039   -4.3055   24.7219 C   0  0  0  0  0  0
  -21.8818   -3.8147   23.4341 C   0  0  0  0  0  0
  -21.9199   -4.6963   22.3396 C   0  0  0  0  0  0
  -22.7802  -13.5216   21.1877 C   0  0  0  0  0  0
  -22.1662   -4.2150   21.0972 F   0  0  0  0  0  0
  -21.5633   -3.4541   25.7733 F   0  0  0  0  0  0
  -29.9301  -13.7866   20.3415 N   0  0  0  0  0  0
  -26.2894  -12.9443   20.3258 N   0  0  0  0  0  0
  -25.9341  -11.6580   20.5788 N   0  0  0  0  0  0
  -22.0461  -12.8207   22.0434 N   0  0  0  0  0  0
  -25.4158  -15.1940   20.4071 N   0  0  0  0  0  0
  -31.7056  -15.1264   20.1161 O   0  0  0  0  0  0
  -21.6649   -6.8879   21.4236 O   0  0  0  0  0  0
  -22.3488  -14.5523   20.6722 O   0  0  0  0  0  0
  -24.6523  -31.8342   23.1808 C   0  0  0  0  0  0
  -25.9256  -32.4644   23.8231 C   0  0  1  0  0  0
  -27.2256  -27.0478   20.1380 C   0  0  0  0  0  0
  -25.5975  -33.8455   24.2128 N   0  0  0  0  0  0
  -23.4623  -30.4518   21.5260 C   0  0  2  0  0  0
  -24.9131  -28.8590   20.1099 C   0  0  0  0  0  0
  -22.7610  -29.4521   22.4803 C   0  0  0  0  0  0
  -18.0320  -28.1436   22.8474 C   0  0  0  0  0  0
  -24.1485  -36.7214   23.2647 C   0  0  0  0  0  0
  -26.0273  -30.6705   21.4019 C   0  0  0  0  0  0
  -26.0925  -29.2758   20.7386 C   0  0  0  0  0  0
  -27.2415  -28.3832   20.7412 C   0  0  0  0  0  0
  -26.0251  -26.7681   19.4487 C   0  0  0  0  0  0
  -24.8959  -27.6198   19.4521 C   0  0  0  0  0  0
  -23.6960  -29.7735   20.1489 C   0  0  0  0  0  0
  -25.4122  -36.2995   24.0308 C   0  0  1  0  0  0
  -20.5945  -28.3768   23.1194 C   0  0  2  0  0  0
  -20.6803  -26.9463   22.5391 C   0  0  0  0  0  0
  -19.5773  -26.6395   21.5213 C   0  0  0  0  0  0
  -18.1952  -26.7984   22.1605 C   0  0  0  0  0  0
  -19.1585  -28.8916   23.2837 C   0  0  0  0  0  0
  -18.9511  -30.1513   23.8874 C   0  0  0  0  0  0
  -17.6502  -30.6634   24.0573 C   0  0  0  0  0  0
  -25.9084  -34.9369   23.5025 C   0  0  0  0  0  0
  -16.5388  -29.9133   23.6356 C   0  0  0  0  0  0
  -16.7300  -28.6554   23.0378 C   0  0  0  0  0  0
  -26.4539  -31.6576   25.0723 C   0  0  0  0  0  0
  -25.3680  -31.3821   26.1391 C   0  0  0  0  0  0
  -27.0441  -30.2954   24.6426 C   0  0  0  0  0  0
  -27.6051  -32.4380   25.7500 C   0  0  0  0  0  0
  -27.5564  -37.1755   24.8468 C   0  0  0  0  0  0
  -21.4294  -29.3077   22.3544 N   0  0  0  0  0  0
  -26.4274  -37.3721   23.9419 N   0  0  0  0  0  0
  -24.7348  -31.0101   22.0902 N   0  0  0  0  0  0
  -23.4203  -28.8093   23.3014 O   0  0  0  0  0  0
  -28.2543  -26.0069   20.2234 O   0  0  0  0  0  0
  -26.5680  -34.8892   22.4612 O   0  0  0  0  0  0
  -23.5606  -32.1255   23.6949 O   0  0  0  0  0  0
  -30.5838  -20.1048   20.2181 C   0  0  0  0  0  0
  -30.8509  -18.6445   20.3304 C   0  0  0  0  0  0
  -29.2661  -20.5607   20.1752 C   0  0  0  0  0  0
  -29.7907  -17.7260   20.3466 C   0  0  0  0  0  0
  -29.1831  -23.2539   20.0552 C   0  0  0  0  0  0
  -32.2441  -18.2258   20.4887 C   0  0  0  0  0  0
  -26.8975  -23.6315   20.3134 C   0  0  0  0  0  0
  -27.2338  -22.1209   20.0217 C   0  0  0  0  0  0
  -28.0823  -24.4715   19.7972 C   0  0  1  0  0  0
  -28.6875  -21.9151   20.1003 N   0  0  0  0  0  0
  -33.1603  -18.5300   19.5647 N   0  0  0  0  0  0
  -29.6732  -16.2597   20.4468 N   0  0  0  0  0  0
  -32.6214  -17.5778   21.5957 N   0  3  0  0  0  0
  -30.3818  -23.5168   20.1805 O   0  0  0  0  0  0
  -28.3863  -18.9308   20.2372 S   0  0  0  0  0  0
  -31.4723  -12.8518   19.1606 H   0  0  0  0  0  0
  -30.4928  -11.7372   20.0665 H   0  0  0  0  0  0
  -29.8614  -11.6986   17.6322 H   0  0  0  0  0  0
  -29.5786  -13.4218   17.6525 H   0  0  0  0  0  0
  -27.9957  -11.2543   19.0563 H   0  0  0  0  0  0
  -27.3905  -12.3559   17.8484 H   0  0  0  0  0  0
  -27.5699  -14.2319   19.3620 H   0  0  0  0  0  0
  -28.7996  -12.3815   21.4675 H   0  0  0  0  0  0
  -28.3568  -14.0547   21.7236 H   0  0  0  0  0  0
  -25.2776   -9.5679   22.4776 H   0  0  0  0  0  0
  -24.0008   -7.4628   22.7481 H   0  0  0  0  0  0
  -21.0862   -8.8778   19.8947 H   0  0  0  0  0  0
  -22.3718  -10.9684   19.6174 H   0  0  0  0  0  0
  -21.1993   -7.6155   23.9704 H   0  0  0  0  0  0
  -21.1479   -6.0530   25.9072 H   0  0  0  0  0  0
  -22.0602   -2.7611   23.2837 H   0  0  0  0  0  0
  -22.4087  -11.9861   22.4796 H   0  0  0  0  0  0
  -21.1078  -13.1222   22.2659 H   0  0  0  0  0  0
  -24.6423  -15.8433   20.5009 H   0  0  0  0  0  0
  -26.2423  -15.6224   20.0130 H   0  0  0  0  0  0
  -26.7308  -32.5200   23.0937 H   0  0  0  0  0  0
  -25.0134  -33.9571   25.0283 H   0  0  0  0  0  0
  -22.7735  -31.2832   21.3594 H   0  0  0  0  0  0
  -23.3770  -35.9531   23.3299 H   0  0  0  0  0  0
  -24.3554  -36.8857   22.2066 H   0  0  0  0  0  0
  -23.7224  -37.6392   23.6692 H   0  0  0  0  0  0
  -26.2081  -31.4238   20.6331 H   0  0  0  0  0  0
  -26.8882  -30.7118   22.0573 H   0  0  0  0  0  0
  -28.1333  -28.6918   21.2660 H   0  0  0  0  0  0
  -25.9260  -25.8396   18.9094 H   0  0  0  0  0  0
  -23.9980  -27.2977   18.9421 H   0  0  0  0  0  0
  -23.8476  -30.5450   19.3931 H   0  0  0  0  0  0
  -22.8089  -29.2242   19.8269 H   0  0  0  0  0  0
  -25.1319  -36.1790   25.0805 H   0  0  0  0  0  0
  -21.0029  -28.3381   24.1317 H   0  0  0  0  0  0
  -20.5703  -26.2405   23.3636 H   0  0  0  0  0  0
  -21.6671  -26.7471   22.1186 H   0  0  0  0  0  0
  -19.6947  -25.6293   21.1288 H   0  0  0  0  0  0
  -19.6727  -27.3168   20.6723 H   0  0  0  0  0  0
  -17.4227  -26.6748   21.3998 H   0  0  0  0  0  0
  -18.0337  -26.0139   22.9010 H   0  0  0  0  0  0
  -19.7994  -30.7333   24.2216 H   0  0  0  0  0  0
  -17.5079  -31.6309   24.5186 H   0  0  0  0  0  0
  -15.5399  -30.3043   23.7719 H   0  0  0  0  0  0
  -15.8690  -28.0859   22.7128 H   0  0  0  0  0  0
  -24.5885  -30.7149   25.7701 H   0  0  0  0  0  0
  -24.8850  -32.3031   26.4668 H   0  0  0  0  0  0
  -25.7918  -30.9087   27.0257 H   0  0  0  0  0  0
  -26.3106  -29.6641   24.1402 H   0  0  0  0  0  0
  -27.3982  -29.7297   25.5056 H   0  0  0  0  0  0
  -27.9042  -30.4176   23.9837 H   0  0  0  0  0  0
  -27.2643  -33.3737   26.1940 H   0  0  0  0  0  0
  -28.3919  -32.6854   25.0360 H   0  0  0  0  0  0
  -28.0662  -31.8609   26.5516 H   0  0  0  0  0  0
  -28.2568  -38.0061   24.7520 H   0  0  0  0  0  0
  -28.1072  -36.2591   24.6289 H   0  0  0  0  0  0
  -27.2286  -37.1391   25.8871 H   0  0  0  0  0  0
  -20.9526  -29.8769   21.6679 H   0  0  0  0  0  0
  -26.0122  -38.2780   24.1455 H   0  0  0  0  0  0
  -31.4227  -20.7879   20.2067 H   0  0  0  0  0  0
  -26.7823  -23.7855   21.3865 H   0  0  0  0  0  0
  -25.9498  -23.8998   19.8497 H   0  0  0  0  0  0
  -26.9218  -21.8686   19.0048 H   0  0  0  0  0  0
  -26.6986  -21.4574   20.7002 H   0  0  0  0  0  0
  -28.0003  -24.5118   18.7099 H   0  0  0  0  0  0
  -32.8818  -18.9929   18.7129 H   0  0  0  0  0  0
  -34.1323  -18.2754   19.6485 H   0  0  0  0  0  0
  -28.7114  -15.9773   20.5627 H   0  0  0  0  0  0
  -31.9329  -17.3864   22.3072 H   0  0  0  0  0  0
  -33.5554  -17.2335   21.7428 H   0  0  0  0  0  0
  1 25  1  0  0  0
  1 30  2  0  0  0
  1 82  1  0  0  0
  2  3  1  0  0  0
  2 25  1  0  0  0
  2 86  1  0  0  0
  2 87  1  0  0  0
  3  4  1  0  0  0
  3 88  1  0  0  0
  3 89  1  0  0  0
  4  5  1  0  0  0
  4 90  1  0  0  0
  4 91  1  0  0  0
  5  6  1  0  0  0
  5 26  1  0  0  0
  5 92  1  0  0  0
  6 25  1  0  0  0
  6 93  1  0  0  0
  6 94  1  0  0  0
  7  8  2  0  0  0
  7 26  1  0  0  0
  7 29  1  0  0  0
  8  9  1  0  0  0
  8 22  1  0  0  0
  9 10  1  0  0  0
  9 27  2  0  0  0
 10 11  2  0  0  0
 10 15  1  0  0  0
 11 12  1  0  0  0
 11 95  1  0  0  0
 12 13  2  0  0  0
 12 96  1  0  0  0
 13 14  1  0  0  0
 13 31  1  0  0  0
 14 15  2  0  0  0
 14 97  1  0  0  0
 15 98  1  0  0  0
 16 17  2  0  0  0
 16 21  1  0  0  0
 16 31  1  0  0  0
 17 18  1  0  0  0
 17 99  1  0  0  0
 18 19  2  0  0  0
 18100  1  0  0  0
 19 20  1  0  0  0
 19 24  1  0  0  0
 20 21  2  0  0  0
 20101  1  0  0  0
 21 23  1  0  0  0
 22 28  1  0  0  0
 22 32  2  0  0  0
 26 27  1  0  0  0
 28102  1  0  0  0
 28103  1  0  0  0
 29104  1  0  0  0
 29105  1  0  0  0
 33 34  1  0  0  0
 33 66  1  0  0  0
 33 70  2  0  0  0
 34 36  1  0  0  0
 34 59  1  0  0  0
 34106  1  0  0  0
 35 44  2  0  0  0
 35 45  1  0  0  0
 35 68  1  0  0  0
 36 56  1  0  0  0
 36107  1  0  0  0
 37 39  1  0  0  0
 37 47  1  0  0  0
 37 66  1  0  0  0
 37108  1  0  0  0
 38 43  2  0  0  0
 38 46  1  0  0  0
 38 47  1  0  0  0
 39 64  1  0  0  0
 39 67  2  0  0  0
 40 52  1  0  0  0
 40 53  2  0  0  0
 40 58  1  0  0  0
 41109  1  0  0  0
 41110  1  0  0  0
 41111  1  0  0  0
 41 48  1  0  0  0
 42 43  1  0  0  0
 42 66  1  0  0  0
 42112  1  0  0  0
 42113  1  0  0  0
 43 44  1  0  0  0
 44114  1  0  0  0
 45 46  2  0  0  0
 45115  1  0  0  0
 46116  1  0  0  0
 47117  1  0  0  0
 47118  1  0  0  0
 48 56  1  0  0  0
 48 65  1  0  0  0
 48119  1  0  0  0
 49 50  1  0  0  0
 49 53  1  0  0  0
 49 64  1  0  0  0
 49120  1  0  0  0
 50 51  1  0  0  0
 50121  1  0  0  0
 50122  1  0  0  0
 51 52  1  0  0  0
 51123  1  0  0  0
 51124  1  0  0  0
 52125  1  0  0  0
 52126  1  0  0  0
 53 54  1  0  0  0
 54 55  2  0  0  0
 54127  1  0  0  0
 55 57  1  0  0  0
 55128  1  0  0  0
 56 69  2  0  0  0
 57 58  2  0  0  0
 57129  1  0  0  0
 58130  1  0  0  0
 59 60  1  0  0  0
 59 61  1  0  0  0
 59 62  1  0  0  0
 60131  1  0  0  0
 60132  1  0  0  0
 60133  1  0  0  0
 61134  1  0  0  0
 61135  1  0  0  0
 61136  1  0  0  0
 62137  1  0  0  0
 62138  1  0  0  0
 62139  1  0  0  0
 63 65  1  0  0  0
 63140  1  0  0  0
 63141  1  0  0  0
 63142  1  0  0  0
 64143  1  0  0  0
 65144  1  0  0  0
 68 79  1  0  0  0
 71 72  1  0  0  0
 71 73  2  0  0  0
 71145  1  0  0  0
 72 74  2  0  0  0
 72 76  1  0  0  0
 73 80  1  0  0  0
 73 85  1  0  0  0
 74 82  1  0  0  0
 74 85  1  0  0  0
 75 79  1  0  0  0
 75 80  1  0  0  0
 75 84  2  0  0  0
 76 81  1  0  0  0
 76 83  2  0  0  0
 77 78  1  0  0  0
 77 79  1  0  0  0
 77146  1  0  0  0
 77147  1  0  0  0
 78 80  1  0  0  0
 78148  1  0  0  0
 78149  1  0  0  0
 79150  1  0  0  0
 81151  1  0  0  0
 81152  1  0  0  0
 82153  1  0  0  0
 83154  1  0  0  0
 83155  1  0  0  0
M  CHG  1  83   1
M  ISO  4   1 100  68 101  79 101  82 100
M  END
> <chiral flag>
0

> <version>
0

> <s_m_source_file>
/data/baiqing/PycharmProjects/Reinvent-master-3.2/result/LINK_invent/BTK/process_docking_weight1_custom_product_contain_oxygen_bond_distance_aromatic_linkinvent_7_9_3/rearranged_h_0154.sdf

> <i_m_source_file_index>
53

> <r_mmod_Potential_Energy-OPLS-2005>
518.719665527344

> <r_mmod_Stretch_Energy-OPLS-2005>
306.775848388672

> <r_mmod_Bend_Energy-OPLS-2005>
362.237457275391

> <r_mmod_Torsional_Energy-OPLS-2005>
244.857025146484

> <r_mmod_Improper_Torsional_Energy-OPLS-2005>
5.11616897583008

> <r_mmod_Van_der_Waal_Energy-OPLS-2005>
100.957481384277

> <r_mmod_Electrostatic_Energy-OPLS-2005>
-307.300079345703

> <r_mmod_Solvation_Energy-OPLS-2005>
-482.9580078125

> <b_mmod_Minimization_Converged-OPLS-2005>
0

> <r_mmod_RMS_Derivative-OPLS-2005>
2.80806279182434

$$$$
53
                    3D
 Structure written by MMmdl.
163172  0  0  1  0            999 V2000
  -30.6861  -14.5409   20.5096 C   0  0  0  0  0  0
  -30.4313  -12.3305   19.4368 C   0  0  0  0  0  0
  -29.5001  -12.4816   18.2146 C   0  0  0  0  0  0
  -28.0199  -12.3451   18.6292 C   0  0  0  0  0  0
  -27.6578  -13.2094   19.8678 C   0  0  2  0  0  0
  -28.7080  -13.0388   20.9918 C   0  0  0  0  0  0
  -25.2578  -13.8164   20.5701 C   0  0  0  0  0  0
  -24.1841  -13.0440   20.9208 C   0  0  0  0  0  0
  -24.6393  -11.6908   20.8754 C   0  0  0  0  0  0
  -23.9030  -10.4303   21.0433 C   0  0  0  0  0  0
  -24.3591   -9.4205   21.9190 C   0  0  0  0  0  0
  -23.6284   -8.2224   22.0740 C   0  0  0  0  0  0
  -22.4263   -8.0269   21.3539 C   0  0  0  0  0  0
  -21.9892   -9.0238   20.4631 C   0  0  0  0  0  0
  -22.7214  -10.2120   20.3058 C   0  0  0  0  0  0
  -21.6831   -6.0732   22.5280 C   0  0  0  0  0  0
  -21.4013   -6.5644   23.8214 C   0  0  0  0  0  0
  -21.3665   -5.6794   24.9181 C   0  0  0  0  0  0
  -21.6053   -4.3054   24.7232 C   0  0  0  0  0  0
  -21.8826   -3.8138   23.4354 C   0  0  0  0  0  0
  -21.9185   -4.6960   22.3402 C   0  0  0  0  0  0
  -22.7860  -13.5221   21.1874 C   0  0  0  0  0  0
  -22.1660   -4.2141   21.0981 F   0  0  0  0  0  0
  -21.5613   -3.4543   25.7751 F   0  0  0  0  0  0
  -30.0307  -13.3469   20.4238 N   0  0  0  0  0  0
  -26.3009  -12.9337   20.3356 N   0  0  0  0  0  0
  -25.9318  -11.6491   20.5781 N   0  0  0  0  0  0
  -22.0495  -12.8200   22.0426 N   0  0  0  0  0  0
  -25.4268  -15.1891   20.4139 N   0  0  0  0  0  0
  -31.8489  -14.6743   20.1205 O   0  0  0  0  0  0
  -21.6602   -6.8884   21.4246 O   0  0  0  0  0  0
  -22.3535  -14.5517   20.6715 O   0  0  0  0  0  0
  -24.6205  -31.8673   23.2082 C   0  0  0  0  0  0
  -25.9097  -32.4806   23.8380 C   0  0  1  0  0  0
  -27.2215  -27.3849   20.0818 C   0  0  0  0  0  0
  -25.5952  -33.8600   24.2303 N   0  0  0  0  0  0
  -23.4085  -30.4960   21.5511 C   0  0  2  0  0  0
  -24.8495  -28.9639   20.1103 C   0  0  0  0  0  0
  -22.7441  -29.4685   22.4960 C   0  0  0  0  0  0
  -18.0282  -28.1414   22.8489 C   0  0  0  0  0  0
  -24.1494  -36.7291   23.2633 C   0  0  0  0  0  0
  -25.9455  -30.8135   21.3738 C   0  0  0  0  0  0
  -26.0157  -29.4470   20.7152 C   0  0  0  0  0  0
  -27.2004  -28.6630   20.7045 C   0  0  0  0  0  0
  -26.0284  -26.9445   19.4551 C   0  0  0  0  0  0
  -24.8542  -27.7141   19.4790 C   0  0  0  0  0  0
  -23.6158  -29.8373   20.1638 C   0  0  0  0  0  0
  -25.4115  -36.3087   24.0325 C   0  0  1  0  0  0
  -20.5880  -28.3714   23.1295 C   0  0  2  0  0  0
  -20.6783  -26.9446   22.5413 C   0  0  0  0  0  0
  -19.5756  -26.6413   21.5223 C   0  0  0  0  0  0
  -18.1934  -26.7961   22.1629 C   0  0  0  0  0  0
  -19.1534  -28.8880   23.2891 C   0  0  0  0  0  0
  -18.9455  -30.1480   23.8913 C   0  0  0  0  0  0
  -17.6454  -30.6615   24.0580 C   0  0  0  0  0  0
  -25.9058  -34.9462   23.5103 C   0  0  0  0  0  0
  -16.5345  -29.9114   23.6335 C   0  0  0  0  0  0
  -16.7272  -28.6537   23.0350 C   0  0  0  0  0  0
  -26.4499  -31.6598   25.0727 C   0  0  0  0  0  0
  -25.3736  -31.3738   26.1452 C   0  0  0  0  0  0
  -27.0338  -30.3026   24.6165 C   0  0  0  0  0  0
  -27.6072  -32.4335   25.7488 C   0  0  0  0  0  0
  -27.5587  -37.1786   24.8455 C   0  0  0  0  0  0
  -21.4168  -29.3063   22.3685 N   0  0  0  0  0  0
  -26.4288  -37.3787   23.9421 N   0  0  0  0  0  0
  -24.6763  -31.0744   22.1012 N   0  0  0  0  0  0
  -23.4182  -28.8224   23.3022 O   0  0  0  0  0  0
  -28.3749  -26.6018   20.1227 O   0  0  0  0  0  0
  -26.5620  -34.8926   22.4660 O   0  0  0  0  0  0
  -23.5390  -32.1454   23.7450 O   0  0  0  0  0  0
  -29.2996  -18.0006   20.8704 C   0  0  0  0  0  0
  -29.9069  -19.3147   20.8219 C   0  0  0  0  0  0
  -30.1912  -16.9506   20.7843 C   0  0  0  0  0  0
  -29.5999  -23.2621   18.5605 C   0  0  0  0  0  0
  -30.1513  -21.9359   19.1086 C   0  0  0  0  0  0
  -29.1358  -23.1912   20.8697 C   0  0  0  0  0  0
  -29.4797  -24.2228   19.7531 C   0  0  2  0  0  0
  -28.8177  -20.7412   22.5452 C   0  0  0  0  0  0
  -30.9827  -25.7469   20.9272 C   0  0  0  0  0  0
  -28.3896  -25.3225   19.4273 C   0  0  0  0  0  0
  -29.1383  -20.6301   21.0407 C   0  0  1  0  0  0
  -31.2195  -19.2939   20.6947 N   0  0  0  0  0  0
  -29.9151  -15.6050   20.8510 N   0  0  0  0  0  0
  -29.8194  -21.8891   20.5513 N   0  3  1  0  0  0
  -30.8068  -24.7312   19.9438 O   0  0  0  0  0  0
  -31.7593  -17.6936   20.6079 S   0  0  0  0  0  0
  -31.4746  -12.4313   19.1306 H   0  0  0  0  0  0
  -30.3439  -11.3332   19.8706 H   0  0  0  0  0  0
  -29.7472  -11.7305   17.4633 H   0  0  0  0  0  0
  -29.6640  -13.4492   17.7402 H   0  0  0  0  0  0
  -27.8363  -11.2932   18.8493 H   0  0  0  0  0  0
  -27.3652  -12.5935   17.7936 H   0  0  0  0  0  0
  -27.6849  -14.2483   19.5386 H   0  0  0  0  0  0
  -28.7057  -12.0158   21.3732 H   0  0  0  0  0  0
  -28.4744  -13.6713   21.8495 H   0  0  0  0  0  0
  -25.2747   -9.5653   22.4726 H   0  0  0  0  0  0
  -24.0019   -7.4597   22.7426 H   0  0  0  0  0  0
  -21.0821   -8.8724   19.8919 H   0  0  0  0  0  0
  -22.3688  -10.9636   19.6123 H   0  0  0  0  0  0
  -21.2025   -7.6161   23.9707 H   0  0  0  0  0  0
  -21.1482   -6.0542   25.9075 H   0  0  0  0  0  0
  -22.0612   -2.7600   23.2852 H   0  0  0  0  0  0
  -22.4155  -11.9883   22.4829 H   0  0  0  0  0  0
  -21.1068  -13.1112   22.2579 H   0  0  0  0  0  0
  -24.6542  -15.8351   20.5319 H   0  0  0  0  0  0
  -26.2628  -15.6297   20.0521 H   0  0  0  0  0  0
  -26.7167  -32.5501   23.1134 H   0  0  0  0  0  0
  -25.0125  -33.9766   25.0468 H   0  0  0  0  0  0
  -22.6998  -31.3152   21.4156 H   0  0  0  0  0  0
  -23.3770  -35.9611   23.3272 H   0  0  0  0  0  0
  -24.3603  -36.8935   22.2055 H   0  0  0  0  0  0
  -23.7227  -37.6476   23.6666 H   0  0  0  0  0  0
  -26.0745  -31.5819   20.6098 H   0  0  0  0  0  0
  -26.8277  -30.8558   22.0004 H   0  0  0  0  0  0
  -28.0953  -29.0325   21.1848 H   0  0  0  0  0  0
  -25.9479  -26.0061   18.9312 H   0  0  0  0  0  0
  -23.9609  -27.3388   18.9976 H   0  0  0  0  0  0
  -23.7273  -30.6159   19.4081 H   0  0  0  0  0  0
  -22.7373  -29.2624   19.8641 H   0  0  0  0  0  0
  -25.1292  -36.1927   25.0816 H   0  0  0  0  0  0
  -20.9982  -28.3300   24.1415 H   0  0  0  0  0  0
  -20.5722  -26.2331   23.3611 H   0  0  0  0  0  0
  -21.6645  -26.7517   22.1180 H   0  0  0  0  0  0
  -19.6924  -25.6324   21.1259 H   0  0  0  0  0  0
  -19.6701  -27.3217   20.6748 H   0  0  0  0  0  0
  -17.4211  -26.6726   21.4022 H   0  0  0  0  0  0
  -18.0322  -26.0104   22.9022 H   0  0  0  0  0  0
  -19.7933  -30.7298   24.2282 H   0  0  0  0  0  0
  -17.5014  -31.6290   24.5196 H   0  0  0  0  0  0
  -15.5345  -30.3021   23.7667 H   0  0  0  0  0  0
  -15.8671  -28.0868   22.7042 H   0  0  0  0  0  0
  -24.5906  -30.7101   25.7764 H   0  0  0  0  0  0
  -24.8933  -32.2910   26.4869 H   0  0  0  0  0  0
  -25.8050  -30.8908   27.0226 H   0  0  0  0  0  0
  -26.2901  -29.6774   24.1210 H   0  0  0  0  0  0
  -27.4065  -29.7286   25.4659 H   0  0  0  0  0  0
  -27.8760  -30.4315   23.9362 H   0  0  0  0  0  0
  -27.2693  -33.3641   26.2058 H   0  0  0  0  0  0
  -28.3874  -32.6889   25.0304 H   0  0  0  0  0  0
  -28.0750  -31.8470   26.5404 H   0  0  0  0  0  0
  -28.2560  -38.0128   24.7564 H   0  0  0  0  0  0
  -28.1129  -36.2662   24.6196 H   0  0  0  0  0  0
  -27.2327  -37.1324   25.8862 H   0  0  0  0  0  0
  -20.9342  -29.8754   21.6872 H   0  0  0  0  0  0
  -26.0164  -38.2853   24.1460 H   0  0  0  0  0  0
  -28.2328  -17.8865   21.0003 H   0  0  0  0  0  0
  -28.6115  -23.0760   18.1387 H   0  0  0  0  0  0
  -30.2185  -23.6662   17.7593 H   0  0  0  0  0  0
  -31.2375  -21.9222   19.0078 H   0  0  0  0  0  0
  -29.7609  -21.0854   18.5479 H   0  0  0  0  0  0
  -28.0581  -23.0195   20.8677 H   0  0  0  0  0  0
  -29.3944  -23.5445   21.8681 H   0  0  0  0  0  0
  -28.3250  -19.8380   22.9067 H   0  0  0  0  0  0
  -28.1463  -21.5700   22.7665 H   0  0  0  0  0  0
  -29.7260  -20.8756   23.1329 H   0  0  0  0  0  0
  -32.0148  -25.7390   21.2769 H   0  0  0  0  0  0
  -30.3376  -25.6228   21.7972 H   0  0  0  0  0  0
  -30.8038  -26.7333   20.4998 H   0  0  0  0  0  0
  -27.4468  -24.7996   19.5674 H   0  0  0  0  0  0
  -28.4513  -25.5682   18.3659 H   0  0  0  0  0  0
  -28.1903  -20.5547   20.5069 H   0  0  0  0  0  0
  -28.9678  -15.3622   21.0918 H   0  0  0  0  0  0
  -30.7191  -21.8987   21.0129 H   0  0  0  0  0  0
  1 25  1  0  0  0
  1 30  2  0  0  0
  1 83  1  0  0  0
  2  3  1  0  0  0
  2 25  1  0  0  0
  2 87  1  0  0  0
  2 88  1  0  0  0
  3  4  1  0  0  0
  3 89  1  0  0  0
  3 90  1  0  0  0
  4  5  1  0  0  0
  4 91  1  0  0  0
  4 92  1  0  0  0
  5  6  1  0  0  0
  5 26  1  0  0  0
  5 93  1  0  0  0
  6 25  1  0  0  0
  6 94  1  0  0  0
  6 95  1  0  0  0
  7  8  2  0  0  0
  7 26  1  0  0  0
  7 29  1  0  0  0
  8  9  1  0  0  0
  8 22  1  0  0  0
  9 10  1  0  0  0
  9 27  2  0  0  0
 10 11  2  0  0  0
 10 15  1  0  0  0
 11 12  1  0  0  0
 11 96  1  0  0  0
 12 13  2  0  0  0
 12 97  1  0  0  0
 13 14  1  0  0  0
 13 31  1  0  0  0
 14 15  2  0  0  0
 14 98  1  0  0  0
 15 99  1  0  0  0
 16 17  2  0  0  0
 16 21  1  0  0  0
 16 31  1  0  0  0
 17 18  1  0  0  0
 17100  1  0  0  0
 18 19  2  0  0  0
 18101  1  0  0  0
 19 20  1  0  0  0
 19 24  1  0  0  0
 20 21  2  0  0  0
 20102  1  0  0  0
 21 23  1  0  0  0
 22 28  1  0  0  0
 22 32  2  0  0  0
 26 27  1  0  0  0
 28103  1  0  0  0
 28104  1  0  0  0
 29105  1  0  0  0
 29106  1  0  0  0
 33 34  1  0  0  0
 33 66  1  0  0  0
 33 70  2  0  0  0
 34 36  1  0  0  0
 34 59  1  0  0  0
 34107  1  0  0  0
 35 44  2  0  0  0
 35 45  1  0  0  0
 35 68  1  0  0  0
 36 56  1  0  0  0
 36108  1  0  0  0
 37 39  1  0  0  0
 37 47  1  0  0  0
 37 66  1  0  0  0
 37109  1  0  0  0
 38 43  2  0  0  0
 38 46  1  0  0  0
 38 47  1  0  0  0
 39 64  1  0  0  0
 39 67  2  0  0  0
 40 52  1  0  0  0
 40 53  2  0  0  0
 40 58  1  0  0  0
 41110  1  0  0  0
 41111  1  0  0  0
 41112  1  0  0  0
 41 48  1  0  0  0
 42 43  1  0  0  0
 42 66  1  0  0  0
 42113  1  0  0  0
 42114  1  0  0  0
 43 44  1  0  0  0
 44115  1  0  0  0
 45 46  2  0  0  0
 45116  1  0  0  0
 46117  1  0  0  0
 47118  1  0  0  0
 47119  1  0  0  0
 48 56  1  0  0  0
 48 65  1  0  0  0
 48120  1  0  0  0
 49 50  1  0  0  0
 49 53  1  0  0  0
 49 64  1  0  0  0
 49121  1  0  0  0
 50 51  1  0  0  0
 50122  1  0  0  0
 50123  1  0  0  0
 51 52  1  0  0  0
 51124  1  0  0  0
 51125  1  0  0  0
 52126  1  0  0  0
 52127  1  0  0  0
 53 54  1  0  0  0
 54 55  2  0  0  0
 54128  1  0  0  0
 55 57  1  0  0  0
 55129  1  0  0  0
 56 69  2  0  0  0
 57 58  2  0  0  0
 57130  1  0  0  0
 58131  1  0  0  0
 59 60  1  0  0  0
 59 61  1  0  0  0
 59 62  1  0  0  0
 60132  1  0  0  0
 60133  1  0  0  0
 60134  1  0  0  0
 61135  1  0  0  0
 61136  1  0  0  0
 61137  1  0  0  0
 62138  1  0  0  0
 62139  1  0  0  0
 62140  1  0  0  0
 63 65  1  0  0  0
 63141  1  0  0  0
 63142  1  0  0  0
 63143  1  0  0  0
 64144  1  0  0  0
 65145  1  0  0  0
 68 80  1  0  0  0
 71 72  1  0  0  0
 71 73  2  0  0  0
 71146  1  0  0  0
 72 81  1  0  0  0
 72 82  2  0  0  0
 73 83  1  0  0  0
 73 86  1  0  0  0
 74 75  1  0  0  0
 74 77  1  0  0  0
 74147  1  0  0  0
 74148  1  0  0  0
 75149  1  0  0  0
 75150  1  0  0  0
 75 84  1  0  0  0
 76 77  1  0  0  0
 76 84  1  0  0  0
 76151  1  0  0  0
 76152  1  0  0  0
 77 80  1  0  0  0
 77 85  1  0  0  0
 78153  1  0  0  0
 78154  1  0  0  0
 78155  1  0  0  0
 78 81  1  0  0  0
 79 85  1  0  0  0
 79156  1  0  0  0
 79157  1  0  0  0
 79158  1  0  0  0
 80159  1  0  0  0
 80160  1  0  0  0
 81 84  1  0  0  0
 81161  1  0  0  0
 82 86  1  0  0  0
 83162  1  0  0  0
 84163  1  0  0  0
M  CHG  1  84   1
M  ISO  4   1 100  68 101  80 101  83 100
M  END
> <chiral flag>
0

> <version>
0

> <s_m_source_file>
/data/baiqing/PycharmProjects/Reinvent-master-3.2/result/LINK_invent/BTK/process_docking_weight1_custom_product_contain_oxygen_bond_distance_aromatic_linkinvent_7_9_3/rearranged_h_0154.sdf

> <i_m_source_file_index>
54

> <r_mmod_Potential_Energy-OPLS-2005>
-138.878128051758

> <r_mmod_Stretch_Energy-OPLS-2005>
52.7804260253906

> <r_mmod_Bend_Energy-OPLS-2005>
160.413436889648

> <r_mmod_Torsional_Energy-OPLS-2005>
273.643463134766

> <r_mmod_Improper_Torsional_Energy-OPLS-2005>
5.0459508895874

> <r_mmod_Van_der_Waal_Energy-OPLS-2005>
139.422439575195

> <r_mmod_Electrostatic_Energy-OPLS-2005>
-361.995330810547

> <r_mmod_Solvation_Energy-OPLS-2005>
-433.670623779297

> <b_mmod_Minimization_Converged-OPLS-2005>
0

> <r_mmod_RMS_Derivative-OPLS-2005>
2.57872700691223

$$$$
54
                    3D
 Structure written by MMmdl.
166176  0  0  1  0            999 V2000
  -30.5027  -15.0610   20.3876 C   0  0  0  0  0  0
  -30.4368  -12.6604   19.5166 C   0  0  0  0  0  0
  -29.5261  -12.5402   18.2712 C   0  0  0  0  0  0
  -28.0634  -12.3069   18.6896 C   0  0  0  0  0  0
  -27.6218  -13.2577   19.8326 C   0  0  2  0  0  0
  -28.6597  -13.3392   20.9720 C   0  0  0  0  0  0
  -25.2438  -13.8234   20.5736 C   0  0  0  0  0  0
  -24.1764  -13.0438   20.9240 C   0  0  0  0  0  0
  -24.6392  -11.6934   20.8763 C   0  0  0  0  0  0
  -23.9080  -10.4300   21.0409 C   0  0  0  0  0  0
  -24.3632   -9.4206   21.9178 C   0  0  0  0  0  0
  -23.6311   -8.2240   22.0746 C   0  0  0  0  0  0
  -22.4288   -8.0286   21.3547 C   0  0  0  0  0  0
  -21.9929   -9.0258   20.4640 C   0  0  0  0  0  0
  -22.7256  -10.2135   20.3052 C   0  0  0  0  0  0
  -21.6849   -6.0750   22.5281 C   0  0  0  0  0  0
  -21.4012   -6.5647   23.8216 C   0  0  0  0  0  0
  -21.3660   -5.6793   24.9175 C   0  0  0  0  0  0
  -21.6043   -4.3058   24.7215 C   0  0  0  0  0  0
  -21.8821   -3.8157   23.4334 C   0  0  0  0  0  0
  -21.9193   -4.6982   22.3395 C   0  0  0  0  0  0
  -22.7776  -13.5198   21.1902 C   0  0  0  0  0  0
  -22.1662   -4.2176   21.0971 F   0  0  0  0  0  0
  -21.5629   -3.4532   25.7718 F   0  0  0  0  0  0
  -29.9237  -13.7813   20.3692 N   0  0  0  0  0  0
  -26.2850  -12.9475   20.3226 N   0  0  0  0  0  0
  -25.9316  -11.6598   20.5727 N   0  0  0  0  0  0
  -22.0433  -12.8177   22.0452 N   0  0  0  0  0  0
  -25.4108  -15.1963   20.4184 N   0  0  0  0  0  0
  -31.7101  -15.0882   20.1196 O   0  0  0  0  0  0
  -21.6644   -6.8891   21.4241 O   0  0  0  0  0  0
  -22.3461  -14.5505   20.6740 O   0  0  0  0  0  0
  -24.6506  -31.8358   23.1836 C   0  0  0  0  0  0
  -25.9248  -32.4642   23.8238 C   0  0  1  0  0  0
  -27.2046  -27.0397   20.1881 C   0  0  0  0  0  0
  -25.5978  -33.8453   24.2156 N   0  0  0  0  0  0
  -23.4574  -30.4541   21.5292 C   0  0  2  0  0  0
  -24.9072  -28.8619   20.1185 C   0  0  0  0  0  0
  -22.7591  -29.4505   22.4822 C   0  0  0  0  0  0
  -18.0305  -28.1401   22.8477 C   0  0  0  0  0  0
  -24.1487  -36.7237   23.2645 C   0  0  0  0  0  0
  -26.0203  -30.6783   21.3992 C   0  0  0  0  0  0
  -26.0856  -29.2771   20.7524 C   0  0  0  0  0  0
  -27.2341  -28.3848   20.7666 C   0  0  0  0  0  0
  -26.0151  -26.7673   19.4816 C   0  0  0  0  0  0
  -24.8907  -27.6229   19.4632 C   0  0  0  0  0  0
  -23.6908  -29.7784   20.1512 C   0  0  0  0  0  0
  -25.4119  -36.3002   24.0313 C   0  0  1  0  0  0
  -20.5923  -28.3726   23.1220 C   0  0  2  0  0  0
  -20.6785  -26.9418   22.5402 C   0  0  0  0  0  0
  -19.5763  -26.6381   21.5206 C   0  0  0  0  0  0
  -18.1946  -26.7943   22.1614 C   0  0  0  0  0  0
  -19.1566  -28.8884   23.2841 C   0  0  0  0  0  0
  -18.9476  -30.1487   23.8855 C   0  0  0  0  0  0
  -17.6471  -30.6594   24.0557 C   0  0  0  0  0  0
  -25.9081  -34.9373   23.5044 C   0  0  0  0  0  0
  -16.5366  -29.9079   23.6340 C   0  0  0  0  0  0
  -16.7285  -28.6502   23.0356 C   0  0  0  0  0  0
  -26.4555  -31.6549   25.0711 C   0  0  0  0  0  0
  -25.3724  -31.3769   26.1400 C   0  0  0  0  0  0
  -27.0423  -30.2925   24.6363 C   0  0  0  0  0  0
  -27.6062  -32.4353   25.7484 C   0  0  0  0  0  0
  -27.5573  -37.1769   24.8461 C   0  0  0  0  0  0
  -21.4271  -29.3043   22.3582 N   0  0  0  0  0  0
  -26.4274  -37.3720   23.9418 N   0  0  0  0  0  0
  -24.7298  -31.0138   22.0912 N   0  0  0  0  0  0
  -23.4200  -28.8050   23.2998 O   0  0  0  0  0  0
  -28.2641  -26.0335   20.1536 O   0  0  0  0  0  0
  -26.5653  -34.8880   22.4617 O   0  0  0  0  0  0
  -23.5602  -32.1273   23.7009 O   0  0  0  0  0  0
  -30.5984  -20.5375   19.3148 C   0  0  0  0  0  0
  -31.0195  -18.0887   19.3215 C   0  0  0  0  0  0
  -29.1806  -19.0461   20.5801 C   0  0  0  0  0  0
  -31.3201  -19.3990   18.8756 C   0  0  0  0  0  0
  -29.4776  -20.4718   20.1676 C   0  0  0  0  0  0
  -29.9539  -17.7965   20.2019 C   0  0  0  0  0  0
  -27.0239  -23.5647   20.4900 C   0  0  0  0  0  0
  -32.4918  -21.6391   16.4256 C   0  0  0  0  0  0
  -27.3719  -22.0248   20.5465 C   0  0  0  0  0  0
  -31.8154  -22.1710   15.1757 C   0  0  0  0  0  0
  -30.7197  -21.1359   14.8954 C   0  0  0  0  0  0
  -31.0761  -19.9175   15.7586 C   0  0  0  0  0  0
  -29.3224  -23.2644   20.1968 C   0  0  0  0  0  0
  -28.2667  -24.4863   20.6134 C   0  0  1  0  0  0
  -32.4452  -19.5870   17.8653 C   0  0  0  0  0  0
  -28.8274  -21.8114   20.4639 N   0  0  0  0  0  0
  -32.0548  -20.4085   16.7184 N   0  0  0  0  0  0
  -29.7314  -16.2806   20.5466 N   0  0  0  0  0  0
  -25.8575  -23.9606   20.4460 O   0  0  0  0  0  0
  -33.3220  -22.2911   17.0640 O   0  0  0  0  0  0
  -31.4673  -12.8263   19.1992 H   0  0  0  0  0  0
  -30.4508  -11.7247   20.0791 H   0  0  0  0  0  0
  -29.8673  -11.7270   17.6286 H   0  0  0  0  0  0
  -29.5954  -13.4507   17.6742 H   0  0  0  0  0  0
  -27.9803  -11.2715   19.0231 H   0  0  0  0  0  0
  -27.3988  -12.4046   17.8310 H   0  0  0  0  0  0
  -27.5684  -14.2473   19.3744 H   0  0  0  0  0  0
  -28.7740  -12.3774   21.4738 H   0  0  0  0  0  0
  -28.3370  -14.0522   21.7316 H   0  0  0  0  0  0
  -25.2775   -9.5681   22.4746 H   0  0  0  0  0  0
  -24.0027   -7.4625   22.7447 H   0  0  0  0  0  0
  -21.0863   -8.8768   19.8933 H   0  0  0  0  0  0
  -22.3718  -10.9671   19.6159 H   0  0  0  0  0  0
  -21.2003   -7.6158   23.9730 H   0  0  0  0  0  0
  -21.1479   -6.0519   25.9082 H   0  0  0  0  0  0
  -22.0601   -2.7623   23.2813 H   0  0  0  0  0  0
  -22.4086  -11.9863   22.4857 H   0  0  0  0  0  0
  -21.1042  -13.1169   22.2642 H   0  0  0  0  0  0
  -24.6410  -15.8465   20.5321 H   0  0  0  0  0  0
  -26.2517  -15.6375   20.0710 H   0  0  0  0  0  0
  -26.7302  -32.5215   23.0942 H   0  0  0  0  0  0
  -25.0134  -33.9546   25.0317 H   0  0  0  0  0  0
  -22.7639  -31.2820   21.3679 H   0  0  0  0  0  0
  -23.3752  -35.9566   23.3264 H   0  0  0  0  0  0
  -24.3583  -36.8904   22.2070 H   0  0  0  0  0  0
  -23.7229  -37.6416   23.6708 H   0  0  0  0  0  0
  -26.1862  -31.4181   20.6158 H   0  0  0  0  0  0
  -26.8878  -30.7358   22.0445 H   0  0  0  0  0  0
  -28.1352  -28.7067   21.2688 H   0  0  0  0  0  0
  -25.9395  -25.8458   18.9255 H   0  0  0  0  0  0
  -24.0054  -27.3078   18.9283 H   0  0  0  0  0  0
  -23.8395  -30.5498   19.3948 H   0  0  0  0  0  0
  -22.8028  -29.2282   19.8347 H   0  0  0  0  0  0
  -25.1305  -36.1809   25.0803 H   0  0  0  0  0  0
  -21.0027  -28.3316   24.1335 H   0  0  0  0  0  0
  -20.5677  -26.2329   23.3627 H   0  0  0  0  0  0
  -21.6647  -26.7405   22.1203 H   0  0  0  0  0  0
  -19.6910  -25.6281   21.1257 H   0  0  0  0  0  0
  -19.6710  -27.3167   20.6723 H   0  0  0  0  0  0
  -17.4219  -26.6693   21.4015 H   0  0  0  0  0  0
  -18.0332  -26.0090   22.9012 H   0  0  0  0  0  0
  -19.7950  -30.7332   24.2190 H   0  0  0  0  0  0
  -17.5012  -31.6256   24.5183 H   0  0  0  0  0  0
  -15.5364  -30.2966   23.7696 H   0  0  0  0  0  0
  -15.8683  -28.0816   22.7085 H   0  0  0  0  0  0
  -24.5917  -30.7088   25.7739 H   0  0  0  0  0  0
  -24.8907  -32.2966   26.4735 H   0  0  0  0  0  0
  -25.8015  -30.9015   27.0229 H   0  0  0  0  0  0
  -26.3057  -29.6629   24.1359 H   0  0  0  0  0  0
  -27.3973  -29.7246   25.4975 H   0  0  0  0  0  0
  -27.8989  -30.4111   23.9721 H   0  0  0  0  0  0
  -27.2625  -33.3684   26.1955 H   0  0  0  0  0  0
  -28.3912  -32.6872   25.0340 H   0  0  0  0  0  0
  -28.0686  -31.8558   26.5486 H   0  0  0  0  0  0
  -28.2564  -38.0091   24.7521 H   0  0  0  0  0  0
  -28.1087  -36.2619   24.6256 H   0  0  0  0  0  0
  -27.2294  -37.1370   25.8862 H   0  0  0  0  0  0
  -20.9498  -29.8760   21.6751 H   0  0  0  0  0  0
  -26.0124  -38.2764   24.1471 H   0  0  0  0  0  0
  -30.9127  -21.4998   18.9410 H   0  0  0  0  0  0
  -31.6198  -17.2789   18.9330 H   0  0  0  0  0  0
  -28.3287  -18.9069   21.2282 H   0  0  0  0  0  0
  -26.8731  -21.5120   19.7228 H   0  0  0  0  0  0
  -26.9913  -21.6053   21.4785 H   0  0  0  0  0  0
  -32.5429  -22.2116   14.3640 H   0  0  0  0  0  0
  -31.4074  -23.1690   15.3368 H   0  0  0  0  0  0
  -30.6518  -20.8801   13.8364 H   0  0  0  0  0  0
  -29.7489  -21.5350   15.1937 H   0  0  0  0  0  0
  -31.5290  -19.1279   15.1579 H   0  0  0  0  0  0
  -30.1949  -19.5036   16.2495 H   0  0  0  0  0  0
  -30.2696  -23.4161   20.7182 H   0  0  0  0  0  0
  -29.5491  -23.3568   19.1330 H   0  0  0  0  0  0
  -28.3766  -24.5892   21.6928 H   0  0  0  0  0  0
  -32.7788  -18.6210   17.4837 H   0  0  0  0  0  0
  -33.3039  -20.0203   18.3797 H   0  0  0  0  0  0
  -28.8014  -16.0826   20.8844 H   0  0  0  0  0  0
  1 25  1  0  0  0
  1 30  2  0  0  0
  1 88  1  0  0  0
  2  3  1  0  0  0
  2 25  1  0  0  0
  2 91  1  0  0  0
  2 92  1  0  0  0
  3  4  1  0  0  0
  3 93  1  0  0  0
  3 94  1  0  0  0
  4  5  1  0  0  0
  4 95  1  0  0  0
  4 96  1  0  0  0
  5  6  1  0  0  0
  5 26  1  0  0  0
  5 97  1  0  0  0
  6 25  1  0  0  0
  6 98  1  0  0  0
  6 99  1  0  0  0
  7  8  2  0  0  0
  7 26  1  0  0  0
  7 29  1  0  0  0
  8  9  1  0  0  0
  8 22  1  0  0  0
  9 10  1  0  0  0
  9 27  2  0  0  0
 10 11  2  0  0  0
 10 15  1  0  0  0
 11 12  1  0  0  0
 11100  1  0  0  0
 12 13  2  0  0  0
 12101  1  0  0  0
 13 14  1  0  0  0
 13 31  1  0  0  0
 14 15  2  0  0  0
 14102  1  0  0  0
 15103  1  0  0  0
 16 17  2  0  0  0
 16 21  1  0  0  0
 16 31  1  0  0  0
 17 18  1  0  0  0
 17104  1  0  0  0
 18 19  2  0  0  0
 18105  1  0  0  0
 19 20  1  0  0  0
 19 24  1  0  0  0
 20 21  2  0  0  0
 20106  1  0  0  0
 21 23  1  0  0  0
 22 28  1  0  0  0
 22 32  2  0  0  0
 26 27  1  0  0  0
 28107  1  0  0  0
 28108  1  0  0  0
 29109  1  0  0  0
 29110  1  0  0  0
 33 34  1  0  0  0
 33 66  1  0  0  0
 33 70  2  0  0  0
 34 36  1  0  0  0
 34 59  1  0  0  0
 34111  1  0  0  0
 35 44  2  0  0  0
 35 45  1  0  0  0
 35 68  1  0  0  0
 36 56  1  0  0  0
 36112  1  0  0  0
 37 39  1  0  0  0
 37 47  1  0  0  0
 37 66  1  0  0  0
 37113  1  0  0  0
 38 43  2  0  0  0
 38 46  1  0  0  0
 38 47  1  0  0  0
 39 64  1  0  0  0
 39 67  2  0  0  0
 40 52  1  0  0  0
 40 53  2  0  0  0
 40 58  1  0  0  0
 41114  1  0  0  0
 41115  1  0  0  0
 41116  1  0  0  0
 41 48  1  0  0  0
 42 43  1  0  0  0
 42 66  1  0  0  0
 42117  1  0  0  0
 42118  1  0  0  0
 43 44  1  0  0  0
 44119  1  0  0  0
 45 46  2  0  0  0
 45120  1  0  0  0
 46121  1  0  0  0
 47122  1  0  0  0
 47123  1  0  0  0
 48 56  1  0  0  0
 48 65  1  0  0  0
 48124  1  0  0  0
 49 50  1  0  0  0
 49 53  1  0  0  0
 49 64  1  0  0  0
 49125  1  0  0  0
 50 51  1  0  0  0
 50126  1  0  0  0
 50127  1  0  0  0
 51 52  1  0  0  0
 51128  1  0  0  0
 51129  1  0  0  0
 52130  1  0  0  0
 52131  1  0  0  0
 53 54  1  0  0  0
 54 55  2  0  0  0
 54132  1  0  0  0
 55 57  1  0  0  0
 55133  1  0  0  0
 56 69  2  0  0  0
 57 58  2  0  0  0
 57134  1  0  0  0
 58135  1  0  0  0
 59 60  1  0  0  0
 59 61  1  0  0  0
 59 62  1  0  0  0
 60136  1  0  0  0
 60137  1  0  0  0
 60138  1  0  0  0
 61139  1  0  0  0
 61140  1  0  0  0
 61141  1  0  0  0
 62142  1  0  0  0
 62143  1  0  0  0
 62144  1  0  0  0
 63 65  1  0  0  0
 63145  1  0  0  0
 63146  1  0  0  0
 63147  1  0  0  0
 64148  1  0  0  0
 65149  1  0  0  0
 68 84  1  0  0  0
 71 74  2  0  0  0
 71 75  1  0  0  0
 71150  1  0  0  0
 72 74  1  0  0  0
 72 76  2  0  0  0
 72151  1  0  0  0
 73 75  2  0  0  0
 73 76  1  0  0  0
 73152  1  0  0  0
 74 85  1  0  0  0
 75 86  1  0  0  0
 76 88  1  0  0  0
 77 79  1  0  0  0
 77 84  1  0  0  0
 77 89  2  0  0  0
 78 80  1  0  0  0
 78 87  1  0  0  0
 78 90  2  0  0  0
 79 86  1  0  0  0
 79153  1  0  0  0
 79154  1  0  0  0
 80 81  1  0  0  0
 80155  1  0  0  0
 80156  1  0  0  0
 81 82  1  0  0  0
 81157  1  0  0  0
 81158  1  0  0  0
 82 87  1  0  0  0
 82159  1  0  0  0
 82160  1  0  0  0
 83 84  1  0  0  0
 83 86  1  0  0  0
 83161  1  0  0  0
 83162  1  0  0  0
 84163  1  0  0  0
 85 87  1  0  0  0
 85164  1  0  0  0
 85165  1  0  0  0
 88166  1  0  0  0
M  ISO  4   1 100  68 101  84 101  88 100
M  END
> <chiral flag>
0

> <version>
0

> <s_m_source_file>
/data/baiqing/PycharmProjects/Reinvent-master-3.2/result/LINK_invent/BTK/process_docking_weight1_custom_product_contain_oxygen_bond_distance_aromatic_linkinvent_7_9_3/rearranged_h_0154.sdf

> <i_m_source_file_index>
55

> <r_mmod_Potential_Energy-OPLS-2005>
813.93017578125

> <r_mmod_Stretch_Energy-OPLS-2005>
336.784484863281

> <r_mmod_Bend_Energy-OPLS-2005>
398.211486816406

> <r_mmod_Torsional_Energy-OPLS-2005>
266.387237548828

> <r_mmod_Improper_Torsional_Energy-OPLS-2005>
6.18957996368408

> <r_mmod_Van_der_Waal_Energy-OPLS-2005>
121.361473083496

> <r_mmod_Electrostatic_Energy-OPLS-2005>
-319.070251464844

> <r_mmod_Solvation_Energy-OPLS-2005>
-269.442718505859

> <b_mmod_Minimization_Converged-OPLS-2005>
0

> <r_mmod_RMS_Derivative-OPLS-2005>
2.07127714157104

$$$$
55
                    3D
 Structure written by MMmdl.
164174  0  0  1  0            999 V2000
  -30.5726  -14.8517   20.2472 C   0  0  0  0  0  0
  -30.4575  -12.4507   19.4934 C   0  0  0  0  0  0
  -29.5069  -12.2182   18.2857 C   0  0  0  0  0  0
  -28.0207  -12.2205   18.6877 C   0  0  0  0  0  0
  -27.6327  -13.2126   19.8192 C   0  0  2  0  0  0
  -28.6955  -13.2644   20.9348 C   0  0  0  0  0  0
  -25.2533  -13.8183   20.5732 C   0  0  0  0  0  0
  -24.1796  -13.0457   20.9245 C   0  0  0  0  0  0
  -24.6351  -11.6931   20.8826 C   0  0  0  0  0  0
  -23.9037  -10.4306   21.0459 C   0  0  0  0  0  0
  -24.3603   -9.4205   21.9212 C   0  0  0  0  0  0
  -23.6288   -8.2235   22.0762 C   0  0  0  0  0  0
  -22.4269   -8.0277   21.3551 C   0  0  0  0  0  0
  -21.9905   -9.0252   20.4655 C   0  0  0  0  0  0
  -22.7223  -10.2139   20.3088 C   0  0  0  0  0  0
  -21.6852   -6.0730   22.5275 C   0  0  0  0  0  0
  -21.4015   -6.5634   23.8206 C   0  0  0  0  0  0
  -21.3655   -5.6791   24.9166 C   0  0  0  0  0  0
  -21.6043   -4.3055   24.7220 C   0  0  0  0  0  0
  -21.8822   -3.8148   23.4344 C   0  0  0  0  0  0
  -21.9194   -4.6961   22.3398 C   0  0  0  0  0  0
  -22.7823  -13.5253   21.1879 C   0  0  0  0  0  0
  -22.1669   -4.2149   21.0978 F   0  0  0  0  0  0
  -21.5628   -3.4542   25.7735 F   0  0  0  0  0  0
  -29.9729  -13.6005   20.2927 N   0  0  0  0  0  0
  -26.2927  -12.9355   20.3312 N   0  0  0  0  0  0
  -25.9277  -11.6538   20.5917 N   0  0  0  0  0  0
  -22.0466  -12.8243   22.0426 N   0  0  0  0  0  0
  -25.4265  -15.1897   20.4120 N   0  0  0  0  0  0
  -31.8017  -14.9306   20.3318 O   0  0  0  0  0  0
  -21.6639   -6.8870   21.4238 O   0  0  0  0  0  0
  -22.3516  -14.5548   20.6702 O   0  0  0  0  0  0
  -24.6308  -31.8559   23.1980 C   0  0  0  0  0  0
  -25.9132  -32.4756   23.8331 C   0  0  1  0  0  0
  -27.2211  -27.2645   20.1495 C   0  0  0  0  0  0
  -25.5928  -33.8559   24.2249 N   0  0  0  0  0  0
  -23.4278  -30.4782   21.5406 C   0  0  2  0  0  0
  -24.8771  -28.9228   20.1129 C   0  0  0  0  0  0
  -22.7492  -29.4618   22.4905 C   0  0  0  0  0  0
  -18.0290  -28.1392   22.8480 C   0  0  0  0  0  0
  -24.1490  -36.7292   23.2639 C   0  0  0  0  0  0
  -25.9728  -30.7717   21.3770 C   0  0  0  0  0  0
  -26.0476  -29.3932   20.7228 C   0  0  0  0  0  0
  -27.2251  -28.5782   20.7269 C   0  0  0  0  0  0
  -26.0343  -26.8646   19.4981 C   0  0  0  0  0  0
  -24.8761  -27.6668   19.4862 C   0  0  0  0  0  0
  -23.6470  -29.8093   20.1575 C   0  0  0  0  0  0
  -25.4116  -36.3069   24.0321 C   0  0  1  0  0  0
  -20.5895  -28.3713   23.1255 C   0  0  2  0  0  0
  -20.6777  -26.9427   22.5403 C   0  0  0  0  0  0
  -19.5752  -26.6387   21.5207 C   0  0  0  0  0  0
  -18.1934  -26.7930   22.1621 C   0  0  0  0  0  0
  -19.1544  -28.8867   23.2863 C   0  0  0  0  0  0
  -18.9468  -30.1466   23.8886 C   0  0  0  0  0  0
  -17.6468  -30.6591   24.0565 C   0  0  0  0  0  0
  -25.9059  -34.9440   23.5092 C   0  0  0  0  0  0
  -16.5358  -29.9091   23.6330 C   0  0  0  0  0  0
  -16.7278  -28.6510   23.0348 C   0  0  0  0  0  0
  -26.4495  -31.6581   25.0726 C   0  0  0  0  0  0
  -25.3713  -31.3741   26.1443 C   0  0  0  0  0  0
  -27.0342  -30.2992   24.6226 C   0  0  0  0  0  0
  -27.6041  -32.4326   25.7509 C   0  0  0  0  0  0
  -27.5576  -37.1800   24.8458 C   0  0  0  0  0  0
  -21.4203  -29.3059   22.3643 N   0  0  0  0  0  0
  -26.4287  -37.3768   23.9403 N   0  0  0  0  0  0
  -24.6961  -31.0532   22.0951 N   0  0  0  0  0  0
  -23.4189  -28.8164   23.3009 O   0  0  0  0  0  0
  -28.3022  -26.3568   20.1984 O   0  0  0  0  0  0
  -26.5636  -34.8914   22.4664 O   0  0  0  0  0  0
  -23.5460  -32.1374   23.7281 O   0  0  0  0  0  0
  -30.6490  -20.8907   19.8415 C   0  0  0  0  0  0
  -29.0319  -19.6176   20.6782 C   0  0  0  0  0  0
  -30.7951  -19.6091   19.3743 C   0  0  0  0  0  0
  -29.8344  -18.7251   19.9488 C   0  0  0  0  0  0
  -28.9271  -23.7389   20.2647 C   0  0  0  0  0  0
  -31.5115  -19.2238   18.1329 C   0  0  0  0  0  0
  -30.4095  -16.4004   17.1114 C   0  0  0  0  0  0
  -29.9972  -15.3046   18.0342 C   0  0  0  0  0  0
  -29.5254  -17.3148   19.2341 C   0  0  1  0  0  0
  -29.6904  -17.5870   17.6779 C   0  0  1  0  0  0
  -30.6578  -18.9888   15.8120 C   0  0  0  0  0  0
  -28.7670  -22.2882   20.9559 C   0  0  0  0  0  0
  -28.0052  -24.9708   20.7141 C   0  0  0  0  0  0
  -29.4463  -20.9805   20.5128 N   0  0  0  0  0  0
  -29.9122  -15.7916   19.4290 N   0  0  0  0  0  0
  -30.3734  -18.8577   17.2601 N   0  3  2  0  0  0
  -29.7627  -23.9115   19.3696 O   0  0  0  0  0  0
  -31.4797  -12.6065   19.1439 H   0  0  0  0  0  0
  -30.4922  -11.5605   20.1241 H   0  0  0  0  0  0
  -29.7402  -11.2353   17.8730 H   0  0  0  0  0  0
  -29.6723  -12.8660   17.4344 H   0  0  0  0  0  0
  -27.8198  -11.2039   19.0257 H   0  0  0  0  0  0
  -27.3867  -12.3650   17.8118 H   0  0  0  0  0  0
  -27.5896  -14.1988   19.3606 H   0  0  0  0  0  0
  -28.7603  -12.3155   21.4687 H   0  0  0  0  0  0
  -28.4326  -14.0251   21.6716 H   0  0  0  0  0  0
  -25.2748   -9.5680   22.4785 H   0  0  0  0  0  0
  -24.0003   -7.4615   22.7464 H   0  0  0  0  0  0
  -21.0849   -8.8764   19.8935 H   0  0  0  0  0  0
  -22.3692  -10.9680   19.6202 H   0  0  0  0  0  0
  -21.2018   -7.6144   23.9709 H   0  0  0  0  0  0
  -21.1470   -6.0524   25.9065 H   0  0  0  0  0  0
  -22.0609   -2.7613   23.2843 H   0  0  0  0  0  0
  -22.4092  -11.9902   22.4802 H   0  0  0  0  0  0
  -21.1071  -13.1250   22.2588 H   0  0  0  0  0  0
  -24.6677  -15.8515   20.5345 H   0  0  0  0  0  0
  -26.2924  -15.6273   20.1264 H   0  0  0  0  0  0
  -26.7210  -32.5407   23.1083 H   0  0  0  0  0  0
  -25.0043  -33.9695   25.0375 H   0  0  0  0  0  0
  -22.7246  -31.3006   21.3928 H   0  0  0  0  0  0
  -23.3748  -35.9628   23.3289 H   0  0  0  0  0  0
  -24.3583  -36.8932   22.2056 H   0  0  0  0  0  0
  -23.7249  -37.6492   23.6677 H   0  0  0  0  0  0
  -26.1095  -31.5309   20.6058 H   0  0  0  0  0  0
  -26.8502  -30.8226   22.0096 H   0  0  0  0  0  0
  -28.1206  -28.9334   21.2177 H   0  0  0  0  0  0
  -25.9886  -25.9054   19.0026 H   0  0  0  0  0  0
  -23.9827  -27.3029   18.9967 H   0  0  0  0  0  0
  -23.7710  -30.5845   19.4004 H   0  0  0  0  0  0
  -22.7652  -29.2425   19.8535 H   0  0  0  0  0  0
  -25.1301  -36.1915   25.0813 H   0  0  0  0  0  0
  -20.9990  -28.3303   24.1373 H   0  0  0  0  0  0
  -20.5671  -26.2333   23.3618 H   0  0  0  0  0  0
  -21.6647  -26.7444   22.1204 H   0  0  0  0  0  0
  -19.6919  -25.6294   21.1249 H   0  0  0  0  0  0
  -19.6687  -27.3187   20.6729 H   0  0  0  0  0  0
  -17.4202  -26.6670   21.4028 H   0  0  0  0  0  0
  -18.0343  -26.0075   22.9023 H   0  0  0  0  0  0
  -19.7948  -30.7283   24.2245 H   0  0  0  0  0  0
  -17.5028  -31.6268   24.5177 H   0  0  0  0  0  0
  -15.5362  -30.2996   23.7659 H   0  0  0  0  0  0
  -15.8677  -28.0834   22.7060 H   0  0  0  0  0  0
  -24.5886  -30.7093   25.7772 H   0  0  0  0  0  0
  -24.8909  -32.2917   26.4849 H   0  0  0  0  0  0
  -25.8021  -30.8931   27.0231 H   0  0  0  0  0  0
  -26.2935  -29.6742   24.1226 H   0  0  0  0  0  0
  -27.3981  -29.7255   25.4759 H   0  0  0  0  0  0
  -27.8827  -30.4251   23.9497 H   0  0  0  0  0  0
  -27.2636  -33.3626   26.2069 H   0  0  0  0  0  0
  -28.3864  -32.6883   25.0353 H   0  0  0  0  0  0
  -28.0691  -31.8464   26.5443 H   0  0  0  0  0  0
  -28.2583  -38.0106   24.7510 H   0  0  0  0  0  0
  -28.1082  -36.2637   24.6276 H   0  0  0  0  0  0
  -27.2295  -37.1439   25.8860 H   0  0  0  0  0  0
  -20.9389  -29.8791   21.6858 H   0  0  0  0  0  0
  -26.0164  -38.2842   24.1402 H   0  0  0  0  0  0
  -31.1874  -21.7902   19.5709 H   0  0  0  0  0  0
  -28.0895  -19.4262   21.1773 H   0  0  0  0  0  0
  -32.2090  -18.4021   18.2971 H   0  0  0  0  0  0
  -32.0629  -20.0786   17.7384 H   0  0  0  0  0  0
  -30.1386  -16.1890   16.0760 H   0  0  0  0  0  0
  -31.4928  -16.5168   17.1608 H   0  0  0  0  0  0
  -30.7611  -14.5440   17.8677 H   0  0  0  0  0  0
  -29.0218  -14.9262   17.7282 H   0  0  0  0  0  0
  -28.4499  -17.2498   19.4088 H   0  0  0  0  0  0
  -28.6886  -17.6182   17.2451 H   0  0  0  0  0  0
  -30.9444  -20.0128   15.5716 H   0  0  0  0  0  0
  -29.7748  -18.7526   15.2166 H   0  0  0  0  0  0
  -31.4703  -18.3342   15.4949 H   0  0  0  0  0  0
  -27.6957  -22.0889   20.9767 H   0  0  0  0  0  0
  -29.0444  -22.4336   21.9998 H   0  0  0  0  0  0
  -28.0445  -25.0190   21.8022 H   0  0  0  0  0  0
  -26.9819  -24.6877   20.4749 H   0  0  0  0  0  0
  -29.6997  -19.5812   17.4599 H   0  0  0  0  0  0
  1 25  1  0  0  0
  1 30  2  0  0  0
  1 85  1  0  0  0
  2  3  1  0  0  0
  2 25  1  0  0  0
  2 88  1  0  0  0
  2 89  1  0  0  0
  3  4  1  0  0  0
  3 90  1  0  0  0
  3 91  1  0  0  0
  4  5  1  0  0  0
  4 92  1  0  0  0
  4 93  1  0  0  0
  5  6  1  0  0  0
  5 26  1  0  0  0
  5 94  1  0  0  0
  6 25  1  0  0  0
  6 95  1  0  0  0
  6 96  1  0  0  0
  7  8  2  0  0  0
  7 26  1  0  0  0
  7 29  1  0  0  0
  8  9  1  0  0  0
  8 22  1  0  0  0
  9 10  1  0  0  0
  9 27  2  0  0  0
 10 11  2  0  0  0
 10 15  1  0  0  0
 11 12  1  0  0  0
 11 97  1  0  0  0
 12 13  2  0  0  0
 12 98  1  0  0  0
 13 14  1  0  0  0
 13 31  1  0  0  0
 14 15  2  0  0  0
 14 99  1  0  0  0
 15100  1  0  0  0
 16 17  2  0  0  0
 16 21  1  0  0  0
 16 31  1  0  0  0
 17 18  1  0  0  0
 17101  1  0  0  0
 18 19  2  0  0  0
 18102  1  0  0  0
 19 20  1  0  0  0
 19 24  1  0  0  0
 20 21  2  0  0  0
 20103  1  0  0  0
 21 23  1  0  0  0
 22 28  1  0  0  0
 22 32  2  0  0  0
 26 27  1  0  0  0
 28104  1  0  0  0
 28105  1  0  0  0
 29106  1  0  0  0
 29107  1  0  0  0
 33 34  1  0  0  0
 33 66  1  0  0  0
 33 70  2  0  0  0
 34 36  1  0  0  0
 34 59  1  0  0  0
 34108  1  0  0  0
 35 44  2  0  0  0
 35 45  1  0  0  0
 35 68  1  0  0  0
 36 56  1  0  0  0
 36109  1  0  0  0
 37 39  1  0  0  0
 37 47  1  0  0  0
 37 66  1  0  0  0
 37110  1  0  0  0
 38 43  2  0  0  0
 38 46  1  0  0  0
 38 47  1  0  0  0
 39 64  1  0  0  0
 39 67  2  0  0  0
 40 52  1  0  0  0
 40 53  2  0  0  0
 40 58  1  0  0  0
 41111  1  0  0  0
 41112  1  0  0  0
 41113  1  0  0  0
 41 48  1  0  0  0
 42 43  1  0  0  0
 42 66  1  0  0  0
 42114  1  0  0  0
 42115  1  0  0  0
 43 44  1  0  0  0
 44116  1  0  0  0
 45 46  2  0  0  0
 45117  1  0  0  0
 46118  1  0  0  0
 47119  1  0  0  0
 47120  1  0  0  0
 48 56  1  0  0  0
 48 65  1  0  0  0
 48121  1  0  0  0
 49 50  1  0  0  0
 49 53  1  0  0  0
 49 64  1  0  0  0
 49122  1  0  0  0
 50 51  1  0  0  0
 50123  1  0  0  0
 50124  1  0  0  0
 51 52  1  0  0  0
 51125  1  0  0  0
 51126  1  0  0  0
 52127  1  0  0  0
 52128  1  0  0  0
 53 54  1  0  0  0
 54 55  2  0  0  0
 54129  1  0  0  0
 55 57  1  0  0  0
 55130  1  0  0  0
 56 69  2  0  0  0
 57 58  2  0  0  0
 57131  1  0  0  0
 58132  1  0  0  0
 59 60  1  0  0  0
 59 61  1  0  0  0
 59 62  1  0  0  0
 60133  1  0  0  0
 60134  1  0  0  0
 60135  1  0  0  0
 61136  1  0  0  0
 61137  1  0  0  0
 61138  1  0  0  0
 62139  1  0  0  0
 62140  1  0  0  0
 62141  1  0  0  0
 63 65  1  0  0  0
 63142  1  0  0  0
 63143  1  0  0  0
 63144  1  0  0  0
 64145  1  0  0  0
 65146  1  0  0  0
 68 83  1  0  0  0
 71 73  2  0  0  0
 71 84  1  0  0  0
 71147  1  0  0  0
 72 74  2  0  0  0
 72 84  1  0  0  0
 72148  1  0  0  0
 73 74  1  0  0  0
 73 76  1  0  0  0
 74 79  1  0  0  0
 75 82  1  0  0  0
 75 83  1  0  0  0
 75 87  2  0  0  0
 76 86  1  0  0  0
 76149  1  0  0  0
 76150  1  0  0  0
 77 78  1  0  0  0
 77151  1  0  0  0
 77152  1  0  0  0
 77 80  1  0  0  0
 78 85  1  0  0  0
 78153  1  0  0  0
 78154  1  0  0  0
 79 80  1  0  0  0
 79 85  1  0  0  0
 79155  1  0  0  0
 80 86  1  0  0  0
 80156  1  0  0  0
 81157  1  0  0  0
 81158  1  0  0  0
 81159  1  0  0  0
 81 86  1  0  0  0
 82 84  1  0  0  0
 82160  1  0  0  0
 82161  1  0  0  0
 83162  1  0  0  0
 83163  1  0  0  0
 86164  1  0  0  0
M  CHG  1  86   1
M  ISO  4   1 100  68 101  83 101  85 100
M  END
> <chiral flag>
0

> <version>
0

> <s_m_source_file>
/data/baiqing/PycharmProjects/Reinvent-master-3.2/result/LINK_invent/BTK/process_docking_weight1_custom_product_contain_oxygen_bond_distance_aromatic_linkinvent_7_9_3/rearranged_h_0154.sdf

> <i_m_source_file_index>
56

> <r_mmod_Potential_Energy-OPLS-2005>
661.094116210938

> <r_mmod_Stretch_Energy-OPLS-2005>
159.821075439453

> <r_mmod_Bend_Energy-OPLS-2005>
338.570465087891

> <r_mmod_Torsional_Energy-OPLS-2005>
476.700836181641

> <r_mmod_Improper_Torsional_Energy-OPLS-2005>
44.4900207519531

> <r_mmod_Van_der_Waal_Energy-OPLS-2005>
141.703170776367

> <r_mmod_Electrostatic_Energy-OPLS-2005>
-206.648056030273

> <r_mmod_Solvation_Energy-OPLS-2005>
-442.758758544922

> <b_mmod_Minimization_Converged-OPLS-2005>
0

> <r_mmod_RMS_Derivative-OPLS-2005>
1.34013223648071

$$$$
56
                    3D
 Structure written by MMmdl.
158167  0  0  1  0            999 V2000
  -30.7003  -14.6040   20.5643 C   0  0  0  0  0  0
  -30.4222  -12.3994   19.4411 C   0  0  0  0  0  0
  -29.4922  -12.5188   18.2172 C   0  0  0  0  0  0
  -28.0201  -12.3468   18.6342 C   0  0  0  0  0  0
  -27.6500  -13.2202   19.8613 C   0  0  2  0  0  0
  -28.6977  -13.0839   20.9907 C   0  0  0  0  0  0
  -25.2538  -13.8190   20.5698 C   0  0  0  0  0  0
  -24.1824  -13.0443   20.9189 C   0  0  0  0  0  0
  -24.6400  -11.6914   20.8760 C   0  0  0  0  0  0
  -23.9071  -10.4294   21.0415 C   0  0  0  0  0  0
  -24.3624   -9.4209   21.9186 C   0  0  0  0  0  0
  -23.6295   -8.2245   22.0760 C   0  0  0  0  0  0
  -22.4275   -8.0289   21.3553 C   0  0  0  0  0  0
  -21.9917   -9.0263   20.4652 C   0  0  0  0  0  0
  -22.7246  -10.2135   20.3059 C   0  0  0  0  0  0
  -21.6852   -6.0749   22.5287 C   0  0  0  0  0  0
  -21.4010   -6.5649   23.8225 C   0  0  0  0  0  0
  -21.3652   -5.6796   24.9186 C   0  0  0  0  0  0
  -21.6041   -4.3061   24.7230 C   0  0  0  0  0  0
  -21.8817   -3.8156   23.4350 C   0  0  0  0  0  0
  -21.9187   -4.6977   22.3409 C   0  0  0  0  0  0
  -22.7846  -13.5229   21.1840 C   0  0  0  0  0  0
  -22.1656   -4.2169   21.0985 F   0  0  0  0  0  0
  -21.5629   -3.4538   25.7739 F   0  0  0  0  0  0
  -30.0138  -13.4216   20.4295 N   0  0  0  0  0  0
  -26.2974  -12.9373   20.3328 N   0  0  0  0  0  0
  -25.9328  -11.6524   20.5775 N   0  0  0  0  0  0
  -22.0484  -12.8233   22.0398 N   0  0  0  0  0  0
  -25.4205  -15.1900   20.4101 N   0  0  0  0  0  0
  -31.8135  -14.7428   20.0469 O   0  0  0  0  0  0
  -21.6634   -6.8887   21.4248 O   0  0  0  0  0  0
  -22.3521  -14.5530   20.6669 O   0  0  0  0  0  0
  -24.6247  -31.8603   23.2016 C   0  0  0  0  0  0
  -25.9093  -32.4787   23.8364 C   0  0  1  0  0  0
  -27.2239  -27.3380   20.1303 C   0  0  0  0  0  0
  -25.5917  -33.8594   24.2282 N   0  0  0  0  0  0
  -23.4183  -30.4835   21.5403 C   0  0  2  0  0  0
  -24.8665  -28.9381   20.1100 C   0  0  0  0  0  0
  -22.7448  -29.4653   22.4905 C   0  0  0  0  0  0
  -18.0284  -28.1377   22.8464 C   0  0  0  0  0  0
  -24.1485  -36.7309   23.2638 C   0  0  0  0  0  0
  -25.9568  -30.8007   21.3668 C   0  0  0  0  0  0
  -26.0329  -29.4269   20.7142 C   0  0  0  0  0  0
  -27.2195  -28.6390   20.7102 C   0  0  0  0  0  0
  -26.0410  -26.8905   19.5070 C   0  0  0  0  0  0
  -24.8708  -27.6745   19.4956 C   0  0  0  0  0  0
  -23.6324  -29.8145   20.1560 C   0  0  0  0  0  0
  -25.4104  -36.3101   24.0332 C   0  0  1  0  0  0
  -20.5880  -28.3690   23.1257 C   0  0  2  0  0  0
  -20.6775  -26.9423   22.5367 C   0  0  0  0  0  0
  -19.5741  -26.6407   21.5174 C   0  0  0  0  0  0
  -18.1932  -26.7939   22.1589 C   0  0  0  0  0  0
  -19.1525  -28.8845   23.2874 C   0  0  0  0  0  0
  -18.9446  -30.1433   23.8917 C   0  0  0  0  0  0
  -17.6445  -30.6556   24.0592 C   0  0  0  0  0  0
  -25.9043  -34.9465   23.5108 C   0  0  0  0  0  0
  -16.5347  -29.9063   23.6324 C   0  0  0  0  0  0
  -16.7271  -28.6491   23.0317 C   0  0  0  0  0  0
  -26.4484  -31.6600   25.0733 C   0  0  0  0  0  0
  -25.3733  -31.3727   26.1471 C   0  0  0  0  0  0
  -27.0319  -30.3027   24.6168 C   0  0  0  0  0  0
  -27.6056  -32.4327   25.7501 C   0  0  0  0  0  0
  -27.5578  -37.1809   24.8463 C   0  0  0  0  0  0
  -21.4154  -29.3080   22.3666 N   0  0  0  0  0  0
  -26.4294  -37.3783   23.9408 N   0  0  0  0  0  0
  -24.6851  -31.0658   22.0924 N   0  0  0  0  0  0
  -23.4179  -28.8207   23.2986 O   0  0  0  0  0  0
  -28.3310  -26.4886   20.1492 O   0  0  0  0  0  0
  -26.5622  -34.8929   22.4679 O   0  0  0  0  0  0
  -23.5416  -32.1392   23.7353 O   0  0  0  0  0  0
  -28.2774  -18.9546   20.7170 C   0  0  0  0  0  0
  -30.0728  -20.4206   20.4312 C   0  0  0  0  0  0
  -28.7079  -20.3177   20.4924 C   0  0  0  0  0  0
  -29.2863  -18.0146   20.8789 C   0  0  0  0  0  0
  -27.5900  -22.7163   20.2007 C   0  0  0  0  0  0
  -29.8902  -16.5364   23.5765 C   0  0  0  0  0  0
  -28.5954  -16.5366   22.7629 C   0  0  0  0  0  0
  -30.8992  -15.7910   22.6943 C   0  0  0  0  0  0
  -29.0740  -16.5307   21.3047 C   0  0  1  0  0  0
  -28.6866  -23.8235   20.3343 C   0  0  0  0  0  0
  -28.1680  -25.2297   20.9033 C   0  0  0  0  0  0
  -30.2297  -15.5783   21.4102 N   0  0  0  0  0  0
  -27.7097  -21.3565   20.3222 N   0  0  0  0  0  0
  -26.4530  -23.1172   19.9475 O   0  0  0  0  0  0
  -30.8294  -18.8403   20.6986 S   0  0  0  0  0  0
  -31.4618  -12.5121   19.1288 H   0  0  0  0  0  0
  -30.3589  -11.4024   19.8785 H   0  0  0  0  0  0
  -29.7580  -11.7726   17.4680 H   0  0  0  0  0  0
  -29.6310  -13.4920   17.7444 H   0  0  0  0  0  0
  -27.8630  -11.2932   18.8682 H   0  0  0  0  0  0
  -27.3588  -12.5721   17.7975 H   0  0  0  0  0  0
  -27.6610  -14.2521   19.5103 H   0  0  0  0  0  0
  -28.7089  -12.0641   21.3783 H   0  0  0  0  0  0
  -28.4428  -13.7173   21.8387 H   0  0  0  0  0  0
  -25.2775   -9.5685   22.4756 H   0  0  0  0  0  0
  -24.0015   -7.4638   22.7491 H   0  0  0  0  0  0
  -21.0845   -8.8769   19.8961 H   0  0  0  0  0  0
  -22.3704  -10.9672   19.6165 H   0  0  0  0  0  0
  -21.1994   -7.6157   23.9734 H   0  0  0  0  0  0
  -21.1476   -6.0526   25.9088 H   0  0  0  0  0  0
  -22.0599   -2.7621   23.2841 H   0  0  0  0  0  0
  -22.4097  -11.9906   22.4805 H   0  0  0  0  0  0
  -21.1097  -13.1266   22.2583 H   0  0  0  0  0  0
  -24.6469  -15.8374   20.5200 H   0  0  0  0  0  0
  -26.2589  -15.6357   20.0616 H   0  0  0  0  0  0
  -26.7162  -32.5466   23.1127 H   0  0  0  0  0  0
  -25.0074  -33.9730   25.0437 H   0  0  0  0  0  0
  -22.7131  -31.3048   21.3930 H   0  0  0  0  0  0
  -23.3750  -35.9640   23.3309 H   0  0  0  0  0  0
  -24.3579  -36.8922   22.2052 H   0  0  0  0  0  0
  -23.7237  -37.6509   23.6655 H   0  0  0  0  0  0
  -26.0838  -31.5621   20.5963 H   0  0  0  0  0  0
  -26.8381  -30.8518   21.9944 H   0  0  0  0  0  0
  -28.1178  -29.0078   21.1843 H   0  0  0  0  0  0
  -26.0166  -25.9113   19.0483 H   0  0  0  0  0  0
  -23.9776  -27.2942   19.0183 H   0  0  0  0  0  0
  -23.7480  -30.5866   19.3947 H   0  0  0  0  0  0
  -22.7555  -29.2381   19.8578 H   0  0  0  0  0  0
  -25.1284  -36.1965   25.0826 H   0  0  0  0  0  0
  -20.9992  -28.3267   24.1372 H   0  0  0  0  0  0
  -20.5736  -26.2280   23.3547 H   0  0  0  0  0  0
  -21.6629  -26.7461   22.1128 H   0  0  0  0  0  0
  -19.6912  -25.6318   21.1216 H   0  0  0  0  0  0
  -19.6702  -27.3217   20.6706 H   0  0  0  0  0  0
  -17.4214  -26.6696   21.3987 H   0  0  0  0  0  0
  -18.0307  -26.0061   22.8947 H   0  0  0  0  0  0
  -19.7919  -30.7216   24.2362 H   0  0  0  0  0  0
  -17.4969  -31.6214   24.5230 H   0  0  0  0  0  0
  -15.5332  -30.2951   23.7618 H   0  0  0  0  0  0
  -15.8668  -28.0821   22.7001 H   0  0  0  0  0  0
  -24.5912  -30.7061   25.7814 H   0  0  0  0  0  0
  -24.8919  -32.2877   26.4916 H   0  0  0  0  0  0
  -25.8072  -30.8904   27.0237 H   0  0  0  0  0  0
  -26.2878  -29.6786   24.1198 H   0  0  0  0  0  0
  -27.4019  -29.7273   25.4668 H   0  0  0  0  0  0
  -27.8749  -30.4323   23.9382 H   0  0  0  0  0  0
  -27.2679  -33.3623   26.2089 H   0  0  0  0  0  0
  -28.3863  -32.6882   25.0332 H   0  0  0  0  0  0
  -28.0721  -31.8447   26.5409 H   0  0  0  0  0  0
  -28.2597  -38.0104   24.7507 H   0  0  0  0  0  0
  -28.1072  -36.2636   24.6298 H   0  0  0  0  0  0
  -27.2300  -37.1468   25.8866 H   0  0  0  0  0  0
  -20.9316  -29.8792   21.6880 H   0  0  0  0  0  0
  -26.0186  -38.2863   24.1401 H   0  0  0  0  0  0
  -27.2267  -18.7101   20.8019 H   0  0  0  0  0  0
  -30.6915  -21.2916   20.2515 H   0  0  0  0  0  0
  -29.7653  -16.0713   24.5559 H   0  0  0  0  0  0
  -30.2284  -17.5616   23.7423 H   0  0  0  0  0  0
  -27.9378  -17.3697   23.0097 H   0  0  0  0  0  0
  -28.0354  -15.6261   22.9756 H   0  0  0  0  0  0
  -31.1706  -14.8345   23.1450 H   0  0  0  0  0  0
  -31.8162  -16.3660   22.5564 H   0  0  0  0  0  0
  -28.2995  -16.0960   20.6752 H   0  0  0  0  0  0
  -29.1389  -23.9672   19.3536 H   0  0  0  0  0  0
  -29.4800  -23.4449   20.9811 H   0  0  0  0  0  0
  -28.7021  -25.3968   21.8384 H   0  0  0  0  0  0
  -27.1351  -25.1368   21.2428 H   0  0  0  0  0  0
  -26.7838  -20.9598   20.2597 H   0  0  0  0  0  0
  1 25  1  0  0  0
  1 30  2  0  0  0
  1 82  1  0  0  0
  2  3  1  0  0  0
  2 25  1  0  0  0
  2 86  1  0  0  0
  2 87  1  0  0  0
  3  4  1  0  0  0
  3 88  1  0  0  0
  3 89  1  0  0  0
  4  5  1  0  0  0
  4 90  1  0  0  0
  4 91  1  0  0  0
  5  6  1  0  0  0
  5 26  1  0  0  0
  5 92  1  0  0  0
  6 25  1  0  0  0
  6 93  1  0  0  0
  6 94  1  0  0  0
  7  8  2  0  0  0
  7 26  1  0  0  0
  7 29  1  0  0  0
  8  9  1  0  0  0
  8 22  1  0  0  0
  9 10  1  0  0  0
  9 27  2  0  0  0
 10 11  2  0  0  0
 10 15  1  0  0  0
 11 12  1  0  0  0
 11 95  1  0  0  0
 12 13  2  0  0  0
 12 96  1  0  0  0
 13 14  1  0  0  0
 13 31  1  0  0  0
 14 15  2  0  0  0
 14 97  1  0  0  0
 15 98  1  0  0  0
 16 17  2  0  0  0
 16 21  1  0  0  0
 16 31  1  0  0  0
 17 18  1  0  0  0
 17 99  1  0  0  0
 18 19  2  0  0  0
 18100  1  0  0  0
 19 20  1  0  0  0
 19 24  1  0  0  0
 20 21  2  0  0  0
 20101  1  0  0  0
 21 23  1  0  0  0
 22 28  1  0  0  0
 22 32  2  0  0  0
 26 27  1  0  0  0
 28102  1  0  0  0
 28103  1  0  0  0
 29104  1  0  0  0
 29105  1  0  0  0
 33 34  1  0  0  0
 33 66  1  0  0  0
 33 70  2  0  0  0
 34 36  1  0  0  0
 34 59  1  0  0  0
 34106  1  0  0  0
 35 44  2  0  0  0
 35 45  1  0  0  0
 35 68  1  0  0  0
 36 56  1  0  0  0
 36107  1  0  0  0
 37 39  1  0  0  0
 37 47  1  0  0  0
 37 66  1  0  0  0
 37108  1  0  0  0
 38 43  2  0  0  0
 38 46  1  0  0  0
 38 47  1  0  0  0
 39 64  1  0  0  0
 39 67  2  0  0  0
 40 52  1  0  0  0
 40 53  2  0  0  0
 40 58  1  0  0  0
 41109  1  0  0  0
 41110  1  0  0  0
 41111  1  0  0  0
 41 48  1  0  0  0
 42 43  1  0  0  0
 42 66  1  0  0  0
 42112  1  0  0  0
 42113  1  0  0  0
 43 44  1  0  0  0
 44114  1  0  0  0
 45 46  2  0  0  0
 45115  1  0  0  0
 46116  1  0  0  0
 47117  1  0  0  0
 47118  1  0  0  0
 48 56  1  0  0  0
 48 65  1  0  0  0
 48119  1  0  0  0
 49 50  1  0  0  0
 49 53  1  0  0  0
 49 64  1  0  0  0
 49120  1  0  0  0
 50 51  1  0  0  0
 50121  1  0  0  0
 50122  1  0  0  0
 51 52  1  0  0  0
 51123  1  0  0  0
 51124  1  0  0  0
 52125  1  0  0  0
 52126  1  0  0  0
 53 54  1  0  0  0
 54 55  2  0  0  0
 54127  1  0  0  0
 55 57  1  0  0  0
 55128  1  0  0  0
 56 69  2  0  0  0
 57 58  2  0  0  0
 57129  1  0  0  0
 58130  1  0  0  0
 59 60  1  0  0  0
 59 61  1  0  0  0
 59 62  1  0  0  0
 60131  1  0  0  0
 60132  1  0  0  0
 60133  1  0  0  0
 61134  1  0  0  0
 61135  1  0  0  0
 61136  1  0  0  0
 62137  1  0  0  0
 62138  1  0  0  0
 62139  1  0  0  0
 63 65  1  0  0  0
 63140  1  0  0  0
 63141  1  0  0  0
 63142  1  0  0  0
 64143  1  0  0  0
 65144  1  0  0  0
 68 81  1  0  0  0
 71 73  1  0  0  0
 71 74  2  0  0  0
 71145  1  0  0  0
 72 73  2  0  0  0
 72 85  1  0  0  0
 72146  1  0  0  0
 73 83  1  0  0  0
 74 85  1  0  0  0
 74 79  1  0  0  0
 75 80  1  0  0  0
 75 83  1  0  0  0
 75 84  2  0  0  0
 76 77  1  0  0  0
 76 78  1  0  0  0
 76147  1  0  0  0
 76148  1  0  0  0
 77 79  1  0  0  0
 77149  1  0  0  0
 77150  1  0  0  0
 78 82  1  0  0  0
 78151  1  0  0  0
 78152  1  0  0  0
 79 82  1  0  0  0
 79153  1  0  0  0
 80 81  1  0  0  0
 80154  1  0  0  0
 80155  1  0  0  0
 81156  1  0  0  0
 81157  1  0  0  0
 83158  1  0  0  0
M  ISO  4   1 100  68 101  81 101  82 100
M  END
> <chiral flag>
0

> <version>
0

> <s_m_source_file>
/data/baiqing/PycharmProjects/Reinvent-master-3.2/result/LINK_invent/BTK/process_docking_weight1_custom_product_contain_oxygen_bond_distance_aromatic_linkinvent_7_9_3/rearranged_h_0154.sdf

> <i_m_source_file_index>
57

> <r_mmod_Potential_Energy-OPLS-2005>
289.502777099609

> <r_mmod_Stretch_Energy-OPLS-2005>
72.0346145629883

> <r_mmod_Bend_Energy-OPLS-2005>
235.344497680664

> <r_mmod_Torsional_Energy-OPLS-2005>
377.582366943359

> <r_mmod_Improper_Torsional_Energy-OPLS-2005>
4.01828670501709

> <r_mmod_Van_der_Waal_Energy-OPLS-2005>
104.530937194824

> <r_mmod_Electrostatic_Energy-OPLS-2005>
-328.358459472656

> <r_mmod_Solvation_Energy-OPLS-2005>
-214.888381958008

> <b_mmod_Minimization_Converged-OPLS-2005>
0

> <r_mmod_RMS_Derivative-OPLS-2005>
2.87967991828918

$$$$
57
                    3D
 Structure written by MMmdl.
162171  0  0  1  0            999 V2000
  -30.6039  -14.7009   20.4889 C   0  0  0  0  0  0
  -30.4416  -12.4281   19.4706 C   0  0  0  0  0  0
  -29.5169  -12.5200   18.2348 C   0  0  0  0  0  0
  -28.0390  -12.3477   18.6407 C   0  0  0  0  0  0
  -27.6519  -13.2245   19.8629 C   0  0  2  0  0  0
  -28.6949  -13.1047   20.9970 C   0  0  0  0  0  0
  -25.2560  -13.8175   20.5714 C   0  0  0  0  0  0
  -24.1834  -13.0424   20.9183 C   0  0  0  0  0  0
  -24.6422  -11.6897   20.8736 C   0  0  0  0  0  0
  -23.9098  -10.4277   21.0389 C   0  0  0  0  0  0
  -24.3645   -9.4196   21.9170 C   0  0  0  0  0  0
  -23.6307   -8.2243   22.0746 C   0  0  0  0  0  0
  -22.4287   -8.0282   21.3543 C   0  0  0  0  0  0
  -21.9934   -9.0257   20.4647 C   0  0  0  0  0  0
  -22.7270  -10.2129   20.3046 C   0  0  0  0  0  0
  -21.6860   -6.0744   22.5287 C   0  0  0  0  0  0
  -21.4012   -6.5643   23.8220 C   0  0  0  0  0  0
  -21.3659   -5.6794   24.9179 C   0  0  0  0  0  0
  -21.6043   -4.3058   24.7234 C   0  0  0  0  0  0
  -21.8816   -3.8153   23.4354 C   0  0  0  0  0  0
  -21.9188   -4.6971   22.3408 C   0  0  0  0  0  0
  -22.7854  -13.5216   21.1836 C   0  0  0  0  0  0
  -22.1654   -4.2155   21.0985 F   0  0  0  0  0  0
  -21.5635   -3.4542   25.7748 F   0  0  0  0  0  0
  -30.0079  -13.4606   20.4373 N   0  0  0  0  0  0
  -26.2991  -12.9367   20.3318 N   0  0  0  0  0  0
  -25.9352  -11.6513   20.5758 N   0  0  0  0  0  0
  -22.0502  -12.8211   22.0403 N   0  0  0  0  0  0
  -25.4273  -15.1898   20.4168 N   0  0  0  0  0  0
  -31.7560  -14.8625   20.0750 O   0  0  0  0  0  0
  -21.6643   -6.8884   21.4248 O   0  0  0  0  0  0
  -22.3525  -14.5513   20.6672 O   0  0  0  0  0  0
  -24.6301  -31.8587   23.2019 C   0  0  0  0  0  0
  -25.9138  -32.4768   23.8357 C   0  0  1  0  0  0
  -27.2128  -27.2831   20.1181 C   0  0  0  0  0  0
  -25.5945  -33.8572   24.2278 N   0  0  0  0  0  0
  -23.4231  -30.4849   21.5466 C   0  0  2  0  0  0
  -24.8673  -28.9403   20.1101 C   0  0  0  0  0  0
  -22.7492  -29.4624   22.4935 C   0  0  0  0  0  0
  -18.0286  -28.1392   22.8491 C   0  0  0  0  0  0
  -24.1486  -36.7288   23.2637 C   0  0  0  0  0  0
  -25.9701  -30.7779   21.3796 C   0  0  0  0  0  0
  -26.0405  -29.4044   20.7179 C   0  0  0  0  0  0
  -27.2175  -28.5901   20.7084 C   0  0  0  0  0  0
  -26.0111  -26.8840   19.4853 C   0  0  0  0  0  0
  -24.8579  -27.6876   19.4817 C   0  0  0  0  0  0
  -23.6380  -29.8245   20.1603 C   0  0  0  0  0  0
  -25.4116  -36.3082   24.0322 C   0  0  1  0  0  0
  -20.5888  -28.3696   23.1277 C   0  0  2  0  0  0
  -20.6776  -26.9413   22.5417 C   0  0  0  0  0  0
  -19.5755  -26.6382   21.5216 C   0  0  0  0  0  0
  -18.1928  -26.7934   22.1619 C   0  0  0  0  0  0
  -19.1540  -28.8857   23.2880 C   0  0  0  0  0  0
  -18.9464  -30.1460   23.8892 C   0  0  0  0  0  0
  -17.6463  -30.6586   24.0560 C   0  0  0  0  0  0
  -25.9060  -34.9450   23.5102 C   0  0  0  0  0  0
  -16.5352  -29.9081   23.6338 C   0  0  0  0  0  0
  -16.7270  -28.6501   23.0356 C   0  0  0  0  0  0
  -26.4507  -31.6585   25.0739 C   0  0  0  0  0  0
  -25.3737  -31.3739   26.1465 C   0  0  0  0  0  0
  -27.0338  -30.2985   24.6236 C   0  0  0  0  0  0
  -27.6071  -32.4327   25.7517 C   0  0  0  0  0  0
  -27.5590  -37.1793   24.8457 C   0  0  0  0  0  0
  -21.4201  -29.3047   22.3670 N   0  0  0  0  0  0
  -26.4292  -37.3782   23.9416 N   0  0  0  0  0  0
  -24.6931  -31.0581   22.0978 N   0  0  0  0  0  0
  -23.4215  -28.8164   23.3013 O   0  0  0  0  0  0
  -28.3121  -26.3970   20.1646 O   0  0  0  0  0  0
  -26.5631  -34.8917   22.4669 O   0  0  0  0  0  0
  -23.5460  -32.1406   23.7334 O   0  0  0  0  0  0
  -29.0705  -17.6339   19.4545 C   0  0  0  0  0  0
  -29.0061  -19.0813   19.3971 C   0  0  0  0  0  0
  -29.6335  -19.7810   20.4161 C   0  0  0  0  0  0
  -29.7722  -17.1000   20.5163 C   0  0  0  0  0  0
  -28.2845  -19.7040   18.2858 C   0  0  0  0  0  0
  -31.0954  -23.0404   21.7622 C   0  0  0  0  0  0
  -29.9811  -24.0856   21.5731 C   0  0  0  0  0  0
  -30.5531  -21.6008   21.8610 C   0  0  0  0  0  0
  -28.7130  -22.2520   20.3295 C   0  0  0  0  0  0
  -29.1740  -23.8043   20.2996 C   0  0  1  0  0  0
  -28.0363  -24.9248   20.0824 C   0  0  0  0  0  0
  -29.7607  -21.2135   20.6880 N   0  0  0  0  0  0
  -28.8952  -20.5579   17.4570 N   0  0  0  0  0  0
  -29.8185  -15.7547   20.9043 N   0  0  0  0  0  0
  -27.0015  -19.3888   18.0745 N   0  3  0  0  0  0
  -30.0035  -23.9244   19.2603 F   0  0  0  0  0  0
  -30.3622  -18.5021   21.4584 S   0  0  0  0  0  0
  -31.4849  -12.5519   19.1748 H   0  0  0  0  0  0
  -30.3801  -11.4367   19.9223 H   0  0  0  0  0  0
  -29.7961  -11.7639   17.4991 H   0  0  0  0  0  0
  -29.6525  -13.4860   17.7458 H   0  0  0  0  0  0
  -27.8849  -11.2940   18.8778 H   0  0  0  0  0  0
  -27.3848  -12.5654   17.7956 H   0  0  0  0  0  0
  -27.6609  -14.2572   19.5136 H   0  0  0  0  0  0
  -28.7146  -12.0882   21.3917 H   0  0  0  0  0  0
  -28.4292  -13.7459   21.8386 H   0  0  0  0  0  0
  -25.2800   -9.5670   22.4733 H   0  0  0  0  0  0
  -24.0019   -7.4638   22.7466 H   0  0  0  0  0  0
  -21.0864   -8.8784   19.8954 H   0  0  0  0  0  0
  -22.3736  -10.9668   19.6151 H   0  0  0  0  0  0
  -21.2006   -7.6149   23.9735 H   0  0  0  0  0  0
  -21.1481   -6.0516   25.9078 H   0  0  0  0  0  0
  -22.0601   -2.7621   23.2855 H   0  0  0  0  0  0
  -22.4116  -11.9874   22.4804 H   0  0  0  0  0  0
  -21.1115  -13.1219   22.2600 H   0  0  0  0  0  0
  -24.6640  -15.8458   20.5418 H   0  0  0  0  0  0
  -26.2899  -15.6316   20.1284 H   0  0  0  0  0  0
  -26.7205  -32.5419   23.1111 H   0  0  0  0  0  0
  -25.0070  -33.9716   25.0404 H   0  0  0  0  0  0
  -22.7173  -31.3063   21.4050 H   0  0  0  0  0  0
  -23.3760  -35.9606   23.3279 H   0  0  0  0  0  0
  -24.3581  -36.8936   22.2058 H   0  0  0  0  0  0
  -23.7220  -37.6469   23.6680 H   0  0  0  0  0  0
  -26.1138  -31.5419   20.6142 H   0  0  0  0  0  0
  -26.8464  -30.8205   22.0164 H   0  0  0  0  0  0
  -28.1155  -28.9449   21.1944 H   0  0  0  0  0  0
  -25.9205  -25.9322   18.9871 H   0  0  0  0  0  0
  -23.9601  -27.3298   18.9972 H   0  0  0  0  0  0
  -23.7584  -30.6032   19.4061 H   0  0  0  0  0  0
  -22.7560  -29.2575   19.8562 H   0  0  0  0  0  0
  -25.1297  -36.1928   25.0815 H   0  0  0  0  0  0
  -20.9982  -28.3272   24.1400 H   0  0  0  0  0  0
  -20.5669  -26.2309   23.3627 H   0  0  0  0  0  0
  -21.6642  -26.7435   22.1211 H   0  0  0  0  0  0
  -19.6909  -25.6289   21.1255 H   0  0  0  0  0  0
  -19.6692  -27.3192   20.6751 H   0  0  0  0  0  0
  -17.4206  -26.6702   21.4008 H   0  0  0  0  0  0
  -18.0302  -26.0064   22.9004 H   0  0  0  0  0  0
  -19.7932  -30.7284   24.2259 H   0  0  0  0  0  0
  -17.5004  -31.6263   24.5163 H   0  0  0  0  0  0
  -15.5349  -30.2985   23.7644 H   0  0  0  0  0  0
  -15.8672  -28.0809   22.7089 H   0  0  0  0  0  0
  -24.5907  -30.7092   25.7796 H   0  0  0  0  0  0
  -24.8940  -32.2908   26.4895 H   0  0  0  0  0  0
  -25.8052  -30.8909   27.0244 H   0  0  0  0  0  0
  -26.2913  -29.6741   24.1248 H   0  0  0  0  0  0
  -27.3977  -29.7243   25.4774 H   0  0  0  0  0  0
  -27.8825  -30.4226   23.9505 H   0  0  0  0  0  0
  -27.2670  -33.3622   26.2100 H   0  0  0  0  0  0
  -28.3878  -32.6899   25.0345 H   0  0  0  0  0  0
  -28.0744  -31.8453   26.5431 H   0  0  0  0  0  0
  -28.2584  -38.0115   24.7537 H   0  0  0  0  0  0
  -28.1110  -36.2648   24.6236 H   0  0  0  0  0  0
  -27.2317  -37.1383   25.8861 H   0  0  0  0  0  0
  -20.9390  -29.8772   21.6879 H   0  0  0  0  0  0
  -26.0166  -38.2849   24.1447 H   0  0  0  0  0  0
  -28.5681  -17.0388   18.7053 H   0  0  0  0  0  0
  -31.6601  -23.2763   22.6641 H   0  0  0  0  0  0
  -31.8074  -23.1074   20.9388 H   0  0  0  0  0  0
  -30.4140  -25.0850   21.5245 H   0  0  0  0  0  0
  -29.3165  -24.0781   22.4382 H   0  0  0  0  0  0
  -29.9439  -21.4924   22.7602 H   0  0  0  0  0  0
  -31.4086  -20.9358   21.9835 H   0  0  0  0  0  0
  -28.2508  -22.0106   19.3743 H   0  0  0  0  0  0
  -27.9102  -22.1578   21.0632 H   0  0  0  0  0  0
  -27.2418  -24.7107   20.7982 H   0  0  0  0  0  0
  -27.6190  -24.7126   19.0990 H   0  0  0  0  0  0
  -29.8605  -20.7994   17.6258 H   0  0  0  0  0  0
  -28.4472  -20.9796   16.6599 H   0  0  0  0  0  0
  -28.9552  -15.4224   21.3068 H   0  0  0  0  0  0
  -26.5313  -18.7699   18.7188 H   0  0  0  0  0  0
  -26.4471  -19.7880   17.3340 H   0  0  0  0  0  0
  1 25  1  0  0  0
  1 30  2  0  0  0
  1 84  1  0  0  0
  2  3  1  0  0  0
  2 25  1  0  0  0
  2 88  1  0  0  0
  2 89  1  0  0  0
  3  4  1  0  0  0
  3 90  1  0  0  0
  3 91  1  0  0  0
  4  5  1  0  0  0
  4 92  1  0  0  0
  4 93  1  0  0  0
  5  6  1  0  0  0
  5 26  1  0  0  0
  5 94  1  0  0  0
  6 25  1  0  0  0
  6 95  1  0  0  0
  6 96  1  0  0  0
  7  8  2  0  0  0
  7 26  1  0  0  0
  7 29  1  0  0  0
  8  9  1  0  0  0
  8 22  1  0  0  0
  9 10  1  0  0  0
  9 27  2  0  0  0
 10 11  2  0  0  0
 10 15  1  0  0  0
 11 12  1  0  0  0
 11 97  1  0  0  0
 12 13  2  0  0  0
 12 98  1  0  0  0
 13 14  1  0  0  0
 13 31  1  0  0  0
 14 15  2  0  0  0
 14 99  1  0  0  0
 15100  1  0  0  0
 16 17  2  0  0  0
 16 21  1  0  0  0
 16 31  1  0  0  0
 17 18  1  0  0  0
 17101  1  0  0  0
 18 19  2  0  0  0
 18102  1  0  0  0
 19 20  1  0  0  0
 19 24  1  0  0  0
 20 21  2  0  0  0
 20103  1  0  0  0
 21 23  1  0  0  0
 22 28  1  0  0  0
 22 32  2  0  0  0
 26 27  1  0  0  0
 28104  1  0  0  0
 28105  1  0  0  0
 29106  1  0  0  0
 29107  1  0  0  0
 33 34  1  0  0  0
 33 66  1  0  0  0
 33 70  2  0  0  0
 34 36  1  0  0  0
 34 59  1  0  0  0
 34108  1  0  0  0
 35 44  2  0  0  0
 35 45  1  0  0  0
 35 68  1  0  0  0
 36 56  1  0  0  0
 36109  1  0  0  0
 37 39  1  0  0  0
 37 47  1  0  0  0
 37 66  1  0  0  0
 37110  1  0  0  0
 38 43  2  0  0  0
 38 46  1  0  0  0
 38 47  1  0  0  0
 39 64  1  0  0  0
 39 67  2  0  0  0
 40 52  1  0  0  0
 40 53  2  0  0  0
 40 58  1  0  0  0
 41111  1  0  0  0
 41112  1  0  0  0
 41113  1  0  0  0
 41 48  1  0  0  0
 42 43  1  0  0  0
 42 66  1  0  0  0
 42114  1  0  0  0
 42115  1  0  0  0
 43 44  1  0  0  0
 44116  1  0  0  0
 45 46  2  0  0  0
 45117  1  0  0  0
 46118  1  0  0  0
 47119  1  0  0  0
 47120  1  0  0  0
 48 56  1  0  0  0
 48 65  1  0  0  0
 48121  1  0  0  0
 49 50  1  0  0  0
 49 53  1  0  0  0
 49 64  1  0  0  0
 49122  1  0  0  0
 50 51  1  0  0  0
 50123  1  0  0  0
 50124  1  0  0  0
 51 52  1  0  0  0
 51125  1  0  0  0
 51126  1  0  0  0
 52127  1  0  0  0
 52128  1  0  0  0
 53 54  1  0  0  0
 54 55  2  0  0  0
 54129  1  0  0  0
 55 57  1  0  0  0
 55130  1  0  0  0
 56 69  2  0  0  0
 57 58  2  0  0  0
 57131  1  0  0  0
 58132  1  0  0  0
 59 60  1  0  0  0
 59 61  1  0  0  0
 59 62  1  0  0  0
 60133  1  0  0  0
 60134  1  0  0  0
 60135  1  0  0  0
 61136  1  0  0  0
 61137  1  0  0  0
 61138  1  0  0  0
 62139  1  0  0  0
 62140  1  0  0  0
 62141  1  0  0  0
 63 65  1  0  0  0
 63142  1  0  0  0
 63143  1  0  0  0
 63144  1  0  0  0
 64145  1  0  0  0
 65146  1  0  0  0
 68 81  1  0  0  0
 71 72  1  0  0  0
 71 74  2  0  0  0
 71147  1  0  0  0
 72 73  2  0  0  0
 72 75  1  0  0  0
 73 82  1  0  0  0
 73 87  1  0  0  0
 74 84  1  0  0  0
 74 87  1  0  0  0
 75 83  1  0  0  0
 75 85  2  0  0  0
 76 77  1  0  0  0
 76 78  1  0  0  0
 76148  1  0  0  0
 76149  1  0  0  0
 77 80  1  0  0  0
 77150  1  0  0  0
 77151  1  0  0  0
 78 82  1  0  0  0
 78152  1  0  0  0
 78153  1  0  0  0
 79 80  1  0  0  0
 79 82  1  0  0  0
 79154  1  0  0  0
 79155  1  0  0  0
 80 81  1  0  0  0
 80 86  1  0  0  0
 81156  1  0  0  0
 81157  1  0  0  0
 83158  1  0  0  0
 83159  1  0  0  0
 84160  1  0  0  0
 85161  1  0  0  0
 85162  1  0  0  0
M  CHG  1  85   1
M  ISO  4   1 100  68 101  81 101  84 100
M  END
> <chiral flag>
0

> <version>
0

> <s_m_source_file>
/data/baiqing/PycharmProjects/Reinvent-master-3.2/result/LINK_invent/BTK/process_docking_weight1_custom_product_contain_oxygen_bond_distance_aromatic_linkinvent_7_9_3/rearranged_h_0154.sdf

> <i_m_source_file_index>
58

> <r_mmod_Potential_Energy-OPLS-2005>
34.8302574157715

> <r_mmod_Stretch_Energy-OPLS-2005>
106.792114257812

> <r_mmod_Bend_Energy-OPLS-2005>
162.656158447266

> <r_mmod_Torsional_Energy-OPLS-2005>
282.714752197266

> <r_mmod_Improper_Torsional_Energy-OPLS-2005>
7.35574436187744

> <r_mmod_Van_der_Waal_Energy-OPLS-2005>
124.789398193359

> <r_mmod_Electrostatic_Energy-OPLS-2005>
-201.980560302734

> <r_mmod_Solvation_Energy-OPLS-2005>
-516.084411621094

> <b_mmod_Minimization_Converged-OPLS-2005>
0

> <r_mmod_RMS_Derivative-OPLS-2005>
2.01973533630371

$$$$
58
                    3D
 Structure written by MMmdl.
164173  0  0  1  0            999 V2000
  -30.6510  -14.5617   20.5319 C   0  0  0  0  0  0
  -30.4388  -12.3506   19.4364 C   0  0  0  0  0  0
  -29.5046  -12.5083   18.2162 C   0  0  0  0  0  0
  -28.0258  -12.3574   18.6264 C   0  0  0  0  0  0
  -27.6602  -13.2100   19.8719 C   0  0  2  0  0  0
  -28.7045  -13.0139   20.9954 C   0  0  0  0  0  0
  -25.2579  -13.8167   20.5717 C   0  0  0  0  0  0
  -24.1834  -13.0451   20.9199 C   0  0  0  0  0  0
  -24.6379  -11.6907   20.8722 C   0  0  0  0  0  0
  -23.9044  -10.4295   21.0392 C   0  0  0  0  0  0
  -24.3600   -9.4214   21.9169 C   0  0  0  0  0  0
  -23.6283   -8.2249   22.0735 C   0  0  0  0  0  0
  -22.4264   -8.0274   21.3532 C   0  0  0  0  0  0
  -21.9896   -9.0242   20.4631 C   0  0  0  0  0  0
  -22.7215  -10.2126   20.3044 C   0  0  0  0  0  0
  -21.6856   -6.0729   22.5278 C   0  0  0  0  0  0
  -21.4005   -6.5626   23.8208 C   0  0  0  0  0  0
  -21.3660   -5.6780   24.9175 C   0  0  0  0  0  0
  -21.6056   -4.3047   24.7223 C   0  0  0  0  0  0
  -21.8817   -3.8139   23.4342 C   0  0  0  0  0  0
  -21.9194   -4.6961   22.3400 C   0  0  0  0  0  0
  -22.7844  -13.5235   21.1863 C   0  0  0  0  0  0
  -22.1660   -4.2150   21.0973 F   0  0  0  0  0  0
  -21.5640   -3.4533   25.7739 F   0  0  0  0  0  0
  -30.0314  -13.3456   20.4457 N   0  0  0  0  0  0
  -26.3012  -12.9340   20.3360 N   0  0  0  0  0  0
  -25.9308  -11.6494   20.5748 N   0  0  0  0  0  0
  -22.0486  -12.8231   22.0416 N   0  0  0  0  0  0
  -25.4302  -15.1898   20.4161 N   0  0  0  0  0  0
  -31.7822  -14.7530   20.0788 O   0  0  0  0  0  0
  -21.6636   -6.8872   21.4234 O   0  0  0  0  0  0
  -22.3523  -14.5558   20.6730 O   0  0  0  0  0  0
  -24.6265  -31.8623   23.2029 C   0  0  0  0  0  0
  -25.9136  -32.4791   23.8324 C   0  0  1  0  0  0
  -27.2416  -27.3701   20.0909 C   0  0  0  0  0  0
  -25.5964  -33.8581   24.2257 N   0  0  0  0  0  0
  -23.4143  -30.4886   21.5479 C   0  0  2  0  0  0
  -24.8574  -28.9414   20.1158 C   0  0  0  0  0  0
  -22.7459  -29.4677   22.4979 C   0  0  0  0  0  0
  -18.0278  -28.1421   22.8505 C   0  0  0  0  0  0
  -24.1459  -36.7269   23.2599 C   0  0  0  0  0  0
  -25.9506  -30.8081   21.3622 C   0  0  0  0  0  0
  -26.0265  -29.4390   20.7048 C   0  0  0  0  0  0
  -27.2191  -28.6642   20.6851 C   0  0  0  0  0  0
  -26.0366  -26.8982   19.5159 C   0  0  0  0  0  0
  -24.8599  -27.6697   19.5210 C   0  0  0  0  0  0
  -23.6246  -29.8197   20.1648 C   0  0  0  0  0  0
  -25.4060  -36.3074   24.0337 C   0  0  1  0  0  0
  -20.5876  -28.3716   23.1304 C   0  0  2  0  0  0
  -20.6792  -26.9449   22.5422 C   0  0  0  0  0  0
  -19.5739  -26.6405   21.5258 C   0  0  0  0  0  0
  -18.1915  -26.7962   22.1659 C   0  0  0  0  0  0
  -19.1534  -28.8884   23.2898 C   0  0  0  0  0  0
  -18.9471  -30.1505   23.8888 C   0  0  0  0  0  0
  -17.6472  -30.6630   24.0579 C   0  0  0  0  0  0
  -25.9069  -34.9471   23.5099 C   0  0  0  0  0  0
  -16.5358  -29.9126   23.6360 C   0  0  0  0  0  0
  -16.7269  -28.6558   23.0343 C   0  0  0  0  0  0
  -26.4486  -31.6587   25.0698 C   0  0  0  0  0  0
  -25.3731  -31.3773   26.1458 C   0  0  0  0  0  0
  -27.0279  -30.2992   24.6147 C   0  0  0  0  0  0
  -27.6063  -32.4303   25.7454 C   0  0  0  0  0  0
  -27.5644  -37.1647   24.8362 C   0  0  0  0  0  0
  -21.4178  -29.3067   22.3702 N   0  0  0  0  0  0
  -26.4162  -37.3864   23.9611 N   0  0  0  0  0  0
  -24.6830  -31.0682   22.0960 N   0  0  0  0  0  0
  -23.4199  -28.8236   23.3058 O   0  0  0  0  0  0
  -28.3960  -26.5778   20.1159 O   0  0  0  0  0  0
  -26.5654  -34.8974   22.4674 O   0  0  0  0  0  0
  -23.5455  -32.1396   23.7413 O   0  0  0  0  0  0
  -30.6263  -19.1510   19.8929 C   0  0  0  0  0  0
  -30.7912  -17.7471   20.0756 C   0  0  0  0  0  0
  -28.8031  -17.7200   21.4225 C   0  0  0  0  0  0
  -28.6224  -19.1183   21.2347 C   0  0  0  0  0  0
  -29.5383  -19.8865   20.4522 C   0  0  0  0  0  0
  -29.8679  -16.9942   20.8424 C   0  0  0  0  0  0
  -28.4826  -23.5826   20.8326 C   0  0  0  0  0  0
  -29.3270  -23.1975   18.5382 C   0  0  0  0  0  0
  -29.2225  -22.2737   21.2760 C   0  0  0  0  0  0
  -30.0161  -21.8878   19.0183 C   0  0  0  0  0  0
  -29.1648  -24.2972   19.6376 C   0  0  0  0  0  0
  -27.3761  -19.7240   21.8618 C   0  0  0  0  0  0
  -29.0301  -26.0545   17.9421 C   0  0  0  0  0  0
  -29.3519  -21.2900   20.1827 N   0  0  0  0  0  0
  -29.8888  -15.5588   21.0551 N   0  0  0  0  0  0
  -28.3962  -25.4762   19.1248 N   0  0  0  0  0  0
  -31.4801  -12.4718   19.1313 H   0  0  0  0  0  0
  -30.3685  -11.3433   19.8494 H   0  0  0  0  0  0
  -29.7573  -11.7717   17.4522 H   0  0  0  0  0  0
  -29.6589  -13.4876   17.7595 H   0  0  0  0  0  0
  -27.8477  -11.3015   18.8349 H   0  0  0  0  0  0
  -27.3739  -12.6122   17.7902 H   0  0  0  0  0  0
  -27.6944  -14.2552   19.5607 H   0  0  0  0  0  0
  -28.6961  -11.9797   21.3422 H   0  0  0  0  0  0
  -28.4528  -13.6141   21.8702 H   0  0  0  0  0  0
  -25.2751   -9.5720   22.4724 H   0  0  0  0  0  0
  -24.0020   -7.4647   22.7448 H   0  0  0  0  0  0
  -21.0836   -8.8747   19.8927 H   0  0  0  0  0  0
  -22.3667  -10.9659   19.6148 H   0  0  0  0  0  0
  -21.1966   -7.6126   23.9725 H   0  0  0  0  0  0
  -21.1491   -6.0496   25.9082 H   0  0  0  0  0  0
  -22.0594   -2.7601   23.2842 H   0  0  0  0  0  0
  -22.4071  -11.9898   22.4841 H   0  0  0  0  0  0
  -21.1089  -13.1240   22.2599 H   0  0  0  0  0  0
  -24.6674  -15.8469   20.5408 H   0  0  0  0  0  0
  -26.2838  -15.6341   20.1023 H   0  0  0  0  0  0
  -26.7215  -32.5466   23.1078 H   0  0  0  0  0  0
  -25.0095  -33.9667   25.0397 H   0  0  0  0  0  0
  -22.7070  -31.3088   21.4076 H   0  0  0  0  0  0
  -23.3882  -35.9420   23.2883 H   0  0  0  0  0  0
  -24.3678  -36.9287   22.2109 H   0  0  0  0  0  0
  -23.6923  -37.6226   23.6853 H   0  0  0  0  0  0
  -26.0704  -31.5726   20.5932 H   0  0  0  0  0  0
  -26.8365  -30.8574   21.9843 H   0  0  0  0  0  0
  -28.1202  -29.0530   21.1390 H   0  0  0  0  0  0
  -25.9808  -25.9176   19.0672 H   0  0  0  0  0  0
  -23.9599  -27.2619   19.0811 H   0  0  0  0  0  0
  -23.7430  -30.5974   19.4100 H   0  0  0  0  0  0
  -22.7423  -29.2525   19.8627 H   0  0  0  0  0  0
  -25.1156  -36.1825   25.0797 H   0  0  0  0  0  0
  -20.9946  -28.3305   24.1431 H   0  0  0  0  0  0
  -20.5783  -26.2318   23.3621 H   0  0  0  0  0  0
  -21.6648  -26.7551   22.1138 H   0  0  0  0  0  0
  -19.6893  -25.6317   21.1280 H   0  0  0  0  0  0
  -19.6654  -27.3236   20.6803 H   0  0  0  0  0  0
  -17.4188  -26.6731   21.4061 H   0  0  0  0  0  0
  -18.0290  -26.0108   22.9049 H   0  0  0  0  0  0
  -19.7954  -30.7351   24.2196 H   0  0  0  0  0  0
  -17.5033  -31.6313   24.5183 H   0  0  0  0  0  0
  -15.5357  -30.3025   23.7722 H   0  0  0  0  0  0
  -15.8667  -28.0919   22.6991 H   0  0  0  0  0  0
  -24.5812  -30.7219   25.7812 H   0  0  0  0  0  0
  -24.9044  -32.2971   26.4975 H   0  0  0  0  0  0
  -25.8049  -30.8858   27.0182 H   0  0  0  0  0  0
  -26.2823  -29.6764   24.1188 H   0  0  0  0  0  0
  -27.3961  -29.7242   25.4652 H   0  0  0  0  0  0
  -27.8707  -30.4245   23.9345 H   0  0  0  0  0  0
  -27.2695  -33.3632   26.1988 H   0  0  0  0  0  0
  -28.3891  -32.6805   25.0279 H   0  0  0  0  0  0
  -28.0684  -31.8430   26.5398 H   0  0  0  0  0  0
  -28.2196  -38.0371   24.8232 H   0  0  0  0  0  0
  -28.1581  -36.3078   24.5138 H   0  0  0  0  0  0
  -27.2563  -37.0000   25.8705 H   0  0  0  0  0  0
  -20.9371  -29.8744   21.6866 H   0  0  0  0  0  0
  -26.0005  -38.2792   24.2132 H   0  0  0  0  0  0
  -31.3683  -19.6537   19.2908 H   0  0  0  0  0  0
  -31.6332  -17.2610   19.6037 H   0  0  0  0  0  0
  -28.0748  -17.1824   22.0121 H   0  0  0  0  0  0
  -28.4128  -24.2684   21.6780 H   0  0  0  0  0  0
  -27.4548  -23.3381   20.5611 H   0  0  0  0  0  0
  -28.3470  -22.9476   18.1281 H   0  0  0  0  0  0
  -29.9125  -23.5772   17.7010 H   0  0  0  0  0  0
  -28.7244  -21.8561   22.1473 H   0  0  0  0  0  0
  -30.2267  -22.5348   21.6153 H   0  0  0  0  0  0
  -31.0541  -22.1044   19.2754 H   0  0  0  0  0  0
  -30.0358  -21.1765   18.1910 H   0  0  0  0  0  0
  -30.1533  -24.6371   19.9487 H   0  0  0  0  0  0
  -26.5604  -19.0002   21.8668 H   0  0  0  0  0  0
  -27.0224  -20.5978   21.3163 H   0  0  0  0  0  0
  -27.5764  -20.0080   22.8954 H   0  0  0  0  0  0
  -30.1091  -26.1448   18.0701 H   0  0  0  0  0  0
  -28.6383  -27.0498   17.7272 H   0  0  0  0  0  0
  -28.8353  -25.4380   17.0636 H   0  0  0  0  0  0
  -29.0682  -15.1982   21.5172 H   0  0  0  0  0  0
  1 25  1  0  0  0
  1 30  2  0  0  0
  1 85  1  0  0  0
  2  3  1  0  0  0
  2 25  1  0  0  0
  2 87  1  0  0  0
  2 88  1  0  0  0
  3  4  1  0  0  0
  3 89  1  0  0  0
  3 90  1  0  0  0
  4  5  1  0  0  0
  4 91  1  0  0  0
  4 92  1  0  0  0
  5  6  1  0  0  0
  5 26  1  0  0  0
  5 93  1  0  0  0
  6 25  1  0  0  0
  6 94  1  0  0  0
  6 95  1  0  0  0
  7  8  2  0  0  0
  7 26  1  0  0  0
  7 29  1  0  0  0
  8  9  1  0  0  0
  8 22  1  0  0  0
  9 10  1  0  0  0
  9 27  2  0  0  0
 10 11  2  0  0  0
 10 15  1  0  0  0
 11 12  1  0  0  0
 11 96  1  0  0  0
 12 13  2  0  0  0
 12 97  1  0  0  0
 13 14  1  0  0  0
 13 31  1  0  0  0
 14 15  2  0  0  0
 14 98  1  0  0  0
 15 99  1  0  0  0
 16 17  2  0  0  0
 16 21  1  0  0  0
 16 31  1  0  0  0
 17 18  1  0  0  0
 17100  1  0  0  0
 18 19  2  0  0  0
 18101  1  0  0  0
 19 20  1  0  0  0
 19 24  1  0  0  0
 20 21  2  0  0  0
 20102  1  0  0  0
 21 23  1  0  0  0
 22 28  1  0  0  0
 22 32  2  0  0  0
 26 27  1  0  0  0
 28103  1  0  0  0
 28104  1  0  0  0
 29105  1  0  0  0
 29106  1  0  0  0
 33 34  1  0  0  0
 33 66  1  0  0  0
 33 70  2  0  0  0
 34 36  1  0  0  0
 34 59  1  0  0  0
 34107  1  0  0  0
 35 44  2  0  0  0
 35 45  1  0  0  0
 35 68  1  0  0  0
 36 56  1  0  0  0
 36108  1  0  0  0
 37 39  1  0  0  0
 37 47  1  0  0  0
 37 66  1  0  0  0
 37109  1  0  0  0
 38 43  2  0  0  0
 38 46  1  0  0  0
 38 47  1  0  0  0
 39 64  1  0  0  0
 39 67  2  0  0  0
 40 52  1  0  0  0
 40 53  2  0  0  0
 40 58  1  0  0  0
 41110  1  0  0  0
 41111  1  0  0  0
 41112  1  0  0  0
 41 48  1  0  0  0
 42 43  1  0  0  0
 42 66  1  0  0  0
 42113  1  0  0  0
 42114  1  0  0  0
 43 44  1  0  0  0
 44115  1  0  0  0
 45 46  2  0  0  0
 45116  1  0  0  0
 46117  1  0  0  0
 47118  1  0  0  0
 47119  1  0  0  0
 48 56  1  0  0  0
 48 65  1  0  0  0
 48120  1  0  0  0
 49 50  1  0  0  0
 49 53  1  0  0  0
 49 64  1  0  0  0
 49121  1  0  0  0
 50 51  1  0  0  0
 50122  1  0  0  0
 50123  1  0  0  0
 51 52  1  0  0  0
 51124  1  0  0  0
 51125  1  0  0  0
 52126  1  0  0  0
 52127  1  0  0  0
 53 54  1  0  0  0
 54 55  2  0  0  0
 54128  1  0  0  0
 55 57  1  0  0  0
 55129  1  0  0  0
 56 69  2  0  0  0
 57 58  2  0  0  0
 57130  1  0  0  0
 58131  1  0  0  0
 59 60  1  0  0  0
 59 61  1  0  0  0
 59 62  1  0  0  0
 60132  1  0  0  0
 60133  1  0  0  0
 60134  1  0  0  0
 61135  1  0  0  0
 61136  1  0  0  0
 61137  1  0  0  0
 62138  1  0  0  0
 62139  1  0  0  0
 62140  1  0  0  0
 63 65  1  0  0  0
 63141  1  0  0  0
 63142  1  0  0  0
 63143  1  0  0  0
 64144  1  0  0  0
 65145  1  0  0  0
 68 86  1  0  0  0
 71 72  2  0  0  0
 71 75  1  0  0  0
 71146  1  0  0  0
 72 76  1  0  0  0
 72147  1  0  0  0
 73 74  1  0  0  0
 73 76  2  0  0  0
 73148  1  0  0  0
 74 75  2  0  0  0
 74 82  1  0  0  0
 75 84  1  0  0  0
 76 85  1  0  0  0
 77 79  1  0  0  0
 77 81  1  0  0  0
 77149  1  0  0  0
 77150  1  0  0  0
 78 80  1  0  0  0
 78 81  1  0  0  0
 78151  1  0  0  0
 78152  1  0  0  0
 79 84  1  0  0  0
 79153  1  0  0  0
 79154  1  0  0  0
 80 84  1  0  0  0
 80155  1  0  0  0
 80156  1  0  0  0
 81 86  1  0  0  0
 81157  1  0  0  0
 82158  1  0  0  0
 82159  1  0  0  0
 82160  1  0  0  0
 83 86  1  0  0  0
 83161  1  0  0  0
 83162  1  0  0  0
 83163  1  0  0  0
 85164  1  0  0  0
M  ISO  4   1 100  68 101  85 100  86 101
M  END
> <chiral flag>
0

> <version>
0

> <s_m_source_file>
/data/baiqing/PycharmProjects/Reinvent-master-3.2/result/LINK_invent/BTK/process_docking_weight1_custom_product_contain_oxygen_bond_distance_aromatic_linkinvent_7_9_3/rearranged_h_0154.sdf

> <i_m_source_file_index>
59

> <r_mmod_Potential_Energy-OPLS-2005>
0.520529627799988

> <r_mmod_Stretch_Energy-OPLS-2005>
64.4402313232422

> <r_mmod_Bend_Energy-OPLS-2005>
141.691543579102

> <r_mmod_Torsional_Energy-OPLS-2005>
244.931655883789

> <r_mmod_Improper_Torsional_Energy-OPLS-2005>
6.3957200050354

> <r_mmod_Van_der_Waal_Energy-OPLS-2005>
165.701782226562

> <r_mmod_Electrostatic_Energy-OPLS-2005>
-432.865234375

> <r_mmod_Solvation_Energy-OPLS-2005>
-217.289031982422

> <b_mmod_Minimization_Converged-OPLS-2005>
0

> <r_mmod_RMS_Derivative-OPLS-2005>
2.4473557472229

$$$$
59
                    3D
 Structure written by MMmdl.
155164  0  0  1  0            999 V2000
  -30.6468  -14.6984   20.4633 C   0  0  0  0  0  0
  -30.4210  -12.4262   19.4675 C   0  0  0  0  0  0
  -29.5030  -12.4987   18.2295 C   0  0  0  0  0  0
  -28.0288  -12.3343   18.6449 C   0  0  0  0  0  0
  -27.6403  -13.2337   19.8498 C   0  0  2  0  0  0
  -28.6850  -13.1670   20.9838 C   0  0  0  0  0  0
  -25.2511  -13.8212   20.5713 C   0  0  0  0  0  0
  -24.1798  -13.0451   20.9203 C   0  0  0  0  0  0
  -24.6392  -11.6928   20.8746 C   0  0  0  0  0  0
  -23.9072  -10.4300   21.0406 C   0  0  0  0  0  0
  -24.3623   -9.4213   21.9182 C   0  0  0  0  0  0
  -23.6298   -8.2248   22.0753 C   0  0  0  0  0  0
  -22.4279   -8.0285   21.3544 C   0  0  0  0  0  0
  -21.9915   -9.0259   20.4646 C   0  0  0  0  0  0
  -22.7244  -10.2139   20.3056 C   0  0  0  0  0  0
  -21.6855   -6.0738   22.5280 C   0  0  0  0  0  0
  -21.4017   -6.5641   23.8213 C   0  0  0  0  0  0
  -21.3660   -5.6794   24.9175 C   0  0  0  0  0  0
  -21.6044   -4.3057   24.7226 C   0  0  0  0  0  0
  -21.8819   -3.8149   23.4346 C   0  0  0  0  0  0
  -21.9194   -4.6965   22.3403 C   0  0  0  0  0  0
  -22.7819  -13.5227   21.1864 C   0  0  0  0  0  0
  -22.1661   -4.2151   21.0980 F   0  0  0  0  0  0
  -21.5628   -3.4540   25.7738 F   0  0  0  0  0  0
  -29.9867  -13.4949   20.3941 N   0  0  0  0  0  0
  -26.2934  -12.9421   20.3296 N   0  0  0  0  0  0
  -25.9323  -11.6560   20.5760 N   0  0  0  0  0  0
  -22.0472  -12.8212   22.0422 N   0  0  0  0  0  0
  -25.4228  -15.1936   20.4167 N   0  0  0  0  0  0
  -31.8439  -14.7518   20.1617 O   0  0  0  0  0  0
  -21.6643   -6.8882   21.4241 O   0  0  0  0  0  0
  -22.3498  -14.5531   20.6712 O   0  0  0  0  0  0
  -24.6293  -31.8568   23.1995 C   0  0  0  0  0  0
  -25.9128  -32.4760   23.8334 C   0  0  1  0  0  0
  -27.2207  -27.2827   20.1114 C   0  0  0  0  0  0
  -25.5933  -33.8563   24.2260 N   0  0  0  0  0  0
  -23.4238  -30.4804   21.5431 C   0  0  2  0  0  0
  -24.8684  -28.9303   20.1084 C   0  0  0  0  0  0
  -22.7488  -29.4611   22.4921 C   0  0  0  0  0  0
  -18.0289  -28.1387   22.8486 C   0  0  0  0  0  0
  -24.1490  -36.7285   23.2638 C   0  0  0  0  0  0
  -25.9681  -30.7752   21.3758 C   0  0  0  0  0  0
  -26.0387  -29.4002   20.7156 C   0  0  0  0  0  0
  -27.2134  -28.5863   20.7100 C   0  0  0  0  0  0
  -26.0176  -26.8662   19.4964 C   0  0  0  0  0  0
  -24.8615  -27.6702   19.4922 C   0  0  0  0  0  0
  -23.6392  -29.8156   20.1581 C   0  0  0  0  0  0
  -25.4116  -36.3073   24.0326 C   0  0  1  0  0  0
  -20.5891  -28.3695   23.1277 C   0  0  2  0  0  0
  -20.6777  -26.9414   22.5413 C   0  0  0  0  0  0
  -19.5754  -26.6385   21.5214 C   0  0  0  0  0  0
  -18.1933  -26.7930   22.1623 C   0  0  0  0  0  0
  -19.1542  -28.8857   23.2876 C   0  0  0  0  0  0
  -18.9463  -30.1458   23.8895 C   0  0  0  0  0  0
  -17.6463  -30.6588   24.0563 C   0  0  0  0  0  0
  -25.9058  -34.9444   23.5095 C   0  0  0  0  0  0
  -16.5354  -29.9086   23.6331 C   0  0  0  0  0  0
  -16.7276  -28.6503   23.0352 C   0  0  0  0  0  0
  -26.4499  -31.6583   25.0720 C   0  0  0  0  0  0
  -25.3724  -31.3732   26.1442 C   0  0  0  0  0  0
  -27.0346  -30.3000   24.6201 C   0  0  0  0  0  0
  -27.6055  -32.4322   25.7492 C   0  0  0  0  0  0
  -27.5584  -37.1792   24.8459 C   0  0  0  0  0  0
  -21.4198  -29.3043   22.3665 N   0  0  0  0  0  0
  -26.4288  -37.3775   23.9415 N   0  0  0  0  0  0
  -24.6929  -31.0551   22.0959 N   0  0  0  0  0  0
  -23.4199  -28.8154   23.3013 O   0  0  0  0  0  0
  -28.3422  -26.4307   20.1905 O   0  0  0  0  0  0
  -26.5630  -34.8918   22.4665 O   0  0  0  0  0  0
  -23.5449  -32.1384   23.7305 O   0  0  0  0  0  0
  -29.8872  -19.1728   18.3549 C   0  0  0  0  0  0
  -29.6355  -20.5657   18.4177 C   0  0  0  0  0  0
  -28.9737  -20.3558   20.7263 C   0  0  0  0  0  0
  -29.6873  -18.3260   19.4668 C   0  0  0  0  0  0
  -29.2325  -18.9276   20.6581 C   0  0  0  0  0  0
  -29.1684  -21.2157   19.5878 C   0  0  0  0  0  0
  -28.5778  -23.7560   20.1849 C   0  0  0  0  0  0
  -29.0003  -17.9574   21.8182 C   0  0  0  0  0  0
  -29.9420  -16.7892   19.3290 C   0  0  0  0  0  0
  -29.8769  -16.6485   21.7914 C   0  0  0  0  0  0
  -28.4655  -25.1580   19.4180 C   0  0  0  0  0  0
  -29.9071  -15.8766   20.5225 N   0  0  0  0  0  0
  -28.9350  -22.6668   19.4216 N   0  0  0  0  0  0
  -28.3529  -23.6771   21.3956 O   0  0  0  0  0  0
  -31.4648  -12.5296   19.1662 H   0  0  0  0  0  0
  -30.3450  -11.4504   19.9500 H   0  0  0  0  0  0
  -29.7768  -11.7264   17.5093 H   0  0  0  0  0  0
  -29.6393  -13.4549   17.7216 H   0  0  0  0  0  0
  -27.8783  -11.2857   18.9041 H   0  0  0  0  0  0
  -27.3723  -12.5336   17.7972 H   0  0  0  0  0  0
  -27.6360  -14.2566   19.4725 H   0  0  0  0  0  0
  -28.7086  -12.1755   21.4384 H   0  0  0  0  0  0
  -28.4305  -13.8682   21.7801 H   0  0  0  0  0  0
  -25.2769   -9.5690   22.4756 H   0  0  0  0  0  0
  -24.0009   -7.4640   22.7472 H   0  0  0  0  0  0
  -21.0847   -8.8778   19.8952 H   0  0  0  0  0  0
  -22.3700  -10.9678   19.6167 H   0  0  0  0  0  0
  -21.2010   -7.6150   23.9716 H   0  0  0  0  0  0
  -21.1482   -6.0525   25.9078 H   0  0  0  0  0  0
  -22.0597   -2.7611   23.2847 H   0  0  0  0  0  0
  -22.4096  -11.9877   22.4809 H   0  0  0  0  0  0
  -21.1089  -13.1230   22.2633 H   0  0  0  0  0  0
  -24.6620  -15.8530   20.5391 H   0  0  0  0  0  0
  -26.2868  -15.6346   20.1274 H   0  0  0  0  0  0
  -26.7192  -32.5413   23.1073 H   0  0  0  0  0  0
  -25.0074  -33.9702   25.0401 H   0  0  0  0  0  0
  -22.7193  -31.3023   21.3994 H   0  0  0  0  0  0
  -23.3759  -35.9608   23.3284 H   0  0  0  0  0  0
  -24.3583  -36.8925   22.2056 H   0  0  0  0  0  0
  -23.7233  -37.6476   23.6673 H   0  0  0  0  0  0
  -26.1060  -31.5380   20.6082 H   0  0  0  0  0  0
  -26.8462  -30.8215   22.0083 H   0  0  0  0  0  0
  -28.1105  -28.9417   21.1975 H   0  0  0  0  0  0
  -25.9150  -25.8923   19.0464 H   0  0  0  0  0  0
  -23.9590  -27.2987   19.0263 H   0  0  0  0  0  0
  -23.7621  -30.5926   19.4027 H   0  0  0  0  0  0
  -22.7572  -29.2490   19.8542 H   0  0  0  0  0  0
  -25.1294  -36.1917   25.0817 H   0  0  0  0  0  0
  -20.9983  -28.3274   24.1398 H   0  0  0  0  0  0
  -20.5678  -26.2305   23.3615 H   0  0  0  0  0  0
  -21.6645  -26.7441   22.1209 H   0  0  0  0  0  0
  -19.6917  -25.6295   21.1245 H   0  0  0  0  0  0
  -19.6693  -27.3192   20.6741 H   0  0  0  0  0  0
  -17.4204  -26.6680   21.4023 H   0  0  0  0  0  0
  -18.0328  -26.0071   22.9018 H   0  0  0  0  0  0
  -19.7939  -30.7274   24.2265 H   0  0  0  0  0  0
  -17.5017  -31.6267   24.5167 H   0  0  0  0  0  0
  -15.5354  -30.2987   23.7657 H   0  0  0  0  0  0
  -15.8675  -28.0821   22.7070 H   0  0  0  0  0  0
  -24.5900  -30.7080   25.7771 H   0  0  0  0  0  0
  -24.8915  -32.2902   26.4857 H   0  0  0  0  0  0
  -25.8042  -30.8917   27.0225 H   0  0  0  0  0  0
  -26.2927  -29.6745   24.1222 H   0  0  0  0  0  0
  -27.4026  -29.7265   25.4719 H   0  0  0  0  0  0
  -27.8804  -30.4273   23.9441 H   0  0  0  0  0  0
  -27.2662  -33.3622   26.2066 H   0  0  0  0  0  0
  -28.3866  -32.6884   25.0322 H   0  0  0  0  0  0
  -28.0723  -31.8452   26.5411 H   0  0  0  0  0  0
  -28.2580  -38.0111   24.7540 H   0  0  0  0  0  0
  -28.1104  -36.2645   24.6239 H   0  0  0  0  0  0
  -27.2309  -37.1383   25.8862 H   0  0  0  0  0  0
  -20.9380  -29.8763   21.6870 H   0  0  0  0  0  0
  -26.0165  -38.2844   24.1439 H   0  0  0  0  0  0
  -30.2328  -18.7493   17.4218 H   0  0  0  0  0  0
  -29.8047  -21.1437   17.5195 H   0  0  0  0  0  0
  -28.6098  -20.7835   21.6503 H   0  0  0  0  0  0
  -27.9452  -17.6802   21.8073 H   0  0  0  0  0  0
  -29.1644  -18.4850   22.7588 H   0  0  0  0  0  0
  -30.9029  -16.6876   18.8207 H   0  0  0  0  0  0
  -29.2048  -16.4060   18.6222 H   0  0  0  0  0  0
  -29.5559  -15.9908   22.6006 H   0  0  0  0  0  0
  -30.9066  -16.9256   22.0248 H   0  0  0  0  0  0
  -27.7342  -25.0615   18.6199 H   0  0  0  0  0  0
  -29.4078  -25.2635   18.8799 H   0  0  0  0  0  0
  -29.0896  -22.9635   18.4679 H   0  0  0  0  0  0
  1 25  1  0  0  0
  1 30  2  0  0  0
  1 82  1  0  0  0
  2  3  1  0  0  0
  2 25  1  0  0  0
  2 85  1  0  0  0
  2 86  1  0  0  0
  3  4  1  0  0  0
  3 87  1  0  0  0
  3 88  1  0  0  0
  4  5  1  0  0  0
  4 89  1  0  0  0
  4 90  1  0  0  0
  5  6  1  0  0  0
  5 26  1  0  0  0
  5 91  1  0  0  0
  6 25  1  0  0  0
  6 92  1  0  0  0
  6 93  1  0  0  0
  7  8  2  0  0  0
  7 26  1  0  0  0
  7 29  1  0  0  0
  8  9  1  0  0  0
  8 22  1  0  0  0
  9 10  1  0  0  0
  9 27  2  0  0  0
 10 11  2  0  0  0
 10 15  1  0  0  0
 11 12  1  0  0  0
 11 94  1  0  0  0
 12 13  2  0  0  0
 12 95  1  0  0  0
 13 14  1  0  0  0
 13 31  1  0  0  0
 14 15  2  0  0  0
 14 96  1  0  0  0
 15 97  1  0  0  0
 16 17  2  0  0  0
 16 21  1  0  0  0
 16 31  1  0  0  0
 17 18  1  0  0  0
 17 98  1  0  0  0
 18 19  2  0  0  0
 18 99  1  0  0  0
 19 20  1  0  0  0
 19 24  1  0  0  0
 20 21  2  0  0  0
 20100  1  0  0  0
 21 23  1  0  0  0
 22 28  1  0  0  0
 22 32  2  0  0  0
 26 27  1  0  0  0
 28101  1  0  0  0
 28102  1  0  0  0
 29103  1  0  0  0
 29104  1  0  0  0
 33 34  1  0  0  0
 33 66  1  0  0  0
 33 70  2  0  0  0
 34 36  1  0  0  0
 34 59  1  0  0  0
 34105  1  0  0  0
 35 44  2  0  0  0
 35 45  1  0  0  0
 35 68  1  0  0  0
 36 56  1  0  0  0
 36106  1  0  0  0
 37 39  1  0  0  0
 37 47  1  0  0  0
 37 66  1  0  0  0
 37107  1  0  0  0
 38 43  2  0  0  0
 38 46  1  0  0  0
 38 47  1  0  0  0
 39 64  1  0  0  0
 39 67  2  0  0  0
 40 52  1  0  0  0
 40 53  2  0  0  0
 40 58  1  0  0  0
 41108  1  0  0  0
 41109  1  0  0  0
 41110  1  0  0  0
 41 48  1  0  0  0
 42 43  1  0  0  0
 42 66  1  0  0  0
 42111  1  0  0  0
 42112  1  0  0  0
 43 44  1  0  0  0
 44113  1  0  0  0
 45 46  2  0  0  0
 45114  1  0  0  0
 46115  1  0  0  0
 47116  1  0  0  0
 47117  1  0  0  0
 48 56  1  0  0  0
 48 65  1  0  0  0
 48118  1  0  0  0
 49 50  1  0  0  0
 49 53  1  0  0  0
 49 64  1  0  0  0
 49119  1  0  0  0
 50 51  1  0  0  0
 50120  1  0  0  0
 50121  1  0  0  0
 51 52  1  0  0  0
 51122  1  0  0  0
 51123  1  0  0  0
 52124  1  0  0  0
 52125  1  0  0  0
 53 54  1  0  0  0
 54 55  2  0  0  0
 54126  1  0  0  0
 55 57  1  0  0  0
 55127  1  0  0  0
 56 69  2  0  0  0
 57 58  2  0  0  0
 57128  1  0  0  0
 58129  1  0  0  0
 59 60  1  0  0  0
 59 61  1  0  0  0
 59 62  1  0  0  0
 60130  1  0  0  0
 60131  1  0  0  0
 60132  1  0  0  0
 61133  1  0  0  0
 61134  1  0  0  0
 61135  1  0  0  0
 62136  1  0  0  0
 62137  1  0  0  0
 62138  1  0  0  0
 63 65  1  0  0  0
 63139  1  0  0  0
 63140  1  0  0  0
 63141  1  0  0  0
 64142  1  0  0  0
 65143  1  0  0  0
 68 81  1  0  0  0
 71 72  2  0  0  0
 71 74  1  0  0  0
 71144  1  0  0  0
 72 76  1  0  0  0
 72145  1  0  0  0
 73 75  1  0  0  0
 73 76  2  0  0  0
 73146  1  0  0  0
 74 75  2  0  0  0
 74 79  1  0  0  0
 75 78  1  0  0  0
 76 83  1  0  0  0
 77 81  1  0  0  0
 77 83  1  0  0  0
 77 84  2  0  0  0
 78 80  1  0  0  0
 78147  1  0  0  0
 78148  1  0  0  0
 79 82  1  0  0  0
 79149  1  0  0  0
 79150  1  0  0  0
 80 82  1  0  0  0
 80151  1  0  0  0
 80152  1  0  0  0
 81153  1  0  0  0
 81154  1  0  0  0
 83155  1  0  0  0
M  ISO  4   1 100  68 101  81 101  82 100
M  END
> <chiral flag>
0

> <version>
0

> <s_m_source_file>
/data/baiqing/PycharmProjects/Reinvent-master-3.2/result/LINK_invent/BTK/process_docking_weight1_custom_product_contain_oxygen_bond_distance_aromatic_linkinvent_7_9_3/rearranged_h_0154.sdf

> <i_m_source_file_index>
60

> <r_mmod_Potential_Energy-OPLS-2005>
263.008850097656

> <r_mmod_Stretch_Energy-OPLS-2005>
100.241989135742

> <r_mmod_Bend_Energy-OPLS-2005>
198.604354858398

> <r_mmod_Torsional_Energy-OPLS-2005>
296.746307373047

> <r_mmod_Improper_Torsional_Energy-OPLS-2005>
12.5064258575439

> <r_mmod_Van_der_Waal_Energy-OPLS-2005>
138.70182800293

> <r_mmod_Electrostatic_Energy-OPLS-2005>
-319.001342773438

> <r_mmod_Solvation_Energy-OPLS-2005>
-234.829406738281

> <b_mmod_Minimization_Converged-OPLS-2005>
0

> <r_mmod_RMS_Derivative-OPLS-2005>
0.158099845051765

$$$$
60
                    3D
 Structure written by MMmdl.
164173  0  0  1  0            999 V2000
  -30.7042  -14.5314   20.5717 C   0  0  0  0  0  0
  -30.4374  -12.3512   19.4271 C   0  0  0  0  0  0
  -29.4997  -12.5051   18.2101 C   0  0  0  0  0  0
  -28.0205  -12.3698   18.6274 C   0  0  0  0  0  0
  -27.6666  -13.2103   19.8847 C   0  0  2  0  0  0
  -28.7173  -12.9812   20.9934 C   0  0  0  0  0  0
  -25.2632  -13.8173   20.5740 C   0  0  0  0  0  0
  -24.1878  -13.0463   20.9230 C   0  0  0  0  0  0
  -24.6424  -11.6916   20.8758 C   0  0  0  0  0  0
  -23.9074  -10.4313   21.0417 C   0  0  0  0  0  0
  -24.3623   -9.4216   21.9191 C   0  0  0  0  0  0
  -23.6293   -8.2249   22.0751 C   0  0  0  0  0  0
  -22.4269   -8.0300   21.3548 C   0  0  0  0  0  0
  -21.9924   -9.0275   20.4638 C   0  0  0  0  0  0
  -22.7259  -10.2152   20.3053 C   0  0  0  0  0  0
  -21.6852   -6.0739   22.5270 C   0  0  0  0  0  0
  -21.4012   -6.5636   23.8207 C   0  0  0  0  0  0
  -21.3661   -5.6787   24.9168 C   0  0  0  0  0  0
  -21.6045   -4.3053   24.7221 C   0  0  0  0  0  0
  -21.8818   -3.8146   23.4343 C   0  0  0  0  0  0
  -21.9198   -4.6967   22.3401 C   0  0  0  0  0  0
  -22.7888  -13.5251   21.1872 C   0  0  0  0  0  0
  -22.1664   -4.2149   21.0969 F   0  0  0  0  0  0
  -21.5636   -3.4530   25.7734 F   0  0  0  0  0  0
  -30.0284  -13.3472   20.4373 N   0  0  0  0  0  0
  -26.3073  -12.9348   20.3454 N   0  0  0  0  0  0
  -25.9358  -11.6512   20.5829 N   0  0  0  0  0  0
  -22.0502  -12.8217   22.0402 N   0  0  0  0  0  0
  -25.4377  -15.1890   20.4140 N   0  0  0  0  0  0
  -31.8474  -14.6585   20.1193 O   0  0  0  0  0  0
  -21.6640   -6.8889   21.4232 O   0  0  0  0  0  0
  -22.3572  -14.5574   20.6741 O   0  0  0  0  0  0
  -24.6178  -31.8657   23.2045 C   0  0  0  0  0  0
  -25.9082  -32.4785   23.8354 C   0  0  1  0  0  0
  -27.2287  -27.4037   20.0917 C   0  0  0  0  0  0
  -25.5940  -33.8577   24.2299 N   0  0  0  0  0  0
  -23.4072  -30.4853   21.5462 C   0  0  2  0  0  0
  -24.8524  -28.9488   20.1089 C   0  0  0  0  0  0
  -22.7455  -29.4607   22.4969 C   0  0  0  0  0  0
  -18.0284  -28.1376   22.8443 C   0  0  0  0  0  0
  -24.1501  -36.7273   23.2642 C   0  0  0  0  0  0
  -25.9391  -30.8179   21.3655 C   0  0  0  0  0  0
  -26.0137  -29.4537   20.7052 C   0  0  0  0  0  0
  -27.2066  -28.6898   20.6875 C   0  0  0  0  0  0
  -26.0499  -26.9234   19.4823 C   0  0  0  0  0  0
  -24.8659  -27.6857   19.4933 C   0  0  0  0  0  0
  -23.6159  -29.8157   20.1616 C   0  0  0  0  0  0
  -25.4120  -36.3075   24.0347 C   0  0  1  0  0  0
  -20.5876  -28.3637   23.1288 C   0  0  2  0  0  0
  -20.6779  -26.9375   22.5394 C   0  0  0  0  0  0
  -19.5769  -26.6353   21.5188 C   0  0  0  0  0  0
  -18.1946  -26.7911   22.1587 C   0  0  0  0  0  0
  -19.1541  -28.8823   23.2849 C   0  0  0  0  0  0
  -18.9484  -30.1428   23.8852 C   0  0  0  0  0  0
  -17.6492  -30.6574   24.0548 C   0  0  0  0  0  0
  -25.9046  -34.9452   23.5113 C   0  0  0  0  0  0
  -16.5369  -29.9080   23.6328 C   0  0  0  0  0  0
  -16.7275  -28.6510   23.0319 C   0  0  0  0  0  0
  -26.4495  -31.6579   25.0701 C   0  0  0  0  0  0
  -25.3753  -31.3709   26.1449 C   0  0  0  0  0  0
  -27.0335  -30.3027   24.6064 C   0  0  0  0  0  0
  -27.6055  -32.4318   25.7481 C   0  0  0  0  0  0
  -27.5589  -37.1797   24.8482 C   0  0  0  0  0  0
  -21.4181  -29.3006   22.3717 N   0  0  0  0  0  0
  -26.4294  -37.3770   23.9427 N   0  0  0  0  0  0
  -24.6722  -31.0736   22.0956 N   0  0  0  0  0  0
  -23.4212  -28.8185   23.3045 O   0  0  0  0  0  0
  -28.3935  -26.6519   20.1054 O   0  0  0  0  0  0
  -26.5586  -34.8916   22.4651 O   0  0  0  0  0  0
  -23.5369  -32.1402   23.7451 O   0  0  0  0  0  0
  -28.7488  -20.4823   20.4080 C   0  0  0  0  0  0
  -30.4022  -22.2339   20.6685 C   0  0  0  0  0  0
  -29.0786  -21.8639   20.3347 C   0  0  0  0  0  0
  -29.7082  -19.5135   20.8033 C   0  0  0  0  0  0
  -31.3284  -21.2423   21.0751 C   0  0  0  0  0  0
  -29.2757  -17.4506   22.3364 C   0  0  0  0  0  0
  -29.2464  -15.9267   22.1007 C   0  0  0  0  0  0
  -30.3079  -16.9821   20.2552 C   0  0  0  0  0  0
  -29.3683  -18.0114   20.9246 C   0  0  2  0  0  0
  -27.3824  -25.0707   21.7544 C   0  0  0  0  0  0
  -28.3146  -24.1774   19.4869 C   0  0  0  0  0  0
  -28.3752  -25.2804   20.5940 C   0  0  1  0  0  0
  -30.9468  -19.9424   21.1363 N   0  3  0  0  0  0
  -29.9803  -15.6600   20.8520 N   0  0  0  0  0  0
  -32.6382  -21.5605   21.4257 N   0  0  0  0  0  0
  -28.0785  -22.7970   19.9592 N   0  0  0  0  0  0
  -31.4755  -12.4680   19.1107 H   0  0  0  0  0  0
  -30.3749  -11.3420   19.8379 H   0  0  0  0  0  0
  -29.7405  -11.7562   17.4547 H   0  0  0  0  0  0
  -29.6628  -13.4754   17.7374 H   0  0  0  0  0  0
  -27.8322  -11.3143   18.8263 H   0  0  0  0  0  0
  -27.3661  -12.6410   17.7978 H   0  0  0  0  0  0
  -27.7113  -14.2609   19.5978 H   0  0  0  0  0  0
  -28.7268  -11.9292   21.2831 H   0  0  0  0  0  0
  -28.4741  -13.5026   21.9136 H   0  0  0  0  0  0
  -25.2763   -9.5678   22.4777 H   0  0  0  0  0  0
  -23.9996   -7.4633   22.7459 H   0  0  0  0  0  0
  -21.0868   -8.8807   19.8933 H   0  0  0  0  0  0
  -22.3736  -10.9698   19.6165 H   0  0  0  0  0  0
  -21.1995   -7.6140   23.9709 H   0  0  0  0  0  0
  -21.1479   -6.0512   25.9069 H   0  0  0  0  0  0
  -22.0602   -2.7607   23.2837 H   0  0  0  0  0  0
  -22.4102  -11.9861   22.4774 H   0  0  0  0  0  0
  -21.1128  -13.1243   22.2608 H   0  0  0  0  0  0
  -24.6876  -15.8552   20.5578 H   0  0  0  0  0  0
  -26.2894  -15.6179   20.0747 H   0  0  0  0  0  0
  -26.7135  -32.5461   23.1109 H   0  0  0  0  0  0
  -25.0173  -33.9717   25.0503 H   0  0  0  0  0  0
  -22.6946  -31.3016   21.4041 H   0  0  0  0  0  0
  -23.3767  -35.9603   23.3314 H   0  0  0  0  0  0
  -24.3590  -36.8860   22.2053 H   0  0  0  0  0  0
  -23.7279  -37.6487   23.6642 H   0  0  0  0  0  0
  -26.0599  -31.5859   20.6014 H   0  0  0  0  0  0
  -26.8245  -30.8594   21.9887 H   0  0  0  0  0  0
  -28.1056  -29.0694   21.1528 H   0  0  0  0  0  0
  -26.0313  -25.9599   18.9979 H   0  0  0  0  0  0
  -23.9732  -27.2939   19.0258 H   0  0  0  0  0  0
  -23.7286  -30.5882   19.4001 H   0  0  0  0  0  0
  -22.7427  -29.2318   19.8650 H   0  0  0  0  0  0
  -25.1305  -36.1916   25.0846 H   0  0  0  0  0  0
  -20.9922  -28.3214   24.1429 H   0  0  0  0  0  0
  -20.5704  -26.2257   23.3592 H   0  0  0  0  0  0
  -21.6654  -26.7433   22.1189 H   0  0  0  0  0  0
  -19.6968  -25.6270   21.1228 H   0  0  0  0  0  0
  -19.6753  -27.3147   20.6704 H   0  0  0  0  0  0
  -17.4219  -26.6610   21.3996 H   0  0  0  0  0  0
  -18.0369  -26.0078   22.8999 H   0  0  0  0  0  0
  -19.7975  -30.7222   24.2239 H   0  0  0  0  0  0
  -17.5068  -31.6281   24.5130 H   0  0  0  0  0  0
  -15.5376  -30.2986   23.7695 H   0  0  0  0  0  0
  -15.8663  -28.0844   22.7033 H   0  0  0  0  0  0
  -24.5905  -30.7083   25.7799 H   0  0  0  0  0  0
  -24.8966  -32.2869   26.4900 H   0  0  0  0  0  0
  -25.8084  -30.8872   27.0206 H   0  0  0  0  0  0
  -26.2861  -29.6774   24.1154 H   0  0  0  0  0  0
  -27.4182  -29.7283   25.4498 H   0  0  0  0  0  0
  -27.8664  -30.4386   23.9163 H   0  0  0  0  0  0
  -27.2650  -33.3606   26.2073 H   0  0  0  0  0  0
  -28.3850  -32.6902   25.0308 H   0  0  0  0  0  0
  -28.0730  -31.8439   26.5386 H   0  0  0  0  0  0
  -28.2596  -38.0095   24.7483 H   0  0  0  0  0  0
  -28.1084  -36.2617   24.6346 H   0  0  0  0  0  0
  -27.2283  -37.1476   25.8876 H   0  0  0  0  0  0
  -20.9404  -29.8738   21.6908 H   0  0  0  0  0  0
  -26.0168  -38.2838   24.1437 H   0  0  0  0  0  0
  -27.7470  -20.1575   20.1698 H   0  0  0  0  0  0
  -30.7112  -23.2681   20.6297 H   0  0  0  0  0  0
  -30.1629  -17.7242   22.9079 H   0  0  0  0  0  0
  -28.4035  -17.8166   22.8827 H   0  0  0  0  0  0
  -28.2080  -15.6247   21.9690 H   0  0  0  0  0  0
  -29.6594  -15.3786   22.9481 H   0  0  0  0  0  0
  -31.3510  -17.2191   20.4794 H   0  0  0  0  0  0
  -30.2009  -16.9787   19.1686 H   0  0  0  0  0  0
  -28.3875  -17.8834   20.4631 H   0  0  0  0  0  0
  -27.5656  -24.1218   22.2558 H   0  0  0  0  0  0
  -26.3421  -25.0681   21.4299 H   0  0  0  0  0  0
  -27.5033  -25.8570   22.4986 H   0  0  0  0  0  0
  -27.4953  -24.4029   18.8061 H   0  0  0  0  0  0
  -29.2133  -24.2137   18.8712 H   0  0  0  0  0  0
  -29.3591  -25.1692   21.0494 H   0  0  0  0  0  0
  -31.6295  -19.2421   21.4437 H   0  0  0  0  0  0
  -32.9925  -22.5006   21.3551 H   0  0  0  0  0  0
  -33.3076  -20.8762   21.7365 H   0  0  0  0  0  0
  -27.2074  -22.3864   19.6377 H   0  0  0  0  0  0
  1 25  1  0  0  0
  1 30  2  0  0  0
  1 84  1  0  0  0
  2  3  1  0  0  0
  2 25  1  0  0  0
  2 87  1  0  0  0
  2 88  1  0  0  0
  3  4  1  0  0  0
  3 89  1  0  0  0
  3 90  1  0  0  0
  4  5  1  0  0  0
  4 91  1  0  0  0
  4 92  1  0  0  0
  5  6  1  0  0  0
  5 26  1  0  0  0
  5 93  1  0  0  0
  6 25  1  0  0  0
  6 94  1  0  0  0
  6 95  1  0  0  0
  7  8  2  0  0  0
  7 26  1  0  0  0
  7 29  1  0  0  0
  8  9  1  0  0  0
  8 22  1  0  0  0
  9 10  1  0  0  0
  9 27  2  0  0  0
 10 11  2  0  0  0
 10 15  1  0  0  0
 11 12  1  0  0  0
 11 96  1  0  0  0
 12 13  2  0  0  0
 12 97  1  0  0  0
 13 14  1  0  0  0
 13 31  1  0  0  0
 14 15  2  0  0  0
 14 98  1  0  0  0
 15 99  1  0  0  0
 16 17  2  0  0  0
 16 21  1  0  0  0
 16 31  1  0  0  0
 17 18  1  0  0  0
 17100  1  0  0  0
 18 19  2  0  0  0
 18101  1  0  0  0
 19 20  1  0  0  0
 19 24  1  0  0  0
 20 21  2  0  0  0
 20102  1  0  0  0
 21 23  1  0  0  0
 22 28  1  0  0  0
 22 32  2  0  0  0
 26 27  1  0  0  0
 28103  1  0  0  0
 28104  1  0  0  0
 29105  1  0  0  0
 29106  1  0  0  0
 33 34  1  0  0  0
 33 66  1  0  0  0
 33 70  2  0  0  0
 34 36  1  0  0  0
 34 59  1  0  0  0
 34107  1  0  0  0
 35 44  2  0  0  0
 35 45  1  0  0  0
 35 68  1  0  0  0
 36 56  1  0  0  0
 36108  1  0  0  0
 37 39  1  0  0  0
 37 47  1  0  0  0
 37 66  1  0  0  0
 37109  1  0  0  0
 38 43  2  0  0  0
 38 46  1  0  0  0
 38 47  1  0  0  0
 39 64  1  0  0  0
 39 67  2  0  0  0
 40 52  1  0  0  0
 40 53  2  0  0  0
 40 58  1  0  0  0
 41110  1  0  0  0
 41111  1  0  0  0
 41112  1  0  0  0
 41 48  1  0  0  0
 42 43  1  0  0  0
 42 66  1  0  0  0
 42113  1  0  0  0
 42114  1  0  0  0
 43 44  1  0  0  0
 44115  1  0  0  0
 45 46  2  0  0  0
 45116  1  0  0  0
 46117  1  0  0  0
 47118  1  0  0  0
 47119  1  0  0  0
 48 56  1  0  0  0
 48 65  1  0  0  0
 48120  1  0  0  0
 49 50  1  0  0  0
 49 53  1  0  0  0
 49 64  1  0  0  0
 49121  1  0  0  0
 50 51  1  0  0  0
 50122  1  0  0  0
 50123  1  0  0  0
 51 52  1  0  0  0
 51124  1  0  0  0
 51125  1  0  0  0
 52126  1  0  0  0
 52127  1  0  0  0
 53 54  1  0  0  0
 54 55  2  0  0  0
 54128  1  0  0  0
 55 57  1  0  0  0
 55129  1  0  0  0
 56 69  2  0  0  0
 57 58  2  0  0  0
 57130  1  0  0  0
 58131  1  0  0  0
 59 60  1  0  0  0
 59 61  1  0  0  0
 59 62  1  0  0  0
 60132  1  0  0  0
 60133  1  0  0  0
 60134  1  0  0  0
 61135  1  0  0  0
 61136  1  0  0  0
 61137  1  0  0  0
 62138  1  0  0  0
 62139  1  0  0  0
 62140  1  0  0  0
 63 65  1  0  0  0
 63141  1  0  0  0
 63142  1  0  0  0
 63143  1  0  0  0
 64144  1  0  0  0
 65145  1  0  0  0
 68 82  1  0  0  0
 71 73  2  0  0  0
 71 74  1  0  0  0
 71146  1  0  0  0
 72 73  1  0  0  0
 72 75  2  0  0  0
 72147  1  0  0  0
 73 86  1  0  0  0
 74 83  2  0  0  0
 74 79  1  0  0  0
 75 83  1  0  0  0
 75 85  1  0  0  0
 76 77  1  0  0  0
 76 79  1  0  0  0
 76148  1  0  0  0
 76149  1  0  0  0
 77 84  1  0  0  0
 77150  1  0  0  0
 77151  1  0  0  0
 78 79  1  0  0  0
 78 84  1  0  0  0
 78152  1  0  0  0
 78153  1  0  0  0
 79154  1  0  0  0
 80155  1  0  0  0
 80156  1  0  0  0
 80157  1  0  0  0
 80 82  1  0  0  0
 81 82  1  0  0  0
 81 86  1  0  0  0
 81158  1  0  0  0
 81159  1  0  0  0
 82160  1  0  0  0
 83161  1  0  0  0
 85162  1  0  0  0
 85163  1  0  0  0
 86164  1  0  0  0
M  CHG  1  83   1
M  ISO  4   1 100  68 101  82 101  84 100
M  END
> <chiral flag>
0

> <version>
0

> <s_m_source_file>
/data/baiqing/PycharmProjects/Reinvent-master-3.2/result/LINK_invent/BTK/process_docking_weight1_custom_product_contain_oxygen_bond_distance_aromatic_linkinvent_7_9_3/rearranged_h_0154.sdf

> <i_m_source_file_index>
61

> <r_mmod_Potential_Energy-OPLS-2005>
24.7728309631348

> <r_mmod_Stretch_Energy-OPLS-2005>
50.5986022949219

> <r_mmod_Bend_Energy-OPLS-2005>
172.568695068359

> <r_mmod_Torsional_Energy-OPLS-2005>
307.563873291016

> <r_mmod_Improper_Torsional_Energy-OPLS-2005>
13.8316488265991

> <r_mmod_Van_der_Waal_Energy-OPLS-2005>
144.094116210938

> <r_mmod_Electrostatic_Energy-OPLS-2005>
-257.686950683594

> <r_mmod_Solvation_Energy-OPLS-2005>
-425.440643310547

> <b_mmod_Minimization_Converged-OPLS-2005>
0

> <r_mmod_RMS_Derivative-OPLS-2005>
3.51035475730896

$$$$
61
                    3D
 Structure written by MMmdl.
149157  0  0  1  0            999 V2000
  -30.4938  -15.0380   20.4133 C   0  0  0  0  0  0
  -30.4490  -12.6480   19.5077 C   0  0  0  0  0  0
  -29.5295  -12.5428   18.2670 C   0  0  0  0  0  0
  -28.0659  -12.3089   18.6863 C   0  0  0  0  0  0
  -27.6283  -13.2509   19.8371 C   0  0  2  0  0  0
  -28.6692  -13.3063   20.9759 C   0  0  0  0  0  0
  -25.2465  -13.8213   20.5710 C   0  0  0  0  0  0
  -24.1787  -13.0437   20.9243 C   0  0  0  0  0  0
  -24.6405  -11.6923   20.8760 C   0  0  0  0  0  0
  -23.9085  -10.4292   21.0401 C   0  0  0  0  0  0
  -24.3634   -9.4206   21.9179 C   0  0  0  0  0  0
  -23.6311   -8.2243   22.0751 C   0  0  0  0  0  0
  -22.4288   -8.0282   21.3542 C   0  0  0  0  0  0
  -21.9923   -9.0256   20.4642 C   0  0  0  0  0  0
  -22.7256  -10.2136   20.3054 C   0  0  0  0  0  0
  -21.6853   -6.0741   22.5278 C   0  0  0  0  0  0
  -21.4009   -6.5642   23.8212 C   0  0  0  0  0  0
  -21.3661   -5.6796   24.9173 C   0  0  0  0  0  0
  -21.6044   -4.3057   24.7224 C   0  0  0  0  0  0
  -21.8819   -3.8151   23.4345 C   0  0  0  0  0  0
  -21.9191   -4.6969   22.3400 C   0  0  0  0  0  0
  -22.7806  -13.5200   21.1892 C   0  0  0  0  0  0
  -22.1659   -4.2151   21.0981 F   0  0  0  0  0  0
  -21.5629   -3.4541   25.7739 F   0  0  0  0  0  0
  -29.9352  -13.7520   20.3761 N   0  0  0  0  0  0
  -26.2884  -12.9445   20.3234 N   0  0  0  0  0  0
  -25.9335  -11.6576   20.5739 N   0  0  0  0  0  0
  -22.0466  -12.8176   22.0446 N   0  0  0  0  0  0
  -25.4126  -15.1943   20.4105 N   0  0  0  0  0  0
  -31.7011  -15.1113   20.1473 O   0  0  0  0  0  0
  -21.6646   -6.8886   21.4241 O   0  0  0  0  0  0
  -22.3479  -14.5504   20.6741 O   0  0  0  0  0  0
  -24.6504  -31.8379   23.1827 C   0  0  0  0  0  0
  -25.9244  -32.4664   23.8242 C   0  0  1  0  0  0
  -27.2161  -27.0676   20.1664 C   0  0  0  0  0  0
  -25.5962  -33.8474   24.2152 N   0  0  0  0  0  0
  -23.4582  -30.4556   21.5299 C   0  0  2  0  0  0
  -24.9089  -28.8713   20.1118 C   0  0  0  0  0  0
  -22.7611  -29.4522   22.4841 C   0  0  0  0  0  0
  -18.0331  -28.1387   22.8467 C   0  0  0  0  0  0
  -24.1492  -36.7241   23.2644 C   0  0  0  0  0  0
  -26.0196  -30.6903   21.3921 C   0  0  0  0  0  0
  -26.0897  -29.2946   20.7355 C   0  0  0  0  0  0
  -27.2441  -28.4117   20.7417 C   0  0  0  0  0  0
  -26.0084  -26.7669   19.4966 C   0  0  0  0  0  0
  -24.8861  -27.6241   19.4727 C   0  0  0  0  0  0
  -23.6889  -29.7816   20.1515 C   0  0  0  0  0  0
  -25.4127  -36.3014   24.0309 C   0  0  1  0  0  0
  -20.5941  -28.3736   23.1226 C   0  0  2  0  0  0
  -20.6822  -26.9433   22.5412 C   0  0  0  0  0  0
  -19.5803  -26.6363   21.5217 C   0  0  0  0  0  0
  -18.1980  -26.7924   22.1617 C   0  0  0  0  0  0
  -19.1581  -28.8880   23.2834 C   0  0  0  0  0  0
  -18.9486  -30.1475   23.8858 C   0  0  0  0  0  0
  -17.6479  -30.6587   24.0542 C   0  0  0  0  0  0
  -25.9083  -34.9391   23.5043 C   0  0  0  0  0  0
  -16.5374  -29.9068   23.6328 C   0  0  0  0  0  0
  -16.7309  -28.6481   23.0352 C   0  0  0  0  0  0
  -26.4539  -31.6556   25.0713 C   0  0  0  0  0  0
  -25.3704  -31.3765   26.1396 C   0  0  0  0  0  0
  -27.0418  -30.2942   24.6347 C   0  0  0  0  0  0
  -27.6054  -32.4337   25.7507 C   0  0  0  0  0  0
  -27.5573  -37.1779   24.8469 C   0  0  0  0  0  0
  -21.4296  -29.3049   22.3584 N   0  0  0  0  0  0
  -26.4288  -37.3732   23.9408 N   0  0  0  0  0  0
  -24.7299  -31.0174   22.0896 N   0  0  0  0  0  0
  -23.4220  -28.8079   23.3026 O   0  0  0  0  0  0
  -28.2379  -26.0268   20.2386 O   0  0  0  0  0  0
  -26.5679  -34.8900   22.4629 O   0  0  0  0  0  0
  -23.5603  -32.1282   23.7002 O   0  0  0  0  0  0
  -28.7376  -18.6472   20.5478 C   0  0  0  0  0  0
  -30.5747  -19.7861   20.3133 C   0  0  0  0  0  0
  -29.2249  -20.0622   20.4521 C   0  0  0  0  0  0
  -29.7572  -17.6556   20.4717 C   0  0  0  0  0  0
  -28.8869  -23.1502   20.3274 C   0  0  0  0  0  0
  -27.8549  -24.4848   20.1751 C   0  0  0  0  0  0
  -28.3464  -21.5194   20.5570 C   0  0  2  0  0  0
  -29.6560  -16.2003   20.5547 N   0  0  0  0  0  0
  -27.7619  -21.5217   21.9052 N   0  3  0  0  0  0
  -30.0995  -23.3866   20.2980 O   0  0  0  0  0  0
  -30.9020  -18.4050   20.3169 O   0  0  0  0  0  0
  -31.4760  -12.8313   19.1886 H   0  0  0  0  0  0
  -30.4739  -11.7053   20.0568 H   0  0  0  0  0  0
  -29.8668  -11.7369   17.6133 H   0  0  0  0  0  0
  -29.5984  -13.4627   17.6842 H   0  0  0  0  0  0
  -27.9798  -11.2711   19.0110 H   0  0  0  0  0  0
  -27.4006  -12.4167   17.8289 H   0  0  0  0  0  0
  -27.5817  -14.2459   19.3932 H   0  0  0  0  0  0
  -28.7790  -12.3347   21.4599 H   0  0  0  0  0  0
  -28.3510  -14.0027   21.7532 H   0  0  0  0  0  0
  -25.2772   -9.5683   22.4758 H   0  0  0  0  0  0
  -24.0016   -7.4632   22.7468 H   0  0  0  0  0  0
  -21.0856   -8.8780   19.8946 H   0  0  0  0  0  0
  -22.3709  -10.9682   19.6172 H   0  0  0  0  0  0
  -21.1996   -7.6148   23.9714 H   0  0  0  0  0  0
  -21.1483   -6.0526   25.9077 H   0  0  0  0  0  0
  -22.0597   -2.7615   23.2845 H   0  0  0  0  0  0
  -22.4101  -11.9837   22.4823 H   0  0  0  0  0  0
  -21.1080  -13.1179   22.2663 H   0  0  0  0  0  0
  -24.6366  -15.8392   20.5097 H   0  0  0  0  0  0
  -26.2371  -15.6287   20.0190 H   0  0  0  0  0  0
  -26.7317  -32.5248   23.0970 H   0  0  0  0  0  0
  -25.0080  -33.9581   25.0280 H   0  0  0  0  0  0
  -22.7647  -31.2839   21.3697 H   0  0  0  0  0  0
  -23.3763  -35.9566   23.3293 H   0  0  0  0  0  0
  -24.3572  -36.8887   22.2061 H   0  0  0  0  0  0
  -23.7244  -37.6429   23.6693 H   0  0  0  0  0  0
  -26.1843  -31.4397   20.6168 H   0  0  0  0  0  0
  -26.8867  -30.7416   22.0389 H   0  0  0  0  0  0
  -28.1402  -28.7330   21.2535 H   0  0  0  0  0  0
  -25.8914  -25.8164   18.9990 H   0  0  0  0  0  0
  -23.9880  -27.2971   18.9668 H   0  0  0  0  0  0
  -23.8312  -30.5537   19.3946 H   0  0  0  0  0  0
  -22.8021  -29.2268   19.8393 H   0  0  0  0  0  0
  -25.1321  -36.1831   25.0802 H   0  0  0  0  0  0
  -21.0030  -28.3328   24.1349 H   0  0  0  0  0  0
  -20.5728  -26.2354   23.3641 H   0  0  0  0  0  0
  -21.6691  -26.7447   22.1213 H   0  0  0  0  0  0
  -19.6973  -25.6259   21.1286 H   0  0  0  0  0  0
  -19.6739  -27.3143   20.6723 H   0  0  0  0  0  0
  -17.4264  -26.6668   21.4008 H   0  0  0  0  0  0
  -18.0374  -26.0070   22.9013 H   0  0  0  0  0  0
  -19.7956  -30.7310   24.2213 H   0  0  0  0  0  0
  -17.5030  -31.6266   24.5140 H   0  0  0  0  0  0
  -15.5369  -30.2955   23.7664 H   0  0  0  0  0  0
  -15.8721  -28.0779   22.7072 H   0  0  0  0  0  0
  -24.5891  -30.7107   25.7711 H   0  0  0  0  0  0
  -24.8893  -32.2957   26.4747 H   0  0  0  0  0  0
  -25.7972  -30.8981   27.0223 H   0  0  0  0  0  0
  -26.3056  -29.6649   24.1336 H   0  0  0  0  0  0
  -27.3987  -29.7260   25.4948 H   0  0  0  0  0  0
  -27.8980  -30.4163   23.9712 H   0  0  0  0  0  0
  -27.2633  -33.3659   26.2016 H   0  0  0  0  0  0
  -28.3901  -32.6865   25.0364 H   0  0  0  0  0  0
  -28.0686  -31.8513   26.5481 H   0  0  0  0  0  0
  -28.2587  -38.0077   24.7504 H   0  0  0  0  0  0
  -28.1070  -36.2605   24.6309 H   0  0  0  0  0  0
  -27.2288  -37.1442   25.8871 H   0  0  0  0  0  0
  -20.9520  -29.8725   21.6723 H   0  0  0  0  0  0
  -26.0145  -38.2799   24.1400 H   0  0  0  0  0  0
  -27.6974  -18.3806   20.6770 H   0  0  0  0  0  0
  -31.4365  -20.4326   20.2113 H   0  0  0  0  0  0
  -27.0669  -24.3432   20.9140 H   0  0  0  0  0  0
  -27.3744  -24.3299   19.2104 H   0  0  0  0  0  0
  -27.5070  -21.4062   19.8701 H   0  0  0  0  0  0
  -28.7097  -15.9033   20.7337 H   0  0  0  0  0  0
  -28.4823  -21.6914   22.5834 H   0  0  0  0  0  0
  -27.3427  -20.6322   22.0982 H   0  0  0  0  0  0
  -27.0572  -22.2281   21.9980 H   0  0  0  0  0  0
  1 25  1  0  0  0
  1 30  2  0  0  0
  1 78  1  0  0  0
  2  3  1  0  0  0
  2 25  1  0  0  0
  2 82  1  0  0  0
  2 83  1  0  0  0
  3  4  1  0  0  0
  3 84  1  0  0  0
  3 85  1  0  0  0
  4  5  1  0  0  0
  4 86  1  0  0  0
  4 87  1  0  0  0
  5  6  1  0  0  0
  5 26  1  0  0  0
  5 88  1  0  0  0
  6 25  1  0  0  0
  6 89  1  0  0  0
  6 90  1  0  0  0
  7  8  2  0  0  0
  7 26  1  0  0  0
  7 29  1  0  0  0
  8  9  1  0  0  0
  8 22  1  0  0  0
  9 10  1  0  0  0
  9 27  2  0  0  0
 10 11  2  0  0  0
 10 15  1  0  0  0
 11 12  1  0  0  0
 11 91  1  0  0  0
 12 13  2  0  0  0
 12 92  1  0  0  0
 13 14  1  0  0  0
 13 31  1  0  0  0
 14 15  2  0  0  0
 14 93  1  0  0  0
 15 94  1  0  0  0
 16 17  2  0  0  0
 16 21  1  0  0  0
 16 31  1  0  0  0
 17 18  1  0  0  0
 17 95  1  0  0  0
 18 19  2  0  0  0
 18 96  1  0  0  0
 19 20  1  0  0  0
 19 24  1  0  0  0
 20 21  2  0  0  0
 20 97  1  0  0  0
 21 23  1  0  0  0
 22 28  1  0  0  0
 22 32  2  0  0  0
 26 27  1  0  0  0
 28 98  1  0  0  0
 28 99  1  0  0  0
 29100  1  0  0  0
 29101  1  0  0  0
 33 34  1  0  0  0
 33 66  1  0  0  0
 33 70  2  0  0  0
 34 36  1  0  0  0
 34 59  1  0  0  0
 34102  1  0  0  0
 35 44  2  0  0  0
 35 45  1  0  0  0
 35 68  1  0  0  0
 36 56  1  0  0  0
 36103  1  0  0  0
 37 39  1  0  0  0
 37 47  1  0  0  0
 37 66  1  0  0  0
 37104  1  0  0  0
 38 43  2  0  0  0
 38 46  1  0  0  0
 38 47  1  0  0  0
 39 64  1  0  0  0
 39 67  2  0  0  0
 40 52  1  0  0  0
 40 53  2  0  0  0
 40 58  1  0  0  0
 41105  1  0  0  0
 41106  1  0  0  0
 41107  1  0  0  0
 41 48  1  0  0  0
 42 43  1  0  0  0
 42 66  1  0  0  0
 42108  1  0  0  0
 42109  1  0  0  0
 43 44  1  0  0  0
 44110  1  0  0  0
 45 46  2  0  0  0
 45111  1  0  0  0
 46112  1  0  0  0
 47113  1  0  0  0
 47114  1  0  0  0
 48 56  1  0  0  0
 48 65  1  0  0  0
 48115  1  0  0  0
 49 50  1  0  0  0
 49 53  1  0  0  0
 49 64  1  0  0  0
 49116  1  0  0  0
 50 51  1  0  0  0
 50117  1  0  0  0
 50118  1  0  0  0
 51 52  1  0  0  0
 51119  1  0  0  0
 51120  1  0  0  0
 52121  1  0  0  0
 52122  1  0  0  0
 53 54  1  0  0  0
 54 55  2  0  0  0
 54123  1  0  0  0
 55 57  1  0  0  0
 55124  1  0  0  0
 56 69  2  0  0  0
 57 58  2  0  0  0
 57125  1  0  0  0
 58126  1  0  0  0
 59 60  1  0  0  0
 59 61  1  0  0  0
 59 62  1  0  0  0
 60127  1  0  0  0
 60128  1  0  0  0
 60129  1  0  0  0
 61130  1  0  0  0
 61131  1  0  0  0
 61132  1  0  0  0
 62133  1  0  0  0
 62134  1  0  0  0
 62135  1  0  0  0
 63 65  1  0  0  0
 63136  1  0  0  0
 63137  1  0  0  0
 63138  1  0  0  0
 64139  1  0  0  0
 65140  1  0  0  0
 68 76  1  0  0  0
 71 73  1  0  0  0
 71 74  2  0  0  0
 71141  1  0  0  0
 72 73  2  0  0  0
 72 81  1  0  0  0
 72142  1  0  0  0
 73 77  1  0  0  0
 74 78  1  0  0  0
 74 81  1  0  0  0
 75 76  1  0  0  0
 75 77  1  0  0  0
 75 80  2  0  0  0
 76143  1  0  0  0
 76144  1  0  0  0
 77 79  1  0  0  0
 77145  1  0  0  0
 78146  1  0  0  0
 79147  1  0  0  0
 79148  1  0  0  0
 79149  1  0  0  0
M  CHG  1  79   1
M  ISO  4   1 100  68 101  76 101  78 100
M  END
> <chiral flag>
0

> <version>
0

> <s_m_source_file>
/data/baiqing/PycharmProjects/Reinvent-master-3.2/result/LINK_invent/BTK/process_docking_weight1_custom_product_contain_oxygen_bond_distance_aromatic_linkinvent_7_9_3/rearranged_h_0154.sdf

> <i_m_source_file_index>
62

> <r_mmod_Potential_Energy-OPLS-2005>
294.953216552734

> <r_mmod_Stretch_Energy-OPLS-2005>
329.378112792969

> <r_mmod_Bend_Energy-OPLS-2005>
325.232940673828

> <r_mmod_Torsional_Energy-OPLS-2005>
199.546722412109

> <r_mmod_Improper_Torsional_Energy-OPLS-2005>
4.50897455215454

> <r_mmod_Van_der_Waal_Energy-OPLS-2005>
106.953712463379

> <r_mmod_Electrostatic_Energy-OPLS-2005>
-342.3818359375

> <r_mmod_Solvation_Energy-OPLS-2005>
-590.991088867188

> <b_mmod_Minimization_Converged-OPLS-2005>
0

> <r_mmod_RMS_Derivative-OPLS-2005>
1.01137518882751

$$$$
62
                    3D
 Structure written by MMmdl.
152161  0  0  1  0            999 V2000
  -30.6263  -14.7902   20.4295 C   0  0  0  0  0  0
  -30.4235  -12.4809   19.4752 C   0  0  0  0  0  0
  -29.5071  -12.4986   18.2339 C   0  0  0  0  0  0
  -28.0343  -12.3241   18.6521 C   0  0  0  0  0  0
  -27.6343  -13.2416   19.8399 C   0  0  2  0  0  0
  -28.6831  -13.2261   20.9718 C   0  0  0  0  0  0
  -25.2490  -13.8221   20.5718 C   0  0  0  0  0  0
  -24.1786  -13.0457   20.9212 C   0  0  0  0  0  0
  -24.6389  -11.6935   20.8757 C   0  0  0  0  0  0
  -23.9070  -10.4301   21.0404 C   0  0  0  0  0  0
  -24.3619   -9.4213   21.9180 C   0  0  0  0  0  0
  -23.6284   -8.2252   22.0756 C   0  0  0  0  0  0
  -22.4267   -8.0290   21.3545 C   0  0  0  0  0  0
  -21.9907   -9.0263   20.4645 C   0  0  0  0  0  0
  -22.7241  -10.2136   20.3049 C   0  0  0  0  0  0
  -21.6853   -6.0729   22.5275 C   0  0  0  0  0  0
  -21.4019   -6.5633   23.8210 C   0  0  0  0  0  0
  -21.3659   -5.6788   24.9172 C   0  0  0  0  0  0
  -21.6045   -4.3052   24.7226 C   0  0  0  0  0  0
  -21.8816   -3.8142   23.4346 C   0  0  0  0  0  0
  -21.9193   -4.6956   22.3400 C   0  0  0  0  0  0
  -22.7804  -13.5224   21.1876 C   0  0  0  0  0  0
  -22.1660   -4.2140   21.0979 F   0  0  0  0  0  0
  -21.5628   -3.4537   25.7740 F   0  0  0  0  0  0
  -29.9689  -13.5775   20.3633 N   0  0  0  0  0  0
  -26.2913  -12.9448   20.3277 N   0  0  0  0  0  0
  -25.9326  -11.6581   20.5771 N   0  0  0  0  0  0
  -22.0457  -12.8202   22.0424 N   0  0  0  0  0  0
  -25.4188  -15.1953   20.4143 N   0  0  0  0  0  0
  -31.8454  -14.7986   20.2271 O   0  0  0  0  0  0
  -21.6646   -6.8878   21.4235 O   0  0  0  0  0  0
  -22.3484  -14.5531   20.6723 O   0  0  0  0  0  0
  -24.6354  -31.8525   23.1952 C   0  0  0  0  0  0
  -25.9150  -32.4761   23.8325 C   0  0  1  0  0  0
  -27.2192  -27.2241   20.1378 C   0  0  0  0  0  0
  -25.5929  -33.8560   24.2244 N   0  0  0  0  0  0
  -23.4360  -30.4708   21.5418 C   0  0  2  0  0  0
  -24.8846  -28.9094   20.1160 C   0  0  0  0  0  0
  -22.7533  -29.4566   22.4919 C   0  0  0  0  0  0
  -18.0291  -28.1387   22.8482 C   0  0  0  0  0  0
  -24.1483  -36.7271   23.2639 C   0  0  0  0  0  0
  -25.9852  -30.7509   21.3827 C   0  0  0  0  0  0
  -26.0591  -29.3692   20.7262 C   0  0  0  0  0  0
  -27.2328  -28.5411   20.7213 C   0  0  0  0  0  0
  -26.0220  -26.8405   19.4973 C   0  0  0  0  0  0
  -24.8718  -27.6537   19.4905 C   0  0  0  0  0  0
  -23.6581  -29.8020   20.1603 C   0  0  0  0  0  0
  -25.4120  -36.3082   24.0325 C   0  0  1  0  0  0
  -20.5897  -28.3698   23.1266 C   0  0  2  0  0  0
  -20.6775  -26.9415   22.5412 C   0  0  0  0  0  0
  -19.5754  -26.6375   21.5215 C   0  0  0  0  0  0
  -18.1932  -26.7932   22.1621 C   0  0  0  0  0  0
  -19.1545  -28.8862   23.2866 C   0  0  0  0  0  0
  -18.9470  -30.1464   23.8888 C   0  0  0  0  0  0
  -17.6472  -30.6599   24.0556 C   0  0  0  0  0  0
  -25.9061  -34.9450   23.5092 C   0  0  0  0  0  0
  -16.5360  -29.9095   23.6335 C   0  0  0  0  0  0
  -16.7277  -28.6503   23.0364 C   0  0  0  0  0  0
  -26.4486  -31.6612   25.0742 C   0  0  0  0  0  0
  -25.3671  -31.3783   26.1438 C   0  0  0  0  0  0
  -27.0343  -30.3026   24.6260 C   0  0  0  0  0  0
  -27.6039  -32.4366   25.7516 C   0  0  0  0  0  0
  -27.5585  -37.1796   24.8467 C   0  0  0  0  0  0
  -21.4235  -29.3043   22.3664 N   0  0  0  0  0  0
  -26.4290  -37.3783   23.9416 N   0  0  0  0  0  0
  -24.7053  -31.0432   22.0964 N   0  0  0  0  0  0
  -23.4211  -28.8102   23.3031 O   0  0  0  0  0  0
  -28.2932  -26.2949   20.1518 O   0  0  0  0  0  0
  -26.5655  -34.8930   22.4676 O   0  0  0  0  0  0
  -23.5482  -32.1373   23.7198 O   0  0  0  0  0  0
  -29.0449  -19.7741   20.9837 C   0  0  0  0  0  0
  -29.6007  -20.6802   18.8010 C   0  0  0  0  0  0
  -29.4380  -18.4462   20.5375 C   0  0  0  0  0  0
  -29.8828  -18.2686   19.2492 C   0  0  0  0  0  0
  -29.1134  -20.9480   20.1164 C   0  0  0  0  0  0
  -29.9791  -19.3731   18.3699 C   0  0  0  0  0  0
  -28.7992  -23.6080   19.9978 C   0  0  0  0  0  0
  -29.4675  -17.0327   21.2168 C   0  0  0  0  0  0
  -30.2060  -16.7920   18.9837 C   0  0  0  0  0  0
  -28.0186  -24.8771   20.6337 C   0  0  0  0  0  0
  -29.9047  -15.9766   20.2077 N   0  0  0  0  0  0
  -28.6520  -22.3195   20.5321 N   0  0  0  0  0  0
  -29.5413  -23.8135   19.0330 O   0  0  0  0  0  0
  -30.4237  -19.1836   17.1044 F   0  0  0  0  0  0
  -31.4667  -12.5919   19.1740 H   0  0  0  0  0  0
  -30.3595  -11.5200   19.9886 H   0  0  0  0  0  0
  -29.7942  -11.7080   17.5389 H   0  0  0  0  0  0
  -29.6289  -13.4407   17.6965 H   0  0  0  0  0  0
  -27.8966  -11.2788   18.9330 H   0  0  0  0  0  0
  -27.3755  -12.4980   17.8006 H   0  0  0  0  0  0
  -27.6127  -14.2546   19.4359 H   0  0  0  0  0  0
  -28.7351  -12.2462   21.4486 H   0  0  0  0  0  0
  -28.4211  -13.9434   21.7515 H   0  0  0  0  0  0
  -25.2760   -9.5693   22.4759 H   0  0  0  0  0  0
  -23.9987   -7.4652   22.7481 H   0  0  0  0  0  0
  -21.0838   -8.8779   19.8953 H   0  0  0  0  0  0
  -22.3694  -10.9672   19.6158 H   0  0  0  0  0  0
  -21.2012   -7.6142   23.9709 H   0  0  0  0  0  0
  -21.1485   -6.0520   25.9071 H   0  0  0  0  0  0
  -22.0595   -2.7602   23.2859 H   0  0  0  0  0  0
  -22.4071  -11.9845   22.4781 H   0  0  0  0  0  0
  -21.1083  -13.1235   22.2665 H   0  0  0  0  0  0
  -24.6542  -15.8518   20.5275 H   0  0  0  0  0  0
  -26.2732  -15.6337   20.0941 H   0  0  0  0  0  0
  -26.7221  -32.5391   23.1068 H   0  0  0  0  0  0
  -25.0055  -33.9698   25.0373 H   0  0  0  0  0  0
  -22.7347  -31.2942   21.3910 H   0  0  0  0  0  0
  -23.3770  -35.9578   23.3296 H   0  0  0  0  0  0
  -24.3553  -36.8904   22.2052 H   0  0  0  0  0  0
  -23.7206  -37.6451   23.6673 H   0  0  0  0  0  0
  -26.1264  -31.5051   20.6083 H   0  0  0  0  0  0
  -26.8616  -30.8040   22.0172 H   0  0  0  0  0  0
  -28.1342  -28.8867   21.2084 H   0  0  0  0  0  0
  -25.9612  -25.8795   19.0071 H   0  0  0  0  0  0
  -23.9724  -27.2960   19.0081 H   0  0  0  0  0  0
  -23.7913  -30.5766   19.4045 H   0  0  0  0  0  0
  -22.7754  -29.2381   19.8523 H   0  0  0  0  0  0
  -25.1294  -36.1931   25.0815 H   0  0  0  0  0  0
  -20.9973  -28.3277   24.1395 H   0  0  0  0  0  0
  -20.5661  -26.2316   23.3618 H   0  0  0  0  0  0
  -21.6647  -26.7428   22.1222 H   0  0  0  0  0  0
  -19.6916  -25.6277   21.1269 H   0  0  0  0  0  0
  -19.6703  -27.3161   20.6727 H   0  0  0  0  0  0
  -17.4206  -26.6682   21.4019 H   0  0  0  0  0  0
  -18.0321  -26.0071   22.9009 H   0  0  0  0  0  0
  -19.7947  -30.7273   24.2268 H   0  0  0  0  0  0
  -17.5031  -31.6280   24.5153 H   0  0  0  0  0  0
  -15.5360  -30.3003   23.7661 H   0  0  0  0  0  0
  -15.8669  -28.0821   22.7105 H   0  0  0  0  0  0
  -24.5896  -30.7072   25.7766 H   0  0  0  0  0  0
  -24.8784  -32.2945   26.4763 H   0  0  0  0  0  0
  -25.7949  -30.9051   27.0289 H   0  0  0  0  0  0
  -26.2952  -29.6782   24.1227 H   0  0  0  0  0  0
  -27.3950  -29.7289   25.4808 H   0  0  0  0  0  0
  -27.8858  -30.4297   23.9572 H   0  0  0  0  0  0
  -27.2667  -33.3699   26.2039 H   0  0  0  0  0  0
  -28.3871  -32.6877   25.0352 H   0  0  0  0  0  0
  -28.0685  -31.8528   26.5471 H   0  0  0  0  0  0
  -28.2604  -38.0100   24.7544 H   0  0  0  0  0  0
  -28.1095  -36.2631   24.6271 H   0  0  0  0  0  0
  -27.2308  -37.1416   25.8874 H   0  0  0  0  0  0
  -20.9438  -29.8792   21.6877 H   0  0  0  0  0  0
  -26.0175  -38.2857   24.1437 H   0  0  0  0  0  0
  -28.6801  -19.8901   21.9950 H   0  0  0  0  0  0
  -29.6730  -21.4797   18.0798 H   0  0  0  0  0  0
  -28.4713  -16.7879   21.5877 H   0  0  0  0  0  0
  -30.1465  -17.0442   22.0704 H   0  0  0  0  0  0
  -31.2529  -16.7137   18.6868 H   0  0  0  0  0  0
  -29.6049  -16.4291   18.1488 H   0  0  0  0  0  0
  -28.2426  -24.8733   21.7007 H   0  0  0  0  0  0
  -26.9575  -24.6414   20.5713 H   0  0  0  0  0  0
  -28.0887  -22.3212   21.3718 H   0  0  0  0  0  0
  1 25  1  0  0  0
  1 30  2  0  0  0
  1 81  1  0  0  0
  2  3  1  0  0  0
  2 25  1  0  0  0
  2 85  1  0  0  0
  2 86  1  0  0  0
  3  4  1  0  0  0
  3 87  1  0  0  0
  3 88  1  0  0  0
  4  5  1  0  0  0
  4 89  1  0  0  0
  4 90  1  0  0  0
  5  6  1  0  0  0
  5 26  1  0  0  0
  5 91  1  0  0  0
  6 25  1  0  0  0
  6 92  1  0  0  0
  6 93  1  0  0  0
  7  8  2  0  0  0
  7 26  1  0  0  0
  7 29  1  0  0  0
  8  9  1  0  0  0
  8 22  1  0  0  0
  9 10  1  0  0  0
  9 27  2  0  0  0
 10 11  2  0  0  0
 10 15  1  0  0  0
 11 12  1  0  0  0
 11 94  1  0  0  0
 12 13  2  0  0  0
 12 95  1  0  0  0
 13 14  1  0  0  0
 13 31  1  0  0  0
 14 15  2  0  0  0
 14 96  1  0  0  0
 15 97  1  0  0  0
 16 17  2  0  0  0
 16 21  1  0  0  0
 16 31  1  0  0  0
 17 18  1  0  0  0
 17 98  1  0  0  0
 18 19  2  0  0  0
 18 99  1  0  0  0
 19 20  1  0  0  0
 19 24  1  0  0  0
 20 21  2  0  0  0
 20100  1  0  0  0
 21 23  1  0  0  0
 22 28  1  0  0  0
 22 32  2  0  0  0
 26 27  1  0  0  0
 28101  1  0  0  0
 28102  1  0  0  0
 29103  1  0  0  0
 29104  1  0  0  0
 33 34  1  0  0  0
 33 66  1  0  0  0
 33 70  2  0  0  0
 34 36  1  0  0  0
 34 59  1  0  0  0
 34105  1  0  0  0
 35 44  2  0  0  0
 35 45  1  0  0  0
 35 68  1  0  0  0
 36 56  1  0  0  0
 36106  1  0  0  0
 37 39  1  0  0  0
 37 47  1  0  0  0
 37 66  1  0  0  0
 37107  1  0  0  0
 38 43  2  0  0  0
 38 46  1  0  0  0
 38 47  1  0  0  0
 39 64  1  0  0  0
 39 67  2  0  0  0
 40 52  1  0  0  0
 40 53  2  0  0  0
 40 58  1  0  0  0
 41108  1  0  0  0
 41109  1  0  0  0
 41110  1  0  0  0
 41 48  1  0  0  0
 42 43  1  0  0  0
 42 66  1  0  0  0
 42111  1  0  0  0
 42112  1  0  0  0
 43 44  1  0  0  0
 44113  1  0  0  0
 45 46  2  0  0  0
 45114  1  0  0  0
 46115  1  0  0  0
 47116  1  0  0  0
 47117  1  0  0  0
 48 56  1  0  0  0
 48 65  1  0  0  0
 48118  1  0  0  0
 49 50  1  0  0  0
 49 53  1  0  0  0
 49 64  1  0  0  0
 49119  1  0  0  0
 50 51  1  0  0  0
 50120  1  0  0  0
 50121  1  0  0  0
 51 52  1  0  0  0
 51122  1  0  0  0
 51123  1  0  0  0
 52124  1  0  0  0
 52125  1  0  0  0
 53 54  1  0  0  0
 54 55  2  0  0  0
 54126  1  0  0  0
 55 57  1  0  0  0
 55127  1  0  0  0
 56 69  2  0  0  0
 57 58  2  0  0  0
 57128  1  0  0  0
 58129  1  0  0  0
 59 60  1  0  0  0
 59 61  1  0  0  0
 59 62  1  0  0  0
 60130  1  0  0  0
 60131  1  0  0  0
 60132  1  0  0  0
 61133  1  0  0  0
 61134  1  0  0  0
 61135  1  0  0  0
 62136  1  0  0  0
 62137  1  0  0  0
 62138  1  0  0  0
 63 65  1  0  0  0
 63139  1  0  0  0
 63140  1  0  0  0
 63141  1  0  0  0
 64142  1  0  0  0
 65143  1  0  0  0
 68 80  1  0  0  0
 71 73  2  0  0  0
 71 75  1  0  0  0
 71144  1  0  0  0
 72 75  2  0  0  0
 72 76  1  0  0  0
 72145  1  0  0  0
 73 74  1  0  0  0
 73 78  1  0  0  0
 74 76  2  0  0  0
 74 79  1  0  0  0
 75 82  1  0  0  0
 76 84  1  0  0  0
 77 80  1  0  0  0
 77 82  1  0  0  0
 77 83  2  0  0  0
 78 81  1  0  0  0
 78146  1  0  0  0
 78147  1  0  0  0
 79 81  1  0  0  0
 79148  1  0  0  0
 79149  1  0  0  0
 80150  1  0  0  0
 80151  1  0  0  0
 82152  1  0  0  0
M  ISO  4   1 100  68 101  80 101  81 100
M  END
> <chiral flag>
0

> <version>
0

> <s_m_source_file>
/data/baiqing/PycharmProjects/Reinvent-master-3.2/result/LINK_invent/BTK/process_docking_weight1_custom_product_contain_oxygen_bond_distance_aromatic_linkinvent_7_9_3/rearranged_h_0154.sdf

> <i_m_source_file_index>
63

> <r_mmod_Potential_Energy-OPLS-2005>
366.777709960938

> <r_mmod_Stretch_Energy-OPLS-2005>
146.687957763672

> <r_mmod_Bend_Energy-OPLS-2005>
215.67724609375

> <r_mmod_Torsional_Energy-OPLS-2005>
291.560424804688

> <r_mmod_Improper_Torsional_Energy-OPLS-2005>
19.8064231872559

> <r_mmod_Van_der_Waal_Energy-OPLS-2005>
127.461555480957

> <r_mmod_Electrostatic_Energy-OPLS-2005>
-313.0888671875

> <r_mmod_Solvation_Energy-OPLS-2005>
-233.325149536133

> <b_mmod_Minimization_Converged-OPLS-2005>
0

> <r_mmod_RMS_Derivative-OPLS-2005>
1.54953169822693

$$$$
63
                    3D
 Structure written by MMmdl.
160169  0  0  1  0            999 V2000
  -30.7471  -14.4668   20.5828 C   0  0  0  0  0  0
  -30.4169  -12.3245   19.4016 C   0  0  0  0  0  0
  -29.4814  -12.4937   18.1864 C   0  0  0  0  0  0
  -28.0040  -12.3544   18.6060 C   0  0  0  0  0  0
  -27.6523  -13.2007   19.8609 C   0  0  2  0  0  0
  -28.7000  -12.9635   20.9644 C   0  0  0  0  0  0
  -25.2545  -13.8155   20.5666 C   0  0  0  0  0  0
  -24.1797  -13.0440   20.9173 C   0  0  0  0  0  0
  -24.6359  -11.6907   20.8757 C   0  0  0  0  0  0
  -23.9030  -10.4298   21.0403 C   0  0  0  0  0  0
  -24.3604   -9.4208   21.9155 C   0  0  0  0  0  0
  -23.6295   -8.2251   22.0743 C   0  0  0  0  0  0
  -22.4270   -8.0282   21.3567 C   0  0  0  0  0  0
  -21.9904   -9.0222   20.4646 C   0  0  0  0  0  0
  -22.7222  -10.2103   20.3035 C   0  0  0  0  0  0
  -21.6875   -6.0736   22.5289 C   0  0  0  0  0  0
  -21.4039   -6.5648   23.8218 C   0  0  0  0  0  0
  -21.3654   -5.6808   24.9181 C   0  0  0  0  0  0
  -21.6044   -4.3075   24.7243 C   0  0  0  0  0  0
  -21.8831   -3.8145   23.4388 C   0  0  0  0  0  0
  -21.9196   -4.6955   22.3428 C   0  0  0  0  0  0
  -22.7815  -13.5219   21.1830 C   0  0  0  0  0  0
  -22.1657   -4.2153   21.1014 F   0  0  0  0  0  0
  -21.5617   -3.4560   25.7765 F   0  0  0  0  0  0
  -30.0160  -13.3236   20.4144 N   0  0  0  0  0  0
  -26.2983  -12.9302   20.3349 N   0  0  0  0  0  0
  -25.9294  -11.6485   20.5813 N   0  0  0  0  0  0
  -22.0497  -12.8171   22.0374 N   0  0  0  0  0  0
  -25.4260  -15.1872   20.3983 N   0  0  0  0  0  0
  -31.9200  -14.4983   20.1934 O   0  0  0  0  0  0
  -21.6646   -6.8877   21.4271 O   0  0  0  0  0  0
  -22.3466  -14.5527   20.6697 O   0  0  0  0  0  0
  -24.6107  -31.8701   23.2163 C   0  0  0  0  0  0
  -25.9019  -32.4853   23.8447 C   0  0  1  0  0  0
  -27.2407  -27.4703   20.1121 C   0  0  0  0  0  0
  -25.5871  -33.8639   24.2376 N   0  0  0  0  0  0
  -23.4003  -30.5000   21.5497 C   0  0  2  0  0  0
  -24.8475  -28.9718   20.1145 C   0  0  0  0  0  0
  -22.7406  -29.4686   22.4929 C   0  0  0  0  0  0
  -18.0271  -28.1416   22.8508 C   0  0  0  0  0  0
  -24.1471  -36.7346   23.2634 C   0  0  0  0  0  0
  -25.9236  -30.8595   21.3539 C   0  0  0  0  0  0
  -26.0047  -29.4920   20.7101 C   0  0  0  0  0  0
  -27.1998  -28.7489   20.7045 C   0  0  0  0  0  0
  -26.0651  -26.9544   19.5116 C   0  0  0  0  0  0
  -24.8712  -27.7018   19.5135 C   0  0  0  0  0  0
  -23.6148  -29.8443   20.1585 C   0  0  0  0  0  0
  -25.4094  -36.3154   24.0348 C   0  0  1  0  0  0
  -20.5866  -28.3694   23.1327 C   0  0  2  0  0  0
  -20.6766  -26.9424   22.5427 C   0  0  0  0  0  0
  -19.5731  -26.6411   21.5238 C   0  0  0  0  0  0
  -18.1915  -26.7966   22.1639 C   0  0  0  0  0  0
  -19.1523  -28.8871   23.2932 C   0  0  0  0  0  0
  -18.9439  -30.1476   23.8952 C   0  0  0  0  0  0
  -17.6449  -30.6628   24.0574 C   0  0  0  0  0  0
  -25.9023  -34.9499   23.5176 C   0  0  0  0  0  0
  -16.5347  -29.9149   23.6299 C   0  0  0  0  0  0
  -16.7260  -28.6558   23.0331 C   0  0  0  0  0  0
  -26.4448  -31.6598   25.0743 C   0  0  0  0  0  0
  -25.3736  -31.3673   26.1495 C   0  0  0  0  0  0
  -27.0214  -30.3048   24.6044 C   0  0  0  0  0  0
  -27.6060  -32.4243   25.7515 C   0  0  0  0  0  0
  -27.5588  -37.1819   24.8456 C   0  0  0  0  0  0
  -21.4124  -29.3083   22.3731 N   0  0  0  0  0  0
  -26.4273  -37.3835   23.9430 N   0  0  0  0  0  0
  -24.6651  -31.0877   22.1021 N   0  0  0  0  0  0
  -23.4194  -28.8200   23.2946 O   0  0  0  0  0  0
  -28.4321  -26.7840   20.1631 O   0  0  0  0  0  0
  -26.5587  -34.8931   22.4737 O   0  0  0  0  0  0
  -23.5306  -32.1393   23.7578 O   0  0  0  0  0  0
  -29.1967  -19.7993   21.9295 C   0  0  0  0  0  0
  -30.2874  -20.6137   19.9155 C   0  0  0  0  0  0
  -29.5920  -18.4771   21.5964 C   0  0  0  0  0  0
  -30.2661  -18.2240   20.3844 C   0  0  0  0  0  0
  -30.6594  -19.3095   19.5650 C   0  0  0  0  0  0
  -29.4854  -20.8713   21.0479 C   0  0  0  0  0  0
  -28.4455  -25.4462   19.8801 C   0  0  0  0  0  0
  -28.6722  -24.4858   20.7991 C   0  0  0  0  0  0
  -28.7164  -23.1024   20.3313 C   0  0  0  0  0  0
  -29.3386  -17.3168   22.5384 C   0  0  0  0  0  0
  -30.6032  -16.8022   19.9566 C   0  0  0  0  0  0
  -29.1201  -15.9637   21.8228 C   0  0  0  0  0  0
  -31.4652  -19.1229   18.2889 C   0  0  0  0  0  0
  -30.0926  -15.6571   20.7522 N   0  0  0  0  0  0
  -29.0209  -22.2006   21.2887 N   0  0  0  0  0  0
  -28.4876  -22.7743   19.1617 O   0  0  0  0  0  0
  -28.8755  -24.7896   22.0922 O   0  0  0  0  0  0
  -31.4533  -12.4265   19.0725 H   0  0  0  0  0  0
  -30.3416  -11.3171   19.8118 H   0  0  0  0  0  0
  -29.7200  -11.7530   17.4201 H   0  0  0  0  0  0
  -29.6398  -13.4703   17.7287 H   0  0  0  0  0  0
  -27.8277  -11.3000   18.8145 H   0  0  0  0  0  0
  -27.3470  -12.6085   17.7742 H   0  0  0  0  0  0
  -27.6974  -14.2500   19.5680 H   0  0  0  0  0  0
  -28.7052  -11.9084   21.2392 H   0  0  0  0  0  0
  -28.4327  -13.4613   21.8874 H   0  0  0  0  0  0
  -25.2760   -9.5669   22.4697 H   0  0  0  0  0  0
  -24.0024   -7.4651   22.7462 H   0  0  0  0  0  0
  -21.0838   -8.8713   19.8948 H   0  0  0  0  0  0
  -22.3671  -10.9617   19.6126 H   0  0  0  0  0  0
  -21.2050   -7.6152   23.9742 H   0  0  0  0  0  0
  -21.1444   -6.0525   25.9096 H   0  0  0  0  0  0
  -22.0595   -2.7613   23.2904 H   0  0  0  0  0  0
  -22.4200  -11.9852   22.4710 H   0  0  0  0  0  0
  -21.1127  -13.1166   22.2658 H   0  0  0  0  0  0
  -24.6580  -15.8447   20.4885 H   0  0  0  0  0  0
  -26.2888  -15.6234   20.1020 H   0  0  0  0  0  0
  -26.7134  -32.5600   23.1246 H   0  0  0  0  0  0
  -24.9947  -33.9824   25.0470 H   0  0  0  0  0  0
  -22.6889  -31.3174   21.4143 H   0  0  0  0  0  0
  -23.3746  -35.9668   23.3253 H   0  0  0  0  0  0
  -24.3589  -36.9004   22.2071 H   0  0  0  0  0  0
  -23.7207  -37.6529   23.6657 H   0  0  0  0  0  0
  -26.0090  -31.6203   20.5758 H   0  0  0  0  0  0
  -26.8238  -30.9336   21.9530 H   0  0  0  0  0  0
  -28.0964  -29.1495   21.1568 H   0  0  0  0  0  0
  -26.0537  -25.9774   19.0497 H   0  0  0  0  0  0
  -23.9809  -27.2948   19.0543 H   0  0  0  0  0  0
  -23.7503  -30.6322   19.4158 H   0  0  0  0  0  0
  -22.7354  -29.2840   19.8364 H   0  0  0  0  0  0
  -25.1249  -36.2022   25.0842 H   0  0  0  0  0  0
  -20.9980  -28.3281   24.1436 H   0  0  0  0  0  0
  -20.5702  -26.2303   23.3630 H   0  0  0  0  0  0
  -21.6636  -26.7489   22.1205 H   0  0  0  0  0  0
  -19.6890  -25.6327   21.1276 H   0  0  0  0  0  0
  -19.6678  -27.3222   20.6789 H   0  0  0  0  0  0
  -17.4185  -26.6734   21.4040 H   0  0  0  0  0  0
  -18.0282  -26.0115   22.9041 H   0  0  0  0  0  0
  -19.7904  -30.7276   24.2360 H   0  0  0  0  0  0
  -17.4993  -31.6294   24.5174 H   0  0  0  0  0  0
  -15.5351  -30.3078   23.7562 H   0  0  0  0  0  0
  -15.8652  -28.0904   22.6997 H   0  0  0  0  0  0
  -24.5913  -30.7010   25.7836 H   0  0  0  0  0  0
  -24.8894  -32.2800   26.4969 H   0  0  0  0  0  0
  -25.8095  -30.8830   27.0239 H   0  0  0  0  0  0
  -26.2720  -29.6893   24.1042 H   0  0  0  0  0  0
  -27.3949  -29.7197   25.4460 H   0  0  0  0  0  0
  -27.8573  -30.4379   23.9171 H   0  0  0  0  0  0
  -27.2736  -33.3524   26.2163 H   0  0  0  0  0  0
  -28.3846  -32.6810   25.0325 H   0  0  0  0  0  0
  -28.0726  -31.8280   26.5366 H   0  0  0  0  0  0
  -28.2565  -38.0148   24.7563 H   0  0  0  0  0  0
  -28.1121  -36.2697   24.6183 H   0  0  0  0  0  0
  -27.2322  -37.1362   25.8853 H   0  0  0  0  0  0
  -20.9263  -29.8868   21.7015 H   0  0  0  0  0  0
  -26.0169  -38.2894   24.1495 H   0  0  0  0  0  0
  -28.6565  -19.9807   22.8501 H   0  0  0  0  0  0
  -30.5934  -21.4277   19.2733 H   0  0  0  0  0  0
  -28.2752  -25.2604   18.8288 H   0  0  0  0  0  0
  -28.4940  -17.5368   23.1968 H   0  0  0  0  0  0
  -30.2080  -17.2375   23.1937 H   0  0  0  0  0  0
  -31.6926  -16.8028   19.9138 H   0  0  0  0  0  0
  -30.2592  -16.6672   18.9301 H   0  0  0  0  0  0
  -28.1160  -15.9316   21.3913 H   0  0  0  0  0  0
  -29.1644  -15.2180   22.6154 H   0  0  0  0  0  0
  -31.9508  -20.0592   18.0042 H   0  0  0  0  0  0
  -30.8201  -18.8231   17.4618 H   0  0  0  0  0  0
  -32.2597  -18.3867   18.3994 H   0  0  0  0  0  0
  -28.9536  -22.5265   22.2447 H   0  0  0  0  0  0
  -28.8297  -25.7352   22.1668 H   0  0  0  0  0  0
  1 25  1  0  0  0
  1 30  2  0  0  0
  1 84  1  0  0  0
  2  3  1  0  0  0
  2 25  1  0  0  0
  2 88  1  0  0  0
  2 89  1  0  0  0
  3  4  1  0  0  0
  3 90  1  0  0  0
  3 91  1  0  0  0
  4  5  1  0  0  0
  4 92  1  0  0  0
  4 93  1  0  0  0
  5  6  1  0  0  0
  5 26  1  0  0  0
  5 94  1  0  0  0
  6 25  1  0  0  0
  6 95  1  0  0  0
  6 96  1  0  0  0
  7  8  2  0  0  0
  7 26  1  0  0  0
  7 29  1  0  0  0
  8  9  1  0  0  0
  8 22  1  0  0  0
  9 10  1  0  0  0
  9 27  2  0  0  0
 10 11  2  0  0  0
 10 15  1  0  0  0
 11 12  1  0  0  0
 11 97  1  0  0  0
 12 13  2  0  0  0
 12 98  1  0  0  0
 13 14  1  0  0  0
 13 31  1  0  0  0
 14 15  2  0  0  0
 14 99  1  0  0  0
 15100  1  0  0  0
 16 17  2  0  0  0
 16 21  1  0  0  0
 16 31  1  0  0  0
 17 18  1  0  0  0
 17101  1  0  0  0
 18 19  2  0  0  0
 18102  1  0  0  0
 19 20  1  0  0  0
 19 24  1  0  0  0
 20 21  2  0  0  0
 20103  1  0  0  0
 21 23  1  0  0  0
 22 28  1  0  0  0
 22 32  2  0  0  0
 26 27  1  0  0  0
 28104  1  0  0  0
 28105  1  0  0  0
 29106  1  0  0  0
 29107  1  0  0  0
 33 34  1  0  0  0
 33 66  1  0  0  0
 33 70  2  0  0  0
 34 36  1  0  0  0
 34 59  1  0  0  0
 34108  1  0  0  0
 35 44  2  0  0  0
 35 45  1  0  0  0
 35 68  1  0  0  0
 36 56  1  0  0  0
 36109  1  0  0  0
 37 39  1  0  0  0
 37 47  1  0  0  0
 37 66  1  0  0  0
 37110  1  0  0  0
 38 43  2  0  0  0
 38 46  1  0  0  0
 38 47  1  0  0  0
 39 64  1  0  0  0
 39 67  2  0  0  0
 40 52  1  0  0  0
 40 53  2  0  0  0
 40 58  1  0  0  0
 41111  1  0  0  0
 41112  1  0  0  0
 41113  1  0  0  0
 41 48  1  0  0  0
 42 43  1  0  0  0
 42 66  1  0  0  0
 42114  1  0  0  0
 42115  1  0  0  0
 43 44  1  0  0  0
 44116  1  0  0  0
 45 46  2  0  0  0
 45117  1  0  0  0
 46118  1  0  0  0
 47119  1  0  0  0
 47120  1  0  0  0
 48 56  1  0  0  0
 48 65  1  0  0  0
 48121  1  0  0  0
 49 50  1  0  0  0
 49 53  1  0  0  0
 49 64  1  0  0  0
 49122  1  0  0  0
 50 51  1  0  0  0
 50123  1  0  0  0
 50124  1  0  0  0
 51 52  1  0  0  0
 51125  1  0  0  0
 51126  1  0  0  0
 52127  1  0  0  0
 52128  1  0  0  0
 53 54  1  0  0  0
 54 55  2  0  0  0
 54129  1  0  0  0
 55 57  1  0  0  0
 55130  1  0  0  0
 56 69  2  0  0  0
 57 58  2  0  0  0
 57131  1  0  0  0
 58132  1  0  0  0
 59 60  1  0  0  0
 59 61  1  0  0  0
 59 62  1  0  0  0
 60133  1  0  0  0
 60134  1  0  0  0
 60135  1  0  0  0
 61136  1  0  0  0
 61137  1  0  0  0
 61138  1  0  0  0
 62139  1  0  0  0
 62140  1  0  0  0
 62141  1  0  0  0
 63 65  1  0  0  0
 63142  1  0  0  0
 63143  1  0  0  0
 63144  1  0  0  0
 64145  1  0  0  0
 65146  1  0  0  0
 68 77  1  0  0  0
 71 73  2  0  0  0
 71 76  1  0  0  0
 71147  1  0  0  0
 72 75  1  0  0  0
 72 76  2  0  0  0
 72148  1  0  0  0
 73 74  1  0  0  0
 73 80  1  0  0  0
 74 75  2  0  0  0
 74 81  1  0  0  0
 75 83  1  0  0  0
 76 85  1  0  0  0
 77 78  2  0  0  0
 77149  1  0  0  0
 78 79  1  0  0  0
 78 87  1  0  0  0
 79 85  1  0  0  0
 79 86  2  0  0  0
 80 82  1  0  0  0
 80150  1  0  0  0
 80151  1  0  0  0
 81 84  1  0  0  0
 81152  1  0  0  0
 81153  1  0  0  0
 82 84  1  0  0  0
 82154  1  0  0  0
 82155  1  0  0  0
 83156  1  0  0  0
 83157  1  0  0  0
 83158  1  0  0  0
 85159  1  0  0  0
 87160  1  0  0  0
M  ISO  4   1 100  68 101  77 101  84 100
M  END
> <chiral flag>
0

> <version>
0

> <s_m_source_file>
/data/baiqing/PycharmProjects/Reinvent-master-3.2/result/LINK_invent/BTK/process_docking_weight1_custom_product_contain_oxygen_bond_distance_aromatic_linkinvent_7_9_3/rearranged_h_0154.sdf

> <i_m_source_file_index>
64

> <r_mmod_Potential_Energy-OPLS-2005>
85.0872421264648

> <r_mmod_Stretch_Energy-OPLS-2005>
41.0846290588379

> <r_mmod_Bend_Energy-OPLS-2005>
121.20694732666

> <r_mmod_Torsional_Energy-OPLS-2005>
293.748809814453

> <r_mmod_Improper_Torsional_Energy-OPLS-2005>
13.6528453826904

> <r_mmod_Van_der_Waal_Energy-OPLS-2005>
188.619888305664

> <r_mmod_Electrostatic_Energy-OPLS-2005>
-381.999084472656

> <r_mmod_Solvation_Energy-OPLS-2005>
-211.200973510742

> <b_mmod_Minimization_Converged-OPLS-2005>
0

> <r_mmod_RMS_Derivative-OPLS-2005>
5.01243543624878

$$$$
64
                    3D
 Structure written by MMmdl.
157166  0  0  1  0            999 V2000
  -30.6329  -14.7664   20.4248 C   0  0  0  0  0  0
  -30.4217  -12.4620   19.4804 C   0  0  0  0  0  0
  -29.5067  -12.4906   18.2382 C   0  0  0  0  0  0
  -28.0336  -12.3186   18.6549 C   0  0  0  0  0  0
  -27.6343  -13.2388   19.8413 C   0  0  2  0  0  0
  -28.6813  -13.2137   20.9763 C   0  0  0  0  0  0
  -25.2484  -13.8213   20.5714 C   0  0  0  0  0  0
  -24.1793  -13.0460   20.9229 C   0  0  0  0  0  0
  -24.6381  -11.6939   20.8774 C   0  0  0  0  0  0
  -23.9055  -10.4310   21.0423 C   0  0  0  0  0  0
  -24.3610   -9.4214   21.9199 C   0  0  0  0  0  0
  -23.6295   -8.2247   22.0760 C   0  0  0  0  0  0
  -22.4284   -8.0276   21.3538 C   0  0  0  0  0  0
  -21.9916   -9.0246   20.4637 C   0  0  0  0  0  0
  -22.7244  -10.2128   20.3055 C   0  0  0  0  0  0
  -21.6845   -6.0743   22.5283 C   0  0  0  0  0  0
  -21.4003   -6.5639   23.8212 C   0  0  0  0  0  0
  -21.3657   -5.6789   24.9178 C   0  0  0  0  0  0
  -21.6042   -4.3057   24.7224 C   0  0  0  0  0  0
  -21.8825   -3.8146   23.4340 C   0  0  0  0  0  0
  -21.9193   -4.6965   22.3404 C   0  0  0  0  0  0
  -22.7807  -13.5219   21.1880 C   0  0  0  0  0  0
  -22.1668   -4.2156   21.0979 F   0  0  0  0  0  0
  -21.5629   -3.4531   25.7729 F   0  0  0  0  0  0
  -29.9796  -13.5527   20.3843 N   0  0  0  0  0  0
  -26.2906  -12.9428   20.3270 N   0  0  0  0  0  0
  -25.9305  -11.6573   20.5791 N   0  0  0  0  0  0
  -22.0436  -12.8219   22.0434 N   0  0  0  0  0  0
  -25.4131  -15.1942   20.4122 N   0  0  0  0  0  0
  -31.8335  -14.7818   20.1492 O   0  0  0  0  0  0
  -21.6646   -6.8880   21.4244 O   0  0  0  0  0  0
  -22.3499  -14.5523   20.6721 O   0  0  0  0  0  0
  -24.6343  -31.8546   23.1966 C   0  0  0  0  0  0
  -25.9165  -32.4746   23.8338 C   0  0  1  0  0  0
  -27.2174  -27.2618   20.1292 C   0  0  0  0  0  0
  -25.5960  -33.8554   24.2265 N   0  0  0  0  0  0
  -23.4290  -30.4778   21.5387 C   0  0  2  0  0  0
  -24.8763  -28.9173   20.1128 C   0  0  0  0  0  0
  -22.7499  -29.4641   22.4904 C   0  0  0  0  0  0
  -18.0291  -28.1411   22.8516 C   0  0  0  0  0  0
  -24.1465  -36.7214   23.2659 C   0  0  0  0  0  0
  -25.9763  -30.7684   21.3731 C   0  0  0  0  0  0
  -26.0489  -29.3895   20.7168 C   0  0  0  0  0  0
  -27.2272  -28.5750   20.7095 C   0  0  0  0  0  0
  -26.0242  -26.8506   19.5036 C   0  0  0  0  0  0
  -24.8685  -27.6577   19.4918 C   0  0  0  0  0  0
  -23.6471  -29.8053   20.1581 C   0  0  0  0  0  0
  -25.4099  -36.3030   24.0345 C   0  0  1  0  0  0
  -20.5904  -28.3711   23.1247 C   0  0  2  0  0  0
  -20.6767  -26.9423   22.5396 C   0  0  0  0  0  0
  -19.5709  -26.6375   21.5228 C   0  0  0  0  0  0
  -18.1900  -26.7968   22.1640 C   0  0  0  0  0  0
  -19.1553  -28.8879   23.2880 C   0  0  0  0  0  0
  -18.9481  -30.1500   23.8872 C   0  0  0  0  0  0
  -17.6476  -30.6609   24.0586 C   0  0  0  0  0  0
  -25.9059  -34.9432   23.5081 C   0  0  0  0  0  0
  -16.5362  -29.9098   23.6383 C   0  0  0  0  0  0
  -16.7277  -28.6518   23.0395 C   0  0  0  0  0  0
  -26.4539  -31.6587   25.0729 C   0  0  0  0  0  0
  -25.3764  -31.3711   26.1437 C   0  0  0  0  0  0
  -27.0441  -30.3028   24.6217 C   0  0  0  0  0  0
  -27.6070  -32.4362   25.7502 C   0  0  0  0  0  0
  -27.5543  -37.1744   24.8485 C   0  0  0  0  0  0
  -21.4209  -29.3050   22.3620 N   0  0  0  0  0  0
  -26.4245  -37.3746   23.9455 N   0  0  0  0  0  0
  -24.6991  -31.0528   22.0918 N   0  0  0  0  0  0
  -23.4195  -28.8199   23.3014 O   0  0  0  0  0  0
  -28.3048  -26.3650   20.1176 O   0  0  0  0  0  0
  -26.5615  -34.8912   22.4637 O   0  0  0  0  0  0
  -23.5496  -32.1354   23.7273 O   0  0  0  0  0  0
  -31.1917  -20.1774   20.1053 C   0  0  0  0  0  0
  -31.6664  -17.7583   20.2646 C   0  0  0  0  0  0
  -29.4024  -18.5581   20.3884 C   0  0  0  0  0  0
  -29.8188  -19.9191   20.2412 C   0  0  0  0  0  0
  -32.1056  -19.0990   20.1074 C   0  0  0  0  0  0
  -30.2950  -17.3970   20.4050 C   0  0  0  0  0  0
  -28.5075  -23.6716   19.9621 C   0  0  0  0  0  0
  -27.9077  -18.5952   20.5121 C   0  0  0  0  0  0
  -27.5661  -20.1207   20.4307 C   0  0  0  0  0  0
  -28.9361  -22.3405   20.7629 C   0  0  0  0  0  0
  -28.1176  -25.0123   20.7551 C   0  0  0  0  0  0
  -28.7874  -20.9230   20.1945 N   0  0  0  0  0  0
  -33.4707  -19.3595   19.9430 N   0  0  0  0  0  0
  -29.8950  -15.9512   20.5492 N   0  0  0  0  0  0
  -28.4558  -23.6477   18.7280 O   0  0  0  0  0  0
  -31.4653  -12.5612   19.1780 H   0  0  0  0  0  0
  -30.3532  -11.4978   19.9875 H   0  0  0  0  0  0
  -29.7951  -11.7024   17.5400 H   0  0  0  0  0  0
  -29.6323  -13.4344   17.7049 H   0  0  0  0  0  0
  -27.8951  -11.2746   18.9397 H   0  0  0  0  0  0
  -27.3718  -12.4866   17.8052 H   0  0  0  0  0  0
  -27.6183  -14.2530   19.4390 H   0  0  0  0  0  0
  -28.7195  -12.2325   21.4503 H   0  0  0  0  0  0
  -28.4135  -13.9241   21.7608 H   0  0  0  0  0  0
  -25.2752   -9.5703   22.4782 H   0  0  0  0  0  0
  -24.0005   -7.4637   22.7472 H   0  0  0  0  0  0
  -21.0860   -8.8752   19.8930 H   0  0  0  0  0  0
  -22.3701  -10.9663   19.6151 H   0  0  0  0  0  0
  -21.1978   -7.6145   23.9716 H   0  0  0  0  0  0
  -21.1475   -6.0518   25.9079 H   0  0  0  0  0  0
  -22.0601   -2.7611   23.2836 H   0  0  0  0  0  0
  -22.4031  -11.9862   22.4825 H   0  0  0  0  0  0
  -21.1051  -13.1254   22.2634 H   0  0  0  0  0  0
  -24.6350  -15.8358   20.5113 H   0  0  0  0  0  0
  -26.2451  -15.6344   20.0447 H   0  0  0  0  0  0
  -26.7247  -32.5398   23.1105 H   0  0  0  0  0  0
  -25.0216  -33.9727   25.0476 H   0  0  0  0  0  0
  -22.7270  -31.3016   21.3916 H   0  0  0  0  0  0
  -23.3750  -35.9517   23.3298 H   0  0  0  0  0  0
  -24.3572  -36.8845   22.2078 H   0  0  0  0  0  0
  -23.7180  -37.6391   23.6691 H   0  0  0  0  0  0
  -26.1229  -31.5295   20.6080 H   0  0  0  0  0  0
  -26.8537  -30.8151   22.0070 H   0  0  0  0  0  0
  -28.1309  -28.9399   21.1799 H   0  0  0  0  0  0
  -25.9837  -25.8827   19.0229 H   0  0  0  0  0  0
  -23.9735  -27.2911   19.0111 H   0  0  0  0  0  0
  -23.7731  -30.5807   19.4021 H   0  0  0  0  0  0
  -22.7655  -29.2400   19.8518 H   0  0  0  0  0  0
  -25.1294  -36.1826   25.0836 H   0  0  0  0  0  0
  -21.0052  -28.3278   24.1349 H   0  0  0  0  0  0
  -20.5671  -26.2337   23.3620 H   0  0  0  0  0  0
  -21.6620  -26.7436   22.1155 H   0  0  0  0  0  0
  -19.6839  -25.6273   21.1285 H   0  0  0  0  0  0
  -19.6638  -27.3186   20.6758 H   0  0  0  0  0  0
  -17.4187  -26.6791   21.4026 H   0  0  0  0  0  0
  -18.0237  -26.0117   22.9012 H   0  0  0  0  0  0
  -19.7969  -30.7347   24.2167 H   0  0  0  0  0  0
  -17.5042  -31.6300   24.5176 H   0  0  0  0  0  0
  -15.5364  -30.2985   23.7747 H   0  0  0  0  0  0
  -15.8673  -28.0835   22.7117 H   0  0  0  0  0  0
  -24.5954  -30.7054   25.7731 H   0  0  0  0  0  0
  -24.8950  -32.2880   26.4850 H   0  0  0  0  0  0
  -25.8098  -30.8880   27.0203 H   0  0  0  0  0  0
  -26.3044  -29.6699   24.1303 H   0  0  0  0  0  0
  -27.4230  -29.7363   25.4728 H   0  0  0  0  0  0
  -27.8862  -30.4345   23.9423 H   0  0  0  0  0  0
  -27.2670  -33.3694   26.2007 H   0  0  0  0  0  0
  -28.3910  -32.6873   25.0342 H   0  0  0  0  0  0
  -28.0709  -31.8540   26.5473 H   0  0  0  0  0  0
  -28.2534  -38.0061   24.7556 H   0  0  0  0  0  0
  -28.1062  -36.2595   24.6274 H   0  0  0  0  0  0
  -27.2286  -37.1317   25.8893 H   0  0  0  0  0  0
  -20.9379  -29.8750   21.6817 H   0  0  0  0  0  0
  -26.0092  -38.2792   24.1510 H   0  0  0  0  0  0
  -31.5411  -21.1919   19.9792 H   0  0  0  0  0  0
  -32.4381  -17.0090   20.2733 H   0  0  0  0  0  0
  -27.5853  -18.1605   21.4599 H   0  0  0  0  0  0
  -27.4397  -18.0402   19.6973 H   0  0  0  0  0  0
  -27.0811  -20.4332   21.3570 H   0  0  0  0  0  0
  -26.8467  -20.2954   19.6290 H   0  0  0  0  0  0
  -28.3883  -22.3673   21.7049 H   0  0  0  0  0  0
  -29.9763  -22.4928   21.0478 H   0  0  0  0  0  0
  -28.7030  -25.0188   21.6725 H   0  0  0  0  0  0
  -27.0810  -24.8992   21.0706 H   0  0  0  0  0  0
  -33.7492  -20.2329   19.5007 H   0  0  0  0  0  0
  -34.0891  -18.5886   19.7014 H   0  0  0  0  0  0
  -28.9114  -15.7911   20.7038 H   0  0  0  0  0  0
  1 25  1  0  0  0
  1 30  2  0  0  0
  1 84  1  0  0  0
  2  3  1  0  0  0
  2 25  1  0  0  0
  2 86  1  0  0  0
  2 87  1  0  0  0
  3  4  1  0  0  0
  3 88  1  0  0  0
  3 89  1  0  0  0
  4  5  1  0  0  0
  4 90  1  0  0  0
  4 91  1  0  0  0
  5  6  1  0  0  0
  5 26  1  0  0  0
  5 92  1  0  0  0
  6 25  1  0  0  0
  6 93  1  0  0  0
  6 94  1  0  0  0
  7  8  2  0  0  0
  7 26  1  0  0  0
  7 29  1  0  0  0
  8  9  1  0  0  0
  8 22  1  0  0  0
  9 10  1  0  0  0
  9 27  2  0  0  0
 10 11  2  0  0  0
 10 15  1  0  0  0
 11 12  1  0  0  0
 11 95  1  0  0  0
 12 13  2  0  0  0
 12 96  1  0  0  0
 13 14  1  0  0  0
 13 31  1  0  0  0
 14 15  2  0  0  0
 14 97  1  0  0  0
 15 98  1  0  0  0
 16 17  2  0  0  0
 16 21  1  0  0  0
 16 31  1  0  0  0
 17 18  1  0  0  0
 17 99  1  0  0  0
 18 19  2  0  0  0
 18100  1  0  0  0
 19 20  1  0  0  0
 19 24  1  0  0  0
 20 21  2  0  0  0
 20101  1  0  0  0
 21 23  1  0  0  0
 22 28  1  0  0  0
 22 32  2  0  0  0
 26 27  1  0  0  0
 28102  1  0  0  0
 28103  1  0  0  0
 29104  1  0  0  0
 29105  1  0  0  0
 33 34  1  0  0  0
 33 66  1  0  0  0
 33 70  2  0  0  0
 34 36  1  0  0  0
 34 59  1  0  0  0
 34106  1  0  0  0
 35 44  2  0  0  0
 35 45  1  0  0  0
 35 68  1  0  0  0
 36 56  1  0  0  0
 36107  1  0  0  0
 37 39  1  0  0  0
 37 47  1  0  0  0
 37 66  1  0  0  0
 37108  1  0  0  0
 38 43  2  0  0  0
 38 46  1  0  0  0
 38 47  1  0  0  0
 39 64  1  0  0  0
 39 67  2  0  0  0
 40 52  1  0  0  0
 40 53  2  0  0  0
 40 58  1  0  0  0
 41109  1  0  0  0
 41110  1  0  0  0
 41111  1  0  0  0
 41 48  1  0  0  0
 42 43  1  0  0  0
 42 66  1  0  0  0
 42112  1  0  0  0
 42113  1  0  0  0
 43 44  1  0  0  0
 44114  1  0  0  0
 45 46  2  0  0  0
 45115  1  0  0  0
 46116  1  0  0  0
 47117  1  0  0  0
 47118  1  0  0  0
 48 56  1  0  0  0
 48 65  1  0  0  0
 48119  1  0  0  0
 49 50  1  0  0  0
 49 53  1  0  0  0
 49 64  1  0  0  0
 49120  1  0  0  0
 50 51  1  0  0  0
 50121  1  0  0  0
 50122  1  0  0  0
 51 52  1  0  0  0
 51123  1  0  0  0
 51124  1  0  0  0
 52125  1  0  0  0
 52126  1  0  0  0
 53 54  1  0  0  0
 54 55  2  0  0  0
 54127  1  0  0  0
 55 57  1  0  0  0
 55128  1  0  0  0
 56 69  2  0  0  0
 57 58  2  0  0  0
 57129  1  0  0  0
 58130  1  0  0  0
 59 60  1  0  0  0
 59 61  1  0  0  0
 59 62  1  0  0  0
 60131  1  0  0  0
 60132  1  0  0  0
 60133  1  0  0  0
 61134  1  0  0  0
 61135  1  0  0  0
 61136  1  0  0  0
 62137  1  0  0  0
 62138  1  0  0  0
 62139  1  0  0  0
 63 65  1  0  0  0
 63140  1  0  0  0
 63141  1  0  0  0
 63142  1  0  0  0
 64143  1  0  0  0
 65144  1  0  0  0
 68 81  1  0  0  0
 71 74  2  0  0  0
 71 75  1  0  0  0
 71145  1  0  0  0
 72 75  2  0  0  0
 72 76  1  0  0  0
 72146  1  0  0  0
 73 74  1  0  0  0
 73 76  2  0  0  0
 73 78  1  0  0  0
 74 82  1  0  0  0
 75 83  1  0  0  0
 76 84  1  0  0  0
 77 80  1  0  0  0
 77 81  1  0  0  0
 77 85  2  0  0  0
 78 79  1  0  0  0
 78147  1  0  0  0
 78148  1  0  0  0
 79 82  1  0  0  0
 79149  1  0  0  0
 79150  1  0  0  0
 80 82  1  0  0  0
 80151  1  0  0  0
 80152  1  0  0  0
 81153  1  0  0  0
 81154  1  0  0  0
 83155  1  0  0  0
 83156  1  0  0  0
 84157  1  0  0  0
M  ISO  4   1 100  68 101  81 101  84 100
M  END
> <chiral flag>
0

> <version>
0

> <s_m_source_file>
/data/baiqing/PycharmProjects/Reinvent-master-3.2/result/LINK_invent/BTK/process_docking_weight1_custom_product_contain_oxygen_bond_distance_aromatic_linkinvent_7_9_3/rearranged_h_0154.sdf

> <i_m_source_file_index>
65

> <r_mmod_Potential_Energy-OPLS-2005>
319.422332763672

> <r_mmod_Stretch_Energy-OPLS-2005>
132.333633422852

> <r_mmod_Bend_Energy-OPLS-2005>
214.199569702148

> <r_mmod_Torsional_Energy-OPLS-2005>
243.556289672852

> <r_mmod_Improper_Torsional_Energy-OPLS-2005>
11.4562072753906

> <r_mmod_Van_der_Waal_Energy-OPLS-2005>
130.998840332031

> <r_mmod_Electrostatic_Energy-OPLS-2005>
-238.290908813477

> <r_mmod_Solvation_Energy-OPLS-2005>
-266.458465576172

> <b_mmod_Minimization_Converged-OPLS-2005>
0

> <r_mmod_RMS_Derivative-OPLS-2005>
3.43098378181458

$$$$
65
                    3D
 Structure written by MMmdl.
158167  0  0  1  0            999 V2000
  -30.5698  -14.7692   20.4565 C   0  0  0  0  0  0
  -30.4440  -12.4699   19.4679 C   0  0  0  0  0  0
  -29.5138  -12.5096   18.2340 C   0  0  0  0  0  0
  -28.0400  -12.3256   18.6484 C   0  0  0  0  0  0
  -27.6420  -13.2239   19.8490 C   0  0  2  0  0  0
  -28.6874  -13.1495   20.9835 C   0  0  0  0  0  0
  -25.2522  -13.8175   20.5687 C   0  0  0  0  0  0
  -24.1807  -13.0431   20.9209 C   0  0  0  0  0  0
  -24.6387  -11.6906   20.8746 C   0  0  0  0  0  0
  -23.9062  -10.4287   21.0405 C   0  0  0  0  0  0
  -24.3617   -9.4202   21.9182 C   0  0  0  0  0  0
  -23.6290   -8.2239   22.0750 C   0  0  0  0  0  0
  -22.4271   -8.0282   21.3545 C   0  0  0  0  0  0
  -21.9907   -9.0254   20.4648 C   0  0  0  0  0  0
  -22.7236  -10.2132   20.3054 C   0  0  0  0  0  0
  -21.6854   -6.0734   22.5278 C   0  0  0  0  0  0
  -21.4016   -6.5635   23.8211 C   0  0  0  0  0  0
  -21.3659   -5.6789   24.9174 C   0  0  0  0  0  0
  -21.6041   -4.3051   24.7227 C   0  0  0  0  0  0
  -21.8818   -3.8145   23.4349 C   0  0  0  0  0  0
  -21.9195   -4.6961   22.3404 C   0  0  0  0  0  0
  -22.7834  -13.5226   21.1873 C   0  0  0  0  0  0
  -22.1663   -4.2147   21.0982 F   0  0  0  0  0  0
  -21.5631   -3.4536   25.7741 F   0  0  0  0  0  0
  -29.9857  -13.5214   20.4046 N   0  0  0  0  0  0
  -26.2934  -12.9363   20.3259 N   0  0  0  0  0  0
  -25.9311  -11.6516   20.5733 N   0  0  0  0  0  0
  -22.0472  -12.8221   22.0427 N   0  0  0  0  0  0
  -25.4207  -15.1904   20.4094 N   0  0  0  0  0  0
  -31.7616  -14.9039   20.1610 O   0  0  0  0  0  0
  -21.6638   -6.8877   21.4239 O   0  0  0  0  0  0
  -22.3526  -14.5537   20.6722 O   0  0  0  0  0  0
  -24.6321  -31.8532   23.1964 C   0  0  0  0  0  0
  -25.9141  -32.4744   23.8317 C   0  0  1  0  0  0
  -27.2250  -27.2500   20.1393 C   0  0  0  0  0  0
  -25.5936  -33.8546   24.2247 N   0  0  0  0  0  0
  -23.4306  -30.4729   21.5396 C   0  0  2  0  0  0
  -24.8798  -28.9078   20.1198 C   0  0  0  0  0  0
  -22.7502  -29.4589   22.4909 C   0  0  0  0  0  0
  -18.0292  -28.1388   22.8478 C   0  0  0  0  0  0
  -24.1488  -36.7277   23.2638 C   0  0  0  0  0  0
  -25.9765  -30.7590   21.3805 C   0  0  0  0  0  0
  -26.0497  -29.3753   20.7337 C   0  0  0  0  0  0
  -27.2261  -28.5561   20.7372 C   0  0  0  0  0  0
  -26.0355  -26.8458   19.5033 C   0  0  0  0  0  0
  -24.8760  -27.6487   19.4971 C   0  0  0  0  0  0
  -23.6524  -29.8000   20.1590 C   0  0  0  0  0  0
  -25.4116  -36.3061   24.0326 C   0  0  1  0  0  0
  -20.5895  -28.3701   23.1263 C   0  0  2  0  0  0
  -20.6781  -26.9414   22.5410 C   0  0  0  0  0  0
  -19.5762  -26.6381   21.5207 C   0  0  0  0  0  0
  -18.1938  -26.7930   22.1612 C   0  0  0  0  0  0
  -19.1546  -28.8862   23.2864 C   0  0  0  0  0  0
  -18.9467  -30.1461   23.8886 C   0  0  0  0  0  0
  -17.6466  -30.6587   24.0559 C   0  0  0  0  0  0
  -25.9060  -34.9432   23.5090 C   0  0  0  0  0  0
  -16.5356  -29.9086   23.6328 C   0  0  0  0  0  0
  -16.7277  -28.6503   23.0349 C   0  0  0  0  0  0
  -26.4506  -31.6577   25.0715 C   0  0  0  0  0  0
  -25.3728  -31.3754   26.1441 C   0  0  0  0  0  0
  -27.0344  -30.2979   24.6230 C   0  0  0  0  0  0
  -27.6059  -32.4321   25.7487 C   0  0  0  0  0  0
  -27.5581  -37.1793   24.8464 C   0  0  0  0  0  0
  -21.4209  -29.3041   22.3646 N   0  0  0  0  0  0
  -26.4288  -37.3762   23.9408 N   0  0  0  0  0  0
  -24.6984  -31.0478   22.0950 N   0  0  0  0  0  0
  -23.4186  -28.8136   23.3025 O   0  0  0  0  0  0
  -28.3265  -26.3697   20.0719 O   0  0  0  0  0  0
  -26.5629  -34.8909   22.4658 O   0  0  0  0  0  0
  -23.5466  -32.1366   23.7243 O   0  0  0  0  0  0
  -30.9849  -18.0612   20.7233 C   0  0  0  0  0  0
  -30.7505  -19.5009   20.7033 C   0  0  0  0  0  0
  -29.4477  -19.9411   20.4830 C   0  0  0  0  0  0
  -29.8701  -17.2599   20.5705 C   0  0  0  0  0  0
  -31.9014  -20.3825   20.9070 C   0  0  0  0  0  0
  -27.1201  -22.9643   19.9615 C   0  0  0  0  0  0
  -27.5253  -21.4815   19.7196 C   0  0  0  0  0  0
  -29.3640  -22.6420   20.6793 C   0  0  0  0  0  0
  -28.4142  -23.7970   20.0812 C   0  0  2  0  0  0
  -28.8336  -21.2751   20.3327 N   0  0  0  0  0  0
  -31.9176  -21.2694   21.9068 N   0  0  0  0  0  0
  -29.7146  -15.8565   20.6191 N   0  0  0  0  0  0
  -28.1833  -25.0748   20.8756 N   0  0  0  0  0  0
  -32.9772  -20.2685   20.1194 N   0  3  0  0  0  0
  -28.5047  -18.4140   20.3397 S   0  0  0  0  0  0
  -31.4807  -12.6181   19.1613 H   0  0  0  0  0  0
  -30.4093  -11.4905   19.9476 H   0  0  0  0  0  0
  -29.8000  -11.7368   17.5191 H   0  0  0  0  0  0
  -29.6310  -13.4631   17.7167 H   0  0  0  0  0  0
  -27.8997  -11.2764   18.9123 H   0  0  0  0  0  0
  -27.3822  -12.5149   17.7990 H   0  0  0  0  0  0
  -27.6360  -14.2452   19.4679 H   0  0  0  0  0  0
  -28.7303  -12.1450   21.4075 H   0  0  0  0  0  0
  -28.4159  -13.8145   21.8053 H   0  0  0  0  0  0
  -25.2756   -9.5683   22.4762 H   0  0  0  0  0  0
  -24.0000   -7.4628   22.7466 H   0  0  0  0  0  0
  -21.0837   -8.8775   19.8953 H   0  0  0  0  0  0
  -22.3689  -10.9675   19.6173 H   0  0  0  0  0  0
  -21.2004   -7.6142   23.9716 H   0  0  0  0  0  0
  -21.1483   -6.0518   25.9078 H   0  0  0  0  0  0
  -22.0597   -2.7608   23.2852 H   0  0  0  0  0  0
  -22.4084  -11.9885   22.4824 H   0  0  0  0  0  0
  -21.1091  -13.1255   22.2624 H   0  0  0  0  0  0
  -24.6466  -15.8373   20.5142 H   0  0  0  0  0  0
  -26.2518  -15.6306   20.0377 H   0  0  0  0  0  0
  -26.7206  -32.5392   23.1055 H   0  0  0  0  0  0
  -25.0095  -33.9682   25.0402 H   0  0  0  0  0  0
  -22.7283  -31.2951   21.3887 H   0  0  0  0  0  0
  -23.3751  -35.9609   23.3292 H   0  0  0  0  0  0
  -24.3583  -36.8906   22.2055 H   0  0  0  0  0  0
  -23.7241  -37.6477   23.6667 H   0  0  0  0  0  0
  -26.1163  -31.5133   20.6048 H   0  0  0  0  0  0
  -26.8537  -30.8128   22.0136 H   0  0  0  0  0  0
  -28.1290  -28.9143   21.2109 H   0  0  0  0  0  0
  -26.0042  -25.8837   19.0117 H   0  0  0  0  0  0
  -23.9820  -27.2851   19.0088 H   0  0  0  0  0  0
  -23.7825  -30.5722   19.4001 H   0  0  0  0  0  0
  -22.7704  -29.2347   19.8531 H   0  0  0  0  0  0
  -25.1295  -36.1905   25.0818 H   0  0  0  0  0  0
  -20.9984  -28.3286   24.1383 H   0  0  0  0  0  0
  -20.5665  -26.2312   23.3617 H   0  0  0  0  0  0
  -21.6653  -26.7431   22.1216 H   0  0  0  0  0  0
  -19.6920  -25.6288   21.1250 H   0  0  0  0  0  0
  -19.6704  -27.3180   20.6726 H   0  0  0  0  0  0
  -17.4207  -26.6671   21.4014 H   0  0  0  0  0  0
  -18.0332  -26.0081   22.9014 H   0  0  0  0  0  0
  -19.7943  -30.7280   24.2244 H   0  0  0  0  0  0
  -17.5021  -31.6267   24.5166 H   0  0  0  0  0  0
  -15.5359  -30.2983   23.7665 H   0  0  0  0  0  0
  -15.8675  -28.0822   22.7070 H   0  0  0  0  0  0
  -24.5913  -30.7079   25.7789 H   0  0  0  0  0  0
  -24.8913  -32.2937   26.4816 H   0  0  0  0  0  0
  -25.8052  -30.8983   27.0246 H   0  0  0  0  0  0
  -26.2931  -29.6728   24.1239 H   0  0  0  0  0  0
  -27.3979  -29.7246   25.4770 H   0  0  0  0  0  0
  -27.8833  -30.4224   23.9501 H   0  0  0  0  0  0
  -27.2667  -33.3627   26.2048 H   0  0  0  0  0  0
  -28.3880  -32.6871   25.0322 H   0  0  0  0  0  0
  -28.0717  -31.8459   26.5421 H   0  0  0  0  0  0
  -28.2596  -38.0091   24.7507 H   0  0  0  0  0  0
  -28.1076  -36.2623   24.6287 H   0  0  0  0  0  0
  -27.2303  -37.1444   25.8867 H   0  0  0  0  0  0
  -20.9392  -29.8757   21.6847 H   0  0  0  0  0  0
  -26.0164  -38.2833   24.1414 H   0  0  0  0  0  0
  -31.9802  -17.6764   20.8927 H   0  0  0  0  0  0
  -26.5621  -23.0137   20.8979 H   0  0  0  0  0  0
  -26.4580  -23.3361   19.1791 H   0  0  0  0  0  0
  -27.6030  -21.2836   18.6490 H   0  0  0  0  0  0
  -26.7752  -20.8012   20.1265 H   0  0  0  0  0  0
  -29.4089  -22.7307   21.7654 H   0  0  0  0  0  0
  -30.3787  -22.7695   20.3004 H   0  0  0  0  0  0
  -28.7661  -24.0524   19.0806 H   0  0  0  0  0  0
  -31.1391  -21.2981   22.5475 H   0  0  0  0  0  0
  -32.6994  -21.8729   22.1028 H   0  0  0  0  0  0
  -28.7594  -15.5579   20.7409 H   0  0  0  0  0  0
  -27.2328  -25.0852   21.2332 H   0  0  0  0  0  0
  -32.9665  -19.6087   19.3557 H   0  0  0  0  0  0
  -33.8027  -20.8354   20.2266 H   0  0  0  0  0  0
  1 25  1  0  0  0
  1 30  2  0  0  0
  1 82  1  0  0  0
  2  3  1  0  0  0
  2 25  1  0  0  0
  2 86  1  0  0  0
  2 87  1  0  0  0
  3  4  1  0  0  0
  3 88  1  0  0  0
  3 89  1  0  0  0
  4  5  1  0  0  0
  4 90  1  0  0  0
  4 91  1  0  0  0
  5  6  1  0  0  0
  5 26  1  0  0  0
  5 92  1  0  0  0
  6 25  1  0  0  0
  6 93  1  0  0  0
  6 94  1  0  0  0
  7  8  2  0  0  0
  7 26  1  0  0  0
  7 29  1  0  0  0
  8  9  1  0  0  0
  8 22  1  0  0  0
  9 10  1  0  0  0
  9 27  2  0  0  0
 10 11  2  0  0  0
 10 15  1  0  0  0
 11 12  1  0  0  0
 11 95  1  0  0  0
 12 13  2  0  0  0
 12 96  1  0  0  0
 13 14  1  0  0  0
 13 31  1  0  0  0
 14 15  2  0  0  0
 14 97  1  0  0  0
 15 98  1  0  0  0
 16 17  2  0  0  0
 16 21  1  0  0  0
 16 31  1  0  0  0
 17 18  1  0  0  0
 17 99  1  0  0  0
 18 19  2  0  0  0
 18100  1  0  0  0
 19 20  1  0  0  0
 19 24  1  0  0  0
 20 21  2  0  0  0
 20101  1  0  0  0
 21 23  1  0  0  0
 22 28  1  0  0  0
 22 32  2  0  0  0
 26 27  1  0  0  0
 28102  1  0  0  0
 28103  1  0  0  0
 29104  1  0  0  0
 29105  1  0  0  0
 33 34  1  0  0  0
 33 66  1  0  0  0
 33 70  2  0  0  0
 34 36  1  0  0  0
 34 59  1  0  0  0
 34106  1  0  0  0
 35 44  2  0  0  0
 35 45  1  0  0  0
 35 68  1  0  0  0
 36 56  1  0  0  0
 36107  1  0  0  0
 37 39  1  0  0  0
 37 47  1  0  0  0
 37 66  1  0  0  0
 37108  1  0  0  0
 38 43  2  0  0  0
 38 46  1  0  0  0
 38 47  1  0  0  0
 39 64  1  0  0  0
 39 67  2  0  0  0
 40 52  1  0  0  0
 40 53  2  0  0  0
 40 58  1  0  0  0
 41109  1  0  0  0
 41110  1  0  0  0
 41111  1  0  0  0
 41 48  1  0  0  0
 42 43  1  0  0  0
 42 66  1  0  0  0
 42112  1  0  0  0
 42113  1  0  0  0
 43 44  1  0  0  0
 44114  1  0  0  0
 45 46  2  0  0  0
 45115  1  0  0  0
 46116  1  0  0  0
 47117  1  0  0  0
 47118  1  0  0  0
 48 56  1  0  0  0
 48 65  1  0  0  0
 48119  1  0  0  0
 49 50  1  0  0  0
 49 53  1  0  0  0
 49 64  1  0  0  0
 49120  1  0  0  0
 50 51  1  0  0  0
 50121  1  0  0  0
 50122  1  0  0  0
 51 52  1  0  0  0
 51123  1  0  0  0
 51124  1  0  0  0
 52125  1  0  0  0
 52126  1  0  0  0
 53 54  1  0  0  0
 54 55  2  0  0  0
 54127  1  0  0  0
 55 57  1  0  0  0
 55128  1  0  0  0
 56 69  2  0  0  0
 57 58  2  0  0  0
 57129  1  0  0  0
 58130  1  0  0  0
 59 60  1  0  0  0
 59 61  1  0  0  0
 59 62  1  0  0  0
 60131  1  0  0  0
 60132  1  0  0  0
 60133  1  0  0  0
 61134  1  0  0  0
 61135  1  0  0  0
 61136  1  0  0  0
 62137  1  0  0  0
 62138  1  0  0  0
 62139  1  0  0  0
 63 65  1  0  0  0
 63140  1  0  0  0
 63141  1  0  0  0
 63142  1  0  0  0
 64143  1  0  0  0
 65144  1  0  0  0
 68 83  1  0  0  0
 71 72  1  0  0  0
 71 74  2  0  0  0
 71145  1  0  0  0
 72 73  2  0  0  0
 72 75  1  0  0  0
 73 80  1  0  0  0
 73 85  1  0  0  0
 74 82  1  0  0  0
 74 85  1  0  0  0
 75 81  1  0  0  0
 75 84  2  0  0  0
 76 77  1  0  0  0
 76 79  1  0  0  0
 76146  1  0  0  0
 76147  1  0  0  0
 77 80  1  0  0  0
 77148  1  0  0  0
 77149  1  0  0  0
 78 79  1  0  0  0
 78 80  1  0  0  0
 78150  1  0  0  0
 78151  1  0  0  0
 79 83  1  0  0  0
 79152  1  0  0  0
 81153  1  0  0  0
 81154  1  0  0  0
 82155  1  0  0  0
 83156  1  0  0  0
 84157  1  0  0  0
 84158  1  0  0  0
M  CHG  1  84   1
M  ISO  4   1 100  68 101  82 100  83 101
M  END
> <chiral flag>
0

> <version>
0

> <s_m_source_file>
/data/baiqing/PycharmProjects/Reinvent-master-3.2/result/LINK_invent/BTK/process_docking_weight1_custom_product_contain_oxygen_bond_distance_aromatic_linkinvent_7_9_3/rearranged_h_0154.sdf

> <i_m_source_file_index>
66

> <r_mmod_Potential_Energy-OPLS-2005>
55.009651184082

> <r_mmod_Stretch_Energy-OPLS-2005>
118.298370361328

> <r_mmod_Bend_Energy-OPLS-2005>
217.270385742188

> <r_mmod_Torsional_Energy-OPLS-2005>
287.083679199219

> <r_mmod_Improper_Torsional_Energy-OPLS-2005>
5.84506464004517

> <r_mmod_Van_der_Waal_Energy-OPLS-2005>
104.948585510254

> <r_mmod_Electrostatic_Energy-OPLS-2005>
-268.022827148438

> <r_mmod_Solvation_Energy-OPLS-2005>
-501.978149414062

> <b_mmod_Minimization_Converged-OPLS-2005>
0

> <r_mmod_RMS_Derivative-OPLS-2005>
0.868292331695557

$$$$
66
                    3D
 Structure written by MMmdl.
170179  0  0  1  0            999 V2000
  -30.6874  -14.5730   20.5853 C   0  0  0  0  0  0
  -30.4338  -12.3727   19.4471 C   0  0  0  0  0  0
  -29.5017  -12.5338   18.2261 C   0  0  0  0  0  0
  -28.0245  -12.3756   18.6328 C   0  0  0  0  0  0
  -27.6604  -13.2188   19.8804 C   0  0  2  0  0  0
  -28.7081  -13.0378   21.0072 C   0  0  0  0  0  0
  -25.2459  -13.8073   20.5552 C   0  0  0  0  0  0
  -24.1812  -13.0350   20.9239 C   0  0  0  0  0  0
  -24.6422  -11.6852   20.8805 C   0  0  0  0  0  0
  -23.9072  -10.4245   21.0437 C   0  0  0  0  0  0
  -24.3611   -9.4164   21.9203 C   0  0  0  0  0  0
  -23.6292   -8.2198   22.0757 C   0  0  0  0  0  0
  -22.4279   -8.0246   21.3528 C   0  0  0  0  0  0
  -21.9919   -9.0218   20.4630 C   0  0  0  0  0  0
  -22.7254  -10.2101   20.3068 C   0  0  0  0  0  0
  -21.6848   -6.0727   22.5289 C   0  0  0  0  0  0
  -21.4019   -6.5639   23.8225 C   0  0  0  0  0  0
  -21.3662   -5.6799   24.9186 C   0  0  0  0  0  0
  -21.6039   -4.3059   24.7245 C   0  0  0  0  0  0
  -21.8827   -3.8150   23.4370 C   0  0  0  0  0  0
  -21.9195   -4.6954   22.3424 C   0  0  0  0  0  0
  -22.7827  -13.5138   21.1856 C   0  0  0  0  0  0
  -22.1660   -4.2137   21.0996 F   0  0  0  0  0  0
  -21.5617   -3.4552   25.7762 F   0  0  0  0  0  0
  -30.0406  -13.3682   20.4667 N   0  0  0  0  0  0
  -26.3010  -12.9346   20.3392 N   0  0  0  0  0  0
  -25.9372  -11.6493   20.5860 N   0  0  0  0  0  0
  -22.0475  -12.8143   22.0407 N   0  0  0  0  0  0
  -25.3811  -15.1734   20.3501 N   0  0  0  0  0  0
  -31.7552  -14.8006   20.0103 O   0  0  0  0  0  0
  -21.6634   -6.8852   21.4242 O   0  0  0  0  0  0
  -22.3524  -14.5434   20.6681 O   0  0  0  0  0  0
  -24.6212  -31.8617   23.2047 C   0  0  0  0  0  0
  -25.9081  -32.4787   23.8376 C   0  0  1  0  0  0
  -27.2363  -27.3543   20.1239 C   0  0  0  0  0  0
  -25.5923  -33.8586   24.2293 N   0  0  0  0  0  0
  -23.4150  -30.4826   21.5433 C   0  0  2  0  0  0
  -24.8666  -28.9407   20.1118 C   0  0  0  0  0  0
  -22.7453  -29.4627   22.4939 C   0  0  0  0  0  0
  -18.0283  -28.1378   22.8476 C   0  0  0  0  0  0
  -24.1485  -36.7285   23.2640 C   0  0  0  0  0  0
  -25.9518  -30.8031   21.3737 C   0  0  0  0  0  0
  -26.0303  -29.4326   20.7171 C   0  0  0  0  0  0
  -27.2164  -28.6490   20.7155 C   0  0  0  0  0  0
  -26.0557  -26.9066   19.4887 C   0  0  0  0  0  0
  -24.8791  -27.6809   19.4897 C   0  0  0  0  0  0
  -23.6310  -29.8148   20.1595 C   0  0  0  0  0  0
  -25.4115  -36.3075   24.0330 C   0  0  1  0  0  0
  -20.5877  -28.3678   23.1290 C   0  0  2  0  0  0
  -20.6763  -26.9402   22.5416 C   0  0  0  0  0  0
  -19.5749  -26.6377   21.5206 C   0  0  0  0  0  0
  -18.1920  -26.7918   22.1617 C   0  0  0  0  0  0
  -19.1531  -28.8842   23.2870 C   0  0  0  0  0  0
  -18.9460  -30.1440   23.8901 C   0  0  0  0  0  0
  -17.6461  -30.6572   24.0567 C   0  0  0  0  0  0
  -25.9057  -34.9448   23.5103 C   0  0  0  0  0  0
  -16.5352  -29.9080   23.6335 C   0  0  0  0  0  0
  -16.7272  -28.6501   23.0349 C   0  0  0  0  0  0
  -26.4483  -31.6587   25.0729 C   0  0  0  0  0  0
  -25.3722  -31.3728   26.1456 C   0  0  0  0  0  0
  -27.0332  -30.3015   24.6166 C   0  0  0  0  0  0
  -27.6030  -32.4324   25.7517 C   0  0  0  0  0  0
  -27.5575  -37.1806   24.8460 C   0  0  0  0  0  0
  -21.4170  -29.3036   22.3694 N   0  0  0  0  0  0
  -26.4291  -37.3770   23.9401 N   0  0  0  0  0  0
  -24.6798  -31.0654   22.0982 N   0  0  0  0  0  0
  -23.4182  -28.8165   23.3011 O   0  0  0  0  0  0
  -28.3721  -26.5449   20.1853 O   0  0  0  0  0  0
  -26.5602  -34.8905   22.4661 O   0  0  0  0  0  0
  -23.5387  -32.1416   23.7388 O   0  0  0  0  0  0
  -27.3587  -17.9132   20.7124 C   0  0  0  0  0  0
  -28.0082  -19.1131   20.3784 C   0  0  0  0  0  0
  -28.1033  -16.7745   21.0557 C   0  0  0  0  0  0
  -30.1676  -18.0178   20.7263 C   0  0  0  0  0  0
  -29.4144  -19.2196   20.4425 C   0  0  0  0  0  0
  -29.5094  -16.7677   21.0076 C   0  0  0  0  0  0
  -30.0379  -20.5600   20.1450 C   0  0  0  0  0  0
  -28.5887  -23.3151   22.1688 C   0  0  0  0  0  0
  -28.4409  -21.9461   21.5014 C   0  0  0  0  0  0
  -29.2499  -24.2529   21.1290 C   0  0  1  0  0  0
  -30.2036  -23.1827   20.4000 C   0  0  0  0  0  0
  -31.5964  -23.1980   21.0876 C   0  0  0  0  0  0
  -30.4005  -23.5275   18.9072 C   0  0  0  0  0  0
  -29.4796  -25.9347   22.9115 C   0  0  0  0  0  0
  -28.1866  -25.0834   20.2631 C   0  0  0  0  0  0
  -29.5935  -21.8014   20.5912 N   0  0  0  0  0  0
  -30.1140  -15.5055   21.3908 N   0  0  0  0  0  0
  -31.1046  -20.5362   19.3524 N   0  3  0  0  0  0
  -30.0565  -25.2370   21.8034 O   0  0  0  0  0  0
  -31.4767  -12.4805   19.1433 H   0  0  0  0  0  0
  -30.3476  -11.3656   19.8598 H   0  0  0  0  0  0
  -29.7545  -11.8045   17.4548 H   0  0  0  0  0  0
  -29.6541  -13.5179   17.7772 H   0  0  0  0  0  0
  -27.8403  -11.3186   18.8284 H   0  0  0  0  0  0
  -27.3749  -12.6457   17.7995 H   0  0  0  0  0  0
  -27.6884  -14.2620   19.5677 H   0  0  0  0  0  0
  -28.7042  -12.0065   21.3623 H   0  0  0  0  0  0
  -28.4468  -13.6398   21.8776 H   0  0  0  0  0  0
  -25.2753   -9.5652   22.4776 H   0  0  0  0  0  0
  -24.0003   -7.4587   22.7480 H   0  0  0  0  0  0
  -21.0857   -8.8746   19.8912 H   0  0  0  0  0  0
  -22.3721  -10.9642   19.6182 H   0  0  0  0  0  0
  -21.2016   -7.6152   23.9733 H   0  0  0  0  0  0
  -21.1465   -6.0522   25.9085 H   0  0  0  0  0  0
  -22.0600   -2.7610   23.2895 H   0  0  0  0  0  0
  -22.4138  -11.9824   22.4807 H   0  0  0  0  0  0
  -21.1065  -13.1117   22.2573 H   0  0  0  0  0  0
  -24.5241  -15.7154   20.3208 H   0  0  0  0  0  0
  -26.0628  -15.5006   19.6786 H   0  0  0  0  0  0
  -26.7146  -32.5478   23.1135 H   0  0  0  0  0  0
  -25.0123  -33.9753   25.0465 H   0  0  0  0  0  0
  -22.7070  -31.3003   21.3970 H   0  0  0  0  0  0
  -23.3759  -35.9607   23.3299 H   0  0  0  0  0  0
  -24.3576  -36.8913   22.2055 H   0  0  0  0  0  0
  -23.7225  -37.6479   23.6666 H   0  0  0  0  0  0
  -26.0789  -31.5692   20.6079 H   0  0  0  0  0  0
  -26.8326  -30.8521   22.0031 H   0  0  0  0  0  0
  -28.1071  -29.0152   21.2059 H   0  0  0  0  0  0
  -26.0268  -25.9447   18.9970 H   0  0  0  0  0  0
  -23.9866  -27.3006   19.0101 H   0  0  0  0  0  0
  -23.7474  -30.5887   19.4003 H   0  0  0  0  0  0
  -22.7560  -29.2364   19.8580 H   0  0  0  0  0  0
  -25.1302  -36.1938   25.0829 H   0  0  0  0  0  0
  -20.9968  -28.3234   24.1413 H   0  0  0  0  0  0
  -20.5649  -26.2286   23.3606 H   0  0  0  0  0  0
  -21.6630  -26.7414   22.1216 H   0  0  0  0  0  0
  -19.6911  -25.6287   21.1232 H   0  0  0  0  0  0
  -19.6693  -27.3191   20.6733 H   0  0  0  0  0  0
  -17.4191  -26.6682   21.4009 H   0  0  0  0  0  0
  -18.0315  -26.0048   22.9007 H   0  0  0  0  0  0
  -19.7932  -30.7244   24.2289 H   0  0  0  0  0  0
  -17.5017  -31.6262   24.5150 H   0  0  0  0  0  0
  -15.5354  -30.2986   23.7646 H   0  0  0  0  0  0
  -15.8675  -28.0818   22.7076 H   0  0  0  0  0  0
  -24.5893  -30.7081   25.7782 H   0  0  0  0  0  0
  -24.8930  -32.2905   26.4875 H   0  0  0  0  0  0
  -25.8052  -30.8907   27.0233 H   0  0  0  0  0  0
  -26.2916  -29.6791   24.1146 H   0  0  0  0  0  0
  -27.3990  -29.7240   25.4667 H   0  0  0  0  0  0
  -27.8797  -30.4311   23.9420 H   0  0  0  0  0  0
  -27.2623  -33.3630   26.2073 H   0  0  0  0  0  0
  -28.3868  -32.6880   25.0373 H   0  0  0  0  0  0
  -28.0661  -31.8468   26.5468 H   0  0  0  0  0  0
  -28.2574  -38.0113   24.7498 H   0  0  0  0  0  0
  -28.1085  -36.2641   24.6300 H   0  0  0  0  0  0
  -27.2288  -37.1473   25.8859 H   0  0  0  0  0  0
  -20.9335  -29.8796   21.6950 H   0  0  0  0  0  0
  -26.0175  -38.2849   24.1402 H   0  0  0  0  0  0
  -26.2789  -17.8657   20.7146 H   0  0  0  0  0  0
  -27.4046  -19.9582   20.0838 H   0  0  0  0  0  0
  -27.5787  -15.8831   21.3588 H   0  0  0  0  0  0
  -31.2467  -18.0602   20.7551 H   0  0  0  0  0  0
  -29.2301  -23.1799   23.0395 H   0  0  0  0  0  0
  -27.6340  -23.6919   22.5360 H   0  0  0  0  0  0
  -27.5094  -21.9145   20.9363 H   0  0  0  0  0  0
  -28.4108  -21.1589   22.2568 H   0  0  0  0  0  0
  -32.0968  -24.1578   20.9482 H   0  0  0  0  0  0
  -32.2757  -22.4463   20.6906 H   0  0  0  0  0  0
  -31.5154  -23.0269   22.1615 H   0  0  0  0  0  0
  -30.4384  -24.6072   18.7556 H   0  0  0  0  0  0
  -29.5931  -23.1360   18.2898 H   0  0  0  0  0  0
  -31.3359  -23.1382   18.5083 H   0  0  0  0  0  0
  -30.1356  -26.7573   23.1953 H   0  0  0  0  0  0
  -29.3796  -25.2965   23.7894 H   0  0  0  0  0  0
  -28.5000  -26.3565   22.6869 H   0  0  0  0  0  0
  -27.2048  -24.8851   20.6934 H   0  0  0  0  0  0
  -28.1120  -24.6924   19.2493 H   0  0  0  0  0  0
  -29.5271  -15.0143   22.0476 H   0  0  0  0  0  0
  -31.4085  -19.6588   18.9570 H   0  0  0  0  0  0
  -31.5486  -21.3846   19.0491 H   0  0  0  0  0  0
  1 25  1  0  0  0
  1 30  2  0  0  0
  1 87  1  0  0  0
  2  3  1  0  0  0
  2 25  1  0  0  0
  2 90  1  0  0  0
  2 91  1  0  0  0
  3  4  1  0  0  0
  3 92  1  0  0  0
  3 93  1  0  0  0
  4  5  1  0  0  0
  4 94  1  0  0  0
  4 95  1  0  0  0
  5  6  1  0  0  0
  5 26  1  0  0  0
  5 96  1  0  0  0
  6 25  1  0  0  0
  6 97  1  0  0  0
  6 98  1  0  0  0
  7  8  2  0  0  0
  7 26  1  0  0  0
  7 29  1  0  0  0
  8  9  1  0  0  0
  8 22  1  0  0  0
  9 10  1  0  0  0
  9 27  2  0  0  0
 10 11  2  0  0  0
 10 15  1  0  0  0
 11 12  1  0  0  0
 11 99  1  0  0  0
 12 13  2  0  0  0
 12100  1  0  0  0
 13 14  1  0  0  0
 13 31  1  0  0  0
 14 15  2  0  0  0
 14101  1  0  0  0
 15102  1  0  0  0
 16 17  2  0  0  0
 16 21  1  0  0  0
 16 31  1  0  0  0
 17 18  1  0  0  0
 17103  1  0  0  0
 18 19  2  0  0  0
 18104  1  0  0  0
 19 20  1  0  0  0
 19 24  1  0  0  0
 20 21  2  0  0  0
 20105  1  0  0  0
 21 23  1  0  0  0
 22 28  1  0  0  0
 22 32  2  0  0  0
 26 27  1  0  0  0
 28106  1  0  0  0
 28107  1  0  0  0
 29108  1  0  0  0
 29109  1  0  0  0
 33 34  1  0  0  0
 33 66  1  0  0  0
 33 70  2  0  0  0
 34 36  1  0  0  0
 34 59  1  0  0  0
 34110  1  0  0  0
 35 44  2  0  0  0
 35 45  1  0  0  0
 35 68  1  0  0  0
 36 56  1  0  0  0
 36111  1  0  0  0
 37 39  1  0  0  0
 37 47  1  0  0  0
 37 66  1  0  0  0
 37112  1  0  0  0
 38 43  2  0  0  0
 38 46  1  0  0  0
 38 47  1  0  0  0
 39 64  1  0  0  0
 39 67  2  0  0  0
 40 52  1  0  0  0
 40 53  2  0  0  0
 40 58  1  0  0  0
 41113  1  0  0  0
 41114  1  0  0  0
 41115  1  0  0  0
 41 48  1  0  0  0
 42 43  1  0  0  0
 42 66  1  0  0  0
 42116  1  0  0  0
 42117  1  0  0  0
 43 44  1  0  0  0
 44118  1  0  0  0
 45 46  2  0  0  0
 45119  1  0  0  0
 46120  1  0  0  0
 47121  1  0  0  0
 47122  1  0  0  0
 48 56  1  0  0  0
 48 65  1  0  0  0
 48123  1  0  0  0
 49 50  1  0  0  0
 49 53  1  0  0  0
 49 64  1  0  0  0
 49124  1  0  0  0
 50 51  1  0  0  0
 50125  1  0  0  0
 50126  1  0  0  0
 51 52  1  0  0  0
 51127  1  0  0  0
 51128  1  0  0  0
 52129  1  0  0  0
 52130  1  0  0  0
 53 54  1  0  0  0
 54 55  2  0  0  0
 54131  1  0  0  0
 55 57  1  0  0  0
 55132  1  0  0  0
 56 69  2  0  0  0
 57 58  2  0  0  0
 57133  1  0  0  0
 58134  1  0  0  0
 59 60  1  0  0  0
 59 61  1  0  0  0
 59 62  1  0  0  0
 60135  1  0  0  0
 60136  1  0  0  0
 60137  1  0  0  0
 61138  1  0  0  0
 61139  1  0  0  0
 61140  1  0  0  0
 62141  1  0  0  0
 62142  1  0  0  0
 62143  1  0  0  0
 63 65  1  0  0  0
 63144  1  0  0  0
 63145  1  0  0  0
 63146  1  0  0  0
 64147  1  0  0  0
 65148  1  0  0  0
 68 85  1  0  0  0
 71 72  2  0  0  0
 71 73  1  0  0  0
 71149  1  0  0  0
 72 75  1  0  0  0
 72150  1  0  0  0
 73 76  2  0  0  0
 73151  1  0  0  0
 74 75  2  0  0  0
 74 76  1  0  0  0
 74152  1  0  0  0
 75 77  1  0  0  0
 76 87  1  0  0  0
 77 86  1  0  0  0
 77 88  2  0  0  0
 78 79  1  0  0  0
 78 80  1  0  0  0
 78153  1  0  0  0
 78154  1  0  0  0
 79 86  1  0  0  0
 79155  1  0  0  0
 79156  1  0  0  0
 80 81  1  0  0  0
 80 85  1  0  0  0
 80 89  1  0  0  0
 81 82  1  0  0  0
 81 83  1  0  0  0
 81 86  1  0  0  0
 82157  1  0  0  0
 82158  1  0  0  0
 82159  1  0  0  0
 83160  1  0  0  0
 83161  1  0  0  0
 83162  1  0  0  0
 84 89  1  0  0  0
 84163  1  0  0  0
 84164  1  0  0  0
 84165  1  0  0  0
 85166  1  0  0  0
 85167  1  0  0  0
 87168  1  0  0  0
 88169  1  0  0  0
 88170  1  0  0  0
M  CHG  1  88   1
M  ISO  4   1 100  68 101  85 101  87 100
M  END
> <chiral flag>
0

> <version>
0

> <s_m_source_file>
/data/baiqing/PycharmProjects/Reinvent-master-3.2/result/LINK_invent/BTK/process_docking_weight1_custom_product_contain_oxygen_bond_distance_aromatic_linkinvent_7_9_3/rearranged_h_0154.sdf

> <i_m_source_file_index>
67

> <r_mmod_Potential_Energy-OPLS-2005>
56.3418045043945

> <r_mmod_Stretch_Energy-OPLS-2005>
85.2101364135742

> <r_mmod_Bend_Energy-OPLS-2005>
172.572189331055

> <r_mmod_Torsional_Energy-OPLS-2005>
382.745635986328

> <r_mmod_Improper_Torsional_Energy-OPLS-2005>
10.7459030151367

> <r_mmod_Van_der_Waal_Energy-OPLS-2005>
162.980178833008

> <r_mmod_Electrostatic_Energy-OPLS-2005>
-401.967163085938

> <r_mmod_Solvation_Energy-OPLS-2005>
-388.271270751953

> <b_mmod_Minimization_Converged-OPLS-2005>
0

> <r_mmod_RMS_Derivative-OPLS-2005>
2.32897019386292

$$$$
67
                    3D
 Structure written by MMmdl.
156165  0  0  1  0            999 V2000
  -30.6075  -14.5433   20.6146 C   0  0  0  0  0  0
  -30.4268  -12.3437   19.4592 C   0  0  0  0  0  0
  -29.5143  -12.5254   18.2265 C   0  0  0  0  0  0
  -28.0352  -12.3517   18.6262 C   0  0  0  0  0  0
  -27.6577  -13.1875   19.8798 C   0  0  2  0  0  0
  -28.6840  -12.9721   21.0168 C   0  0  0  0  0  0
  -25.2606  -13.8057   20.5634 C   0  0  0  0  0  0
  -24.1852  -13.0360   20.9184 C   0  0  0  0  0  0
  -24.6385  -11.6811   20.8798 C   0  0  0  0  0  0
  -23.9043  -10.4219   21.0482 C   0  0  0  0  0  0
  -24.3558   -9.4101   21.9262 C   0  0  0  0  0  0
  -23.6205   -8.2156   22.0788 C   0  0  0  0  0  0
  -22.4205   -8.0221   21.3551 C   0  0  0  0  0  0
  -21.9852   -9.0230   20.4662 C   0  0  0  0  0  0
  -22.7223  -10.2084   20.3109 C   0  0  0  0  0  0
  -21.6815   -6.0689   22.5291 C   0  0  0  0  0  0
  -21.4011   -6.5617   23.8209 C   0  0  0  0  0  0
  -21.3654   -5.6773   24.9191 C   0  0  0  0  0  0
  -21.6037   -4.3045   24.7243 C   0  0  0  0  0  0
  -21.8816   -3.8119   23.4382 C   0  0  0  0  0  0
  -21.9173   -4.6934   22.3411 C   0  0  0  0  0  0
  -22.7883  -13.5188   21.1829 C   0  0  0  0  0  0
  -22.1664   -4.2114   21.1001 F   0  0  0  0  0  0
  -21.5612   -3.4530   25.7767 F   0  0  0  0  0  0
  -30.0059  -13.3238   20.4829 N   0  0  0  0  0  0
  -26.2984  -12.9170   20.3320 N   0  0  0  0  0  0
  -25.9287  -11.6350   20.5777 N   0  0  0  0  0  0
  -22.0485  -12.8222   22.0397 N   0  0  0  0  0  0
  -25.4384  -15.1774   20.4015 N   0  0  0  0  0  0
  -31.7183  -14.7689   20.1153 O   0  0  0  0  0  0
  -21.6579   -6.8836   21.4236 O   0  0  0  0  0  0
  -22.3585  -14.5483   20.6638 O   0  0  0  0  0  0
  -24.6223  -31.8596   23.2076 C   0  0  0  0  0  0
  -25.9083  -32.4777   23.8379 C   0  0  1  0  0  0
  -27.2249  -27.3363   20.1308 C   0  0  0  0  0  0
  -25.5931  -33.8589   24.2313 N   0  0  0  0  0  0
  -23.4171  -30.4832   21.5470 C   0  0  2  0  0  0
  -24.8620  -28.9363   20.1104 C   0  0  0  0  0  0
  -22.7468  -29.4611   22.4958 C   0  0  0  0  0  0
  -18.0281  -28.1339   22.8514 C   0  0  0  0  0  0
  -24.1461  -36.7256   23.2642 C   0  0  0  0  0  0
  -25.9524  -30.7952   21.3758 C   0  0  0  0  0  0
  -26.0249  -29.4234   20.7198 C   0  0  0  0  0  0
  -27.2048  -28.6315   20.7248 C   0  0  0  0  0  0
  -26.0458  -26.8919   19.4904 C   0  0  0  0  0  0
  -24.8738  -27.6763   19.4856 C   0  0  0  0  0  0
  -23.6319  -29.8178   20.1594 C   0  0  0  0  0  0
  -25.4094  -36.3062   24.0333 C   0  0  1  0  0  0
  -20.5885  -28.3633   23.1284 C   0  0  2  0  0  0
  -20.6759  -26.9358   22.5397 C   0  0  0  0  0  0
  -19.5723  -26.6345   21.5201 C   0  0  0  0  0  0
  -18.1910  -26.7898   22.1621 C   0  0  0  0  0  0
  -19.1540  -28.8816   23.2891 C   0  0  0  0  0  0
  -18.9468  -30.1444   23.8862 C   0  0  0  0  0  0
  -17.6458  -30.6548   24.0552 C   0  0  0  0  0  0
  -25.9051  -34.9436   23.5118 C   0  0  0  0  0  0
  -16.5347  -29.9047   23.6314 C   0  0  0  0  0  0
  -16.7267  -28.6467   23.0345 C   0  0  0  0  0  0
  -26.4490  -31.6600   25.0754 C   0  0  0  0  0  0
  -25.3757  -31.3656   26.1507 C   0  0  0  0  0  0
  -27.0349  -30.3062   24.6156 C   0  0  0  0  0  0
  -27.6058  -32.4355   25.7492 C   0  0  0  0  0  0
  -27.5566  -37.1768   24.8476 C   0  0  0  0  0  0
  -21.4183  -29.2994   22.3695 N   0  0  0  0  0  0
  -26.4256  -37.3780   23.9444 N   0  0  0  0  0  0
  -24.6819  -31.0640   22.1005 N   0  0  0  0  0  0
  -23.4209  -28.8180   23.3047 O   0  0  0  0  0  0
  -28.3635  -26.5372   20.2456 O   0  0  0  0  0  0
  -26.5601  -34.8899   22.4676 O   0  0  0  0  0  0
  -23.5405  -32.1400   23.7405 O   0  0  0  0  0  0
  -29.9254  -21.0326   19.4137 C   0  0  0  0  0  0
  -29.8930  -19.6712   19.5486 C   0  0  0  0  0  0
  -28.6631  -20.5382   21.2193 C   0  0  0  0  0  0
  -29.1255  -21.5895   20.4417 C   0  0  0  0  0  0
  -28.1012  -23.9264   20.3317 C   0  0  0  0  0  0
  -29.6364  -17.5506   22.5150 C   0  0  0  0  0  0
  -29.8540  -16.0103   22.4928 C   0  0  0  0  0  0
  -29.4812  -16.7538   20.2745 C   0  0  0  0  0  0
  -28.9578  -17.9133   21.1867 C   0  0  2  0  0  0
  -28.5128  -25.2461   19.5657 C   0  0  0  0  0  0
  -29.1634  -19.3225   20.6858 N   0  0  0  0  0  0
  -29.8156  -15.5620   21.0911 N   0  0  0  0  0  0
  -29.0888  -23.0302   20.6141 N   0  0  0  0  0  0
  -26.9216  -23.7302   20.6394 O   0  0  0  0  0  0
  -31.4765  -12.4532   19.1836 H   0  0  0  0  0  0
  -30.3291  -11.3309   19.8489 H   0  0  0  0  0  0
  -29.7727  -11.8120   17.4411 H   0  0  0  0  0  0
  -29.6740  -13.5191   17.8027 H   0  0  0  0  0  0
  -27.8807  -11.2926   18.8394 H   0  0  0  0  0  0
  -27.3829  -12.5952   17.7872 H   0  0  0  0  0  0
  -27.6965  -14.2340   19.5782 H   0  0  0  0  0  0
  -28.6770  -11.9319   21.3540 H   0  0  0  0  0  0
  -28.4277  -13.5602   21.8977 H   0  0  0  0  0  0
  -25.2691   -9.5524   22.4873 H   0  0  0  0  0  0
  -23.9887   -7.4509   22.7476 H   0  0  0  0  0  0
  -21.0797   -8.8767   19.8945 H   0  0  0  0  0  0
  -22.3716  -10.9646   19.6229 H   0  0  0  0  0  0
  -21.2048   -7.6131   23.9719 H   0  0  0  0  0  0
  -21.1480   -6.0518   25.9079 H   0  0  0  0  0  0
  -22.0613   -2.7586   23.2894 H   0  0  0  0  0  0
  -22.4033  -11.9871   22.4847 H   0  0  0  0  0  0
  -21.1146  -13.1347   22.2667 H   0  0  0  0  0  0
  -24.6761  -15.8343   20.5185 H   0  0  0  0  0  0
  -26.3066  -15.6191   20.1228 H   0  0  0  0  0  0
  -26.7163  -32.5459   23.1139 H   0  0  0  0  0  0
  -25.0127  -33.9732   25.0501 H   0  0  0  0  0  0
  -22.7063  -31.3008   21.4080 H   0  0  0  0  0  0
  -23.3738  -35.9574   23.3297 H   0  0  0  0  0  0
  -24.3523  -36.8908   22.2053 H   0  0  0  0  0  0
  -23.7232  -37.6454   23.6692 H   0  0  0  0  0  0
  -26.0807  -31.5560   20.6035 H   0  0  0  0  0  0
  -26.8362  -30.8461   21.9987 H   0  0  0  0  0  0
  -28.1001  -28.9957   21.2117 H   0  0  0  0  0  0
  -26.0027  -25.9205   19.0189 H   0  0  0  0  0  0
  -23.9842  -27.2981   19.0006 H   0  0  0  0  0  0
  -23.7584  -30.5972   19.4067 H   0  0  0  0  0  0
  -22.7511  -29.2506   19.8504 H   0  0  0  0  0  0
  -25.1274  -36.1879   25.0825 H   0  0  0  0  0  0
  -20.9960  -28.3187   24.1404 H   0  0  0  0  0  0
  -20.5628  -26.2230   23.3593 H   0  0  0  0  0  0
  -21.6630  -26.7357   22.1202 H   0  0  0  0  0  0
  -19.6850  -25.6253   21.1224 H   0  0  0  0  0  0
  -19.6651  -27.3141   20.6727 H   0  0  0  0  0  0
  -17.4180  -26.6665   21.4016 H   0  0  0  0  0  0
  -18.0290  -26.0015   22.8978 H   0  0  0  0  0  0
  -19.7950  -30.7282   24.2182 H   0  0  0  0  0  0
  -17.5014  -31.6214   24.5167 H   0  0  0  0  0  0
  -15.5349  -30.2938   23.7661 H   0  0  0  0  0  0
  -15.8669  -28.0790   22.7032 H   0  0  0  0  0  0
  -24.5927  -30.7018   25.7845 H   0  0  0  0  0  0
  -24.8927  -32.2760   26.5037 H   0  0  0  0  0  0
  -25.8117  -30.8775   27.0229 H   0  0  0  0  0  0
  -26.2879  -29.6780   24.1287 H   0  0  0  0  0  0
  -27.4228  -29.7351   25.4597 H   0  0  0  0  0  0
  -27.8672  -30.4423   23.9251 H   0  0  0  0  0  0
  -27.2693  -33.3683   26.2001 H   0  0  0  0  0  0
  -28.3849  -32.6873   25.0294 H   0  0  0  0  0  0
  -28.0733  -31.8540   26.5435 H   0  0  0  0  0  0
  -28.2560  -38.0082   24.7564 H   0  0  0  0  0  0
  -28.1074  -36.2613   24.6251 H   0  0  0  0  0  0
  -27.2259  -37.1372   25.8867 H   0  0  0  0  0  0
  -20.9355  -29.8757   21.6938 H   0  0  0  0  0  0
  -26.0104  -38.2831   24.1525 H   0  0  0  0  0  0
  -30.4755  -21.5716   18.6557 H   0  0  0  0  0  0
  -30.3633  -18.9335   18.9151 H   0  0  0  0  0  0
  -28.0549  -20.5319   22.1159 H   0  0  0  0  0  0
  -30.6029  -18.0509   22.5890 H   0  0  0  0  0  0
  -29.0420  -17.8614   23.3770 H   0  0  0  0  0  0
  -29.0570  -15.5059   23.0464 H   0  0  0  0  0  0
  -30.7926  -15.7372   22.9856 H   0  0  0  0  0  0
  -30.3933  -17.0422   19.7577 H   0  0  0  0  0  0
  -28.7335  -16.4867   19.5262 H   0  0  0  0  0  0
  -27.8804  -17.7797   21.3267 H   0  0  0  0  0  0
  -28.0308  -25.2592   18.5881 H   0  0  0  0  0  0
  -29.5778  -25.1576   19.3423 H   0  0  0  0  0  0
  -29.9879  -23.4523   20.4245 H   0  0  0  0  0  0
  1 25  1  0  0  0
  1 30  2  0  0  0
  1 82  1  0  0  0
  2  3  1  0  0  0
  2 25  1  0  0  0
  2 85  1  0  0  0
  2 86  1  0  0  0
  3  4  1  0  0  0
  3 87  1  0  0  0
  3 88  1  0  0  0
  4  5  1  0  0  0
  4 89  1  0  0  0
  4 90  1  0  0  0
  5  6  1  0  0  0
  5 26  1  0  0  0
  5 91  1  0  0  0
  6 25  1  0  0  0
  6 92  1  0  0  0
  6 93  1  0  0  0
  7  8  2  0  0  0
  7 26  1  0  0  0
  7 29  1  0  0  0
  8  9  1  0  0  0
  8 22  1  0  0  0
  9 10  1  0  0  0
  9 27  2  0  0  0
 10 11  2  0  0  0
 10 15  1  0  0  0
 11 12  1  0  0  0
 11 94  1  0  0  0
 12 13  2  0  0  0
 12 95  1  0  0  0
 13 14  1  0  0  0
 13 31  1  0  0  0
 14 15  2  0  0  0
 14 96  1  0  0  0
 15 97  1  0  0  0
 16 17  2  0  0  0
 16 21  1  0  0  0
 16 31  1  0  0  0
 17 18  1  0  0  0
 17 98  1  0  0  0
 18 19  2  0  0  0
 18 99  1  0  0  0
 19 20  1  0  0  0
 19 24  1  0  0  0
 20 21  2  0  0  0
 20100  1  0  0  0
 21 23  1  0  0  0
 22 28  1  0  0  0
 22 32  2  0  0  0
 26 27  1  0  0  0
 28101  1  0  0  0
 28102  1  0  0  0
 29103  1  0  0  0
 29104  1  0  0  0
 33 34  1  0  0  0
 33 66  1  0  0  0
 33 70  2  0  0  0
 34 36  1  0  0  0
 34 59  1  0  0  0
 34105  1  0  0  0
 35 44  2  0  0  0
 35 45  1  0  0  0
 35 68  1  0  0  0
 36 56  1  0  0  0
 36106  1  0  0  0
 37 39  1  0  0  0
 37 47  1  0  0  0
 37 66  1  0  0  0
 37107  1  0  0  0
 38 43  2  0  0  0
 38 46  1  0  0  0
 38 47  1  0  0  0
 39 64  1  0  0  0
 39 67  2  0  0  0
 40 52  1  0  0  0
 40 53  2  0  0  0
 40 58  1  0  0  0
 41108  1  0  0  0
 41109  1  0  0  0
 41110  1  0  0  0
 41 48  1  0  0  0
 42 43  1  0  0  0
 42 66  1  0  0  0
 42111  1  0  0  0
 42112  1  0  0  0
 43 44  1  0  0  0
 44113  1  0  0  0
 45 46  2  0  0  0
 45114  1  0  0  0
 46115  1  0  0  0
 47116  1  0  0  0
 47117  1  0  0  0
 48 56  1  0  0  0
 48 65  1  0  0  0
 48118  1  0  0  0
 49 50  1  0  0  0
 49 53  1  0  0  0
 49 64  1  0  0  0
 49119  1  0  0  0
 50 51  1  0  0  0
 50120  1  0  0  0
 50121  1  0  0  0
 51 52  1  0  0  0
 51122  1  0  0  0
 51123  1  0  0  0
 52124  1  0  0  0
 52125  1  0  0  0
 53 54  1  0  0  0
 54 55  2  0  0  0
 54126  1  0  0  0
 55 57  1  0  0  0
 55127  1  0  0  0
 56 69  2  0  0  0
 57 58  2  0  0  0
 57128  1  0  0  0
 58129  1  0  0  0
 59 60  1  0  0  0
 59 61  1  0  0  0
 59 62  1  0  0  0
 60130  1  0  0  0
 60131  1  0  0  0
 60132  1  0  0  0
 61133  1  0  0  0
 61134  1  0  0  0
 61135  1  0  0  0
 62136  1  0  0  0
 62137  1  0  0  0
 62138  1  0  0  0
 63 65  1  0  0  0
 63139  1  0  0  0
 63140  1  0  0  0
 63141  1  0  0  0
 64142  1  0  0  0
 65143  1  0  0  0
 68 80  1  0  0  0
 71 72  2  0  0  0
 71 74  1  0  0  0
 71144  1  0  0  0
 72 81  1  0  0  0
 72145  1  0  0  0
 73 74  2  0  0  0
 73 81  1  0  0  0
 73146  1  0  0  0
 74 83  1  0  0  0
 75 80  1  0  0  0
 75 83  1  0  0  0
 75 84  2  0  0  0
 76 77  1  0  0  0
 76 79  1  0  0  0
 76147  1  0  0  0
 76148  1  0  0  0
 77 82  1  0  0  0
 77149  1  0  0  0
 77150  1  0  0  0
 78 79  1  0  0  0
 78 82  1  0  0  0
 78151  1  0  0  0
 78152  1  0  0  0
 79 81  1  0  0  0
 79153  1  0  0  0
 80154  1  0  0  0
 80155  1  0  0  0
 83156  1  0  0  0
M  ISO  4   1 100  68 101  80 101  82 100
M  END
> <chiral flag>
0

> <version>
0

> <s_m_source_file>
/data/baiqing/PycharmProjects/Reinvent-master-3.2/result/LINK_invent/BTK/process_docking_weight1_custom_product_contain_oxygen_bond_distance_aromatic_linkinvent_7_9_3/rearranged_h_0154.sdf

> <i_m_source_file_index>
68

> <r_mmod_Potential_Energy-OPLS-2005>
256.764801025391

> <r_mmod_Stretch_Energy-OPLS-2005>
66.6358261108398

> <r_mmod_Bend_Energy-OPLS-2005>
172.378860473633

> <r_mmod_Torsional_Energy-OPLS-2005>
399.739013671875

> <r_mmod_Improper_Torsional_Energy-OPLS-2005>
13.0589647293091

> <r_mmod_Van_der_Waal_Energy-OPLS-2005>
115.812896728516

> <r_mmod_Electrostatic_Energy-OPLS-2005>
-312.968048095703

> <r_mmod_Solvation_Energy-OPLS-2005>
-232.671508789062

> <b_mmod_Minimization_Converged-OPLS-2005>
0

> <r_mmod_RMS_Derivative-OPLS-2005>
5.4835786819458

$$$$
68
                    3D
 Structure written by MMmdl.
173182  0  0  1  0            999 V2000
  -30.6542  -14.5096   20.4849 C   0  0  0  0  0  0
  -30.4328  -12.3081   19.4085 C   0  0  0  0  0  0
  -29.4931  -12.4864   18.1976 C   0  0  0  0  0  0
  -28.0150  -12.3426   18.6172 C   0  0  0  0  0  0
  -27.6580  -13.1980   19.8632 C   0  0  2  0  0  0
  -28.7111  -12.9935   20.9781 C   0  0  0  0  0  0
  -25.2555  -13.8134   20.5533 C   0  0  0  0  0  0
  -24.1856  -13.0406   20.9162 C   0  0  0  0  0  0
  -24.6449  -11.6886   20.8800 C   0  0  0  0  0  0
  -23.9121  -10.4272   21.0481 C   0  0  0  0  0  0
  -24.3651   -9.4148   21.9236 C   0  0  0  0  0  0
  -23.6305   -8.2189   22.0781 C   0  0  0  0  0  0
  -22.4282   -8.0266   21.3567 C   0  0  0  0  0  0
  -21.9950   -9.0259   20.4664 C   0  0  0  0  0  0
  -22.7302  -10.2126   20.3094 C   0  0  0  0  0  0
  -21.6836   -6.0735   22.5279 C   0  0  0  0  0  0
  -21.4001   -6.5645   23.8202 C   0  0  0  0  0  0
  -21.3662   -5.6808   24.9179 C   0  0  0  0  0  0
  -21.6044   -4.3072   24.7227 C   0  0  0  0  0  0
  -21.8816   -3.8147   23.4353 C   0  0  0  0  0  0
  -21.9179   -4.6965   22.3396 C   0  0  0  0  0  0
  -22.7863  -13.5165   21.1849 C   0  0  0  0  0  0
  -22.1649   -4.2145   21.0980 F   0  0  0  0  0  0
  -21.5614   -3.4539   25.7740 F   0  0  0  0  0  0
  -30.0322  -13.3037   20.4107 N   0  0  0  0  0  0
  -26.3020  -12.9300   20.3329 N   0  0  0  0  0  0
  -25.9370  -11.6474   20.5860 N   0  0  0  0  0  0
  -22.0588  -12.8147   22.0481 N   0  0  0  0  0  0
  -25.4095  -15.1830   20.3546 N   0  0  0  0  0  0
  -31.8281  -14.6899   20.1494 O   0  0  0  0  0  0
  -21.6619   -6.8878   21.4247 O   0  0  0  0  0  0
  -22.3490  -14.5436   20.6699 O   0  0  0  0  0  0
  -24.6127  -31.8747   23.2111 C   0  0  0  0  0  0
  -25.9052  -32.4858   23.8416 C   0  0  1  0  0  0
  -27.2442  -27.4305   20.0855 C   0  0  0  0  0  0
  -25.6010  -33.8640   24.2399 N   0  0  0  0  0  0
  -23.4098  -30.4932   21.5486 C   0  0  2  0  0  0
  -24.8669  -28.9632   20.1163 C   0  0  0  0  0  0
  -22.7499  -29.4666   22.4980 C   0  0  0  0  0  0
  -18.0334  -28.1265   22.8461 C   0  0  0  0  0  0
  -24.1530  -36.7291   23.2603 C   0  0  0  0  0  0
  -25.9458  -30.8339   21.3736 C   0  0  0  0  0  0
  -26.0253  -29.4663   20.7194 C   0  0  0  0  0  0
  -27.2231  -28.7064   20.7002 C   0  0  0  0  0  0
  -26.0772  -26.9678   19.4403 C   0  0  0  0  0  0
  -24.8862  -27.7168   19.4673 C   0  0  0  0  0  0
  -23.6306  -29.8330   20.1634 C   0  0  0  0  0  0
  -25.4108  -36.3068   24.0359 C   0  0  1  0  0  0
  -20.5938  -28.3595   23.1326 C   0  0  2  0  0  0
  -20.6890  -26.9408   22.5281 C   0  0  0  0  0  0
  -19.5888  -26.6489   21.5058 C   0  0  0  0  0  0
  -18.2074  -26.7863   22.1529 C   0  0  0  0  0  0
  -19.1555  -28.8727   23.2944 C   0  0  0  0  0  0
  -18.9422  -30.1363   23.8850 C   0  0  0  0  0  0
  -17.6411  -30.6475   24.0524 C   0  0  0  0  0  0
  -25.9045  -34.9458   23.5107 C   0  0  0  0  0  0
  -16.5330  -29.8936   23.6219 C   0  0  0  0  0  0
  -16.7311  -28.6369   23.0259 C   0  0  0  0  0  0
  -26.4505  -31.6534   25.0672 C   0  0  0  0  0  0
  -25.3777  -31.3555   26.1402 C   0  0  0  0  0  0
  -27.0265  -30.2985   24.5951 C   0  0  0  0  0  0
  -27.6160  -32.4111   25.7471 C   0  0  0  0  0  0
  -27.5577  -37.1818   24.8498 C   0  0  0  0  0  0
  -21.4201  -29.3080   22.3812 N   0  0  0  0  0  0
  -26.4282  -37.3769   23.9429 N   0  0  0  0  0  0
  -24.6728  -31.0848   22.1022 N   0  0  0  0  0  0
  -23.4292  -28.8187   23.2980 O   0  0  0  0  0  0
  -28.3903  -26.6527   20.1043 O   0  0  0  0  0  0
  -26.5542  -34.8919   22.4631 O   0  0  0  0  0  0
  -23.5311  -32.1476   23.7512 O   0  0  0  0  0  0
  -29.2650  -17.7813   18.4883 C   0  0  0  0  0  0
  -28.7519  -20.1125   18.0109 C   0  0  0  0  0  0
  -29.4982  -18.0893   19.8524 C   0  0  0  0  0  0
  -29.2875  -19.4353   20.3091 C   0  0  0  0  0  0
  -28.8921  -18.7801   17.5713 C   0  0  0  0  0  0
  -28.9720  -20.4683   19.3628 C   0  0  0  0  0  0
  -29.9462  -20.6702   22.3795 C   0  0  0  0  0  0
  -28.1739  -22.8500   19.3069 C   0  0  0  0  0  0
  -28.3838  -19.7405   23.9466 C   0  0  0  0  0  0
  -28.4274  -18.9447   22.6417 C   0  0  0  0  0  0
  -29.5571  -20.7283   23.8649 C   0  0  0  0  0  0
  -30.7515  -20.2642   24.7193 C   0  0  0  0  0  0
  -29.1090  -22.1403   24.2872 C   0  0  0  0  0  0
  -30.0505  -16.9980   20.8060 C   0  0  0  0  0  0
  -28.7117  -24.3051   19.2572 C   0  0  0  0  0  0
  -28.2154  -25.2410   20.3910 C   0  0  0  0  0  0
  -29.2806  -19.7013   21.7237 N   0  0  0  0  0  0
  -28.7058  -18.4602   16.2247 N   0  0  0  0  0  0
  -29.0066  -21.8659   19.7073 N   0  0  0  0  0  0
  -29.8152  -15.5414   20.7362 N   0  0  0  0  0  0
  -30.7820  -21.4353   21.8872 O   0  0  0  0  0  0
  -26.9985  -22.6294   18.9957 O   0  0  0  0  0  0
  -31.4724  -12.4300   19.0989 H   0  0  0  0  0  0
  -30.3507  -11.2955   19.8104 H   0  0  0  0  0  0
  -29.7339  -11.7574   17.4214 H   0  0  0  0  0  0
  -29.6492  -13.4689   17.7468 H   0  0  0  0  0  0
  -27.8409  -11.2881   18.8334 H   0  0  0  0  0  0
  -27.3553  -12.5945   17.7858 H   0  0  0  0  0  0
  -27.6896  -14.2389   19.5474 H   0  0  0  0  0  0
  -28.6958  -11.9612   21.3306 H   0  0  0  0  0  0
  -28.4953  -13.6099   21.8540 H   0  0  0  0  0  0
  -25.2815   -9.5555   22.4798 H   0  0  0  0  0  0
  -24.0008   -7.4552   22.7469 H   0  0  0  0  0  0
  -21.0886   -8.8788   19.8945 H   0  0  0  0  0  0
  -22.3827  -10.9672   19.6175 H   0  0  0  0  0  0
  -21.2006   -7.6153   23.9702 H   0  0  0  0  0  0
  -21.1496   -6.0551   25.9082 H   0  0  0  0  0  0
  -22.0608   -2.7600   23.2861 H   0  0  0  0  0  0
  -22.4272  -11.9803   22.4805 H   0  0  0  0  0  0
  -21.1221  -13.1125   22.2769 H   0  0  0  0  0  0
  -24.5685  -15.7471   20.2858 H   0  0  0  0  0  0
  -26.1557  -15.5558   19.7809 H   0  0  0  0  0  0
  -26.7097  -32.5641   23.1162 H   0  0  0  0  0  0
  -25.0328  -33.9836   25.0652 H   0  0  0  0  0  0
  -22.6963  -31.3057   21.3986 H   0  0  0  0  0  0
  -23.3759  -35.9652   23.3232 H   0  0  0  0  0  0
  -24.3651  -36.8899   22.2018 H   0  0  0  0  0  0
  -23.7300  -37.6517   23.6576 H   0  0  0  0  0  0
  -26.0575  -31.5945   20.6029 H   0  0  0  0  0  0
  -26.8367  -30.9101   21.9828 H   0  0  0  0  0  0
  -28.1241  -29.0888   21.1632 H   0  0  0  0  0  0
  -26.0977  -26.0315   18.9004 H   0  0  0  0  0  0
  -24.0008  -27.3459   18.9708 H   0  0  0  0  0  0
  -23.7610  -30.6114   19.4135 H   0  0  0  0  0  0
  -22.7562  -29.2651   19.8449 H   0  0  0  0  0  0
  -25.1225  -36.1900   25.0842 H   0  0  0  0  0  0
  -21.0041  -28.2986   24.1454 H   0  0  0  0  0  0
  -20.5924  -26.2174   23.3369 H   0  0  0  0  0  0
  -21.6720  -26.7629   22.0906 H   0  0  0  0  0  0
  -19.6729  -27.3448   20.6698 H   0  0  0  0  0  0
  -19.7212  -25.6490   21.0906 H   0  0  0  0  0  0
  -17.4416  -26.6613   21.3878 H   0  0  0  0  0  0
  -18.0554  -25.9893   22.8800 H   0  0  0  0  0  0
  -19.7867  -30.7198   24.2177 H   0  0  0  0  0  0
  -17.4884  -31.6157   24.5112 H   0  0  0  0  0  0
  -15.5305  -30.2799   23.7514 H   0  0  0  0  0  0
  -15.8737  -28.0713   22.6825 H   0  0  0  0  0  0
  -24.6195  -30.6651   25.7733 H   0  0  0  0  0  0
  -24.8701  -32.2617   26.4698 H   0  0  0  0  0  0
  -25.8232  -30.8912   27.0212 H   0  0  0  0  0  0
  -26.2742  -29.6860   24.1034 H   0  0  0  0  0  0
  -27.4053  -29.7148   25.4344 H   0  0  0  0  0  0
  -27.8557  -30.4309   23.9016 H   0  0  0  0  0  0
  -27.2942  -33.3476   26.2027 H   0  0  0  0  0  0
  -28.4068  -32.6514   25.0343 H   0  0  0  0  0  0
  -28.0690  -31.8149   26.5411 H   0  0  0  0  0  0
  -28.2563  -38.0148   24.7479 H   0  0  0  0  0  0
  -28.1101  -36.2650   24.6328 H   0  0  0  0  0  0
  -27.2333  -37.1497   25.8933 H   0  0  0  0  0  0
  -20.9363  -29.8928   21.7142 H   0  0  0  0  0  0
  -26.0152  -38.2840   24.1425 H   0  0  0  0  0  0
  -29.4013  -16.7622   18.1481 H   0  0  0  0  0  0
  -28.5111  -20.8783   17.2871 H   0  0  0  0  0  0
  -28.4367  -19.0884   24.8200 H   0  0  0  0  0  0
  -27.4290  -20.2651   24.0098 H   0  0  0  0  0  0
  -27.4287  -18.8002   22.2291 H   0  0  0  0  0  0
  -28.8486  -17.9619   22.8493 H   0  0  0  0  0  0
  -31.0850  -19.2630   24.4382 H   0  0  0  0  0  0
  -30.4973  -20.2408   25.7792 H   0  0  0  0  0  0
  -31.6016  -20.9362   24.6070 H   0  0  0  0  0  0
  -28.7953  -22.1606   25.3329 H   0  0  0  0  0  0
  -28.2591  -22.4720   23.6913 H   0  0  0  0  0  0
  -29.9064  -22.8708   24.1630 H   0  0  0  0  0  0
  -30.8327  -16.9251   20.0452 H   0  0  0  0  0  0
  -28.9647  -16.8722   20.8234 H   0  0  0  0  0  0
  -28.3996  -24.7264   18.3006 H   0  0  0  0  0  0
  -29.8026  -24.3000   19.2200 H   0  0  0  0  0  0
  -28.7911  -25.0333   21.2944 H   0  0  0  0  0  0
  -27.1858  -24.9964   20.6621 H   0  0  0  0  0  0
  -29.0392  -17.5668   15.8759 H   0  0  0  0  0  0
  -28.6961  -19.1853   15.5090 H   0  0  0  0  0  0
  -29.8364  -22.1497   20.2217 H   0  0  0  0  0  0
  -28.8686  -15.2597   20.9309 H   0  0  0  0  0  0
  1 25  1  0  0  0
  1 30  2  0  0  0
  1 90  1  0  0  0
  2  3  1  0  0  0
  2 25  1  0  0  0
  2 93  1  0  0  0
  2 94  1  0  0  0
  3  4  1  0  0  0
  3 95  1  0  0  0
  3 96  1  0  0  0
  4  5  1  0  0  0
  4 97  1  0  0  0
  4 98  1  0  0  0
  5  6  1  0  0  0
  5 26  1  0  0  0
  5 99  1  0  0  0
  6 25  1  0  0  0
  6100  1  0  0  0
  6101  1  0  0  0
  7  8  2  0  0  0
  7 26  1  0  0  0
  7 29  1  0  0  0
  8  9  1  0  0  0
  8 22  1  0  0  0
  9 10  1  0  0  0
  9 27  2  0  0  0
 10 11  2  0  0  0
 10 15  1  0  0  0
 11 12  1  0  0  0
 11102  1  0  0  0
 12 13  2  0  0  0
 12103  1  0  0  0
 13 14  1  0  0  0
 13 31  1  0  0  0
 14 15  2  0  0  0
 14104  1  0  0  0
 15105  1  0  0  0
 16 17  2  0  0  0
 16 21  1  0  0  0
 16 31  1  0  0  0
 17 18  1  0  0  0
 17106  1  0  0  0
 18 19  2  0  0  0
 18107  1  0  0  0
 19 20  1  0  0  0
 19 24  1  0  0  0
 20 21  2  0  0  0
 20108  1  0  0  0
 21 23  1  0  0  0
 22 28  1  0  0  0
 22 32  2  0  0  0
 26 27  1  0  0  0
 28109  1  0  0  0
 28110  1  0  0  0
 29111  1  0  0  0
 29112  1  0  0  0
 33 34  1  0  0  0
 33 66  1  0  0  0
 33 70  2  0  0  0
 34 36  1  0  0  0
 34 59  1  0  0  0
 34113  1  0  0  0
 35 44  2  0  0  0
 35 45  1  0  0  0
 35 68  1  0  0  0
 36 56  1  0  0  0
 36114  1  0  0  0
 37 39  1  0  0  0
 37 47  1  0  0  0
 37 66  1  0  0  0
 37115  1  0  0  0
 38 43  2  0  0  0
 38 46  1  0  0  0
 38 47  1  0  0  0
 39 64  1  0  0  0
 39 67  2  0  0  0
 40 52  1  0  0  0
 40 53  2  0  0  0
 40 58  1  0  0  0
 41116  1  0  0  0
 41117  1  0  0  0
 41118  1  0  0  0
 41 48  1  0  0  0
 42 43  1  0  0  0
 42 66  1  0  0  0
 42119  1  0  0  0
 42120  1  0  0  0
 43 44  1  0  0  0
 44121  1  0  0  0
 45 46  2  0  0  0
 45122  1  0  0  0
 46123  1  0  0  0
 47124  1  0  0  0
 47125  1  0  0  0
 48 56  1  0  0  0
 48 65  1  0  0  0
 48126  1  0  0  0
 49 50  1  0  0  0
 49 53  1  0  0  0
 49 64  1  0  0  0
 49127  1  0  0  0
 50 51  1  0  0  0
 50128  1  0  0  0
 50129  1  0  0  0
 51 52  1  0  0  0
 51130  1  0  0  0
 51131  1  0  0  0
 52132  1  0  0  0
 52133  1  0  0  0
 53 54  1  0  0  0
 54 55  2  0  0  0
 54134  1  0  0  0
 55 57  1  0  0  0
 55135  1  0  0  0
 56 69  2  0  0  0
 57 58  2  0  0  0
 57136  1  0  0  0
 58137  1  0  0  0
 59 60  1  0  0  0
 59 61  1  0  0  0
 59 62  1  0  0  0
 60138  1  0  0  0
 60139  1  0  0  0
 60140  1  0  0  0
 61141  1  0  0  0
 61142  1  0  0  0
 61143  1  0  0  0
 62144  1  0  0  0
 62145  1  0  0  0
 62146  1  0  0  0
 63 65  1  0  0  0
 63147  1  0  0  0
 63148  1  0  0  0
 63149  1  0  0  0
 64150  1  0  0  0
 65151  1  0  0  0
 68 86  1  0  0  0
 71 73  2  0  0  0
 71 75  1  0  0  0
 71152  1  0  0  0
 72 75  2  0  0  0
 72 76  1  0  0  0
 72153  1  0  0  0
 73 74  1  0  0  0
 73 84  1  0  0  0
 74 76  2  0  0  0
 74 87  1  0  0  0
 75 88  1  0  0  0
 76 89  1  0  0  0
 77 81  1  0  0  0
 77 87  1  0  0  0
 77 91  2  0  0  0
 78 85  1  0  0  0
 78 89  1  0  0  0
 78 92  2  0  0  0
 79 80  1  0  0  0
 79 81  1  0  0  0
 79154  1  0  0  0
 79155  1  0  0  0
 80 87  1  0  0  0
 80156  1  0  0  0
 80157  1  0  0  0
 81 82  1  0  0  0
 81 83  1  0  0  0
 82158  1  0  0  0
 82159  1  0  0  0
 82160  1  0  0  0
 83161  1  0  0  0
 83162  1  0  0  0
 83163  1  0  0  0
 84 90  1  0  0  0
 84164  1  0  0  0
 84165  1  0  0  0
 85 86  1  0  0  0
 85166  1  0  0  0
 85167  1  0  0  0
 86168  1  0  0  0
 86169  1  0  0  0
 88170  1  0  0  0
 88171  1  0  0  0
 89172  1  0  0  0
 90173  1  0  0  0
M  ISO  4   1 100  68 101  86 101  90 100
M  END
> <chiral flag>
0

> <version>
0

> <s_m_source_file>
/data/baiqing/PycharmProjects/Reinvent-master-3.2/result/LINK_invent/BTK/process_docking_weight1_custom_product_contain_oxygen_bond_distance_aromatic_linkinvent_7_9_3/rearranged_h_0154.sdf

> <i_m_source_file_index>
69

> <r_mmod_Potential_Energy-OPLS-2005>
220.615295410156

> <r_mmod_Stretch_Energy-OPLS-2005>
52.0210456848145

> <r_mmod_Bend_Energy-OPLS-2005>
337.863494873047

> <r_mmod_Torsional_Energy-OPLS-2005>
348.653472900391

> <r_mmod_Improper_Torsional_Energy-OPLS-2005>
11.4570350646973

> <r_mmod_Van_der_Waal_Energy-OPLS-2005>
160.452362060547

> <r_mmod_Electrostatic_Energy-OPLS-2005>
-470.858978271484

> <r_mmod_Solvation_Energy-OPLS-2005>
-239.718322753906

> <b_mmod_Minimization_Converged-OPLS-2005>
0

> <r_mmod_RMS_Derivative-OPLS-2005>
7.18664216995239

$$$$
69
                    3D
 Structure written by MMmdl.
155164  0  0  1  0            999 V2000
  -30.7755  -14.7542   20.4903 C   0  0  0  0  0  0
  -30.3998  -12.5165   19.4407 C   0  0  0  0  0  0
  -29.4818  -12.4632   18.2124 C   0  0  0  0  0  0
  -28.0203  -12.2837   18.6502 C   0  0  0  0  0  0
  -27.6195  -13.2403   19.8064 C   0  0  2  0  0  0
  -28.6812  -13.3133   20.9257 C   0  0  0  0  0  0
  -25.2437  -13.8288   20.5703 C   0  0  0  0  0  0
  -24.1753  -13.0470   20.9279 C   0  0  0  0  0  0
  -24.6354  -11.6946   20.8799 C   0  0  0  0  0  0
  -23.9009  -10.4299   21.0395 C   0  0  0  0  0  0
  -24.3554   -9.4208   21.9217 C   0  0  0  0  0  0
  -23.6240   -8.2243   22.0818 C   0  0  0  0  0  0
  -22.4271   -8.0248   21.3578 C   0  0  0  0  0  0
  -21.9869   -9.0187   20.4683 C   0  0  0  0  0  0
  -22.7176  -10.2081   20.3061 C   0  0  0  0  0  0
  -21.6841   -6.0743   22.5298 C   0  0  0  0  0  0
  -21.4027   -6.5653   23.8210 C   0  0  0  0  0  0
  -21.3714   -5.6816   24.9193 C   0  0  0  0  0  0
  -21.6012   -4.3065   24.7215 C   0  0  0  0  0  0
  -21.8794   -3.8158   23.4338 C   0  0  0  0  0  0
  -21.9171   -4.6977   22.3406 C   0  0  0  0  0  0
  -22.7718  -13.5161   21.1801 C   0  0  0  0  0  0
  -22.1645   -4.2136   21.0987 F   0  0  0  0  0  0
  -21.5605   -3.4588   25.7743 F   0  0  0  0  0  0
  -29.9526  -13.6658   20.2708 N   0  0  0  0  0  0
  -26.2840  -12.9498   20.3152 N   0  0  0  0  0  0
  -25.9259  -11.6642   20.5764 N   0  0  0  0  0  0
  -22.0336  -12.8170   22.0378 N   0  0  0  0  0  0
  -25.4050  -15.2012   20.4070 N   0  0  0  0  0  0
  -31.9834  -14.5109   20.5159 O   0  0  0  0  0  0
  -21.6627   -6.8865   21.4244 O   0  0  0  0  0  0
  -22.3334  -14.5377   20.6532 O   0  0  0  0  0  0
  -24.6311  -31.8564   23.1918 C   0  0  0  0  0  0
  -25.9150  -32.4752   23.8274 C   0  0  1  0  0  0
  -27.2299  -27.2405   20.1292 C   0  0  0  0  0  0
  -25.5903  -33.8556   24.2180 N   0  0  0  0  0  0
  -23.4336  -30.4732   21.5323 C   0  0  2  0  0  0
  -24.8819  -28.9190   20.1082 C   0  0  0  0  0  0
  -22.7551  -29.4585   22.4864 C   0  0  0  0  0  0
  -18.0285  -28.1386   22.8460 C   0  0  0  0  0  0
  -24.1510  -36.7341   23.2639 C   0  0  0  0  0  0
  -25.9803  -30.7590   21.3776 C   0  0  0  0  0  0
  -26.0518  -29.3758   20.7257 C   0  0  0  0  0  0
  -27.2229  -28.5471   20.7320 C   0  0  0  0  0  0
  -26.0404  -26.8741   19.4566 C   0  0  0  0  0  0
  -24.8812  -27.6744   19.4634 C   0  0  0  0  0  0
  -23.6544  -29.8062   20.1506 C   0  0  0  0  0  0
  -25.4139  -36.3081   24.0290 C   0  0  1  0  0  0
  -20.5897  -28.3725   23.1246 C   0  0  2  0  0  0
  -20.6800  -26.9428   22.5411 C   0  0  0  0  0  0
  -19.5783  -26.6374   21.5220 C   0  0  0  0  0  0
  -18.1949  -26.7919   22.1614 C   0  0  0  0  0  0
  -19.1540  -28.8874   23.2836 C   0  0  0  0  0  0
  -18.9452  -30.1463   23.8858 C   0  0  0  0  0  0
  -17.6457  -30.6590   24.0561 C   0  0  0  0  0  0
  -25.9068  -34.9453   23.5061 C   0  0  0  0  0  0
  -16.5354  -29.9087   23.6313 C   0  0  0  0  0  0
  -16.7266  -28.6498   23.0355 C   0  0  0  0  0  0
  -26.4479  -31.6581   25.0682 C   0  0  0  0  0  0
  -25.3681  -31.3747   26.1382 C   0  0  0  0  0  0
  -27.0362  -30.2999   24.6220 C   0  0  0  0  0  0
  -27.6006  -32.4373   25.7444 C   0  0  0  0  0  0
  -27.5571  -37.1871   24.8456 C   0  0  0  0  0  0
  -21.4254  -29.3052   22.3645 N   0  0  0  0  0  0
  -26.4333  -37.3768   23.9333 N   0  0  0  0  0  0
  -24.6986  -31.0539   22.0889 N   0  0  0  0  0  0
  -23.4239  -28.8130   23.2976 O   0  0  0  0  0  0
  -28.3155  -26.3253   20.2320 O   0  0  0  0  0  0
  -26.5701  -34.8941   22.4664 O   0  0  0  0  0  0
  -23.5451  -32.1365   23.7194 O   0  0  0  0  0  0
  -28.8905  -19.8281   20.0560 C   0  0  0  0  0  0
  -30.3513  -19.0012   21.6261 C   0  0  0  0  0  0
  -29.5361  -18.6042   20.5904 C   0  0  0  0  0  0
  -29.2107  -21.0892   20.6007 C   0  0  0  0  0  0
  -28.9616  -23.6852   20.5616 C   0  0  0  0  0  0
  -30.6550  -17.3857   18.0778 C   0  0  0  0  0  0
  -29.2056  -17.1836   18.5310 C   0  0  0  0  0  0
  -31.4711  -16.7041   19.1784 C   0  0  0  0  0  0
  -29.3371  -17.0882   20.0597 C   0  0  1  0  0  0
  -28.1458  -24.8709   19.8225 C   0  0  0  0  0  0
  -30.4780  -16.0712   20.0745 N   0  0  0  0  0  0
  -28.7133  -22.3544   20.2124 N   0  0  0  0  0  0
  -29.8001  -23.9861   21.4190 O   0  0  0  0  0  0
  -30.3565  -20.7601   21.8929 S   0  0  0  0  0  0
  -31.4348  -12.6022   19.1051 H   0  0  0  0  0  0
  -30.3523  -11.5863   20.0088 H   0  0  0  0  0  0
  -29.7780  -11.6431   17.5569 H   0  0  0  0  0  0
  -29.5750  -13.3715   17.6162 H   0  0  0  0  0  0
  -27.9115  -11.2510   18.9791 H   0  0  0  0  0  0
  -27.3509  -12.3968   17.7950 H   0  0  0  0  0  0
  -27.5867  -14.2295   19.3535 H   0  0  0  0  0  0
  -28.7729  -12.3600   21.4487 H   0  0  0  0  0  0
  -28.4051  -14.0558   21.6768 H   0  0  0  0  0  0
  -25.2640   -9.5688   22.4855 H   0  0  0  0  0  0
  -23.9910   -7.4623   22.7594 H   0  0  0  0  0  0
  -21.0805   -8.8611   19.8951 H   0  0  0  0  0  0
  -22.3586  -10.9580   19.6144 H   0  0  0  0  0  0
  -21.2060   -7.6171   23.9709 H   0  0  0  0  0  0
  -21.1554   -6.0570   25.9090 H   0  0  0  0  0  0
  -22.0534   -2.7617   23.2819 H   0  0  0  0  0  0
  -22.3926  -11.9821   22.4757 H   0  0  0  0  0  0
  -21.0967  -13.1192   22.2580 H   0  0  0  0  0  0
  -26.1686  -15.6564   19.9243 H   0  0  0  0  0  0
  -24.6795  -15.8605   20.6683 H   0  0  0  0  0  0
  -26.7242  -32.5393   23.1036 H   0  0  0  0  0  0
  -24.9930  -33.9658   25.0243 H   0  0  0  0  0  0
  -22.7252  -31.2906   21.3848 H   0  0  0  0  0  0
  -23.3733  -35.9720   23.3317 H   0  0  0  0  0  0
  -24.3580  -36.8996   22.2055 H   0  0  0  0  0  0
  -23.7343  -37.6566   23.6697 H   0  0  0  0  0  0
  -26.1383  -31.5119   20.6028 H   0  0  0  0  0  0
  -26.8545  -30.8053   22.0160 H   0  0  0  0  0  0
  -28.1159  -28.8882   21.2341 H   0  0  0  0  0  0
  -25.9555  -25.9403   18.9238 H   0  0  0  0  0  0
  -23.9810  -27.3271   18.9694 H   0  0  0  0  0  0
  -23.7868  -30.5803   19.3945 H   0  0  0  0  0  0
  -22.7735  -29.2395   19.8403 H   0  0  0  0  0  0
  -25.1342  -36.1919   25.0790 H   0  0  0  0  0  0
  -20.9949  -28.3302   24.1394 H   0  0  0  0  0  0
  -20.5718  -26.2313   23.3630 H   0  0  0  0  0  0
  -21.6660  -26.7481   22.1198 H   0  0  0  0  0  0
  -19.6969  -25.6272   21.1279 H   0  0  0  0  0  0
  -19.6729  -27.3144   20.6729 H   0  0  0  0  0  0
  -17.4226  -26.6632   21.4013 H   0  0  0  0  0  0
  -18.0366  -26.0054   22.9002 H   0  0  0  0  0  0
  -19.7925  -30.7298   24.2206 H   0  0  0  0  0  0
  -17.5006  -31.6252   24.5206 H   0  0  0  0  0  0
  -15.5337  -30.3020   23.7659 H   0  0  0  0  0  0
  -15.8656  -28.0834   22.7125 H   0  0  0  0  0  0
  -24.5819  -30.7156   25.7651 H   0  0  0  0  0  0
  -24.8930  -32.2944   26.4826 H   0  0  0  0  0  0
  -25.7932  -30.8848   27.0150 H   0  0  0  0  0  0
  -26.2980  -29.6753   24.1192 H   0  0  0  0  0  0
  -27.3971  -29.7221   25.4734 H   0  0  0  0  0  0
  -27.8835  -30.4250   23.9489 H   0  0  0  0  0  0
  -27.2553  -33.3664   26.1976 H   0  0  0  0  0  0
  -28.3764  -32.7027   25.0249 H   0  0  0  0  0  0
  -28.0739  -31.8602   26.5406 H   0  0  0  0  0  0
  -28.2645  -38.0104   24.7384 H   0  0  0  0  0  0
  -28.1009  -36.2642   24.6423 H   0  0  0  0  0  0
  -27.2264  -37.1665   25.8857 H   0  0  0  0  0  0
  -20.9469  -29.8711   21.6781 H   0  0  0  0  0  0
  -26.0193  -38.2852   24.1256 H   0  0  0  0  0  0
  -28.1905  -19.7520   19.2403 H   0  0  0  0  0  0
  -30.9658  -18.3698   22.2614 H   0  0  0  0  0  0
  -30.9287  -18.4417   18.0188 H   0  0  0  0  0  0
  -30.8455  -16.9416   17.0994 H   0  0  0  0  0  0
  -28.8415  -16.2387   18.1254 H   0  0  0  0  0  0
  -28.5272  -17.9518   18.1665 H   0  0  0  0  0  0
  -32.0740  -17.4160   19.7421 H   0  0  0  0  0  0
  -32.1667  -16.0069   18.7028 H   0  0  0  0  0  0
  -28.4368  -16.6434   20.4831 H   0  0  0  0  0  0
  -27.1114  -24.5559   19.9361 H   0  0  0  0  0  0
  -28.3795  -24.8157   18.7546 H   0  0  0  0  0  0
  -28.0080  -22.2875   19.4908 H   0  0  0  0  0  0
  1 25  1  0  0  0
  1 30  2  0  0  0
  1 81  1  0  0  0
  2  3  1  0  0  0
  2 25  1  0  0  0
  2 85  1  0  0  0
  2 86  1  0  0  0
  3  4  1  0  0  0
  3 87  1  0  0  0
  3 88  1  0  0  0
  4  5  1  0  0  0
  4 89  1  0  0  0
  4 90  1  0  0  0
  5  6  1  0  0  0
  5 26  1  0  0  0
  5 91  1  0  0  0
  6 25  1  0  0  0
  6 92  1  0  0  0
  6 93  1  0  0  0
  7  8  2  0  0  0
  7 26  1  0  0  0
  7 29  1  0  0  0
  8  9  1  0  0  0
  8 22  1  0  0  0
  9 10  1  0  0  0
  9 27  2  0  0  0
 10 11  2  0  0  0
 10 15  1  0  0  0
 11 12  1  0  0  0
 11 94  1  0  0  0
 12 13  2  0  0  0
 12 95  1  0  0  0
 13 14  1  0  0  0
 13 31  1  0  0  0
 14 15  2  0  0  0
 14 96  1  0  0  0
 15 97  1  0  0  0
 16 17  2  0  0  0
 16 21  1  0  0  0
 16 31  1  0  0  0
 17 18  1  0  0  0
 17 98  1  0  0  0
 18 19  2  0  0  0
 18 99  1  0  0  0
 19 20  1  0  0  0
 19 24  1  0  0  0
 20 21  2  0  0  0
 20100  1  0  0  0
 21 23  1  0  0  0
 22 28  1  0  0  0
 22 32  2  0  0  0
 26 27  1  0  0  0
 28101  1  0  0  0
 28102  1  0  0  0
 29103  1  0  0  0
 29104  1  0  0  0
 33 34  1  0  0  0
 33 66  1  0  0  0
 33 70  2  0  0  0
 34 36  1  0  0  0
 34 59  1  0  0  0
 34105  1  0  0  0
 35 44  2  0  0  0
 35 45  1  0  0  0
 35 68  1  0  0  0
 36 56  1  0  0  0
 36106  1  0  0  0
 37 39  1  0  0  0
 37 47  1  0  0  0
 37 66  1  0  0  0
 37107  1  0  0  0
 38 43  2  0  0  0
 38 46  1  0  0  0
 38 47  1  0  0  0
 39 64  1  0  0  0
 39 67  2  0  0  0
 40 52  1  0  0  0
 40 53  2  0  0  0
 40 58  1  0  0  0
 41108  1  0  0  0
 41109  1  0  0  0
 41110  1  0  0  0
 41 48  1  0  0  0
 42 43  1  0  0  0
 42 66  1  0  0  0
 42111  1  0  0  0
 42112  1  0  0  0
 43 44  1  0  0  0
 44113  1  0  0  0
 45 46  2  0  0  0
 45114  1  0  0  0
 46115  1  0  0  0
 47116  1  0  0  0
 47117  1  0  0  0
 48 56  1  0  0  0
 48 65  1  0  0  0
 48118  1  0  0  0
 49 50  1  0  0  0
 49 53  1  0  0  0
 49 64  1  0  0  0
 49119  1  0  0  0
 50 51  1  0  0  0
 50120  1  0  0  0
 50121  1  0  0  0
 51 52  1  0  0  0
 51122  1  0  0  0
 51123  1  0  0  0
 52124  1  0  0  0
 52125  1  0  0  0
 53 54  1  0  0  0
 54 55  2  0  0  0
 54126  1  0  0  0
 55 57  1  0  0  0
 55127  1  0  0  0
 56 69  2  0  0  0
 57 58  2  0  0  0
 57128  1  0  0  0
 58129  1  0  0  0
 59 60  1  0  0  0
 59 61  1  0  0  0
 59 62  1  0  0  0
 60130  1  0  0  0
 60131  1  0  0  0
 60132  1  0  0  0
 61133  1  0  0  0
 61134  1  0  0  0
 61135  1  0  0  0
 62136  1  0  0  0
 62137  1  0  0  0
 62138  1  0  0  0
 63 65  1  0  0  0
 63139  1  0  0  0
 63140  1  0  0  0
 63141  1  0  0  0
 64142  1  0  0  0
 65143  1  0  0  0
 68 80  1  0  0  0
 71 73  1  0  0  0
 71 74  2  0  0  0
 71144  1  0  0  0
 72 73  2  0  0  0
 72 84  1  0  0  0
 72145  1  0  0  0
 73 79  1  0  0  0
 74 82  1  0  0  0
 74 84  1  0  0  0
 75 80  1  0  0  0
 75 82  1  0  0  0
 75 83  2  0  0  0
 76 77  1  0  0  0
 76 78  1  0  0  0
 76146  1  0  0  0
 76147  1  0  0  0
 77 79  1  0  0  0
 77148  1  0  0  0
 77149  1  0  0  0
 78 81  1  0  0  0
 78150  1  0  0  0
 78151  1  0  0  0
 79 81  1  0  0  0
 79152  1  0  0  0
 80153  1  0  0  0
 80154  1  0  0  0
 82155  1  0  0  0
M  ISO  4   1 100  68 101  80 101  81 100
M  END
> <chiral flag>
0

> <version>
0

> <s_m_source_file>
/data/baiqing/PycharmProjects/Reinvent-master-3.2/result/LINK_invent/BTK/process_docking_weight1_custom_product_contain_oxygen_bond_distance_aromatic_linkinvent_7_9_3/rearranged_h_0154.sdf

> <i_m_source_file_index>
70

> <r_mmod_Potential_Energy-OPLS-2005>
510.435577392578

> <r_mmod_Stretch_Energy-OPLS-2005>
146.581207275391

> <r_mmod_Bend_Energy-OPLS-2005>
288.403442382812

> <r_mmod_Torsional_Energy-OPLS-2005>
328.060028076172

> <r_mmod_Improper_Torsional_Energy-OPLS-2005>
24.8881607055664

> <r_mmod_Van_der_Waal_Energy-OPLS-2005>
127.028961181641

> <r_mmod_Electrostatic_Energy-OPLS-2005>
-303.802459716797

> <r_mmod_Solvation_Energy-OPLS-2005>
-244.67578125

> <b_mmod_Minimization_Converged-OPLS-2005>
0

> <r_mmod_RMS_Derivative-OPLS-2005>
7.92031764984131

$$$$
70
                    3D
 Structure written by MMmdl.
152160  0  0  1  0            999 V2000
  -30.6625  -14.6223   20.4844 C   0  0  0  0  0  0
  -30.4310  -12.3689   19.4842 C   0  0  0  0  0  0
  -29.5178  -12.4850   18.2443 C   0  0  0  0  0  0
  -28.0395  -12.3249   18.6475 C   0  0  0  0  0  0
  -27.6519  -13.2192   19.8541 C   0  0  2  0  0  0
  -28.6885  -13.1164   20.9969 C   0  0  0  0  0  0
  -25.2560  -13.8203   20.5614 C   0  0  0  0  0  0
  -24.1831  -13.0464   20.9172 C   0  0  0  0  0  0
  -24.6396  -11.6936   20.8746 C   0  0  0  0  0  0
  -23.9068  -10.4313   21.0407 C   0  0  0  0  0  0
  -24.3625   -9.4220   21.9180 C   0  0  0  0  0  0
  -23.6305   -8.2252   22.0752 C   0  0  0  0  0  0
  -22.4282   -8.0292   21.3549 C   0  0  0  0  0  0
  -21.9904   -9.0268   20.4652 C   0  0  0  0  0  0
  -22.7233  -10.2145   20.3064 C   0  0  0  0  0  0
  -21.6863   -6.0738   22.5277 C   0  0  0  0  0  0
  -21.4024   -6.5633   23.8218 C   0  0  0  0  0  0
  -21.3668   -5.6783   24.9175 C   0  0  0  0  0  0
  -21.6055   -4.3051   24.7224 C   0  0  0  0  0  0
  -21.8819   -3.8141   23.4345 C   0  0  0  0  0  0
  -21.9197   -4.6959   22.3401 C   0  0  0  0  0  0
  -22.7855  -13.5254   21.1828 C   0  0  0  0  0  0
  -22.1659   -4.2141   21.0976 F   0  0  0  0  0  0
  -21.5637   -3.4534   25.7737 F   0  0  0  0  0  0
  -30.0201  -13.4122   20.4473 N   0  0  0  0  0  0
  -26.2983  -12.9376   20.3259 N   0  0  0  0  0  0
  -25.9330  -11.6540   20.5770 N   0  0  0  0  0  0
  -22.0487  -12.8285   22.0418 N   0  0  0  0  0  0
  -25.4236  -15.1930   20.3934 N   0  0  0  0  0  0
  -31.8248  -14.7307   20.0838 O   0  0  0  0  0  0
  -21.6665   -6.8883   21.4239 O   0  0  0  0  0  0
  -22.3543  -14.5540   20.6659 O   0  0  0  0  0  0
  -24.6253  -31.8580   23.2011 C   0  0  0  0  0  0
  -25.9090  -32.4781   23.8328 C   0  0  1  0  0  0
  -27.2243  -27.3185   20.1439 C   0  0  0  0  0  0
  -25.5871  -33.8579   24.2256 N   0  0  0  0  0  0
  -23.4196  -30.4800   21.5432 C   0  0  2  0  0  0
  -24.8700  -28.9307   20.1121 C   0  0  0  0  0  0
  -22.7470  -29.4619   22.4938 C   0  0  0  0  0  0
  -18.0278  -28.1385   22.8482 C   0  0  0  0  0  0
  -24.1465  -36.7324   23.2654 C   0  0  0  0  0  0
  -25.9563  -30.7923   21.3665 C   0  0  0  0  0  0
  -26.0339  -29.4154   20.7225 C   0  0  0  0  0  0
  -27.2162  -28.6209   20.7301 C   0  0  0  0  0  0
  -26.0529  -26.8927   19.4855 C   0  0  0  0  0  0
  -24.8814  -27.6745   19.4818 C   0  0  0  0  0  0
  -23.6360  -29.8090   20.1584 C   0  0  0  0  0  0
  -25.4095  -36.3090   24.0324 C   0  0  1  0  0  0
  -20.5867  -28.3691   23.1283 C   0  0  2  0  0  0
  -20.6760  -26.9411   22.5416 C   0  0  0  0  0  0
  -19.5735  -26.6383   21.5213 C   0  0  0  0  0  0
  -18.1920  -26.7924   22.1620 C   0  0  0  0  0  0
  -19.1528  -28.8847   23.2880 C   0  0  0  0  0  0
  -18.9467  -30.1453   23.8891 C   0  0  0  0  0  0
  -17.6474  -30.6584   24.0567 C   0  0  0  0  0  0
  -25.9020  -34.9458   23.5096 C   0  0  0  0  0  0
  -16.5359  -29.9098   23.6327 C   0  0  0  0  0  0
  -16.7269  -28.6509   23.0347 C   0  0  0  0  0  0
  -26.4514  -31.6611   25.0690 C   0  0  0  0  0  0
  -25.3771  -31.3745   26.1437 C   0  0  0  0  0  0
  -27.0412  -30.3054   24.6158 C   0  0  0  0  0  0
  -27.6062  -32.4388   25.7434 C   0  0  0  0  0  0
  -27.5555  -37.1827   24.8474 C   0  0  0  0  0  0
  -21.4180  -29.3044   22.3681 N   0  0  0  0  0  0
  -26.4290  -37.3776   23.9380 N   0  0  0  0  0  0
  -24.6864  -31.0599   22.0942 N   0  0  0  0  0  0
  -23.4195  -28.8170   23.3021 O   0  0  0  0  0  0
  -28.3321  -26.4626   20.1865 O   0  0  0  0  0  0
  -26.5634  -34.8927   22.4692 O   0  0  0  0  0  0
  -23.5413  -32.1373   23.7337 O   0  0  0  0  0  0
  -30.4815  -20.9869   20.3283 C   0  0  0  0  0  0
  -30.7476  -19.5736   20.1614 C   0  0  0  0  0  0
  -29.1596  -21.2922   20.5769 C   0  0  0  0  0  0
  -29.6337  -18.7682   20.2581 C   0  0  0  0  0  0
  -26.9341  -24.9086   21.6674 C   0  0  0  0  0  0
  -28.7364  -23.8333   20.1115 C   0  0  0  0  0  0
  -28.2543  -25.1508   20.8926 C   0  0  1  0  0  0
  -28.4991  -22.5358   20.8241 N   0  0  0  0  0  0
  -29.9591  -15.7964   20.8713 N   0  0  0  0  0  0
  -28.0012  -16.8257   19.5254 O   0  0  0  0  0  0
  -30.3311  -16.9091   18.5220 O   0  0  0  0  0  0
  -28.2412  -19.7764   20.6517 S   0  0  0  0  0  0
  -29.4515  -17.0193   19.7010 S   0  0  0  0  0  0
  -31.4771  -12.4596   19.1911 H   0  0  0  0  0  0
  -30.3396  -11.3832   19.9425 H   0  0  0  0  0  0
  -29.7861  -11.7258   17.5089 H   0  0  0  0  0  0
  -29.6676  -13.4526   17.7610 H   0  0  0  0  0  0
  -27.8851  -11.2749   18.9031 H   0  0  0  0  0  0
  -27.3880  -12.5272   17.7961 H   0  0  0  0  0  0
  -27.6606  -14.2444   19.4879 H   0  0  0  0  0  0
  -28.6817  -12.1187   21.4383 H   0  0  0  0  0  0
  -28.4317  -13.8073   21.8021 H   0  0  0  0  0  0
  -25.2772   -9.5712   22.4743 H   0  0  0  0  0  0
  -24.0028   -7.4657   22.7469 H   0  0  0  0  0  0
  -21.0838   -8.8795   19.8964 H   0  0  0  0  0  0
  -22.3693  -10.9691   19.6183 H   0  0  0  0  0  0
  -21.2004   -7.6139   23.9712 H   0  0  0  0  0  0
  -21.1494   -6.0514   25.9081 H   0  0  0  0  0  0
  -22.0582   -2.7597   23.2849 H   0  0  0  0  0  0
  -22.4111  -12.0000   22.4890 H   0  0  0  0  0  0
  -21.1101  -13.1336   22.2580 H   0  0  0  0  0  0
  -24.6341  -15.8275   20.4366 H   0  0  0  0  0  0
  -26.2675  -15.6350   20.0393 H   0  0  0  0  0  0
  -26.7153  -32.5497   23.1071 H   0  0  0  0  0  0
  -24.9928  -33.9714   25.0336 H   0  0  0  0  0  0
  -22.7131  -31.2997   21.3973 H   0  0  0  0  0  0
  -23.3668  -35.9725   23.3397 H   0  0  0  0  0  0
  -24.3524  -36.8881   22.2053 H   0  0  0  0  0  0
  -23.7305  -37.6576   23.6641 H   0  0  0  0  0  0
  -26.0750  -31.5434   20.5841 H   0  0  0  0  0  0
  -26.8435  -30.8589   21.9841 H   0  0  0  0  0  0
  -28.1070  -28.9871   21.2204 H   0  0  0  0  0  0
  -26.0392  -25.9270   18.9999 H   0  0  0  0  0  0
  -23.9923  -27.3001   18.9941 H   0  0  0  0  0  0
  -23.7570  -30.5835   19.4004 H   0  0  0  0  0  0
  -22.7571  -29.2354   19.8587 H   0  0  0  0  0  0
  -25.1292  -36.1924   25.0820 H   0  0  0  0  0  0
  -20.9969  -28.3253   24.1394 H   0  0  0  0  0  0
  -20.5638  -26.2299   23.3620 H   0  0  0  0  0  0
  -21.6645  -26.7425   22.1229 H   0  0  0  0  0  0
  -19.6899  -25.6296   21.1240 H   0  0  0  0  0  0
  -19.6669  -27.3193   20.6743 H   0  0  0  0  0  0
  -17.4199  -26.6671   21.4021 H   0  0  0  0  0  0
  -18.0312  -26.0064   22.9002 H   0  0  0  0  0  0
  -19.7948  -30.7259   24.2251 H   0  0  0  0  0  0
  -17.5036  -31.6256   24.5195 H   0  0  0  0  0  0
  -15.5365  -30.3009   23.7654 H   0  0  0  0  0  0
  -15.8659  -28.0840   22.7065 H   0  0  0  0  0  0
  -24.5937  -30.7095   25.7775 H   0  0  0  0  0  0
  -24.8962  -32.2904   26.4883 H   0  0  0  0  0  0
  -25.8130  -30.8906   27.0179 H   0  0  0  0  0  0
  -26.2967  -29.6685   24.1356 H   0  0  0  0  0  0
  -27.4359  -29.7466   25.4648 H   0  0  0  0  0  0
  -27.8717  -30.4387   23.9234 H   0  0  0  0  0  0
  -27.2637  -33.3651   26.2072 H   0  0  0  0  0  0
  -28.3806  -32.7062   25.0223 H   0  0  0  0  0  0
  -28.0835  -31.8507   26.5288 H   0  0  0  0  0  0
  -28.2654  -38.0042   24.7401 H   0  0  0  0  0  0
  -28.0972  -36.2567   24.6449 H   0  0  0  0  0  0
  -27.2258  -37.1671   25.8882 H   0  0  0  0  0  0
  -20.9344  -29.8779   21.6910 H   0  0  0  0  0  0
  -26.0162  -38.2859   24.1304 H   0  0  0  0  0  0
  -31.2754  -21.7185   20.2507 H   0  0  0  0  0  0
  -31.7307  -19.2068   19.9024 H   0  0  0  0  0  0
  -26.6691  -25.7673   22.2856 H   0  0  0  0  0  0
  -27.0228  -24.0640   22.3525 H   0  0  0  0  0  0
  -26.0956  -24.6906   21.0064 H   0  0  0  0  0  0
  -29.7915  -23.9247   19.8504 H   0  0  0  0  0  0
  -28.1968  -23.7785   19.1646 H   0  0  0  0  0  0
  -28.9945  -25.2689   21.6857 H   0  0  0  0  0  0
  -27.5217  -22.4135   21.0776 H   0  0  0  0  0  0
  -29.1784  -15.6790   21.5083 H   0  0  0  0  0  0
  1 25  1  0  0  0
  1 30  2  0  0  0
  1 79  1  0  0  0
  2  3  1  0  0  0
  2 25  1  0  0  0
  2 84  1  0  0  0
  2 85  1  0  0  0
  3  4  1  0  0  0
  3 86  1  0  0  0
  3 87  1  0  0  0
  4  5  1  0  0  0
  4 88  1  0  0  0
  4 89  1  0  0  0
  5  6  1  0  0  0
  5 26  1  0  0  0
  5 90  1  0  0  0
  6 25  1  0  0  0
  6 91  1  0  0  0
  6 92  1  0  0  0
  7  8  2  0  0  0
  7 26  1  0  0  0
  7 29  1  0  0  0
  8  9  1  0  0  0
  8 22  1  0  0  0
  9 10  1  0  0  0
  9 27  2  0  0  0
 10 11  2  0  0  0
 10 15  1  0  0  0
 11 12  1  0  0  0
 11 93  1  0  0  0
 12 13  2  0  0  0
 12 94  1  0  0  0
 13 14  1  0  0  0
 13 31  1  0  0  0
 14 15  2  0  0  0
 14 95  1  0  0  0
 15 96  1  0  0  0
 16 17  2  0  0  0
 16 21  1  0  0  0
 16 31  1  0  0  0
 17 18  1  0  0  0
 17 97  1  0  0  0
 18 19  2  0  0  0
 18 98  1  0  0  0
 19 20  1  0  0  0
 19 24  1  0  0  0
 20 21  2  0  0  0
 20 99  1  0  0  0
 21 23  1  0  0  0
 22 28  1  0  0  0
 22 32  2  0  0  0
 26 27  1  0  0  0
 28100  1  0  0  0
 28101  1  0  0  0
 29102  1  0  0  0
 29103  1  0  0  0
 33 34  1  0  0  0
 33 66  1  0  0  0
 33 70  2  0  0  0
 34 36  1  0  0  0
 34 59  1  0  0  0
 34104  1  0  0  0
 35 44  2  0  0  0
 35 45  1  0  0  0
 35 68  1  0  0  0
 36 56  1  0  0  0
 36105  1  0  0  0
 37 39  1  0  0  0
 37 47  1  0  0  0
 37 66  1  0  0  0
 37106  1  0  0  0
 38 43  2  0  0  0
 38 46  1  0  0  0
 38 47  1  0  0  0
 39 64  1  0  0  0
 39 67  2  0  0  0
 40 52  1  0  0  0
 40 53  2  0  0  0
 40 58  1  0  0  0
 41107  1  0  0  0
 41108  1  0  0  0
 41109  1  0  0  0
 41 48  1  0  0  0
 42 43  1  0  0  0
 42 66  1  0  0  0
 42110  1  0  0  0
 42111  1  0  0  0
 43 44  1  0  0  0
 44112  1  0  0  0
 45 46  2  0  0  0
 45113  1  0  0  0
 46114  1  0  0  0
 47115  1  0  0  0
 47116  1  0  0  0
 48 56  1  0  0  0
 48 65  1  0  0  0
 48117  1  0  0  0
 49 50  1  0  0  0
 49 53  1  0  0  0
 49 64  1  0  0  0
 49118  1  0  0  0
 50 51  1  0  0  0
 50119  1  0  0  0
 50120  1  0  0  0
 51 52  1  0  0  0
 51121  1  0  0  0
 51122  1  0  0  0
 52123  1  0  0  0
 52124  1  0  0  0
 53 54  1  0  0  0
 54 55  2  0  0  0
 54125  1  0  0  0
 55 57  1  0  0  0
 55126  1  0  0  0
 56 69  2  0  0  0
 57 58  2  0  0  0
 57127  1  0  0  0
 58128  1  0  0  0
 59 60  1  0  0  0
 59 61  1  0  0  0
 59 62  1  0  0  0
 60129  1  0  0  0
 60130  1  0  0  0
 60131  1  0  0  0
 61132  1  0  0  0
 61133  1  0  0  0
 61134  1  0  0  0
 62135  1  0  0  0
 62136  1  0  0  0
 62137  1  0  0  0
 63 65  1  0  0  0
 63138  1  0  0  0
 63139  1  0  0  0
 63140  1  0  0  0
 64141  1  0  0  0
 65142  1  0  0  0
 68 77  1  0  0  0
 71 72  1  0  0  0
 71 73  2  0  0  0
 71143  1  0  0  0
 72 74  2  0  0  0
 72144  1  0  0  0
 73 78  1  0  0  0
 73 82  1  0  0  0
 74 82  1  0  0  0
 74 83  1  0  0  0
 75145  1  0  0  0
 75146  1  0  0  0
 75147  1  0  0  0
 75 77  1  0  0  0
 76 77  1  0  0  0
 76 78  1  0  0  0
 76148  1  0  0  0
 76149  1  0  0  0
 77150  1  0  0  0
 78151  1  0  0  0
 79152  1  0  0  0
 79 83  1  0  0  0
 80 83  2  0  0  0
 81 83  2  0  0  0
M  ISO  4   1 100  68 101  77 101  79 100
M  END
> <chiral flag>
0

> <version>
0

> <s_m_source_file>
/data/baiqing/PycharmProjects/Reinvent-master-3.2/result/LINK_invent/BTK/process_docking_weight1_custom_product_contain_oxygen_bond_distance_aromatic_linkinvent_7_9_3/rearranged_h_0154.sdf

> <i_m_source_file_index>
71

> <r_mmod_Potential_Energy-OPLS-2005>
-131.983856201172

> <r_mmod_Stretch_Energy-OPLS-2005>
71.3351440429688

> <r_mmod_Bend_Energy-OPLS-2005>
149.268600463867

> <r_mmod_Torsional_Energy-OPLS-2005>
258.418121337891

> <r_mmod_Improper_Torsional_Energy-OPLS-2005>
12.4418172836304

> <r_mmod_Van_der_Waal_Energy-OPLS-2005>
112.573097229004

> <r_mmod_Electrostatic_Energy-OPLS-2005>
-542.900756835938

> <r_mmod_Solvation_Energy-OPLS-2005>
-241.615081787109

> <b_mmod_Minimization_Converged-OPLS-2005>
0

> <r_mmod_RMS_Derivative-OPLS-2005>
3.6421492099762

$$$$
71
                    3D
 Structure written by MMmdl.
156165  0  0  1  0            999 V2000
  -29.8760  -12.9609   19.8769 C   0  0  0  0  0  0
  -30.9652  -12.8827   18.7566 C   0  0  0  0  0  0
  -30.0899  -14.5972   18.3164 C   0  0  0  0  0  0
  -28.4863  -14.9433   19.5109 C   0  0  0  0  0  0
  -27.7600  -13.7068   20.6650 C   0  0  2  0  0  0
  -28.8883  -12.3427   21.0246 C   0  0  0  0  0  0
  -25.2179  -13.9169   20.6246 C   0  0  0  0  0  0
  -24.1729  -13.0733   20.8762 C   0  0  0  0  0  0
  -24.6922  -11.7446   20.8275 C   0  0  0  0  0  0
  -23.9696  -10.4509   20.9986 C   0  0  0  0  0  0
  -24.4023   -9.4416   21.8932 C   0  0  0  0  0  0
  -23.6562   -8.2492   22.0669 C   0  0  0  0  0  0
  -22.4506   -8.0479   21.3531 C   0  0  0  0  0  0
  -22.0230   -9.0459   20.4597 C   0  0  0  0  0  0
  -22.7708  -10.2258   20.2835 C   0  0  0  0  0  0
  -21.6975   -6.0855   22.5286 C   0  0  0  0  0  0
  -21.4123   -6.5725   23.8234 C   0  0  0  0  0  0
  -21.3688   -5.6852   24.9178 C   0  0  0  0  0  0
  -21.6031   -4.3112   24.7210 C   0  0  0  0  0  0
  -21.8800   -3.8212   23.4328 C   0  0  0  0  0  0
  -21.9225   -4.7048   22.3398 C   0  0  0  0  0  0
  -22.7622  -13.5047   21.1543 C   0  0  0  0  0  0
  -22.1666   -4.2216   21.0978 F   0  0  0  0  0  0
  -21.5585   -3.4580   25.7719 F   0  0  0  0  0  0
  -30.2499  -12.0170   20.0671 N   0  0  0  0  0  0
  -26.3579  -13.1618   20.5058 N   0  0  0  0  0  0
  -26.0189  -11.8171   20.6110 N   0  0  0  0  0  0
  -22.0511  -12.7873   22.0171 N   0  0  0  0  0  0
  -25.3254  -15.2966   20.6039 N   0  0  0  0  0  0
  -30.5312  -13.9515   20.6312 O   0  0  0  0  0  0
  -21.6814   -6.9073   21.4272 O   0  0  0  0  0  0
  -22.3086  -14.5347   20.6602 O   0  0  0  0  0  0
  -24.6615  -31.8322   23.1840 C   0  0  0  0  0  0
  -25.9336  -32.4620   23.8230 C   0  0  1  0  0  0
  -27.0916  -26.9938   19.9907 C   0  0  0  0  0  0
  -25.6031  -33.8439   24.2130 N   0  0  0  0  0  0
  -23.4583  -30.4666   21.5440 C   0  0  2  0  0  0
  -24.8662  -28.8859   20.0950 C   0  0  0  0  0  0
  -22.7617  -29.4513   22.4865 C   0  0  0  0  0  0
  -18.0309  -28.1399   22.8473 C   0  0  0  0  0  0
  -24.1498  -36.7212   23.2638 C   0  0  0  0  0  0
  -26.0337  -30.6386   21.4056 C   0  0  0  0  0  0
  -26.0714  -29.2481   20.7120 C   0  0  0  0  0  0
  -27.1965  -28.3125   20.6476 C   0  0  0  0  0  0
  -25.8647  -26.7905   19.3464 C   0  0  0  0  0  0
  -24.7807  -27.6747   19.4091 C   0  0  0  0  0  0
  -23.6727  -29.8234   20.1564 C   0  0  0  0  0  0
  -25.4138  -36.2988   24.0299 C   0  0  1  0  0  0
  -20.5928  -28.3729   23.1222 C   0  0  2  0  0  0
  -20.6797  -26.9428   22.5398 C   0  0  0  0  0  0
  -19.5765  -26.6380   21.5215 C   0  0  0  0  0  0
  -18.1947  -26.7935   22.1627 C   0  0  0  0  0  0
  -19.1567  -28.8885   23.2837 C   0  0  0  0  0  0
  -18.9480  -30.1480   23.8863 C   0  0  0  0  0  0
  -17.6475  -30.6593   24.0555 C   0  0  0  0  0  0
  -25.9111  -34.9369   23.5022 C   0  0  0  0  0  0
  -16.5366  -29.9080   23.6340 C   0  0  0  0  0  0
  -16.7293  -28.6502   23.0359 C   0  0  0  0  0  0
  -26.4575  -31.6548   25.0745 C   0  0  0  0  0  0
  -25.3700  -31.3791   26.1401 C   0  0  0  0  0  0
  -27.0450  -30.2912   24.6466 C   0  0  0  0  0  0
  -27.6080  -32.4344   25.7538 C   0  0  0  0  0  0
  -27.5582  -37.1765   24.8462 C   0  0  0  0  0  0
  -21.4298  -29.3050   22.3604 N   0  0  0  0  0  0
  -26.4283  -37.3727   23.9414 N   0  0  0  0  0  0
  -24.7422  -31.0026   22.0971 N   0  0  0  0  0  0
  -23.4227  -28.8022   23.3010 O   0  0  0  0  0  0
  -28.0100  -25.8595   19.8577 O   0  0  0  0  0  0
  -26.5703  -34.8890   22.4607 O   0  0  0  0  0  0
  -23.5711  -32.1305   23.6987 O   0  0  0  0  0  0
  -26.6576  -17.6348   17.8633 C   0  0  0  0  0  0
  -27.9506  -17.8636   17.6319 C   0  0  0  0  0  0
  -27.3844  -20.1556   18.4284 C   0  0  0  0  0  0
  -27.9898  -22.9571   18.9422 C   0  0  0  0  0  0
  -26.2354  -16.1801   17.4819 C   0  0  0  0  0  0
  -27.5606  -15.3618   17.0489 C   0  0  2  0  0  0
  -29.4591  -16.8363   15.9905 C   0  0  0  0  0  0
  -27.4817  -24.3198   19.8590 C   0  0  0  0  0  0
  -27.8160  -13.5708   17.5030 C   0  0  0  0  0  0
  -28.3645  -19.2788   17.9078 N   0  0  0  0  0  0
  -28.5370  -16.6077   17.1015 N   0  0  0  0  0  0
  -27.3656  -21.6429   18.9953 N   0  0  0  0  0  0
  -28.7148  -12.6562   18.6587 N   0  0  0  0  0  0
  -28.9617  -23.1234   18.1987 O   0  0  0  0  0  0
  -25.8731  -19.1141   18.5179 S   0  0  0  0  0  0
  -32.0463  -13.0437   18.9217 H   0  0  0  0  0  0
  -31.0166  -12.2516   17.8526 H   0  0  0  0  0  0
  -29.9675  -14.5733   17.2407 H   0  0  0  0  0  0
  -30.8021  -15.4104   18.4623 H   0  0  0  0  0  0
  -27.7602  -15.7065   19.3176 H   0  0  0  0  0  0
  -28.9626  -15.6132   20.2286 H   0  0  0  0  0  0
  -27.6988  -14.2504   21.6089 H   0  0  0  0  0  0
  -28.3449  -11.3935   21.0714 H   0  0  0  0  0  0
  -29.1843  -12.4244   22.0863 H   0  0  0  0  0  0
  -25.3143   -9.5843   22.4567 H   0  0  0  0  0  0
  -24.0206   -7.4929   22.7472 H   0  0  0  0  0  0
  -21.1099   -8.9052   19.8974 H   0  0  0  0  0  0
  -22.4126  -10.9757   19.5923 H   0  0  0  0  0  0
  -21.2189   -7.6237   23.9779 H   0  0  0  0  0  0
  -21.1515   -6.0572   25.9087 H   0  0  0  0  0  0
  -22.0545   -2.7673   23.2835 H   0  0  0  0  0  0
  -22.4363  -11.9665   22.4612 H   0  0  0  0  0  0
  -21.1121  -13.0777   22.2475 H   0  0  0  0  0  0
  -24.5335  -15.9104   20.7541 H   0  0  0  0  0  0
  -26.2013  -15.7901   20.5021 H   0  0  0  0  0  0
  -26.7380  -32.5107   23.0910 H   0  0  0  0  0  0
  -25.0146  -33.9533   25.0259 H   0  0  0  0  0  0
  -22.7683  -31.3017   21.4046 H   0  0  0  0  0  0
  -23.3791  -35.9510   23.3251 H   0  0  0  0  0  0
  -24.3581  -36.8909   22.2062 H   0  0  0  0  0  0
  -23.7215  -37.6370   23.6722 H   0  0  0  0  0  0
  -26.2299  -31.3983   20.6475 H   0  0  0  0  0  0
  -26.8916  -30.6596   22.0657 H   0  0  0  0  0  0
  -28.1241  -28.5744   21.1367 H   0  0  0  0  0  0
  -25.7021  -25.9068   18.7495 H   0  0  0  0  0  0
  -23.8649  -27.4129   18.8965 H   0  0  0  0  0  0
  -23.8362  -30.6118   19.4204 H   0  0  0  0  0  0
  -22.7688  -29.3048   19.8310 H   0  0  0  0  0  0
  -25.1329  -36.1793   25.0790 H   0  0  0  0  0  0
  -21.0009  -28.3312   24.1349 H   0  0  0  0  0  0
  -20.5702  -26.2338   23.3617 H   0  0  0  0  0  0
  -21.6657  -26.7435   22.1185 H   0  0  0  0  0  0
  -19.6923  -25.6283   21.1261 H   0  0  0  0  0  0
  -19.6700  -27.3174   20.6729 H   0  0  0  0  0  0
  -17.4215  -26.6676   21.4033 H   0  0  0  0  0  0
  -18.0348  -26.0087   22.9034 H   0  0  0  0  0  0
  -19.7952  -30.7308   24.2220 H   0  0  0  0  0  0
  -17.5022  -31.6268   24.5161 H   0  0  0  0  0  0
  -15.5363  -30.2968   23.7685 H   0  0  0  0  0  0
  -15.8695  -28.0808   22.7095 H   0  0  0  0  0  0
  -24.5911  -30.7108   25.7719 H   0  0  0  0  0  0
  -24.8851  -32.2980   26.4701 H   0  0  0  0  0  0
  -25.7933  -30.9050   27.0264 H   0  0  0  0  0  0
  -26.3098  -29.6602   24.1461 H   0  0  0  0  0  0
  -27.3959  -29.7272   25.5119 H   0  0  0  0  0  0
  -27.9063  -30.4095   23.9890 H   0  0  0  0  0  0
  -27.2672  -33.3700   26.1985 H   0  0  0  0  0  0
  -28.3955  -32.6811   25.0406 H   0  0  0  0  0  0
  -28.0671  -31.8549   26.5557 H   0  0  0  0  0  0
  -28.2557  -38.0105   24.7559 H   0  0  0  0  0  0
  -28.1125  -36.2634   24.6232 H   0  0  0  0  0  0
  -27.2303  -37.1335   25.8864 H   0  0  0  0  0  0
  -20.9525  -29.8790   21.6796 H   0  0  0  0  0  0
  -26.0133  -38.2782   24.1450 H   0  0  0  0  0  0
  -25.5387  -16.2117   16.6442 H   0  0  0  0  0  0
  -25.6991  -15.6744   18.2667 H   0  0  0  0  0  0
  -27.4227  -15.2555   15.9702 H   0  0  0  0  0  0
  -28.9102  -17.1831   15.1115 H   0  0  0  0  0  0
  -30.0023  -15.9409   15.6928 H   0  0  0  0  0  0
  -30.1939  -17.6015   16.2454 H   0  0  0  0  0  0
  -27.6989  -24.0031   20.8786 H   0  0  0  0  0  0
  -26.3952  -24.2848   19.8409 H   0  0  0  0  0  0
  -28.1934  -13.1387   16.5761 H   0  0  0  0  0  0
  -26.8086  -13.1567   17.5660 H   0  0  0  0  0  0
  -26.5635  -21.7360   19.6036 H   0  0  0  0  0  0
  -28.5770  -11.6642   18.5452 H   0  0  0  0  0  0
  1 25  1  0  0  0
  1 30  2  0  0  0
  1 83  1  0  0  0
  2  3  1  0  0  0
  2 25  1  0  0  0
  2 86  1  0  0  0
  2 87  1  0  0  0
  3  4  1  0  0  0
  3 88  1  0  0  0
  3 89  1  0  0  0
  4  5  1  0  0  0
  4 90  1  0  0  0
  4 91  1  0  0  0
  5  6  1  0  0  0
  5 26  1  0  0  0
  5 92  1  0  0  0
  6 25  1  0  0  0
  6 93  1  0  0  0
  6 94  1  0  0  0
  7  8  2  0  0  0
  7 26  1  0  0  0
  7 29  1  0  0  0
  8  9  1  0  0  0
  8 22  1  0  0  0
  9 10  1  0  0  0
  9 27  2  0  0  0
 10 11  2  0  0  0
 10 15  1  0  0  0
 11 12  1  0  0  0
 11 95  1  0  0  0
 12 13  2  0  0  0
 12 96  1  0  0  0
 13 14  1  0  0  0
 13 31  1  0  0  0
 14 15  2  0  0  0
 14 97  1  0  0  0
 15 98  1  0  0  0
 16 17  2  0  0  0
 16 21  1  0  0  0
 16 31  1  0  0  0
 17 18  1  0  0  0
 17 99  1  0  0  0
 18 19  2  0  0  0
 18100  1  0  0  0
 19 20  1  0  0  0
 19 24  1  0  0  0
 20 21  2  0  0  0
 20101  1  0  0  0
 21 23  1  0  0  0
 22 28  1  0  0  0
 22 32  2  0  0  0
 26 27  1  0  0  0
 28102  1  0  0  0
 28103  1  0  0  0
 29104  1  0  0  0
 29105  1  0  0  0
 33 34  1  0  0  0
 33 66  1  0  0  0
 33 70  2  0  0  0
 34 36  1  0  0  0
 34 59  1  0  0  0
 34106  1  0  0  0
 35 44  2  0  0  0
 35 45  1  0  0  0
 35 68  1  0  0  0
 36 56  1  0  0  0
 36107  1  0  0  0
 37 39  1  0  0  0
 37 47  1  0  0  0
 37 66  1  0  0  0
 37108  1  0  0  0
 38 43  2  0  0  0
 38 46  1  0  0  0
 38 47  1  0  0  0
 39 64  1  0  0  0
 39 67  2  0  0  0
 40 52  1  0  0  0
 40 53  2  0  0  0
 40 58  1  0  0  0
 41109  1  0  0  0
 41110  1  0  0  0
 41111  1  0  0  0
 41 48  1  0  0  0
 42 43  1  0  0  0
 42 66  1  0  0  0
 42112  1  0  0  0
 42113  1  0  0  0
 43 44  1  0  0  0
 44114  1  0  0  0
 45 46  2  0  0  0
 45115  1  0  0  0
 46116  1  0  0  0
 47117  1  0  0  0
 47118  1  0  0  0
 48 56  1  0  0  0
 48 65  1  0  0  0
 48119  1  0  0  0
 49 50  1  0  0  0
 49 53  1  0  0  0
 49 64  1  0  0  0
 49120  1  0  0  0
 50 51  1  0  0  0
 50121  1  0  0  0
 50122  1  0  0  0
 51 52  1  0  0  0
 51123  1  0  0  0
 51124  1  0  0  0
 52125  1  0  0  0
 52126  1  0  0  0
 53 54  1  0  0  0
 54 55  2  0  0  0
 54127  1  0  0  0
 55 57  1  0  0  0
 55128  1  0  0  0
 56 69  2  0  0  0
 57 58  2  0  0  0
 57129  1  0  0  0
 58130  1  0  0  0
 59 60  1  0  0  0
 59 61  1  0  0  0
 59 62  1  0  0  0
 60131  1  0  0  0
 60132  1  0  0  0
 60133  1  0  0  0
 61134  1  0  0  0
 61135  1  0  0  0
 61136  1  0  0  0
 62137  1  0  0  0
 62138  1  0  0  0
 62139  1  0  0  0
 63 65  1  0  0  0
 63140  1  0  0  0
 63141  1  0  0  0
 63142  1  0  0  0
 64143  1  0  0  0
 65144  1  0  0  0
 68 78  1  0  0  0
 71 72  2  0  0  0
 71 75  1  0  0  0
 71 85  1  0  0  0
 72 80  1  0  0  0
 72 81  1  0  0  0
 73 80  2  0  0  0
 73 82  1  0  0  0
 73 85  1  0  0  0
 74 78  1  0  0  0
 74 82  1  0  0  0
 74 84  2  0  0  0
 75 76  1  0  0  0
 75145  1  0  0  0
 75146  1  0  0  0
 76 79  1  0  0  0
 76 81  1  0  0  0
 76147  1  0  0  0
 77 81  1  0  0  0
 77148  1  0  0  0
 77149  1  0  0  0
 77150  1  0  0  0
 78151  1  0  0  0
 78152  1  0  0  0
 79 83  1  0  0  0
 79153  1  0  0  0
 79154  1  0  0  0
 82155  1  0  0  0
 83156  1  0  0  0
M  ISO  4   1 100  68 101  78 101  83 100
M  END
> <chiral flag>
0

> <version>
0

> <s_m_source_file>
/data/baiqing/PycharmProjects/Reinvent-master-3.2/result/LINK_invent/BTK/process_docking_weight1_custom_product_contain_oxygen_bond_distance_aromatic_linkinvent_7_9_3/rearranged_h_0154.sdf

> <i_m_source_file_index>
72

> <r_mmod_Potential_Energy-OPLS-2005>
6506.59033203125

> <r_mmod_Stretch_Energy-OPLS-2005>
2063.37353515625

> <r_mmod_Bend_Energy-OPLS-2005>
1164.26232910156

> <r_mmod_Torsional_Energy-OPLS-2005>
347.742370605469

> <r_mmod_Improper_Torsional_Energy-OPLS-2005>
8.95931816101074

> <r_mmod_Van_der_Waal_Energy-OPLS-2005>
1278.00830078125

> <r_mmod_Electrostatic_Energy-OPLS-2005>
-465.953399658203

> <r_mmod_Solvation_Energy-OPLS-2005>
-287.553985595703

> <b_mmod_Minimization_Converged-OPLS-2005>
0

> <r_mmod_RMS_Derivative-OPLS-2005>
3.25932025909424

$$$$
72
                    3D
 Structure written by MMmdl.
155163  0  0  1  0            999 V2000
  -30.6996  -14.5455   20.5530 C   0  0  0  0  0  0
  -30.4257  -12.3477   19.4349 C   0  0  0  0  0  0
  -29.4939  -12.4896   18.2130 C   0  0  0  0  0  0
  -28.0177  -12.3462   18.6330 C   0  0  0  0  0  0
  -27.6552  -13.2172   19.8656 C   0  0  2  0  0  0
  -28.7023  -13.0496   20.9891 C   0  0  0  0  0  0
  -25.2573  -13.8189   20.5692 C   0  0  0  0  0  0
  -24.1823  -13.0447   20.9208 C   0  0  0  0  0  0
  -24.6395  -11.6926   20.8745 C   0  0  0  0  0  0
  -23.9061  -10.4288   21.0417 C   0  0  0  0  0  0
  -24.3605   -9.4200   21.9190 C   0  0  0  0  0  0
  -23.6282   -8.2230   22.0751 C   0  0  0  0  0  0
  -22.4273   -8.0266   21.3530 C   0  0  0  0  0  0
  -21.9904   -9.0253   20.4641 C   0  0  0  0  0  0
  -22.7235  -10.2136   20.3062 C   0  0  0  0  0  0
  -21.6839   -6.0728   22.5286 C   0  0  0  0  0  0
  -21.4011   -6.5640   23.8213 C   0  0  0  0  0  0
  -21.3662   -5.6794   24.9173 C   0  0  0  0  0  0
  -21.6040   -4.3054   24.7226 C   0  0  0  0  0  0
  -21.8822   -3.8149   23.4346 C   0  0  0  0  0  0
  -21.9194   -4.6961   22.3405 C   0  0  0  0  0  0
  -22.7851  -13.5235   21.1869 C   0  0  0  0  0  0
  -22.1657   -4.2149   21.0978 F   0  0  0  0  0  0
  -21.5635   -3.4536   25.7742 F   0  0  0  0  0  0
  -30.0235  -13.3658   20.4234 N   0  0  0  0  0  0
  -26.3001  -12.9366   20.3356 N   0  0  0  0  0  0
  -25.9323  -11.6522   20.5784 N   0  0  0  0  0  0
  -22.0489  -12.8210   22.0420 N   0  0  0  0  0  0
  -25.4323  -15.1893   20.4073 N   0  0  0  0  0  0
  -31.8514  -14.6867   20.1372 O   0  0  0  0  0  0
  -21.6625   -6.8872   21.4234 O   0  0  0  0  0  0
  -22.3527  -14.5530   20.6734 O   0  0  0  0  0  0
  -24.6186  -31.8639   23.2093 C   0  0  0  0  0  0
  -25.9043  -32.4807   23.8398 C   0  0  1  0  0  0
  -27.2294  -27.3558   20.1036 C   0  0  0  0  0  0
  -25.5876  -33.8615   24.2303 N   0  0  0  0  0  0
  -23.4109  -30.4894   21.5536 C   0  0  2  0  0  0
  -24.8595  -28.9577   20.1105 C   0  0  0  0  0  0
  -22.7428  -29.4625   22.4984 C   0  0  0  0  0  0
  -18.0266  -28.1350   22.8496 C   0  0  0  0  0  0
  -24.1489  -36.7308   23.2639 C   0  0  0  0  0  0
  -25.9517  -30.7988   21.3824 C   0  0  0  0  0  0
  -26.0262  -29.4314   20.7239 C   0  0  0  0  0  0
  -27.2089  -28.6378   20.7241 C   0  0  0  0  0  0
  -26.0428  -26.9493   19.4364 C   0  0  0  0  0  0
  -24.8677  -27.7165   19.4631 C   0  0  0  0  0  0
  -23.6232  -29.8312   20.1680 C   0  0  0  0  0  0
  -25.4111  -36.3105   24.0337 C   0  0  1  0  0  0
  -20.5862  -28.3634   23.1298 C   0  0  2  0  0  0
  -20.6759  -26.9363   22.5409 C   0  0  0  0  0  0
  -19.5744  -26.6362   21.5197 C   0  0  0  0  0  0
  -18.1914  -26.7896   22.1619 C   0  0  0  0  0  0
  -19.1521  -28.8810   23.2890 C   0  0  0  0  0  0
  -18.9458  -30.1417   23.8897 C   0  0  0  0  0  0
  -17.6465  -30.6572   24.0544 C   0  0  0  0  0  0
  -25.9041  -34.9473   23.5120 C   0  0  0  0  0  0
  -16.5352  -29.9072   23.6338 C   0  0  0  0  0  0
  -16.7257  -28.6480   23.0371 C   0  0  0  0  0  0
  -26.4449  -31.6606   25.0751 C   0  0  0  0  0  0
  -25.3700  -31.3713   26.1491 C   0  0  0  0  0  0
  -27.0278  -30.3040   24.6171 C   0  0  0  0  0  0
  -27.6019  -32.4339   25.7505 C   0  0  0  0  0  0
  -27.5588  -37.1799   24.8466 C   0  0  0  0  0  0
  -21.4146  -29.3003   22.3710 N   0  0  0  0  0  0
  -26.4298  -37.3789   23.9406 N   0  0  0  0  0  0
  -24.6787  -31.0665   22.1046 N   0  0  0  0  0  0
  -23.4183  -28.8147   23.3025 O   0  0  0  0  0  0
  -28.3549  -26.5190   20.1819 O   0  0  0  0  0  0
  -26.5631  -34.8924   22.4701 O   0  0  0  0  0  0
  -23.5362  -32.1444   23.7430 O   0  0  0  0  0  0
  -29.4222  -19.8047   19.0595 C   0  0  0  0  0  0
  -29.6373  -18.4045   19.2519 C   0  0  0  0  0  0
  -30.0634  -18.1737   20.5381 C   0  0  0  0  0  0
  -29.6773  -20.3735   20.2805 C   0  0  0  0  0  0
  -28.8190  -22.7457   20.1064 C   0  0  0  0  0  0
  -27.6011  -22.3482   19.3003 C   0  0  0  0  0  0
  -30.5353  -16.9625   21.3568 C   0  0  0  0  0  0
  -28.1897  -25.1727   19.7076 C   0  0  0  0  0  0
  -29.4754  -17.4344   18.2627 N   0  0  0  0  0  0
  -29.6710  -21.7716   20.5840 N   0  0  0  0  0  0
  -30.0041  -15.6070   21.0301 N   0  0  0  0  0  0
  -29.0436  -24.0948   20.3113 N   0  3  0  0  0  0
  -30.1026  -19.4093   21.1775 O   0  0  0  0  0  0
  -31.4679  -12.4473   19.1268 H   0  0  0  0  0  0
  -30.3395  -11.3493   19.8679 H   0  0  0  0  0  0
  -29.7382  -11.7387   17.4588 H   0  0  0  0  0  0
  -29.6494  -13.4610   17.7414 H   0  0  0  0  0  0
  -27.8385  -11.2941   18.8576 H   0  0  0  0  0  0
  -27.3609  -12.5868   17.7962 H   0  0  0  0  0  0
  -27.6822  -14.2560   19.5340 H   0  0  0  0  0  0
  -28.6966  -12.0227   21.3549 H   0  0  0  0  0  0
  -28.4604  -13.6729   21.8517 H   0  0  0  0  0  0
  -25.2748   -9.5670   22.4768 H   0  0  0  0  0  0
  -23.9997   -7.4609   22.7455 H   0  0  0  0  0  0
  -21.0842   -8.8770   19.8927 H   0  0  0  0  0  0
  -22.3697  -10.9675   19.6171 H   0  0  0  0  0  0
  -21.1993   -7.6146   23.9717 H   0  0  0  0  0  0
  -21.1481   -6.0519   25.9078 H   0  0  0  0  0  0
  -22.0598   -2.7611   23.2851 H   0  0  0  0  0  0
  -22.4105  -11.9865   22.4803 H   0  0  0  0  0  0
  -21.1101  -13.1222   22.2634 H   0  0  0  0  0  0
  -24.6722  -15.8508   20.5097 H   0  0  0  0  0  0
  -26.2855  -15.6144   20.0662 H   0  0  0  0  0  0
  -26.7104  -32.5491   23.1143 H   0  0  0  0  0  0
  -24.9971  -33.9771   25.0409 H   0  0  0  0  0  0
  -22.7000  -31.3082   21.4169 H   0  0  0  0  0  0
  -23.3764  -35.9628   23.3309 H   0  0  0  0  0  0
  -24.3577  -36.8932   22.2054 H   0  0  0  0  0  0
  -23.7255  -37.6516   23.6662 H   0  0  0  0  0  0
  -26.0833  -31.5617   20.6152 H   0  0  0  0  0  0
  -26.8310  -30.8432   22.0130 H   0  0  0  0  0  0
  -28.0986  -28.9860   21.2280 H   0  0  0  0  0  0
  -25.9698  -26.0276   18.8778 H   0  0  0  0  0  0
  -23.9791  -27.3476   18.9698 H   0  0  0  0  0  0
  -23.7319  -30.6127   19.4155 H   0  0  0  0  0  0
  -22.7411  -29.2610   19.8703 H   0  0  0  0  0  0
  -25.1291  -36.1965   25.0833 H   0  0  0  0  0  0
  -20.9947  -28.3195   24.1425 H   0  0  0  0  0  0
  -20.5624  -26.2226   23.3591 H   0  0  0  0  0  0
  -21.6624  -26.7378   22.1213 H   0  0  0  0  0  0
  -19.6898  -25.6274   21.1212 H   0  0  0  0  0  0
  -19.6700  -27.3179   20.6726 H   0  0  0  0  0  0
  -17.4175  -26.6625   21.4029 H   0  0  0  0  0  0
  -18.0330  -26.0025   22.9004 H   0  0  0  0  0  0
  -19.7938  -30.7211   24.2276 H   0  0  0  0  0  0
  -17.5034  -31.6267   24.5113 H   0  0  0  0  0  0
  -15.5350  -30.2972   23.7681 H   0  0  0  0  0  0
  -15.8647  -28.0798   22.7112 H   0  0  0  0  0  0
  -24.5915  -30.6998   25.7855 H   0  0  0  0  0  0
  -24.8816  -32.2844   26.4907 H   0  0  0  0  0  0
  -25.8051  -30.8952   27.0287 H   0  0  0  0  0  0
  -26.2840  -29.6815   24.1181 H   0  0  0  0  0  0
  -27.3977  -29.7265   25.4657 H   0  0  0  0  0  0
  -27.8712  -30.4351   23.9386 H   0  0  0  0  0  0
  -27.2662  -33.3684   26.2026 H   0  0  0  0  0  0
  -28.3849  -32.6836   25.0328 H   0  0  0  0  0  0
  -28.0649  -31.8492   26.5467 H   0  0  0  0  0  0
  -28.2587  -38.0111   24.7534 H   0  0  0  0  0  0
  -28.1108  -36.2645   24.6277 H   0  0  0  0  0  0
  -27.2295  -37.1430   25.8863 H   0  0  0  0  0  0
  -20.9287  -29.8775   21.6999 H   0  0  0  0  0  0
  -26.0196  -38.2868   24.1422 H   0  0  0  0  0  0
  -29.1269  -20.3163   18.1544 H   0  0  0  0  0  0
  -27.3365  -21.3020   19.4303 H   0  0  0  0  0  0
  -27.7667  -22.5474   18.2419 H   0  0  0  0  0  0
  -26.7107  -22.8897   19.6139 H   0  0  0  0  0  0
  -30.2817  -17.1511   22.3999 H   0  0  0  0  0  0
  -31.6255  -16.9371   21.3499 H   0  0  0  0  0  0
  -27.1846  -24.8598   19.9679 H   0  0  0  0  0  0
  -28.3327  -25.1409   18.6262 H   0  0  0  0  0  0
  -29.5167  -17.7437   17.2960 H   0  0  0  0  0  0
  -29.9704  -16.5592   18.3958 H   0  0  0  0  0  0
  -30.2803  -21.9729   21.3656 H   0  0  0  0  0  0
  -29.0393  -15.4363   21.2729 H   0  0  0  0  0  0
  -29.9122  -24.3675   20.7505 H   0  0  0  0  0  0
  1 25  1  0  0  0
  1 30  2  0  0  0
  1 81  1  0  0  0
  2  3  1  0  0  0
  2 25  1  0  0  0
  2 84  1  0  0  0
  2 85  1  0  0  0
  3  4  1  0  0  0
  3 86  1  0  0  0
  3 87  1  0  0  0
  4  5  1  0  0  0
  4 88  1  0  0  0
  4 89  1  0  0  0
  5  6  1  0  0  0
  5 26  1  0  0  0
  5 90  1  0  0  0
  6 25  1  0  0  0
  6 91  1  0  0  0
  6 92  1  0  0  0
  7  8  2  0  0  0
  7 26  1  0  0  0
  7 29  1  0  0  0
  8  9  1  0  0  0
  8 22  1  0  0  0
  9 10  1  0  0  0
  9 27  2  0  0  0
 10 11  2  0  0  0
 10 15  1  0  0  0
 11 12  1  0  0  0
 11 93  1  0  0  0
 12 13  2  0  0  0
 12 94  1  0  0  0
 13 14  1  0  0  0
 13 31  1  0  0  0
 14 15  2  0  0  0
 14 95  1  0  0  0
 15 96  1  0  0  0
 16 17  2  0  0  0
 16 21  1  0  0  0
 16 31  1  0  0  0
 17 18  1  0  0  0
 17 97  1  0  0  0
 18 19  2  0  0  0
 18 98  1  0  0  0
 19 20  1  0  0  0
 19 24  1  0  0  0
 20 21  2  0  0  0
 20 99  1  0  0  0
 21 23  1  0  0  0
 22 28  1  0  0  0
 22 32  2  0  0  0
 26 27  1  0  0  0
 28100  1  0  0  0
 28101  1  0  0  0
 29102  1  0  0  0
 29103  1  0  0  0
 33 34  1  0  0  0
 33 66  1  0  0  0
 33 70  2  0  0  0
 34 36  1  0  0  0
 34 59  1  0  0  0
 34104  1  0  0  0
 35 44  2  0  0  0
 35 45  1  0  0  0
 35 68  1  0  0  0
 36 56  1  0  0  0
 36105  1  0  0  0
 37 39  1  0  0  0
 37 47  1  0  0  0
 37 66  1  0  0  0
 37106  1  0  0  0
 38 43  2  0  0  0
 38 46  1  0  0  0
 38 47  1  0  0  0
 39 64  1  0  0  0
 39 67  2  0  0  0
 40 52  1  0  0  0
 40 53  2  0  0  0
 40 58  1  0  0  0
 41107  1  0  0  0
 41108  1  0  0  0
 41109  1  0  0  0
 41 48  1  0  0  0
 42 43  1  0  0  0
 42 66  1  0  0  0
 42110  1  0  0  0
 42111  1  0  0  0
 43 44  1  0  0  0
 44112  1  0  0  0
 45 46  2  0  0  0
 45113  1  0  0  0
 46114  1  0  0  0
 47115  1  0  0  0
 47116  1  0  0  0
 48 56  1  0  0  0
 48 65  1  0  0  0
 48117  1  0  0  0
 49 50  1  0  0  0
 49 53  1  0  0  0
 49 64  1  0  0  0
 49118  1  0  0  0
 50 51  1  0  0  0
 50119  1  0  0  0
 50120  1  0  0  0
 51 52  1  0  0  0
 51121  1  0  0  0
 51122  1  0  0  0
 52123  1  0  0  0
 52124  1  0  0  0
 53 54  1  0  0  0
 54 55  2  0  0  0
 54125  1  0  0  0
 55 57  1  0  0  0
 55126  1  0  0  0
 56 69  2  0  0  0
 57 58  2  0  0  0
 57127  1  0  0  0
 58128  1  0  0  0
 59 60  1  0  0  0
 59 61  1  0  0  0
 59 62  1  0  0  0
 60129  1  0  0  0
 60130  1  0  0  0
 60131  1  0  0  0
 61132  1  0  0  0
 61133  1  0  0  0
 61134  1  0  0  0
 62135  1  0  0  0
 62136  1  0  0  0
 62137  1  0  0  0
 63 65  1  0  0  0
 63138  1  0  0  0
 63139  1  0  0  0
 63140  1  0  0  0
 64141  1  0  0  0
 65142  1  0  0  0
 68 78  1  0  0  0
 71 72  1  0  0  0
 71 74  2  0  0  0
 71143  1  0  0  0
 72 73  2  0  0  0
 72 79  1  0  0  0
 73 77  1  0  0  0
 73 83  1  0  0  0
 74 80  1  0  0  0
 74 83  1  0  0  0
 75 76  1  0  0  0
 75 80  1  0  0  0
 75 82  2  0  0  0
 76144  1  0  0  0
 76145  1  0  0  0
 76146  1  0  0  0
 77 81  1  0  0  0
 77147  1  0  0  0
 77148  1  0  0  0
 78 82  1  0  0  0
 78149  1  0  0  0
 78150  1  0  0  0
 79151  1  0  0  0
 79152  1  0  0  0
 80153  1  0  0  0
 81154  1  0  0  0
 82155  1  0  0  0
M  CHG  1  82   1
M  ISO  4   1 100  68 101  78 101  81 100
M  END
> <chiral flag>
0

> <version>
0

> <s_m_source_file>
/data/baiqing/PycharmProjects/Reinvent-master-3.2/result/LINK_invent/BTK/process_docking_weight1_custom_product_contain_oxygen_bond_distance_aromatic_linkinvent_7_9_3/rearranged_h_0154.sdf

> <i_m_source_file_index>
73

> <r_mmod_Potential_Energy-OPLS-2005>
-118.724235534668

> <r_mmod_Stretch_Energy-OPLS-2005>
62.2632522583008

> <r_mmod_Bend_Energy-OPLS-2005>
140.843185424805

> <r_mmod_Torsional_Energy-OPLS-2005>
184.595504760742

> <r_mmod_Improper_Torsional_Energy-OPLS-2005>
8.33367156982422

> <r_mmod_Van_der_Waal_Energy-OPLS-2005>
144.037811279297

> <r_mmod_Electrostatic_Energy-OPLS-2005>
-244.858093261719

> <r_mmod_Solvation_Energy-OPLS-2005>
-445.986022949219

> <b_mmod_Minimization_Converged-OPLS-2005>
0

> <r_mmod_RMS_Derivative-OPLS-2005>
3.31132626533508

$$$$
73
                    3D
 Structure written by MMmdl.
158167  0  0  1  0            999 V2000
  -30.6202  -14.7705   20.4421 C   0  0  0  0  0  0
  -30.4280  -12.4681   19.4893 C   0  0  0  0  0  0
  -29.5129  -12.5065   18.2454 C   0  0  0  0  0  0
  -28.0399  -12.3270   18.6574 C   0  0  0  0  0  0
  -27.6391  -13.2384   19.8483 C   0  0  2  0  0  0
  -28.6811  -13.1993   20.9879 C   0  0  0  0  0  0
  -25.2503  -13.8211   20.5708 C   0  0  0  0  0  0
  -24.1801  -13.0444   20.9210 C   0  0  0  0  0  0
  -24.6407  -11.6930   20.8755 C   0  0  0  0  0  0
  -23.9089  -10.4298   21.0414 C   0  0  0  0  0  0
  -24.3634   -9.4207   21.9190 C   0  0  0  0  0  0
  -23.6299   -8.2245   22.0760 C   0  0  0  0  0  0
  -22.4280   -8.0291   21.3549 C   0  0  0  0  0  0
  -21.9927   -9.0266   20.4649 C   0  0  0  0  0  0
  -22.7264  -10.2139   20.3061 C   0  0  0  0  0  0
  -21.6856   -6.0746   22.5277 C   0  0  0  0  0  0
  -21.4013   -6.5649   23.8212 C   0  0  0  0  0  0
  -21.3657   -5.6797   24.9174 C   0  0  0  0  0  0
  -21.6046   -4.3060   24.7222 C   0  0  0  0  0  0
  -21.8817   -3.8155   23.4342 C   0  0  0  0  0  0
  -21.9190   -4.6972   22.3399 C   0  0  0  0  0  0
  -22.7820  -13.5220   21.1860 C   0  0  0  0  0  0
  -22.1660   -4.2161   21.0974 F   0  0  0  0  0  0
  -21.5626   -3.4540   25.7732 F   0  0  0  0  0  0
  -29.9837  -13.5462   20.4079 N   0  0  0  0  0  0
  -26.2930  -12.9429   20.3280 N   0  0  0  0  0  0
  -25.9338  -11.6566   20.5761 N   0  0  0  0  0  0
  -22.0464  -12.8213   22.0414 N   0  0  0  0  0  0
  -25.4191  -15.1941   20.4134 N   0  0  0  0  0  0
  -31.8145  -14.8223   20.1348 O   0  0  0  0  0  0
  -21.6641   -6.8894   21.4243 O   0  0  0  0  0  0
  -22.3508  -14.5529   20.6708 O   0  0  0  0  0  0
  -24.6334  -31.8543   23.1965 C   0  0  0  0  0  0
  -25.9150  -32.4751   23.8323 C   0  0  1  0  0  0
  -27.2141  -27.2400   20.1378 C   0  0  0  0  0  0
  -25.5941  -33.8554   24.2251 N   0  0  0  0  0  0
  -23.4301  -30.4776   21.5398 C   0  0  2  0  0  0
  -24.8778  -28.9255   20.1055 C   0  0  0  0  0  0
  -22.7514  -29.4597   22.4891 C   0  0  0  0  0  0
  -18.0294  -28.1392   22.8482 C   0  0  0  0  0  0
  -24.1494  -36.7277   23.2641 C   0  0  0  0  0  0
  -25.9782  -30.7611   21.3794 C   0  0  0  0  0  0
  -26.0493  -29.3822   20.7218 C   0  0  0  0  0  0
  -27.2185  -28.5515   20.7292 C   0  0  0  0  0  0
  -26.0254  -26.8704   19.4674 C   0  0  0  0  0  0
  -24.8732  -27.6787   19.4649 C   0  0  0  0  0  0
  -23.6484  -29.8130   20.1550 C   0  0  0  0  0  0
  -25.4115  -36.3055   24.0324 C   0  0  1  0  0  0
  -20.5902  -28.3706   23.1262 C   0  0  2  0  0  0
  -20.6783  -26.9422   22.5407 C   0  0  0  0  0  0
  -19.5757  -26.6382   21.5213 C   0  0  0  0  0  0
  -18.1935  -26.7936   22.1619 C   0  0  0  0  0  0
  -19.1552  -28.8862   23.2868 C   0  0  0  0  0  0
  -18.9475  -30.1465   23.8888 C   0  0  0  0  0  0
  -17.6472  -30.6592   24.0565 C   0  0  0  0  0  0
  -25.9057  -34.9434   23.5082 C   0  0  0  0  0  0
  -16.5362  -29.9088   23.6336 C   0  0  0  0  0  0
  -16.7279  -28.6505   23.0355 C   0  0  0  0  0  0
  -26.4514  -31.6575   25.0713 C   0  0  0  0  0  0
  -25.3727  -31.3730   26.1427 C   0  0  0  0  0  0
  -27.0377  -30.2994   24.6210 C   0  0  0  0  0  0
  -27.6068  -32.4323   25.7478 C   0  0  0  0  0  0
  -27.5573  -37.1790   24.8469 C   0  0  0  0  0  0
  -21.4218  -29.3051   22.3647 N   0  0  0  0  0  0
  -26.4286  -37.3758   23.9411 N   0  0  0  0  0  0
  -24.6995  -31.0498   22.0946 N   0  0  0  0  0  0
  -23.4213  -28.8138   23.2993 O   0  0  0  0  0  0
  -28.2882  -26.3156   20.2343 O   0  0  0  0  0  0
  -26.5634  -34.8913   22.4656 O   0  0  0  0  0  0
  -23.5480  -32.1366   23.7247 O   0  0  0  0  0  0
  -31.0298  -17.5290   19.0935 C   0  0  0  0  0  0
  -31.3626  -18.8061   18.6129 C   0  0  0  0  0  0
  -29.5792  -18.5805   20.7241 C   0  0  0  0  0  0
  -29.8972  -19.9339   20.2458 C   0  0  0  0  0  0
  -30.1606  -17.3447   20.1905 C   0  0  0  0  0  0
  -30.8581  -19.9903   19.1883 C   0  0  0  0  0  0
  -28.7598  -23.7883   21.0159 C   0  0  0  0  0  0
  -29.4120  -21.2385   20.9371 C   0  0  0  0  0  0
  -28.3403  -24.1965   18.7271 C   0  0  0  0  0  0
  -28.5276  -22.6665   18.9679 C   0  0  0  0  0  0
  -28.0169  -24.8272   20.0876 C   0  0  2  0  0  0
  -28.9673  -22.4578   20.3697 N   0  0  0  0  0  0
  -31.4169  -21.1763   18.6942 N   0  0  0  0  0  0
  -29.8830  -15.9418   20.6468 N   0  0  0  0  0  0
  -29.4883  -21.1963   22.2716 N   0  3  0  0  0  0
  -29.0837  -24.0211   22.1862 O   0  0  0  0  0  0
  -31.4705  -12.5811   19.1876 H   0  0  0  0  0  0
  -30.3669  -11.4974   19.9837 H   0  0  0  0  0  0
  -29.8007  -11.7257   17.5400 H   0  0  0  0  0  0
  -29.6373  -13.4558   17.7225 H   0  0  0  0  0  0
  -27.9052  -11.2808   18.9333 H   0  0  0  0  0  0
  -27.3815  -12.5036   17.8060 H   0  0  0  0  0  0
  -27.6271  -14.2549   19.4540 H   0  0  0  0  0  0
  -28.7181  -12.2117   21.4502 H   0  0  0  0  0  0
  -28.4101  -13.8986   21.7801 H   0  0  0  0  0  0
  -25.2779   -9.5676   22.4771 H   0  0  0  0  0  0
  -24.0002   -7.4639   22.7487 H   0  0  0  0  0  0
  -21.0859   -8.8794   19.8956 H   0  0  0  0  0  0
  -22.3734  -10.9681   19.6172 H   0  0  0  0  0  0
  -21.2010   -7.6159   23.9722 H   0  0  0  0  0  0
  -21.1478   -6.0527   25.9077 H   0  0  0  0  0  0
  -22.0598   -2.7620   23.2833 H   0  0  0  0  0  0
  -22.4066  -11.9863   22.4792 H   0  0  0  0  0  0
  -21.1086  -13.1246   22.2624 H   0  0  0  0  0  0
  -24.6495  -15.8457   20.5231 H   0  0  0  0  0  0
  -26.2645  -15.6349   20.0735 H   0  0  0  0  0  0
  -26.7213  -32.5404   23.1062 H   0  0  0  0  0  0
  -25.0099  -33.9712   25.0401 H   0  0  0  0  0  0
  -22.7280  -31.3004   21.3924 H   0  0  0  0  0  0
  -23.3757  -35.9610   23.3304 H   0  0  0  0  0  0
  -24.3583  -36.8903   22.2057 H   0  0  0  0  0  0
  -23.7260  -37.6479   23.6671 H   0  0  0  0  0  0
  -26.1193  -31.5205   20.6089 H   0  0  0  0  0  0
  -26.8555  -30.8105   22.0120 H   0  0  0  0  0  0
  -28.1089  -28.8904   21.2392 H   0  0  0  0  0  0
  -25.9500  -25.9277   18.9479 H   0  0  0  0  0  0
  -23.9804  -27.3276   18.9658 H   0  0  0  0  0  0
  -23.7719  -30.5899   19.4003 H   0  0  0  0  0  0
  -22.7663  -29.2479   19.8476 H   0  0  0  0  0  0
  -25.1303  -36.1879   25.0817 H   0  0  0  0  0  0
  -21.0000  -28.3289   24.1377 H   0  0  0  0  0  0
  -20.5693  -26.2323   23.3618 H   0  0  0  0  0  0
  -21.6651  -26.7448   22.1193 H   0  0  0  0  0  0
  -19.6930  -25.6295   21.1245 H   0  0  0  0  0  0
  -19.6692  -27.3196   20.6750 H   0  0  0  0  0  0
  -17.4206  -26.6691   21.4015 H   0  0  0  0  0  0
  -18.0326  -26.0081   22.9013 H   0  0  0  0  0  0
  -19.7955  -30.7284   24.2245 H   0  0  0  0  0  0
  -17.5027  -31.6268   24.5178 H   0  0  0  0  0  0
  -15.5367  -30.2990   23.7662 H   0  0  0  0  0  0
  -15.8679  -28.0820   22.7077 H   0  0  0  0  0  0
  -24.5918  -30.7062   25.7756 H   0  0  0  0  0  0
  -24.8904  -32.2902   26.4814 H   0  0  0  0  0  0
  -25.8037  -30.8936   27.0226 H   0  0  0  0  0  0
  -26.2969  -29.6717   24.1246 H   0  0  0  0  0  0
  -27.4082  -29.7271   25.4727 H   0  0  0  0  0  0
  -27.8833  -30.4282   23.9450 H   0  0  0  0  0  0
  -27.2684  -33.3657   26.1989 H   0  0  0  0  0  0
  -28.3902  -32.6828   25.0311 H   0  0  0  0  0  0
  -28.0702  -31.8483   26.5441 H   0  0  0  0  0  0
  -28.2584  -38.0093   24.7502 H   0  0  0  0  0  0
  -28.1071  -36.2617   24.6297 H   0  0  0  0  0  0
  -27.2294  -37.1436   25.8876 H   0  0  0  0  0  0
  -20.9394  -29.8778   21.6861 H   0  0  0  0  0  0
  -26.0155  -38.2830   24.1407 H   0  0  0  0  0  0
  -31.4800  -16.6877   18.5895 H   0  0  0  0  0  0
  -32.0669  -18.8608   17.7953 H   0  0  0  0  0  0
  -28.8897  -18.4956   21.5525 H   0  0  0  0  0  0
  -27.5420  -24.3832   18.0095 H   0  0  0  0  0  0
  -29.2529  -24.6254   18.3140 H   0  0  0  0  0  0
  -29.1995  -22.2475   18.2235 H   0  0  0  0  0  0
  -27.5720  -22.1552   18.8386 H   0  0  0  0  0  0
  -26.9743  -24.6302   20.3355 H   0  0  0  0  0  0
  -32.2146  -21.0854   18.0720 H   0  0  0  0  0  0
  -31.5494  -21.9571   19.3283 H   0  0  0  0  0  0
  -28.9720  -15.7935   21.0534 H   0  0  0  0  0  0
  -29.8658  -20.3861   22.7368 H   0  0  0  0  0  0
  -29.3164  -22.0396   22.8028 H   0  0  0  0  0  0
  1 25  1  0  0  0
  1 30  2  0  0  0
  1 84  1  0  0  0
  2  3  1  0  0  0
  2 25  1  0  0  0
  2 87  1  0  0  0
  2 88  1  0  0  0
  3  4  1  0  0  0
  3 89  1  0  0  0
  3 90  1  0  0  0
  4  5  1  0  0  0
  4 91  1  0  0  0
  4 92  1  0  0  0
  5  6  1  0  0  0
  5 26  1  0  0  0
  5 93  1  0  0  0
  6 25  1  0  0  0
  6 94  1  0  0  0
  6 95  1  0  0  0
  7  8  2  0  0  0
  7 26  1  0  0  0
  7 29  1  0  0  0
  8  9  1  0  0  0
  8 22  1  0  0  0
  9 10  1  0  0  0
  9 27  2  0  0  0
 10 11  2  0  0  0
 10 15  1  0  0  0
 11 12  1  0  0  0
 11 96  1  0  0  0
 12 13  2  0  0  0
 12 97  1  0  0  0
 13 14  1  0  0  0
 13 31  1  0  0  0
 14 15  2  0  0  0
 14 98  1  0  0  0
 15 99  1  0  0  0
 16 17  2  0  0  0
 16 21  1  0  0  0
 16 31  1  0  0  0
 17 18  1  0  0  0
 17100  1  0  0  0
 18 19  2  0  0  0
 18101  1  0  0  0
 19 20  1  0  0  0
 19 24  1  0  0  0
 20 21  2  0  0  0
 20102  1  0  0  0
 21 23  1  0  0  0
 22 28  1  0  0  0
 22 32  2  0  0  0
 26 27  1  0  0  0
 28103  1  0  0  0
 28104  1  0  0  0
 29105  1  0  0  0
 29106  1  0  0  0
 33 34  1  0  0  0
 33 66  1  0  0  0
 33 70  2  0  0  0
 34 36  1  0  0  0
 34 59  1  0  0  0
 34107  1  0  0  0
 35 44  2  0  0  0
 35 45  1  0  0  0
 35 68  1  0  0  0
 36 56  1  0  0  0
 36108  1  0  0  0
 37 39  1  0  0  0
 37 47  1  0  0  0
 37 66  1  0  0  0
 37109  1  0  0  0
 38 43  2  0  0  0
 38 46  1  0  0  0
 38 47  1  0  0  0
 39 64  1  0  0  0
 39 67  2  0  0  0
 40 52  1  0  0  0
 40 53  2  0  0  0
 40 58  1  0  0  0
 41110  1  0  0  0
 41111  1  0  0  0
 41112  1  0  0  0
 41 48  1  0  0  0
 42 43  1  0  0  0
 42 66  1  0  0  0
 42113  1  0  0  0
 42114  1  0  0  0
 43 44  1  0  0  0
 44115  1  0  0  0
 45 46  2  0  0  0
 45116  1  0  0  0
 46117  1  0  0  0
 47118  1  0  0  0
 47119  1  0  0  0
 48 56  1  0  0  0
 48 65  1  0  0  0
 48120  1  0  0  0
 49 50  1  0  0  0
 49 53  1  0  0  0
 49 64  1  0  0  0
 49121  1  0  0  0
 50 51  1  0  0  0
 50122  1  0  0  0
 50123  1  0  0  0
 51 52  1  0  0  0
 51124  1  0  0  0
 51125  1  0  0  0
 52126  1  0  0  0
 52127  1  0  0  0
 53 54  1  0  0  0
 54 55  2  0  0  0
 54128  1  0  0  0
 55 57  1  0  0  0
 55129  1  0  0  0
 56 69  2  0  0  0
 57 58  2  0  0  0
 57130  1  0  0  0
 58131  1  0  0  0
 59 60  1  0  0  0
 59 61  1  0  0  0
 59 62  1  0  0  0
 60132  1  0  0  0
 60133  1  0  0  0
 60134  1  0  0  0
 61135  1  0  0  0
 61136  1  0  0  0
 61137  1  0  0  0
 62138  1  0  0  0
 62139  1  0  0  0
 62140  1  0  0  0
 63 65  1  0  0  0
 63141  1  0  0  0
 63142  1  0  0  0
 63143  1  0  0  0
 64144  1  0  0  0
 65145  1  0  0  0
 68 81  1  0  0  0
 71 72  2  0  0  0
 71 75  1  0  0  0
 71146  1  0  0  0
 72 76  1  0  0  0
 72147  1  0  0  0
 73 74  1  0  0  0
 73 75  2  0  0  0
 73148  1  0  0  0
 74 76  2  0  0  0
 74 78  1  0  0  0
 75 84  1  0  0  0
 76 83  1  0  0  0
 77 81  1  0  0  0
 77 82  1  0  0  0
 77 86  2  0  0  0
 78 82  1  0  0  0
 78 85  2  0  0  0
 79 80  1  0  0  0
 79 81  1  0  0  0
 79149  1  0  0  0
 79150  1  0  0  0
 80 82  1  0  0  0
 80151  1  0  0  0
 80152  1  0  0  0
 81153  1  0  0  0
 83154  1  0  0  0
 83155  1  0  0  0
 84156  1  0  0  0
 85157  1  0  0  0
 85158  1  0  0  0
M  CHG  1  85   1
M  ISO  4   1 100  68 101  81 101  84 100
M  END
> <chiral flag>
0

> <version>
0

> <s_m_source_file>
/data/baiqing/PycharmProjects/Reinvent-master-3.2/result/LINK_invent/BTK/process_docking_weight1_custom_product_contain_oxygen_bond_distance_aromatic_linkinvent_7_9_3/rearranged_h_0154.sdf

> <i_m_source_file_index>
74

> <r_mmod_Potential_Energy-OPLS-2005>
144.692398071289

> <r_mmod_Stretch_Energy-OPLS-2005>
145.117813110352

> <r_mmod_Bend_Energy-OPLS-2005>
211.727996826172

> <r_mmod_Torsional_Energy-OPLS-2005>
267.637237548828

> <r_mmod_Improper_Torsional_Energy-OPLS-2005>
9.81795501708984

> <r_mmod_Van_der_Waal_Energy-OPLS-2005>
152.852584838867

> <r_mmod_Electrostatic_Energy-OPLS-2005>
-321.302185058594

> <r_mmod_Solvation_Energy-OPLS-2005>
-422.277313232422

> <b_mmod_Minimization_Converged-OPLS-2005>
0

> <r_mmod_RMS_Derivative-OPLS-2005>
1.32270336151123

$$$$
74
                    3D
 Structure written by MMmdl.
164173  0  0  1  0            999 V2000
  -30.7054  -14.4732   20.5154 C   0  0  0  0  0  0
  -30.4216  -12.2894   19.4285 C   0  0  0  0  0  0
  -29.4979  -12.4888   18.2088 C   0  0  0  0  0  0
  -28.0165  -12.3644   18.6195 C   0  0  0  0  0  0
  -27.6620  -13.2015   19.8779 C   0  0  2  0  0  0
  -28.7101  -13.0032   20.9983 C   0  0  0  0  0  0
  -25.2594  -13.8146   20.5692 C   0  0  0  0  0  0
  -24.1841  -13.0424   20.9184 C   0  0  0  0  0  0
  -24.6397  -11.6892   20.8739 C   0  0  0  0  0  0
  -23.9066  -10.4280   21.0401 C   0  0  0  0  0  0
  -24.3616   -9.4199   21.9184 C   0  0  0  0  0  0
  -23.6299   -8.2231   22.0751 C   0  0  0  0  0  0
  -22.4282   -8.0269   21.3534 C   0  0  0  0  0  0
  -21.9911   -9.0247   20.4641 C   0  0  0  0  0  0
  -22.7236  -10.2128   20.3050 C   0  0  0  0  0  0
  -21.6850   -6.0727   22.5274 C   0  0  0  0  0  0
  -21.4007   -6.5640   23.8208 C   0  0  0  0  0  0
  -21.3660   -5.6794   24.9175 C   0  0  0  0  0  0
  -21.6046   -4.3056   24.7228 C   0  0  0  0  0  0
  -21.8818   -3.8141   23.4350 C   0  0  0  0  0  0
  -21.9187   -4.6955   22.3406 C   0  0  0  0  0  0
  -22.7859  -13.5224   21.1839 C   0  0  0  0  0  0
  -22.1658   -4.2139   21.0981 F   0  0  0  0  0  0
  -21.5640   -3.4539   25.7739 F   0  0  0  0  0  0
  -30.0424  -13.2876   20.4392 N   0  0  0  0  0  0
  -26.3031  -12.9299   20.3400 N   0  0  0  0  0  0
  -25.9324  -11.6465   20.5800 N   0  0  0  0  0  0
  -22.0484  -12.8227   22.0393 N   0  0  0  0  0  0
  -25.4328  -15.1868   20.4089 N   0  0  0  0  0  0
  -31.8567  -14.6353   20.1037 O   0  0  0  0  0  0
  -21.6642   -6.8871   21.4236 O   0  0  0  0  0  0
  -22.3550  -14.5535   20.6692 O   0  0  0  0  0  0
  -24.6151  -31.8693   23.2101 C   0  0  0  0  0  0
  -25.9045  -32.4832   23.8405 C   0  0  1  0  0  0
  -27.2322  -27.4418   20.1035 C   0  0  0  0  0  0
  -25.5909  -33.8629   24.2338 N   0  0  0  0  0  0
  -23.4022  -30.4932   21.5505 C   0  0  2  0  0  0
  -24.8492  -28.9618   20.1130 C   0  0  0  0  0  0
  -22.7421  -29.4672   22.4993 C   0  0  0  0  0  0
  -18.0273  -28.1381   22.8501 C   0  0  0  0  0  0
  -24.1482  -36.7313   23.2641 C   0  0  0  0  0  0
  -25.9298  -30.8393   21.3612 C   0  0  0  0  0  0
  -26.0095  -29.4749   20.7075 C   0  0  0  0  0  0
  -27.2068  -28.7232   20.6977 C   0  0  0  0  0  0
  -26.0604  -26.9510   19.4850 C   0  0  0  0  0  0
  -24.8690  -27.6985   19.4985 C   0  0  0  0  0  0
  -23.6106  -29.8273   20.1649 C   0  0  0  0  0  0
  -25.4103  -36.3114   24.0348 C   0  0  1  0  0  0
  -20.5865  -28.3675   23.1316 C   0  0  2  0  0  0
  -20.6766  -26.9415   22.5414 C   0  0  0  0  0  0
  -19.5740  -26.6392   21.5220 C   0  0  0  0  0  0
  -18.1919  -26.7927   22.1635 C   0  0  0  0  0  0
  -19.1521  -28.8848   23.2901 C   0  0  0  0  0  0
  -18.9454  -30.1457   23.8906 C   0  0  0  0  0  0
  -17.6454  -30.6584   24.0577 C   0  0  0  0  0  0
  -25.9039  -34.9482   23.5135 C   0  0  0  0  0  0
  -16.5345  -29.9092   23.6328 C   0  0  0  0  0  0
  -16.7265  -28.6510   23.0351 C   0  0  0  0  0  0
  -26.4478  -31.6602   25.0722 C   0  0  0  0  0  0
  -25.3755  -31.3707   26.1480 C   0  0  0  0  0  0
  -27.0321  -30.3049   24.6093 C   0  0  0  0  0  0
  -27.6043  -32.4335   25.7481 C   0  0  0  0  0  0
  -27.5580  -37.1810   24.8471 C   0  0  0  0  0  0
  -21.4148  -29.3038   22.3726 N   0  0  0  0  0  0
  -26.4289  -37.3797   23.9421 N   0  0  0  0  0  0
  -24.6674  -31.0813   22.0993 N   0  0  0  0  0  0
  -23.4193  -28.8227   23.3044 O   0  0  0  0  0  0
  -28.3743  -26.6690   20.1429 O   0  0  0  0  0  0
  -26.5601  -34.8930   22.4694 O   0  0  0  0  0  0
  -23.5344  -32.1435   23.7504 O   0  0  0  0  0  0
  -30.3924  -17.9506   20.4586 C   0  0  0  0  0  0
  -29.6899  -18.9485   18.3372 C   0  0  0  0  0  0
  -29.2618  -16.5962   18.7674 C   0  0  0  0  0  0
  -30.2994  -19.0833   19.6039 C   0  0  0  0  0  0
  -29.8804  -16.6954   20.0365 C   0  0  0  0  0  0
  -29.1653  -17.7153   17.9242 C   0  0  0  0  0  0
  -30.9238  -20.3742   19.9406 C   0  0  0  0  0  0
  -28.1776  -22.8679   20.2644 C   0  0  0  0  0  0
  -30.3528  -24.0836   20.2933 C   0  0  0  0  0  0
  -28.8352  -21.6807   19.5352 C   0  0  0  0  0  0
  -31.0365  -22.8610   19.6405 C   0  0  0  0  0  0
  -28.8538  -24.2210   19.9560 C   0  0  0  0  0  0
  -28.1770  -25.3716   20.7445 C   0  0  0  0  0  0
  -30.2900  -21.5795   19.8277 N   0  0  0  0  0  0
  -29.9530  -15.5324   20.8636 N   0  0  0  0  0  0
  -32.1988  -20.3467   20.3188 N   0  3  0  0  0  0
  -28.6388  -24.5267   18.5874 O   0  0  0  0  0  0
  -28.5821  -17.6013   16.7067 F   0  0  0  0  0  0
  -31.4682  -12.3730   19.1300 H   0  0  0  0  0  0
  -30.3076  -11.2825   19.8325 H   0  0  0  0  0  0
  -29.7312  -11.7522   17.4383 H   0  0  0  0  0  0
  -29.6807  -13.4648   17.7580 H   0  0  0  0  0  0
  -27.8172  -11.3103   18.8127 H   0  0  0  0  0  0
  -27.3699  -12.6460   17.7877 H   0  0  0  0  0  0
  -27.6899  -14.2452   19.5779 H   0  0  0  0  0  0
  -28.6804  -11.9774   21.3678 H   0  0  0  0  0  0
  -28.4845  -13.6338   21.8594 H   0  0  0  0  0  0
  -25.2752   -9.5686   22.4768 H   0  0  0  0  0  0
  -24.0001   -7.4622   22.7478 H   0  0  0  0  0  0
  -21.0831   -8.8772   19.8960 H   0  0  0  0  0  0
  -22.3686  -10.9673   19.6166 H   0  0  0  0  0  0
  -21.2000   -7.6141   23.9715 H   0  0  0  0  0  0
  -21.1487   -6.0523   25.9085 H   0  0  0  0  0  0
  -22.0599   -2.7600   23.2858 H   0  0  0  0  0  0
  -22.4075  -11.9886   22.4798 H   0  0  0  0  0  0
  -21.1103  -13.1272   22.2583 H   0  0  0  0  0  0
  -24.6668  -15.8429   20.5181 H   0  0  0  0  0  0
  -26.2912  -15.6291   20.1092 H   0  0  0  0  0  0
  -26.7124  -32.5552   23.1183 H   0  0  0  0  0  0
  -25.0096  -33.9790   25.0511 H   0  0  0  0  0  0
  -22.6902  -31.3091   21.4128 H   0  0  0  0  0  0
  -23.3742  -35.9645   23.3306 H   0  0  0  0  0  0
  -24.3577  -36.8917   22.2052 H   0  0  0  0  0  0
  -23.7230  -37.6522   23.6646 H   0  0  0  0  0  0
  -26.0398  -31.6072   20.5941 H   0  0  0  0  0  0
  -26.8182  -30.8927   21.9792 H   0  0  0  0  0  0
  -28.1000  -29.1117   21.1679 H   0  0  0  0  0  0
  -26.0615  -25.9815   19.0052 H   0  0  0  0  0  0
  -23.9770  -27.2967   19.0376 H   0  0  0  0  0  0
  -23.7180  -30.6023   19.4051 H   0  0  0  0  0  0
  -22.7340  -29.2473   19.8704 H   0  0  0  0  0  0
  -25.1269  -36.1981   25.0842 H   0  0  0  0  0  0
  -20.9958  -28.3231   24.1439 H   0  0  0  0  0  0
  -20.5681  -26.2291   23.3606 H   0  0  0  0  0  0
  -21.6638  -26.7465   22.1203 H   0  0  0  0  0  0
  -19.6903  -25.6309   21.1245 H   0  0  0  0  0  0
  -19.6664  -27.3209   20.6756 H   0  0  0  0  0  0
  -17.4196  -26.6697   21.4025 H   0  0  0  0  0  0
  -18.0299  -26.0052   22.9012 H   0  0  0  0  0  0
  -19.7930  -30.7279   24.2263 H   0  0  0  0  0  0
  -17.5010  -31.6260   24.5194 H   0  0  0  0  0  0
  -15.5348  -30.3007   23.7638 H   0  0  0  0  0  0
  -15.8665  -28.0844   22.7049 H   0  0  0  0  0  0
  -24.5907  -30.7077   25.7824 H   0  0  0  0  0  0
  -24.8979  -32.2869   26.4957 H   0  0  0  0  0  0
  -25.8113  -30.8855   27.0223 H   0  0  0  0  0  0
  -26.2867  -29.6791   24.1173 H   0  0  0  0  0  0
  -27.4130  -29.7294   25.4541 H   0  0  0  0  0  0
  -27.8676  -30.4367   23.9214 H   0  0  0  0  0  0
  -27.2642  -33.3614   26.2086 H   0  0  0  0  0  0
  -28.3829  -32.6938   25.0300 H   0  0  0  0  0  0
  -28.0748  -31.8465   26.5377 H   0  0  0  0  0  0
  -28.2609  -38.0097   24.7519 H   0  0  0  0  0  0
  -28.1066  -36.2637   24.6287 H   0  0  0  0  0  0
  -27.2313  -37.1450   25.8878 H   0  0  0  0  0  0
  -20.9315  -29.8772   21.6954 H   0  0  0  0  0  0
  -26.0182  -38.2882   24.1400 H   0  0  0  0  0  0
  -30.8752  -18.0413   21.4223 H   0  0  0  0  0  0
  -29.6483  -19.7853   17.6547 H   0  0  0  0  0  0
  -28.8684  -15.6602   18.4071 H   0  0  0  0  0  0
  -28.1944  -22.6808   21.3392 H   0  0  0  0  0  0
  -27.1225  -22.9069   19.9908 H   0  0  0  0  0  0
  -30.8825  -24.9913   20.0011 H   0  0  0  0  0  0
  -30.4777  -24.0093   21.3745 H   0  0  0  0  0  0
  -28.6916  -21.7900   18.4590 H   0  0  0  0  0  0
  -28.3064  -20.7743   19.8340 H   0  0  0  0  0  0
  -32.0571  -22.8041   20.0179 H   0  0  0  0  0  0
  -31.1299  -23.0370   18.5675 H   0  0  0  0  0  0
  -28.5832  -25.4092   21.7563 H   0  0  0  0  0  0
  -27.1233  -25.1323   20.8889 H   0  0  0  0  0  0
  -29.0816  -15.2666   21.2982 H   0  0  0  0  0  0
  -32.6902  -19.4656   20.3325 H   0  0  0  0  0  0
  -32.6827  -21.1730   20.6243 H   0  0  0  0  0  0
  -28.6920  -25.4773   18.5220 H   0  0  0  0  0  0
  1 25  1  0  0  0
  1 30  2  0  0  0
  1 85  1  0  0  0
  2  3  1  0  0  0
  2 25  1  0  0  0
  2 89  1  0  0  0
  2 90  1  0  0  0
  3  4  1  0  0  0
  3 91  1  0  0  0
  3 92  1  0  0  0
  4  5  1  0  0  0
  4 93  1  0  0  0
  4 94  1  0  0  0
  5  6  1  0  0  0
  5 26  1  0  0  0
  5 95  1  0  0  0
  6 25  1  0  0  0
  6 96  1  0  0  0
  6 97  1  0  0  0
  7  8  2  0  0  0
  7 26  1  0  0  0
  7 29  1  0  0  0
  8  9  1  0  0  0
  8 22  1  0  0  0
  9 10  1  0  0  0
  9 27  2  0  0  0
 10 11  2  0  0  0
 10 15  1  0  0  0
 11 12  1  0  0  0
 11 98  1  0  0  0
 12 13  2  0  0  0
 12 99  1  0  0  0
 13 14  1  0  0  0
 13 31  1  0  0  0
 14 15  2  0  0  0
 14100  1  0  0  0
 15101  1  0  0  0
 16 17  2  0  0  0
 16 21  1  0  0  0
 16 31  1  0  0  0
 17 18  1  0  0  0
 17102  1  0  0  0
 18 19  2  0  0  0
 18103  1  0  0  0
 19 20  1  0  0  0
 19 24  1  0  0  0
 20 21  2  0  0  0
 20104  1  0  0  0
 21 23  1  0  0  0
 22 28  1  0  0  0
 22 32  2  0  0  0
 26 27  1  0  0  0
 28105  1  0  0  0
 28106  1  0  0  0
 29107  1  0  0  0
 29108  1  0  0  0
 33 34  1  0  0  0
 33 66  1  0  0  0
 33 70  2  0  0  0
 34 36  1  0  0  0
 34 59  1  0  0  0
 34109  1  0  0  0
 35 44  2  0  0  0
 35 45  1  0  0  0
 35 68  1  0  0  0
 36 56  1  0  0  0
 36110  1  0  0  0
 37 39  1  0  0  0
 37 47  1  0  0  0
 37 66  1  0  0  0
 37111  1  0  0  0
 38 43  2  0  0  0
 38 46  1  0  0  0
 38 47  1  0  0  0
 39 64  1  0  0  0
 39 67  2  0  0  0
 40 52  1  0  0  0
 40 53  2  0  0  0
 40 58  1  0  0  0
 41112  1  0  0  0
 41113  1  0  0  0
 41114  1  0  0  0
 41 48  1  0  0  0
 42 43  1  0  0  0
 42 66  1  0  0  0
 42115  1  0  0  0
 42116  1  0  0  0
 43 44  1  0  0  0
 44117  1  0  0  0
 45 46  2  0  0  0
 45118  1  0  0  0
 46119  1  0  0  0
 47120  1  0  0  0
 47121  1  0  0  0
 48 56  1  0  0  0
 48 65  1  0  0  0
 48122  1  0  0  0
 49 50  1  0  0  0
 49 53  1  0  0  0
 49 64  1  0  0  0
 49123  1  0  0  0
 50 51  1  0  0  0
 50124  1  0  0  0
 50125  1  0  0  0
 51 52  1  0  0  0
 51126  1  0  0  0
 51127  1  0  0  0
 52128  1  0  0  0
 52129  1  0  0  0
 53 54  1  0  0  0
 54 55  2  0  0  0
 54130  1  0  0  0
 55 57  1  0  0  0
 55131  1  0  0  0
 56 69  2  0  0  0
 57 58  2  0  0  0
 57132  1  0  0  0
 58133  1  0  0  0
 59 60  1  0  0  0
 59 61  1  0  0  0
 59 62  1  0  0  0
 60134  1  0  0  0
 60135  1  0  0  0
 60136  1  0  0  0
 61137  1  0  0  0
 61138  1  0  0  0
 61139  1  0  0  0
 62140  1  0  0  0
 62141  1  0  0  0
 62142  1  0  0  0
 63 65  1  0  0  0
 63143  1  0  0  0
 63144  1  0  0  0
 63145  1  0  0  0
 64146  1  0  0  0
 65147  1  0  0  0
 68 83  1  0  0  0
 71 74  2  0  0  0
 71 75  1  0  0  0
 71148  1  0  0  0
 72 74  1  0  0  0
 72 76  2  0  0  0
 72149  1  0  0  0
 73 75  2  0  0  0
 73 76  1  0  0  0
 73150  1  0  0  0
 74 77  1  0  0  0
 75 85  1  0  0  0
 76 88  1  0  0  0
 77 84  1  0  0  0
 77 86  2  0  0  0
 78 80  1  0  0  0
 78 82  1  0  0  0
 78151  1  0  0  0
 78152  1  0  0  0
 79 81  1  0  0  0
 79 82  1  0  0  0
 79153  1  0  0  0
 79154  1  0  0  0
 80 84  1  0  0  0
 80155  1  0  0  0
 80156  1  0  0  0
 81 84  1  0  0  0
 81157  1  0  0  0
 81158  1  0  0  0
 82 83  1  0  0  0
 82 87  1  0  0  0
 83159  1  0  0  0
 83160  1  0  0  0
 85161  1  0  0  0
 86162  1  0  0  0
 86163  1  0  0  0
 87164  1  0  0  0
M  CHG  1  86   1
M  ISO  4   1 100  68 101  83 101  85 100
M  END
> <chiral flag>
0

> <version>
0

> <s_m_source_file>
/data/baiqing/PycharmProjects/Reinvent-master-3.2/result/LINK_invent/BTK/process_docking_weight1_custom_product_contain_oxygen_bond_distance_aromatic_linkinvent_7_9_3/rearranged_h_0154.sdf

> <i_m_source_file_index>
75

> <r_mmod_Potential_Energy-OPLS-2005>
-174.063323974609

> <r_mmod_Stretch_Energy-OPLS-2005>
40.8405990600586

> <r_mmod_Bend_Energy-OPLS-2005>
99.905029296875

> <r_mmod_Torsional_Energy-OPLS-2005>
348.241760253906

> <r_mmod_Improper_Torsional_Energy-OPLS-2005>
9.36813735961914

> <r_mmod_Van_der_Waal_Energy-OPLS-2005>
165.718521118164

> <r_mmod_Electrostatic_Energy-OPLS-2005>
-443.245056152344

> <r_mmod_Solvation_Energy-OPLS-2005>
-410.227935791016

> <b_mmod_Minimization_Converged-OPLS-2005>
0

> <r_mmod_RMS_Derivative-OPLS-2005>
1.63209068775177

$$$$
75
                    3D
 Structure written by MMmdl.
167177  0  0  1  0            999 V2000
  -30.6976  -14.7595   20.5442 C   0  0  0  0  0  0
  -30.3989  -12.4575   19.5655 C   0  0  0  0  0  0
  -29.5233  -12.5235   18.2940 C   0  0  0  0  0  0
  -28.0480  -12.3522   18.6843 C   0  0  0  0  0  0
  -27.6458  -13.2585   19.8786 C   0  0  2  0  0  0
  -28.6736  -13.2063   21.0360 C   0  0  0  0  0  0
  -25.2382  -13.8258   20.5562 C   0  0  0  0  0  0
  -24.1734  -13.0455   20.9165 C   0  0  0  0  0  0
  -24.6382  -11.6964   20.8752 C   0  0  0  0  0  0
  -23.9056  -10.4311   21.0398 C   0  0  0  0  0  0
  -24.3613   -9.4213   21.9166 C   0  0  0  0  0  0
  -23.6297   -8.2240   22.0737 C   0  0  0  0  0  0
  -22.4271   -8.0261   21.3534 C   0  0  0  0  0  0
  -21.9914   -9.0222   20.4631 C   0  0  0  0  0  0
  -22.7227  -10.2113   20.3037 C   0  0  0  0  0  0
  -21.6857   -6.0727   22.5273 C   0  0  0  0  0  0
  -21.4030   -6.5617   23.8213 C   0  0  0  0  0  0
  -21.3665   -5.6761   24.9177 C   0  0  0  0  0  0
  -21.6067   -4.3026   24.7235 C   0  0  0  0  0  0
  -21.8815   -3.8122   23.4345 C   0  0  0  0  0  0
  -21.9183   -4.6957   22.3412 C   0  0  0  0  0  0
  -22.7736  -13.5203   21.1812 C   0  0  0  0  0  0
  -22.1647   -4.2118   21.1002 F   0  0  0  0  0  0
  -21.5619   -3.4509   25.7746 F   0  0  0  0  0  0
  -29.9926  -13.5572   20.5017 N   0  0  0  0  0  0
  -26.2919  -12.9550   20.3364 N   0  0  0  0  0  0
  -25.9351  -11.6646   20.5805 N   0  0  0  0  0  0
  -22.0405  -12.8227   22.0448 N   0  0  0  0  0  0
  -25.3901  -15.1941   20.3697 N   0  0  0  0  0  0
  -31.7320  -14.7649   19.8642 O   0  0  0  0  0  0
  -21.6608   -6.8861   21.4229 O   0  0  0  0  0  0
  -22.3390  -14.5495   20.6644 O   0  0  0  0  0  0
  -24.6348  -31.8537   23.1984 C   0  0  0  0  0  0
  -25.9135  -32.4738   23.8373 C   0  0  1  0  0  0
  -27.2028  -27.2225   20.1302 C   0  0  0  0  0  0
  -25.5985  -33.8538   24.2319 N   0  0  0  0  0  0
  -23.4344  -30.4746   21.5400 C   0  0  2  0  0  0
  -24.8812  -28.9271   20.1007 C   0  0  0  0  0  0
  -22.7538  -29.4554   22.4864 C   0  0  0  0  0  0
  -18.0319  -28.1332   22.8448 C   0  0  0  0  0  0
  -24.1498  -36.7248   23.2633 C   0  0  0  0  0  0
  -25.9856  -30.7519   21.3863 C   0  0  0  0  0  0
  -26.0563  -29.3763   20.7187 C   0  0  0  0  0  0
  -27.2178  -28.5311   20.7315 C   0  0  0  0  0  0
  -25.9956  -26.8466   19.4941 C   0  0  0  0  0  0
  -24.8578  -27.6731   19.4797 C   0  0  0  0  0  0
  -23.6553  -29.8172   20.1518 C   0  0  0  0  0  0
  -25.4121  -36.3063   24.0338 C   0  0  1  0  0  0
  -20.5912  -28.3657   23.1234 C   0  0  2  0  0  0
  -20.6762  -26.9350   22.5384 C   0  0  0  0  0  0
  -19.5754  -26.6323   21.5183 C   0  0  0  0  0  0
  -18.1947  -26.7873   22.1595 C   0  0  0  0  0  0
  -19.1563  -28.8817   23.2835 C   0  0  0  0  0  0
  -18.9491  -30.1412   23.8859 C   0  0  0  0  0  0
  -17.6480  -30.6536   24.0525 C   0  0  0  0  0  0
  -25.9056  -34.9433   23.5127 C   0  0  0  0  0  0
  -16.5372  -29.9026   23.6295 C   0  0  0  0  0  0
  -16.7296  -28.6433   23.0343 C   0  0  0  0  0  0
  -26.4534  -31.6549   25.0754 C   0  0  0  0  0  0
  -25.3788  -31.3631   26.1501 C   0  0  0  0  0  0
  -27.0383  -30.2975   24.6181 C   0  0  0  0  0  0
  -27.6130  -32.4302   25.7497 C   0  0  0  0  0  0
  -27.5577  -37.1782   24.8471 C   0  0  0  0  0  0
  -21.4215  -29.3051   22.3654 N   0  0  0  0  0  0
  -26.4299  -37.3771   23.9403 N   0  0  0  0  0  0
  -24.7043  -31.0465   22.0979 N   0  0  0  0  0  0
  -23.4278  -28.8035   23.2892 O   0  0  0  0  0  0
  -28.2409  -26.2588   20.2440 O   0  0  0  0  0  0
  -26.5591  -34.8891   22.4660 O   0  0  0  0  0  0
  -23.5500  -32.1367   23.7264 O   0  0  0  0  0  0
  -30.5647  -19.4703   20.2115 C   0  0  0  0  0  0
  -28.4492  -19.3213   21.2994 C   0  0  0  0  0  0
  -30.7845  -18.1013   20.5525 C   0  0  0  0  0  0
  -28.7358  -17.9420   21.6774 C   0  0  0  0  0  0
  -29.8225  -17.2066   21.0583 C   0  0  0  0  0  0
  -29.3424  -20.1293   20.5209 C   0  0  0  0  0  0
  -28.3000  -25.1627   19.3392 C   0  0  0  0  0  0
  -28.4627  -23.7696   19.3703 C   0  0  0  0  0  0
  -28.6170  -22.7264   20.4651 C   0  0  0  0  0  0
  -32.1364  -17.5235   20.8451 C   0  0  0  0  0  0
  -26.4229  -16.1232   24.1310 C   0  0  0  0  0  0
  -26.6191  -17.4552   24.8584 C   0  0  0  0  0  0
  -27.5517  -16.0571   23.0875 C   0  0  0  0  0  0
  -27.1605  -18.3632   23.7595 C   0  0  0  0  0  0
  -31.7626  -16.3896   21.8530 C   0  0  0  0  0  0
  -28.1704  -17.4561   23.0243 C   0  0  0  0  0  0
  -30.4402  -15.8776   21.3934 N   0  0  0  0  0  0
  -29.1238  -21.5120   20.0043 N   0  0  0  0  0  0
  -28.3251  -22.9013   21.6473 O   0  0  0  0  0  0
  -28.4246  -23.2267   18.1401 O   0  0  0  0  0  0
  -31.4571  -12.4834   19.3015 H   0  0  0  0  0  0
  -30.2777  -11.4881   20.0558 H   0  0  0  0  0  0
  -29.8252  -11.7443   17.5931 H   0  0  0  0  0  0
  -29.6732  -13.4739   17.7822 H   0  0  0  0  0  0
  -27.9075  -11.3048   18.9528 H   0  0  0  0  0  0
  -27.4020  -12.5389   17.8290 H   0  0  0  0  0  0
  -27.6460  -14.2822   19.4969 H   0  0  0  0  0  0
  -28.6937  -12.2100   21.4825 H   0  0  0  0  0  0
  -28.3965  -13.8787   21.8349 H   0  0  0  0  0  0
  -25.2768   -9.5690   22.4724 H   0  0  0  0  0  0
  -24.0004   -7.4636   22.7486 H   0  0  0  0  0  0
  -21.0837   -8.8744   19.8936 H   0  0  0  0  0  0
  -22.3693  -10.9627   19.6118 H   0  0  0  0  0  0
  -21.2050   -7.6115   23.9744 H   0  0  0  0  0  0
  -21.1472   -6.0469   25.9081 H   0  0  0  0  0  0
  -22.0598   -2.7581   23.2851 H   0  0  0  0  0  0
  -22.3983  -11.9914   22.4918 H   0  0  0  0  0  0
  -21.1008  -13.1199   22.2612 H   0  0  0  0  0  0
  -24.6323  -15.8518   20.5106 H   0  0  0  0  0  0
  -26.2463  -15.6352   20.0645 H   0  0  0  0  0  0
  -26.7168  -32.5332   23.1097 H   0  0  0  0  0  0
  -25.0294  -33.9702   25.0573 H   0  0  0  0  0  0
  -22.7287  -31.2953   21.3956 H   0  0  0  0  0  0
  -23.3799  -35.9543   23.3315 H   0  0  0  0  0  0
  -24.3593  -36.8833   22.2043 H   0  0  0  0  0  0
  -23.7218  -37.6433   23.6639 H   0  0  0  0  0  0
  -26.1334  -31.5164   20.6237 H   0  0  0  0  0  0
  -26.8538  -30.7949   22.0276 H   0  0  0  0  0  0
  -28.1061  -28.8528   21.2540 H   0  0  0  0  0  0
  -25.8847  -25.8656   19.0499 H   0  0  0  0  0  0
  -23.9508  -27.3170   19.0068 H   0  0  0  0  0  0
  -23.7836  -30.5966   19.4017 H   0  0  0  0  0  0
  -22.7691  -29.2584   19.8453 H   0  0  0  0  0  0
  -25.1324  -36.1924   25.0841 H   0  0  0  0  0  0
  -21.0034  -28.3196   24.1349 H   0  0  0  0  0  0
  -20.5587  -26.2265   23.3593 H   0  0  0  0  0  0
  -21.6631  -26.7292   22.1225 H   0  0  0  0  0  0
  -19.6895  -25.6250   21.1191 H   0  0  0  0  0  0
  -19.6668  -27.3124   20.6717 H   0  0  0  0  0  0
  -17.4196  -26.6626   21.4010 H   0  0  0  0  0  0
  -18.0339  -26.0028   22.9007 H   0  0  0  0  0  0
  -19.7974  -30.7226   24.2203 H   0  0  0  0  0  0
  -17.5037  -31.6207   24.5135 H   0  0  0  0  0  0
  -15.5359  -30.2902   23.7622 H   0  0  0  0  0  0
  -15.8715  -28.0715   22.7081 H   0  0  0  0  0  0
  -24.6023  -30.6930   25.7820 H   0  0  0  0  0  0
  -24.8927  -32.2761   26.4956 H   0  0  0  0  0  0
  -25.8187  -30.8805   27.0241 H   0  0  0  0  0  0
  -26.2946  -29.6707   24.1262 H   0  0  0  0  0  0
  -27.4169  -29.7253   25.4647 H   0  0  0  0  0  0
  -27.8792  -30.4299   23.9372 H   0  0  0  0  0  0
  -27.2797  -33.3635   26.2042 H   0  0  0  0  0  0
  -28.3940  -32.6784   25.0306 H   0  0  0  0  0  0
  -28.0796  -31.8437   26.5410 H   0  0  0  0  0  0
  -28.2617  -38.0064   24.7541 H   0  0  0  0  0  0
  -28.1081  -36.2606   24.6331 H   0  0  0  0  0  0
  -27.2286  -37.1453   25.8871 H   0  0  0  0  0  0
  -20.9390  -29.8885   21.6936 H   0  0  0  0  0  0
  -26.0188  -38.2834   24.1448 H   0  0  0  0  0  0
  -31.3783  -20.0454   19.7927 H   0  0  0  0  0  0
  -27.5778  -19.8170   21.7001 H   0  0  0  0  0  0
  -28.1935  -25.5928   18.3524 H   0  0  0  0  0  0
  -32.8014  -18.2597   21.2916 H   0  0  0  0  0  0
  -32.5949  -17.1516   19.9290 H   0  0  0  0  0  0
  -25.4535  -16.1283   23.6281 H   0  0  0  0  0  0
  -26.4452  -15.2736   24.8133 H   0  0  0  0  0  0
  -27.3643  -17.3566   25.6534 H   0  0  0  0  0  0
  -25.6962  -17.8239   25.3142 H   0  0  0  0  0  0
  -27.1556  -15.7617   22.1221 H   0  0  0  0  0  0
  -28.3101  -15.3375   23.3957 H   0  0  0  0  0  0
  -27.5986  -19.2855   24.1458 H   0  0  0  0  0  0
  -26.3333  -18.6361   23.1015 H   0  0  0  0  0  0
  -31.6175  -16.8121   22.8487 H   0  0  0  0  0  0
  -32.5592  -15.6534   21.9763 H   0  0  0  0  0  0
  -29.0513  -17.4242   23.6715 H   0  0  0  0  0  0
  -29.5408  -21.6434   19.0917 H   0  0  0  0  0  0
  -28.2593  -22.2988   18.2455 H   0  0  0  0  0  0
  1 25  1  0  0  0
  1 30  2  0  0  0
  1 87  1  0  0  0
  2  3  1  0  0  0
  2 25  1  0  0  0
  2 91  1  0  0  0
  2 92  1  0  0  0
  3  4  1  0  0  0
  3 93  1  0  0  0
  3 94  1  0  0  0
  4  5  1  0  0  0
  4 95  1  0  0  0
  4 96  1  0  0  0
  5  6  1  0  0  0
  5 26  1  0  0  0
  5 97  1  0  0  0
  6 25  1  0  0  0
  6 98  1  0  0  0
  6 99  1  0  0  0
  7  8  2  0  0  0
  7 26  1  0  0  0
  7 29  1  0  0  0
  8  9  1  0  0  0
  8 22  1  0  0  0
  9 10  1  0  0  0
  9 27  2  0  0  0
 10 11  2  0  0  0
 10 15  1  0  0  0
 11 12  1  0  0  0
 11100  1  0  0  0
 12 13  2  0  0  0
 12101  1  0  0  0
 13 14  1  0  0  0
 13 31  1  0  0  0
 14 15  2  0  0  0
 14102  1  0  0  0
 15103  1  0  0  0
 16 17  2  0  0  0
 16 21  1  0  0  0
 16 31  1  0  0  0
 17 18  1  0  0  0
 17104  1  0  0  0
 18 19  2  0  0  0
 18105  1  0  0  0
 19 20  1  0  0  0
 19 24  1  0  0  0
 20 21  2  0  0  0
 20106  1  0  0  0
 21 23  1  0  0  0
 22 28  1  0  0  0
 22 32  2  0  0  0
 26 27  1  0  0  0
 28107  1  0  0  0
 28108  1  0  0  0
 29109  1  0  0  0
 29110  1  0  0  0
 33 34  1  0  0  0
 33 66  1  0  0  0
 33 70  2  0  0  0
 34 36  1  0  0  0
 34 59  1  0  0  0
 34111  1  0  0  0
 35 44  2  0  0  0
 35 45  1  0  0  0
 35 68  1  0  0  0
 36 56  1  0  0  0
 36112  1  0  0  0
 37 39  1  0  0  0
 37 47  1  0  0  0
 37 66  1  0  0  0
 37113  1  0  0  0
 38 43  2  0  0  0
 38 46  1  0  0  0
 38 47  1  0  0  0
 39 64  1  0  0  0
 39 67  2  0  0  0
 40 52  1  0  0  0
 40 53  2  0  0  0
 40 58  1  0  0  0
 41114  1  0  0  0
 41115  1  0  0  0
 41116  1  0  0  0
 41 48  1  0  0  0
 42 43  1  0  0  0
 42 66  1  0  0  0
 42117  1  0  0  0
 42118  1  0  0  0
 43 44  1  0  0  0
 44119  1  0  0  0
 45 46  2  0  0  0
 45120  1  0  0  0
 46121  1  0  0  0
 47122  1  0  0  0
 47123  1  0  0  0
 48 56  1  0  0  0
 48 65  1  0  0  0
 48124  1  0  0  0
 49 50  1  0  0  0
 49 53  1  0  0  0
 49 64  1  0  0  0
 49125  1  0  0  0
 50 51  1  0  0  0
 50126  1  0  0  0
 50127  1  0  0  0
 51 52  1  0  0  0
 51128  1  0  0  0
 51129  1  0  0  0
 52130  1  0  0  0
 52131  1  0  0  0
 53 54  1  0  0  0
 54 55  2  0  0  0
 54132  1  0  0  0
 55 57  1  0  0  0
 55133  1  0  0  0
 56 69  2  0  0  0
 57 58  2  0  0  0
 57134  1  0  0  0
 58135  1  0  0  0
 59 60  1  0  0  0
 59 61  1  0  0  0
 59 62  1  0  0  0
 60136  1  0  0  0
 60137  1  0  0  0
 60138  1  0  0  0
 61139  1  0  0  0
 61140  1  0  0  0
 61141  1  0  0  0
 62142  1  0  0  0
 62143  1  0  0  0
 62144  1  0  0  0
 63 65  1  0  0  0
 63145  1  0  0  0
 63146  1  0  0  0
 63147  1  0  0  0
 64148  1  0  0  0
 65149  1  0  0  0
 68 77  1  0  0  0
 71 73  2  0  0  0
 71 76  1  0  0  0
 71150  1  0  0  0
 72 74  1  0  0  0
 72 76  2  0  0  0
 72151  1  0  0  0
 73 75  1  0  0  0
 73 80  1  0  0  0
 74 75  2  0  0  0
 74 86  1  0  0  0
 75 87  1  0  0  0
 76 88  1  0  0  0
 77 78  2  0  0  0
 77152  1  0  0  0
 78 79  1  0  0  0
 78 90  1  0  0  0
 79 88  1  0  0  0
 79 89  2  0  0  0
 80 85  1  0  0  0
 80153  1  0  0  0
 80154  1  0  0  0
 81 82  1  0  0  0
 81 83  1  0  0  0
 81155  1  0  0  0
 81156  1  0  0  0
 82 84  1  0  0  0
 82157  1  0  0  0
 82158  1  0  0  0
 83 86  1  0  0  0
 83159  1  0  0  0
 83160  1  0  0  0
 84 86  1  0  0  0
 84161  1  0  0  0
 84162  1  0  0  0
 85 87  1  0  0  0
 85163  1  0  0  0
 85164  1  0  0  0
 86165  1  0  0  0
 88166  1  0  0  0
 90167  1  0  0  0
M  ISO  4   1 100  68 101  77 101  87 100
M  END
> <chiral flag>
0

> <version>
0

> <s_m_source_file>
/data/baiqing/PycharmProjects/Reinvent-master-3.2/result/LINK_invent/BTK/process_docking_weight1_custom_product_contain_oxygen_bond_distance_aromatic_linkinvent_7_9_3/rearranged_h_0154.sdf

> <i_m_source_file_index>
76

> <r_mmod_Potential_Energy-OPLS-2005>
737.592529296875

> <r_mmod_Stretch_Energy-OPLS-2005>
152.847427368164

> <r_mmod_Bend_Energy-OPLS-2005>
418.667755126953

> <r_mmod_Torsional_Energy-OPLS-2005>
418.562072753906

> <r_mmod_Improper_Torsional_Energy-OPLS-2005>
28.434627532959

> <r_mmod_Van_der_Waal_Energy-OPLS-2005>
158.948928833008

> <r_mmod_Electrostatic_Energy-OPLS-2005>
-331.365264892578

> <r_mmod_Solvation_Energy-OPLS-2005>
-220.178573608398

> <b_mmod_Minimization_Converged-OPLS-2005>
0

> <r_mmod_RMS_Derivative-OPLS-2005>
5.82373714447021

$$$$
76
                    3D
 Structure written by MMmdl.
147155  0  0  1  0            999 V2000
  -30.5848  -14.7198   20.4713 C   0  0  0  0  0  0
  -30.4453  -12.4381   19.4607 C   0  0  0  0  0  0
  -29.5121  -12.5047   18.2298 C   0  0  0  0  0  0
  -28.0369  -12.3281   18.6443 C   0  0  0  0  0  0
  -27.6466  -13.2181   19.8536 C   0  0  2  0  0  0
  -28.6927  -13.1147   20.9861 C   0  0  0  0  0  0
  -25.2537  -13.8166   20.5678 C   0  0  0  0  0  0
  -24.1818  -13.0431   20.9214 C   0  0  0  0  0  0
  -24.6390  -11.6903   20.8752 C   0  0  0  0  0  0
  -23.9064  -10.4287   21.0413 C   0  0  0  0  0  0
  -24.3614   -9.4200   21.9188 C   0  0  0  0  0  0
  -23.6290   -8.2236   22.0753 C   0  0  0  0  0  0
  -22.4274   -8.0277   21.3543 C   0  0  0  0  0  0
  -21.9909   -9.0252   20.4646 C   0  0  0  0  0  0
  -22.7238  -10.2132   20.3058 C   0  0  0  0  0  0
  -21.6852   -6.0735   22.5279 C   0  0  0  0  0  0
  -21.4011   -6.5638   23.8213 C   0  0  0  0  0  0
  -21.3659   -5.6791   24.9174 C   0  0  0  0  0  0
  -21.6045   -4.3054   24.7225 C   0  0  0  0  0  0
  -21.8820   -3.8146   23.4347 C   0  0  0  0  0  0
  -21.9191   -4.6963   22.3402 C   0  0  0  0  0  0
  -22.7840  -13.5223   21.1875 C   0  0  0  0  0  0
  -22.1661   -4.2147   21.0981 F   0  0  0  0  0  0
  -21.5630   -3.4538   25.7740 F   0  0  0  0  0  0
  -29.9987  -13.4762   20.4142 N   0  0  0  0  0  0
  -26.2956  -12.9345   20.3276 N   0  0  0  0  0  0
  -25.9315  -11.6504   20.5745 N   0  0  0  0  0  0
  -22.0482  -12.8212   22.0429 N   0  0  0  0  0  0
  -25.4229  -15.1890   20.4067 N   0  0  0  0  0  0
  -31.7699  -14.8670   20.1523 O   0  0  0  0  0  0
  -21.6637   -6.8877   21.4241 O   0  0  0  0  0  0
  -22.3529  -14.5531   20.6723 O   0  0  0  0  0  0
  -24.6282  -31.8566   23.1984 C   0  0  0  0  0  0
  -25.9117  -32.4765   23.8329 C   0  0  1  0  0  0
  -27.2305  -27.2902   20.1354 C   0  0  0  0  0  0
  -25.5923  -33.8565   24.2259 N   0  0  0  0  0  0
  -23.4253  -30.4765   21.5408 C   0  0  2  0  0  0
  -24.8749  -28.9191   20.1169 C   0  0  0  0  0  0
  -22.7488  -29.4607   22.4923 C   0  0  0  0  0  0
  -18.0291  -28.1392   22.8492 C   0  0  0  0  0  0
  -24.1488  -36.7285   23.2640 C   0  0  0  0  0  0
  -25.9672  -30.7796   21.3716 C   0  0  0  0  0  0
  -26.0445  -29.4015   20.7194 C   0  0  0  0  0  0
  -27.2287  -28.6016   20.7118 C   0  0  0  0  0  0
  -26.0393  -26.8590   19.5167 C   0  0  0  0  0  0
  -24.8755  -27.6547   19.5044 C   0  0  0  0  0  0
  -23.6439  -29.8043   20.1594 C   0  0  0  0  0  0
  -25.4114  -36.3075   24.0329 C   0  0  1  0  0  0
  -20.5894  -28.3696   23.1281 C   0  0  2  0  0  0
  -20.6778  -26.9416   22.5412 C   0  0  0  0  0  0
  -19.5748  -26.6390   21.5216 C   0  0  0  0  0  0
  -18.1931  -26.7934   22.1632 C   0  0  0  0  0  0
  -19.1544  -28.8859   23.2883 C   0  0  0  0  0  0
  -18.9466  -30.1465   23.8897 C   0  0  0  0  0  0
  -17.6465  -30.6593   24.0568 C   0  0  0  0  0  0
  -25.9053  -34.9445   23.5096 C   0  0  0  0  0  0
  -16.5356  -29.9090   23.6338 C   0  0  0  0  0  0
  -16.7278  -28.6510   23.0356 C   0  0  0  0  0  0
  -26.4492  -31.6582   25.0707 C   0  0  0  0  0  0
  -25.3721  -31.3741   26.1435 C   0  0  0  0  0  0
  -27.0331  -30.2999   24.6173 C   0  0  0  0  0  0
  -27.6052  -32.4313   25.7480 C   0  0  0  0  0  0
  -27.5580  -37.1798   24.8466 C   0  0  0  0  0  0
  -21.4197  -29.3041   22.3667 N   0  0  0  0  0  0
  -26.4289  -37.3772   23.9410 N   0  0  0  0  0  0
  -24.6927  -31.0553   22.0942 N   0  0  0  0  0  0
  -23.4193  -28.8157   23.3029 O   0  0  0  0  0  0
  -28.3406  -26.4284   20.1266 O   0  0  0  0  0  0
  -26.5627  -34.8915   22.4665 O   0  0  0  0  0  0
  -23.5438  -32.1370   23.7291 O   0  0  0  0  0  0
  -30.6226  -19.4193   20.8019 C   0  0  0  0  0  0
  -29.3758  -19.8028   20.3250 C   0  0  0  0  0  0
  -29.8125  -17.2444   20.5513 C   0  0  0  0  0  0
  -28.6376  -23.7863   19.9453 C   0  0  0  0  0  0
  -29.0731  -22.4272   20.6817 C   0  0  0  0  0  0
  -28.1965  -25.0833   20.7669 C   0  0  0  0  0  0
  -30.8579  -18.0114   20.9119 N   0  0  0  0  0  0
  -28.8061  -21.1003   20.0001 N   0  0  0  0  0  0
  -29.7203  -15.7767   20.6776 N   0  0  0  0  0  0
  -28.6224  -23.8132   18.7102 O   0  0  0  0  0  0
  -28.4509  -18.3036   20.0414 S   0  0  0  0  0  0
  -31.4826  -12.5830   19.1537 H   0  0  0  0  0  0
  -30.4048  -11.4517   19.9257 H   0  0  0  0  0  0
  -29.7895  -11.7383   17.5047 H   0  0  0  0  0  0
  -29.6383  -13.4630   17.7238 H   0  0  0  0  0  0
  -27.8912  -11.2780   18.8999 H   0  0  0  0  0  0
  -27.3787  -12.5280   17.7978 H   0  0  0  0  0  0
  -27.6486  -14.2432   19.4843 H   0  0  0  0  0  0
  -28.7234  -12.1024   21.3923 H   0  0  0  0  0  0
  -28.4288  -13.7646   21.8223 H   0  0  0  0  0  0
  -25.2761   -9.5675   22.4761 H   0  0  0  0  0  0
  -24.0003   -7.4624   22.7465 H   0  0  0  0  0  0
  -21.0843   -8.8770   19.8948 H   0  0  0  0  0  0
  -22.3699  -10.9670   19.6166 H   0  0  0  0  0  0
  -21.2003   -7.6144   23.9715 H   0  0  0  0  0  0
  -21.1481   -6.0521   25.9077 H   0  0  0  0  0  0
  -22.0599   -2.7608   23.2847 H   0  0  0  0  0  0
  -22.4094  -11.9869   22.4812 H   0  0  0  0  0  0
  -21.1098  -13.1233   22.2634 H   0  0  0  0  0  0
  -24.6466  -15.8342   20.5065 H   0  0  0  0  0  0
  -26.2475  -15.6263   20.0179 H   0  0  0  0  0  0
  -26.7185  -32.5425   23.1077 H   0  0  0  0  0  0
  -25.0069  -33.9705   25.0405 H   0  0  0  0  0  0
  -22.7217  -31.2981   21.3926 H   0  0  0  0  0  0
  -23.3752  -35.9614   23.3299 H   0  0  0  0  0  0
  -24.3584  -36.8907   22.2055 H   0  0  0  0  0  0
  -23.7231  -37.6482   23.6662 H   0  0  0  0  0  0
  -26.0991  -31.5395   20.6003 H   0  0  0  0  0  0
  -26.8472  -30.8332   22.0012 H   0  0  0  0  0  0
  -28.1301  -28.9721   21.1799 H   0  0  0  0  0  0
  -26.0076  -25.8877   19.0434 H   0  0  0  0  0  0
  -23.9797  -27.2810   19.0273 H   0  0  0  0  0  0
  -23.7674  -30.5770   19.3997 H   0  0  0  0  0  0
  -22.7632  -29.2345   19.8571 H   0  0  0  0  0  0
  -25.1295  -36.1925   25.0821 H   0  0  0  0  0  0
  -20.9995  -28.3268   24.1397 H   0  0  0  0  0  0
  -20.5683  -26.2303   23.3613 H   0  0  0  0  0  0
  -21.6646  -26.7443   22.1206 H   0  0  0  0  0  0
  -19.6910  -25.6300   21.1248 H   0  0  0  0  0  0
  -19.6689  -27.3200   20.6747 H   0  0  0  0  0  0
  -17.4205  -26.6689   21.4029 H   0  0  0  0  0  0
  -18.0332  -26.0072   22.9027 H   0  0  0  0  0  0
  -19.7938  -30.7289   24.2256 H   0  0  0  0  0  0
  -17.5018  -31.6271   24.5172 H   0  0  0  0  0  0
  -15.5358  -30.2995   23.7654 H   0  0  0  0  0  0
  -15.8681  -28.0831   22.7064 H   0  0  0  0  0  0
  -24.5886  -30.7096   25.7771 H   0  0  0  0  0  0
  -24.8923  -32.2917   26.4847 H   0  0  0  0  0  0
  -25.8040  -30.8927   27.0216 H   0  0  0  0  0  0
  -26.2903  -29.6751   24.1195 H   0  0  0  0  0  0
  -27.4019  -29.7257   25.4684 H   0  0  0  0  0  0
  -27.8779  -30.4281   23.9402 H   0  0  0  0  0  0
  -27.2672  -33.3625   26.2039 H   0  0  0  0  0  0
  -28.3874  -32.6850   25.0314 H   0  0  0  0  0  0
  -28.0700  -31.8441   26.5409 H   0  0  0  0  0  0
  -28.2601  -38.0094   24.7520 H   0  0  0  0  0  0
  -28.1075  -36.2627   24.6285 H   0  0  0  0  0  0
  -27.2304  -37.1440   25.8872 H   0  0  0  0  0  0
  -20.9375  -29.8762   21.6873 H   0  0  0  0  0  0
  -26.0170  -38.2845   24.1416 H   0  0  0  0  0  0
  -31.4329  -20.0856   21.0623 H   0  0  0  0  0  0
  -28.5803  -22.4157   21.6545 H   0  0  0  0  0  0
  -30.1410  -22.5026   20.8891 H   0  0  0  0  0  0
  -28.7782  -25.0967   21.6885 H   0  0  0  0  0  0
  -27.1613  -24.9365   21.0754 H   0  0  0  0  0  0
  -27.9171  -21.0892   19.5036 H   0  0  0  0  0  0
  -28.7775  -15.4536   20.8188 H   0  0  0  0  0  0
  1 25  1  0  0  0
  1 30  2  0  0  0
  1 79  1  0  0  0
  2  3  1  0  0  0
  2 25  1  0  0  0
  2 82  1  0  0  0
  2 83  1  0  0  0
  3  4  1  0  0  0
  3 84  1  0  0  0
  3 85  1  0  0  0
  4  5  1  0  0  0
  4 86  1  0  0  0
  4 87  1  0  0  0
  5  6  1  0  0  0
  5 26  1  0  0  0
  5 88  1  0  0  0
  6 25  1  0  0  0
  6 89  1  0  0  0
  6 90  1  0  0  0
  7  8  2  0  0  0
  7 26  1  0  0  0
  7 29  1  0  0  0
  8  9  1  0  0  0
  8 22  1  0  0  0
  9 10  1  0  0  0
  9 27  2  0  0  0
 10 11  2  0  0  0
 10 15  1  0  0  0
 11 12  1  0  0  0
 11 91  1  0  0  0
 12 13  2  0  0  0
 12 92  1  0  0  0
 13 14  1  0  0  0
 13 31  1  0  0  0
 14 15  2  0  0  0
 14 93  1  0  0  0
 15 94  1  0  0  0
 16 17  2  0  0  0
 16 21  1  0  0  0
 16 31  1  0  0  0
 17 18  1  0  0  0
 17 95  1  0  0  0
 18 19  2  0  0  0
 18 96  1  0  0  0
 19 20  1  0  0  0
 19 24  1  0  0  0
 20 21  2  0  0  0
 20 97  1  0  0  0
 21 23  1  0  0  0
 22 28  1  0  0  0
 22 32  2  0  0  0
 26 27  1  0  0  0
 28 98  1  0  0  0
 28 99  1  0  0  0
 29100  1  0  0  0
 29101  1  0  0  0
 33 34  1  0  0  0
 33 66  1  0  0  0
 33 70  2  0  0  0
 34 36  1  0  0  0
 34 59  1  0  0  0
 34102  1  0  0  0
 35 44  2  0  0  0
 35 45  1  0  0  0
 35 68  1  0  0  0
 36 56  1  0  0  0
 36103  1  0  0  0
 37 39  1  0  0  0
 37 47  1  0  0  0
 37 66  1  0  0  0
 37104  1  0  0  0
 38 43  2  0  0  0
 38 46  1  0  0  0
 38 47  1  0  0  0
 39 64  1  0  0  0
 39 67  2  0  0  0
 40 52  1  0  0  0
 40 53  2  0  0  0
 40 58  1  0  0  0
 41105  1  0  0  0
 41106  1  0  0  0
 41107  1  0  0  0
 41 48  1  0  0  0
 42 43  1  0  0  0
 42 66  1  0  0  0
 42108  1  0  0  0
 42109  1  0  0  0
 43 44  1  0  0  0
 44110  1  0  0  0
 45 46  2  0  0  0
 45111  1  0  0  0
 46112  1  0  0  0
 47113  1  0  0  0
 47114  1  0  0  0
 48 56  1  0  0  0
 48 65  1  0  0  0
 48115  1  0  0  0
 49 50  1  0  0  0
 49 53  1  0  0  0
 49 64  1  0  0  0
 49116  1  0  0  0
 50 51  1  0  0  0
 50117  1  0  0  0
 50118  1  0  0  0
 51 52  1  0  0  0
 51119  1  0  0  0
 51120  1  0  0  0
 52121  1  0  0  0
 52122  1  0  0  0
 53 54  1  0  0  0
 54 55  2  0  0  0
 54123  1  0  0  0
 55 57  1  0  0  0
 55124  1  0  0  0
 56 69  2  0  0  0
 57 58  2  0  0  0
 57125  1  0  0  0
 58126  1  0  0  0
 59 60  1  0  0  0
 59 61  1  0  0  0
 59 62  1  0  0  0
 60127  1  0  0  0
 60128  1  0  0  0
 60129  1  0  0  0
 61130  1  0  0  0
 61131  1  0  0  0
 61132  1  0  0  0
 62133  1  0  0  0
 62134  1  0  0  0
 62135  1  0  0  0
 63 65  1  0  0  0
 63136  1  0  0  0
 63137  1  0  0  0
 63138  1  0  0  0
 64139  1  0  0  0
 65140  1  0  0  0
 68 76  1  0  0  0
 71 72  2  0  0  0
 71 77  1  0  0  0
 71141  1  0  0  0
 72 78  1  0  0  0
 72 81  1  0  0  0
 73 77  2  0  0  0
 73 79  1  0  0  0
 73 81  1  0  0  0
 74 75  1  0  0  0
 74 76  1  0  0  0
 74 80  2  0  0  0
 75 78  1  0  0  0
 75142  1  0  0  0
 75143  1  0  0  0
 76144  1  0  0  0
 76145  1  0  0  0
 78146  1  0  0  0
 79147  1  0  0  0
M  ISO  4   1 100  68 101  76 101  79 100
M  END
> <chiral flag>
0

> <version>
0

> <s_m_source_file>
/data/baiqing/PycharmProjects/Reinvent-master-3.2/result/LINK_invent/BTK/process_docking_weight1_custom_product_contain_oxygen_bond_distance_aromatic_linkinvent_7_9_3/rearranged_h_0154.sdf

> <i_m_source_file_index>
77

> <r_mmod_Potential_Energy-OPLS-2005>
157.300384521484

> <r_mmod_Stretch_Energy-OPLS-2005>
100.637008666992

> <r_mmod_Bend_Energy-OPLS-2005>
158.832153320312

> <r_mmod_Torsional_Energy-OPLS-2005>
237.253631591797

> <r_mmod_Improper_Torsional_Energy-OPLS-2005>
7.34930038452148

> <r_mmod_Van_der_Waal_Energy-OPLS-2005>
110.440734863281

> <r_mmod_Electrostatic_Energy-OPLS-2005>
-260.347930908203

> <r_mmod_Solvation_Energy-OPLS-2005>
-266.898986816406

> <b_mmod_Minimization_Converged-OPLS-2005>
0

> <r_mmod_RMS_Derivative-OPLS-2005>
0.768872022628784

$$$$
77
                    3D
 Structure written by MMmdl.
165174  0  0  1  0            999 V2000
  -30.6852  -14.5753   20.3953 C   0  0  0  0  0  0
  -30.4166  -12.3295   19.4323 C   0  0  0  0  0  0
  -29.4801  -12.4117   18.2073 C   0  0  0  0  0  0
  -28.0052  -12.3066   18.6353 C   0  0  0  0  0  0
  -27.6433  -13.2162   19.8414 C   0  0  2  0  0  0
  -28.7005  -13.1265   20.9635 C   0  0  0  0  0  0
  -25.2546  -13.8189   20.5711 C   0  0  0  0  0  0
  -24.1818  -13.0451   20.9224 C   0  0  0  0  0  0
  -24.6388  -11.6925   20.8777 C   0  0  0  0  0  0
  -23.9065  -10.4299   21.0415 C   0  0  0  0  0  0
  -24.3620   -9.4208   21.9187 C   0  0  0  0  0  0
  -23.6295   -8.2244   22.0753 C   0  0  0  0  0  0
  -22.4278   -8.0284   21.3545 C   0  0  0  0  0  0
  -21.9912   -9.0258   20.4649 C   0  0  0  0  0  0
  -22.7237  -10.2140   20.3060 C   0  0  0  0  0  0
  -21.6852   -6.0739   22.5278 C   0  0  0  0  0  0
  -21.4015   -6.5638   23.8214 C   0  0  0  0  0  0
  -21.3665   -5.6794   24.9174 C   0  0  0  0  0  0
  -21.6044   -4.3057   24.7226 C   0  0  0  0  0  0
  -21.8820   -3.8147   23.4347 C   0  0  0  0  0  0
  -21.9198   -4.6967   22.3401 C   0  0  0  0  0  0
  -22.7844  -13.5241   21.1869 C   0  0  0  0  0  0
  -22.1657   -4.2154   21.0981 F   0  0  0  0  0  0
  -21.5632   -3.4540   25.7737 F   0  0  0  0  0  0
  -30.0091  -13.3945   20.3587 N   0  0  0  0  0  0
  -26.2964  -12.9374   20.3318 N   0  0  0  0  0  0
  -25.9316  -11.6533   20.5819 N   0  0  0  0  0  0
  -22.0489  -12.8232   22.0428 N   0  0  0  0  0  0
  -25.4282  -15.1905   20.4106 N   0  0  0  0  0  0
  -31.9165  -14.6162   20.3326 O   0  0  0  0  0  0
  -21.6644   -6.8882   21.4238 O   0  0  0  0  0  0
  -22.3532  -14.5546   20.6710 O   0  0  0  0  0  0
  -24.6184  -31.8645   23.2063 C   0  0  0  0  0  0
  -25.9064  -32.4799   23.8376 C   0  0  1  0  0  0
  -27.2283  -27.3897   20.1112 C   0  0  0  0  0  0
  -25.5905  -33.8602   24.2303 N   0  0  0  0  0  0
  -23.4081  -30.4867   21.5481 C   0  0  2  0  0  0
  -24.8526  -28.9404   20.1193 C   0  0  0  0  0  0
  -22.7429  -29.4648   22.4982 C   0  0  0  0  0  0
  -18.0289  -28.1381   22.8488 C   0  0  0  0  0  0
  -24.1485  -36.7305   23.2638 C   0  0  0  0  0  0
  -25.9410  -30.8159   21.3659 C   0  0  0  0  0  0
  -26.0161  -29.4460   20.7135 C   0  0  0  0  0  0
  -27.2098  -28.6816   20.6969 C   0  0  0  0  0  0
  -26.0469  -26.9029   19.5154 C   0  0  0  0  0  0
  -24.8648  -27.6704   19.5148 C   0  0  0  0  0  0
  -23.6178  -29.8143   20.1649 C   0  0  0  0  0  0
  -25.4112  -36.3102   24.0328 C   0  0  1  0  0  0
  -20.5878  -28.3664   23.1326 C   0  0  2  0  0  0
  -20.6782  -26.9397   22.5433 C   0  0  0  0  0  0
  -19.5768  -26.6381   21.5224 C   0  0  0  0  0  0
  -18.1939  -26.7928   22.1619 C   0  0  0  0  0  0
  -19.1536  -28.8840   23.2906 C   0  0  0  0  0  0
  -18.9470  -30.1451   23.8908 C   0  0  0  0  0  0
  -17.6473  -30.6590   24.0573 C   0  0  0  0  0  0
  -25.9041  -34.9464   23.5116 C   0  0  0  0  0  0
  -16.5362  -29.9088   23.6341 C   0  0  0  0  0  0
  -16.7279  -28.6510   23.0353 C   0  0  0  0  0  0
  -26.4477  -31.6592   25.0723 C   0  0  0  0  0  0
  -25.3729  -31.3722   26.1465 C   0  0  0  0  0  0
  -27.0299  -30.3024   24.6138 C   0  0  0  0  0  0
  -27.6050  -32.4318   25.7478 C   0  0  0  0  0  0
  -27.5582  -37.1809   24.8463 C   0  0  0  0  0  0
  -21.4154  -29.3028   22.3723 N   0  0  0  0  0  0
  -26.4296  -37.3789   23.9398 N   0  0  0  0  0  0
  -24.6741  -31.0708   22.0977 N   0  0  0  0  0  0
  -23.4185  -28.8198   23.3046 O   0  0  0  0  0  0
  -28.3880  -26.6347   20.0764 O   0  0  0  0  0  0
  -26.5608  -34.8921   22.4683 O   0  0  0  0  0  0
  -23.5373  -32.1422   23.7438 O   0  0  0  0  0  0
  -28.9582  -20.4311   20.0142 C   0  0  0  0  0  0
  -27.2268  -19.2916   21.2828 C   0  0  0  0  0  0
  -27.3367  -21.7394   21.2767 C   0  0  0  0  0  0
  -28.3287  -19.2073   20.4045 C   0  0  0  0  0  0
  -28.4601  -21.7047   20.4243 C   0  0  0  0  0  0
  -26.7378  -20.5406   21.7154 C   0  0  0  0  0  0
  -29.3297  -16.5966   17.6679 C   0  0  0  0  0  0
  -29.0163  -17.9531   18.2918 C   0  0  0  0  0  0
  -30.4589  -15.9524   18.4706 C   0  0  0  0  0  0
  -29.7069  -16.9009   20.5613 C   0  0  0  0  0  0
  -28.6810  -17.8223   19.7912 C   0  0  1  0  0  0
  -29.6187  -25.2988   21.5777 C   0  0  0  0  0  0
  -28.3566  -24.1356   19.6374 C   0  0  0  0  0  0
  -28.3727  -25.3130   20.6789 C   0  0  2  0  0  0
  -30.0042  -15.6246   19.8377 N   0  0  0  0  0  0
  -29.0936  -22.8978   19.9986 N   0  0  0  0  0  0
  -25.6693  -20.5889   22.5469 F   0  0  0  0  0  0
  -31.4561  -12.4281   19.1175 H   0  0  0  0  0  0
  -30.3355  -11.3560   19.9185 H   0  0  0  0  0  0
  -29.7154  -11.6089   17.5076 H   0  0  0  0  0  0
  -29.6271  -13.3354   17.6542 H   0  0  0  0  0  0
  -27.8220  -11.2625   18.8922 H   0  0  0  0  0  0
  -27.3515  -12.5276   17.7903 H   0  0  0  0  0  0
  -27.6447  -14.2391   19.4641 H   0  0  0  0  0  0
  -28.6969  -12.1395   21.4272 H   0  0  0  0  0  0
  -28.4870  -13.8508   21.7518 H   0  0  0  0  0  0
  -25.2764   -9.5682   22.4765 H   0  0  0  0  0  0
  -24.0009   -7.4627   22.7461 H   0  0  0  0  0  0
  -21.0850   -8.8768   19.8946 H   0  0  0  0  0  0
  -22.3687  -10.9680   19.6173 H   0  0  0  0  0  0
  -21.1995   -7.6146   23.9714 H   0  0  0  0  0  0
  -21.1488   -6.0527   25.9080 H   0  0  0  0  0  0
  -22.0596   -2.7612   23.2846 H   0  0  0  0  0  0
  -22.4106  -11.9887   22.4808 H   0  0  0  0  0  0
  -21.1095  -13.1239   22.2615 H   0  0  0  0  0  0
  -24.6674  -15.8516   20.5235 H   0  0  0  0  0  0
  -26.2884  -15.6209   20.0988 H   0  0  0  0  0  0
  -26.7129  -32.5479   23.1126 H   0  0  0  0  0  0
  -25.0050  -33.9769   25.0452 H   0  0  0  0  0  0
  -22.6993  -31.3055   21.4057 H   0  0  0  0  0  0
  -23.3743  -35.9644   23.3318 H   0  0  0  0  0  0
  -24.3581  -36.8915   22.2051 H   0  0  0  0  0  0
  -23.7246  -37.6517   23.6645 H   0  0  0  0  0  0
  -26.0629  -31.5802   20.5970 H   0  0  0  0  0  0
  -26.8260  -30.8664   21.9884 H   0  0  0  0  0  0
  -28.1116  -29.0724   21.1469 H   0  0  0  0  0  0
  -26.0398  -25.9326   19.0402 H   0  0  0  0  0  0
  -23.9702  -27.2775   19.0510 H   0  0  0  0  0  0
  -23.7319  -30.5876   19.4047 H   0  0  0  0  0  0
  -22.7391  -29.2384   19.8670 H   0  0  0  0  0  0
  -25.1293  -36.1964   25.0820 H   0  0  0  0  0  0
  -20.9968  -28.3229   24.1450 H   0  0  0  0  0  0
  -20.5684  -26.2275   23.3629 H   0  0  0  0  0  0
  -21.6660  -26.7442   22.1240 H   0  0  0  0  0  0
  -19.6928  -25.6292   21.1258 H   0  0  0  0  0  0
  -19.6714  -27.3197   20.6756 H   0  0  0  0  0  0
  -17.4218  -26.6692   21.4006 H   0  0  0  0  0  0
  -18.0325  -26.0075   22.9011 H   0  0  0  0  0  0
  -19.7954  -30.7267   24.2271 H   0  0  0  0  0  0
  -17.5037  -31.6273   24.5164 H   0  0  0  0  0  0
  -15.5366  -30.2993   23.7671 H   0  0  0  0  0  0
  -15.8679  -28.0837   22.7054 H   0  0  0  0  0  0
  -24.5893  -30.7078   25.7799 H   0  0  0  0  0  0
  -24.8931  -32.2889   26.4902 H   0  0  0  0  0  0
  -25.8075  -30.8891   27.0227 H   0  0  0  0  0  0
  -26.2856  -29.6793   24.1166 H   0  0  0  0  0  0
  -27.4015  -29.7258   25.4618 H   0  0  0  0  0  0
  -27.8716  -30.4320   23.9332 H   0  0  0  0  0  0
  -27.2667  -33.3606   26.2083 H   0  0  0  0  0  0
  -28.3838  -32.6907   25.0288 H   0  0  0  0  0  0
  -28.0741  -31.8428   26.5372 H   0  0  0  0  0  0
  -28.2608  -38.0097   24.7500 H   0  0  0  0  0  0
  -28.1071  -36.2630   24.6297 H   0  0  0  0  0  0
  -27.2297  -37.1466   25.8868 H   0  0  0  0  0  0
  -20.9309  -29.8743   21.6938 H   0  0  0  0  0  0
  -26.0182  -38.2867   24.1401 H   0  0  0  0  0  0
  -29.8076  -20.4022   19.3483 H   0  0  0  0  0  0
  -26.7167  -18.3938   21.6007 H   0  0  0  0  0  0
  -26.9335  -22.6806   21.6191 H   0  0  0  0  0  0
  -29.6297  -16.7260   16.6276 H   0  0  0  0  0  0
  -28.4454  -15.9564   17.6634 H   0  0  0  0  0  0
  -28.1881  -18.4227   17.7592 H   0  0  0  0  0  0
  -29.8832  -18.5949   18.1463 H   0  0  0  0  0  0
  -31.3185  -16.6245   18.5212 H   0  0  0  0  0  0
  -30.8253  -15.0784   17.9305 H   0  0  0  0  0  0
  -29.3174  -16.6673   21.5537 H   0  0  0  0  0  0
  -30.6409  -17.4427   20.7174 H   0  0  0  0  0  0
  -27.7443  -17.2634   19.8110 H   0  0  0  0  0  0
  -29.6742  -24.3863   22.1716 H   0  0  0  0  0  0
  -29.6043  -26.1384   22.2728 H   0  0  0  0  0  0
  -30.5321  -25.3697   20.9859 H   0  0  0  0  0  0
  -28.8255  -24.4992   18.7219 H   0  0  0  0  0  0
  -27.3304  -23.8961   19.3561 H   0  0  0  0  0  0
  -27.5042  -25.2076   21.3313 H   0  0  0  0  0  0
  -29.9675  -22.7755   19.4937 H   0  0  0  0  0  0
  1 25  1  0  0  0
  1 30  2  0  0  0
  1 85  1  0  0  0
  2  3  1  0  0  0
  2 25  1  0  0  0
  2 88  1  0  0  0
  2 89  1  0  0  0
  3  4  1  0  0  0
  3 90  1  0  0  0
  3 91  1  0  0  0
  4  5  1  0  0  0
  4 92  1  0  0  0
  4 93  1  0  0  0
  5  6  1  0  0  0
  5 26  1  0  0  0
  5 94  1  0  0  0
  6 25  1  0  0  0
  6 95  1  0  0  0
  6 96  1  0  0  0
  7  8  2  0  0  0
  7 26  1  0  0  0
  7 29  1  0  0  0
  8  9  1  0  0  0
  8 22  1  0  0  0
  9 10  1  0  0  0
  9 27  2  0  0  0
 10 11  2  0  0  0
 10 15  1  0  0  0
 11 12  1  0  0  0
 11 97  1  0  0  0
 12 13  2  0  0  0
 12 98  1  0  0  0
 13 14  1  0  0  0
 13 31  1  0  0  0
 14 15  2  0  0  0
 14 99  1  0  0  0
 15100  1  0  0  0
 16 17  2  0  0  0
 16 21  1  0  0  0
 16 31  1  0  0  0
 17 18  1  0  0  0
 17101  1  0  0  0
 18 19  2  0  0  0
 18102  1  0  0  0
 19 20  1  0  0  0
 19 24  1  0  0  0
 20 21  2  0  0  0
 20103  1  0  0  0
 21 23  1  0  0  0
 22 28  1  0  0  0
 22 32  2  0  0  0
 26 27  1  0  0  0
 28104  1  0  0  0
 28105  1  0  0  0
 29106  1  0  0  0
 29107  1  0  0  0
 33 34  1  0  0  0
 33 66  1  0  0  0
 33 70  2  0  0  0
 34 36  1  0  0  0
 34 59  1  0  0  0
 34108  1  0  0  0
 35 44  2  0  0  0
 35 45  1  0  0  0
 35 68  1  0  0  0
 36 56  1  0  0  0
 36109  1  0  0  0
 37 39  1  0  0  0
 37 47  1  0  0  0
 37 66  1  0  0  0
 37110  1  0  0  0
 38 43  2  0  0  0
 38 46  1  0  0  0
 38 47  1  0  0  0
 39 64  1  0  0  0
 39 67  2  0  0  0
 40 52  1  0  0  0
 40 53  2  0  0  0
 40 58  1  0  0  0
 41111  1  0  0  0
 41112  1  0  0  0
 41113  1  0  0  0
 41 48  1  0  0  0
 42 43  1  0  0  0
 42 66  1  0  0  0
 42114  1  0  0  0
 42115  1  0  0  0
 43 44  1  0  0  0
 44116  1  0  0  0
 45 46  2  0  0  0
 45117  1  0  0  0
 46118  1  0  0  0
 47119  1  0  0  0
 47120  1  0  0  0
 48 56  1  0  0  0
 48 65  1  0  0  0
 48121  1  0  0  0
 49 50  1  0  0  0
 49 53  1  0  0  0
 49 64  1  0  0  0
 49122  1  0  0  0
 50 51  1  0  0  0
 50123  1  0  0  0
 50124  1  0  0  0
 51 52  1  0  0  0
 51125  1  0  0  0
 51126  1  0  0  0
 52127  1  0  0  0
 52128  1  0  0  0
 53 54  1  0  0  0
 54 55  2  0  0  0
 54129  1  0  0  0
 55 57  1  0  0  0
 55130  1  0  0  0
 56 69  2  0  0  0
 57 58  2  0  0  0
 57131  1  0  0  0
 58132  1  0  0  0
 59 60  1  0  0  0
 59 61  1  0  0  0
 59 62  1  0  0  0
 60133  1  0  0  0
 60134  1  0  0  0
 60135  1  0  0  0
 61136  1  0  0  0
 61137  1  0  0  0
 61138  1  0  0  0
 62139  1  0  0  0
 62140  1  0  0  0
 62141  1  0  0  0
 63 65  1  0  0  0
 63142  1  0  0  0
 63143  1  0  0  0
 63144  1  0  0  0
 64145  1  0  0  0
 65146  1  0  0  0
 68 84  1  0  0  0
 71 74  2  0  0  0
 71 75  1  0  0  0
 71147  1  0  0  0
 72 74  1  0  0  0
 72 76  2  0  0  0
 72148  1  0  0  0
 73 75  2  0  0  0
 73 76  1  0  0  0
 73149  1  0  0  0
 74 81  1  0  0  0
 75 86  1  0  0  0
 76 87  1  0  0  0
 77 78  1  0  0  0
 77 79  1  0  0  0
 77150  1  0  0  0
 77151  1  0  0  0
 78 81  1  0  0  0
 78152  1  0  0  0
 78153  1  0  0  0
 79 85  1  0  0  0
 79154  1  0  0  0
 79155  1  0  0  0
 80 81  1  0  0  0
 80 85  1  0  0  0
 80156  1  0  0  0
 80157  1  0  0  0
 81158  1  0  0  0
 82159  1  0  0  0
 82160  1  0  0  0
 82161  1  0  0  0
 82 84  1  0  0  0
 83 84  1  0  0  0
 83 86  1  0  0  0
 83162  1  0  0  0
 83163  1  0  0  0
 84164  1  0  0  0
 86165  1  0  0  0
M  ISO  4   1 100  68 101  84 101  85 100
M  END
> <chiral flag>
0

> <version>
0

> <s_m_source_file>
/data/baiqing/PycharmProjects/Reinvent-master-3.2/result/LINK_invent/BTK/process_docking_weight1_custom_product_contain_oxygen_bond_distance_aromatic_linkinvent_7_9_3/rearranged_h_0154.sdf

> <i_m_source_file_index>
78

> <r_mmod_Potential_Energy-OPLS-2005>
265.507110595703

> <r_mmod_Stretch_Energy-OPLS-2005>
55.1159248352051

> <r_mmod_Bend_Energy-OPLS-2005>
131.060882568359

> <r_mmod_Torsional_Energy-OPLS-2005>
370.090576171875

> <r_mmod_Improper_Torsional_Energy-OPLS-2005>
30.7659778594971

> <r_mmod_Van_der_Waal_Energy-OPLS-2005>
141.665908813477

> <r_mmod_Electrostatic_Energy-OPLS-2005>
-312.884765625

> <r_mmod_Solvation_Energy-OPLS-2005>
-194.777069091797

> <b_mmod_Minimization_Converged-OPLS-2005>
0

> <r_mmod_RMS_Derivative-OPLS-2005>
1.58276748657227

$$$$
78
                    3D
 Structure written by MMmdl.
155164  0  0  1  0            999 V2000
  -30.5699  -14.7663   20.4517 C   0  0  0  0  0  0
  -30.4460  -12.4652   19.4688 C   0  0  0  0  0  0
  -29.5128  -12.4966   18.2359 C   0  0  0  0  0  0
  -28.0413  -12.3112   18.6557 C   0  0  0  0  0  0
  -27.6436  -13.2181   19.8494 C   0  0  2  0  0  0
  -28.6893  -13.1402   20.9842 C   0  0  0  0  0  0
  -25.2535  -13.8161   20.5677 C   0  0  0  0  0  0
  -24.1810  -13.0428   20.9204 C   0  0  0  0  0  0
  -24.6381  -11.6903   20.8746 C   0  0  0  0  0  0
  -23.9056  -10.4286   21.0410 C   0  0  0  0  0  0
  -24.3611   -9.4203   21.9189 C   0  0  0  0  0  0
  -23.6288   -8.2236   22.0758 C   0  0  0  0  0  0
  -22.4271   -8.0273   21.3544 C   0  0  0  0  0  0
  -21.9900   -9.0247   20.4645 C   0  0  0  0  0  0
  -22.7229  -10.2127   20.3057 C   0  0  0  0  0  0
  -21.6850   -6.0730   22.5276 C   0  0  0  0  0  0
  -21.4010   -6.5638   23.8209 C   0  0  0  0  0  0
  -21.3660   -5.6792   24.9173 C   0  0  0  0  0  0
  -21.6042   -4.3054   24.7226 C   0  0  0  0  0  0
  -21.8823   -3.8146   23.4347 C   0  0  0  0  0  0
  -21.9195   -4.6958   22.3401 C   0  0  0  0  0  0
  -22.7834  -13.5226   21.1862 C   0  0  0  0  0  0
  -22.1663   -4.2147   21.0978 F   0  0  0  0  0  0
  -21.5633   -3.4541   25.7742 F   0  0  0  0  0  0
  -29.9898  -13.5153   20.4087 N   0  0  0  0  0  0
  -26.2940  -12.9336   20.3259 N   0  0  0  0  0  0
  -25.9305  -11.6495   20.5744 N   0  0  0  0  0  0
  -22.0474  -12.8214   22.0406 N   0  0  0  0  0  0
  -25.4245  -15.1885   20.4077 N   0  0  0  0  0  0
  -31.7524  -14.9013   20.1171 O   0  0  0  0  0  0
  -21.6636   -6.8873   21.4237 O   0  0  0  0  0  0
  -22.3532  -14.5547   20.6726 O   0  0  0  0  0  0
  -24.6344  -31.8547   23.1969 C   0  0  0  0  0  0
  -25.9158  -32.4761   23.8329 C   0  0  1  0  0  0
  -27.2210  -27.2537   20.1283 C   0  0  0  0  0  0
  -25.5936  -33.8553   24.2259 N   0  0  0  0  0  0
  -23.4345  -30.4767   21.5391 C   0  0  2  0  0  0
  -24.8861  -28.9268   20.1057 C   0  0  0  0  0  0
  -22.7544  -29.4603   22.4882 C   0  0  0  0  0  0
  -18.0305  -28.1415   22.8495 C   0  0  0  0  0  0
  -24.1478  -36.7262   23.2639 C   0  0  0  0  0  0
  -25.9823  -30.7658   21.3795 C   0  0  0  0  0  0
  -26.0588  -29.3875   20.7212 C   0  0  0  0  0  0
  -27.2337  -28.5611   20.7255 C   0  0  0  0  0  0
  -26.0319  -26.8720   19.4722 C   0  0  0  0  0  0
  -24.8781  -27.6775   19.4693 C   0  0  0  0  0  0
  -23.6561  -29.8129   20.1553 C   0  0  0  0  0  0
  -25.4106  -36.3061   24.0328 C   0  0  1  0  0  0
  -20.5919  -28.3728   23.1256 C   0  0  2  0  0  0
  -20.6776  -26.9434   22.5406 C   0  0  0  0  0  0
  -19.5743  -26.6407   21.5215 C   0  0  0  0  0  0
  -18.1927  -26.7960   22.1625 C   0  0  0  0  0  0
  -19.1564  -28.8887   23.2871 C   0  0  0  0  0  0
  -18.9480  -30.1485   23.8897 C   0  0  0  0  0  0
  -17.6475  -30.6598   24.0583 C   0  0  0  0  0  0
  -25.9053  -34.9440   23.5099 C   0  0  0  0  0  0
  -16.5366  -29.9095   23.6347 C   0  0  0  0  0  0
  -16.7292  -28.6519   23.0362 C   0  0  0  0  0  0
  -26.4515  -31.6580   25.0720 C   0  0  0  0  0  0
  -25.3731  -31.3744   26.1441 C   0  0  0  0  0  0
  -27.0354  -30.2991   24.6212 C   0  0  0  0  0  0
  -27.6084  -32.4305   25.7483 C   0  0  0  0  0  0
  -27.5572  -37.1784   24.8467 C   0  0  0  0  0  0
  -21.4244  -29.3054   22.3623 N   0  0  0  0  0  0
  -26.4278  -37.3769   23.9424 N   0  0  0  0  0  0
  -24.7025  -31.0502   22.0948 N   0  0  0  0  0  0
  -23.4233  -28.8149   23.2995 O   0  0  0  0  0  0
  -28.2348  -26.2655   20.2111 O   0  0  0  0  0  0
  -26.5628  -34.8920   22.4666 O   0  0  0  0  0  0
  -23.5485  -32.1368   23.7250 O   0  0  0  0  0  0
  -30.6079  -19.4666   19.9922 C   0  0  0  0  0  0
  -29.3636  -19.9305   20.4605 C   0  0  0  0  0  0
  -29.7905  -17.3180   20.5573 C   0  0  0  0  0  0
  -28.1348  -23.6981   20.8876 C   0  0  0  0  0  0
  -27.8270  -25.0646   20.8660 C   0  0  0  0  0  0
  -31.6857  -20.3038   19.4432 C   0  0  0  0  0  0
  -27.3155  -22.8176   21.8101 C   0  0  0  0  0  0
  -29.1206  -22.6647   20.2143 C   0  0  0  0  0  0
  -27.4429  -21.3682   21.3201 C   0  0  0  0  0  0
  -33.0446  -19.6232   19.2919 C   0  0  0  0  0  0
  -30.8080  -18.0387   20.0630 N   0  0  0  0  0  0
  -28.7246  -21.2553   20.6332 N   0  0  0  0  0  0
  -29.7253  -15.8376   20.7137 N   0  0  0  0  0  0
  -31.6006  -21.4801   19.0808 O   0  0  0  0  0  0
  -28.4623  -18.4540   20.9695 S   0  0  0  0  0  0
  -31.4813  -12.6139   19.1568 H   0  0  0  0  0  0
  -30.4167  -11.4877   19.9525 H   0  0  0  0  0  0
  -29.7974  -11.7137   17.5314 H   0  0  0  0  0  0
  -29.6284  -13.4434   17.7054 H   0  0  0  0  0  0
  -27.9122  -11.2644   18.9352 H   0  0  0  0  0  0
  -27.3788  -12.4829   17.8064 H   0  0  0  0  0  0
  -27.6399  -14.2371   19.4638 H   0  0  0  0  0  0
  -28.7327  -12.1323   21.3998 H   0  0  0  0  0  0
  -28.4166  -13.7948   21.8128 H   0  0  0  0  0  0
  -25.2755   -9.5684   22.4764 H   0  0  0  0  0  0
  -24.0004   -7.4628   22.7471 H   0  0  0  0  0  0
  -21.0838   -8.8764   19.8946 H   0  0  0  0  0  0
  -22.3690  -10.9669   19.6170 H   0  0  0  0  0  0
  -21.1999   -7.6148   23.9708 H   0  0  0  0  0  0
  -21.1476   -6.0525   25.9076 H   0  0  0  0  0  0
  -22.0603   -2.7608   23.2847 H   0  0  0  0  0  0
  -22.4085  -11.9877   22.4804 H   0  0  0  0  0  0
  -21.1097  -13.1249   22.2616 H   0  0  0  0  0  0
  -24.6521  -15.8365   20.5141 H   0  0  0  0  0  0
  -26.2490  -15.6207   20.0132 H   0  0  0  0  0  0
  -26.7230  -32.5438   23.1077 H   0  0  0  0  0  0
  -25.0076  -33.9680   25.0401 H   0  0  0  0  0  0
  -22.7326  -31.2993   21.3909 H   0  0  0  0  0  0
  -23.3750  -35.9584   23.3302 H   0  0  0  0  0  0
  -24.3564  -36.8879   22.2051 H   0  0  0  0  0  0
  -23.7216  -37.6454   23.6667 H   0  0  0  0  0  0
  -26.1194  -31.5255   20.6088 H   0  0  0  0  0  0
  -26.8602  -30.8205   22.0112 H   0  0  0  0  0  0
  -28.1265  -28.8970   21.2339 H   0  0  0  0  0  0
  -25.9810  -25.9018   18.9979 H   0  0  0  0  0  0
  -23.9826  -27.3173   18.9822 H   0  0  0  0  0  0
  -23.7837  -30.5904   19.4015 H   0  0  0  0  0  0
  -22.7766  -29.2450   19.8464 H   0  0  0  0  0  0
  -25.1277  -36.1904   25.0816 H   0  0  0  0  0  0
  -21.0028  -28.3316   24.1372 H   0  0  0  0  0  0
  -20.5665  -26.2332   23.3615 H   0  0  0  0  0  0
  -21.6640  -26.7431   22.1202 H   0  0  0  0  0  0
  -19.6879  -25.6319   21.1238 H   0  0  0  0  0  0
  -19.6669  -27.3221   20.6748 H   0  0  0  0  0  0
  -17.4187  -26.6739   21.4029 H   0  0  0  0  0  0
  -18.0308  -26.0107   22.9020 H   0  0  0  0  0  0
  -19.7955  -30.7318   24.2249 H   0  0  0  0  0  0
  -17.5021  -31.6279   24.5186 H   0  0  0  0  0  0
  -15.5363  -30.2985   23.7677 H   0  0  0  0  0  0
  -15.8697  -28.0832   22.7075 H   0  0  0  0  0  0
  -24.5929  -30.7056   25.7786 H   0  0  0  0  0  0
  -24.8893  -32.2912   26.4824 H   0  0  0  0  0  0
  -25.8047  -30.8972   27.0250 H   0  0  0  0  0  0
  -26.2933  -29.6732   24.1245 H   0  0  0  0  0  0
  -27.4030  -29.7269   25.4741 H   0  0  0  0  0  0
  -27.8816  -30.4244   23.9457 H   0  0  0  0  0  0
  -27.2722  -33.3627   26.2037 H   0  0  0  0  0  0
  -28.3912  -32.6820   25.0310 H   0  0  0  0  0  0
  -28.0735  -31.8434   26.5414 H   0  0  0  0  0  0
  -28.2601  -38.0073   24.7528 H   0  0  0  0  0  0
  -28.1058  -36.2610   24.6275 H   0  0  0  0  0  0
  -27.2302  -37.1421   25.8875 H   0  0  0  0  0  0
  -20.9441  -29.8753   21.6798 H   0  0  0  0  0  0
  -26.0151  -38.2833   24.1457 H   0  0  0  0  0  0
  -27.0330  -25.3347   21.5508 H   0  0  0  0  0  0
  -26.2726  -23.1334   21.8692 H   0  0  0  0  0  0
  -27.7384  -22.9002   22.8124 H   0  0  0  0  0  0
  -30.1331  -22.8894   20.5488 H   0  0  0  0  0  0
  -29.0868  -22.7700   19.1289 H   0  0  0  0  0  0
  -26.6418  -21.1433   20.6133 H   0  0  0  0  0  0
  -27.3437  -20.6768   22.1578 H   0  0  0  0  0  0
  -33.0427  -18.9709   18.4193 H   0  0  0  0  0  0
  -33.2731  -19.0262   20.1742 H   0  0  0  0  0  0
  -33.8316  -20.3668   19.1706 H   0  0  0  0  0  0
  -28.8153  -15.5204   21.0077 H   0  0  0  0  0  0
  1 25  1  0  0  0
  1 30  2  0  0  0
  1 83  1  0  0  0
  2  3  1  0  0  0
  2 25  1  0  0  0
  2 86  1  0  0  0
  2 87  1  0  0  0
  3  4  1  0  0  0
  3 88  1  0  0  0
  3 89  1  0  0  0
  4  5  1  0  0  0
  4 90  1  0  0  0
  4 91  1  0  0  0
  5  6  1  0  0  0
  5 26  1  0  0  0
  5 92  1  0  0  0
  6 25  1  0  0  0
  6 93  1  0  0  0
  6 94  1  0  0  0
  7  8  2  0  0  0
  7 26  1  0  0  0
  7 29  1  0  0  0
  8  9  1  0  0  0
  8 22  1  0  0  0
  9 10  1  0  0  0
  9 27  2  0  0  0
 10 11  2  0  0  0
 10 15  1  0  0  0
 11 12  1  0  0  0
 11 95  1  0  0  0
 12 13  2  0  0  0
 12 96  1  0  0  0
 13 14  1  0  0  0
 13 31  1  0  0  0
 14 15  2  0  0  0
 14 97  1  0  0  0
 15 98  1  0  0  0
 16 17  2  0  0  0
 16 21  1  0  0  0
 16 31  1  0  0  0
 17 18  1  0  0  0
 17 99  1  0  0  0
 18 19  2  0  0  0
 18100  1  0  0  0
 19 20  1  0  0  0
 19 24  1  0  0  0
 20 21  2  0  0  0
 20101  1  0  0  0
 21 23  1  0  0  0
 22 28  1  0  0  0
 22 32  2  0  0  0
 26 27  1  0  0  0
 28102  1  0  0  0
 28103  1  0  0  0
 29104  1  0  0  0
 29105  1  0  0  0
 33 34  1  0  0  0
 33 66  1  0  0  0
 33 70  2  0  0  0
 34 36  1  0  0  0
 34 59  1  0  0  0
 34106  1  0  0  0
 35 44  2  0  0  0
 35 45  1  0  0  0
 35 68  1  0  0  0
 36 56  1  0  0  0
 36107  1  0  0  0
 37 39  1  0  0  0
 37 47  1  0  0  0
 37 66  1  0  0  0
 37108  1  0  0  0
 38 43  2  0  0  0
 38 46  1  0  0  0
 38 47  1  0  0  0
 39 64  1  0  0  0
 39 67  2  0  0  0
 40 52  1  0  0  0
 40 53  2  0  0  0
 40 58  1  0  0  0
 41109  1  0  0  0
 41110  1  0  0  0
 41111  1  0  0  0
 41 48  1  0  0  0
 42 43  1  0  0  0
 42 66  1  0  0  0
 42112  1  0  0  0
 42113  1  0  0  0
 43 44  1  0  0  0
 44114  1  0  0  0
 45 46  2  0  0  0
 45115  1  0  0  0
 46116  1  0  0  0
 47117  1  0  0  0
 47118  1  0  0  0
 48 56  1  0  0  0
 48 65  1  0  0  0
 48119  1  0  0  0
 49 50  1  0  0  0
 49 53  1  0  0  0
 49 64  1  0  0  0
 49120  1  0  0  0
 50 51  1  0  0  0
 50121  1  0  0  0
 50122  1  0  0  0
 51 52  1  0  0  0
 51123  1  0  0  0
 51124  1  0  0  0
 52125  1  0  0  0
 52126  1  0  0  0
 53 54  1  0  0  0
 54 55  2  0  0  0
 54127  1  0  0  0
 55 57  1  0  0  0
 55128  1  0  0  0
 56 69  2  0  0  0
 57 58  2  0  0  0
 57129  1  0  0  0
 58130  1  0  0  0
 59 60  1  0  0  0
 59 61  1  0  0  0
 59 62  1  0  0  0
 60131  1  0  0  0
 60132  1  0  0  0
 60133  1  0  0  0
 61134  1  0  0  0
 61135  1  0  0  0
 61136  1  0  0  0
 62137  1  0  0  0
 62138  1  0  0  0
 62139  1  0  0  0
 63 65  1  0  0  0
 63140  1  0  0  0
 63141  1  0  0  0
 63142  1  0  0  0
 64143  1  0  0  0
 65144  1  0  0  0
 68 75  1  0  0  0
 71 72  2  0  0  0
 71 76  1  0  0  0
 71 81  1  0  0  0
 72 82  1  0  0  0
 72 85  1  0  0  0
 73 81  2  0  0  0
 73 83  1  0  0  0
 73 85  1  0  0  0
 74 75  2  0  0  0
 74 77  1  0  0  0
 74 78  1  0  0  0
 75145  1  0  0  0
 76 80  1  0  0  0
 76 84  2  0  0  0
 77 79  1  0  0  0
 77146  1  0  0  0
 77147  1  0  0  0
 78 82  1  0  0  0
 78148  1  0  0  0
 78149  1  0  0  0
 79 82  1  0  0  0
 79150  1  0  0  0
 79151  1  0  0  0
 80152  1  0  0  0
 80153  1  0  0  0
 80154  1  0  0  0
 83155  1  0  0  0
M  ISO  4   1 100  68 101  75 101  83 100
M  END
> <chiral flag>
0

> <version>
0

> <s_m_source_file>
/data/baiqing/PycharmProjects/Reinvent-master-3.2/result/LINK_invent/BTK/process_docking_weight1_custom_product_contain_oxygen_bond_distance_aromatic_linkinvent_7_9_3/rearranged_h_0154.sdf

> <i_m_source_file_index>
79

> <r_mmod_Potential_Energy-OPLS-2005>
320.3759765625

> <r_mmod_Stretch_Energy-OPLS-2005>
123.256942749023

> <r_mmod_Bend_Energy-OPLS-2005>
272.994323730469

> <r_mmod_Torsional_Energy-OPLS-2005>
228.14697265625

> <r_mmod_Improper_Torsional_Energy-OPLS-2005>
4.44801092147827

> <r_mmod_Van_der_Waal_Energy-OPLS-2005>
122.282737731934

> <r_mmod_Electrostatic_Energy-OPLS-2005>
-288.603576660156

> <r_mmod_Solvation_Energy-OPLS-2005>
-245.833084106445

> <b_mmod_Minimization_Converged-OPLS-2005>
0

> <r_mmod_RMS_Derivative-OPLS-2005>
1.60650384426117

$$$$
79
                    3D
 Structure written by MMmdl.
162171  0  0  1  0            999 V2000
  -30.6094  -14.7801   20.4271 C   0  0  0  0  0  0
  -30.4244  -12.4767   19.4729 C   0  0  0  0  0  0
  -29.5103  -12.5185   18.2277 C   0  0  0  0  0  0
  -28.0297  -12.3556   18.6314 C   0  0  0  0  0  0
  -27.6359  -13.2434   19.8413 C   0  0  2  0  0  0
  -28.6819  -13.1962   20.9775 C   0  0  0  0  0  0
  -25.2496  -13.8203   20.5670 C   0  0  0  0  0  0
  -24.1817  -13.0447   20.9198 C   0  0  0  0  0  0
  -24.6420  -11.6926   20.8719 C   0  0  0  0  0  0
  -23.9081  -10.4275   21.0379 C   0  0  0  0  0  0
  -24.3621   -9.4198   21.9170 C   0  0  0  0  0  0
  -23.6294   -8.2241   22.0749 C   0  0  0  0  0  0
  -22.4288   -8.0243   21.3523 C   0  0  0  0  0  0
  -21.9897   -9.0228   20.4652 C   0  0  0  0  0  0
  -22.7233  -10.2114   20.3051 C   0  0  0  0  0  0
  -21.6869   -6.0696   22.5256 C   0  0  0  0  0  0
  -21.4042   -6.5611   23.8183 C   0  0  0  0  0  0
  -21.3657   -5.6776   24.9135 C   0  0  0  0  0  0
  -21.6046   -4.3029   24.7219 C   0  0  0  0  0  0
  -21.8830   -3.8118   23.4334 C   0  0  0  0  0  0
  -21.9206   -4.6924   22.3386 C   0  0  0  0  0  0
  -22.7825  -13.5202   21.1810 C   0  0  0  0  0  0
  -22.1680   -4.2100   21.0973 F   0  0  0  0  0  0
  -21.5606   -3.4531   25.7734 F   0  0  0  0  0  0
  -29.9757  -13.5554   20.3857 N   0  0  0  0  0  0
  -26.2911  -12.9441   20.3222 N   0  0  0  0  0  0
  -25.9354  -11.6565   20.5745 N   0  0  0  0  0  0
  -22.0517  -12.8213   22.0399 N   0  0  0  0  0  0
  -25.4112  -15.1941   20.4061 N   0  0  0  0  0  0
  -31.8116  -14.8209   20.1567 O   0  0  0  0  0  0
  -21.6656   -6.8837   21.4209 O   0  0  0  0  0  0
  -22.3507  -14.5476   20.6592 O   0  0  0  0  0  0
  -24.6274  -31.8567   23.2004 C   0  0  0  0  0  0
  -25.9134  -32.4747   23.8313 C   0  0  1  0  0  0
  -27.2345  -27.2882   20.0934 C   0  0  0  0  0  0
  -25.5954  -33.8556   24.2211 N   0  0  0  0  0  0
  -23.4212  -30.4747   21.5466 C   0  0  2  0  0  0
  -24.8660  -28.9114   20.1238 C   0  0  0  0  0  0
  -22.7471  -29.4624   22.4996 C   0  0  0  0  0  0
  -18.0287  -28.1426   22.8471 C   0  0  0  0  0  0
  -24.1501  -36.7263   23.2623 C   0  0  0  0  0  0
  -25.9672  -30.7659   21.3838 C   0  0  0  0  0  0
  -26.0402  -29.3943   20.7152 C   0  0  0  0  0  0
  -27.2229  -28.5926   20.6887 C   0  0  0  0  0  0
  -26.0344  -26.8614   19.4853 C   0  0  0  0  0  0
  -24.8651  -27.6496   19.5057 C   0  0  0  0  0  0
  -23.6381  -29.7945   20.1699 C   0  0  0  0  0  0
  -25.4142  -36.3034   24.0281 C   0  0  1  0  0  0
  -20.5867  -28.3741   23.1278 C   0  0  2  0  0  0
  -20.6805  -26.9485   22.5373 C   0  0  0  0  0  0
  -19.5798  -26.6430   21.5181 C   0  0  0  0  0  0
  -18.1963  -26.7969   22.1595 C   0  0  0  0  0  0
  -19.1530  -28.8908   23.2861 C   0  0  0  0  0  0
  -18.9451  -30.1496   23.8900 C   0  0  0  0  0  0
  -17.6453  -30.6627   24.0574 C   0  0  0  0  0  0
  -25.9081  -34.9423   23.5034 C   0  0  0  0  0  0
  -16.5352  -29.9112   23.6349 C   0  0  0  0  0  0
  -16.7265  -28.6524   23.0360 C   0  0  0  0  0  0
  -26.4487  -31.6599   25.0723 C   0  0  0  0  0  0
  -25.3693  -31.3814   26.1430 C   0  0  0  0  0  0
  -27.0314  -30.2981   24.6276 C   0  0  0  0  0  0
  -27.6011  -32.4382   25.7503 C   0  0  0  0  0  0
  -27.5583  -37.1799   24.8460 C   0  0  0  0  0  0
  -21.4190  -29.3075   22.3691 N   0  0  0  0  0  0
  -26.4314  -37.3748   23.9375 N   0  0  0  0  0  0
  -24.6906  -31.0516   22.0987 N   0  0  0  0  0  0
  -23.4161  -28.8173   23.3107 O   0  0  0  0  0  0
  -28.3760  -26.4638   20.1432 O   0  0  0  0  0  0
  -26.5625  -34.8888   22.4580 O   0  0  0  0  0  0
  -23.5436  -32.1387   23.7328 O   0  0  0  0  0  0
  -30.7651  -20.0927   19.3361 C   0  0  0  0  0  0
  -29.3074  -18.5357   20.5266 C   0  0  0  0  0  0
  -31.3140  -17.6984   19.4505 C   0  0  0  0  0  0
  -29.5895  -19.9058   20.0913 C   0  0  0  0  0  0
  -31.6100  -19.0158   19.0265 C   0  0  0  0  0  0
  -30.1575  -17.3814   20.2123 C   0  0  0  0  0  0
  -28.6762  -21.1377   20.2397 C   0  0  0  0  0  0
  -30.0986  -23.7394   22.1105 C   0  0  0  0  0  0
  -28.6036  -24.1245   22.0240 C   0  0  0  0  0  0
  -30.3812  -22.8394   20.8972 C   0  0  0  0  0  0
  -28.1917  -23.7628   20.5956 C   0  0  2  0  0  0
  -28.4586  -25.0504   19.6407 C   0  0  0  0  0  0
  -29.0408  -22.4816   20.4084 N   0  0  0  0  0  0
  -32.7579  -19.2635   18.2690 N   0  0  0  0  0  0
  -29.8583  -15.9505   20.5778 N   0  0  0  0  0  0
  -27.3717  -20.8955   20.1643 N   0  3  0  0  0  0
  -31.4654  -12.5993   19.1705 H   0  0  0  0  0  0
  -30.3663  -11.5054   19.9674 H   0  0  0  0  0  0
  -29.7957  -11.7439   17.5127 H   0  0  0  0  0  0
  -29.6458  -13.4690   17.7063 H   0  0  0  0  0  0
  -27.8605  -11.3044   18.8711 H   0  0  0  0  0  0
  -27.3873  -12.5741   17.7769 H   0  0  0  0  0  0
  -27.6210  -14.2634   19.4576 H   0  0  0  0  0  0
  -28.7341  -12.2071   21.4382 H   0  0  0  0  0  0
  -28.4193  -13.8925   21.7773 H   0  0  0  0  0  0
  -25.2770   -9.5681   22.4745 H   0  0  0  0  0  0
  -23.9994   -7.4641   22.7499 H   0  0  0  0  0  0
  -21.0812   -8.8748   19.9000 H   0  0  0  0  0  0
  -22.3670  -10.9629   19.6169 H   0  0  0  0  0  0
  -21.2080   -7.6133   23.9656 H   0  0  0  0  0  0
  -21.1463   -6.0520   25.9037 H   0  0  0  0  0  0
  -22.0629   -2.7574   23.2859 H   0  0  0  0  0  0
  -22.4155  -11.9929   22.4845 H   0  0  0  0  0  0
  -21.1107  -13.1215   22.2571 H   0  0  0  0  0  0
  -24.6324  -15.8351   20.5050 H   0  0  0  0  0  0
  -26.2436  -15.6352   20.0361 H   0  0  0  0  0  0
  -26.7198  -32.5352   23.1041 H   0  0  0  0  0  0
  -25.0173  -33.9723   25.0394 H   0  0  0  0  0  0
  -22.7209  -31.2995   21.3983 H   0  0  0  0  0  0
  -23.3755  -35.9612   23.3309 H   0  0  0  0  0  0
  -24.3552  -36.8875   22.2033 H   0  0  0  0  0  0
  -23.7303  -37.6475   23.6660 H   0  0  0  0  0  0
  -26.1197  -31.5349   20.6272 H   0  0  0  0  0  0
  -26.8411  -30.8000   22.0228 H   0  0  0  0  0  0
  -28.1284  -28.9634   21.1508 H   0  0  0  0  0  0
  -25.9703  -25.9033   18.9961 H   0  0  0  0  0  0
  -23.9591  -27.2672   19.0574 H   0  0  0  0  0  0
  -23.7766  -30.5656   19.4143 H   0  0  0  0  0  0
  -22.7541  -29.2332   19.8597 H   0  0  0  0  0  0
  -25.1351  -36.1847   25.0785 H   0  0  0  0  0  0
  -20.9940  -28.3336   24.1411 H   0  0  0  0  0  0
  -20.5782  -26.2355   23.3560 H   0  0  0  0  0  0
  -21.6659  -26.7605   22.1124 H   0  0  0  0  0  0
  -19.6980  -25.6329   21.1234 H   0  0  0  0  0  0
  -19.6716  -27.3215   20.6692 H   0  0  0  0  0  0
  -17.4219  -26.6675   21.4011 H   0  0  0  0  0  0
  -18.0429  -26.0111   22.9011 H   0  0  0  0  0  0
  -19.7911  -30.7307   24.2273 H   0  0  0  0  0  0
  -17.5005  -31.6296   24.5188 H   0  0  0  0  0  0
  -15.5351  -30.3020   23.7698 H   0  0  0  0  0  0
  -15.8648  -28.0846   22.7108 H   0  0  0  0  0  0
  -24.5842  -30.7188   25.7781 H   0  0  0  0  0  0
  -24.8897  -32.3018   26.4799 H   0  0  0  0  0  0
  -25.7966  -30.9022   27.0254 H   0  0  0  0  0  0
  -26.2907  -29.6759   24.1241 H   0  0  0  0  0  0
  -27.3870  -29.7241   25.4858 H   0  0  0  0  0  0
  -27.8862  -30.4199   23.9611 H   0  0  0  0  0  0
  -27.2575  -33.3707   26.2008 H   0  0  0  0  0  0
  -28.3848  -32.6934   25.0356 H   0  0  0  0  0  0
  -28.0648  -31.8568   26.5483 H   0  0  0  0  0  0
  -28.2600  -38.0093   24.7471 H   0  0  0  0  0  0
  -28.1072  -36.2612   24.6348 H   0  0  0  0  0  0
  -27.2257  -37.1516   25.8850 H   0  0  0  0  0  0
  -20.9444  -29.8689   21.6756 H   0  0  0  0  0  0
  -26.0154  -38.2805   24.1377 H   0  0  0  0  0  0
  -31.0139  -21.0757   18.9628 H   0  0  0  0  0  0
  -28.3980  -18.3717   21.0876 H   0  0  0  0  0  0
  -31.9947  -16.9248   19.1376 H   0  0  0  0  0  0
  -30.3131  -23.2060   23.0390 H   0  0  0  0  0  0
  -30.7291  -24.6278   22.0804 H   0  0  0  0  0  0
  -28.4271  -25.1705   22.2776 H   0  0  0  0  0  0
  -28.0141  -23.5335   22.7227 H   0  0  0  0  0  0
  -31.0016  -21.9884   21.1812 H   0  0  0  0  0  0
  -30.9165  -23.3916   20.1245 H   0  0  0  0  0  0
  -27.1241  -23.5440   20.5693 H   0  0  0  0  0  0
  -27.8563  -24.9489   18.7385 H   0  0  0  0  0  0
  -29.4771  -24.9681   19.2599 H   0  0  0  0  0  0
  -33.2210  -18.4670   17.8406 H   0  0  0  0  0  0
  -32.7683  -20.0867   17.6755 H   0  0  0  0  0  0
  -28.9147  -15.7893   20.8979 H   0  0  0  0  0  0
  -27.0673  -19.9433   20.0493 H   0  0  0  0  0  0
  -26.6703  -21.6110   20.2402 H   0  0  0  0  0  0
  1 25  1  0  0  0
  1 30  2  0  0  0
  1 85  1  0  0  0
  2  3  1  0  0  0
  2 25  1  0  0  0
  2 87  1  0  0  0
  2 88  1  0  0  0
  3  4  1  0  0  0
  3 89  1  0  0  0
  3 90  1  0  0  0
  4  5  1  0  0  0
  4 91  1  0  0  0
  4 92  1  0  0  0
  5  6  1  0  0  0
  5 26  1  0  0  0
  5 93  1  0  0  0
  6 25  1  0  0  0
  6 94  1  0  0  0
  6 95  1  0  0  0
  7  8  2  0  0  0
  7 26  1  0  0  0
  7 29  1  0  0  0
  8  9  1  0  0  0
  8 22  1  0  0  0
  9 10  1  0  0  0
  9 27  2  0  0  0
 10 11  2  0  0  0
 10 15  1  0  0  0
 11 12  1  0  0  0
 11 96  1  0  0  0
 12 13  2  0  0  0
 12 97  1  0  0  0
 13 14  1  0  0  0
 13 31  1  0  0  0
 14 15  2  0  0  0
 14 98  1  0  0  0
 15 99  1  0  0  0
 16 17  2  0  0  0
 16 21  1  0  0  0
 16 31  1  0  0  0
 17 18  1  0  0  0
 17100  1  0  0  0
 18 19  2  0  0  0
 18101  1  0  0  0
 19 20  1  0  0  0
 19 24  1  0  0  0
 20 21  2  0  0  0
 20102  1  0  0  0
 21 23  1  0  0  0
 22 28  1  0  0  0
 22 32  2  0  0  0
 26 27  1  0  0  0
 28103  1  0  0  0
 28104  1  0  0  0
 29105  1  0  0  0
 29106  1  0  0  0
 33 34  1  0  0  0
 33 66  1  0  0  0
 33 70  2  0  0  0
 34 36  1  0  0  0
 34 59  1  0  0  0
 34107  1  0  0  0
 35 44  2  0  0  0
 35 45  1  0  0  0
 35 68  1  0  0  0
 36 56  1  0  0  0
 36108  1  0  0  0
 37 39  1  0  0  0
 37 47  1  0  0  0
 37 66  1  0  0  0
 37109  1  0  0  0
 38 43  2  0  0  0
 38 46  1  0  0  0
 38 47  1  0  0  0
 39 64  1  0  0  0
 39 67  2  0  0  0
 40 52  1  0  0  0
 40 53  2  0  0  0
 40 58  1  0  0  0
 41110  1  0  0  0
 41111  1  0  0  0
 41112  1  0  0  0
 41 48  1  0  0  0
 42 43  1  0  0  0
 42 66  1  0  0  0
 42113  1  0  0  0
 42114  1  0  0  0
 43 44  1  0  0  0
 44115  1  0  0  0
 45 46  2  0  0  0
 45116  1  0  0  0
 46117  1  0  0  0
 47118  1  0  0  0
 47119  1  0  0  0
 48 56  1  0  0  0
 48 65  1  0  0  0
 48120  1  0  0  0
 49 50  1  0  0  0
 49 53  1  0  0  0
 49 64  1  0  0  0
 49121  1  0  0  0
 50 51  1  0  0  0
 50122  1  0  0  0
 50123  1  0  0  0
 51 52  1  0  0  0
 51124  1  0  0  0
 51125  1  0  0  0
 52126  1  0  0  0
 52127  1  0  0  0
 53 54  1  0  0  0
 54 55  2  0  0  0
 54128  1  0  0  0
 55 57  1  0  0  0
 55129  1  0  0  0
 56 69  2  0  0  0
 57 58  2  0  0  0
 57130  1  0  0  0
 58131  1  0  0  0
 59 60  1  0  0  0
 59 61  1  0  0  0
 59 62  1  0  0  0
 60132  1  0  0  0
 60133  1  0  0  0
 60134  1  0  0  0
 61135  1  0  0  0
 61136  1  0  0  0
 61137  1  0  0  0
 62138  1  0  0  0
 62139  1  0  0  0
 62140  1  0  0  0
 63 65  1  0  0  0
 63141  1  0  0  0
 63142  1  0  0  0
 63143  1  0  0  0
 64144  1  0  0  0
 65145  1  0  0  0
 68 82  1  0  0  0
 71 74  2  0  0  0
 71 75  1  0  0  0
 71146  1  0  0  0
 72 74  1  0  0  0
 72 76  2  0  0  0
 72147  1  0  0  0
 73 75  2  0  0  0
 73 76  1  0  0  0
 73148  1  0  0  0
 74 77  1  0  0  0
 75 84  1  0  0  0
 76 85  1  0  0  0
 77 83  1  0  0  0
 77 86  2  0  0  0
 78 79  1  0  0  0
 78 80  1  0  0  0
 78149  1  0  0  0
 78150  1  0  0  0
 79 81  1  0  0  0
 79151  1  0  0  0
 79152  1  0  0  0
 80 83  1  0  0  0
 80153  1  0  0  0
 80154  1  0  0  0
 81 82  1  0  0  0
 81 83  1  0  0  0
 81155  1  0  0  0
 82156  1  0  0  0
 82157  1  0  0  0
 84158  1  0  0  0
 84159  1  0  0  0
 85160  1  0  0  0
 86161  1  0  0  0
 86162  1  0  0  0
M  CHG  1  86   1
M  ISO  4   1 100  68 101  82 101  85 100
M  END
> <chiral flag>
0

> <version>
0

> <s_m_source_file>
/data/baiqing/PycharmProjects/Reinvent-master-3.2/result/LINK_invent/BTK/process_docking_weight1_custom_product_contain_oxygen_bond_distance_aromatic_linkinvent_7_9_3/rearranged_h_0154.sdf

> <i_m_source_file_index>
80

> <r_mmod_Potential_Energy-OPLS-2005>
94.3344345092773

> <r_mmod_Stretch_Energy-OPLS-2005>
136.25178527832

> <r_mmod_Bend_Energy-OPLS-2005>
229.474822998047

> <r_mmod_Torsional_Energy-OPLS-2005>
295.032409667969

> <r_mmod_Improper_Torsional_Energy-OPLS-2005>
9.65689086914062

> <r_mmod_Van_der_Waal_Energy-OPLS-2005>
144.053482055664

> <r_mmod_Electrostatic_Energy-OPLS-2005>
-389.770385742188

> <r_mmod_Solvation_Energy-OPLS-2005>
-414.670227050781

> <b_mmod_Minimization_Converged-OPLS-2005>
0

> <r_mmod_RMS_Derivative-OPLS-2005>
5.64206075668335

$$$$
80
                    3D
 Structure written by MMmdl.
161172  0  0  1  0            999 V2000
  -30.6598  -14.5052   20.5720 C   0  0  0  0  0  0
  -30.4371  -12.3222   19.4274 C   0  0  0  0  0  0
  -29.5018  -12.5049   18.2111 C   0  0  0  0  0  0
  -28.0198  -12.3646   18.6197 C   0  0  0  0  0  0
  -27.6632  -13.1994   19.8789 C   0  0  2  0  0  0
  -28.7071  -12.9643   20.9939 C   0  0  0  0  0  0
  -25.2595  -13.8131   20.5687 C   0  0  0  0  0  0
  -24.1843  -13.0423   20.9185 C   0  0  0  0  0  0
  -24.6393  -11.6888   20.8748 C   0  0  0  0  0  0
  -23.9055  -10.4279   21.0410 C   0  0  0  0  0  0
  -24.3607   -9.4196   21.9188 C   0  0  0  0  0  0
  -23.6279   -8.2234   22.0759 C   0  0  0  0  0  0
  -22.4261   -8.0274   21.3545 C   0  0  0  0  0  0
  -21.9897   -9.0251   20.4650 C   0  0  0  0  0  0
  -22.7227  -10.2128   20.3057 C   0  0  0  0  0  0
  -21.6848   -6.0732   22.5278 C   0  0  0  0  0  0
  -21.4015   -6.5639   23.8212 C   0  0  0  0  0  0
  -21.3659   -5.6793   24.9175 C   0  0  0  0  0  0
  -21.6042   -4.3055   24.7227 C   0  0  0  0  0  0
  -21.8821   -3.8143   23.4351 C   0  0  0  0  0  0
  -21.9192   -4.6959   22.3405 C   0  0  0  0  0  0
  -22.7865  -13.5232   21.1843 C   0  0  0  0  0  0
  -22.1660   -4.2146   21.0984 F   0  0  0  0  0  0
  -21.5627   -3.4539   25.7738 F   0  0  0  0  0  0
  -30.0304  -13.3018   20.4480 N   0  0  0  0  0  0
  -26.3030  -12.9291   20.3376 N   0  0  0  0  0  0
  -25.9318  -11.6462   20.5780 N   0  0  0  0  0  0
  -22.0498  -12.8232   22.0395 N   0  0  0  0  0  0
  -25.4307  -15.1852   20.4092 N   0  0  0  0  0  0
  -31.7697  -14.7139   20.0720 O   0  0  0  0  0  0
  -21.6628   -6.8870   21.4239 O   0  0  0  0  0  0
  -22.3563  -14.5542   20.6687 O   0  0  0  0  0  0
  -24.6153  -31.8663   23.2065 C   0  0  0  0  0  0
  -25.9043  -32.4814   23.8372 C   0  0  1  0  0  0
  -27.2438  -27.4201   20.0949 C   0  0  0  0  0  0
  -25.5897  -33.8612   24.2313 N   0  0  0  0  0  0
  -23.4036  -30.4864   21.5474 C   0  0  2  0  0  0
  -24.8498  -28.9428   20.1170 C   0  0  0  0  0  0
  -22.7411  -29.4644   22.4991 C   0  0  0  0  0  0
  -18.0273  -28.1370   22.8485 C   0  0  0  0  0  0
  -24.1487  -36.7316   23.2636 C   0  0  0  0  0  0
  -25.9315  -30.8270   21.3592 C   0  0  0  0  0  0
  -26.0080  -29.4579   20.7096 C   0  0  0  0  0  0
  -27.2027  -28.7031   20.6930 C   0  0  0  0  0  0
  -26.0599  -26.9099   19.5166 C   0  0  0  0  0  0
  -24.8706  -27.6685   19.5201 C   0  0  0  0  0  0
  -23.6123  -29.8124   20.1640 C   0  0  0  0  0  0
  -25.4110  -36.3108   24.0333 C   0  0  1  0  0  0
  -20.5860  -28.3659   23.1321 C   0  0  2  0  0  0
  -20.6765  -26.9396   22.5418 C   0  0  0  0  0  0
  -19.5747  -26.6378   21.5210 C   0  0  0  0  0  0
  -18.1924  -26.7920   22.1611 C   0  0  0  0  0  0
  -19.1521  -28.8829   23.2898 C   0  0  0  0  0  0
  -18.9448  -30.1439   23.8904 C   0  0  0  0  0  0
  -17.6448  -30.6579   24.0557 C   0  0  0  0  0  0
  -25.9038  -34.9473   23.5125 C   0  0  0  0  0  0
  -16.5341  -29.9077   23.6314 C   0  0  0  0  0  0
  -16.7264  -28.6496   23.0336 C   0  0  0  0  0  0
  -26.4471  -31.6595   25.0705 C   0  0  0  0  0  0
  -25.3736  -31.3709   26.1459 C   0  0  0  0  0  0
  -27.0301  -30.3036   24.6081 C   0  0  0  0  0  0
  -27.6050  -32.4311   25.7463 C   0  0  0  0  0  0
  -27.5584  -37.1811   24.8463 C   0  0  0  0  0  0
  -21.4140  -29.3025   22.3728 N   0  0  0  0  0  0
  -26.4295  -37.3794   23.9412 N   0  0  0  0  0  0
  -24.6683  -31.0752   22.0965 N   0  0  0  0  0  0
  -23.4182  -28.8206   23.3048 O   0  0  0  0  0  0
  -28.4510  -26.7452   20.1089 O   0  0  0  0  0  0
  -26.5600  -34.8926   22.4684 O   0  0  0  0  0  0
  -23.5343  -32.1427   23.7455 O   0  0  0  0  0  0
  -29.2172  -19.5059   19.2673 C   0  0  0  0  0  0
  -29.4066  -19.4586   20.6181 C   0  0  0  0  0  0
  -28.7520  -21.6924   19.7362 C   0  0  0  0  0  0
  -29.4105  -18.2972   18.4086 C   0  0  0  0  0  0
  -29.7603  -18.1959   21.3790 C   0  0  0  0  0  0
  -29.7522  -25.5159   18.5603 C   0  0  0  0  0  0
  -28.0073  -23.5853   18.1831 C   0  0  0  0  0  0
  -28.4171  -24.1779   20.4234 C   0  0  0  0  0  0
  -29.2439  -17.0038   19.2461 C   0  0  0  0  0  0
  -28.3749  -25.0537   18.1577 C   0  0  1  0  0  0
  -28.6287  -25.4199   19.5746 C   0  0  1  0  0  0
  -29.9559  -15.7065   21.2635 C   0  0  0  0  0  0
  -28.8414  -20.7649   18.7730 N   0  0  0  0  0  0
  -28.4074  -23.0322   19.4902 N   0  0  0  0  0  0
  -30.0518  -17.0017   20.5085 N   0  3  2  0  0  0
  -29.1339  -21.0372   21.3409 S   0  0  0  0  0  0
  -31.4789  -12.4396   19.1247 H   0  0  0  0  0  0
  -30.3561  -11.3092   19.8255 H   0  0  0  0  0  0
  -29.7443  -11.7761   17.4367 H   0  0  0  0  0  0
  -29.6667  -13.4872   17.7666 H   0  0  0  0  0  0
  -27.8288  -11.3085   18.8129 H   0  0  0  0  0  0
  -27.3709  -12.6417   17.7884 H   0  0  0  0  0  0
  -27.7082  -14.2478   19.5875 H   0  0  0  0  0  0
  -28.6963  -11.9163   21.2970 H   0  0  0  0  0  0
  -28.4651  -13.5116   21.9042 H   0  0  0  0  0  0
  -25.2756   -9.5668   22.4758 H   0  0  0  0  0  0
  -23.9988   -7.4625   22.7482 H   0  0  0  0  0  0
  -21.0827   -8.8774   19.8955 H   0  0  0  0  0  0
  -22.3691  -10.9668   19.6167 H   0  0  0  0  0  0
  -21.2008   -7.6148   23.9713 H   0  0  0  0  0  0
  -21.1479   -6.0524   25.9077 H   0  0  0  0  0  0
  -22.0600   -2.7607   23.2851 H   0  0  0  0  0  0
  -22.4101  -11.9879   22.4771 H   0  0  0  0  0  0
  -21.1129  -13.1278   22.2621 H   0  0  0  0  0  0
  -24.6557  -15.8321   20.5082 H   0  0  0  0  0  0
  -26.2654  -15.6216   20.0460 H   0  0  0  0  0  0
  -26.7114  -32.5523   23.1137 H   0  0  0  0  0  0
  -25.0051  -33.9772   25.0461 H   0  0  0  0  0  0
  -22.6918  -31.3023   21.4057 H   0  0  0  0  0  0
  -23.3752  -35.9643   23.3280 H   0  0  0  0  0  0
  -24.3582  -36.8951   22.2054 H   0  0  0  0  0  0
  -23.7237  -37.6508   23.6671 H   0  0  0  0  0  0
  -26.0426  -31.5900   20.5874 H   0  0  0  0  0  0
  -26.8204  -30.8845   21.9761 H   0  0  0  0  0  0
  -28.1010  -29.1031   21.1429 H   0  0  0  0  0  0
  -26.0358  -25.9297   19.0653 H   0  0  0  0  0  0
  -23.9755  -27.2634   19.0692 H   0  0  0  0  0  0
  -23.7225  -30.5849   19.4017 H   0  0  0  0  0  0
  -22.7359  -29.2328   19.8686 H   0  0  0  0  0  0
  -25.1283  -36.1965   25.0825 H   0  0  0  0  0  0
  -20.9943  -28.3230   24.1446 H   0  0  0  0  0  0
  -20.5676  -26.2261   23.3600 H   0  0  0  0  0  0
  -21.6637  -26.7448   22.1208 H   0  0  0  0  0  0
  -19.6906  -25.6296   21.1223 H   0  0  0  0  0  0
  -19.6687  -27.3194   20.6744 H   0  0  0  0  0  0
  -17.4197  -26.6669   21.4009 H   0  0  0  0  0  0
  -18.0318  -26.0065   22.9005 H   0  0  0  0  0  0
  -19.7927  -30.7246   24.2276 H   0  0  0  0  0  0
  -17.5009  -31.6258   24.5159 H   0  0  0  0  0  0
  -15.5342  -30.2980   23.7636 H   0  0  0  0  0  0
  -15.8665  -28.0819   22.7037 H   0  0  0  0  0  0
  -24.5888  -30.7083   25.7795 H   0  0  0  0  0  0
  -24.8954  -32.2872   26.4930 H   0  0  0  0  0  0
  -25.8087  -30.8851   27.0202 H   0  0  0  0  0  0
  -26.2836  -29.6792   24.1160 H   0  0  0  0  0  0
  -27.4101  -29.7280   25.4532 H   0  0  0  0  0  0
  -27.8660  -30.4354   23.9207 H   0  0  0  0  0  0
  -27.2683  -33.3624   26.2035 H   0  0  0  0  0  0
  -28.3864  -32.6849   25.0286 H   0  0  0  0  0  0
  -28.0716  -31.8436   26.5382 H   0  0  0  0  0  0
  -28.2596  -38.0114   24.7519 H   0  0  0  0  0  0
  -28.1083  -36.2646   24.6273 H   0  0  0  0  0  0
  -27.2302  -37.1437   25.8865 H   0  0  0  0  0  0
  -20.9301  -29.8736   21.6941 H   0  0  0  0  0  0
  -26.0180  -38.2866   24.1417 H   0  0  0  0  0  0
  -30.4023  -18.3198   17.9564 H   0  0  0  0  0  0
  -28.6988  -18.2926   17.5826 H   0  0  0  0  0  0
  -28.9234  -17.9544   22.0352 H   0  0  0  0  0  0
  -30.6137  -18.3784   22.0324 H   0  0  0  0  0  0
  -30.0598  -26.5038   18.2246 H   0  0  0  0  0  0
  -30.5460  -24.7724   18.6046 H   0  0  0  0  0  0
  -28.5032  -23.0695   17.3594 H   0  0  0  0  0  0
  -26.9300  -23.4766   18.0484 H   0  0  0  0  0  0
  -27.4675  -24.2456   20.9552 H   0  0  0  0  0  0
  -29.2207  -24.0893   21.1559 H   0  0  0  0  0  0
  -29.4984  -16.1483   18.6199 H   0  0  0  0  0  0
  -28.1920  -16.8887   19.5102 H   0  0  0  0  0  0
  -27.7895  -25.7094   17.5165 H   0  0  0  0  0  0
  -28.9021  -15.5254   21.4599 H   0  0  0  0  0  0
  -30.4313  -15.8229   22.2377 H   0  0  0  0  0  0
  -31.0209  -17.0744   20.2308 H   0  0  0  0  0  0
  1 25  1  0  0  0
  1 30  2  0  0  0
  1 82  1  0  0  0
  2  3  1  0  0  0
  2 25  1  0  0  0
  2 87  1  0  0  0
  2 88  1  0  0  0
  3  4  1  0  0  0
  3 89  1  0  0  0
  3 90  1  0  0  0
  4  5  1  0  0  0
  4 91  1  0  0  0
  4 92  1  0  0  0
  5  6  1  0  0  0
  5 26  1  0  0  0
  5 93  1  0  0  0
  6 25  1  0  0  0
  6 94  1  0  0  0
  6 95  1  0  0  0
  7  8  2  0  0  0
  7 26  1  0  0  0
  7 29  1  0  0  0
  8  9  1  0  0  0
  8 22  1  0  0  0
  9 10  1  0  0  0
  9 27  2  0  0  0
 10 11  2  0  0  0
 10 15  1  0  0  0
 11 12  1  0  0  0
 11 96  1  0  0  0
 12 13  2  0  0  0
 12 97  1  0  0  0
 13 14  1  0  0  0
 13 31  1  0  0  0
 14 15  2  0  0  0
 14 98  1  0  0  0
 15 99  1  0  0  0
 16 17  2  0  0  0
 16 21  1  0  0  0
 16 31  1  0  0  0
 17 18  1  0  0  0
 17100  1  0  0  0
 18 19  2  0  0  0
 18101  1  0  0  0
 19 20  1  0  0  0
 19 24  1  0  0  0
 20 21  2  0  0  0
 20102  1  0  0  0
 21 23  1  0  0  0
 22 28  1  0  0  0
 22 32  2  0  0  0
 26 27  1  0  0  0
 28103  1  0  0  0
 28104  1  0  0  0
 29105  1  0  0  0
 29106  1  0  0  0
 33 34  1  0  0  0
 33 66  1  0  0  0
 33 70  2  0  0  0
 34 36  1  0  0  0
 34 59  1  0  0  0
 34107  1  0  0  0
 35 44  2  0  0  0
 35 45  1  0  0  0
 35 68  1  0  0  0
 36 56  1  0  0  0
 36108  1  0  0  0
 37 39  1  0  0  0
 37 47  1  0  0  0
 37 66  1  0  0  0
 37109  1  0  0  0
 38 43  2  0  0  0
 38 46  1  0  0  0
 38 47  1  0  0  0
 39 64  1  0  0  0
 39 67  2  0  0  0
 40 52  1  0  0  0
 40 53  2  0  0  0
 40 58  1  0  0  0
 41110  1  0  0  0
 41111  1  0  0  0
 41112  1  0  0  0
 41 48  1  0  0  0
 42 43  1  0  0  0
 42 66  1  0  0  0
 42113  1  0  0  0
 42114  1  0  0  0
 43 44  1  0  0  0
 44115  1  0  0  0
 45 46  2  0  0  0
 45116  1  0  0  0
 46117  1  0  0  0
 47118  1  0  0  0
 47119  1  0  0  0
 48 56  1  0  0  0
 48 65  1  0  0  0
 48120  1  0  0  0
 49 50  1  0  0  0
 49 53  1  0  0  0
 49 64  1  0  0  0
 49121  1  0  0  0
 50 51  1  0  0  0
 50122  1  0  0  0
 50123  1  0  0  0
 51 52  1  0  0  0
 51124  1  0  0  0
 51125  1  0  0  0
 52126  1  0  0  0
 52127  1  0  0  0
 53 54  1  0  0  0
 54 55  2  0  0  0
 54128  1  0  0  0
 55 57  1  0  0  0
 55129  1  0  0  0
 56 69  2  0  0  0
 57 58  2  0  0  0
 57130  1  0  0  0
 58131  1  0  0  0
 59 60  1  0  0  0
 59 61  1  0  0  0
 59 62  1  0  0  0
 60132  1  0  0  0
 60133  1  0  0  0
 60134  1  0  0  0
 61135  1  0  0  0
 61136  1  0  0  0
 61137  1  0  0  0
 62138  1  0  0  0
 62139  1  0  0  0
 62140  1  0  0  0
 63 65  1  0  0  0
 63141  1  0  0  0
 63142  1  0  0  0
 63143  1  0  0  0
 64144  1  0  0  0
 65145  1  0  0  0
 68 81  1  0  0  0
 71 72  2  0  0  0
 71 74  1  0  0  0
 71 83  1  0  0  0
 72 75  1  0  0  0
 72 86  1  0  0  0
 73 83  2  0  0  0
 73 84  1  0  0  0
 73 86  1  0  0  0
 74 79  1  0  0  0
 74146  1  0  0  0
 74147  1  0  0  0
 75 85  1  0  0  0
 75148  1  0  0  0
 75149  1  0  0  0
 76 81  1  0  0  0
 76150  1  0  0  0
 76151  1  0  0  0
 76 80  1  0  0  0
 77 80  1  0  0  0
 77 84  1  0  0  0
 77152  1  0  0  0
 77153  1  0  0  0
 78 81  1  0  0  0
 78 84  1  0  0  0
 78154  1  0  0  0
 78155  1  0  0  0
 79 85  1  0  0  0
 79156  1  0  0  0
 79157  1  0  0  0
 80 81  1  0  0  0
 80158  1  0  0  0
 82159  1  0  0  0
 82160  1  0  0  0
 82 85  1  0  0  0
 85161  1  0  0  0
M  CHG  1  85   1
M  ISO  4   1 100  68 101  81 101  82 100
M  END
> <chiral flag>
0

> <version>
0

> <s_m_source_file>
/data/baiqing/PycharmProjects/Reinvent-master-3.2/result/LINK_invent/BTK/process_docking_weight1_custom_product_contain_oxygen_bond_distance_aromatic_linkinvent_7_9_3/rearranged_h_0154.sdf

> <i_m_source_file_index>
81

> <r_mmod_Potential_Energy-OPLS-2005>
-217.811386108398

> <r_mmod_Stretch_Energy-OPLS-2005>
44.0185394287109

> <r_mmod_Bend_Energy-OPLS-2005>
180.654281616211

> <r_mmod_Torsional_Energy-OPLS-2005>
270.623474121094

> <r_mmod_Improper_Torsional_Energy-OPLS-2005>
2.70369362831116

> <r_mmod_Van_der_Waal_Energy-OPLS-2005>
123.584976196289

> <r_mmod_Electrostatic_Energy-OPLS-2005>
-388.632843017578

> <r_mmod_Solvation_Energy-OPLS-2005>
-466.089019775391

> <b_mmod_Minimization_Converged-OPLS-2005>
0

> <r_mmod_RMS_Derivative-OPLS-2005>
0.933975100517273

$$$$
81
                    3D
 Structure written by MMmdl.
146154  0  0  1  0            999 V2000
  -30.4215  -15.3219   20.3561 C   0  0  0  0  0  0
  -30.4359  -12.8441   19.5428 C   0  0  0  0  0  0
  -29.5438  -12.5897   18.3011 C   0  0  0  0  0  0
  -28.0922  -12.3062   18.7232 C   0  0  0  0  0  0
  -27.6100  -13.2842   19.8231 C   0  0  2  0  0  0
  -28.6371  -13.4838   20.9591 C   0  0  0  0  0  0
  -25.2375  -13.8265   20.5746 C   0  0  0  0  0  0
  -24.1737  -13.0444   20.9263 C   0  0  0  0  0  0
  -24.6407  -11.6946   20.8761 C   0  0  0  0  0  0
  -23.9104  -10.4300   21.0401 C   0  0  0  0  0  0
  -24.3645   -9.4211   21.9178 C   0  0  0  0  0  0
  -23.6313   -8.2249   22.0751 C   0  0  0  0  0  0
  -22.4293   -8.0289   21.3544 C   0  0  0  0  0  0
  -21.9934   -9.0266   20.4645 C   0  0  0  0  0  0
  -22.7271  -10.2142   20.3052 C   0  0  0  0  0  0
  -21.6860   -6.0742   22.5277 C   0  0  0  0  0  0
  -21.4021   -6.5641   23.8210 C   0  0  0  0  0  0
  -21.3660   -5.6791   24.9169 C   0  0  0  0  0  0
  -21.6048   -4.3054   24.7219 C   0  0  0  0  0  0
  -21.8817   -3.8148   23.4338 C   0  0  0  0  0  0
  -21.9197   -4.6969   22.3398 C   0  0  0  0  0  0
  -22.7750  -13.5191   21.1903 C   0  0  0  0  0  0
  -22.1659   -4.2155   21.0975 F   0  0  0  0  0  0
  -21.5628   -3.4536   25.7729 F   0  0  0  0  0  0
  -29.8652  -14.0035   20.3335 N   0  0  0  0  0  0
  -26.2805  -12.9556   20.3204 N   0  0  0  0  0  0
  -25.9346  -11.6655   20.5709 N   0  0  0  0  0  0
  -22.0407  -12.8176   22.0454 N   0  0  0  0  0  0
  -25.4001  -15.2000   20.4192 N   0  0  0  0  0  0
  -31.6391  -15.3067   20.1185 O   0  0  0  0  0  0
  -21.6650   -6.8890   21.4241 O   0  0  0  0  0  0
  -22.3430  -14.5491   20.6738 O   0  0  0  0  0  0
  -24.6660  -31.8192   23.1666 C   0  0  0  0  0  0
  -25.9326  -32.4561   23.8150 C   0  0  1  0  0  0
  -27.2259  -26.8907   20.1829 C   0  0  0  0  0  0
  -25.5978  -33.8379   24.2050 N   0  0  0  0  0  0
  -23.4827  -30.4280   21.5161 C   0  0  2  0  0  0
  -24.9369  -28.8058   20.1088 C   0  0  0  0  0  0
  -22.7682  -29.4417   22.4769 C   0  0  0  0  0  0
  -18.0323  -28.1410   22.8463 C   0  0  0  0  0  0
  -24.1493  -36.7198   23.2650 C   0  0  0  0  0  0
  -26.0532  -30.6113   21.4036 C   0  0  0  0  0  0
  -26.1191  -29.1974   20.7477 C   0  0  0  0  0  0
  -27.2510  -28.2595   20.7626 C   0  0  0  0  0  0
  -26.0117  -26.6580   19.4963 C   0  0  0  0  0  0
  -24.9106  -27.5577   19.4628 C   0  0  0  0  0  0
  -23.7245  -29.7389   20.1432 C   0  0  0  0  0  0
  -25.4136  -36.2953   24.0294 C   0  0  1  0  0  0
  -20.5951  -28.3756   23.1186 C   0  0  2  0  0  0
  -20.6800  -26.9434   22.5406 C   0  0  0  0  0  0
  -19.5774  -26.6375   21.5216 C   0  0  0  0  0  0
  -18.1954  -26.7940   22.1622 C   0  0  0  0  0  0
  -19.1587  -28.8904   23.2809 C   0  0  0  0  0  0
  -18.9495  -30.1493   23.8846 C   0  0  0  0  0  0
  -17.6488  -30.6598   24.0554 C   0  0  0  0  0  0
  -25.9103  -34.9335   23.4996 C   0  0  0  0  0  0
  -16.5377  -29.9084   23.6347 C   0  0  0  0  0  0
  -16.7305  -28.6505   23.0362 C   0  0  0  0  0  0
  -26.4561  -31.6528   25.0700 C   0  0  0  0  0  0
  -25.3679  -31.3791   26.1354 C   0  0  0  0  0  0
  -27.0469  -30.2889   24.6470 C   0  0  0  0  0  0
  -27.6044  -32.4349   25.7505 C   0  0  0  0  0  0
  -27.5566  -37.1759   24.8466 C   0  0  0  0  0  0
  -21.4347  -29.3034   22.3523 N   0  0  0  0  0  0
  -26.4279  -37.3692   23.9402 N   0  0  0  0  0  0
  -24.7557  -30.9816   22.0820 N   0  0  0  0  0  0
  -23.4210  -28.8003   23.3036 O   0  0  0  0  0  0
  -28.2420  -25.7872   20.3064 O   0  0  0  0  0  0
  -26.5724  -34.8878   22.4598 O   0  0  0  0  0  0
  -23.5724  -32.1181   23.6739 O   0  0  0  0  0  0
  -29.0214  -20.6260   21.5110 C   0  0  0  0  0  0
  -28.6607  -22.1028   21.4386 C   0  0  0  0  0  0
  -29.2732  -19.8497   20.3590 C   0  0  0  0  0  0
  -28.5583  -22.7761   20.2073 C   0  0  0  0  0  0
  -28.1280  -24.3171   18.2439 C   0  0  0  0  0  0
  -29.9720  -18.2383   20.0769 C   0  0  0  0  0  0
  -29.6718  -16.6177   20.4392 N   0  0  0  0  0  0
  -28.1199  -24.2195   19.6972 N   0  0  0  0  0  0
  -28.9802  -21.2644   19.1376 S   0  0  0  0  0  0
  -31.4562  -13.0445   19.2136 H   0  0  0  0  0  0
  -30.5037  -11.9466   20.1604 H   0  0  0  0  0  0
  -29.9359  -11.7583   17.7134 H   0  0  0  0  0  0
  -29.5705  -13.4659   17.6514 H   0  0  0  0  0  0
  -28.0516  -11.2837   19.1007 H   0  0  0  0  0  0
  -27.4291  -12.3402   17.8580 H   0  0  0  0  0  0
  -27.5191  -14.2459   19.3166 H   0  0  0  0  0  0
  -28.8121  -12.5586   21.5097 H   0  0  0  0  0  0
  -28.2638  -14.2104   21.6823 H   0  0  0  0  0  0
  -25.2788   -9.5691   22.4757 H   0  0  0  0  0  0
  -24.0020   -7.4644   22.7477 H   0  0  0  0  0  0
  -21.0861   -8.8797   19.8958 H   0  0  0  0  0  0
  -22.3726  -10.9687   19.6164 H   0  0  0  0  0  0
  -21.2016   -7.6152   23.9716 H   0  0  0  0  0  0
  -21.1483   -6.0519   25.9073 H   0  0  0  0  0  0
  -22.0597   -2.7615   23.2832 H   0  0  0  0  0  0
  -22.4037  -11.9857   22.4870 H   0  0  0  0  0  0
  -21.1015  -13.1183   22.2642 H   0  0  0  0  0  0
  -24.6296  -15.8492   20.5356 H   0  0  0  0  0  0
  -26.2373  -15.6420   20.0625 H   0  0  0  0  0  0
  -26.7398  -32.5083   23.0866 H   0  0  0  0  0  0
  -25.0062  -33.9449   25.0158 H   0  0  0  0  0  0
  -22.7983  -31.2608   21.3418 H   0  0  0  0  0  0
  -23.3761  -35.9523   23.3289 H   0  0  0  0  0  0
  -24.3566  -36.8872   22.2068 H   0  0  0  0  0  0
  -23.7249  -37.6378   23.6724 H   0  0  0  0  0  0
  -26.2403  -31.3498   20.6230 H   0  0  0  0  0  0
  -26.9109  -30.6683   22.0620 H   0  0  0  0  0  0
  -28.1430  -28.5548   21.2968 H   0  0  0  0  0  0
  -25.8711  -25.6993   19.0197 H   0  0  0  0  0  0
  -24.0114  -27.2492   18.9479 H   0  0  0  0  0  0
  -23.8834  -30.5063   19.3848 H   0  0  0  0  0  0
  -22.8331  -29.1959   19.8250 H   0  0  0  0  0  0
  -25.1338  -36.1744   25.0786 H   0  0  0  0  0  0
  -21.0037  -28.3363   24.1311 H   0  0  0  0  0  0
  -20.5680  -26.2372   23.3648 H   0  0  0  0  0  0
  -21.6662  -26.7406   22.1214 H   0  0  0  0  0  0
  -19.6934  -25.6271   21.1281 H   0  0  0  0  0  0
  -19.6717  -27.3158   20.6723 H   0  0  0  0  0  0
  -17.4226  -26.6686   21.4022 H   0  0  0  0  0  0
  -18.0347  -26.0093   22.9032 H   0  0  0  0  0  0
  -19.7970  -30.7325   24.2193 H   0  0  0  0  0  0
  -17.5037  -31.6274   24.5164 H   0  0  0  0  0  0
  -15.5374  -30.2969   23.7699 H   0  0  0  0  0  0
  -15.8705  -28.0808   22.7106 H   0  0  0  0  0  0
  -24.5873  -30.7126   25.7666 H   0  0  0  0  0  0
  -24.8857  -32.2998   26.4651 H   0  0  0  0  0  0
  -25.7907  -30.9046   27.0220 H   0  0  0  0  0  0
  -26.3150  -29.6547   24.1458 H   0  0  0  0  0  0
  -27.3961  -29.7274   25.5148 H   0  0  0  0  0  0
  -27.9105  -30.4059   23.9920 H   0  0  0  0  0  0
  -27.2600  -33.3692   26.1952 H   0  0  0  0  0  0
  -28.3920  -32.6848   25.0383 H   0  0  0  0  0  0
  -28.0640  -31.8570   26.5534 H   0  0  0  0  0  0
  -28.2573  -38.0065   24.7498 H   0  0  0  0  0  0
  -28.1074  -36.2590   24.6313 H   0  0  0  0  0  0
  -27.2282  -37.1422   25.8870 H   0  0  0  0  0  0
  -20.9612  -29.8702   21.6627 H   0  0  0  0  0  0
  -26.0124  -38.2751   24.1398 H   0  0  0  0  0  0
  -29.1227  -20.1871   22.4936 H   0  0  0  0  0  0
  -28.4724  -22.6266   22.3644 H   0  0  0  0  0  0
  -27.3820  -23.6532   17.8071 H   0  0  0  0  0  0
  -29.1051  -24.0372   17.8489 H   0  0  0  0  0  0
  -27.9180  -25.3310   17.9038 H   0  0  0  0  0  0
  -31.0045  -18.3409   20.4118 H   0  0  0  0  0  0
  -30.0797  -18.1894   18.9930 H   0  0  0  0  0  0
  -28.6985  -16.4564   20.6532 H   0  0  0  0  0  0
  1 25  1  0  0  0
  1 30  2  0  0  0
  1 77  1  0  0  0
  2  3  1  0  0  0
  2 25  1  0  0  0
  2 80  1  0  0  0
  2 81  1  0  0  0
  3  4  1  0  0  0
  3 82  1  0  0  0
  3 83  1  0  0  0
  4  5  1  0  0  0
  4 84  1  0  0  0
  4 85  1  0  0  0
  5  6  1  0  0  0
  5 26  1  0  0  0
  5 86  1  0  0  0
  6 25  1  0  0  0
  6 87  1  0  0  0
  6 88  1  0  0  0
  7  8  2  0  0  0
  7 26  1  0  0  0
  7 29  1  0  0  0
  8  9  1  0  0  0
  8 22  1  0  0  0
  9 10  1  0  0  0
  9 27  2  0  0  0
 10 11  2  0  0  0
 10 15  1  0  0  0
 11 12  1  0  0  0
 11 89  1  0  0  0
 12 13  2  0  0  0
 12 90  1  0  0  0
 13 14  1  0  0  0
 13 31  1  0  0  0
 14 15  2  0  0  0
 14 91  1  0  0  0
 15 92  1  0  0  0
 16 17  2  0  0  0
 16 21  1  0  0  0
 16 31  1  0  0  0
 17 18  1  0  0  0
 17 93  1  0  0  0
 18 19  2  0  0  0
 18 94  1  0  0  0
 19 20  1  0  0  0
 19 24  1  0  0  0
 20 21  2  0  0  0
 20 95  1  0  0  0
 21 23  1  0  0  0
 22 28  1  0  0  0
 22 32  2  0  0  0
 26 27  1  0  0  0
 28 96  1  0  0  0
 28 97  1  0  0  0
 29 98  1  0  0  0
 29 99  1  0  0  0
 33 34  1  0  0  0
 33 66  1  0  0  0
 33 70  2  0  0  0
 34 36  1  0  0  0
 34 59  1  0  0  0
 34100  1  0  0  0
 35 44  2  0  0  0
 35 45  1  0  0  0
 35 68  1  0  0  0
 36 56  1  0  0  0
 36101  1  0  0  0
 37 39  1  0  0  0
 37 47  1  0  0  0
 37 66  1  0  0  0
 37102  1  0  0  0
 38 43  2  0  0  0
 38 46  1  0  0  0
 38 47  1  0  0  0
 39 64  1  0  0  0
 39 67  2  0  0  0
 40 52  1  0  0  0
 40 53  2  0  0  0
 40 58  1  0  0  0
 41103  1  0  0  0
 41104  1  0  0  0
 41105  1  0  0  0
 41 48  1  0  0  0
 42 43  1  0  0  0
 42 66  1  0  0  0
 42106  1  0  0  0
 42107  1  0  0  0
 43 44  1  0  0  0
 44108  1  0  0  0
 45 46  2  0  0  0
 45109  1  0  0  0
 46110  1  0  0  0
 47111  1  0  0  0
 47112  1  0  0  0
 48 56  1  0  0  0
 48 65  1  0  0  0
 48113  1  0  0  0
 49 50  1  0  0  0
 49 53  1  0  0  0
 49 64  1  0  0  0
 49114  1  0  0  0
 50 51  1  0  0  0
 50115  1  0  0  0
 50116  1  0  0  0
 51 52  1  0  0  0
 51117  1  0  0  0
 51118  1  0  0  0
 52119  1  0  0  0
 52120  1  0  0  0
 53 54  1  0  0  0
 54 55  2  0  0  0
 54121  1  0  0  0
 55 57  1  0  0  0
 55122  1  0  0  0
 56 69  2  0  0  0
 57 58  2  0  0  0
 57123  1  0  0  0
 58124  1  0  0  0
 59 60  1  0  0  0
 59 61  1  0  0  0
 59 62  1  0  0  0
 60125  1  0  0  0
 60126  1  0  0  0
 60127  1  0  0  0
 61128  1  0  0  0
 61129  1  0  0  0
 61130  1  0  0  0
 62131  1  0  0  0
 62132  1  0  0  0
 62133  1  0  0  0
 63 65  1  0  0  0
 63134  1  0  0  0
 63135  1  0  0  0
 63136  1  0  0  0
 64137  1  0  0  0
 65138  1  0  0  0
 68 78  1  0  0  0
 71 72  1  0  0  0
 71 73  2  0  0  0
 71139  1  0  0  0
 72 74  2  0  0  0
 72140  1  0  0  0
 73 76  1  0  0  0
 73 79  1  0  0  0
 74 78  1  0  0  0
 74 79  1  0  0  0
 75 78  1  0  0  0
 75141  1  0  0  0
 75142  1  0  0  0
 75143  1  0  0  0
 76 77  1  0  0  0
 76144  1  0  0  0
 76145  1  0  0  0
 77146  1  0  0  0
M  ISO  4   1 100  68 101  77 100  78 101
M  END
> <chiral flag>
0

> <version>
0

> <s_m_source_file>
/data/baiqing/PycharmProjects/Reinvent-master-3.2/result/LINK_invent/BTK/process_docking_weight1_custom_product_contain_oxygen_bond_distance_aromatic_linkinvent_7_9_3/rearranged_h_0154.sdf

> <i_m_source_file_index>
82

> <r_mmod_Potential_Energy-OPLS-2005>
1328.69372558594

> <r_mmod_Stretch_Energy-OPLS-2005>
601.532043457031

> <r_mmod_Bend_Energy-OPLS-2005>
507.904296875

> <r_mmod_Torsional_Energy-OPLS-2005>
194.514236450195

> <r_mmod_Improper_Torsional_Energy-OPLS-2005>
8.08327674865723

> <r_mmod_Van_der_Waal_Energy-OPLS-2005>
109.361862182617

> <r_mmod_Electrostatic_Energy-OPLS-2005>
-383.72265625

> <r_mmod_Solvation_Energy-OPLS-2005>
-223.613235473633

> <b_mmod_Minimization_Converged-OPLS-2005>
0

> <r_mmod_RMS_Derivative-OPLS-2005>
0.915854454040527

$$$$
82
                    3D
 Structure written by MMmdl.
150158  0  0  1  0            999 V2000
  -30.5868  -14.7247   20.4808 C   0  0  0  0  0  0
  -30.4458  -12.4482   19.4633 C   0  0  0  0  0  0
  -29.5145  -12.5124   18.2318 C   0  0  0  0  0  0
  -28.0404  -12.3321   18.6463 C   0  0  0  0  0  0
  -27.6476  -13.2206   19.8556 C   0  0  2  0  0  0
  -28.6917  -13.1229   20.9894 C   0  0  0  0  0  0
  -25.2539  -13.8173   20.5681 C   0  0  0  0  0  0
  -24.1811  -13.0436   20.9194 C   0  0  0  0  0  0
  -24.6388  -11.6903   20.8738 C   0  0  0  0  0  0
  -23.9056  -10.4288   21.0401 C   0  0  0  0  0  0
  -24.3609   -9.4202   21.9175 C   0  0  0  0  0  0
  -23.6285   -8.2242   22.0754 C   0  0  0  0  0  0
  -22.4267   -8.0279   21.3547 C   0  0  0  0  0  0
  -21.9899   -9.0252   20.4652 C   0  0  0  0  0  0
  -22.7228  -10.2131   20.3056 C   0  0  0  0  0  0
  -21.6857   -6.0726   22.5272 C   0  0  0  0  0  0
  -21.4012   -6.5628   23.8206 C   0  0  0  0  0  0
  -21.3657   -5.6783   24.9168 C   0  0  0  0  0  0
  -21.6043   -4.3046   24.7224 C   0  0  0  0  0  0
  -21.8819   -3.8138   23.4345 C   0  0  0  0  0  0
  -21.9194   -4.6951   22.3399 C   0  0  0  0  0  0
  -22.7831  -13.5231   21.1848 C   0  0  0  0  0  0
  -22.1663   -4.2136   21.0978 F   0  0  0  0  0  0
  -21.5629   -3.4533   25.7739 F   0  0  0  0  0  0
  -29.9958  -13.4845   20.4163 N   0  0  0  0  0  0
  -26.2955  -12.9355   20.3280 N   0  0  0  0  0  0
  -25.9312  -11.6511   20.5739 N   0  0  0  0  0  0
  -22.0465  -12.8245   22.0409 N   0  0  0  0  0  0
  -25.4228  -15.1895   20.4075 N   0  0  0  0  0  0
  -31.7715  -14.8725   20.1623 O   0  0  0  0  0  0
  -21.6642   -6.8870   21.4239 O   0  0  0  0  0  0
  -22.3520  -14.5539   20.6688 O   0  0  0  0  0  0
  -24.6298  -31.8563   23.1977 C   0  0  0  0  0  0
  -25.9127  -32.4765   23.8333 C   0  0  1  0  0  0
  -27.2317  -27.2824   20.1435 C   0  0  0  0  0  0
  -25.5933  -33.8562   24.2269 N   0  0  0  0  0  0
  -23.4279  -30.4752   21.5402 C   0  0  2  0  0  0
  -24.8784  -28.9159   20.1181 C   0  0  0  0  0  0
  -22.7501  -29.4600   22.4921 C   0  0  0  0  0  0
  -18.0290  -28.1386   22.8487 C   0  0  0  0  0  0
  -24.1484  -36.7268   23.2638 C   0  0  0  0  0  0
  -25.9702  -30.7765   21.3742 C   0  0  0  0  0  0
  -26.0473  -29.3974   20.7226 C   0  0  0  0  0  0
  -27.2299  -28.5940   20.7193 C   0  0  0  0  0  0
  -26.0418  -26.8533   19.5206 C   0  0  0  0  0  0
  -24.8794  -27.6510   19.5070 C   0  0  0  0  0  0
  -23.6482  -29.8017   20.1588 C   0  0  0  0  0  0
  -25.4112  -36.3072   24.0331 C   0  0  1  0  0  0
  -20.5896  -28.3696   23.1276 C   0  0  2  0  0  0
  -20.6776  -26.9415   22.5410 C   0  0  0  0  0  0
  -19.5750  -26.6389   21.5213 C   0  0  0  0  0  0
  -18.1931  -26.7932   22.1624 C   0  0  0  0  0  0
  -19.1545  -28.8858   23.2873 C   0  0  0  0  0  0
  -18.9468  -30.1460   23.8889 C   0  0  0  0  0  0
  -17.6467  -30.6591   24.0565 C   0  0  0  0  0  0
  -25.9052  -34.9442   23.5102 C   0  0  0  0  0  0
  -16.5355  -29.9086   23.6335 C   0  0  0  0  0  0
  -16.7280  -28.6503   23.0357 C   0  0  0  0  0  0
  -26.4491  -31.6576   25.0713 C   0  0  0  0  0  0
  -25.3734  -31.3780   26.1468 C   0  0  0  0  0  0
  -27.0285  -30.2977   24.6183 C   0  0  0  0  0  0
  -27.6092  -32.4281   25.7451 C   0  0  0  0  0  0
  -27.5580  -37.1786   24.8467 C   0  0  0  0  0  0
  -21.4211  -29.3038   22.3660 N   0  0  0  0  0  0
  -26.4287  -37.3775   23.9417 N   0  0  0  0  0  0
  -24.6945  -31.0540   22.0940 N   0  0  0  0  0  0
  -23.4201  -28.8152   23.3031 O   0  0  0  0  0  0
  -28.3403  -26.4177   20.1403 O   0  0  0  0  0  0
  -26.5621  -34.8920   22.4668 O   0  0  0  0  0  0
  -23.5449  -32.1374   23.7277 O   0  0  0  0  0  0
  -30.6511  -19.4416   20.9489 C   0  0  0  0  0  0
  -30.9041  -18.0064   21.0465 C   0  0  0  0  0  0
  -29.4304  -19.7999   20.4052 C   0  0  0  0  0  0
  -29.8744  -17.1837   20.6315 C   0  0  0  0  0  0
  -28.6472  -23.7729   19.9887 C   0  0  0  0  0  0
  -29.0862  -22.4233   20.7412 C   0  0  0  0  0  0
  -28.1990  -25.0778   20.7943 C   0  0  0  0  0  0
  -32.1133  -17.5178   21.5594 N   0  0  0  0  0  0
  -29.7321  -15.7913   20.6897 N   0  0  0  0  0  0
  -28.8533  -21.0895   20.0596 N   0  0  0  0  0  0
  -28.6329  -23.7855   18.7531 O   0  0  0  0  0  0
  -28.5717  -18.2719   20.0685 S   0  0  0  0  0  0
  -31.4831  -12.5997   19.1582 H   0  0  0  0  0  0
  -30.4091  -11.4627   19.9297 H   0  0  0  0  0  0
  -29.7952  -11.7476   17.5067 H   0  0  0  0  0  0
  -29.6410  -13.4715   17.7270 H   0  0  0  0  0  0
  -27.8970  -11.2818   18.9023 H   0  0  0  0  0  0
  -27.3830  -12.5314   17.7992 H   0  0  0  0  0  0
  -27.6493  -14.2458   19.4854 H   0  0  0  0  0  0
  -28.7243  -12.1152   21.4047 H   0  0  0  0  0  0
  -28.4259  -13.7810   21.8177 H   0  0  0  0  0  0
  -25.2753   -9.5681   22.4750 H   0  0  0  0  0  0
  -23.9992   -7.4637   22.7475 H   0  0  0  0  0  0
  -21.0829   -8.8773   19.8959 H   0  0  0  0  0  0
  -22.3676  -10.9672   19.6171 H   0  0  0  0  0  0
  -21.2000   -7.6136   23.9704 H   0  0  0  0  0  0
  -21.1475   -6.0512   25.9072 H   0  0  0  0  0  0
  -22.0594   -2.7598   23.2851 H   0  0  0  0  0  0
  -22.4069  -11.9917   22.4834 H   0  0  0  0  0  0
  -21.1088  -13.1301   22.2611 H   0  0  0  0  0  0
  -24.6490  -15.8373   20.5093 H   0  0  0  0  0  0
  -26.2568  -15.6304   20.0429 H   0  0  0  0  0  0
  -26.7195  -32.5426   23.1085 H   0  0  0  0  0  0
  -25.0099  -33.9699   25.0431 H   0  0  0  0  0  0
  -22.7233  -31.2952   21.3897 H   0  0  0  0  0  0
  -23.3768  -35.9576   23.3285 H   0  0  0  0  0  0
  -24.3578  -36.8903   22.2056 H   0  0  0  0  0  0
  -23.7201  -37.6451   23.6667 H   0  0  0  0  0  0
  -26.1053  -31.5346   20.6015 H   0  0  0  0  0  0
  -26.8487  -30.8299   22.0056 H   0  0  0  0  0  0
  -28.1303  -28.9605   21.1931 H   0  0  0  0  0  0
  -26.0101  -25.8812   19.0483 H   0  0  0  0  0  0
  -23.9844  -27.2756   19.0314 H   0  0  0  0  0  0
  -23.7775  -30.5736   19.3995 H   0  0  0  0  0  0
  -22.7679  -29.2334   19.8541 H   0  0  0  0  0  0
  -25.1291  -36.1925   25.0824 H   0  0  0  0  0  0
  -20.9984  -28.3271   24.1397 H   0  0  0  0  0  0
  -20.5677  -26.2299   23.3612 H   0  0  0  0  0  0
  -21.6646  -26.7438   22.1205 H   0  0  0  0  0  0
  -19.6909  -25.6296   21.1247 H   0  0  0  0  0  0
  -19.6692  -27.3196   20.6736 H   0  0  0  0  0  0
  -17.4204  -26.6682   21.4026 H   0  0  0  0  0  0
  -18.0332  -26.0074   22.9019 H   0  0  0  0  0  0
  -19.7944  -30.7283   24.2250 H   0  0  0  0  0  0
  -17.5021  -31.6271   24.5171 H   0  0  0  0  0  0
  -15.5359  -30.2986   23.7659 H   0  0  0  0  0  0
  -15.8678  -28.0818   22.7086 H   0  0  0  0  0  0
  -24.5794  -30.7267   25.7800 H   0  0  0  0  0  0
  -24.9076  -32.2991   26.4984 H   0  0  0  0  0  0
  -25.8039  -30.8844   27.0193 H   0  0  0  0  0  0
  -26.2826  -29.6750   24.1229 H   0  0  0  0  0  0
  -27.3969  -29.7229   25.4691 H   0  0  0  0  0  0
  -27.8725  -30.4225   23.9397 H   0  0  0  0  0  0
  -27.2771  -33.3625   26.1991 H   0  0  0  0  0  0
  -28.3913  -32.6755   25.0258 H   0  0  0  0  0  0
  -28.0735  -31.8405   26.5388 H   0  0  0  0  0  0
  -28.2615  -38.0069   24.7510 H   0  0  0  0  0  0
  -28.1058  -36.2603   24.6294 H   0  0  0  0  0  0
  -27.2304  -37.1448   25.8873 H   0  0  0  0  0  0
  -20.9400  -29.8741   21.6845 H   0  0  0  0  0  0
  -26.0171  -38.2848   24.1434 H   0  0  0  0  0  0
  -31.3927  -20.1623   21.2631 H   0  0  0  0  0  0
  -28.5656  -22.4064   21.6996 H   0  0  0  0  0  0
  -30.1467  -22.5148   20.9785 H   0  0  0  0  0  0
  -28.7753  -25.1016   21.7198 H   0  0  0  0  0  0
  -27.1621  -24.9275   21.0976 H   0  0  0  0  0  0
  -32.9176  -18.1333   21.4919 H   0  0  0  0  0  0
  -32.3387  -16.5707   21.2556 H   0  0  0  0  0  0
  -28.7792  -15.4915   20.8176 H   0  0  0  0  0  0
  -27.9893  -21.0758   19.5203 H   0  0  0  0  0  0
  1 25  1  0  0  0
  1 30  2  0  0  0
  1 79  1  0  0  0
  2  3  1  0  0  0
  2 25  1  0  0  0
  2 83  1  0  0  0
  2 84  1  0  0  0
  3  4  1  0  0  0
  3 85  1  0  0  0
  3 86  1  0  0  0
  4  5  1  0  0  0
  4 87  1  0  0  0
  4 88  1  0  0  0
  5  6  1  0  0  0
  5 26  1  0  0  0
  5 89  1  0  0  0
  6 25  1  0  0  0
  6 90  1  0  0  0
  6 91  1  0  0  0
  7  8  2  0  0  0
  7 26  1  0  0  0
  7 29  1  0  0  0
  8  9  1  0  0  0
  8 22  1  0  0  0
  9 10  1  0  0  0
  9 27  2  0  0  0
 10 11  2  0  0  0
 10 15  1  0  0  0
 11 12  1  0  0  0
 11 92  1  0  0  0
 12 13  2  0  0  0
 12 93  1  0  0  0
 13 14  1  0  0  0
 13 31  1  0  0  0
 14 15  2  0  0  0
 14 94  1  0  0  0
 15 95  1  0  0  0
 16 17  2  0  0  0
 16 21  1  0  0  0
 16 31  1  0  0  0
 17 18  1  0  0  0
 17 96  1  0  0  0
 18 19  2  0  0  0
 18 97  1  0  0  0
 19 20  1  0  0  0
 19 24  1  0  0  0
 20 21  2  0  0  0
 20 98  1  0  0  0
 21 23  1  0  0  0
 22 28  1  0  0  0
 22 32  2  0  0  0
 26 27  1  0  0  0
 28 99  1  0  0  0
 28100  1  0  0  0
 29101  1  0  0  0
 29102  1  0  0  0
 33 34  1  0  0  0
 33 66  1  0  0  0
 33 70  2  0  0  0
 34 36  1  0  0  0
 34 59  1  0  0  0
 34103  1  0  0  0
 35 44  2  0  0  0
 35 45  1  0  0  0
 35 68  1  0  0  0
 36 56  1  0  0  0
 36104  1  0  0  0
 37 39  1  0  0  0
 37 47  1  0  0  0
 37 66  1  0  0  0
 37105  1  0  0  0
 38 43  2  0  0  0
 38 46  1  0  0  0
 38 47  1  0  0  0
 39 64  1  0  0  0
 39 67  2  0  0  0
 40 52  1  0  0  0
 40 53  2  0  0  0
 40 58  1  0  0  0
 41106  1  0  0  0
 41107  1  0  0  0
 41108  1  0  0  0
 41 48  1  0  0  0
 42 43  1  0  0  0
 42 66  1  0  0  0
 42109  1  0  0  0
 42110  1  0  0  0
 43 44  1  0  0  0
 44111  1  0  0  0
 45 46  2  0  0  0
 45112  1  0  0  0
 46113  1  0  0  0
 47114  1  0  0  0
 47115  1  0  0  0
 48 56  1  0  0  0
 48 65  1  0  0  0
 48116  1  0  0  0
 49 50  1  0  0  0
 49 53  1  0  0  0
 49 64  1  0  0  0
 49117  1  0  0  0
 50 51  1  0  0  0
 50118  1  0  0  0
 50119  1  0  0  0
 51 52  1  0  0  0
 51120  1  0  0  0
 51121  1  0  0  0
 52122  1  0  0  0
 52123  1  0  0  0
 53 54  1  0  0  0
 54 55  2  0  0  0
 54124  1  0  0  0
 55 57  1  0  0  0
 55125  1  0  0  0
 56 69  2  0  0  0
 57 58  2  0  0  0
 57126  1  0  0  0
 58127  1  0  0  0
 59 60  1  0  0  0
 59 61  1  0  0  0
 59 62  1  0  0  0
 60128  1  0  0  0
 60129  1  0  0  0
 60130  1  0  0  0
 61131  1  0  0  0
 61132  1  0  0  0
 61133  1  0  0  0
 62134  1  0  0  0
 62135  1  0  0  0
 62136  1  0  0  0
 63 65  1  0  0  0
 63137  1  0  0  0
 63138  1  0  0  0
 63139  1  0  0  0
 64140  1  0  0  0
 65141  1  0  0  0
 68 77  1  0  0  0
 71 72  1  0  0  0
 71 73  2  0  0  0
 71142  1  0  0  0
 72 74  2  0  0  0
 72 78  1  0  0  0
 73 80  1  0  0  0
 73 82  1  0  0  0
 74 79  1  0  0  0
 74 82  1  0  0  0
 75 76  1  0  0  0
 75 77  1  0  0  0
 75 81  2  0  0  0
 76 80  1  0  0  0
 76143  1  0  0  0
 76144  1  0  0  0
 77145  1  0  0  0
 77146  1  0  0  0
 78147  1  0  0  0
 78148  1  0  0  0
 79149  1  0  0  0
 80150  1  0  0  0
M  ISO  4   1 100  68 101  77 101  79 100
M  END
> <chiral flag>
0

> <version>
0

> <s_m_source_file>
/data/baiqing/PycharmProjects/Reinvent-master-3.2/result/LINK_invent/BTK/process_docking_weight1_custom_product_contain_oxygen_bond_distance_aromatic_linkinvent_7_9_3/rearranged_h_0154.sdf

> <i_m_source_file_index>
83

> <r_mmod_Potential_Energy-OPLS-2005>
107.099792480469

> <r_mmod_Stretch_Energy-OPLS-2005>
100.478652954102

> <r_mmod_Bend_Energy-OPLS-2005>
157.748229980469

> <r_mmod_Torsional_Energy-OPLS-2005>
249.550811767578

> <r_mmod_Improper_Torsional_Energy-OPLS-2005>
11.4260263442993

> <r_mmod_Van_der_Waal_Energy-OPLS-2005>
112.610374450684

> <r_mmod_Electrostatic_Energy-OPLS-2005>
-349.080261230469

> <r_mmod_Solvation_Energy-OPLS-2005>
-249.384063720703

> <b_mmod_Minimization_Converged-OPLS-2005>
0

> <r_mmod_RMS_Derivative-OPLS-2005>
1.59921145439148

$$$$
83
                    3D
 Structure written by MMmdl.
159168  0  0  1  0            999 V2000
  -30.6080  -14.7648   20.4130 C   0  0  0  0  0  0
  -30.4247  -12.4484   19.4993 C   0  0  0  0  0  0
  -29.5127  -12.4827   18.2538 C   0  0  0  0  0  0
  -28.0397  -12.3104   18.6662 C   0  0  0  0  0  0
  -27.6391  -13.2316   19.8479 C   0  0  2  0  0  0
  -28.6789  -13.1969   20.9901 C   0  0  0  0  0  0
  -25.2498  -13.8208   20.5712 C   0  0  0  0  0  0
  -24.1789  -13.0440   20.9212 C   0  0  0  0  0  0
  -24.6382  -11.6917   20.8751 C   0  0  0  0  0  0
  -23.9064  -10.4292   21.0408 C   0  0  0  0  0  0
  -24.3615   -9.4213   21.9191 C   0  0  0  0  0  0
  -23.6297   -8.2243   22.0752 C   0  0  0  0  0  0
  -22.4280   -8.0278   21.3544 C   0  0  0  0  0  0
  -21.9921   -9.0246   20.4636 C   0  0  0  0  0  0
  -22.7242  -10.2131   20.3053 C   0  0  0  0  0  0
  -21.6853   -6.0741   22.5279 C   0  0  0  0  0  0
  -21.4013   -6.5640   23.8214 C   0  0  0  0  0  0
  -21.3660   -5.6791   24.9177 C   0  0  0  0  0  0
  -21.6050   -4.3055   24.7224 C   0  0  0  0  0  0
  -21.8818   -3.8149   23.4339 C   0  0  0  0  0  0
  -21.9191   -4.6970   22.3397 C   0  0  0  0  0  0
  -22.7815  -13.5224   21.1881 C   0  0  0  0  0  0
  -22.1663   -4.2156   21.0976 F   0  0  0  0  0  0
  -21.5629   -3.4541   25.7734 F   0  0  0  0  0  0
  -29.9864  -13.5323   20.4106 N   0  0  0  0  0  0
  -26.2914  -12.9414   20.3269 N   0  0  0  0  0  0
  -25.9314  -11.6561   20.5762 N   0  0  0  0  0  0
  -22.0475  -12.8182   22.0422 N   0  0  0  0  0  0
  -25.4198  -15.1927   20.4147 N   0  0  0  0  0  0
  -31.7901  -14.8465   20.0674 O   0  0  0  0  0  0
  -21.6639   -6.8878   21.4238 O   0  0  0  0  0  0
  -22.3500  -14.5536   20.6743 O   0  0  0  0  0  0
  -24.6348  -31.8552   23.1998 C   0  0  0  0  0  0
  -25.9178  -32.4749   23.8337 C   0  0  1  0  0  0
  -27.1900  -27.2238   20.1162 C   0  0  0  0  0  0
  -25.5960  -33.8550   24.2237 N   0  0  0  0  0  0
  -23.4315  -30.4816   21.5452 C   0  0  2  0  0  0
  -24.8744  -28.9382   20.1026 C   0  0  0  0  0  0
  -22.7541  -29.4578   22.4903 C   0  0  0  0  0  0
  -18.0288  -28.1381   22.8470 C   0  0  0  0  0  0
  -24.1500  -36.7264   23.2651 C   0  0  0  0  0  0
  -25.9860  -30.7521   21.3918 C   0  0  0  0  0  0
  -26.0517  -29.3779   20.7216 C   0  0  0  0  0  0
  -27.2142  -28.5321   20.7204 C   0  0  0  0  0  0
  -26.0018  -26.8921   19.4306 C   0  0  0  0  0  0
  -24.8560  -27.7040   19.4444 C   0  0  0  0  0  0
  -23.6511  -29.8312   20.1574 C   0  0  0  0  0  0
  -25.4136  -36.3053   24.0322 C   0  0  1  0  0  0
  -20.5899  -28.3691   23.1258 C   0  0  2  0  0  0
  -20.6789  -26.9411   22.5398 C   0  0  0  0  0  0
  -19.5765  -26.6382   21.5206 C   0  0  0  0  0  0
  -18.1934  -26.7919   22.1606 C   0  0  0  0  0  0
  -19.1551  -28.8860   23.2847 C   0  0  0  0  0  0
  -18.9480  -30.1447   23.8887 C   0  0  0  0  0  0
  -17.6481  -30.6590   24.0548 C   0  0  0  0  0  0
  -25.9082  -34.9434   23.5085 C   0  0  0  0  0  0
  -16.5362  -29.9088   23.6332 C   0  0  0  0  0  0
  -16.7279  -28.6492   23.0369 C   0  0  0  0  0  0
  -26.4511  -31.6611   25.0762 C   0  0  0  0  0  0
  -25.3704  -31.3760   26.1462 C   0  0  0  0  0  0
  -27.0409  -30.3038   24.6315 C   0  0  0  0  0  0
  -27.6044  -32.4391   25.7526 C   0  0  0  0  0  0
  -27.5572  -37.1788   24.8468 C   0  0  0  0  0  0
  -21.4244  -29.3030   22.3662 N   0  0  0  0  0  0
  -26.4289  -37.3765   23.9418 N   0  0  0  0  0  0
  -24.7032  -31.0500   22.0989 N   0  0  0  0  0  0
  -23.4236  -28.8087   23.2985 O   0  0  0  0  0  0
  -28.2307  -26.2545   20.2135 O   0  0  0  0  0  0
  -26.5664  -34.8902   22.4652 O   0  0  0  0  0  0
  -23.5487  -32.1394   23.7281 O   0  0  0  0  0  0
  -30.5020  -18.6417   18.0659 C   0  0  0  0  0  0
  -30.1531  -19.8434   18.7170 C   0  0  0  0  0  0
  -30.4338  -17.3928   18.7192 C   0  0  0  0  0  0
  -29.6067  -18.5358   20.7004 C   0  0  0  0  0  0
  -29.7070  -19.8482   20.0555 C   0  0  0  0  0  0
  -29.9850  -17.2790   20.0570 C   0  0  0  0  0  0
  -29.0310  -23.7861   20.8477 C   0  0  0  0  0  0
  -29.5762  -21.2191   20.7467 C   0  0  0  0  0  0
  -27.7304  -24.0164   18.9185 C   0  0  0  0  0  0
  -28.0543  -22.5081   19.1350 C   0  0  0  0  0  0
  -27.9107  -24.7499   20.2743 C   0  0  1  0  0  0
  -26.7006  -24.5151   21.2240 C   0  0  0  0  0  0
  -28.9778  -22.4059   20.2795 N   0  0  0  0  0  0
  -29.8575  -15.9136   20.6497 N   0  0  0  0  0  0
  -30.1790  -21.2665   21.9337 N   0  3  0  0  0  0
  -29.8076  -24.1016   21.7569 O   0  0  0  0  0  0
  -31.4715  -12.5471   19.2067 H   0  0  0  0  0  0
  -30.3512  -11.4830   20.0040 H   0  0  0  0  0  0
  -29.7964  -11.6908   17.5595 H   0  0  0  0  0  0
  -29.6428  -13.4239   17.7182 H   0  0  0  0  0  0
  -27.9065  -11.2666   18.9567 H   0  0  0  0  0  0
  -27.3799  -12.4723   17.8126 H   0  0  0  0  0  0
  -27.6262  -14.2441   19.4446 H   0  0  0  0  0  0
  -28.7077  -12.2144   21.4614 H   0  0  0  0  0  0
  -28.4070  -13.9036   21.7754 H   0  0  0  0  0  0
  -25.2758   -9.5696   22.4780 H   0  0  0  0  0  0
  -24.0006   -7.4639   22.7475 H   0  0  0  0  0  0
  -21.0861   -8.8764   19.8935 H   0  0  0  0  0  0
  -22.3704  -10.9672   19.6161 H   0  0  0  0  0  0
  -21.2004   -7.6150   23.9718 H   0  0  0  0  0  0
  -21.1487   -6.0524   25.9081 H   0  0  0  0  0  0
  -22.0596   -2.7615   23.2837 H   0  0  0  0  0  0
  -22.4107  -11.9819   22.4752 H   0  0  0  0  0  0
  -21.1097  -13.1193   22.2668 H   0  0  0  0  0  0
  -24.6503  -15.8448   20.5227 H   0  0  0  0  0  0
  -26.2701  -15.6355   20.0903 H   0  0  0  0  0  0
  -26.7240  -32.5388   23.1066 H   0  0  0  0  0  0
  -25.0066  -33.9690   25.0352 H   0  0  0  0  0  0
  -22.7266  -31.3035   21.4063 H   0  0  0  0  0  0
  -23.3764  -35.9594   23.3329 H   0  0  0  0  0  0
  -24.3568  -36.8894   22.2058 H   0  0  0  0  0  0
  -23.7257  -37.6455   23.6689 H   0  0  0  0  0  0
  -26.1493  -31.5192   20.6321 H   0  0  0  0  0  0
  -26.8549  -30.7841   22.0387 H   0  0  0  0  0  0
  -28.1091  -28.8512   21.2373 H   0  0  0  0  0  0
  -25.9111  -25.9625   18.8970 H   0  0  0  0  0  0
  -23.9586  -27.3679   18.9408 H   0  0  0  0  0  0
  -23.7809  -30.6181   19.4119 H   0  0  0  0  0  0
  -22.7663  -29.2755   19.8417 H   0  0  0  0  0  0
  -25.1314  -36.1881   25.0811 H   0  0  0  0  0  0
  -20.9963  -28.3283   24.1392 H   0  0  0  0  0  0
  -20.5713  -26.2297   23.3601 H   0  0  0  0  0  0
  -21.6653  -26.7452   22.1177 H   0  0  0  0  0  0
  -19.6927  -25.6298   21.1245 H   0  0  0  0  0  0
  -19.6707  -27.3183   20.6732 H   0  0  0  0  0  0
  -17.4197  -26.6670   21.4004 H   0  0  0  0  0  0
  -18.0311  -26.0069   22.9012 H   0  0  0  0  0  0
  -19.7965  -30.7244   24.2274 H   0  0  0  0  0  0
  -17.5048  -31.6277   24.5142 H   0  0  0  0  0  0
  -15.5365  -30.2984   23.7693 H   0  0  0  0  0  0
  -15.8665  -28.0813   22.7111 H   0  0  0  0  0  0
  -24.5870  -30.7142   25.7751 H   0  0  0  0  0  0
  -24.8899  -32.2917   26.4900 H   0  0  0  0  0  0
  -25.7983  -30.8889   27.0244 H   0  0  0  0  0  0
  -26.3031  -29.6749   24.1322 H   0  0  0  0  0  0
  -27.4048  -29.7347   25.4881 H   0  0  0  0  0  0
  -27.8915  -30.4317   23.9630 H   0  0  0  0  0  0
  -27.2646  -33.3728   26.2029 H   0  0  0  0  0  0
  -28.3861  -32.6934   25.0351 H   0  0  0  0  0  0
  -28.0713  -31.8587   26.5490 H   0  0  0  0  0  0
  -28.2572  -38.0102   24.7526 H   0  0  0  0  0  0
  -28.1073  -36.2620   24.6280 H   0  0  0  0  0  0
  -27.2279  -37.1421   25.8868 H   0  0  0  0  0  0
  -20.9430  -29.8773   21.6880 H   0  0  0  0  0  0
  -26.0156  -38.2828   24.1430 H   0  0  0  0  0  0
  -30.8525  -18.6845   17.0431 H   0  0  0  0  0  0
  -30.2962  -20.7740   18.1855 H   0  0  0  0  0  0
  -30.7147  -16.5132   18.1581 H   0  0  0  0  0  0
  -29.2626  -18.5002   21.7237 H   0  0  0  0  0  0
  -26.7207  -24.0953   18.5223 H   0  0  0  0  0  0
  -28.3967  -24.4324   18.1622 H   0  0  0  0  0  0
  -28.4489  -22.0601   18.2258 H   0  0  0  0  0  0
  -27.1422  -21.9657   19.3868 H   0  0  0  0  0  0
  -26.6466  -23.4885   21.5956 H   0  0  0  0  0  0
  -25.7405  -24.6888   20.7442 H   0  0  0  0  0  0
  -26.7595  -25.1683   22.0955 H   0  0  0  0  0  0
  -28.9886  -15.7468   21.1334 H   0  0  0  0  0  0
  -30.6939  -20.4664   22.2662 H   0  0  0  0  0  0
  -30.2516  -22.1487   22.4221 H   0  0  0  0  0  0
  1 25  1  0  0  0
  1 30  2  0  0  0
  1 84  1  0  0  0
  2  3  1  0  0  0
  2 25  1  0  0  0
  2 87  1  0  0  0
  2 88  1  0  0  0
  3  4  1  0  0  0
  3 89  1  0  0  0
  3 90  1  0  0  0
  4  5  1  0  0  0
  4 91  1  0  0  0
  4 92  1  0  0  0
  5  6  1  0  0  0
  5 26  1  0  0  0
  5 93  1  0  0  0
  6 25  1  0  0  0
  6 94  1  0  0  0
  6 95  1  0  0  0
  7  8  2  0  0  0
  7 26  1  0  0  0
  7 29  1  0  0  0
  8  9  1  0  0  0
  8 22  1  0  0  0
  9 10  1  0  0  0
  9 27  2  0  0  0
 10 11  2  0  0  0
 10 15  1  0  0  0
 11 12  1  0  0  0
 11 96  1  0  0  0
 12 13  2  0  0  0
 12 97  1  0  0  0
 13 14  1  0  0  0
 13 31  1  0  0  0
 14 15  2  0  0  0
 14 98  1  0  0  0
 15 99  1  0  0  0
 16 17  2  0  0  0
 16 21  1  0  0  0
 16 31  1  0  0  0
 17 18  1  0  0  0
 17100  1  0  0  0
 18 19  2  0  0  0
 18101  1  0  0  0
 19 20  1  0  0  0
 19 24  1  0  0  0
 20 21  2  0  0  0
 20102  1  0  0  0
 21 23  1  0  0  0
 22 28  1  0  0  0
 22 32  2  0  0  0
 26 27  1  0  0  0
 28103  1  0  0  0
 28104  1  0  0  0
 29105  1  0  0  0
 29106  1  0  0  0
 33 34  1  0  0  0
 33 66  1  0  0  0
 33 70  2  0  0  0
 34 36  1  0  0  0
 34 59  1  0  0  0
 34107  1  0  0  0
 35 44  2  0  0  0
 35 45  1  0  0  0
 35 68  1  0  0  0
 36 56  1  0  0  0
 36108  1  0  0  0
 37 39  1  0  0  0
 37 47  1  0  0  0
 37 66  1  0  0  0
 37109  1  0  0  0
 38 43  2  0  0  0
 38 46  1  0  0  0
 38 47  1  0  0  0
 39 64  1  0  0  0
 39 67  2  0  0  0
 40 52  1  0  0  0
 40 53  2  0  0  0
 40 58  1  0  0  0
 41110  1  0  0  0
 41111  1  0  0  0
 41112  1  0  0  0
 41 48  1  0  0  0
 42 43  1  0  0  0
 42 66  1  0  0  0
 42113  1  0  0  0
 42114  1  0  0  0
 43 44  1  0  0  0
 44115  1  0  0  0
 45 46  2  0  0  0
 45116  1  0  0  0
 46117  1  0  0  0
 47118  1  0  0  0
 47119  1  0  0  0
 48 56  1  0  0  0
 48 65  1  0  0  0
 48120  1  0  0  0
 49 50  1  0  0  0
 49 53  1  0  0  0
 49 64  1  0  0  0
 49121  1  0  0  0
 50 51  1  0  0  0
 50122  1  0  0  0
 50123  1  0  0  0
 51 52  1  0  0  0
 51124  1  0  0  0
 51125  1  0  0  0
 52126  1  0  0  0
 52127  1  0  0  0
 53 54  1  0  0  0
 54 55  2  0  0  0
 54128  1  0  0  0
 55 57  1  0  0  0
 55129  1  0  0  0
 56 69  2  0  0  0
 57 58  2  0  0  0
 57130  1  0  0  0
 58131  1  0  0  0
 59 60  1  0  0  0
 59 61  1  0  0  0
 59 62  1  0  0  0
 60132  1  0  0  0
 60133  1  0  0  0
 60134  1  0  0  0
 61135  1  0  0  0
 61136  1  0  0  0
 61137  1  0  0  0
 62138  1  0  0  0
 62139  1  0  0  0
 62140  1  0  0  0
 63 65  1  0  0  0
 63141  1  0  0  0
 63142  1  0  0  0
 63143  1  0  0  0
 64144  1  0  0  0
 65145  1  0  0  0
 68 81  1  0  0  0
 71 72  2  0  0  0
 71 73  1  0  0  0
 71146  1  0  0  0
 72 75  1  0  0  0
 72147  1  0  0  0
 73 76  2  0  0  0
 73148  1  0  0  0
 74 75  2  0  0  0
 74 76  1  0  0  0
 74149  1  0  0  0
 75 78  1  0  0  0
 76 84  1  0  0  0
 77 81  1  0  0  0
 77 83  1  0  0  0
 77 86  2  0  0  0
 78 83  1  0  0  0
 78 85  2  0  0  0
 79 80  1  0  0  0
 79 81  1  0  0  0
 79150  1  0  0  0
 79151  1  0  0  0
 80 83  1  0  0  0
 80152  1  0  0  0
 80153  1  0  0  0
 81 82  1  0  0  0
 82154  1  0  0  0
 82155  1  0  0  0
 82156  1  0  0  0
 84157  1  0  0  0
 85158  1  0  0  0
 85159  1  0  0  0
M  CHG  1  85   1
M  ISO  4   1 100  68 101  81 101  84 100
M  END
> <chiral flag>
0

> <version>
0

> <s_m_source_file>
/data/baiqing/PycharmProjects/Reinvent-master-3.2/result/LINK_invent/BTK/process_docking_weight1_custom_product_contain_oxygen_bond_distance_aromatic_linkinvent_7_9_3/rearranged_h_0154.sdf

> <i_m_source_file_index>
84

> <r_mmod_Potential_Energy-OPLS-2005>
71.4296340942383

> <r_mmod_Stretch_Energy-OPLS-2005>
141.862030029297

> <r_mmod_Bend_Energy-OPLS-2005>
204.933258056641

> <r_mmod_Torsional_Energy-OPLS-2005>
282.520141601562

> <r_mmod_Improper_Torsional_Energy-OPLS-2005>
6.71441698074341

> <r_mmod_Van_der_Waal_Energy-OPLS-2005>
150.004974365234

> <r_mmod_Electrostatic_Energy-OPLS-2005>
-405.648742675781

> <r_mmod_Solvation_Energy-OPLS-2005>
-420.189361572266

> <b_mmod_Minimization_Converged-OPLS-2005>
0

> <r_mmod_RMS_Derivative-OPLS-2005>
2.93949675559998

$$$$
84
                    3D
 Structure written by MMmdl.
149158  0  0  1  0            999 V2000
  -30.5641  -14.9811   20.4183 C   0  0  0  0  0  0
  -30.4414  -12.6180   19.4852 C   0  0  0  0  0  0
  -29.5126  -12.5124   18.2538 C   0  0  0  0  0  0
  -28.0527  -12.2841   18.6873 C   0  0  0  0  0  0
  -27.6247  -13.2347   19.8318 C   0  0  2  0  0  0
  -28.6760  -13.2929   20.9631 C   0  0  0  0  0  0
  -25.2399  -13.8126   20.5691 C   0  0  0  0  0  0
  -24.1743  -13.0368   20.9279 C   0  0  0  0  0  0
  -24.6375  -11.6873   20.8815 C   0  0  0  0  0  0
  -23.9063  -10.4251   21.0445 C   0  0  0  0  0  0
  -24.3614   -9.4166   21.9212 C   0  0  0  0  0  0
  -23.6281   -8.2208   22.0762 C   0  0  0  0  0  0
  -22.4265   -8.0261   21.3549 C   0  0  0  0  0  0
  -21.9907   -9.0243   20.4656 C   0  0  0  0  0  0
  -22.7244  -10.2117   20.3077 C   0  0  0  0  0  0
  -21.6842   -6.0729   22.5282 C   0  0  0  0  0  0
  -21.4004   -6.5635   23.8217 C   0  0  0  0  0  0
  -21.3654   -5.6788   24.9180 C   0  0  0  0  0  0
  -21.6042   -4.3052   24.7229 C   0  0  0  0  0  0
  -21.8818   -3.8144   23.4352 C   0  0  0  0  0  0
  -21.9185   -4.6957   22.3406 C   0  0  0  0  0  0
  -22.7762  -13.5166   21.1909 C   0  0  0  0  0  0
  -22.1658   -4.2146   21.0981 F   0  0  0  0  0  0
  -21.5628   -3.4540   25.7738 F   0  0  0  0  0  0
  -29.9392  -13.7289   20.3498 N   0  0  0  0  0  0
  -26.2855  -12.9374   20.3253 N   0  0  0  0  0  0
  -25.9307  -11.6521   20.5807 N   0  0  0  0  0  0
  -22.0405  -12.8179   22.0471 N   0  0  0  0  0  0
  -25.3866  -15.1839   20.3968 N   0  0  0  0  0  0
  -31.7768  -14.9942   20.1782 O   0  0  0  0  0  0
  -21.6621   -6.8871   21.4240 O   0  0  0  0  0  0
  -22.3466  -14.5481   20.6740 O   0  0  0  0  0  0
  -24.6459  -31.8441   23.1872 C   0  0  0  0  0  0
  -25.9228  -32.4695   23.8267 C   0  0  1  0  0  0
  -27.2226  -27.1280   20.1516 C   0  0  0  0  0  0
  -25.5974  -33.8500   24.2187 N   0  0  0  0  0  0
  -23.4505  -30.4638   21.5318 C   0  0  2  0  0  0
  -24.9016  -28.8902   20.1110 C   0  0  0  0  0  0
  -22.7581  -29.4561   22.4843 C   0  0  0  0  0  0
  -18.0302  -28.1417   22.8486 C   0  0  0  0  0  0
  -24.1477  -36.7226   23.2646 C   0  0  0  0  0  0
  -26.0093  -30.7158   21.3875 C   0  0  0  0  0  0
  -26.0801  -29.3265   20.7294 C   0  0  0  0  0  0
  -27.2421  -28.4621   20.7312 C   0  0  0  0  0  0
  -26.0129  -26.7987   19.4965 C   0  0  0  0  0  0
  -24.8815  -27.6405   19.4794 C   0  0  0  0  0  0
  -23.6791  -29.7925   20.1518 C   0  0  0  0  0  0
  -25.4107  -36.3020   24.0327 C   0  0  1  0  0  0
  -20.5928  -28.3743   23.1228 C   0  0  2  0  0  0
  -20.6787  -26.9442   22.5403 C   0  0  0  0  0  0
  -19.5758  -26.6392   21.5226 C   0  0  0  0  0  0
  -18.1936  -26.7960   22.1625 C   0  0  0  0  0  0
  -19.1569  -28.8894   23.2853 C   0  0  0  0  0  0
  -18.9489  -30.1488   23.8883 C   0  0  0  0  0  0
  -17.6487  -30.6612   24.0572 C   0  0  0  0  0  0
  -25.9072  -34.9407   23.5056 C   0  0  0  0  0  0
  -16.5374  -29.9109   23.6352 C   0  0  0  0  0  0
  -16.7288  -28.6526   23.0377 C   0  0  0  0  0  0
  -26.4544  -31.6570   25.0719 C   0  0  0  0  0  0
  -25.3725  -31.3831   26.1421 C   0  0  0  0  0  0
  -27.0372  -30.2940   24.6316 C   0  0  0  0  0  0
  -27.6104  -32.4322   25.7464 C   0  0  0  0  0  0
  -27.5558  -37.1749   24.8474 C   0  0  0  0  0  0
  -21.4273  -29.3068   22.3595 N   0  0  0  0  0  0
  -26.4256  -37.3745   23.9438 N   0  0  0  0  0  0
  -24.7216  -31.0300   22.0902 N   0  0  0  0  0  0
  -23.4216  -28.8104   23.2998 O   0  0  0  0  0  0
  -28.2667  -26.1265   20.2217 O   0  0  0  0  0  0
  -26.5655  -34.8918   22.4631 O   0  0  0  0  0  0
  -23.5568  -32.1308   23.7083 O   0  0  0  0  0  0
  -31.0248  -18.7835   20.2138 C   0  0  0  0  0  0
  -30.5082  -20.1611   20.2034 C   0  0  0  0  0  0
  -28.2254  -19.4204   20.5732 C   0  0  0  0  0  0
  -28.7470  -18.0730   20.5956 C   0  0  0  0  0  0
  -30.1203  -17.6979   20.4132 C   0  0  0  0  0  0
  -29.1138  -20.5599   20.3680 C   0  0  0  0  0  0
  -28.9613  -23.3396   20.2977 C   0  0  0  0  0  0
  -28.3799  -16.5815   20.7109 C   0  0  0  0  0  0
  -27.9136  -24.6110   20.0694 C   0  0  0  0  0  0
  -29.8452  -16.2214   20.5162 N   0  0  0  0  0  0
  -28.5278  -21.9835   20.2768 N   0  0  0  0  0  0
  -30.1535  -23.5989   20.4817 O   0  0  0  0  0  0
  -31.4652  -12.7885   19.1496 H   0  0  0  0  0  0
  -30.4663  -11.6772   20.0365 H   0  0  0  0  0  0
  -29.8389  -11.6983   17.6045 H   0  0  0  0  0  0
  -29.5815  -13.4258   17.6604 H   0  0  0  0  0  0
  -27.9702  -11.2498   19.0248 H   0  0  0  0  0  0
  -27.3791  -12.3806   17.8347 H   0  0  0  0  0  0
  -27.5737  -14.2145   19.3651 H   0  0  0  0  0  0
  -28.7878  -12.3188   21.4420 H   0  0  0  0  0  0
  -28.3698  -13.9843   21.7480 H   0  0  0  0  0  0
  -25.2757   -9.5635   22.4794 H   0  0  0  0  0  0
  -23.9981   -7.4589   22.7472 H   0  0  0  0  0  0
  -21.0837   -8.8774   19.8954 H   0  0  0  0  0  0
  -22.3715  -10.9667   19.6189 H   0  0  0  0  0  0
  -21.1990   -7.6145   23.9717 H   0  0  0  0  0  0
  -21.1480   -6.0523   25.9082 H   0  0  0  0  0  0
  -22.0601   -2.7602   23.2850 H   0  0  0  0  0  0
  -22.4001  -11.9835   22.4870 H   0  0  0  0  0  0
  -21.1035  -13.1239   22.2692 H   0  0  0  0  0  0
  -24.5779  -15.7943   20.4496 H   0  0  0  0  0  0
  -26.1650  -15.6047   19.9113 H   0  0  0  0  0  0
  -26.7296  -32.5295   23.0999 H   0  0  0  0  0  0
  -25.0139  -33.9621   25.0347 H   0  0  0  0  0  0
  -22.7541  -31.2906   21.3736 H   0  0  0  0  0  0
  -23.3780  -35.9512   23.3252 H   0  0  0  0  0  0
  -24.3577  -36.8901   22.2071 H   0  0  0  0  0  0
  -23.7165  -37.6378   23.6711 H   0  0  0  0  0  0
  -26.1668  -31.4678   20.6133 H   0  0  0  0  0  0
  -26.8800  -30.7662   22.0291 H   0  0  0  0  0  0
  -28.1388  -28.7921   21.2364 H   0  0  0  0  0  0
  -25.8964  -25.8452   19.0056 H   0  0  0  0  0  0
  -23.9815  -27.3014   18.9848 H   0  0  0  0  0  0
  -23.8175  -30.5657   19.3953 H   0  0  0  0  0  0
  -22.7960  -29.2326   19.8390 H   0  0  0  0  0  0
  -25.1286  -36.1828   25.0814 H   0  0  0  0  0  0
  -21.0022  -28.3336   24.1348 H   0  0  0  0  0  0
  -20.5695  -26.2369   23.3634 H   0  0  0  0  0  0
  -21.6650  -26.7450   22.1187 H   0  0  0  0  0  0
  -19.6925  -25.6298   21.1262 H   0  0  0  0  0  0
  -19.6695  -27.3200   20.6758 H   0  0  0  0  0  0
  -17.4212  -26.6732   21.4022 H   0  0  0  0  0  0
  -18.0316  -26.0105   22.9017 H   0  0  0  0  0  0
  -19.7972  -30.7307   24.2242 H   0  0  0  0  0  0
  -17.5054  -31.6295   24.5172 H   0  0  0  0  0  0
  -15.5382  -30.3019   23.7700 H   0  0  0  0  0  0
  -15.8684  -28.0839   22.7123 H   0  0  0  0  0  0
  -24.5885  -30.7198   25.7762 H   0  0  0  0  0  0
  -24.8965  -32.3060   26.4747 H   0  0  0  0  0  0
  -25.7996  -30.9063   27.0250 H   0  0  0  0  0  0
  -26.2973  -29.6668   24.1335 H   0  0  0  0  0  0
  -27.3974  -29.7242   25.4890 H   0  0  0  0  0  0
  -27.8900  -30.4142   23.9634 H   0  0  0  0  0  0
  -27.2763  -33.3728   26.1843 H   0  0  0  0  0  0
  -28.4006  -32.6669   25.0328 H   0  0  0  0  0  0
  -28.0645  -31.8546   26.5515 H   0  0  0  0  0  0
  -28.2568  -38.0055   24.7528 H   0  0  0  0  0  0
  -28.1050  -36.2580   24.6270 H   0  0  0  0  0  0
  -27.2293  -37.1367   25.8885 H   0  0  0  0  0  0
  -20.9504  -29.8762   21.6746 H   0  0  0  0  0  0
  -26.0113  -38.2794   24.1498 H   0  0  0  0  0  0
  -32.0785  -18.5978   20.0566 H   0  0  0  0  0  0
  -31.2300  -20.9487   20.0332 H   0  0  0  0  0  0
  -27.1627  -19.5766   20.6960 H   0  0  0  0  0  0
  -27.7362  -16.3003   19.8822 H   0  0  0  0  0  0
  -27.9592  -16.3167   21.6819 H   0  0  0  0  0  0
  -27.0578  -24.4141   20.7158 H   0  0  0  0  0  0
  -27.5591  -24.4756   19.0487 H   0  0  0  0  0  0
  -27.5212  -21.9644   20.1788 H   0  0  0  0  0  0
  1 25  1  0  0  0
  1 30  2  0  0  0
  1 80  1  0  0  0
  2  3  1  0  0  0
  2 25  1  0  0  0
  2 83  1  0  0  0
  2 84  1  0  0  0
  3  4  1  0  0  0
  3 85  1  0  0  0
  3 86  1  0  0  0
  4  5  1  0  0  0
  4 87  1  0  0  0
  4 88  1  0  0  0
  5  6  1  0  0  0
  5 26  1  0  0  0
  5 89  1  0  0  0
  6 25  1  0  0  0
  6 90  1  0  0  0
  6 91  1  0  0  0
  7  8  2  0  0  0
  7 26  1  0  0  0
  7 29  1  0  0  0
  8  9  1  0  0  0
  8 22  1  0  0  0
  9 10  1  0  0  0
  9 27  2  0  0  0
 10 11  2  0  0  0
 10 15  1  0  0  0
 11 12  1  0  0  0
 11 92  1  0  0  0
 12 13  2  0  0  0
 12 93  1  0  0  0
 13 14  1  0  0  0
 13 31  1  0  0  0
 14 15  2  0  0  0
 14 94  1  0  0  0
 15 95  1  0  0  0
 16 17  2  0  0  0
 16 21  1  0  0  0
 16 31  1  0  0  0
 17 18  1  0  0  0
 17 96  1  0  0  0
 18 19  2  0  0  0
 18 97  1  0  0  0
 19 20  1  0  0  0
 19 24  1  0  0  0
 20 21  2  0  0  0
 20 98  1  0  0  0
 21 23  1  0  0  0
 22 28  1  0  0  0
 22 32  2  0  0  0
 26 27  1  0  0  0
 28 99  1  0  0  0
 28100  1  0  0  0
 29101  1  0  0  0
 29102  1  0  0  0
 33 34  1  0  0  0
 33 66  1  0  0  0
 33 70  2  0  0  0
 34 36  1  0  0  0
 34 59  1  0  0  0
 34103  1  0  0  0
 35 44  2  0  0  0
 35 45  1  0  0  0
 35 68  1  0  0  0
 36 56  1  0  0  0
 36104  1  0  0  0
 37 39  1  0  0  0
 37 47  1  0  0  0
 37 66  1  0  0  0
 37105  1  0  0  0
 38 43  2  0  0  0
 38 46  1  0  0  0
 38 47  1  0  0  0
 39 64  1  0  0  0
 39 67  2  0  0  0
 40 52  1  0  0  0
 40 53  2  0  0  0
 40 58  1  0  0  0
 41106  1  0  0  0
 41107  1  0  0  0
 41108  1  0  0  0
 41 48  1  0  0  0
 42 43  1  0  0  0
 42 66  1  0  0  0
 42109  1  0  0  0
 42110  1  0  0  0
 43 44  1  0  0  0
 44111  1  0  0  0
 45 46  2  0  0  0
 45112  1  0  0  0
 46113  1  0  0  0
 47114  1  0  0  0
 47115  1  0  0  0
 48 56  1  0  0  0
 48 65  1  0  0  0
 48116  1  0  0  0
 49 50  1  0  0  0
 49 53  1  0  0  0
 49 64  1  0  0  0
 49117  1  0  0  0
 50 51  1  0  0  0
 50118  1  0  0  0
 50119  1  0  0  0
 51 52  1  0  0  0
 51120  1  0  0  0
 51121  1  0  0  0
 52122  1  0  0  0
 52123  1  0  0  0
 53 54  1  0  0  0
 54 55  2  0  0  0
 54124  1  0  0  0
 55 57  1  0  0  0
 55125  1  0  0  0
 56 69  2  0  0  0
 57 58  2  0  0  0
 57126  1  0  0  0
 58127  1  0  0  0
 59 60  1  0  0  0
 59 61  1  0  0  0
 59 62  1  0  0  0
 60128  1  0  0  0
 60129  1  0  0  0
 60130  1  0  0  0
 61131  1  0  0  0
 61132  1  0  0  0
 61133  1  0  0  0
 62134  1  0  0  0
 62135  1  0  0  0
 62136  1  0  0  0
 63 65  1  0  0  0
 63137  1  0  0  0
 63138  1  0  0  0
 63139  1  0  0  0
 64140  1  0  0  0
 65141  1  0  0  0
 68 79  1  0  0  0
 71 72  2  0  0  0
 71 75  1  0  0  0
 71142  1  0  0  0
 72 76  1  0  0  0
 72143  1  0  0  0
 73 74  1  0  0  0
 73 76  2  0  0  0
 73144  1  0  0  0
 74 75  2  0  0  0
 74 78  1  0  0  0
 75 80  1  0  0  0
 76 81  1  0  0  0
 77 79  1  0  0  0
 77 81  1  0  0  0
 77 82  2  0  0  0
 78 80  1  0  0  0
 78145  1  0  0  0
 78146  1  0  0  0
 79147  1  0  0  0
 79148  1  0  0  0
 81149  1  0  0  0
M  ISO  4   1 100  68 101  79 101  80 100
M  END
> <chiral flag>
0

> <version>
0

> <s_m_source_file>
/data/baiqing/PycharmProjects/Reinvent-master-3.2/result/LINK_invent/BTK/process_docking_weight1_custom_product_contain_oxygen_bond_distance_aromatic_linkinvent_7_9_3/rearranged_h_0154.sdf

> <i_m_source_file_index>
85

> <r_mmod_Potential_Energy-OPLS-2005>
967.912841796875

> <r_mmod_Stretch_Energy-OPLS-2005>
250.132339477539

> <r_mmod_Bend_Energy-OPLS-2005>
686.131164550781

> <r_mmod_Torsional_Energy-OPLS-2005>
264.297912597656

> <r_mmod_Improper_Torsional_Energy-OPLS-2005>
6.35564279556274

> <r_mmod_Van_der_Waal_Energy-OPLS-2005>
126.378677368164

> <r_mmod_Electrostatic_Energy-OPLS-2005>
-334.158142089844

> <r_mmod_Solvation_Energy-OPLS-2005>
-240.042236328125

> <b_mmod_Minimization_Converged-OPLS-2005>
0

> <r_mmod_RMS_Derivative-OPLS-2005>
1.85176646709442

$$$$
85
                    3D
 Structure written by MMmdl.
155163  0  0  1  0            999 V2000
  -30.6419  -14.6012   20.5098 C   0  0  0  0  0  0
  -30.4369  -12.3779   19.4309 C   0  0  0  0  0  0
  -29.4981  -12.5001   18.2107 C   0  0  0  0  0  0
  -28.0224  -12.3401   18.6307 C   0  0  0  0  0  0
  -27.6519  -13.2114   19.8602 C   0  0  2  0  0  0
  -28.7007  -13.0571   20.9833 C   0  0  0  0  0  0
  -25.2560  -13.8155   20.5691 C   0  0  0  0  0  0
  -24.1812  -13.0428   20.9197 C   0  0  0  0  0  0
  -24.6374  -11.6906   20.8754 C   0  0  0  0  0  0
  -23.9047  -10.4294   21.0411 C   0  0  0  0  0  0
  -24.3608   -9.4207   21.9182 C   0  0  0  0  0  0
  -23.6291   -8.2240   22.0750 C   0  0  0  0  0  0
  -22.4271   -8.0277   21.3542 C   0  0  0  0  0  0
  -21.9905   -9.0247   20.4641 C   0  0  0  0  0  0
  -22.7230  -10.2131   20.3056 C   0  0  0  0  0  0
  -21.6854   -6.0731   22.5281 C   0  0  0  0  0  0
  -21.4009   -6.5635   23.8211 C   0  0  0  0  0  0
  -21.3656   -5.6790   24.9174 C   0  0  0  0  0  0
  -21.6049   -4.3053   24.7226 C   0  0  0  0  0  0
  -21.8819   -3.8144   23.4347 C   0  0  0  0  0  0
  -21.9189   -4.6960   22.3405 C   0  0  0  0  0  0
  -22.7838  -13.5226   21.1870 C   0  0  0  0  0  0
  -22.1662   -4.2142   21.0986 F   0  0  0  0  0  0
  -21.5630   -3.4544   25.7739 F   0  0  0  0  0  0
  -30.0139  -13.3913   20.4110 N   0  0  0  0  0  0
  -26.2984  -12.9328   20.3334 N   0  0  0  0  0  0
  -25.9302  -11.6491   20.5774 N   0  0  0  0  0  0
  -22.0489  -12.8211   22.0424 N   0  0  0  0  0  0
  -25.4284  -15.1882   20.4089 N   0  0  0  0  0  0
  -31.8207  -14.7573   20.1812 O   0  0  0  0  0  0
  -21.6641   -6.8873   21.4240 O   0  0  0  0  0  0
  -22.3532  -14.5537   20.6725 O   0  0  0  0  0  0
  -24.6212  -31.8604   23.2062 C   0  0  0  0  0  0
  -25.9071  -32.4783   23.8377 C   0  0  1  0  0  0
  -27.2364  -27.3591   20.1009 C   0  0  0  0  0  0
  -25.5907  -33.8584   24.2290 N   0  0  0  0  0  0
  -23.4151  -30.4830   21.5473 C   0  0  2  0  0  0
  -24.8615  -28.9393   20.1170 C   0  0  0  0  0  0
  -22.7441  -29.4617   22.4955 C   0  0  0  0  0  0
  -18.0285  -28.1384   22.8469 C   0  0  0  0  0  0
  -24.1484  -36.7293   23.2634 C   0  0  0  0  0  0
  -25.9517  -30.8006   21.3733 C   0  0  0  0  0  0
  -26.0263  -29.4285   20.7220 C   0  0  0  0  0  0
  -27.2136  -28.6447   20.7139 C   0  0  0  0  0  0
  -26.0513  -26.9144   19.4716 C   0  0  0  0  0  0
  -24.8720  -27.6836   19.4882 C   0  0  0  0  0  0
  -23.6270  -29.8128   20.1637 C   0  0  0  0  0  0
  -25.4110  -36.3086   24.0326 C   0  0  1  0  0  0
  -20.5873  -28.3675   23.1291 C   0  0  2  0  0  0
  -20.6761  -26.9400   22.5415 C   0  0  0  0  0  0
  -19.5738  -26.6383   21.5213 C   0  0  0  0  0  0
  -18.1916  -26.7924   22.1612 C   0  0  0  0  0  0
  -19.1530  -28.8846   23.2872 C   0  0  0  0  0  0
  -18.9454  -30.1453   23.8890 C   0  0  0  0  0  0
  -17.6455  -30.6581   24.0567 C   0  0  0  0  0  0
  -25.9047  -34.9454   23.5108 C   0  0  0  0  0  0
  -16.5349  -29.9084   23.6332 C   0  0  0  0  0  0
  -16.7275  -28.6506   23.0335 C   0  0  0  0  0  0
  -26.4468  -31.6588   25.0739 C   0  0  0  0  0  0
  -25.3718  -31.3707   26.1482 C   0  0  0  0  0  0
  -27.0306  -30.3013   24.6184 C   0  0  0  0  0  0
  -27.6056  -32.4303   25.7487 C   0  0  0  0  0  0
  -27.5576  -37.1787   24.8454 C   0  0  0  0  0  0
  -21.4159  -29.3041   22.3691 N   0  0  0  0  0  0
  -26.4284  -37.3786   23.9418 N   0  0  0  0  0  0
  -24.6814  -31.0647   22.0994 N   0  0  0  0  0  0
  -23.4179  -28.8152   23.3007 O   0  0  0  0  0  0
  -28.3817  -26.5592   20.0867 O   0  0  0  0  0  0
  -26.5622  -34.8911   22.4671 O   0  0  0  0  0  0
  -23.5379  -32.1387   23.7406 O   0  0  0  0  0  0
  -30.5746  -17.8196   18.7389 C   0  0  0  0  0  0
  -29.9324  -19.5589   20.3359 C   0  0  0  0  0  0
  -30.5329  -20.1674   18.0565 C   0  0  0  0  0  0
  -30.1864  -18.1703   20.0491 C   0  0  0  0  0  0
  -30.7613  -18.8080   17.7550 C   0  0  0  0  0  0
  -30.1020  -20.5768   19.3401 C   0  0  0  0  0  0
  -28.2617  -25.1652   20.2115 C   0  0  0  0  0  0
  -29.2500  -24.2558   19.9525 C   0  0  0  0  0  0
  -29.0391  -22.7846   20.1177 C   0  0  0  0  0  0
  -30.1721  -17.0732   21.1514 C   0  0  0  0  0  0
  -31.2121  -18.4351   16.4887 N   0  0  0  0  0  0
  -30.0049  -22.0127   19.5451 N   0  0  0  0  0  0
  -29.8389  -15.6565   20.8121 N   0  0  0  0  0  0
  -28.0813  -22.2822   20.7075 O   0  0  0  0  0  0
  -30.4523  -24.7059   19.5576 O   0  0  0  0  0  0
  -31.4753  -12.5125   19.1236 H   0  0  0  0  0  0
  -30.3788  -11.3807   19.8696 H   0  0  0  0  0  0
  -29.7548  -11.7509   17.4601 H   0  0  0  0  0  0
  -29.6370  -13.4720   17.7329 H   0  0  0  0  0  0
  -27.8562  -11.2867   18.8618 H   0  0  0  0  0  0
  -27.3632  -12.5731   17.7924 H   0  0  0  0  0  0
  -27.6711  -14.2470   19.5206 H   0  0  0  0  0  0
  -28.7102  -12.0337   21.3603 H   0  0  0  0  0  0
  -28.4588  -13.6888   21.8397 H   0  0  0  0  0  0
  -25.2750   -9.5686   22.4760 H   0  0  0  0  0  0
  -23.9998   -7.4628   22.7466 H   0  0  0  0  0  0
  -21.0837   -8.8760   19.8947 H   0  0  0  0  0  0
  -22.3680  -10.9665   19.6171 H   0  0  0  0  0  0
  -21.2002   -7.6144   23.9710 H   0  0  0  0  0  0
  -21.1478   -6.0524   25.9074 H   0  0  0  0  0  0
  -22.0601   -2.7607   23.2853 H   0  0  0  0  0  0
  -22.4103  -11.9857   22.4781 H   0  0  0  0  0  0
  -21.1106  -13.1223   22.2647 H   0  0  0  0  0  0
  -24.6629  -15.8450   20.5180 H   0  0  0  0  0  0
  -26.2752  -15.6241   20.0660 H   0  0  0  0  0  0
  -26.7138  -32.5445   23.1124 H   0  0  0  0  0  0
  -25.0075  -33.9759   25.0447 H   0  0  0  0  0  0
  -22.7100  -31.3043   21.4021 H   0  0  0  0  0  0
  -23.3746  -35.9621   23.3294 H   0  0  0  0  0  0
  -24.3585  -36.8927   22.2047 H   0  0  0  0  0  0
  -23.7231  -37.6492   23.6664 H   0  0  0  0  0  0
  -26.0807  -31.5615   20.6019 H   0  0  0  0  0  0
  -26.8330  -30.8506   21.9998 H   0  0  0  0  0  0
  -28.1098  -29.0153   21.1913 H   0  0  0  0  0  0
  -26.0305  -25.9606   18.9644 H   0  0  0  0  0  0
  -23.9795  -27.3066   19.0078 H   0  0  0  0  0  0
  -23.7398  -30.5864   19.4040 H   0  0  0  0  0  0
  -22.7508  -29.2353   19.8638 H   0  0  0  0  0  0
  -25.1280  -36.1938   25.0816 H   0  0  0  0  0  0
  -20.9969  -28.3235   24.1411 H   0  0  0  0  0  0
  -20.5640  -26.2279   23.3614 H   0  0  0  0  0  0
  -21.6620  -26.7420   22.1199 H   0  0  0  0  0  0
  -19.6900  -25.6299   21.1229 H   0  0  0  0  0  0
  -19.6688  -27.3197   20.6744 H   0  0  0  0  0  0
  -17.4187  -26.6670   21.4018 H   0  0  0  0  0  0
  -18.0326  -26.0083   22.9018 H   0  0  0  0  0  0
  -19.7939  -30.7264   24.2236 H   0  0  0  0  0  0
  -17.5021  -31.6260   24.5160 H   0  0  0  0  0  0
  -15.5346  -30.2977   23.7676 H   0  0  0  0  0  0
  -15.8669  -28.0839   22.7036 H   0  0  0  0  0  0
  -24.5966  -30.6957   25.7831 H   0  0  0  0  0  0
  -24.8817  -32.2860   26.4829 H   0  0  0  0  0  0
  -25.8066  -30.8985   27.0306 H   0  0  0  0  0  0
  -26.2882  -29.6774   24.1202 H   0  0  0  0  0  0
  -27.4002  -29.7255   25.4680 H   0  0  0  0  0  0
  -27.8749  -30.4298   23.9402 H   0  0  0  0  0  0
  -27.2722  -33.3650   26.2003 H   0  0  0  0  0  0
  -28.3887  -32.6774   25.0306 H   0  0  0  0  0  0
  -28.0696  -31.8454   26.5446 H   0  0  0  0  0  0
  -28.2552  -38.0119   24.7558 H   0  0  0  0  0  0
  -28.1102  -36.2660   24.6197 H   0  0  0  0  0  0
  -27.2309  -37.1332   25.8854 H   0  0  0  0  0  0
  -20.9335  -29.8781   21.6917 H   0  0  0  0  0  0
  -26.0152  -38.2837   24.1485 H   0  0  0  0  0  0
  -30.7834  -16.7856   18.5038 H   0  0  0  0  0  0
  -29.6577  -19.8506   21.3401 H   0  0  0  0  0  0
  -30.7048  -20.9116   17.2901 H   0  0  0  0  0  0
  -27.2813  -24.8573   20.5486 H   0  0  0  0  0  0
  -29.4535  -17.3848   21.9091 H   0  0  0  0  0  0
  -31.1441  -17.0883   21.6467 H   0  0  0  0  0  0
  -31.6391  -17.5194   16.3852 H   0  0  0  0  0  0
  -31.6671  -19.1373   15.9144 H   0  0  0  0  0  0
  -30.6509  -22.5505   18.9865 H   0  0  0  0  0  0
  -28.8747  -15.4082   20.9671 H   0  0  0  0  0  0
  -31.0870  -24.0261   19.7439 H   0  0  0  0  0  0
  1 25  1  0  0  0
  1 30  2  0  0  0
  1 83  1  0  0  0
  2  3  1  0  0  0
  2 25  1  0  0  0
  2 86  1  0  0  0
  2 87  1  0  0  0
  3  4  1  0  0  0
  3 88  1  0  0  0
  3 89  1  0  0  0
  4  5  1  0  0  0
  4 90  1  0  0  0
  4 91  1  0  0  0
  5  6  1  0  0  0
  5 26  1  0  0  0
  5 92  1  0  0  0
  6 25  1  0  0  0
  6 93  1  0  0  0
  6 94  1  0  0  0
  7  8  2  0  0  0
  7 26  1  0  0  0
  7 29  1  0  0  0
  8  9  1  0  0  0
  8 22  1  0  0  0
  9 10  1  0  0  0
  9 27  2  0  0  0
 10 11  2  0  0  0
 10 15  1  0  0  0
 11 12  1  0  0  0
 11 95  1  0  0  0
 12 13  2  0  0  0
 12 96  1  0  0  0
 13 14  1  0  0  0
 13 31  1  0  0  0
 14 15  2  0  0  0
 14 97  1  0  0  0
 15 98  1  0  0  0
 16 17  2  0  0  0
 16 21  1  0  0  0
 16 31  1  0  0  0
 17 18  1  0  0  0
 17 99  1  0  0  0
 18 19  2  0  0  0
 18100  1  0  0  0
 19 20  1  0  0  0
 19 24  1  0  0  0
 20 21  2  0  0  0
 20101  1  0  0  0
 21 23  1  0  0  0
 22 28  1  0  0  0
 22 32  2  0  0  0
 26 27  1  0  0  0
 28102  1  0  0  0
 28103  1  0  0  0
 29104  1  0  0  0
 29105  1  0  0  0
 33 34  1  0  0  0
 33 66  1  0  0  0
 33 70  2  0  0  0
 34 36  1  0  0  0
 34 59  1  0  0  0
 34106  1  0  0  0
 35 44  2  0  0  0
 35 45  1  0  0  0
 35 68  1  0  0  0
 36 56  1  0  0  0
 36107  1  0  0  0
 37 39  1  0  0  0
 37 47  1  0  0  0
 37 66  1  0  0  0
 37108  1  0  0  0
 38 43  2  0  0  0
 38 46  1  0  0  0
 38 47  1  0  0  0
 39 64  1  0  0  0
 39 67  2  0  0  0
 40 52  1  0  0  0
 40 53  2  0  0  0
 40 58  1  0  0  0
 41109  1  0  0  0
 41110  1  0  0  0
 41111  1  0  0  0
 41 48  1  0  0  0
 42 43  1  0  0  0
 42 66  1  0  0  0
 42112  1  0  0  0
 42113  1  0  0  0
 43 44  1  0  0  0
 44114  1  0  0  0
 45 46  2  0  0  0
 45115  1  0  0  0
 46116  1  0  0  0
 47117  1  0  0  0
 47118  1  0  0  0
 48 56  1  0  0  0
 48 65  1  0  0  0
 48119  1  0  0  0
 49 50  1  0  0  0
 49 53  1  0  0  0
 49 64  1  0  0  0
 49120  1  0  0  0
 50 51  1  0  0  0
 50121  1  0  0  0
 50122  1  0  0  0
 51 52  1  0  0  0
 51123  1  0  0  0
 51124  1  0  0  0
 52125  1  0  0  0
 52126  1  0  0  0
 53 54  1  0  0  0
 54 55  2  0  0  0
 54127  1  0  0  0
 55 57  1  0  0  0
 55128  1  0  0  0
 56 69  2  0  0  0
 57 58  2  0  0  0
 57129  1  0  0  0
 58130  1  0  0  0
 59 60  1  0  0  0
 59 61  1  0  0  0
 59 62  1  0  0  0
 60131  1  0  0  0
 60132  1  0  0  0
 60133  1  0  0  0
 61134  1  0  0  0
 61135  1  0  0  0
 61136  1  0  0  0
 62137  1  0  0  0
 62138  1  0  0  0
 62139  1  0  0  0
 63 65  1  0  0  0
 63140  1  0  0  0
 63141  1  0  0  0
 63142  1  0  0  0
 64143  1  0  0  0
 65144  1  0  0  0
 68 77  1  0  0  0
 71 74  2  0  0  0
 71 75  1  0  0  0
 71145  1  0  0  0
 72 74  1  0  0  0
 72 76  2  0  0  0
 72146  1  0  0  0
 73 75  2  0  0  0
 73 76  1  0  0  0
 73147  1  0  0  0
 74 80  1  0  0  0
 75 81  1  0  0  0
 76 82  1  0  0  0
 77 78  2  0  0  0
 77148  1  0  0  0
 78 79  1  0  0  0
 78 85  1  0  0  0
 79 82  1  0  0  0
 79 84  2  0  0  0
 80 83  1  0  0  0
 80149  1  0  0  0
 80150  1  0  0  0
 81151  1  0  0  0
 81152  1  0  0  0
 82153  1  0  0  0
 83154  1  0  0  0
 85155  1  0  0  0
M  ISO  4   1 100  68 101  77 101  83 100
M  END
> <chiral flag>
0

> <version>
0

> <s_m_source_file>
/data/baiqing/PycharmProjects/Reinvent-master-3.2/result/LINK_invent/BTK/process_docking_weight1_custom_product_contain_oxygen_bond_distance_aromatic_linkinvent_7_9_3/rearranged_h_0154.sdf

> <i_m_source_file_index>
86

> <r_mmod_Potential_Energy-OPLS-2005>
-96.0402603149414

> <r_mmod_Stretch_Energy-OPLS-2005>
62.8141021728516

> <r_mmod_Bend_Energy-OPLS-2005>
125.027297973633

> <r_mmod_Torsional_Energy-OPLS-2005>
225.686874389648

> <r_mmod_Improper_Torsional_Energy-OPLS-2005>
9.12115383148193

> <r_mmod_Van_der_Waal_Energy-OPLS-2005>
144.60774230957

> <r_mmod_Electrostatic_Energy-OPLS-2005>
-441.414886474609

> <r_mmod_Solvation_Energy-OPLS-2005>
-256.92822265625

> <b_mmod_Minimization_Converged-OPLS-2005>
0

> <r_mmod_RMS_Derivative-OPLS-2005>
2.49760460853577

$$$$
86
                    3D
 Structure written by MMmdl.
158166  0  0  1  0            999 V2000
  -30.7139  -14.5017   20.5667 C   0  0  0  0  0  0
  -30.4170  -12.3254   19.4361 C   0  0  0  0  0  0
  -29.4951  -12.5065   18.2135 C   0  0  0  0  0  0
  -28.0179  -12.3587   18.6255 C   0  0  0  0  0  0
  -27.6561  -13.2140   19.8697 C   0  0  2  0  0  0
  -28.6980  -13.0315   20.9987 C   0  0  0  0  0  0
  -25.2505  -13.8121   20.5550 C   0  0  0  0  0  0
  -24.1816  -13.0404   20.9190 C   0  0  0  0  0  0
  -24.6403  -11.6886   20.8767 C   0  0  0  0  0  0
  -23.9074  -10.4275   21.0417 C   0  0  0  0  0  0
  -24.3618   -9.4191   21.9196 C   0  0  0  0  0  0
  -23.6291   -8.2228   22.0761 C   0  0  0  0  0  0
  -22.4277   -8.0272   21.3546 C   0  0  0  0  0  0
  -21.9914   -9.0245   20.4647 C   0  0  0  0  0  0
  -22.7250  -10.2121   20.3057 C   0  0  0  0  0  0
  -21.6849   -6.0731   22.5279 C   0  0  0  0  0  0
  -21.4004   -6.5636   23.8210 C   0  0  0  0  0  0
  -21.3655   -5.6791   24.9173 C   0  0  0  0  0  0
  -21.6045   -4.3054   24.7226 C   0  0  0  0  0  0
  -21.8824   -3.8143   23.4349 C   0  0  0  0  0  0
  -21.9194   -4.6958   22.3405 C   0  0  0  0  0  0
  -22.7840  -13.5201   21.1851 C   0  0  0  0  0  0
  -22.1666   -4.2140   21.0983 F   0  0  0  0  0  0
  -21.5627   -3.4535   25.7738 F   0  0  0  0  0  0
  -30.0280  -13.3296   20.4436 N   0  0  0  0  0  0
  -26.2988  -12.9341   20.3322 N   0  0  0  0  0  0
  -25.9341  -11.6499   20.5811 N   0  0  0  0  0  0
  -22.0482  -12.8193   22.0404 N   0  0  0  0  0  0
  -25.4071  -15.1793   20.3656 N   0  0  0  0  0  0
  -31.8404  -14.6430   20.0851 O   0  0  0  0  0  0
  -21.6640   -6.8872   21.4239 O   0  0  0  0  0  0
  -22.3532  -14.5517   20.6713 O   0  0  0  0  0  0
  -24.6158  -31.8671   23.2081 C   0  0  0  0  0  0
  -25.9044  -32.4818   23.8390 C   0  0  1  0  0  0
  -27.2336  -27.4211   20.1063 C   0  0  0  0  0  0
  -25.5902  -33.8613   24.2330 N   0  0  0  0  0  0
  -23.4050  -30.4896   21.5489 C   0  0  2  0  0  0
  -24.8529  -28.9522   20.1144 C   0  0  0  0  0  0
  -22.7421  -29.4656   22.4985 C   0  0  0  0  0  0
  -18.0273  -28.1380   22.8493 C   0  0  0  0  0  0
  -24.1483  -36.7294   23.2642 C   0  0  0  0  0  0
  -25.9346  -30.8311   21.3604 C   0  0  0  0  0  0
  -26.0140  -29.4639   20.7084 C   0  0  0  0  0  0
  -27.2107  -28.7082   20.6948 C   0  0  0  0  0  0
  -26.0579  -26.9282   19.5008 C   0  0  0  0  0  0
  -24.8708  -27.6855   19.5047 C   0  0  0  0  0  0
  -23.6140  -29.8188   20.1642 C   0  0  0  0  0  0
  -25.4104  -36.3106   24.0347 C   0  0  1  0  0  0
  -20.5865  -28.3665   23.1320 C   0  0  2  0  0  0
  -20.6757  -26.9401   22.5421 C   0  0  0  0  0  0
  -19.5741  -26.6389   21.5212 C   0  0  0  0  0  0
  -18.1919  -26.7932   22.1615 C   0  0  0  0  0  0
  -19.1523  -28.8839   23.2902 C   0  0  0  0  0  0
  -18.9449  -30.1446   23.8907 C   0  0  0  0  0  0
  -17.6452  -30.6584   24.0567 C   0  0  0  0  0  0
  -25.9034  -34.9476   23.5137 C   0  0  0  0  0  0
  -16.5343  -29.9085   23.6331 C   0  0  0  0  0  0
  -16.7263  -28.6505   23.0347 C   0  0  0  0  0  0
  -26.4471  -31.6591   25.0714 C   0  0  0  0  0  0
  -25.3733  -31.3664   26.1455 C   0  0  0  0  0  0
  -27.0307  -30.3046   24.6067 C   0  0  0  0  0  0
  -27.6051  -32.4301   25.7480 C   0  0  0  0  0  0
  -27.5580  -37.1800   24.8464 C   0  0  0  0  0  0
  -21.4144  -29.3031   22.3727 N   0  0  0  0  0  0
  -26.4284  -37.3798   23.9426 N   0  0  0  0  0  0
  -24.6704  -31.0770   22.0978 N   0  0  0  0  0  0
  -23.4194  -28.8204   23.3028 O   0  0  0  0  0  0
  -28.3805  -26.6540   20.1179 O   0  0  0  0  0  0
  -26.5591  -34.8931   22.4693 O   0  0  0  0  0  0
  -23.5347  -32.1417   23.7474 O   0  0  0  0  0  0
  -31.3819  -19.6357   21.0278 C   0  0  0  0  0  0
  -31.7984  -17.2648   21.3803 C   0  0  0  0  0  0
  -29.5245  -18.0389   20.9096 C   0  0  0  0  0  0
  -30.0023  -19.3961   20.8242 C   0  0  0  0  0  0
  -30.4411  -16.9469   21.1277 C   0  0  0  0  0  0
  -32.2636  -18.5873   21.3273 C   0  0  0  0  0  0
  -28.0672  -17.7772   20.7440 C   0  0  0  0  0  0
  -28.6734  -24.1919   19.8160 C   0  0  0  0  0  0
  -29.2349  -21.8257   20.7592 C   0  0  0  0  0  0
  -27.3640  -17.1457   21.9387 C   0  0  0  0  0  0
  -28.1670  -22.7644   20.1480 C   0  0  0  0  0  0
  -28.2324  -25.3532   20.7368 C   0  0  0  0  0  0
  -29.1246  -20.4991   20.4834 N   0  0  0  0  0  0
  -30.0391  -15.5484   21.1111 N   0  0  0  0  0  0
  -27.4157  -18.1106   19.7503 O   0  0  0  0  0  0
  -29.3701  -24.4024   18.8152 O   0  0  0  0  0  0
  -30.0924  -22.2839   21.5199 O   0  0  0  0  0  0
  -33.5745  -18.8512   21.5452 F   0  0  0  0  0  0
  -31.4629  -12.4114   19.1353 H   0  0  0  0  0  0
  -30.3122  -11.3209   19.8493 H   0  0  0  0  0  0
  -29.7428  -11.7757   17.4424 H   0  0  0  0  0  0
  -29.6587  -13.4888   17.7679 H   0  0  0  0  0  0
  -27.8390  -11.3043   18.8392 H   0  0  0  0  0  0
  -27.3643  -12.6112   17.7896 H   0  0  0  0  0  0
  -27.6890  -14.2565   19.5523 H   0  0  0  0  0  0
  -28.6797  -12.0064   21.3711 H   0  0  0  0  0  0
  -28.4569  -13.6591   21.8574 H   0  0  0  0  0  0
  -25.2762   -9.5667   22.4770 H   0  0  0  0  0  0
  -23.9994   -7.4618   22.7482 H   0  0  0  0  0  0
  -21.0845   -8.8770   19.8952 H   0  0  0  0  0  0
  -22.3718  -10.9655   19.6157 H   0  0  0  0  0  0
  -21.1988   -7.6143   23.9706 H   0  0  0  0  0  0
  -21.1470   -6.0523   25.9076 H   0  0  0  0  0  0
  -22.0605   -2.7606   23.2853 H   0  0  0  0  0  0
  -22.4091  -11.9837   22.4765 H   0  0  0  0  0  0
  -21.1101  -13.1219   22.2616 H   0  0  0  0  0  0
  -24.6086  -15.8022   20.4140 H   0  0  0  0  0  0
  -26.1972  -15.5919   19.8882 H   0  0  0  0  0  0
  -26.7119  -32.5533   23.1161 H   0  0  0  0  0  0
  -25.0085  -33.9774   25.0497 H   0  0  0  0  0  0
  -22.6951  -31.3073   21.4084 H   0  0  0  0  0  0
  -23.3767  -35.9603   23.3295 H   0  0  0  0  0  0
  -24.3583  -36.8909   22.2058 H   0  0  0  0  0  0
  -23.7210  -37.6489   23.6649 H   0  0  0  0  0  0
  -26.0467  -31.5967   20.5911 H   0  0  0  0  0  0
  -26.8227  -30.8863   21.9784 H   0  0  0  0  0  0
  -28.1079  -29.0995   21.1540 H   0  0  0  0  0  0
  -26.0573  -25.9572   19.0259 H   0  0  0  0  0  0
  -23.9799  -27.2876   19.0385 H   0  0  0  0  0  0
  -23.7200  -30.5919   19.4021 H   0  0  0  0  0  0
  -22.7388  -29.2360   19.8715 H   0  0  0  0  0  0
  -25.1278  -36.1967   25.0840 H   0  0  0  0  0  0
  -20.9962  -28.3217   24.1438 H   0  0  0  0  0  0
  -20.5662  -26.2270   23.3603 H   0  0  0  0  0  0
  -21.6628  -26.7443   22.1214 H   0  0  0  0  0  0
  -19.6904  -25.6305   21.1230 H   0  0  0  0  0  0
  -19.6693  -27.3207   20.6750 H   0  0  0  0  0  0
  -17.4202  -26.6711   21.4000 H   0  0  0  0  0  0
  -18.0300  -26.0059   22.8993 H   0  0  0  0  0  0
  -19.7925  -30.7259   24.2280 H   0  0  0  0  0  0
  -17.5009  -31.6265   24.5167 H   0  0  0  0  0  0
  -15.5343  -30.2987   23.7656 H   0  0  0  0  0  0
  -15.8663  -28.0831   22.7046 H   0  0  0  0  0  0
  -24.5941  -30.6979   25.7777 H   0  0  0  0  0  0
  -24.8873  -32.2793   26.4901 H   0  0  0  0  0  0
  -25.8093  -30.8843   27.0214 H   0  0  0  0  0  0
  -26.2842  -29.6807   24.1137 H   0  0  0  0  0  0
  -27.4121  -29.7277   25.4503 H   0  0  0  0  0  0
  -27.8658  -30.4390   23.9186 H   0  0  0  0  0  0
  -27.2690  -33.3607   26.2063 H   0  0  0  0  0  0
  -28.3859  -32.6844   25.0299 H   0  0  0  0  0  0
  -28.0723  -31.8411   26.5385 H   0  0  0  0  0  0
  -28.2582  -38.0114   24.7544 H   0  0  0  0  0  0
  -28.1094  -36.2649   24.6245 H   0  0  0  0  0  0
  -27.2314  -37.1393   25.8871 H   0  0  0  0  0  0
  -20.9307  -29.8743   21.6939 H   0  0  0  0  0  0
  -26.0173  -38.2877   24.1434 H   0  0  0  0  0  0
  -31.7981  -20.6287   20.9526 H   0  0  0  0  0  0
  -32.5181  -16.4913   21.6032 H   0  0  0  0  0  0
  -27.7481  -17.5633   22.8686 H   0  0  0  0  0  0
  -27.5115  -16.0676   21.9541 H   0  0  0  0  0  0
  -26.2935  -17.3438   21.8928 H   0  0  0  0  0  0
  -27.7763  -22.3227   19.2312 H   0  0  0  0  0  0
  -27.3292  -22.8335   20.8412 H   0  0  0  0  0  0
  -28.8519  -25.3300   21.6332 H   0  0  0  0  0  0
  -27.2084  -25.1781   21.0680 H   0  0  0  0  0  0
  -28.2997  -20.2460   19.9525 H   0  0  0  0  0  0
  -29.0989  -15.3278   21.3986 H   0  0  0  0  0  0
  1 25  1  0  0  0
  1 30  2  0  0  0
  1 84  1  0  0  0
  2  3  1  0  0  0
  2 25  1  0  0  0
  2 89  1  0  0  0
  2 90  1  0  0  0
  3  4  1  0  0  0
  3 91  1  0  0  0
  3 92  1  0  0  0
  4  5  1  0  0  0
  4 93  1  0  0  0
  4 94  1  0  0  0
  5  6  1  0  0  0
  5 26  1  0  0  0
  5 95  1  0  0  0
  6 25  1  0  0  0
  6 96  1  0  0  0
  6 97  1  0  0  0
  7  8  2  0  0  0
  7 26  1  0  0  0
  7 29  1  0  0  0
  8  9  1  0  0  0
  8 22  1  0  0  0
  9 10  1  0  0  0
  9 27  2  0  0  0
 10 11  2  0  0  0
 10 15  1  0  0  0
 11 12  1  0  0  0
 11 98  1  0  0  0
 12 13  2  0  0  0
 12 99  1  0  0  0
 13 14  1  0  0  0
 13 31  1  0  0  0
 14 15  2  0  0  0
 14100  1  0  0  0
 15101  1  0  0  0
 16 17  2  0  0  0
 16 21  1  0  0  0
 16 31  1  0  0  0
 17 18  1  0  0  0
 17102  1  0  0  0
 18 19  2  0  0  0
 18103  1  0  0  0
 19 20  1  0  0  0
 19 24  1  0  0  0
 20 21  2  0  0  0
 20104  1  0  0  0
 21 23  1  0  0  0
 22 28  1  0  0  0
 22 32  2  0  0  0
 26 27  1  0  0  0
 28105  1  0  0  0
 28106  1  0  0  0
 29107  1  0  0  0
 29108  1  0  0  0
 33 34  1  0  0  0
 33 66  1  0  0  0
 33 70  2  0  0  0
 34 36  1  0  0  0
 34 59  1  0  0  0
 34109  1  0  0  0
 35 44  2  0  0  0
 35 45  1  0  0  0
 35 68  1  0  0  0
 36 56  1  0  0  0
 36110  1  0  0  0
 37 39  1  0  0  0
 37 47  1  0  0  0
 37 66  1  0  0  0
 37111  1  0  0  0
 38 43  2  0  0  0
 38 46  1  0  0  0
 38 47  1  0  0  0
 39 64  1  0  0  0
 39 67  2  0  0  0
 40 52  1  0  0  0
 40 53  2  0  0  0
 40 58  1  0  0  0
 41112  1  0  0  0
 41113  1  0  0  0
 41114  1  0  0  0
 41 48  1  0  0  0
 42 43  1  0  0  0
 42 66  1  0  0  0
 42115  1  0  0  0
 42116  1  0  0  0
 43 44  1  0  0  0
 44117  1  0  0  0
 45 46  2  0  0  0
 45118  1  0  0  0
 46119  1  0  0  0
 47120  1  0  0  0
 47121  1  0  0  0
 48 56  1  0  0  0
 48 65  1  0  0  0
 48122  1  0  0  0
 49 50  1  0  0  0
 49 53  1  0  0  0
 49 64  1  0  0  0
 49123  1  0  0  0
 50 51  1  0  0  0
 50124  1  0  0  0
 50125  1  0  0  0
 51 52  1  0  0  0
 51126  1  0  0  0
 51127  1  0  0  0
 52128  1  0  0  0
 52129  1  0  0  0
 53 54  1  0  0  0
 54 55  2  0  0  0
 54130  1  0  0  0
 55 57  1  0  0  0
 55131  1  0  0  0
 56 69  2  0  0  0
 57 58  2  0  0  0
 57132  1  0  0  0
 58133  1  0  0  0
 59 60  1  0  0  0
 59 61  1  0  0  0
 59 62  1  0  0  0
 60134  1  0  0  0
 60135  1  0  0  0
 60136  1  0  0  0
 61137  1  0  0  0
 61138  1  0  0  0
 61139  1  0  0  0
 62140  1  0  0  0
 62141  1  0  0  0
 62142  1  0  0  0
 63 65  1  0  0  0
 63143  1  0  0  0
 63144  1  0  0  0
 63145  1  0  0  0
 64146  1  0  0  0
 65147  1  0  0  0
 68 82  1  0  0  0
 71 74  2  0  0  0
 71 76  1  0  0  0
 71148  1  0  0  0
 72 75  1  0  0  0
 72 76  2  0  0  0
 72149  1  0  0  0
 73 74  1  0  0  0
 73 75  2  0  0  0
 73 77  1  0  0  0
 74 83  1  0  0  0
 75 84  1  0  0  0
 76 88  1  0  0  0
 77 80  1  0  0  0
 77 85  2  0  0  0
 78 81  1  0  0  0
 78 82  1  0  0  0
 78 86  2  0  0  0
 79 81  1  0  0  0
 79 83  1  0  0  0
 79 87  2  0  0  0
 80150  1  0  0  0
 80151  1  0  0  0
 80152  1  0  0  0
 81153  1  0  0  0
 81154  1  0  0  0
 82155  1  0  0  0
 82156  1  0  0  0
 83157  1  0  0  0
 84158  1  0  0  0
M  ISO  4   1 100  68 101  82 101  84 100
M  END
> <chiral flag>
0

> <version>
0

> <s_m_source_file>
/data/baiqing/PycharmProjects/Reinvent-master-3.2/result/LINK_invent/BTK/process_docking_weight1_custom_product_contain_oxygen_bond_distance_aromatic_linkinvent_7_9_3/rearranged_h_0154.sdf

> <i_m_source_file_index>
87

> <r_mmod_Potential_Energy-OPLS-2005>
82.4075469970703

> <r_mmod_Stretch_Energy-OPLS-2005>
53.378532409668

> <r_mmod_Bend_Energy-OPLS-2005>
100.882637023926

> <r_mmod_Torsional_Energy-OPLS-2005>
298.317443847656

> <r_mmod_Improper_Torsional_Energy-OPLS-2005>
5.67042064666748

> <r_mmod_Van_der_Waal_Energy-OPLS-2005>
155.857131958008

> <r_mmod_Electrostatic_Energy-OPLS-2005>
-296.106292724609

> <r_mmod_Solvation_Energy-OPLS-2005>
-252.060455322266

> <b_mmod_Minimization_Converged-OPLS-2005>
0

> <r_mmod_RMS_Derivative-OPLS-2005>
0.927268743515015

$$$$
87
                    3D
 Structure written by MMmdl.
161171  0  0  1  0            999 V2000
  -28.2440  -16.7253   20.9100 C   0  0  0  0  0  0
  -29.8041  -14.2611   19.8515 C   0  0  0  0  0  0
  -29.4485  -13.1905   18.6791 C   0  0  0  0  0  0
  -28.2028  -12.3631   18.9974 C   0  0  0  0  0  0
  -27.3876  -13.2993   19.8772 C   0  0  2  0  0  0
  -28.0724  -13.8664   21.1337 C   0  0  0  0  0  0
  -25.1105  -13.8004   20.5613 C   0  0  0  0  0  0
  -24.0784  -13.0134   20.9342 C   0  0  0  0  0  0
  -24.5617  -11.6677   20.8815 C   0  0  0  0  0  0
  -23.8599  -10.4086   21.0507 C   0  0  0  0  0  0
  -24.3359   -9.4090   21.9240 C   0  0  0  0  0  0
  -23.6151   -8.2080   22.0764 C   0  0  0  0  0  0
  -22.4148   -8.0094   21.3537 C   0  0  0  0  0  0
  -21.9670   -9.0000   20.4635 C   0  0  0  0  0  0
  -22.6868  -10.1916   20.3074 C   0  0  0  0  0  0
  -21.6798   -6.0633   22.5297 C   0  0  0  0  0  0
  -21.3967   -6.5581   23.8212 C   0  0  0  0  0  0
  -21.3650   -5.6761   24.9192 C   0  0  0  0  0  0
  -21.6039   -4.3020   24.7259 C   0  0  0  0  0  0
  -21.8833   -3.8085   23.4394 C   0  0  0  0  0  0
  -21.9177   -4.6877   22.3434 C   0  0  0  0  0  0
  -22.6978  -13.4990   21.2095 C   0  0  0  0  0  0
  -22.1660   -4.2068   21.1009 F   0  0  0  0  0  0
  -21.5639   -3.4518   25.7783 F   0  0  0  0  0  0
  -28.6145  -15.1434   20.6369 N   0  0  0  0  0  0
  -26.1157  -12.9078   20.2799 N   0  0  0  0  0  0
  -25.8385  -11.6242   20.5487 N   0  0  0  0  0  0
  -21.9760  -12.8018   22.0738 N   0  0  0  0  0  0
  -25.2786  -15.1819   20.4188 N   0  0  0  0  0  0
  -29.5265  -16.8857   20.6467 O   0  0  0  0  0  0
  -21.6558   -6.8703   21.4235 O   0  0  0  0  0  0
  -22.2792  -14.5379   20.6988 O   0  0  0  0  0  0
  -24.6545  -31.9504   23.2352 C   0  0  0  0  0  0
  -25.9496  -32.5116   23.8729 C   0  0  1  0  0  0
  -26.1743  -27.2189   20.3994 C   0  0  0  0  0  0
  -25.6387  -33.8871   24.2659 N   0  0  0  0  0  0
  -23.4516  -30.6425   21.5629 C   0  0  2  0  0  0
  -24.8717  -29.3684   19.8031 C   0  0  0  0  0  0
  -23.0332  -29.5066   22.5510 C   0  0  0  0  0  0
  -19.3041  -26.6693   22.7217 C   0  0  0  0  0  0
  -24.1519  -36.7357   23.2583 C   0  0  0  0  0  0
  -25.9924  -30.8472   21.4468 C   0  0  0  0  0  0
  -25.9265  -29.5388   20.6944 C   0  0  0  0  0  0
  -26.7486  -28.4239   20.9143 C   0  0  0  0  0  0
  -25.8824  -27.2686   19.0636 C   0  0  0  0  0  0
  -24.9517  -28.3008   18.8605 C   0  0  0  0  0  0
  -23.6719  -30.2692   20.0383 C   0  0  0  0  0  0
  -25.4132  -36.3228   24.0335 C   0  0  1  0  0  0
  -21.5769  -27.7094   23.2384 C   0  0  2  0  0  0
  -22.6213  -26.2268   22.7661 C   0  0  0  0  0  0
  -21.9974  -25.1221   20.6638 C   0  0  0  0  0  0
  -20.1655  -25.1305   20.8665 C   0  0  0  0  0  0
  -20.0149  -27.8453   23.3122 C   0  0  0  0  0  0
  -19.5030  -29.1865   23.8134 C   0  0  0  0  0  0
  -18.1735  -29.6740   23.8381 C   0  0  0  0  0  0
  -25.9155  -34.9621   23.5198 C   0  0  0  0  0  0
  -17.3125  -28.6726   23.4107 C   0  0  0  0  0  0
  -17.8517  -27.3513   22.9777 C   0  0  0  0  0  0
  -26.4622  -31.6690   25.1024 C   0  0  0  0  0  0
  -25.3731  -31.3806   26.1601 C   0  0  0  0  0  0
  -27.0442  -30.3089   24.6515 C   0  0  0  0  0  0
  -27.6180  -32.4299   25.7896 C   0  0  0  0  0  0
  -27.5623  -37.1858   24.8438 C   0  0  0  0  0  0
  -21.8340  -28.9675   22.4992 N   0  0  0  0  0  0
  -26.4288  -37.3929   23.9456 N   0  0  0  0  0  0
  -24.7139  -31.2087   22.1027 N   0  0  0  0  0  0
  -23.8317  -29.0142   23.3431 O   0  0  0  0  0  0
  -24.9051  -26.7797   20.9568 O   0  0  0  0  0  0
  -26.5486  -34.8996   22.4625 O   0  0  0  0  0  0
  -23.5710  -32.2139   23.7811 O   0  0  0  0  0  0
  -23.3522  -21.7546   21.0927 C   0  0  0  0  0  0
  -24.5086  -20.4391   20.7986 C   0  0  0  0  0  0
  -22.7432  -22.6813   22.2231 C   0  0  0  0  0  0
  -25.5711  -19.5441   21.5533 C   0  0  0  0  0  0
  -21.2371  -26.3804   21.6417 C   0  0  0  0  0  0
  -17.4821  -24.4443   20.2178 C   0  0  0  0  0  0
  -17.8100  -25.7423   19.3493 C   0  0  0  0  0  0
  -19.4917  -24.0187   22.8133 C   0  0  0  0  0  0
  -18.0080  -24.9210   21.6290 C   0  0  1  0  0  0
  -18.3679  -26.5906   20.5229 C   0  0  1  0  0  0
  -24.4532  -19.9621   19.3832 C   0  0  0  0  0  0
  -23.1362  -27.1802   20.7031 C   0  0  0  0  0  0
  -21.3247  -24.2852   22.6129 N   0  0  0  0  0  0
  -20.1181  -27.3426   20.6498 N   0  3  0  0  0  0
  -26.7527  -17.9492   21.3357 N   0  0  0  0  0  0
  -24.3432  -21.0769   22.8713 S   0  0  0  0  0  0
  -30.4624  -14.9892   19.3713 H   0  0  0  0  0  0
  -30.4664  -13.7957   20.5875 H   0  0  0  0  0  0
  -30.3017  -12.5481   18.4545 H   0  0  0  0  0  0
  -29.2514  -13.7581   17.7674 H   0  0  0  0  0  0
  -28.4689  -11.4647   19.5551 H   0  0  0  0  0  0
  -27.6646  -12.0605   18.0994 H   0  0  0  0  0  0
  -27.1672  -14.1041   19.1700 H   0  0  0  0  0  0
  -28.7588  -13.1625   21.6118 H   0  0  0  0  0  0
  -27.3735  -14.1225   21.9333 H   0  0  0  0  0  0
  -25.2494   -9.5680   22.4796 H   0  0  0  0  0  0
  -23.9913   -7.4483   22.7465 H   0  0  0  0  0  0
  -21.0615   -8.8439   19.8944 H   0  0  0  0  0  0
  -22.3290  -10.9457   19.6191 H   0  0  0  0  0  0
  -21.1945   -7.6085   23.9689 H   0  0  0  0  0  0
  -21.1464   -6.0500   25.9092 H   0  0  0  0  0  0
  -22.0626   -2.7543   23.2918 H   0  0  0  0  0  0
  -22.3430  -11.9653   22.5039 H   0  0  0  0  0  0
  -21.0411  -13.1054   22.3087 H   0  0  0  0  0  0
  -24.4629  -15.7827   20.4715 H   0  0  0  0  0  0
  -26.0042  -15.5551   19.8238 H   0  0  0  0  0  0
  -26.7612  -32.5648   23.1496 H   0  0  0  0  0  0
  -25.0788  -34.0087   25.0965 H   0  0  0  0  0  0
  -22.6661  -31.4023   21.5879 H   0  0  0  0  0  0
  -23.3841  -35.9625   23.3184 H   0  0  0  0  0  0
  -24.3661  -36.9016   22.2014 H   0  0  0  0  0  0
  -23.7177  -37.6516   23.6602 H   0  0  0  0  0  0
  -26.2598  -31.6425   20.7493 H   0  0  0  0  0  0
  -26.8306  -30.7490   22.1248 H   0  0  0  0  0  0
  -27.4472  -28.4174   21.7424 H   0  0  0  0  0  0
  -25.7378  -26.3701   18.4810 H   0  0  0  0  0  0
  -24.2322  -28.2235   18.0586 H   0  0  0  0  0  0
  -23.8910  -31.1934   19.5026 H   0  0  0  0  0  0
  -22.7642  -29.9202   19.5482 H   0  0  0  0  0  0
  -25.1257  -36.2112   25.0815 H   0  0  0  0  0  0
  -21.8543  -27.8884   24.2804 H   0  0  0  0  0  0
  -22.6709  -25.6550   23.7007 H   0  0  0  0  0  0
  -23.6804  -26.4703   22.8527 H   0  0  0  0  0  0
  -22.4560  -24.1684   20.4516 H   0  0  0  0  0  0
  -22.0756  -25.4580   19.6359 H   0  0  0  0  0  0
  -20.0616  -25.2732   19.7891 H   0  0  0  0  0  0
  -19.9260  -24.0676   20.6602 H   0  0  0  0  0  0
  -20.2350  -29.8881   24.1870 H   0  0  0  0  0  0
  -17.8700  -30.6509   24.1861 H   0  0  0  0  0  0
  -16.2444  -28.8487   23.4029 H   0  0  0  0  0  0
  -16.9704  -26.8312   22.6523 H   0  0  0  0  0  0
  -24.5907  -30.7236   25.7773 H   0  0  0  0  0  0
  -24.8950  -32.2974   26.5064 H   0  0  0  0  0  0
  -25.7930  -30.8867   27.0373 H   0  0  0  0  0  0
  -26.3090  -29.6916   24.1351 H   0  0  0  0  0  0
  -27.3862  -29.7270   25.5086 H   0  0  0  0  0  0
  -27.9112  -30.4323   24.0017 H   0  0  0  0  0  0
  -27.2830  -33.3573   26.2558 H   0  0  0  0  0  0
  -28.4052  -32.6878   25.0794 H   0  0  0  0  0  0
  -28.0777  -31.8326   26.5781 H   0  0  0  0  0  0
  -28.2500  -38.0299   24.7740 H   0  0  0  0  0  0
  -28.1277  -36.2857   24.5960 H   0  0  0  0  0  0
  -27.2379  -37.1121   25.8835 H   0  0  0  0  0  0
  -21.0855  -29.4014   21.9781 H   0  0  0  0  0  0
  -26.0174  -38.2972   24.1604 H   0  0  0  0  0  0
  -22.8603  -21.9953   20.1594 H   0  0  0  0  0  0
  -17.9751  -23.5476   19.8383 H   0  0  0  0  0  0
  -16.4066  -24.2571   20.2317 H   0  0  0  0  0  0
  -16.8971  -26.1876   18.9533 H   0  0  0  0  0  0
  -18.4850  -25.5738   18.5109 H   0  0  0  0  0  0
  -19.3479  -22.9415   22.7693 H   0  0  0  0  0  0
  -19.2793  -24.2580   23.8561 H   0  0  0  0  0  0
  -17.0825  -24.9302   22.2087 H   0  0  0  0  0  0
  -17.6388  -27.3948   20.6221 H   0  0  0  0  0  0
  -23.9033  -20.6341   18.7275 H   0  0  0  0  0  0
  -23.9706  -18.9890   19.3468 H   0  0  0  0  0  0
  -25.4551  -19.8474   18.9766 H   0  0  0  0  0  0
  -22.9095  -28.1764   20.5577 H   0  0  0  0  0  0
  -23.0681  -27.0477   19.6290 H   0  0  0  0  0  0
  -20.3951  -28.1261   20.0793 H   0  0  0  0  0  0
  -26.1207  -17.1939   21.5802 H   0  0  0  0  0  0
  1 25  1  0  0  0
  1 30  2  0  0  0
  1 85  1  0  0  0
  2  3  1  0  0  0
  2 25  1  0  0  0
  2 87  1  0  0  0
  2 88  1  0  0  0
  3  4  1  0  0  0
  3 89  1  0  0  0
  3 90  1  0  0  0
  4  5  1  0  0  0
  4 91  1  0  0  0
  4 92  1  0  0  0
  5  6  1  0  0  0
  5 26  1  0  0  0
  5 93  1  0  0  0
  6 25  1  0  0  0
  6 94  1  0  0  0
  6 95  1  0  0  0
  7  8  2  0  0  0
  7 26  1  0  0  0
  7 29  1  0  0  0
  8  9  1  0  0  0
  8 22  1  0  0  0
  9 10  1  0  0  0
  9 27  2  0  0  0
 10 11  2  0  0  0
 10 15  1  0  0  0
 11 12  1  0  0  0
 11 96  1  0  0  0
 12 13  2  0  0  0
 12 97  1  0  0  0
 13 14  1  0  0  0
 13 31  1  0  0  0
 14 15  2  0  0  0
 14 98  1  0  0  0
 15 99  1  0  0  0
 16 17  2  0  0  0
 16 21  1  0  0  0
 16 31  1  0  0  0
 17 18  1  0  0  0
 17100  1  0  0  0
 18 19  2  0  0  0
 18101  1  0  0  0
 19 20  1  0  0  0
 19 24  1  0  0  0
 20 21  2  0  0  0
 20102  1  0  0  0
 21 23  1  0  0  0
 22 28  1  0  0  0
 22 32  2  0  0  0
 26 27  1  0  0  0
 28103  1  0  0  0
 28104  1  0  0  0
 29105  1  0  0  0
 29106  1  0  0  0
 33 34  1  0  0  0
 33 66  1  0  0  0
 33 70  2  0  0  0
 34 36  1  0  0  0
 34 59  1  0  0  0
 34107  1  0  0  0
 35 44  2  0  0  0
 35 45  1  0  0  0
 35 68  1  0  0  0
 36 56  1  0  0  0
 36108  1  0  0  0
 37 39  1  0  0  0
 37 47  1  0  0  0
 37 66  1  0  0  0
 37109  1  0  0  0
 38 43  2  0  0  0
 38 46  1  0  0  0
 38 47  1  0  0  0
 39 64  1  0  0  0
 39 67  2  0  0  0
 40 52  1  0  0  0
 40 53  2  0  0  0
 40 58  1  0  0  0
 41110  1  0  0  0
 41111  1  0  0  0
 41112  1  0  0  0
 41 48  1  0  0  0
 42 43  1  0  0  0
 42 66  1  0  0  0
 42113  1  0  0  0
 42114  1  0  0  0
 43 44  1  0  0  0
 44115  1  0  0  0
 45 46  2  0  0  0
 45116  1  0  0  0
 46117  1  0  0  0
 47118  1  0  0  0
 47119  1  0  0  0
 48 56  1  0  0  0
 48 65  1  0  0  0
 48120  1  0  0  0
 49 50  1  0  0  0
 49 53  1  0  0  0
 49 64  1  0  0  0
 49121  1  0  0  0
 50 51  1  0  0  0
 50122  1  0  0  0
 50123  1  0  0  0
 51 52  1  0  0  0
 51124  1  0  0  0
 51125  1  0  0  0
 52126  1  0  0  0
 52127  1  0  0  0
 53 54  1  0  0  0
 54 55  2  0  0  0
 54128  1  0  0  0
 55 57  1  0  0  0
 55129  1  0  0  0
 56 69  2  0  0  0
 57 58  2  0  0  0
 57130  1  0  0  0
 58131  1  0  0  0
 59 60  1  0  0  0
 59 61  1  0  0  0
 59 62  1  0  0  0
 60132  1  0  0  0
 60133  1  0  0  0
 60134  1  0  0  0
 61135  1  0  0  0
 61136  1  0  0  0
 61137  1  0  0  0
 62138  1  0  0  0
 62139  1  0  0  0
 62140  1  0  0  0
 63 65  1  0  0  0
 63141  1  0  0  0
 63142  1  0  0  0
 63143  1  0  0  0
 64144  1  0  0  0
 65145  1  0  0  0
 68 82  1  0  0  0
 71 72  1  0  0  0
 71 73  2  0  0  0
 71146  1  0  0  0
 72 74  2  0  0  0
 72 81  1  0  0  0
 73 83  1  0  0  0
 73 86  1  0  0  0
 74 85  1  0  0  0
 74 86  1  0  0  0
 75 82  1  0  0  0
 75 83  1  0  0  0
 75 84  2  0  0  0
 76 77  1  0  0  0
 76147  1  0  0  0
 76148  1  0  0  0
 76 79  1  0  0  0
 77149  1  0  0  0
 77150  1  0  0  0
 77 80  1  0  0  0
 78 79  1  0  0  0
 78 83  1  0  0  0
 78151  1  0  0  0
 78152  1  0  0  0
 79 80  1  0  0  0
 79153  1  0  0  0
 80 84  1  0  0  0
 80154  1  0  0  0
 81155  1  0  0  0
 81156  1  0  0  0
 81157  1  0  0  0
 82158  1  0  0  0
 82159  1  0  0  0
 84160  1  0  0  0
 85161  1  0  0  0
M  CHG  1  84   1
M  ISO  4   1 100  68 101  82 101  85 100
M  END
> <chiral flag>
0

> <version>
0

> <s_m_source_file>
/data/baiqing/PycharmProjects/Reinvent-master-3.2/result/LINK_invent/BTK/process_docking_weight1_custom_product_contain_oxygen_bond_distance_aromatic_linkinvent_7_9_3/rearranged_h_0154.sdf

> <i_m_source_file_index>
88

> <r_mmod_Potential_Energy-OPLS-2005>
26282.4140625

> <r_mmod_Stretch_Energy-OPLS-2005>
11654.490234375

> <r_mmod_Bend_Energy-OPLS-2005>
2631.93896484375

> <r_mmod_Torsional_Energy-OPLS-2005>
681.072021484375

> <r_mmod_Improper_Torsional_Energy-OPLS-2005>
68.0712356567383

> <r_mmod_Van_der_Waal_Energy-OPLS-2005>
3052.97607421875

> <r_mmod_Electrostatic_Energy-OPLS-2005>
-295.034332275391

> <r_mmod_Solvation_Energy-OPLS-2005>
-395.663391113281

> <b_mmod_Minimization_Converged-OPLS-2005>
0

> <r_mmod_RMS_Derivative-OPLS-2005>
9.69252872467041

$$$$
88
                    3D
 Structure written by MMmdl.
157166  0  0  1  0            999 V2000
  -30.6275  -14.7562   20.4296 C   0  0  0  0  0  0
  -30.4240  -12.4590   19.4754 C   0  0  0  0  0  0
  -29.5111  -12.5161   18.2340 C   0  0  0  0  0  0
  -28.0330  -12.3544   18.6389 C   0  0  0  0  0  0
  -27.6422  -13.2434   19.8504 C   0  0  2  0  0  0
  -28.6879  -13.1974   20.9848 C   0  0  0  0  0  0
  -25.2532  -13.8226   20.5685 C   0  0  0  0  0  0
  -24.1846  -13.0451   20.9224 C   0  0  0  0  0  0
  -24.6447  -11.6933   20.8769 C   0  0  0  0  0  0
  -23.9115  -10.4314   21.0415 C   0  0  0  0  0  0
  -24.3657   -9.4224   21.9191 C   0  0  0  0  0  0
  -23.6324   -8.2267   22.0764 C   0  0  0  0  0  0
  -22.4298   -8.0314   21.3562 C   0  0  0  0  0  0
  -21.9950   -9.0291   20.4660 C   0  0  0  0  0  0
  -22.7289  -10.2160   20.3065 C   0  0  0  0  0  0
  -21.6869   -6.0757   22.5291 C   0  0  0  0  0  0
  -21.4023   -6.5654   23.8221 C   0  0  0  0  0  0
  -21.3658   -5.6798   24.9180 C   0  0  0  0  0  0
  -21.6050   -4.3062   24.7226 C   0  0  0  0  0  0
  -21.8817   -3.8159   23.4343 C   0  0  0  0  0  0
  -21.9200   -4.6988   22.3399 C   0  0  0  0  0  0
  -22.7864  -13.5227   21.1868 C   0  0  0  0  0  0
  -22.1658   -4.2174   21.0979 F   0  0  0  0  0  0
  -21.5640   -3.4533   25.7731 F   0  0  0  0  0  0
  -29.9860  -13.5374   20.3941 N   0  0  0  0  0  0
  -26.2970  -12.9452   20.3295 N   0  0  0  0  0  0
  -25.9387  -11.6584   20.5771 N   0  0  0  0  0  0
  -22.0489  -12.8213   22.0417 N   0  0  0  0  0  0
  -25.4214  -15.1969   20.4063 N   0  0  0  0  0  0
  -31.8289  -14.7948   20.1480 O   0  0  0  0  0  0
  -21.6663   -6.8910   21.4253 O   0  0  0  0  0  0
  -22.3543  -14.5512   20.6693 O   0  0  0  0  0  0
  -24.6313  -31.8555   23.2011 C   0  0  0  0  0  0
  -25.9116  -32.4773   23.8379 C   0  0  1  0  0  0
  -27.1905  -27.2453   20.1300 C   0  0  0  0  0  0
  -25.5916  -33.8587   24.2290 N   0  0  0  0  0  0
  -23.4310  -30.4822   21.5409 C   0  0  2  0  0  0
  -24.8745  -28.9333   20.1049 C   0  0  0  0  0  0
  -22.7505  -29.4605   22.4850 C   0  0  0  0  0  0
  -18.0282  -28.1404   22.8473 C   0  0  0  0  0  0
  -24.1483  -36.7301   23.2644 C   0  0  0  0  0  0
  -25.9805  -30.7633   21.3862 C   0  0  0  0  0  0
  -26.0476  -29.3872   20.7224 C   0  0  0  0  0  0
  -27.2145  -28.5552   20.7214 C   0  0  0  0  0  0
  -26.0073  -26.8790   19.4530 C   0  0  0  0  0  0
  -24.8608  -27.6929   19.4536 C   0  0  0  0  0  0
  -23.6511  -29.8261   20.1533 C   0  0  0  0  0  0
  -25.4113  -36.3088   24.0328 C   0  0  1  0  0  0
  -20.5893  -28.3728   23.1229 C   0  0  2  0  0  0
  -20.6774  -26.9434   22.5380 C   0  0  0  0  0  0
  -19.5760  -26.6390   21.5179 C   0  0  0  0  0  0
  -18.1944  -26.7954   22.1595 C   0  0  0  0  0  0
  -19.1541  -28.8882   23.2866 C   0  0  0  0  0  0
  -18.9463  -30.1481   23.8899 C   0  0  0  0  0  0
  -17.6458  -30.6604   24.0566 C   0  0  0  0  0  0
  -25.9041  -34.9442   23.5105 C   0  0  0  0  0  0
  -16.5350  -29.9101   23.6324 C   0  0  0  0  0  0
  -16.7267  -28.6517   23.0352 C   0  0  0  0  0  0
  -26.4493  -31.6622   25.0770 C   0  0  0  0  0  0
  -25.3733  -31.3752   26.1500 C   0  0  0  0  0  0
  -27.0343  -30.3037   24.6280 C   0  0  0  0  0  0
  -27.6035  -32.4392   25.7538 C   0  0  0  0  0  0
  -27.5586  -37.1799   24.8460 C   0  0  0  0  0  0
  -21.4202  -29.3080   22.3610 N   0  0  0  0  0  0
  -26.4291  -37.3773   23.9405 N   0  0  0  0  0  0
  -24.7002  -31.0509   22.0994 N   0  0  0  0  0  0
  -23.4196  -28.8111   23.2928 O   0  0  0  0  0  0
  -28.2497  -26.3125   20.1837 O   0  0  0  0  0  0
  -26.5601  -34.8895   22.4666 O   0  0  0  0  0  0
  -23.5447  -32.1365   23.7288 O   0  0  0  0  0  0
  -29.4142  -18.5873   20.4909 C   0  0  0  0  0  0
  -31.3865  -17.6711   19.6159 C   0  0  0  0  0  0
  -30.2182  -17.3522   20.2563 C   0  0  0  0  0  0
  -29.9990  -19.7965   20.0345 C   0  0  0  0  0  0
  -30.8403  -22.2783   20.4225 C   0  0  0  0  0  0
  -30.2919  -23.7278   20.4471 C   0  0  0  0  0  0
  -29.7047  -21.3651   19.9069 C   0  0  2  0  0  0
  -28.8244  -23.6439   20.0117 C   0  0  2  0  0  0
  -27.2248  -21.6765   19.7137 C   0  0  0  0  0  0
  -27.9264  -24.8793   20.5522 C   0  0  0  0  0  0
  -29.8791  -15.9291   20.5819 N   0  0  0  0  0  0
  -28.4817  -22.1675   20.3193 N   0  3  1  0  0  0
  -31.5348  -19.3735   19.2975 S   0  0  0  0  0  0
  -31.4671  -12.5683   19.1716 H   0  0  0  0  0  0
  -30.3531  -11.4847   19.9610 H   0  0  0  0  0  0
  -29.7933  -11.7415   17.5205 H   0  0  0  0  0  0
  -29.6532  -13.4703   17.7229 H   0  0  0  0  0  0
  -27.8680  -11.3034   18.8770 H   0  0  0  0  0  0
  -27.3820  -12.5769   17.7917 H   0  0  0  0  0  0
  -27.6285  -14.2661   19.4733 H   0  0  0  0  0  0
  -28.7257  -12.2127   21.4538 H   0  0  0  0  0  0
  -28.4263  -13.9072   21.7720 H   0  0  0  0  0  0
  -25.2796   -9.5694   22.4773 H   0  0  0  0  0  0
  -24.0038   -7.4654   22.7465 H   0  0  0  0  0  0
  -21.0887   -8.8810   19.8957 H   0  0  0  0  0  0
  -22.3747  -10.9711   19.6183 H   0  0  0  0  0  0
  -21.2000   -7.6156   23.9729 H   0  0  0  0  0  0
  -21.1484   -6.0526   25.9085 H   0  0  0  0  0  0
  -22.0589   -2.7625   23.2828 H   0  0  0  0  0  0
  -22.4049  -11.9845   22.4796 H   0  0  0  0  0  0
  -21.1132  -13.1283   22.2613 H   0  0  0  0  0  0
  -24.6506  -15.8486   20.5039 H   0  0  0  0  0  0
  -26.2608  -15.6335   20.0471 H   0  0  0  0  0  0
  -26.7189  -32.5418   23.1127 H   0  0  0  0  0  0
  -25.0091  -33.9791   25.0451 H   0  0  0  0  0  0
  -22.7307  -31.3079   21.3965 H   0  0  0  0  0  0
  -23.3731  -35.9644   23.3294 H   0  0  0  0  0  0
  -24.3589  -36.8928   22.2064 H   0  0  0  0  0  0
  -23.7230  -37.6496   23.6675 H   0  0  0  0  0  0
  -26.1251  -31.5280   20.6217 H   0  0  0  0  0  0
  -26.8567  -30.8111   22.0214 H   0  0  0  0  0  0
  -28.1168  -28.8891   21.2152 H   0  0  0  0  0  0
  -25.9417  -25.9431   18.9173 H   0  0  0  0  0  0
  -23.9679  -27.3587   18.9416 H   0  0  0  0  0  0
  -23.7876  -30.6077   19.4042 H   0  0  0  0  0  0
  -22.7683  -29.2671   19.8354 H   0  0  0  0  0  0
  -25.1279  -36.1964   25.0821 H   0  0  0  0  0  0
  -21.0018  -28.3312   24.1336 H   0  0  0  0  0  0
  -20.5647  -26.2339   23.3594 H   0  0  0  0  0  0
  -21.6650  -26.7442   22.1195 H   0  0  0  0  0  0
  -19.6921  -25.6285   21.1256 H   0  0  0  0  0  0
  -19.6717  -27.3152   20.6678 H   0  0  0  0  0  0
  -17.4203  -26.6675   21.4008 H   0  0  0  0  0  0
  -18.0378  -26.0096   22.9001 H   0  0  0  0  0  0
  -19.7939  -30.7304   24.2266 H   0  0  0  0  0  0
  -17.5006  -31.6280   24.5181 H   0  0  0  0  0  0
  -15.5354  -30.3013   23.7663 H   0  0  0  0  0  0
  -15.8654  -28.0845   22.7076 H   0  0  0  0  0  0
  -24.5882  -30.7137   25.7816 H   0  0  0  0  0  0
  -24.8954  -32.2907   26.4998 H   0  0  0  0  0  0
  -25.8066  -30.8872   27.0240 H   0  0  0  0  0  0
  -26.2928  -29.6788   24.1284 H   0  0  0  0  0  0
  -27.3963  -29.7318   25.4833 H   0  0  0  0  0  0
  -27.8845  -30.4282   23.9568 H   0  0  0  0  0  0
  -27.2613  -33.3676   26.2136 H   0  0  0  0  0  0
  -28.3825  -32.7013   25.0361 H   0  0  0  0  0  0
  -28.0736  -31.8531   26.5441 H   0  0  0  0  0  0
  -28.2572  -38.0123   24.7497 H   0  0  0  0  0  0
  -28.1110  -36.2637   24.6286 H   0  0  0  0  0  0
  -27.2312  -37.1449   25.8868 H   0  0  0  0  0  0
  -20.9378  -29.8884   21.6895 H   0  0  0  0  0  0
  -26.0170  -38.2846   24.1406 H   0  0  0  0  0  0
  -28.4424  -18.5418   20.9616 H   0  0  0  0  0  0
  -32.1862  -17.0249   19.2753 H   0  0  0  0  0  0
  -31.1272  -21.9811   21.4317 H   0  0  0  0  0  0
  -31.7371  -22.2129   19.8059 H   0  0  0  0  0  0
  -30.8552  -24.3903   19.7891 H   0  0  0  0  0  0
  -30.3670  -24.1434   21.4529 H   0  0  0  0  0  0
  -29.6952  -21.5089   18.8249 H   0  0  0  0  0  0
  -28.8048  -23.7270   18.9224 H   0  0  0  0  0  0
  -27.1006  -20.6118   19.9150 H   0  0  0  0  0  0
  -27.2171  -21.8150   18.6333 H   0  0  0  0  0  0
  -26.3574  -22.1868   20.1320 H   0  0  0  0  0  0
  -27.9312  -24.8457   21.6419 H   0  0  0  0  0  0
  -26.8980  -24.6380   20.2919 H   0  0  0  0  0  0
  -28.9251  -15.7685   20.8658 H   0  0  0  0  0  0
  -28.3937  -22.0548   21.3189 H   0  0  0  0  0  0
  1 25  1  0  0  0
  1 30  2  0  0  0
  1 81  1  0  0  0
  2  3  1  0  0  0
  2 25  1  0  0  0
  2 84  1  0  0  0
  2 85  1  0  0  0
  3  4  1  0  0  0
  3 86  1  0  0  0
  3 87  1  0  0  0
  4  5  1  0  0  0
  4 88  1  0  0  0
  4 89  1  0  0  0
  5  6  1  0  0  0
  5 26  1  0  0  0
  5 90  1  0  0  0
  6 25  1  0  0  0
  6 91  1  0  0  0
  6 92  1  0  0  0
  7  8  2  0  0  0
  7 26  1  0  0  0
  7 29  1  0  0  0
  8  9  1  0  0  0
  8 22  1  0  0  0
  9 10  1  0  0  0
  9 27  2  0  0  0
 10 11  2  0  0  0
 10 15  1  0  0  0
 11 12  1  0  0  0
 11 93  1  0  0  0
 12 13  2  0  0  0
 12 94  1  0  0  0
 13 14  1  0  0  0
 13 31  1  0  0  0
 14 15  2  0  0  0
 14 95  1  0  0  0
 15 96  1  0  0  0
 16 17  2  0  0  0
 16 21  1  0  0  0
 16 31  1  0  0  0
 17 18  1  0  0  0
 17 97  1  0  0  0
 18 19  2  0  0  0
 18 98  1  0  0  0
 19 20  1  0  0  0
 19 24  1  0  0  0
 20 21  2  0  0  0
 20 99  1  0  0  0
 21 23  1  0  0  0
 22 28  1  0  0  0
 22 32  2  0  0  0
 26 27  1  0  0  0
 28100  1  0  0  0
 28101  1  0  0  0
 29102  1  0  0  0
 29103  1  0  0  0
 33 34  1  0  0  0
 33 66  1  0  0  0
 33 70  2  0  0  0
 34 36  1  0  0  0
 34 59  1  0  0  0
 34104  1  0  0  0
 35 44  2  0  0  0
 35 45  1  0  0  0
 35 68  1  0  0  0
 36 56  1  0  0  0
 36105  1  0  0  0
 37 39  1  0  0  0
 37 47  1  0  0  0
 37 66  1  0  0  0
 37106  1  0  0  0
 38 43  2  0  0  0
 38 46  1  0  0  0
 38 47  1  0  0  0
 39 64  1  0  0  0
 39 67  2  0  0  0
 40 52  1  0  0  0
 40 53  2  0  0  0
 40 58  1  0  0  0
 41107  1  0  0  0
 41108  1  0  0  0
 41109  1  0  0  0
 41 48  1  0  0  0
 42 43  1  0  0  0
 42 66  1  0  0  0
 42110  1  0  0  0
 42111  1  0  0  0
 43 44  1  0  0  0
 44112  1  0  0  0
 45 46  2  0  0  0
 45113  1  0  0  0
 46114  1  0  0  0
 47115  1  0  0  0
 47116  1  0  0  0
 48 56  1  0  0  0
 48 65  1  0  0  0
 48117  1  0  0  0
 49 50  1  0  0  0
 49 53  1  0  0  0
 49 64  1  0  0  0
 49118  1  0  0  0
 50 51  1  0  0  0
 50119  1  0  0  0
 50120  1  0  0  0
 51 52  1  0  0  0
 51121  1  0  0  0
 51122  1  0  0  0
 52123  1  0  0  0
 52124  1  0  0  0
 53 54  1  0  0  0
 54 55  2  0  0  0
 54125  1  0  0  0
 55 57  1  0  0  0
 55126  1  0  0  0
 56 69  2  0  0  0
 57 58  2  0  0  0
 57127  1  0  0  0
 58128  1  0  0  0
 59 60  1  0  0  0
 59 61  1  0  0  0
 59 62  1  0  0  0
 60129  1  0  0  0
 60130  1  0  0  0
 60131  1  0  0  0
 61132  1  0  0  0
 61133  1  0  0  0
 61134  1  0  0  0
 62135  1  0  0  0
 62136  1  0  0  0
 62137  1  0  0  0
 63 65  1  0  0  0
 63138  1  0  0  0
 63139  1  0  0  0
 63140  1  0  0  0
 64141  1  0  0  0
 65142  1  0  0  0
 68 80  1  0  0  0
 71 73  1  0  0  0
 71 74  2  0  0  0
 71143  1  0  0  0
 72 73  2  0  0  0
 72 83  1  0  0  0
 72144  1  0  0  0
 73 81  1  0  0  0
 74 83  1  0  0  0
 74 77  1  0  0  0
 75 76  1  0  0  0
 75 77  1  0  0  0
 75145  1  0  0  0
 75146  1  0  0  0
 76 78  1  0  0  0
 76147  1  0  0  0
 76148  1  0  0  0
 77 82  1  0  0  0
 77149  1  0  0  0
 78 80  1  0  0  0
 78 82  1  0  0  0
 78150  1  0  0  0
 79151  1  0  0  0
 79152  1  0  0  0
 79153  1  0  0  0
 79 82  1  0  0  0
 80154  1  0  0  0
 80155  1  0  0  0
 81156  1  0  0  0
 82157  1  0  0  0
M  CHG  1  82   1
M  ISO  4   1 100  68 101  80 101  81 100
M  END
> <chiral flag>
0

> <version>
0

> <s_m_source_file>
/data/baiqing/PycharmProjects/Reinvent-master-3.2/result/LINK_invent/BTK/process_docking_weight1_custom_product_contain_oxygen_bond_distance_aromatic_linkinvent_7_9_3/rearranged_h_0154.sdf

> <i_m_source_file_index>
89

> <r_mmod_Potential_Energy-OPLS-2005>
216.10107421875

> <r_mmod_Stretch_Energy-OPLS-2005>
130.580795288086

> <r_mmod_Bend_Energy-OPLS-2005>
245.558502197266

> <r_mmod_Torsional_Energy-OPLS-2005>
276.581024169922

> <r_mmod_Improper_Torsional_Energy-OPLS-2005>
4.72533750534058

> <r_mmod_Van_der_Waal_Energy-OPLS-2005>
122.393539428711

> <r_mmod_Electrostatic_Energy-OPLS-2005>
-230.660278320312

> <r_mmod_Solvation_Energy-OPLS-2005>
-430.481109619141

> <b_mmod_Minimization_Converged-OPLS-2005>
0

> <r_mmod_RMS_Derivative-OPLS-2005>
2.9762818813324

$$$$
89
                    3D
 Structure written by MMmdl.
154163  0  0  1  0            999 V2000
  -30.5634  -14.8925   20.4553 C   0  0  0  0  0  0
  -30.4445  -12.5606   19.4746 C   0  0  0  0  0  0
  -29.5128  -12.5256   18.2384 C   0  0  0  0  0  0
  -28.0469  -12.3145   18.6632 C   0  0  0  0  0  0
  -27.6342  -13.2421   19.8381 C   0  0  2  0  0  0
  -28.6851  -13.2291   20.9713 C   0  0  0  0  0  0
  -25.2453  -13.8222   20.5693 C   0  0  0  0  0  0
  -24.1764  -13.0442   20.9252 C   0  0  0  0  0  0
  -24.6383  -11.6929   20.8800 C   0  0  0  0  0  0
  -23.9083  -10.4288   21.0433 C   0  0  0  0  0  0
  -24.3628   -9.4193   21.9199 C   0  0  0  0  0  0
  -23.6285   -8.2242   22.0772 C   0  0  0  0  0  0
  -22.4268   -8.0290   21.3559 C   0  0  0  0  0  0
  -21.9914   -9.0275   20.4669 C   0  0  0  0  0  0
  -22.7261  -10.2142   20.3065 C   0  0  0  0  0  0
  -21.6843   -6.0728   22.5270 C   0  0  0  0  0  0
  -21.4023   -6.5633   23.8209 C   0  0  0  0  0  0
  -21.3656   -5.6782   24.9172 C   0  0  0  0  0  0
  -21.6029   -4.3043   24.7224 C   0  0  0  0  0  0
  -21.8819   -3.8139   23.4345 C   0  0  0  0  0  0
  -21.9199   -4.6959   22.3404 C   0  0  0  0  0  0
  -22.7769  -13.5205   21.1878 C   0  0  0  0  0  0
  -22.1654   -4.2134   21.0984 F   0  0  0  0  0  0
  -21.5632   -3.4539   25.7748 F   0  0  0  0  0  0
  -29.9655  -13.6401   20.3782 N   0  0  0  0  0  0
  -26.2890  -12.9447   20.3241 N   0  0  0  0  0  0
  -25.9307  -11.6575   20.5733 N   0  0  0  0  0  0
  -22.0405  -12.8226   22.0446 N   0  0  0  0  0  0
  -25.4117  -15.1951   20.4123 N   0  0  0  0  0  0
  -31.7741  -14.9713   20.2137 O   0  0  0  0  0  0
  -21.6631   -6.8882   21.4233 O   0  0  0  0  0  0
  -22.3472  -14.5507   20.6702 O   0  0  0  0  0  0
  -24.6397  -31.8433   23.1885 C   0  0  0  0  0  0
  -25.9169  -32.4681   23.8247 C   0  0  1  0  0  0
  -27.2402  -27.1649   20.1414 C   0  0  0  0  0  0
  -25.5911  -33.8463   24.2170 N   0  0  0  0  0  0
  -23.4471  -30.4610   21.5317 C   0  0  2  0  0  0
  -24.9042  -28.8937   20.1058 C   0  0  0  0  0  0
  -22.7583  -29.4496   22.4794 C   0  0  0  0  0  0
  -18.0275  -28.1298   22.8498 C   0  0  0  0  0  0
  -24.1499  -36.7273   23.2643 C   0  0  0  0  0  0
  -26.0011  -30.7277   21.3815 C   0  0  0  0  0  0
  -26.0756  -29.3412   20.7269 C   0  0  0  0  0  0
  -27.2439  -28.4949   20.7233 C   0  0  0  0  0  0
  -26.0442  -26.8166   19.4714 C   0  0  0  0  0  0
  -24.9032  -27.6441   19.4611 C   0  0  0  0  0  0
  -23.6746  -29.7913   20.1508 C   0  0  0  0  0  0
  -25.4122  -36.3013   24.0331 C   0  0  1  0  0  0
  -20.5902  -28.3782   23.1248 C   0  0  2  0  0  0
  -20.6783  -26.9396   22.5589 C   0  0  0  0  0  0
  -19.5782  -26.6128   21.5458 C   0  0  0  0  0  0
  -18.1985  -26.7771   22.1837 C   0  0  0  0  0  0
  -19.1496  -28.8858   23.2841 C   0  0  0  0  0  0
  -18.9318  -30.1503   23.8734 C   0  0  0  0  0  0
  -17.6286  -30.6544   24.0394 C   0  0  0  0  0  0
  -25.9070  -34.9385   23.5078 C   0  0  0  0  0  0
  -16.5223  -29.8956   23.6207 C   0  0  0  0  0  0
  -16.7233  -28.6357   23.0309 C   0  0  0  0  0  0
  -26.4502  -31.6531   25.0644 C   0  0  0  0  0  0
  -25.3724  -31.3725   26.1373 C   0  0  0  0  0  0
  -27.0375  -30.2943   24.6175 C   0  0  0  0  0  0
  -27.6027  -32.4316   25.7415 C   0  0  0  0  0  0
  -27.5567  -37.1802   24.8468 C   0  0  0  0  0  0
  -21.4256  -29.3091   22.3600 N   0  0  0  0  0  0
  -26.4258  -37.3748   23.9437 N   0  0  0  0  0  0
  -24.7162  -31.0315   22.0894 N   0  0  0  0  0  0
  -23.4250  -28.7935   23.2820 O   0  0  0  0  0  0
  -28.3284  -26.2240   20.2024 O   0  0  0  0  0  0
  -26.5640  -34.8871   22.4648 O   0  0  0  0  0  0
  -23.5512  -32.1171   23.7181 O   0  0  0  0  0  0
  -29.0787  -18.6374   20.1254 C   0  0  0  0  0  0
  -30.9825  -18.1360   21.3653 C   0  0  0  0  0  0
  -29.9662  -17.5503   20.6417 C   0  0  0  0  0  0
  -29.4062  -19.9952   20.4280 C   0  0  0  0  0  0
  -28.7158  -21.3450   20.0815 C   0  0  0  0  0  0
  -29.0912  -23.7624   19.2523 C   0  0  0  0  0  0
  -28.1477  -24.6784   20.1218 C   0  0  1  0  0  0
  -28.6578  -23.6814   21.2408 C   0  0  1  0  0  0
  -27.7190  -23.0861   22.2813 C   0  0  0  0  0  0
  -29.1577  -22.6546   20.2619 N   0  0  0  0  0  0
  -29.7455  -16.0478   20.5393 N   0  0  0  0  0  0
  -27.5220  -21.2178   19.4787 N   0  3  0  0  0  0
  -30.8685  -19.9167   21.4058 S   0  0  0  0  0  0
  -31.4745  -12.7268   19.1548 H   0  0  0  0  0  0
  -30.4463  -11.5978   19.9873 H   0  0  0  0  0  0
  -29.8150  -11.7293   17.5543 H   0  0  0  0  0  0
  -29.6034  -13.4597   17.6846 H   0  0  0  0  0  0
  -27.9354  -11.2726   18.9636 H   0  0  0  0  0  0
  -27.3783  -12.4634   17.8134 H   0  0  0  0  0  0
  -27.6077  -14.2499   19.4234 H   0  0  0  0  0  0
  -28.7647  -12.2358   21.4192 H   0  0  0  0  0  0
  -28.3985  -13.9088   21.7756 H   0  0  0  0  0  0
  -25.2770   -9.5652   22.4782 H   0  0  0  0  0  0
  -23.9984   -7.4626   22.7491 H   0  0  0  0  0  0
  -21.0841   -8.8797   19.8980 H   0  0  0  0  0  0
  -22.3722  -10.9688   19.6176 H   0  0  0  0  0  0
  -21.2006   -7.6141   23.9704 H   0  0  0  0  0  0
  -21.1473   -6.0523   25.9071 H   0  0  0  0  0  0
  -22.0607   -2.7605   23.2857 H   0  0  0  0  0  0
  -22.4010  -11.9909   22.4887 H   0  0  0  0  0  0
  -21.1012  -13.1278   22.2593 H   0  0  0  0  0  0
  -24.6358  -15.8410   20.5141 H   0  0  0  0  0  0
  -26.2344  -15.6364   20.0236 H   0  0  0  0  0  0
  -26.7228  -32.5271   23.0966 H   0  0  0  0  0  0
  -25.0081  -33.9612   25.0315 H   0  0  0  0  0  0
  -22.7504  -31.2865   21.3729 H   0  0  0  0  0  0
  -23.3726  -35.9627   23.3280 H   0  0  0  0  0  0
  -24.3589  -36.8937   22.2063 H   0  0  0  0  0  0
  -23.7293  -37.6489   23.6683 H   0  0  0  0  0  0
  -26.1371  -31.4809   20.6044 H   0  0  0  0  0  0
  -26.8814  -30.7870   22.0112 H   0  0  0  0  0  0
  -28.1415  -28.8256   21.2193 H   0  0  0  0  0  0
  -25.9668  -25.8806   18.9395 H   0  0  0  0  0  0
  -24.0198  -27.3025   18.9398 H   0  0  0  0  0  0
  -23.8087  -30.5723   19.4013 H   0  0  0  0  0  0
  -22.7972  -29.2279   19.8318 H   0  0  0  0  0  0
  -25.1301  -36.1825   25.0820 H   0  0  0  0  0  0
  -21.0114  -28.3413   24.1317 H   0  0  0  0  0  0
  -20.5658  -26.2400   23.3916 H   0  0  0  0  0  0
  -21.6681  -26.7368   22.1517 H   0  0  0  0  0  0
  -19.6927  -25.5910   21.1838 H   0  0  0  0  0  0
  -19.6558  -27.2641   20.6734 H   0  0  0  0  0  0
  -17.4192  -26.6120   21.4345 H   0  0  0  0  0  0
  -18.0605  -26.0040   22.9408 H   0  0  0  0  0  0
  -19.7765  -30.7436   24.2042 H   0  0  0  0  0  0
  -17.4715  -31.6220   24.5028 H   0  0  0  0  0  0
  -15.5177  -30.2738   23.7503 H   0  0  0  0  0  0
  -15.8690  -28.0581   22.7095 H   0  0  0  0  0  0
  -24.5875  -30.7078   25.7753 H   0  0  0  0  0  0
  -24.8886  -32.2896   26.4753 H   0  0  0  0  0  0
  -25.8017  -30.8945   27.0192 H   0  0  0  0  0  0
  -26.2980  -29.6666   24.1186 H   0  0  0  0  0  0
  -27.4083  -29.7197   25.4686 H   0  0  0  0  0  0
  -27.8825  -30.4227   23.9402 H   0  0  0  0  0  0
  -27.2610  -33.3650   26.1914 H   0  0  0  0  0  0
  -28.3843  -32.6893   25.0246 H   0  0  0  0  0  0
  -28.0672  -31.8490   26.5395 H   0  0  0  0  0  0
  -28.2569  -38.0115   24.7476 H   0  0  0  0  0  0
  -28.1072  -36.2634   24.6299 H   0  0  0  0  0  0
  -27.2285  -37.1468   25.8872 H   0  0  0  0  0  0
  -20.9456  -29.9000   21.6967 H   0  0  0  0  0  0
  -26.0112  -38.2803   24.1445 H   0  0  0  0  0  0
  -28.2141  -18.3684   19.5352 H   0  0  0  0  0  0
  -31.7758  -17.6507   21.9247 H   0  0  0  0  0  0
  -28.6696  -23.4769   18.2873 H   0  0  0  0  0  0
  -30.0813  -24.2028   19.1184 H   0  0  0  0  0  0
  -27.1137  -24.4138   19.9194 H   0  0  0  0  0  0
  -29.5320  -24.1276   21.7149 H   0  0  0  0  0  0
  -26.8337  -22.6363   21.8318 H   0  0  0  0  0  0
  -27.3837  -23.8529   22.9741 H   0  0  0  0  0  0
  -28.2346  -22.3259   22.8720 H   0  0  0  0  0  0
  -28.7702  -15.7910   20.5297 H   0  0  0  0  0  0
  -27.1498  -20.2984   19.2981 H   0  0  0  0  0  0
  -27.0017  -22.0048   19.1220 H   0  0  0  0  0  0
  1 25  1  0  0  0
  1 30  2  0  0  0
  1 81  1  0  0  0
  2  3  1  0  0  0
  2 25  1  0  0  0
  2 84  1  0  0  0
  2 85  1  0  0  0
  3  4  1  0  0  0
  3 86  1  0  0  0
  3 87  1  0  0  0
  4  5  1  0  0  0
  4 88  1  0  0  0
  4 89  1  0  0  0
  5  6  1  0  0  0
  5 26  1  0  0  0
  5 90  1  0  0  0
  6 25  1  0  0  0
  6 91  1  0  0  0
  6 92  1  0  0  0
  7  8  2  0  0  0
  7 26  1  0  0  0
  7 29  1  0  0  0
  8  9  1  0  0  0
  8 22  1  0  0  0
  9 10  1  0  0  0
  9 27  2  0  0  0
 10 11  2  0  0  0
 10 15  1  0  0  0
 11 12  1  0  0  0
 11 93  1  0  0  0
 12 13  2  0  0  0
 12 94  1  0  0  0
 13 14  1  0  0  0
 13 31  1  0  0  0
 14 15  2  0  0  0
 14 95  1  0  0  0
 15 96  1  0  0  0
 16 17  2  0  0  0
 16 21  1  0  0  0
 16 31  1  0  0  0
 17 18  1  0  0  0
 17 97  1  0  0  0
 18 19  2  0  0  0
 18 98  1  0  0  0
 19 20  1  0  0  0
 19 24  1  0  0  0
 20 21  2  0  0  0
 20 99  1  0  0  0
 21 23  1  0  0  0
 22 28  1  0  0  0
 22 32  2  0  0  0
 26 27  1  0  0  0
 28100  1  0  0  0
 28101  1  0  0  0
 29102  1  0  0  0
 29103  1  0  0  0
 33 34  1  0  0  0
 33 66  1  0  0  0
 33 70  2  0  0  0
 34 36  1  0  0  0
 34 59  1  0  0  0
 34104  1  0  0  0
 35 44  2  0  0  0
 35 45  1  0  0  0
 35 68  1  0  0  0
 36 56  1  0  0  0
 36105  1  0  0  0
 37 39  1  0  0  0
 37 47  1  0  0  0
 37 66  1  0  0  0
 37106  1  0  0  0
 38 43  2  0  0  0
 38 46  1  0  0  0
 38 47  1  0  0  0
 39 64  1  0  0  0
 39 67  2  0  0  0
 40 52  1  0  0  0
 40 53  2  0  0  0
 40 58  1  0  0  0
 41107  1  0  0  0
 41108  1  0  0  0
 41109  1  0  0  0
 41 48  1  0  0  0
 42 43  1  0  0  0
 42 66  1  0  0  0
 42110  1  0  0  0
 42111  1  0  0  0
 43 44  1  0  0  0
 44112  1  0  0  0
 45 46  2  0  0  0
 45113  1  0  0  0
 46114  1  0  0  0
 47115  1  0  0  0
 47116  1  0  0  0
 48 56  1  0  0  0
 48 65  1  0  0  0
 48117  1  0  0  0
 49 50  1  0  0  0
 49 53  1  0  0  0
 49 64  1  0  0  0
 49118  1  0  0  0
 50 51  1  0  0  0
 50119  1  0  0  0
 50120  1  0  0  0
 51 52  1  0  0  0
 51121  1  0  0  0
 51122  1  0  0  0
 52123  1  0  0  0
 52124  1  0  0  0
 53 54  1  0  0  0
 54 55  2  0  0  0
 54125  1  0  0  0
 55 57  1  0  0  0
 55126  1  0  0  0
 56 69  2  0  0  0
 57 58  2  0  0  0
 57127  1  0  0  0
 58128  1  0  0  0
 59 60  1  0  0  0
 59 61  1  0  0  0
 59 62  1  0  0  0
 60129  1  0  0  0
 60130  1  0  0  0
 60131  1  0  0  0
 61132  1  0  0  0
 61133  1  0  0  0
 61134  1  0  0  0
 62135  1  0  0  0
 62136  1  0  0  0
 62137  1  0  0  0
 63 65  1  0  0  0
 63138  1  0  0  0
 63139  1  0  0  0
 63140  1  0  0  0
 64141  1  0  0  0
 65142  1  0  0  0
 68 77  1  0  0  0
 71 73  1  0  0  0
 71 74  2  0  0  0
 71143  1  0  0  0
 72 73  2  0  0  0
 72 83  1  0  0  0
 72144  1  0  0  0
 73 81  1  0  0  0
 74 75  1  0  0  0
 74 83  1  0  0  0
 75 80  1  0  0  0
 75 82  2  0  0  0
 76 77  1  0  0  0
 76 80  1  0  0  0
 76145  1  0  0  0
 76146  1  0  0  0
 77 78  1  0  0  0
 77147  1  0  0  0
 78 79  1  0  0  0
 78 80  1  0  0  0
 78148  1  0  0  0
 79149  1  0  0  0
 79150  1  0  0  0
 79151  1  0  0  0
 81152  1  0  0  0
 82153  1  0  0  0
 82154  1  0  0  0
M  CHG  1  82   1
M  ISO  4   1 100  68 101  77 101  81 100
M  END
> <chiral flag>
0

> <version>
0

> <s_m_source_file>
/data/baiqing/PycharmProjects/Reinvent-master-3.2/result/LINK_invent/BTK/process_docking_weight1_custom_product_contain_oxygen_bond_distance_aromatic_linkinvent_7_9_3/rearranged_h_0154.sdf

> <i_m_source_file_index>
90

> <r_mmod_Potential_Energy-OPLS-2005>
305.628784179688

> <r_mmod_Stretch_Energy-OPLS-2005>
190.76789855957

> <r_mmod_Bend_Energy-OPLS-2005>
241.080123901367

> <r_mmod_Torsional_Energy-OPLS-2005>
302.466644287109

> <r_mmod_Improper_Torsional_Energy-OPLS-2005>
13.5527172088623

> <r_mmod_Van_der_Waal_Energy-OPLS-2005>
108.934692382812

> <r_mmod_Electrostatic_Energy-OPLS-2005>
-242.931015014648

> <r_mmod_Solvation_Energy-OPLS-2005>
-465.820129394531

> <b_mmod_Minimization_Converged-OPLS-2005>
0

> <r_mmod_RMS_Derivative-OPLS-2005>
7.28664541244507

$$$$
90
                    3D
 Structure written by MMmdl.
151160  0  0  1  0            999 V2000
  -30.6018  -14.8011   20.4402 C   0  0  0  0  0  0
  -30.4335  -12.4881   19.4894 C   0  0  0  0  0  0
  -29.5166  -12.5161   18.2461 C   0  0  0  0  0  0
  -28.0441  -12.3310   18.6574 C   0  0  0  0  0  0
  -27.6410  -13.2392   19.8495 C   0  0  2  0  0  0
  -28.6833  -13.2021   20.9893 C   0  0  0  0  0  0
  -25.2503  -13.8211   20.5688 C   0  0  0  0  0  0
  -24.1801  -13.0450   20.9202 C   0  0  0  0  0  0
  -24.6404  -11.6930   20.8749 C   0  0  0  0  0  0
  -23.9088  -10.4298   21.0412 C   0  0  0  0  0  0
  -24.3632   -9.4208   21.9188 C   0  0  0  0  0  0
  -23.6295   -8.2252   22.0760 C   0  0  0  0  0  0
  -22.4276   -8.0288   21.3552 C   0  0  0  0  0  0
  -21.9916   -9.0266   20.4657 C   0  0  0  0  0  0
  -22.7255  -10.2138   20.3064 C   0  0  0  0  0  0
  -21.6854   -6.0735   22.5276 C   0  0  0  0  0  0
  -21.4018   -6.5640   23.8206 C   0  0  0  0  0  0
  -21.3658   -5.6790   24.9168 C   0  0  0  0  0  0
  -21.6042   -4.3054   24.7217 C   0  0  0  0  0  0
  -21.8823   -3.8147   23.4339 C   0  0  0  0  0  0
  -21.9197   -4.6967   22.3394 C   0  0  0  0  0  0
  -22.7822  -13.5234   21.1855 C   0  0  0  0  0  0
  -22.1668   -4.2155   21.0974 F   0  0  0  0  0  0
  -21.5626   -3.4538   25.7732 F   0  0  0  0  0  0
  -29.9831  -13.5644   20.4093 N   0  0  0  0  0  0
  -26.2935  -12.9432   20.3265 N   0  0  0  0  0  0
  -25.9334  -11.6570   20.5737 N   0  0  0  0  0  0
  -22.0462  -12.8231   22.0411 N   0  0  0  0  0  0
  -25.4195  -15.1932   20.4099 N   0  0  0  0  0  0
  -31.7888  -14.8721   20.1052 O   0  0  0  0  0  0
  -21.6642   -6.8883   21.4240 O   0  0  0  0  0  0
  -22.3517  -14.5551   20.6711 O   0  0  0  0  0  0
  -24.6357  -31.8520   23.1981 C   0  0  0  0  0  0
  -25.9173  -32.4728   23.8333 C   0  0  1  0  0  0
  -27.2083  -27.2078   20.1361 C   0  0  0  0  0  0
  -25.5956  -33.8536   24.2250 N   0  0  0  0  0  0
  -23.4347  -30.4768   21.5417 C   0  0  2  0  0  0
  -24.8823  -28.9237   20.1081 C   0  0  0  0  0  0
  -22.7526  -29.4585   22.4885 C   0  0  0  0  0  0
  -18.0299  -28.1390   22.8472 C   0  0  0  0  0  0
  -24.1496  -36.7272   23.2636 C   0  0  0  0  0  0
  -25.9869  -30.7434   21.3946 C   0  0  0  0  0  0
  -26.0540  -29.3624   20.7370 C   0  0  0  0  0  0
  -27.2153  -28.5136   20.7510 C   0  0  0  0  0  0
  -26.0243  -26.8800   19.4325 C   0  0  0  0  0  0
  -24.8754  -27.6913   19.4444 C   0  0  0  0  0  0
  -23.6567  -29.8176   20.1563 C   0  0  0  0  0  0
  -25.4120  -36.3051   24.0322 C   0  0  1  0  0  0
  -20.5903  -28.3711   23.1246 C   0  0  2  0  0  0
  -20.6786  -26.9422   22.5397 C   0  0  0  0  0  0
  -19.5763  -26.6383   21.5202 C   0  0  0  0  0  0
  -18.1946  -26.7927   22.1621 C   0  0  0  0  0  0
  -19.1553  -28.8868   23.2853 C   0  0  0  0  0  0
  -18.9471  -30.1463   23.8880 C   0  0  0  0  0  0
  -17.6469  -30.6587   24.0555 C   0  0  0  0  0  0
  -25.9064  -34.9420   23.5088 C   0  0  0  0  0  0
  -16.5359  -29.9080   23.6330 C   0  0  0  0  0  0
  -16.7284  -28.6501   23.0347 C   0  0  0  0  0  0
  -26.4523  -31.6562   25.0738 C   0  0  0  0  0  0
  -25.3728  -31.3739   26.1446 C   0  0  0  0  0  0
  -27.0370  -30.2956   24.6285 C   0  0  0  0  0  0
  -27.6072  -32.4310   25.7509 C   0  0  0  0  0  0
  -27.5579  -37.1794   24.8464 C   0  0  0  0  0  0
  -21.4228  -29.3050   22.3629 N   0  0  0  0  0  0
  -26.4293  -37.3752   23.9402 N   0  0  0  0  0  0
  -24.7045  -31.0439   22.0993 N   0  0  0  0  0  0
  -23.4202  -28.8111   23.2991 O   0  0  0  0  0  0
  -28.2696  -26.2529   20.2110 O   0  0  0  0  0  0
  -26.5634  -34.8899   22.4655 O   0  0  0  0  0  0
  -23.5498  -32.1377   23.7241 O   0  0  0  0  0  0
  -29.3896  -18.6198   20.8550 C   0  0  0  0  0  0
  -31.0049  -17.7794   19.3908 C   0  0  0  0  0  0
  -30.0823  -17.4041   20.3354 C   0  0  0  0  0  0
  -29.8188  -19.8747   20.3424 C   0  0  0  0  0  0
  -28.8087  -23.7084   20.3974 C   0  0  0  0  0  0
  -28.0103  -24.8291   20.1545 C   0  0  0  0  0  0
  -30.2357  -23.6851   20.8818 C   0  0  0  0  0  0
  -28.4431  -22.1736   20.2473 C   0  0  0  0  0  0
  -30.7273  -22.2140   20.7319 C   0  0  0  0  0  0
  -29.5791  -21.2897   20.6935 N   0  0  0  0  0  0
  -29.8468  -15.9575   20.6868 N   0  0  0  0  0  0
  -31.0571  -19.5193   19.1437 S   0  0  0  0  0  0
  -31.4750  -12.6075   19.1865 H   0  0  0  0  0  0
  -30.3807  -11.5173   19.9843 H   0  0  0  0  0  0
  -29.8086  -11.7360   17.5416 H   0  0  0  0  0  0
  -29.6362  -13.4642   17.7198 H   0  0  0  0  0  0
  -27.9081  -11.2834   18.9281 H   0  0  0  0  0  0
  -27.3892  -12.5115   17.8047 H   0  0  0  0  0  0
  -27.6279  -14.2558   19.4552 H   0  0  0  0  0  0
  -28.7284  -12.2122   21.4458 H   0  0  0  0  0  0
  -28.4066  -13.8947   21.7856 H   0  0  0  0  0  0
  -25.2772   -9.5679   22.4766 H   0  0  0  0  0  0
  -23.9998   -7.4646   22.7483 H   0  0  0  0  0  0
  -21.0848   -8.8798   19.8963 H   0  0  0  0  0  0
  -22.3716  -10.9685   19.6181 H   0  0  0  0  0  0
  -21.2014   -7.6145   23.9711 H   0  0  0  0  0  0
  -21.1475   -6.0520   25.9070 H   0  0  0  0  0  0
  -22.0603   -2.7610   23.2837 H   0  0  0  0  0  0
  -22.4069  -11.9895   22.4809 H   0  0  0  0  0  0
  -21.1086  -13.1284   22.2616 H   0  0  0  0  0  0
  -24.6528  -15.8474   20.5219 H   0  0  0  0  0  0
  -26.2572  -15.6282   20.0453 H   0  0  0  0  0  0
  -26.7229  -32.5363   23.1058 H   0  0  0  0  0  0
  -25.0091  -33.9671   25.0386 H   0  0  0  0  0  0
  -22.7336  -31.3012   21.3969 H   0  0  0  0  0  0
  -23.3754  -35.9608   23.3292 H   0  0  0  0  0  0
  -24.3586  -36.8902   22.2051 H   0  0  0  0  0  0
  -23.7261  -37.6474   23.6668 H   0  0  0  0  0  0
  -26.1414  -31.5003   20.6243 H   0  0  0  0  0  0
  -26.8588  -30.7872   22.0351 H   0  0  0  0  0  0
  -28.1036  -28.8364   21.2760 H   0  0  0  0  0  0
  -25.9431  -25.9694   18.8610 H   0  0  0  0  0  0
  -23.9879  -27.3612   18.9221 H   0  0  0  0  0  0
  -23.7883  -30.5973   19.4053 H   0  0  0  0  0  0
  -22.7731  -29.2577   19.8448 H   0  0  0  0  0  0
  -25.1302  -36.1892   25.0814 H   0  0  0  0  0  0
  -20.9996  -28.3295   24.1365 H   0  0  0  0  0  0
  -20.5685  -26.2317   23.3605 H   0  0  0  0  0  0
  -21.6654  -26.7442   22.1194 H   0  0  0  0  0  0
  -19.6925  -25.6290   21.1243 H   0  0  0  0  0  0
  -19.6695  -27.3179   20.6717 H   0  0  0  0  0  0
  -17.4205  -26.6650   21.4035 H   0  0  0  0  0  0
  -18.0364  -26.0080   22.9034 H   0  0  0  0  0  0
  -19.7947  -30.7283   24.2243 H   0  0  0  0  0  0
  -17.5023  -31.6268   24.5159 H   0  0  0  0  0  0
  -15.5359  -30.2975   23.7668 H   0  0  0  0  0  0
  -15.8684  -28.0816   22.7070 H   0  0  0  0  0  0
  -24.5882  -30.7119   25.7763 H   0  0  0  0  0  0
  -24.8954  -32.2923   26.4871 H   0  0  0  0  0  0
  -25.8021  -30.8895   27.0226 H   0  0  0  0  0  0
  -26.2971  -29.6689   24.1293 H   0  0  0  0  0  0
  -27.3984  -29.7240   25.4845 H   0  0  0  0  0  0
  -27.8886  -30.4181   23.9588 H   0  0  0  0  0  0
  -27.2675  -33.3613   26.2071 H   0  0  0  0  0  0
  -28.3887  -32.6866   25.0338 H   0  0  0  0  0  0
  -28.0735  -31.8448   26.5437 H   0  0  0  0  0  0
  -28.2592  -38.0093   24.7502 H   0  0  0  0  0  0
  -28.1084  -36.2626   24.6302 H   0  0  0  0  0  0
  -27.2299  -37.1451   25.8867 H   0  0  0  0  0  0
  -20.9419  -29.8775   21.6831 H   0  0  0  0  0  0
  -26.0168  -38.2827   24.1385 H   0  0  0  0  0  0
  -28.6366  -18.5318   21.6248 H   0  0  0  0  0  0
  -31.6699  -17.1518   18.8101 H   0  0  0  0  0  0
  -26.9996  -24.6098   19.8623 H   0  0  0  0  0  0
  -30.2427  -23.9731   21.9342 H   0  0  0  0  0  0
  -30.8620  -24.3945   20.3397 H   0  0  0  0  0  0
  -28.2067  -21.9674   19.2022 H   0  0  0  0  0  0
  -27.5469  -21.9552   20.8302 H   0  0  0  0  0  0
  -31.4168  -21.9493   21.5352 H   0  0  0  0  0  0
  -31.2871  -22.1420   19.7989 H   0  0  0  0  0  0
  -28.9389  -15.7622   21.0816 H   0  0  0  0  0  0
  1 25  1  0  0  0
  1 30  2  0  0  0
  1 81  1  0  0  0
  2  3  1  0  0  0
  2 25  1  0  0  0
  2 83  1  0  0  0
  2 84  1  0  0  0
  3  4  1  0  0  0
  3 85  1  0  0  0
  3 86  1  0  0  0
  4  5  1  0  0  0
  4 87  1  0  0  0
  4 88  1  0  0  0
  5  6  1  0  0  0
  5 26  1  0  0  0
  5 89  1  0  0  0
  6 25  1  0  0  0
  6 90  1  0  0  0
  6 91  1  0  0  0
  7  8  2  0  0  0
  7 26  1  0  0  0
  7 29  1  0  0  0
  8  9  1  0  0  0
  8 22  1  0  0  0
  9 10  1  0  0  0
  9 27  2  0  0  0
 10 11  2  0  0  0
 10 15  1  0  0  0
 11 12  1  0  0  0
 11 92  1  0  0  0
 12 13  2  0  0  0
 12 93  1  0  0  0
 13 14  1  0  0  0
 13 31  1  0  0  0
 14 15  2  0  0  0
 14 94  1  0  0  0
 15 95  1  0  0  0
 16 17  2  0  0  0
 16 21  1  0  0  0
 16 31  1  0  0  0
 17 18  1  0  0  0
 17 96  1  0  0  0
 18 19  2  0  0  0
 18 97  1  0  0  0
 19 20  1  0  0  0
 19 24  1  0  0  0
 20 21  2  0  0  0
 20 98  1  0  0  0
 21 23  1  0  0  0
 22 28  1  0  0  0
 22 32  2  0  0  0
 26 27  1  0  0  0
 28 99  1  0  0  0
 28100  1  0  0  0
 29101  1  0  0  0
 29102  1  0  0  0
 33 34  1  0  0  0
 33 66  1  0  0  0
 33 70  2  0  0  0
 34 36  1  0  0  0
 34 59  1  0  0  0
 34103  1  0  0  0
 35 44  2  0  0  0
 35 45  1  0  0  0
 35 68  1  0  0  0
 36 56  1  0  0  0
 36104  1  0  0  0
 37 39  1  0  0  0
 37 47  1  0  0  0
 37 66  1  0  0  0
 37105  1  0  0  0
 38 43  2  0  0  0
 38 46  1  0  0  0
 38 47  1  0  0  0
 39 64  1  0  0  0
 39 67  2  0  0  0
 40 52  1  0  0  0
 40 53  2  0  0  0
 40 58  1  0  0  0
 41106  1  0  0  0
 41107  1  0  0  0
 41108  1  0  0  0
 41 48  1  0  0  0
 42 43  1  0  0  0
 42 66  1  0  0  0
 42109  1  0  0  0
 42110  1  0  0  0
 43 44  1  0  0  0
 44111  1  0  0  0
 45 46  2  0  0  0
 45112  1  0  0  0
 46113  1  0  0  0
 47114  1  0  0  0
 47115  1  0  0  0
 48 56  1  0  0  0
 48 65  1  0  0  0
 48116  1  0  0  0
 49 50  1  0  0  0
 49 53  1  0  0  0
 49 64  1  0  0  0
 49117  1  0  0  0
 50 51  1  0  0  0
 50118  1  0  0  0
 50119  1  0  0  0
 51 52  1  0  0  0
 51120  1  0  0  0
 51121  1  0  0  0
 52122  1  0  0  0
 52123  1  0  0  0
 53 54  1  0  0  0
 54 55  2  0  0  0
 54124  1  0  0  0
 55 57  1  0  0  0
 55125  1  0  0  0
 56 69  2  0  0  0
 57 58  2  0  0  0
 57126  1  0  0  0
 58127  1  0  0  0
 59 60  1  0  0  0
 59 61  1  0  0  0
 59 62  1  0  0  0
 60128  1  0  0  0
 60129  1  0  0  0
 60130  1  0  0  0
 61131  1  0  0  0
 61132  1  0  0  0
 61133  1  0  0  0
 62134  1  0  0  0
 62135  1  0  0  0
 62136  1  0  0  0
 63 65  1  0  0  0
 63137  1  0  0  0
 63138  1  0  0  0
 63139  1  0  0  0
 64140  1  0  0  0
 65141  1  0  0  0
 68 76  1  0  0  0
 71 73  1  0  0  0
 71 74  2  0  0  0
 71142  1  0  0  0
 72 73  2  0  0  0
 72 82  1  0  0  0
 72143  1  0  0  0
 73 81  1  0  0  0
 74 80  1  0  0  0
 74 82  1  0  0  0
 75 76  2  0  0  0
 75 77  1  0  0  0
 75 78  1  0  0  0
 76144  1  0  0  0
 77 79  1  0  0  0
 77145  1  0  0  0
 77146  1  0  0  0
 78 80  1  0  0  0
 78147  1  0  0  0
 78148  1  0  0  0
 79 80  1  0  0  0
 79149  1  0  0  0
 79150  1  0  0  0
 81151  1  0  0  0
M  ISO  4   1 100  68 101  76 101  81 100
M  END
> <chiral flag>
0

> <version>
0

> <s_m_source_file>
/data/baiqing/PycharmProjects/Reinvent-master-3.2/result/LINK_invent/BTK/process_docking_weight1_custom_product_contain_oxygen_bond_distance_aromatic_linkinvent_7_9_3/rearranged_h_0154.sdf

> <i_m_source_file_index>
91

> <r_mmod_Potential_Energy-OPLS-2005>
298.131317138672

> <r_mmod_Stretch_Energy-OPLS-2005>
140.947219848633

> <r_mmod_Bend_Energy-OPLS-2005>
203.779022216797

> <r_mmod_Torsional_Energy-OPLS-2005>
259.825317382812

> <r_mmod_Improper_Torsional_Energy-OPLS-2005>
7.88485336303711

> <r_mmod_Van_der_Waal_Energy-OPLS-2005>
124.259254455566

> <r_mmod_Electrostatic_Energy-OPLS-2005>
-325.909027099609

> <r_mmod_Solvation_Energy-OPLS-2005>
-231.584213256836

> <b_mmod_Minimization_Converged-OPLS-2005>
0

> <r_mmod_RMS_Derivative-OPLS-2005>
1.10461580753326

$$$$
91
                    3D
 Structure written by MMmdl.
151159  0  0  1  0            999 V2000
  -30.5259  -15.0345   20.3737 C   0  0  0  0  0  0
  -30.4290  -12.6356   19.5315 C   0  0  0  0  0  0
  -29.5271  -12.5421   18.2790 C   0  0  0  0  0  0
  -28.0632  -12.3125   18.6927 C   0  0  0  0  0  0
  -27.6222  -13.2635   19.8363 C   0  0  2  0  0  0
  -28.6564  -13.3458   20.9798 C   0  0  0  0  0  0
  -25.2417  -13.8244   20.5725 C   0  0  0  0  0  0
  -24.1756  -13.0437   20.9241 C   0  0  0  0  0  0
  -24.6396  -11.6935   20.8756 C   0  0  0  0  0  0
  -23.9095  -10.4290   21.0401 C   0  0  0  0  0  0
  -24.3634   -9.4200   21.9177 C   0  0  0  0  0  0
  -23.6301   -8.2240   22.0747 C   0  0  0  0  0  0
  -22.4281   -8.0280   21.3536 C   0  0  0  0  0  0
  -21.9925   -9.0263   20.4644 C   0  0  0  0  0  0
  -22.7262  -10.2137   20.3053 C   0  0  0  0  0  0
  -21.6853   -6.0737   22.5280 C   0  0  0  0  0  0
  -21.4026   -6.5641   23.8217 C   0  0  0  0  0  0
  -21.3661   -5.6790   24.9176 C   0  0  0  0  0  0
  -21.6036   -4.3051   24.7227 C   0  0  0  0  0  0
  -21.8819   -3.8147   23.4352 C   0  0  0  0  0  0
  -21.9195   -4.6963   22.3409 C   0  0  0  0  0  0
  -22.7778  -13.5198   21.1892 C   0  0  0  0  0  0
  -22.1660   -4.2145   21.0988 F   0  0  0  0  0  0
  -21.5622   -3.4535   25.7742 F   0  0  0  0  0  0
  -29.9286  -13.7652   20.3806 N   0  0  0  0  0  0
  -26.2847  -12.9505   20.3242 N   0  0  0  0  0  0
  -25.9332  -11.6620   20.5740 N   0  0  0  0  0  0
  -22.0446  -12.8176   22.0456 N   0  0  0  0  0  0
  -25.4066  -15.1974   20.4167 N   0  0  0  0  0  0
  -31.7312  -15.0466   20.0933 O   0  0  0  0  0  0
  -21.6641   -6.8879   21.4239 O   0  0  0  0  0  0
  -22.3458  -14.5497   20.6742 O   0  0  0  0  0  0
  -24.6488  -31.8375   23.1846 C   0  0  0  0  0  0
  -25.9231  -32.4661   23.8256 C   0  0  1  0  0  0
  -27.2142  -27.0704   20.1577 C   0  0  0  0  0  0
  -25.5955  -33.8473   24.2165 N   0  0  0  0  0  0
  -23.4567  -30.4567   21.5287 C   0  0  2  0  0  0
  -24.9089  -28.8753   20.1068 C   0  0  0  0  0  0
  -22.7598  -29.4512   22.4807 C   0  0  0  0  0  0
  -18.0316  -28.1400   22.8471 C   0  0  0  0  0  0
  -24.1493  -36.7253   23.2637 C   0  0  0  0  0  0
  -26.0177  -30.6907   21.3948 C   0  0  0  0  0  0
  -26.0870  -29.2956   20.7358 C   0  0  0  0  0  0
  -27.2377  -28.4093   20.7464 C   0  0  0  0  0  0
  -26.0140  -26.7769   19.4726 C   0  0  0  0  0  0
  -24.8896  -27.6320   19.4577 C   0  0  0  0  0  0
  -23.6889  -29.7858   20.1489 C   0  0  0  0  0  0
  -25.4126  -36.3013   24.0304 C   0  0  1  0  0  0
  -20.5931  -28.3731   23.1214 C   0  0  2  0  0  0
  -20.6795  -26.9426   22.5396 C   0  0  0  0  0  0
  -19.5771  -26.6379   21.5204 C   0  0  0  0  0  0
  -18.1954  -26.7936   22.1621 C   0  0  0  0  0  0
  -19.1572  -28.8882   23.2840 C   0  0  0  0  0  0
  -18.9480  -30.1475   23.8873 C   0  0  0  0  0  0
  -17.6472  -30.6589   24.0559 C   0  0  0  0  0  0
  -25.9077  -34.9388   23.5045 C   0  0  0  0  0  0
  -16.5367  -29.9080   23.6332 C   0  0  0  0  0  0
  -16.7298  -28.6504   23.0348 C   0  0  0  0  0  0
  -26.4538  -31.6557   25.0723 C   0  0  0  0  0  0
  -25.3710  -31.3763   26.1409 C   0  0  0  0  0  0
  -27.0402  -30.2935   24.6357 C   0  0  0  0  0  0
  -27.6055  -32.4335   25.7518 C   0  0  0  0  0  0
  -27.5579  -37.1785   24.8462 C   0  0  0  0  0  0
  -21.4282  -29.3051   22.3577 N   0  0  0  0  0  0
  -26.4288  -37.3728   23.9400 N   0  0  0  0  0  0
  -24.7277  -31.0181   22.0905 N   0  0  0  0  0  0
  -23.4218  -28.8053   23.2974 O   0  0  0  0  0  0
  -28.2299  -26.0282   20.2576 O   0  0  0  0  0  0
  -26.5664  -34.8890   22.4627 O   0  0  0  0  0  0
  -23.5588  -32.1269   23.7029 O   0  0  0  0  0  0
  -29.3768  -19.2401   18.0872 C   0  0  0  0  0  0
  -29.4353  -18.8879   19.4861 C   0  0  0  0  0  0
  -29.6381  -18.2652   17.1803 C   0  0  0  0  0  0
  -29.7395  -17.4217   19.5993 C   0  0  0  0  0  0
  -28.7655  -23.1458   20.4583 C   0  0  0  0  0  0
  -29.6362  -18.3656   15.6895 C   0  0  0  0  0  0
  -28.6436  -21.5996   19.7931 C   0  0  0  0  0  0
  -27.9458  -24.5104   19.8874 C   0  0  0  0  0  0
  -29.1682  -20.1636   20.3003 N   0  0  0  0  0  0
  -29.8042  -16.2841   20.5028 N   0  0  0  0  0  0
  -29.5089  -23.2767   21.4360 O   0  0  0  0  0  0
  -29.9952  -16.7926   17.9642 S   0  0  0  0  0  0
  -31.4676  -12.7754   19.2273 H   0  0  0  0  0  0
  -30.4130  -11.6979   20.0895 H   0  0  0  0  0  0
  -29.8652  -11.7372   17.6249 H   0  0  0  0  0  0
  -29.6061  -13.4652   17.7027 H   0  0  0  0  0  0
  -27.9778  -11.2770   19.0258 H   0  0  0  0  0  0
  -27.4016  -12.4133   17.8318 H   0  0  0  0  0  0
  -27.5710  -14.2549   19.3838 H   0  0  0  0  0  0
  -28.7547  -12.3912   21.4979 H   0  0  0  0  0  0
  -28.3393  -14.0734   21.7282 H   0  0  0  0  0  0
  -25.2769   -9.5676   22.4768 H   0  0  0  0  0  0
  -23.9994   -7.4636   22.7483 H   0  0  0  0  0  0
  -21.0845   -8.8799   19.8957 H   0  0  0  0  0  0
  -22.3717  -10.9685   19.6170 H   0  0  0  0  0  0
  -21.2033   -7.6153   23.9725 H   0  0  0  0  0  0
  -21.1475   -6.0518   25.9076 H   0  0  0  0  0  0
  -22.0596   -2.7611   23.2856 H   0  0  0  0  0  0
  -22.4070  -11.9829   22.4821 H   0  0  0  0  0  0
  -21.1069  -13.1201   22.2680 H   0  0  0  0  0  0
  -24.6385  -15.8484   20.5372 H   0  0  0  0  0  0
  -26.2510  -15.6417   20.0790 H   0  0  0  0  0  0
  -26.7291  -32.5240   23.0977 H   0  0  0  0  0  0
  -25.0100  -33.9586   25.0309 H   0  0  0  0  0  0
  -22.7618  -31.2842   21.3697 H   0  0  0  0  0  0
  -23.3750  -35.9589   23.3279 H   0  0  0  0  0  0
  -24.3578  -36.8912   22.2056 H   0  0  0  0  0  0
  -23.7254  -37.6443   23.6696 H   0  0  0  0  0  0
  -26.1811  -31.4418   20.6206 H   0  0  0  0  0  0
  -26.8851  -30.7435   22.0418 H   0  0  0  0  0  0
  -28.1299  -28.7226   21.2699 H   0  0  0  0  0  0
  -25.9034  -25.8332   18.9601 H   0  0  0  0  0  0
  -23.9940  -27.3090   18.9460 H   0  0  0  0  0  0
  -23.8341  -30.5600   19.3942 H   0  0  0  0  0  0
  -22.8025  -29.2330   19.8328 H   0  0  0  0  0  0
  -25.1321  -36.1834   25.0795 H   0  0  0  0  0  0
  -21.0039  -28.3324   24.1330 H   0  0  0  0  0  0
  -20.5677  -26.2346   23.3623 H   0  0  0  0  0  0
  -21.6659  -26.7418   22.1198 H   0  0  0  0  0  0
  -19.6928  -25.6278   21.1261 H   0  0  0  0  0  0
  -19.6714  -27.3167   20.6716 H   0  0  0  0  0  0
  -17.4220  -26.6673   21.4025 H   0  0  0  0  0  0
  -18.0367  -26.0091   22.9038 H   0  0  0  0  0  0
  -19.7949  -30.7302   24.2238 H   0  0  0  0  0  0
  -17.5017  -31.6266   24.5170 H   0  0  0  0  0  0
  -15.5365  -30.2968   23.7668 H   0  0  0  0  0  0
  -15.8704  -28.0813   22.7070 H   0  0  0  0  0  0
  -24.5903  -30.7093   25.7737 H   0  0  0  0  0  0
  -24.8879  -32.2944   26.4757 H   0  0  0  0  0  0
  -25.7980  -30.8994   27.0239 H   0  0  0  0  0  0
  -26.3024  -29.6643   24.1359 H   0  0  0  0  0  0
  -27.3971  -29.7262   25.4964 H   0  0  0  0  0  0
  -27.8961  -30.4140   23.9713 H   0  0  0  0  0  0
  -27.2639  -33.3666   26.2016 H   0  0  0  0  0  0
  -28.3915  -32.6846   25.0381 H   0  0  0  0  0  0
  -28.0670  -31.8509   26.5504 H   0  0  0  0  0  0
  -28.2576  -38.0099   24.7501 H   0  0  0  0  0  0
  -28.1098  -36.2623   24.6299 H   0  0  0  0  0  0
  -27.2298  -37.1443   25.8866 H   0  0  0  0  0  0
  -20.9494  -29.8779   21.6763 H   0  0  0  0  0  0
  -26.0151  -38.2794   24.1395 H   0  0  0  0  0  0
  -29.1389  -20.2201   17.7168 H   0  0  0  0  0  0
  -29.4646  -19.3909   15.3573 H   0  0  0  0  0  0
  -28.8511  -17.7417   15.2611 H   0  0  0  0  0  0
  -30.5885  -18.0352   15.2745 H   0  0  0  0  0  0
  -29.1171  -21.7921   18.8346 H   0  0  0  0  0  0
  -27.5851  -21.4681   19.5659 H   0  0  0  0  0  0
  -26.9069  -24.3172   20.1531 H   0  0  0  0  0  0
  -27.9802  -24.4506   18.7997 H   0  0  0  0  0  0
  -29.1514  -20.0496   21.3112 H   0  0  0  0  0  0
  -28.9804  -16.2017   21.0799 H   0  0  0  0  0  0
  1 25  1  0  0  0
  1 30  2  0  0  0
  1 80  1  0  0  0
  2  3  1  0  0  0
  2 25  1  0  0  0
  2 83  1  0  0  0
  2 84  1  0  0  0
  3  4  1  0  0  0
  3 85  1  0  0  0
  3 86  1  0  0  0
  4  5  1  0  0  0
  4 87  1  0  0  0
  4 88  1  0  0  0
  5  6  1  0  0  0
  5 26  1  0  0  0
  5 89  1  0  0  0
  6 25  1  0  0  0
  6 90  1  0  0  0
  6 91  1  0  0  0
  7  8  2  0  0  0
  7 26  1  0  0  0
  7 29  1  0  0  0
  8  9  1  0  0  0
  8 22  1  0  0  0
  9 10  1  0  0  0
  9 27  2  0  0  0
 10 11  2  0  0  0
 10 15  1  0  0  0
 11 12  1  0  0  0
 11 92  1  0  0  0
 12 13  2  0  0  0
 12 93  1  0  0  0
 13 14  1  0  0  0
 13 31  1  0  0  0
 14 15  2  0  0  0
 14 94  1  0  0  0
 15 95  1  0  0  0
 16 17  2  0  0  0
 16 21  1  0  0  0
 16 31  1  0  0  0
 17 18  1  0  0  0
 17 96  1  0  0  0
 18 19  2  0  0  0
 18 97  1  0  0  0
 19 20  1  0  0  0
 19 24  1  0  0  0
 20 21  2  0  0  0
 20 98  1  0  0  0
 21 23  1  0  0  0
 22 28  1  0  0  0
 22 32  2  0  0  0
 26 27  1  0  0  0
 28 99  1  0  0  0
 28100  1  0  0  0
 29101  1  0  0  0
 29102  1  0  0  0
 33 34  1  0  0  0
 33 66  1  0  0  0
 33 70  2  0  0  0
 34 36  1  0  0  0
 34 59  1  0  0  0
 34103  1  0  0  0
 35 44  2  0  0  0
 35 45  1  0  0  0
 35 68  1  0  0  0
 36 56  1  0  0  0
 36104  1  0  0  0
 37 39  1  0  0  0
 37 47  1  0  0  0
 37 66  1  0  0  0
 37105  1  0  0  0
 38 43  2  0  0  0
 38 46  1  0  0  0
 38 47  1  0  0  0
 39 64  1  0  0  0
 39 67  2  0  0  0
 40 52  1  0  0  0
 40 53  2  0  0  0
 40 58  1  0  0  0
 41106  1  0  0  0
 41107  1  0  0  0
 41108  1  0  0  0
 41 48  1  0  0  0
 42 43  1  0  0  0
 42 66  1  0  0  0
 42109  1  0  0  0
 42110  1  0  0  0
 43 44  1  0  0  0
 44111  1  0  0  0
 45 46  2  0  0  0
 45112  1  0  0  0
 46113  1  0  0  0
 47114  1  0  0  0
 47115  1  0  0  0
 48 56  1  0  0  0
 48 65  1  0  0  0
 48116  1  0  0  0
 49 50  1  0  0  0
 49 53  1  0  0  0
 49 64  1  0  0  0
 49117  1  0  0  0
 50 51  1  0  0  0
 50118  1  0  0  0
 50119  1  0  0  0
 51 52  1  0  0  0
 51120  1  0  0  0
 51121  1  0  0  0
 52122  1  0  0  0
 52123  1  0  0  0
 53 54  1  0  0  0
 54 55  2  0  0  0
 54124  1  0  0  0
 55 57  1  0  0  0
 55125  1  0  0  0
 56 69  2  0  0  0
 57 58  2  0  0  0
 57126  1  0  0  0
 58127  1  0  0  0
 59 60  1  0  0  0
 59 61  1  0  0  0
 59 62  1  0  0  0
 60128  1  0  0  0
 60129  1  0  0  0
 60130  1  0  0  0
 61131  1  0  0  0
 61132  1  0  0  0
 61133  1  0  0  0
 62134  1  0  0  0
 62135  1  0  0  0
 62136  1  0  0  0
 63 65  1  0  0  0
 63137  1  0  0  0
 63138  1  0  0  0
 63139  1  0  0  0
 64140  1  0  0  0
 65141  1  0  0  0
 68 78  1  0  0  0
 71 72  1  0  0  0
 71 73  2  0  0  0
 71142  1  0  0  0
 72 74  2  0  0  0
 72 79  1  0  0  0
 73 76  1  0  0  0
 73 82  1  0  0  0
 74 80  1  0  0  0
 74 82  1  0  0  0
 75 77  1  0  0  0
 75 78  1  0  0  0
 75 81  2  0  0  0
 76143  1  0  0  0
 76144  1  0  0  0
 76145  1  0  0  0
 77 79  1  0  0  0
 77146  1  0  0  0
 77147  1  0  0  0
 78148  1  0  0  0
 78149  1  0  0  0
 79150  1  0  0  0
 80151  1  0  0  0
M  ISO  4   1 100  68 101  78 101  80 100
M  END
> <chiral flag>
0

> <version>
0

> <s_m_source_file>
/data/baiqing/PycharmProjects/Reinvent-master-3.2/result/LINK_invent/BTK/process_docking_weight1_custom_product_contain_oxygen_bond_distance_aromatic_linkinvent_7_9_3/rearranged_h_0154.sdf

> <i_m_source_file_index>
92

> <r_mmod_Potential_Energy-OPLS-2005>
721.684387207031

> <r_mmod_Stretch_Energy-OPLS-2005>
357.469604492188

> <r_mmod_Bend_Energy-OPLS-2005>
362.125152587891

> <r_mmod_Torsional_Energy-OPLS-2005>
236.589447021484

> <r_mmod_Improper_Torsional_Energy-OPLS-2005>
5.82500076293945

> <r_mmod_Van_der_Waal_Energy-OPLS-2005>
124.046592712402

> <r_mmod_Electrostatic_Energy-OPLS-2005>
-367.741394042969

> <r_mmod_Solvation_Energy-OPLS-2005>
-257.677886962891

> <b_mmod_Minimization_Converged-OPLS-2005>
0

> <r_mmod_RMS_Derivative-OPLS-2005>
1.32179152965546

$$$$
92
                    3D
 Structure written by MMmdl.
156165  0  0  1  0            999 V2000
  -30.5689  -14.8036   20.4385 C   0  0  0  0  0  0
  -30.4385  -12.4880   19.4811 C   0  0  0  0  0  0
  -29.5154  -12.5127   18.2416 C   0  0  0  0  0  0
  -28.0425  -12.3246   18.6552 C   0  0  0  0  0  0
  -27.6394  -13.2313   19.8481 C   0  0  2  0  0  0
  -28.6825  -13.1810   20.9855 C   0  0  0  0  0  0
  -25.2501  -13.8188   20.5690 C   0  0  0  0  0  0
  -24.1796  -13.0437   20.9214 C   0  0  0  0  0  0
  -24.6385  -11.6913   20.8748 C   0  0  0  0  0  0
  -23.9065  -10.4288   21.0409 C   0  0  0  0  0  0
  -24.3617   -9.4204   21.9184 C   0  0  0  0  0  0
  -23.6292   -8.2239   22.0755 C   0  0  0  0  0  0
  -22.4273   -8.0276   21.3545 C   0  0  0  0  0  0
  -21.9909   -9.0252   20.4651 C   0  0  0  0  0  0
  -22.7239  -10.2129   20.3060 C   0  0  0  0  0  0
  -21.6853   -6.0732   22.5278 C   0  0  0  0  0  0
  -21.4015   -6.5638   23.8211 C   0  0  0  0  0  0
  -21.3660   -5.6792   24.9173 C   0  0  0  0  0  0
  -21.6044   -4.3054   24.7226 C   0  0  0  0  0  0
  -21.8820   -3.8145   23.4348 C   0  0  0  0  0  0
  -21.9192   -4.6961   22.3402 C   0  0  0  0  0  0
  -22.7819  -13.5224   21.1872 C   0  0  0  0  0  0
  -22.1660   -4.2145   21.0981 F   0  0  0  0  0  0
  -21.5629   -3.4541   25.7740 F   0  0  0  0  0  0
  -29.9780  -13.5548   20.4036 N   0  0  0  0  0  0
  -26.2920  -12.9392   20.3259 N   0  0  0  0  0  0
  -25.9311  -11.6537   20.5741 N   0  0  0  0  0  0
  -22.0465  -12.8213   22.0428 N   0  0  0  0  0  0
  -25.4188  -15.1915   20.4090 N   0  0  0  0  0  0
  -31.7612  -14.9077   20.1295 O   0  0  0  0  0  0
  -21.6638   -6.8873   21.4240 O   0  0  0  0  0  0
  -22.3507  -14.5531   20.6720 O   0  0  0  0  0  0
  -24.6345  -31.8506   23.1922 C   0  0  0  0  0  0
  -25.9153  -32.4728   23.8288 C   0  0  1  0  0  0
  -27.2290  -27.2272   20.1237 C   0  0  0  0  0  0
  -25.5929  -33.8530   24.2215 N   0  0  0  0  0  0
  -23.4324  -30.4703   21.5366 C   0  0  2  0  0  0
  -24.8792  -28.9066   20.1073 C   0  0  0  0  0  0
  -22.7514  -29.4578   22.4895 C   0  0  0  0  0  0
  -18.0293  -28.1390   22.8486 C   0  0  0  0  0  0
  -24.1489  -36.7270   23.2643 C   0  0  0  0  0  0
  -25.9796  -30.7537   21.3735 C   0  0  0  0  0  0
  -26.0514  -29.3727   20.7133 C   0  0  0  0  0  0
  -27.2229  -28.5462   20.7062 C   0  0  0  0  0  0
  -26.0201  -26.8205   19.5192 C   0  0  0  0  0  0
  -24.8705  -27.6395   19.5010 C   0  0  0  0  0  0
  -23.6510  -29.7976   20.1545 C   0  0  0  0  0  0
  -25.4118  -36.3054   24.0323 C   0  0  1  0  0  0
  -20.5899  -28.3703   23.1265 C   0  0  2  0  0  0
  -20.6777  -26.9415   22.5413 C   0  0  0  0  0  0
  -19.5752  -26.6384   21.5215 C   0  0  0  0  0  0
  -18.1933  -26.7932   22.1627 C   0  0  0  0  0  0
  -19.1549  -28.8863   23.2868 C   0  0  0  0  0  0
  -18.9469  -30.1463   23.8889 C   0  0  0  0  0  0
  -17.6468  -30.6590   24.0562 C   0  0  0  0  0  0
  -25.9063  -34.9427   23.5077 C   0  0  0  0  0  0
  -16.5359  -29.9086   23.6333 C   0  0  0  0  0  0
  -16.7280  -28.6502   23.0357 C   0  0  0  0  0  0
  -26.4505  -31.6575   25.0701 C   0  0  0  0  0  0
  -25.3714  -31.3747   26.1415 C   0  0  0  0  0  0
  -27.0358  -30.2985   24.6220 C   0  0  0  0  0  0
  -27.6047  -32.4328   25.7481 C   0  0  0  0  0  0
  -27.5578  -37.1788   24.8463 C   0  0  0  0  0  0
  -21.4217  -29.3040   22.3645 N   0  0  0  0  0  0
  -26.4288  -37.3761   23.9410 N   0  0  0  0  0  0
  -24.7017  -31.0442   22.0904 N   0  0  0  0  0  0
  -23.4200  -28.8131   23.3015 O   0  0  0  0  0  0
  -28.3559  -26.3638   20.2206 O   0  0  0  0  0  0
  -26.5648  -34.8914   22.4656 O   0  0  0  0  0  0
  -23.5488  -32.1342   23.7203 O   0  0  0  0  0  0
  -28.8997  -18.4492   20.6020 C   0  0  0  0  0  0
  -31.1189  -18.0001   20.0740 C   0  0  0  0  0  0
  -29.9365  -17.4039   20.4414 C   0  0  0  0  0  0
  -29.2712  -19.7984   20.3573 C   0  0  0  0  0  0
  -27.8910  -23.6709   20.1711 C   0  0  0  0  0  0
  -28.4370  -21.0912   20.4096 C   0  0  0  0  0  0
  -30.0377  -24.5466   19.9110 C   0  0  0  0  0  0
  -30.1106  -22.9885   19.8364 C   0  0  0  0  0  0
  -28.5891  -24.9881   19.5983 C   0  0  2  0  0  0
  -28.4295  -25.0938   18.0616 C   0  0  0  0  0  0
  -28.7820  -22.4545   20.1770 N   0  0  0  0  0  0
  -29.7487  -15.9233   20.6326 N   0  0  0  0  0  0
  -27.1499  -20.8494   20.7225 N   0  3  0  0  0  0
  -26.6993  -23.6237   20.5069 O   0  0  0  0  0  0
  -30.9720  -19.7612   19.9142 S   0  0  0  0  0  0
  -31.4775  -12.6269   19.1778 H   0  0  0  0  0  0
  -30.3989  -11.5147   19.9728 H   0  0  0  0  0  0
  -29.8083  -11.7339   17.5360 H   0  0  0  0  0  0
  -29.6303  -13.4617   17.7153 H   0  0  0  0  0  0
  -27.9096  -11.2770   18.9284 H   0  0  0  0  0  0
  -27.3839  -12.5021   17.8042 H   0  0  0  0  0  0
  -27.6278  -14.2486   19.4565 H   0  0  0  0  0  0
  -28.7308  -12.1840   21.4259 H   0  0  0  0  0  0
  -28.4056  -13.8577   21.7954 H   0  0  0  0  0  0
  -25.2763   -9.5682   22.4756 H   0  0  0  0  0  0
  -24.0004   -7.4632   22.7473 H   0  0  0  0  0  0
  -21.0840   -8.8775   19.8957 H   0  0  0  0  0  0
  -22.3701  -10.9668   19.6168 H   0  0  0  0  0  0
  -21.2008   -7.6146   23.9714 H   0  0  0  0  0  0
  -21.1482   -6.0520   25.9075 H   0  0  0  0  0  0
  -22.0598   -2.7608   23.2850 H   0  0  0  0  0  0
  -22.4088  -11.9881   22.4820 H   0  0  0  0  0  0
  -21.1082  -13.1234   22.2635 H   0  0  0  0  0  0
  -24.6436  -15.8380   20.5067 H   0  0  0  0  0  0
  -26.2486  -15.6261   20.0275 H   0  0  0  0  0  0
  -26.7217  -32.5363   23.1021 H   0  0  0  0  0  0
  -25.0053  -33.9653   25.0347 H   0  0  0  0  0  0
  -22.7305  -31.2934   21.3866 H   0  0  0  0  0  0
  -23.3758  -35.9595   23.3296 H   0  0  0  0  0  0
  -24.3577  -36.8907   22.2059 H   0  0  0  0  0  0
  -23.7235  -37.6463   23.6679 H   0  0  0  0  0  0
  -26.1221  -31.5145   20.6048 H   0  0  0  0  0  0
  -26.8551  -30.8023   22.0096 H   0  0  0  0  0  0
  -28.1215  -28.9009   21.1913 H   0  0  0  0  0  0
  -25.9190  -25.8315   19.1032 H   0  0  0  0  0  0
  -23.9652  -27.2671   19.0415 H   0  0  0  0  0  0
  -23.7749  -30.5708   19.3952 H   0  0  0  0  0  0
  -22.7682  -29.2311   19.8523 H   0  0  0  0  0  0
  -25.1304  -36.1891   25.0816 H   0  0  0  0  0  0
  -20.9992  -28.3289   24.1385 H   0  0  0  0  0  0
  -20.5672  -26.2314   23.3622 H   0  0  0  0  0  0
  -21.6645  -26.7431   22.1211 H   0  0  0  0  0  0
  -19.6911  -25.6293   21.1248 H   0  0  0  0  0  0
  -19.6690  -27.3191   20.6743 H   0  0  0  0  0  0
  -17.4202  -26.6682   21.4030 H   0  0  0  0  0  0
  -18.0330  -26.0076   22.9025 H   0  0  0  0  0  0
  -19.7946  -30.7280   24.2256 H   0  0  0  0  0  0
  -17.5023  -31.6270   24.5165 H   0  0  0  0  0  0
  -15.5359  -30.2986   23.7660 H   0  0  0  0  0  0
  -15.8680  -28.0816   22.7081 H   0  0  0  0  0  0
  -24.5887  -30.7097   25.7746 H   0  0  0  0  0  0
  -24.8906  -32.2926   26.4811 H   0  0  0  0  0  0
  -25.8017  -30.8944   27.0211 H   0  0  0  0  0  0
  -26.2952  -29.6722   24.1234 H   0  0  0  0  0  0
  -27.4012  -29.7267   25.4761 H   0  0  0  0  0  0
  -27.8839  -30.4248   23.9486 H   0  0  0  0  0  0
  -27.2644  -33.3636   26.2032 H   0  0  0  0  0  0
  -28.3870  -32.6880   25.0319 H   0  0  0  0  0  0
  -28.0700  -31.8472   26.5419 H   0  0  0  0  0  0
  -28.2590  -38.0092   24.7521 H   0  0  0  0  0  0
  -28.1081  -36.2623   24.6276 H   0  0  0  0  0  0
  -27.2296  -37.1420   25.8866 H   0  0  0  0  0  0
  -20.9408  -29.8754   21.6837 H   0  0  0  0  0  0
  -26.0162  -38.2831   24.1420 H   0  0  0  0  0  0
  -27.8980  -18.1647   20.8888 H   0  0  0  0  0  0
  -32.0754  -17.5293   19.8766 H   0  0  0  0  0  0
  -30.7526  -25.0036   19.2262 H   0  0  0  0  0  0
  -30.3221  -24.8754   20.9122 H   0  0  0  0  0  0
  -30.8693  -22.6057   20.5179 H   0  0  0  0  0  0
  -30.3690  -22.6610   18.8290 H   0  0  0  0  0  0
  -28.7260  -24.1720   17.5600 H   0  0  0  0  0  0
  -29.0602  -25.8884   17.6624 H   0  0  0  0  0  0
  -27.4133  -25.3003   17.7385 H   0  0  0  0  0  0
  -28.8090  -15.6585   20.8865 H   0  0  0  0  0  0
  -26.8175  -19.9133   20.8901 H   0  0  0  0  0  0
  -26.4884  -21.6155   20.7990 H   0  0  0  0  0  0
  1 25  1  0  0  0
  1 30  2  0  0  0
  1 82  1  0  0  0
  2  3  1  0  0  0
  2 25  1  0  0  0
  2 86  1  0  0  0
  2 87  1  0  0  0
  3  4  1  0  0  0
  3 88  1  0  0  0
  3 89  1  0  0  0
  4  5  1  0  0  0
  4 90  1  0  0  0
  4 91  1  0  0  0
  5  6  1  0  0  0
  5 26  1  0  0  0
  5 92  1  0  0  0
  6 25  1  0  0  0
  6 93  1  0  0  0
  6 94  1  0  0  0
  7  8  2  0  0  0
  7 26  1  0  0  0
  7 29  1  0  0  0
  8  9  1  0  0  0
  8 22  1  0  0  0
  9 10  1  0  0  0
  9 27  2  0  0  0
 10 11  2  0  0  0
 10 15  1  0  0  0
 11 12  1  0  0  0
 11 95  1  0  0  0
 12 13  2  0  0  0
 12 96  1  0  0  0
 13 14  1  0  0  0
 13 31  1  0  0  0
 14 15  2  0  0  0
 14 97  1  0  0  0
 15 98  1  0  0  0
 16 17  2  0  0  0
 16 21  1  0  0  0
 16 31  1  0  0  0
 17 18  1  0  0  0
 17 99  1  0  0  0
 18 19  2  0  0  0
 18100  1  0  0  0
 19 20  1  0  0  0
 19 24  1  0  0  0
 20 21  2  0  0  0
 20101  1  0  0  0
 21 23  1  0  0  0
 22 28  1  0  0  0
 22 32  2  0  0  0
 26 27  1  0  0  0
 28102  1  0  0  0
 28103  1  0  0  0
 29104  1  0  0  0
 29105  1  0  0  0
 33 34  1  0  0  0
 33 66  1  0  0  0
 33 70  2  0  0  0
 34 36  1  0  0  0
 34 59  1  0  0  0
 34106  1  0  0  0
 35 44  2  0  0  0
 35 45  1  0  0  0
 35 68  1  0  0  0
 36 56  1  0  0  0
 36107  1  0  0  0
 37 39  1  0  0  0
 37 47  1  0  0  0
 37 66  1  0  0  0
 37108  1  0  0  0
 38 43  2  0  0  0
 38 46  1  0  0  0
 38 47  1  0  0  0
 39 64  1  0  0  0
 39 67  2  0  0  0
 40 52  1  0  0  0
 40 53  2  0  0  0
 40 58  1  0  0  0
 41109  1  0  0  0
 41110  1  0  0  0
 41111  1  0  0  0
 41 48  1  0  0  0
 42 43  1  0  0  0
 42 66  1  0  0  0
 42112  1  0  0  0
 42113  1  0  0  0
 43 44  1  0  0  0
 44114  1  0  0  0
 45 46  2  0  0  0
 45115  1  0  0  0
 46116  1  0  0  0
 47117  1  0  0  0
 47118  1  0  0  0
 48 56  1  0  0  0
 48 65  1  0  0  0
 48119  1  0  0  0
 49 50  1  0  0  0
 49 53  1  0  0  0
 49 64  1  0  0  0
 49120  1  0  0  0
 50 51  1  0  0  0
 50121  1  0  0  0
 50122  1  0  0  0
 51 52  1  0  0  0
 51123  1  0  0  0
 51124  1  0  0  0
 52125  1  0  0  0
 52126  1  0  0  0
 53 54  1  0  0  0
 54 55  2  0  0  0
 54127  1  0  0  0
 55 57  1  0  0  0
 55128  1  0  0  0
 56 69  2  0  0  0
 57 58  2  0  0  0
 57129  1  0  0  0
 58130  1  0  0  0
 59 60  1  0  0  0
 59 61  1  0  0  0
 59 62  1  0  0  0
 60131  1  0  0  0
 60132  1  0  0  0
 60133  1  0  0  0
 61134  1  0  0  0
 61135  1  0  0  0
 61136  1  0  0  0
 62137  1  0  0  0
 62138  1  0  0  0
 62139  1  0  0  0
 63 65  1  0  0  0
 63140  1  0  0  0
 63141  1  0  0  0
 63142  1  0  0  0
 64143  1  0  0  0
 65144  1  0  0  0
 68 79  1  0  0  0
 71 73  1  0  0  0
 71 74  2  0  0  0
 71145  1  0  0  0
 72 73  2  0  0  0
 72 85  1  0  0  0
 72146  1  0  0  0
 73 82  1  0  0  0
 74 76  1  0  0  0
 74 85  1  0  0  0
 75 79  1  0  0  0
 75 81  1  0  0  0
 75 84  2  0  0  0
 76 81  1  0  0  0
 76 83  2  0  0  0
 77 78  1  0  0  0
 77 79  1  0  0  0
 77147  1  0  0  0
 77148  1  0  0  0
 78 81  1  0  0  0
 78149  1  0  0  0
 78150  1  0  0  0
 79 80  1  0  0  0
 80151  1  0  0  0
 80152  1  0  0  0
 80153  1  0  0  0
 82154  1  0  0  0
 83155  1  0  0  0
 83156  1  0  0  0
M  CHG  1  83   1
M  ISO  4   1 100  68 101  79 101  82 100
M  END
> <chiral flag>
0

> <version>
0

> <s_m_source_file>
/data/baiqing/PycharmProjects/Reinvent-master-3.2/result/LINK_invent/BTK/process_docking_weight1_custom_product_contain_oxygen_bond_distance_aromatic_linkinvent_7_9_3/rearranged_h_0154.sdf

> <i_m_source_file_index>
93

> <r_mmod_Potential_Energy-OPLS-2005>
210.082443237305

> <r_mmod_Stretch_Energy-OPLS-2005>
154.334457397461

> <r_mmod_Bend_Energy-OPLS-2005>
252.184951782227

> <r_mmod_Torsional_Energy-OPLS-2005>
237.651702880859

> <r_mmod_Improper_Torsional_Energy-OPLS-2005>
5.19545745849609

> <r_mmod_Van_der_Waal_Energy-OPLS-2005>
119.42301940918

> <r_mmod_Electrostatic_Energy-OPLS-2005>
-209.575805664062

> <r_mmod_Solvation_Energy-OPLS-2005>
-456.279296875

> <b_mmod_Minimization_Converged-OPLS-2005>
0

> <r_mmod_RMS_Derivative-OPLS-2005>
0.489437460899353

$$$$
93
                    3D
 Structure written by MMmdl.
155164  0  0  1  0            999 V2000
  -30.5899  -14.7519   20.4768 C   0  0  0  0  0  0
  -30.4421  -12.4609   19.4779 C   0  0  0  0  0  0
  -29.5172  -12.5195   18.2406 C   0  0  0  0  0  0
  -28.0427  -12.3373   18.6512 C   0  0  0  0  0  0
  -27.6481  -13.2281   19.8588 C   0  0  2  0  0  0
  -28.6906  -13.1401   20.9957 C   0  0  0  0  0  0
  -25.2536  -13.8189   20.5690 C   0  0  0  0  0  0
  -24.1814  -13.0444   20.9200 C   0  0  0  0  0  0
  -24.6397  -11.6918   20.8741 C   0  0  0  0  0  0
  -23.9067  -10.4299   21.0409 C   0  0  0  0  0  0
  -24.3620   -9.4212   21.9184 C   0  0  0  0  0  0
  -23.6298   -8.2246   22.0750 C   0  0  0  0  0  0
  -22.4278   -8.0287   21.3545 C   0  0  0  0  0  0
  -21.9916   -9.0260   20.4645 C   0  0  0  0  0  0
  -22.7241  -10.2139   20.3055 C   0  0  0  0  0  0
  -21.6854   -6.0741   22.5283 C   0  0  0  0  0  0
  -21.4012   -6.5642   23.8217 C   0  0  0  0  0  0
  -21.3659   -5.6793   24.9178 C   0  0  0  0  0  0
  -21.6044   -4.3055   24.7226 C   0  0  0  0  0  0
  -21.8819   -3.8149   23.4345 C   0  0  0  0  0  0
  -21.9192   -4.6970   22.3405 C   0  0  0  0  0  0
  -22.7833  -13.5232   21.1863 C   0  0  0  0  0  0
  -22.1661   -4.2158   21.0984 F   0  0  0  0  0  0
  -21.5632   -3.4537   25.7735 F   0  0  0  0  0  0
  -29.9960  -13.5077   20.4283 N   0  0  0  0  0  0
  -26.2965  -12.9390   20.3298 N   0  0  0  0  0  0
  -25.9328  -11.6535   20.5748 N   0  0  0  0  0  0
  -22.0470  -12.8224   22.0417 N   0  0  0  0  0  0
  -25.4249  -15.1909   20.4107 N   0  0  0  0  0  0
  -31.7555  -14.8899   20.0917 O   0  0  0  0  0  0
  -21.6643   -6.8882   21.4242 O   0  0  0  0  0  0
  -22.3524  -14.5543   20.6714 O   0  0  0  0  0  0
  -24.6324  -31.8544   23.1984 C   0  0  0  0  0  0
  -25.9151  -32.4750   23.8333 C   0  0  1  0  0  0
  -27.2191  -27.2484   20.1331 C   0  0  0  0  0  0
  -25.5946  -33.8553   24.2254 N   0  0  0  0  0  0
  -23.4293  -30.4776   21.5414 C   0  0  2  0  0  0
  -24.8785  -28.9266   20.1062 C   0  0  0  0  0  0
  -22.7505  -29.4596   22.4898 C   0  0  0  0  0  0
  -18.0292  -28.1397   22.8483 C   0  0  0  0  0  0
  -24.1483  -36.7272   23.2641 C   0  0  0  0  0  0
  -25.9765  -30.7627   21.3823 C   0  0  0  0  0  0
  -26.0484  -29.3845   20.7243 C   0  0  0  0  0  0
  -27.2192  -28.5572   20.7295 C   0  0  0  0  0  0
  -26.0328  -26.8772   19.4586 C   0  0  0  0  0  0
  -24.8776  -27.6821   19.4601 C   0  0  0  0  0  0
  -23.6490  -29.8140   20.1562 C   0  0  0  0  0  0
  -25.4111  -36.3063   24.0325 C   0  0  1  0  0  0
  -20.5897  -28.3705   23.1270 C   0  0  2  0  0  0
  -20.6774  -26.9420   22.5413 C   0  0  0  0  0  0
  -19.5749  -26.6392   21.5214 C   0  0  0  0  0  0
  -18.1931  -26.7941   22.1623 C   0  0  0  0  0  0
  -19.1548  -28.8868   23.2870 C   0  0  0  0  0  0
  -18.9469  -30.1470   23.8886 C   0  0  0  0  0  0
  -17.6468  -30.6596   24.0564 C   0  0  0  0  0  0
  -25.9052  -34.9435   23.5086 C   0  0  0  0  0  0
  -16.5359  -29.9088   23.6339 C   0  0  0  0  0  0
  -16.7281  -28.6511   23.0355 C   0  0  0  0  0  0
  -26.4513  -31.6584   25.0730 C   0  0  0  0  0  0
  -25.3738  -31.3761   26.1458 C   0  0  0  0  0  0
  -27.0353  -30.2994   24.6231 C   0  0  0  0  0  0
  -27.6066  -32.4329   25.7501 C   0  0  0  0  0  0
  -27.5572  -37.1794   24.8466 C   0  0  0  0  0  0
  -21.4211  -29.3048   22.3652 N   0  0  0  0  0  0
  -26.4283  -37.3766   23.9410 N   0  0  0  0  0  0
  -24.6985  -31.0497   22.0969 N   0  0  0  0  0  0
  -23.4202  -28.8132   23.2996 O   0  0  0  0  0  0
  -28.3060  -26.3387   20.2237 O   0  0  0  0  0  0
  -26.5614  -34.8912   22.4647 O   0  0  0  0  0  0
  -23.5474  -32.1372   23.7275 O   0  0  0  0  0  0
  -30.7120  -17.9812   19.7899 C   0  0  0  0  0  0
  -30.5495  -19.4340   19.8409 C   0  0  0  0  0  0
  -29.5937  -19.9020   20.7283 C   0  0  0  0  0  0
  -29.9102  -17.2314   20.6349 C   0  0  0  0  0  0
  -28.6914  -23.8466   21.1060 C   0  0  0  0  0  0
  -29.2493  -21.2979   21.2333 C   0  0  0  0  0  0
  -28.6205  -24.1899   18.7701 C   0  0  0  0  0  0
  -28.8170  -22.6647   19.0743 C   0  0  0  0  0  0
  -28.0842  -24.8447   20.0539 C   0  0  2  0  0  0
  -28.9738  -22.4961   20.5325 N   0  0  0  0  0  0
  -31.3945  -20.2403   19.0612 N   0  0  0  0  0  0
  -29.7973  -15.8373   20.8310 N   0  0  0  0  0  0
  -29.2206  -21.3581   22.5806 N   0  3  0  0  0  0
  -28.8316  -24.1154   22.3088 O   0  0  0  0  0  0
  -28.8862  -18.4332   21.4826 S   0  0  0  0  0  0
  -31.4821  -12.5954   19.1752 H   0  0  0  0  0  0
  -30.3943  -11.4776   19.9481 H   0  0  0  0  0  0
  -29.8020  -11.7528   17.5190 H   0  0  0  0  0  0
  -29.6418  -13.4773   17.7328 H   0  0  0  0  0  0
  -27.9002  -11.2866   18.9064 H   0  0  0  0  0  0
  -27.3860  -12.5347   17.8032 H   0  0  0  0  0  0
  -27.6497  -14.2539   19.4901 H   0  0  0  0  0  0
  -28.7262  -12.1312   21.4099 H   0  0  0  0  0  0
  -28.4170  -13.7950   21.8243 H   0  0  0  0  0  0
  -25.2768   -9.5693   22.4753 H   0  0  0  0  0  0
  -24.0014   -7.4639   22.7465 H   0  0  0  0  0  0
  -21.0850   -8.8778   19.8951 H   0  0  0  0  0  0
  -22.3701  -10.9678   19.6162 H   0  0  0  0  0  0
  -21.1999   -7.6149   23.9721 H   0  0  0  0  0  0
  -21.1479   -6.0522   25.9081 H   0  0  0  0  0  0
  -22.0594   -2.7612   23.2843 H   0  0  0  0  0  0
  -22.4077  -11.9887   22.4816 H   0  0  0  0  0  0
  -21.1083  -13.1247   22.2608 H   0  0  0  0  0  0
  -24.6570  -15.8452   20.5167 H   0  0  0  0  0  0
  -26.2712  -15.6276   20.0687 H   0  0  0  0  0  0
  -26.7214  -32.5400   23.1071 H   0  0  0  0  0  0
  -25.0126  -33.9688   25.0422 H   0  0  0  0  0  0
  -22.7265  -31.3007   21.3967 H   0  0  0  0  0  0
  -23.3744  -35.9605   23.3306 H   0  0  0  0  0  0
  -24.3576  -36.8890   22.2055 H   0  0  0  0  0  0
  -23.7231  -37.6473   23.6661 H   0  0  0  0  0  0
  -26.1170  -31.5228   20.6125 H   0  0  0  0  0  0
  -26.8533  -30.8126   22.0162 H   0  0  0  0  0  0
  -28.1095  -28.8997   21.2379 H   0  0  0  0  0  0
  -25.9635  -25.9425   18.9239 H   0  0  0  0  0  0
  -23.9881  -27.3340   18.9534 H   0  0  0  0  0  0
  -23.7745  -30.5924   19.4024 H   0  0  0  0  0  0
  -22.7673  -29.2484   19.8495 H   0  0  0  0  0  0
  -25.1293  -36.1906   25.0818 H   0  0  0  0  0  0
  -21.0001  -28.3289   24.1388 H   0  0  0  0  0  0
  -20.5671  -26.2315   23.3616 H   0  0  0  0  0  0
  -21.6639  -26.7443   22.1210 H   0  0  0  0  0  0
  -19.6904  -25.6299   21.1255 H   0  0  0  0  0  0
  -19.6695  -27.3189   20.6733 H   0  0  0  0  0  0
  -17.4207  -26.6703   21.4017 H   0  0  0  0  0  0
  -18.0319  -26.0087   22.9019 H   0  0  0  0  0  0
  -19.7947  -30.7289   24.2248 H   0  0  0  0  0  0
  -17.5024  -31.6271   24.5167 H   0  0  0  0  0  0
  -15.5357  -30.2986   23.7667 H   0  0  0  0  0  0
  -15.8682  -28.0823   22.7075 H   0  0  0  0  0  0
  -24.5904  -30.7109   25.7805 H   0  0  0  0  0  0
  -24.8942  -32.2945   26.4856 H   0  0  0  0  0  0
  -25.8062  -30.8967   27.0250 H   0  0  0  0  0  0
  -26.2935  -29.6743   24.1245 H   0  0  0  0  0  0
  -27.4010  -29.7261   25.4759 H   0  0  0  0  0  0
  -27.8830  -30.4249   23.9490 H   0  0  0  0  0  0
  -27.2678  -33.3647   26.2040 H   0  0  0  0  0  0
  -28.3900  -32.6861   25.0343 H   0  0  0  0  0  0
  -28.0705  -31.8479   26.5451 H   0  0  0  0  0  0
  -28.2601  -38.0080   24.7502 H   0  0  0  0  0  0
  -28.1058  -36.2613   24.6302 H   0  0  0  0  0  0
  -27.2295  -37.1461   25.8872 H   0  0  0  0  0  0
  -20.9394  -29.8783   21.6870 H   0  0  0  0  0  0
  -26.0157  -38.2838   24.1419 H   0  0  0  0  0  0
  -31.4405  -17.5304   19.1308 H   0  0  0  0  0  0
  -27.9263  -24.3378   17.9428 H   0  0  0  0  0  0
  -29.5700  -24.6420   18.4806 H   0  0  0  0  0  0
  -29.6767  -22.2677   18.5379 H   0  0  0  0  0  0
  -27.9417  -22.0955   18.7618 H   0  0  0  0  0  0
  -27.0242  -24.6170   20.1447 H   0  0  0  0  0  0
  -32.2014  -19.7833   18.6470 H   0  0  0  0  0  0
  -31.6456  -21.1522   19.4257 H   0  0  0  0  0  0
  -28.9268  -15.5505   21.2536 H   0  0  0  0  0  0
  -29.4237  -20.5473   23.1453 H   0  0  0  0  0  0
  -29.0584  -22.2434   23.0501 H   0  0  0  0  0  0
  1 25  1  0  0  0
  1 30  2  0  0  0
  1 82  1  0  0  0
  2  3  1  0  0  0
  2 25  1  0  0  0
  2 86  1  0  0  0
  2 87  1  0  0  0
  3  4  1  0  0  0
  3 88  1  0  0  0
  3 89  1  0  0  0
  4  5  1  0  0  0
  4 90  1  0  0  0
  4 91  1  0  0  0
  5  6  1  0  0  0
  5 26  1  0  0  0
  5 92  1  0  0  0
  6 25  1  0  0  0
  6 93  1  0  0  0
  6 94  1  0  0  0
  7  8  2  0  0  0
  7 26  1  0  0  0
  7 29  1  0  0  0
  8  9  1  0  0  0
  8 22  1  0  0  0
  9 10  1  0  0  0
  9 27  2  0  0  0
 10 11  2  0  0  0
 10 15  1  0  0  0
 11 12  1  0  0  0
 11 95  1  0  0  0
 12 13  2  0  0  0
 12 96  1  0  0  0
 13 14  1  0  0  0
 13 31  1  0  0  0
 14 15  2  0  0  0
 14 97  1  0  0  0
 15 98  1  0  0  0
 16 17  2  0  0  0
 16 21  1  0  0  0
 16 31  1  0  0  0
 17 18  1  0  0  0
 17 99  1  0  0  0
 18 19  2  0  0  0
 18100  1  0  0  0
 19 20  1  0  0  0
 19 24  1  0  0  0
 20 21  2  0  0  0
 20101  1  0  0  0
 21 23  1  0  0  0
 22 28  1  0  0  0
 22 32  2  0  0  0
 26 27  1  0  0  0
 28102  1  0  0  0
 28103  1  0  0  0
 29104  1  0  0  0
 29105  1  0  0  0
 33 34  1  0  0  0
 33 66  1  0  0  0
 33 70  2  0  0  0
 34 36  1  0  0  0
 34 59  1  0  0  0
 34106  1  0  0  0
 35 44  2  0  0  0
 35 45  1  0  0  0
 35 68  1  0  0  0
 36 56  1  0  0  0
 36107  1  0  0  0
 37 39  1  0  0  0
 37 47  1  0  0  0
 37 66  1  0  0  0
 37108  1  0  0  0
 38 43  2  0  0  0
 38 46  1  0  0  0
 38 47  1  0  0  0
 39 64  1  0  0  0
 39 67  2  0  0  0
 40 52  1  0  0  0
 40 53  2  0  0  0
 40 58  1  0  0  0
 41109  1  0  0  0
 41110  1  0  0  0
 41111  1  0  0  0
 41 48  1  0  0  0
 42 43  1  0  0  0
 42 66  1  0  0  0
 42112  1  0  0  0
 42113  1  0  0  0
 43 44  1  0  0  0
 44114  1  0  0  0
 45 46  2  0  0  0
 45115  1  0  0  0
 46116  1  0  0  0
 47117  1  0  0  0
 47118  1  0  0  0
 48 56  1  0  0  0
 48 65  1  0  0  0
 48119  1  0  0  0
 49 50  1  0  0  0
 49 53  1  0  0  0
 49 64  1  0  0  0
 49120  1  0  0  0
 50 51  1  0  0  0
 50121  1  0  0  0
 50122  1  0  0  0
 51 52  1  0  0  0
 51123  1  0  0  0
 51124  1  0  0  0
 52125  1  0  0  0
 52126  1  0  0  0
 53 54  1  0  0  0
 54 55  2  0  0  0
 54127  1  0  0  0
 55 57  1  0  0  0
 55128  1  0  0  0
 56 69  2  0  0  0
 57 58  2  0  0  0
 57129  1  0  0  0
 58130  1  0  0  0
 59 60  1  0  0  0
 59 61  1  0  0  0
 59 62  1  0  0  0
 60131  1  0  0  0
 60132  1  0  0  0
 60133  1  0  0  0
 61134  1  0  0  0
 61135  1  0  0  0
 61136  1  0  0  0
 62137  1  0  0  0
 62138  1  0  0  0
 62139  1  0  0  0
 63 65  1  0  0  0
 63140  1  0  0  0
 63141  1  0  0  0
 63142  1  0  0  0
 64143  1  0  0  0
 65144  1  0  0  0
 68 79  1  0  0  0
 71 72  1  0  0  0
 71 74  2  0  0  0
 71145  1  0  0  0
 72 73  2  0  0  0
 72 81  1  0  0  0
 73 76  1  0  0  0
 73 85  1  0  0  0
 74 82  1  0  0  0
 74 85  1  0  0  0
 75 79  1  0  0  0
 75 80  1  0  0  0
 75 84  2  0  0  0
 76 80  1  0  0  0
 76 83  2  0  0  0
 77 78  1  0  0  0
 77 79  1  0  0  0
 77146  1  0  0  0
 77147  1  0  0  0
 78 80  1  0  0  0
 78148  1  0  0  0
 78149  1  0  0  0
 79150  1  0  0  0
 81151  1  0  0  0
 81152  1  0  0  0
 82153  1  0  0  0
 83154  1  0  0  0
 83155  1  0  0  0
M  CHG  1  83   1
M  ISO  4   1 100  68 101  79 101  82 100
M  END
> <chiral flag>
0

> <version>
0

> <s_m_source_file>
/data/baiqing/PycharmProjects/Reinvent-master-3.2/result/LINK_invent/BTK/process_docking_weight1_custom_product_contain_oxygen_bond_distance_aromatic_linkinvent_7_9_3/rearranged_h_0154.sdf

> <i_m_source_file_index>
94

> <r_mmod_Potential_Energy-OPLS-2005>
180.417449951172

> <r_mmod_Stretch_Energy-OPLS-2005>
122.241561889648

> <r_mmod_Bend_Energy-OPLS-2005>
213.689178466797

> <r_mmod_Torsional_Energy-OPLS-2005>
256.572723388672

> <r_mmod_Improper_Torsional_Energy-OPLS-2005>
9.01841259002686

> <r_mmod_Van_der_Waal_Energy-OPLS-2005>
121.833877563477

> <r_mmod_Electrostatic_Energy-OPLS-2005>
-167.498474121094

> <r_mmod_Solvation_Energy-OPLS-2005>
-466.697296142578

> <b_mmod_Minimization_Converged-OPLS-2005>
0

> <r_mmod_RMS_Derivative-OPLS-2005>
0.845195174217224

$$$$
