0
                    3D
 Structure written by MMmdl.
155164  0  0  1  0            999 V2000
  -30.5782  -14.8333   20.4321 C   0  0  0  0  0  0
  -30.4381  -12.5086   19.4911 C   0  0  0  0  0  0
  -29.5186  -12.5342   18.2488 C   0  0  0  0  0  0
  -28.0471  -12.3370   18.6607 C   0  0  0  0  0  0
  -27.6423  -13.2407   19.8557 C   0  0  2  0  0  0
  -28.6869  -13.2026   20.9940 C   0  0  0  0  0  0
  -25.2506  -13.8204   20.5727 C   0  0  0  0  0  0
  -24.1807  -13.0451   20.9218 C   0  0  0  0  0  0
  -24.6405  -11.6923   20.8746 C   0  0  0  0  0  0
  -23.9079  -10.4298   21.0395 C   0  0  0  0  0  0
  -24.3627   -9.4211   21.9172 C   0  0  0  0  0  0
  -23.6296   -8.2250   22.0749 C   0  0  0  0  0  0
  -22.4274   -8.0284   21.3544 C   0  0  0  0  0  0
  -21.9914   -9.0259   20.4653 C   0  0  0  0  0  0
  -22.7242  -10.2140   20.3051 C   0  0  0  0  0  0
  -21.6854   -6.0732   22.5278 C   0  0  0  0  0  0
  -21.4013   -6.5641   23.8212 C   0  0  0  0  0  0
  -21.3662   -5.6787   24.9173 C   0  0  0  0  0  0
  -21.6048   -4.3054   24.7223 C   0  0  0  0  0  0
  -21.8815   -3.8148   23.4343 C   0  0  0  0  0  0
  -21.9196   -4.6962   22.3401 C   0  0  0  0  0  0
  -22.7818  -13.5223   21.1867 C   0  0  0  0  0  0
  -22.1653   -4.2152   21.0981 F   0  0  0  0  0  0
  -21.5638   -3.4542   25.7728 F   0  0  0  0  0  0
  -29.9822  -13.5812   20.4143 N   0  0  0  0  0  0
  -26.2944  -12.9433   20.3303 N   0  0  0  0  0  0
  -25.9341  -11.6570   20.5760 N   0  0  0  0  0  0
  -22.0466  -12.8224   22.0431 N   0  0  0  0  0  0
  -25.4196  -15.1939   20.4177 N   0  0  0  0  0  0
  -31.7503  -14.9328   20.0569 O   0  0  0  0  0  0
  -21.6647   -6.8877   21.4239 O   0  0  0  0  0  0
  -22.3495  -14.5521   20.6706 O   0  0  0  0  0  0
  -24.6361  -31.8507   23.1920 C   0  0  0  0  0  0
  -25.9161  -32.4716   23.8295 C   0  0  1  0  0  0
  -27.2204  -27.1970   20.1476 C   0  0  0  0  0  0
  -25.5927  -33.8524   24.2196 N   0  0  0  0  0  0
  -23.4362  -30.4721   21.5355 C   0  0  2  0  0  0
  -24.8881  -28.9096   20.1086 C   0  0  0  0  0  0
  -22.7528  -29.4587   22.4866 C   0  0  0  0  0  0
  -18.0304  -28.1375   22.8488 C   0  0  0  0  0  0
  -24.1485  -36.7273   23.2640 C   0  0  0  0  0  0
  -25.9883  -30.7409   21.3860 C   0  0  0  0  0  0
  -26.0600  -29.3576   20.7317 C   0  0  0  0  0  0
  -27.2252  -28.5125   20.7454 C   0  0  0  0  0  0
  -26.0333  -26.8544   19.4589 C   0  0  0  0  0  0
  -24.8823  -27.6674   19.4586 C   0  0  0  0  0  0
  -23.6602  -29.8020   20.1540 C   0  0  0  0  0  0
  -25.4118  -36.3046   24.0313 C   0  0  1  0  0  0
  -20.5916  -28.3704   23.1226 C   0  0  2  0  0  0
  -20.6775  -26.9401   22.5400 C   0  0  0  0  0  0
  -19.5749  -26.6365   21.5201 C   0  0  0  0  0  0
  -18.1936  -26.7912   22.1620 C   0  0  0  0  0  0
  -19.1562  -28.8855   23.2858 C   0  0  0  0  0  0
  -18.9486  -30.1458   23.8883 C   0  0  0  0  0  0
  -17.6484  -30.6582   24.0561 C   0  0  0  0  0  0
  -25.9070  -34.9423   23.5062 C   0  0  0  0  0  0
  -16.5374  -29.9083   23.6332 C   0  0  0  0  0  0
  -16.7289  -28.6492   23.0362 C   0  0  0  0  0  0
  -26.4499  -31.6578   25.0727 C   0  0  0  0  0  0
  -25.3693  -31.3802   26.1433 C   0  0  0  0  0  0
  -27.0316  -30.2953   24.6278 C   0  0  0  0  0  0
  -27.6033  -32.4340   25.7499 C   0  0  0  0  0  0
  -27.5584  -37.1773   24.8456 C   0  0  0  0  0  0
  -21.4227  -29.3046   22.3600 N   0  0  0  0  0  0
  -26.4274  -37.3769   23.9430 N   0  0  0  0  0  0
  -24.7060  -31.0427   22.0925 N   0  0  0  0  0  0
  -23.4209  -28.8140   23.2989 O   0  0  0  0  0  0
  -28.2794  -26.2344   20.2163 O   0  0  0  0  0  0
  -26.5673  -34.8914   22.4650 O   0  0  0  0  0  0
  -23.5492  -32.1357   23.7169 O   0  0  0  0  0  0
  -29.4856  -18.6414   21.0510 C   0  0  0  0  0  0
  -30.2979  -17.8681   19.1072 C   0  0  0  0  0  0
  -29.9060  -17.4190   20.3438 C   0  0  0  0  0  0
  -29.6592  -19.7766   20.2370 C   0  0  0  0  0  0
  -28.7956  -23.6645   20.3378 C   0  0  0  0  0  0
  -27.9893  -24.8138   20.2904 C   0  0  0  0  0  0
  -30.3069  -23.5891   20.3903 C   0  0  0  0  0  0
  -28.3570  -22.1402   20.3631 C   0  0  0  0  0  0
  -30.7133  -22.0910   20.6275 C   0  0  0  0  0  0
  -30.3719  -20.0237   17.8037 C   0  0  0  0  0  0
  -30.1227  -19.2638   19.0186 N   0  0  0  0  0  0
  -29.5319  -21.2160   20.5582 N   0  0  0  0  0  0
  -29.8193  -15.9688   20.7573 N   0  0  0  0  0  0
  -31.4781  -12.6394   19.1881 H   0  0  0  0  0  0
  -30.3960  -11.5357   19.9831 H   0  0  0  0  0  0
  -29.8165  -11.7629   17.5379 H   0  0  0  0  0  0
  -29.6286  -13.4882   17.7302 H   0  0  0  0  0  0
  -27.9189  -11.2882   18.9308 H   0  0  0  0  0  0
  -27.3869  -12.5138   17.8093 H   0  0  0  0  0  0
  -27.6270  -14.2583   19.4644 H   0  0  0  0  0  0
  -28.7409  -12.2105   21.4432 H   0  0  0  0  0  0
  -28.4060  -13.8875   21.7962 H   0  0  0  0  0  0
  -25.2772   -9.5693   22.4752 H   0  0  0  0  0  0
  -24.0013   -7.4638   22.7467 H   0  0  0  0  0  0
  -21.0839   -8.8779   19.8956 H   0  0  0  0  0  0
  -22.3690  -10.9681   19.6170 H   0  0  0  0  0  0
  -21.2001   -7.6138   23.9714 H   0  0  0  0  0  0
  -21.1486   -6.0519   25.9075 H   0  0  0  0  0  0
  -22.0598   -2.7613   23.2844 H   0  0  0  0  0  0
  -22.4070  -11.9882   22.4838 H   0  0  0  0  0  0
  -21.1087  -13.1251   22.2633 H   0  0  0  0  0  0
  -24.6598  -15.8526   20.5482 H   0  0  0  0  0  0
  -26.2703  -15.6359   20.0923 H   0  0  0  0  0  0
  -26.7219  -32.5353   23.1028 H   0  0  0  0  0  0
  -25.0026  -33.9652   25.0294 H   0  0  0  0  0  0
  -22.7361  -31.2969   21.3835 H   0  0  0  0  0  0
  -23.3754  -35.9595   23.3259 H   0  0  0  0  0  0
  -24.3589  -36.8955   22.2069 H   0  0  0  0  0  0
  -23.7207  -37.6442   23.6700 H   0  0  0  0  0  0
  -26.1368  -31.4954   20.6130 H   0  0  0  0  0  0
  -26.8604  -30.7932   22.0258 H   0  0  0  0  0  0
  -28.1144  -28.8459   21.2612 H   0  0  0  0  0  0
  -25.9664  -25.9158   18.9286 H   0  0  0  0  0  0
  -23.9914  -27.3222   18.9518 H   0  0  0  0  0  0
  -23.7870  -30.5750   19.3956 H   0  0  0  0  0  0
  -22.7777  -29.2372   19.8482 H   0  0  0  0  0  0
  -25.1285  -36.1875   25.0798 H   0  0  0  0  0  0
  -21.0022  -28.3287   24.1342 H   0  0  0  0  0  0
  -20.5618  -26.2334   23.3628 H   0  0  0  0  0  0
  -21.6645  -26.7374   22.1226 H   0  0  0  0  0  0
  -19.6910  -25.6270   21.1243 H   0  0  0  0  0  0
  -19.6671  -27.3166   20.6717 H   0  0  0  0  0  0
  -17.4194  -26.6658   21.4034 H   0  0  0  0  0  0
  -18.0347  -26.0052   22.9014 H   0  0  0  0  0  0
  -19.7978  -30.7269   24.2230 H   0  0  0  0  0  0
  -17.5053  -31.6256   24.5168 H   0  0  0  0  0  0
  -15.5379  -30.2983   23.7653 H   0  0  0  0  0  0
  -15.8690  -28.0798   22.7088 H   0  0  0  0  0  0
  -24.5818  -30.7209   25.7765 H   0  0  0  0  0  0
  -24.8958  -32.3019   26.4826 H   0  0  0  0  0  0
  -25.7976  -30.8977   27.0223 H   0  0  0  0  0  0
  -26.2899  -29.6712   24.1272 H   0  0  0  0  0  0
  -27.3896  -29.7226   25.4846 H   0  0  0  0  0  0
  -27.8835  -30.4161   23.9581 H   0  0  0  0  0  0
  -27.2591  -33.3631   26.2053 H   0  0  0  0  0  0
  -28.3842  -32.6921   25.0334 H   0  0  0  0  0  0
  -28.0685  -31.8489   26.5439 H   0  0  0  0  0  0
  -28.2545  -38.0124   24.7561 H   0  0  0  0  0  0
  -28.1118  -36.2655   24.6167 H   0  0  0  0  0  0
  -27.2330  -37.1295   25.8863 H   0  0  0  0  0  0
  -20.9415  -29.8784   21.6811 H   0  0  0  0  0  0
  -26.0134  -38.2817   24.1491 H   0  0  0  0  0  0
  -29.1146  -18.6879   22.0644 H   0  0  0  0  0  0
  -30.6569  -17.3158   18.2480 H   0  0  0  0  0  0
  -26.9244  -24.6440   20.3182 H   0  0  0  0  0  0
  -30.6926  -24.2337   21.1815 H   0  0  0  0  0  0
  -30.7140  -23.9536   19.4460 H   0  0  0  0  0  0
  -27.8367  -21.8930   19.4377 H   0  0  0  0  0  0
  -27.6495  -21.9936   21.1798 H   0  0  0  0  0  0
  -31.1622  -21.9846   21.6172 H   0  0  0  0  0  0
  -31.4832  -21.7888   19.9181 H   0  0  0  0  0  0
  -31.0659  -19.4900   17.1538 H   0  0  0  0  0  0
  -30.7894  -21.0014   18.0265 H   0  0  0  0  0  0
  -29.4325  -20.1663   17.2713 H   0  0  0  0  0  0
  -28.9733  -15.7351   21.2551 H   0  0  0  0  0  0
  1 25  1  0  0  0
  1 30  2  0  0  0
  1 83  1  0  0  0
  2  3  1  0  0  0
  2 25  1  0  0  0
  2 84  1  0  0  0
  2 85  1  0  0  0
  3  4  1  0  0  0
  3 86  1  0  0  0
  3 87  1  0  0  0
  4  5  1  0  0  0
  4 88  1  0  0  0
  4 89  1  0  0  0
  5  6  1  0  0  0
  5 26  1  0  0  0
  5 90  1  0  0  0
  6 25  1  0  0  0
  6 91  1  0  0  0
  6 92  1  0  0  0
  7  8  2  0  0  0
  7 26  1  0  0  0
  7 29  1  0  0  0
  8  9  1  0  0  0
  8 22  1  0  0  0
  9 10  1  0  0  0
  9 27  2  0  0  0
 10 11  2  0  0  0
 10 15  1  0  0  0
 11 12  1  0  0  0
 11 93  1  0  0  0
 12 13  2  0  0  0
 12 94  1  0  0  0
 13 14  1  0  0  0
 13 31  1  0  0  0
 14 15  2  0  0  0
 14 95  1  0  0  0
 15 96  1  0  0  0
 16 17  2  0  0  0
 16 21  1  0  0  0
 16 31  1  0  0  0
 17 18  1  0  0  0
 17 97  1  0  0  0
 18 19  2  0  0  0
 18 98  1  0  0  0
 19 20  1  0  0  0
 19 24  1  0  0  0
 20 21  2  0  0  0
 20 99  1  0  0  0
 21 23  1  0  0  0
 22 28  1  0  0  0
 22 32  2  0  0  0
 26 27  1  0  0  0
 28100  1  0  0  0
 28101  1  0  0  0
 29102  1  0  0  0
 29103  1  0  0  0
 33 34  1  0  0  0
 33 66  1  0  0  0
 33 70  2  0  0  0
 34 36  1  0  0  0
 34 59  1  0  0  0
 34104  1  0  0  0
 35 44  2  0  0  0
 35 45  1  0  0  0
 35 68  1  0  0  0
 36 56  1  0  0  0
 36105  1  0  0  0
 37 39  1  0  0  0
 37 47  1  0  0  0
 37 66  1  0  0  0
 37106  1  0  0  0
 38 43  2  0  0  0
 38 46  1  0  0  0
 38 47  1  0  0  0
 39 64  1  0  0  0
 39 67  2  0  0  0
 40 52  1  0  0  0
 40 53  2  0  0  0
 40 58  1  0  0  0
 41107  1  0  0  0
 41108  1  0  0  0
 41109  1  0  0  0
 41 48  1  0  0  0
 42 43  1  0  0  0
 42 66  1  0  0  0
 42110  1  0  0  0
 42111  1  0  0  0
 43 44  1  0  0  0
 44112  1  0  0  0
 45 46  2  0  0  0
 45113  1  0  0  0
 46114  1  0  0  0
 47115  1  0  0  0
 47116  1  0  0  0
 48 56  1  0  0  0
 48 65  1  0  0  0
 48117  1  0  0  0
 49 50  1  0  0  0
 49 53  1  0  0  0
 49 64  1  0  0  0
 49118  1  0  0  0
 50 51  1  0  0  0
 50119  1  0  0  0
 50120  1  0  0  0
 51 52  1  0  0  0
 51121  1  0  0  0
 51122  1  0  0  0
 52123  1  0  0  0
 52124  1  0  0  0
 53 54  1  0  0  0
 54 55  2  0  0  0
 54125  1  0  0  0
 55 57  1  0  0  0
 55126  1  0  0  0
 56 69  2  0  0  0
 57 58  2  0  0  0
 57127  1  0  0  0
 58128  1  0  0  0
 59 60  1  0  0  0
 59 61  1  0  0  0
 59 62  1  0  0  0
 60129  1  0  0  0
 60130  1  0  0  0
 60131  1  0  0  0
 61132  1  0  0  0
 61133  1  0  0  0
 61134  1  0  0  0
 62135  1  0  0  0
 62136  1  0  0  0
 62137  1  0  0  0
 63 65  1  0  0  0
 63138  1  0  0  0
 63139  1  0  0  0
 63140  1  0  0  0
 64141  1  0  0  0
 65142  1  0  0  0
 68 76  1  0  0  0
 71 73  1  0  0  0
 71 74  2  0  0  0
 71143  1  0  0  0
 72 73  2  0  0  0
 72 81  1  0  0  0
 72144  1  0  0  0
 73 83  1  0  0  0
 74 81  1  0  0  0
 74 82  1  0  0  0
 75 76  2  0  0  0
 75 77  1  0  0  0
 75 78  1  0  0  0
 76145  1  0  0  0
 77 79  1  0  0  0
 77146  1  0  0  0
 77147  1  0  0  0
 78 82  1  0  0  0
 78148  1  0  0  0
 78149  1  0  0  0
 79 82  1  0  0  0
 79150  1  0  0  0
 79151  1  0  0  0
 80 81  1  0  0  0
 80152  1  0  0  0
 80153  1  0  0  0
 80154  1  0  0  0
 83155  1  0  0  0
M  ISO  4   1 100  68 101  76 101  83 100
M  END
> <chiral flag>
0

> <version>
0

> <s_m_source_file>
/data/baiqing/PycharmProjects/Reinvent-master-3.2/result/LINK_invent/BTK/process_docking_weight1_custom_product_contain_oxygen_bond_distance_aromatic_linkinvent_7_9_3/rearranged_h_0145.sdf

> <i_m_source_file_index>
1

> <r_mmod_Potential_Energy-OPLS-2005>
320.315155029297

> <r_mmod_Stretch_Energy-OPLS-2005>
147.48503112793

> <r_mmod_Bend_Energy-OPLS-2005>
218.987518310547

> <r_mmod_Torsional_Energy-OPLS-2005>
295.205963134766

> <r_mmod_Improper_Torsional_Energy-OPLS-2005>
5.52180004119873

> <r_mmod_Van_der_Waal_Energy-OPLS-2005>
113.562278747559

> <r_mmod_Electrostatic_Energy-OPLS-2005>
-362.891967773438

> <r_mmod_Solvation_Energy-OPLS-2005>
-228.751419067383

> <b_mmod_Minimization_Converged-OPLS-2005>
0

> <r_mmod_RMS_Derivative-OPLS-2005>
2.41288208961487

$$$$
1
                    3D
 Structure written by MMmdl.
170179  0  0  1  0            999 V2000
  -30.7499  -14.4821   20.5966 C   0  0  0  0  0  0
  -30.4155  -12.3234   19.4259 C   0  0  0  0  0  0
  -29.4908  -12.4988   18.2054 C   0  0  0  0  0  0
  -28.0153  -12.3569   18.6241 C   0  0  0  0  0  0
  -27.6596  -13.2135   19.8691 C   0  0  2  0  0  0
  -28.7061  -13.0380   20.9946 C   0  0  0  0  0  0
  -25.2603  -13.8167   20.5691 C   0  0  0  0  0  0
  -24.1852  -13.0444   20.9162 C   0  0  0  0  0  0
  -24.6405  -11.6913   20.8714 C   0  0  0  0  0  0
  -23.9065  -10.4296   21.0382 C   0  0  0  0  0  0
  -24.3617   -9.4214   21.9167 C   0  0  0  0  0  0
  -23.6293   -8.2247   22.0749 C   0  0  0  0  0  0
  -22.4271   -8.0274   21.3539 C   0  0  0  0  0  0
  -21.9915   -9.0243   20.4635 C   0  0  0  0  0  0
  -22.7236  -10.2128   20.3035 C   0  0  0  0  0  0
  -21.6859   -6.0728   22.5269 C   0  0  0  0  0  0
  -21.4017   -6.5636   23.8209 C   0  0  0  0  0  0
  -21.3662   -5.6785   24.9166 C   0  0  0  0  0  0
  -21.6044   -4.3052   24.7225 C   0  0  0  0  0  0
  -21.8821   -3.8140   23.4345 C   0  0  0  0  0  0
  -21.9199   -4.6953   22.3396 C   0  0  0  0  0  0
  -22.7871  -13.5230   21.1824 C   0  0  0  0  0  0
  -22.1663   -4.2141   21.0969 F   0  0  0  0  0  0
  -21.5633   -3.4530   25.7741 F   0  0  0  0  0  0
  -30.0342  -13.3335   20.4310 N   0  0  0  0  0  0
  -26.3030  -12.9356   20.3364 N   0  0  0  0  0  0
  -25.9338  -11.6513   20.5769 N   0  0  0  0  0  0
  -22.0522  -12.8207   22.0376 N   0  0  0  0  0  0
  -25.4345  -15.1878   20.4096 N   0  0  0  0  0  0
  -31.8692  -14.6299   20.0970 O   0  0  0  0  0  0
  -21.6639   -6.8867   21.4236 O   0  0  0  0  0  0
  -22.3553  -14.5551   20.6688 O   0  0  0  0  0  0
  -24.6138  -31.8707   23.2072 C   0  0  0  0  0  0
  -25.9045  -32.4838   23.8391 C   0  0  1  0  0  0
  -27.2397  -27.4327   20.0960 C   0  0  0  0  0  0
  -25.5920  -33.8636   24.2354 N   0  0  0  0  0  0
  -23.4035  -30.4915   21.5505 C   0  0  2  0  0  0
  -24.8547  -28.9538   20.1234 C   0  0  0  0  0  0
  -22.7424  -29.4651   22.4984 C   0  0  0  0  0  0
  -18.0266  -28.1364   22.8497 C   0  0  0  0  0  0
  -24.1520  -36.7284   23.2635 C   0  0  0  0  0  0
  -25.9343  -30.8291   21.3685 C   0  0  0  0  0  0
  -26.0147  -29.4587   20.7264 C   0  0  0  0  0  0
  -27.2126  -28.7027   20.7221 C   0  0  0  0  0  0
  -26.0672  -26.9472   19.4855 C   0  0  0  0  0  0
  -24.8724  -27.6903   19.5059 C   0  0  0  0  0  0
  -23.6174  -29.8223   20.1686 C   0  0  0  0  0  0
  -25.4138  -36.3095   24.0325 C   0  0  1  0  0  0
  -20.5839  -28.3660   23.1327 C   0  0  2  0  0  0
  -20.6768  -26.9404   22.5421 C   0  0  0  0  0  0
  -19.5749  -26.6368   21.5211 C   0  0  0  0  0  0
  -18.1916  -26.7909   22.1604 C   0  0  0  0  0  0
  -19.1512  -28.8829   23.2904 C   0  0  0  0  0  0
  -18.9461  -30.1432   23.8911 C   0  0  0  0  0  0
  -17.6470  -30.6596   24.0570 C   0  0  0  0  0  0
  -25.9068  -34.9477   23.5136 C   0  0  0  0  0  0
  -16.5365  -29.9099   23.6315 C   0  0  0  0  0  0
  -16.7257  -28.6499   23.0338 C   0  0  0  0  0  0
  -26.4484  -31.6598   25.0712 C   0  0  0  0  0  0
  -25.3739  -31.3704   26.1453 C   0  0  0  0  0  0
  -27.0350  -30.3066   24.6039 C   0  0  0  0  0  0
  -27.6055  -32.4324   25.7483 C   0  0  0  0  0  0
  -27.5607  -37.1781   24.8456 C   0  0  0  0  0  0
  -21.4150  -29.3016   22.3738 N   0  0  0  0  0  0
  -26.4328  -37.3772   23.9395 N   0  0  0  0  0  0
  -24.6682  -31.0807   22.0980 N   0  0  0  0  0  0
  -23.4208  -28.8169   23.3001 O   0  0  0  0  0  0
  -28.3721  -26.6554   19.9731 O   0  0  0  0  0  0
  -26.5621  -34.8928   22.4697 O   0  0  0  0  0  0
  -23.5332  -32.1470   23.7463 O   0  0  0  0  0  0
  -32.5556  -17.9324   22.8007 C   0  0  0  0  0  0
  -31.9967  -16.7486   22.2756 C   0  0  0  0  0  0
  -30.0028  -17.9859   21.5601 C   0  0  0  0  0  0
  -31.8173  -19.1233   22.7053 C   0  0  0  0  0  0
  -30.5690  -19.1786   22.0920 C   0  0  0  0  0  0
  -30.7170  -16.7513   21.6563 C   0  0  0  0  0  0
  -28.9512  -23.6780   20.8115 C   0  0  0  0  0  0
  -32.2192  -20.4640   23.2243 C   0  0  0  0  0  0
  -30.9610  -21.2977   22.9379 C   0  0  0  0  0  0
  -27.1578  -21.9217   20.4331 C   0  0  0  0  0  0
  -27.2090  -24.9591   22.2044 C   0  0  0  0  0  0
  -29.5683  -24.7048   23.0305 C   0  0  0  0  0  0
  -29.4839  -21.0951   20.9270 C   0  0  0  0  0  0
  -29.0981  -26.2719   21.1466 C   0  0  0  0  0  0
  -28.4572  -22.2502   21.1947 C   0  0  1  0  0  0
  -28.6901  -24.8905   21.7714 C   0  0  0  0  0  0
  -30.0226  -20.4845   22.1473 N   0  0  0  0  0  0
  -30.1280  -15.5141   21.2116 N   0  0  0  0  0  0
  -29.5464  -23.8389   19.7421 O   0  0  0  0  0  0
  -31.4615  -12.3998   19.1220 H   0  0  0  0  0  0
  -30.3024  -11.3231   19.8464 H   0  0  0  0  0  0
  -29.7289  -11.7562   17.4433 H   0  0  0  0  0  0
  -29.6545  -13.4746   17.7469 H   0  0  0  0  0  0
  -27.8327  -11.3012   18.8358 H   0  0  0  0  0  0
  -27.3599  -12.6134   17.7913 H   0  0  0  0  0  0
  -27.6926  -14.2538   19.5493 H   0  0  0  0  0  0
  -28.6901  -12.0155   21.3767 H   0  0  0  0  0  0
  -28.4663  -13.6738   21.8485 H   0  0  0  0  0  0
  -25.2768   -9.5694   22.4738 H   0  0  0  0  0  0
  -24.0008   -7.4645   22.7478 H   0  0  0  0  0  0
  -21.0854   -8.8748   19.8932 H   0  0  0  0  0  0
  -22.3691  -10.9658   19.6139 H   0  0  0  0  0  0
  -21.2009   -7.6143   23.9702 H   0  0  0  0  0  0
  -21.1482   -6.0517   25.9071 H   0  0  0  0  0  0
  -22.0602   -2.7601   23.2839 H   0  0  0  0  0  0
  -22.4168  -11.9869   22.4747 H   0  0  0  0  0  0
  -21.1136  -13.1210   22.2589 H   0  0  0  0  0  0
  -24.6731  -15.8496   20.5178 H   0  0  0  0  0  0
  -26.2909  -15.6220   20.0871 H   0  0  0  0  0  0
  -26.7106  -32.5580   23.1155 H   0  0  0  0  0  0
  -25.0098  -33.9793   25.0520 H   0  0  0  0  0  0
  -22.6908  -31.3067   21.4087 H   0  0  0  0  0  0
  -23.3807  -35.9596   23.3294 H   0  0  0  0  0  0
  -24.3607  -36.8922   22.2048 H   0  0  0  0  0  0
  -23.7265  -37.6475   23.6679 H   0  0  0  0  0  0
  -26.0527  -31.5912   20.5959 H   0  0  0  0  0  0
  -26.8181  -30.8850   21.9917 H   0  0  0  0  0  0
  -28.1102  -29.0979   21.1763 H   0  0  0  0  0  0
  -26.0854  -25.9825   18.9990 H   0  0  0  0  0  0
  -23.9821  -27.2939   19.0363 H   0  0  0  0  0  0
  -23.7281  -30.5999   19.4101 H   0  0  0  0  0  0
  -22.7430  -29.2402   19.8702 H   0  0  0  0  0  0
  -25.1321  -36.1961   25.0814 H   0  0  0  0  0  0
  -20.9927  -28.3247   24.1439 H   0  0  0  0  0  0
  -20.5736  -26.2250   23.3598 H   0  0  0  0  0  0
  -21.6640  -26.7489   22.1184 H   0  0  0  0  0  0
  -19.6950  -25.6272   21.1243 H   0  0  0  0  0  0
  -19.6713  -27.3201   20.6759 H   0  0  0  0  0  0
  -17.4190  -26.6656   21.3997 H   0  0  0  0  0  0
  -18.0308  -26.0078   22.9017 H   0  0  0  0  0  0
  -19.7955  -30.7211   24.2312 H   0  0  0  0  0  0
  -17.5042  -31.6276   24.5173 H   0  0  0  0  0  0
  -15.5355  -30.3015   23.7629 H   0  0  0  0  0  0
  -15.8640  -28.0845   22.7022 H   0  0  0  0  0  0
  -24.5906  -30.7062   25.7782 H   0  0  0  0  0  0
  -24.8912  -32.2853   26.4902 H   0  0  0  0  0  0
  -25.8042  -30.8881   27.0233 H   0  0  0  0  0  0
  -26.2899  -29.6779   24.1150 H   0  0  0  0  0  0
  -27.4264  -29.7332   25.4450 H   0  0  0  0  0  0
  -27.8655  -30.4444   23.9109 H   0  0  0  0  0  0
  -27.2692  -33.3644   26.2042 H   0  0  0  0  0  0
  -28.3866  -32.6858   25.0296 H   0  0  0  0  0  0
  -28.0715  -31.8458   26.5412 H   0  0  0  0  0  0
  -28.2576  -38.0128   24.7593 H   0  0  0  0  0  0
  -28.1174  -36.2671   24.6216 H   0  0  0  0  0  0
  -27.2322  -37.1314   25.8854 H   0  0  0  0  0  0
  -20.9294  -29.8769   21.6999 H   0  0  0  0  0  0
  -26.0242  -38.2855   24.1407 H   0  0  0  0  0  0
  -33.5241  -17.9196   23.2812 H   0  0  0  0  0  0
  -32.5605  -15.8302   22.3777 H   0  0  0  0  0  0
  -29.0240  -18.0081   21.1022 H   0  0  0  0  0  0
  -33.0781  -20.8433   22.6717 H   0  0  0  0  0  0
  -32.4622  -20.4427   24.2870 H   0  0  0  0  0  0
  -31.2273  -22.2204   22.4195 H   0  0  0  0  0  0
  -30.4739  -21.5873   23.8720 H   0  0  0  0  0  0
  -26.4273  -22.7280   20.4627 H   0  0  0  0  0  0
  -26.6847  -21.0362   20.8609 H   0  0  0  0  0  0
  -27.3576  -21.7136   19.3828 H   0  0  0  0  0  0
  -26.9293  -24.1432   22.8722 H   0  0  0  0  0  0
  -26.5404  -24.9300   21.3475 H   0  0  0  0  0  0
  -27.0026  -25.8942   22.7311 H   0  0  0  0  0  0
  -29.3211  -23.8011   23.5846 H   0  0  0  0  0  0
  -29.4486  -25.5397   23.7212 H   0  0  0  0  0  0
  -30.6286  -24.6525   22.7758 H   0  0  0  0  0  0
  -30.3279  -21.4707   20.3445 H   0  0  0  0  0  0
  -29.0346  -20.3203   20.3035 H   0  0  0  0  0  0
  -30.1487  -26.2306   20.8510 H   0  0  0  0  0  0
  -29.0536  -27.0605   21.9010 H   0  0  0  0  0  0
  -28.2168  -22.2696   22.2579 H   0  0  0  0  0  0
  -29.1458  -15.3846   21.3972 H   0  0  0  0  0  0
  1 25  1  0  0  0
  1 30  2  0  0  0
  1 88  1  0  0  0
  2  3  1  0  0  0
  2 25  1  0  0  0
  2 90  1  0  0  0
  2 91  1  0  0  0
  3  4  1  0  0  0
  3 92  1  0  0  0
  3 93  1  0  0  0
  4  5  1  0  0  0
  4 94  1  0  0  0
  4 95  1  0  0  0
  5  6  1  0  0  0
  5 26  1  0  0  0
  5 96  1  0  0  0
  6 25  1  0  0  0
  6 97  1  0  0  0
  6 98  1  0  0  0
  7  8  2  0  0  0
  7 26  1  0  0  0
  7 29  1  0  0  0
  8  9  1  0  0  0
  8 22  1  0  0  0
  9 10  1  0  0  0
  9 27  2  0  0  0
 10 11  2  0  0  0
 10 15  1  0  0  0
 11 12  1  0  0  0
 11 99  1  0  0  0
 12 13  2  0  0  0
 12100  1  0  0  0
 13 14  1  0  0  0
 13 31  1  0  0  0
 14 15  2  0  0  0
 14101  1  0  0  0
 15102  1  0  0  0
 16 17  2  0  0  0
 16 21  1  0  0  0
 16 31  1  0  0  0
 17 18  1  0  0  0
 17103  1  0  0  0
 18 19  2  0  0  0
 18104  1  0  0  0
 19 20  1  0  0  0
 19 24  1  0  0  0
 20 21  2  0  0  0
 20105  1  0  0  0
 21 23  1  0  0  0
 22 28  1  0  0  0
 22 32  2  0  0  0
 26 27  1  0  0  0
 28106  1  0  0  0
 28107  1  0  0  0
 29108  1  0  0  0
 29109  1  0  0  0
 33 34  1  0  0  0
 33 66  1  0  0  0
 33 70  2  0  0  0
 34 36  1  0  0  0
 34 59  1  0  0  0
 34110  1  0  0  0
 35 44  2  0  0  0
 35 45  1  0  0  0
 35 68  1  0  0  0
 36 56  1  0  0  0
 36111  1  0  0  0
 37 39  1  0  0  0
 37 47  1  0  0  0
 37 66  1  0  0  0
 37112  1  0  0  0
 38 43  2  0  0  0
 38 46  1  0  0  0
 38 47  1  0  0  0
 39 64  1  0  0  0
 39 67  2  0  0  0
 40 52  1  0  0  0
 40 53  2  0  0  0
 40 58  1  0  0  0
 41113  1  0  0  0
 41114  1  0  0  0
 41115  1  0  0  0
 41 48  1  0  0  0
 42 43  1  0  0  0
 42 66  1  0  0  0
 42116  1  0  0  0
 42117  1  0  0  0
 43 44  1  0  0  0
 44118  1  0  0  0
 45 46  2  0  0  0
 45119  1  0  0  0
 46120  1  0  0  0
 47121  1  0  0  0
 47122  1  0  0  0
 48 56  1  0  0  0
 48 65  1  0  0  0
 48123  1  0  0  0
 49 50  1  0  0  0
 49 53  1  0  0  0
 49 64  1  0  0  0
 49124  1  0  0  0
 50 51  1  0  0  0
 50125  1  0  0  0
 50126  1  0  0  0
 51 52  1  0  0  0
 51127  1  0  0  0
 51128  1  0  0  0
 52129  1  0  0  0
 52130  1  0  0  0
 53 54  1  0  0  0
 54 55  2  0  0  0
 54131  1  0  0  0
 55 57  1  0  0  0
 55132  1  0  0  0
 56 69  2  0  0  0
 57 58  2  0  0  0
 57133  1  0  0  0
 58134  1  0  0  0
 59 60  1  0  0  0
 59 61  1  0  0  0
 59 62  1  0  0  0
 60135  1  0  0  0
 60136  1  0  0  0
 60137  1  0  0  0
 61138  1  0  0  0
 61139  1  0  0  0
 61140  1  0  0  0
 62141  1  0  0  0
 62142  1  0  0  0
 62143  1  0  0  0
 63 65  1  0  0  0
 63144  1  0  0  0
 63145  1  0  0  0
 63146  1  0  0  0
 64147  1  0  0  0
 65148  1  0  0  0
 68 84  1  0  0  0
 71 72  2  0  0  0
 71 74  1  0  0  0
 71149  1  0  0  0
 72 76  1  0  0  0
 72150  1  0  0  0
 73 75  1  0  0  0
 73 76  2  0  0  0
 73151  1  0  0  0
 74 75  2  0  0  0
 74 78  1  0  0  0
 75 87  1  0  0  0
 76 88  1  0  0  0
 77 85  1  0  0  0
 77 86  1  0  0  0
 77 89  2  0  0  0
 78 79  1  0  0  0
 78152  1  0  0  0
 78153  1  0  0  0
 79 87  1  0  0  0
 79154  1  0  0  0
 79155  1  0  0  0
 80156  1  0  0  0
 80157  1  0  0  0
 80158  1  0  0  0
 80 85  1  0  0  0
 81159  1  0  0  0
 81160  1  0  0  0
 81161  1  0  0  0
 81 86  1  0  0  0
 82 86  1  0  0  0
 82162  1  0  0  0
 82163  1  0  0  0
 82164  1  0  0  0
 83 85  1  0  0  0
 83 87  1  0  0  0
 83165  1  0  0  0
 83166  1  0  0  0
 84 86  1  0  0  0
 84167  1  0  0  0
 84168  1  0  0  0
 85169  1  0  0  0
 88170  1  0  0  0
M  ISO  4   1 100  68 101  84 101  88 100
M  END
> <chiral flag>
0

> <version>
0

> <s_m_source_file>
/data/baiqing/PycharmProjects/Reinvent-master-3.2/result/LINK_invent/BTK/process_docking_weight1_custom_product_contain_oxygen_bond_distance_aromatic_linkinvent_7_9_3/rearranged_h_0145.sdf

> <i_m_source_file_index>
2

> <r_mmod_Potential_Energy-OPLS-2005>
85.1113357543945

> <r_mmod_Stretch_Energy-OPLS-2005>
50.064266204834

> <r_mmod_Bend_Energy-OPLS-2005>
153.928039550781

> <r_mmod_Torsional_Energy-OPLS-2005>
263.101257324219

> <r_mmod_Improper_Torsional_Energy-OPLS-2005>
7.34622144699097

> <r_mmod_Van_der_Waal_Energy-OPLS-2005>
139.994232177734

> <r_mmod_Electrostatic_Energy-OPLS-2005>
-308.830688476562

> <r_mmod_Solvation_Energy-OPLS-2005>
-234.901092529297

> <b_mmod_Minimization_Converged-OPLS-2005>
0

> <r_mmod_RMS_Derivative-OPLS-2005>
3.99831986427307

$$$$
2
                    3D
 Structure written by MMmdl.
163172  0  0  1  0            999 V2000
  -30.6157  -14.6397   20.4970 C   0  0  0  0  0  0
  -30.4412  -12.3916   19.4477 C   0  0  0  0  0  0
  -29.5070  -12.5052   18.2219 C   0  0  0  0  0  0
  -28.0297  -12.3420   18.6345 C   0  0  0  0  0  0
  -27.6528  -13.2128   19.8620 C   0  0  2  0  0  0
  -28.6992  -13.0645   20.9902 C   0  0  0  0  0  0
  -25.2565  -13.8158   20.5679 C   0  0  0  0  0  0
  -24.1832  -13.0431   20.9199 C   0  0  0  0  0  0
  -24.6392  -11.6900   20.8744 C   0  0  0  0  0  0
  -23.9060  -10.4286   21.0412 C   0  0  0  0  0  0
  -24.3612   -9.4203   21.9189 C   0  0  0  0  0  0
  -23.6290   -8.2239   22.0754 C   0  0  0  0  0  0
  -22.4275   -8.0275   21.3541 C   0  0  0  0  0  0
  -21.9911   -9.0250   20.4646 C   0  0  0  0  0  0
  -22.7236  -10.2130   20.3059 C   0  0  0  0  0  0
  -21.6853   -6.0735   22.5278 C   0  0  0  0  0  0
  -21.4012   -6.5637   23.8210 C   0  0  0  0  0  0
  -21.3659   -5.6792   24.9172 C   0  0  0  0  0  0
  -21.6047   -4.3055   24.7225 C   0  0  0  0  0  0
  -21.8818   -3.8147   23.4345 C   0  0  0  0  0  0
  -21.9190   -4.6963   22.3402 C   0  0  0  0  0  0
  -22.7855  -13.5228   21.1862 C   0  0  0  0  0  0
  -22.1662   -4.2150   21.0979 F   0  0  0  0  0  0
  -21.5631   -3.4537   25.7739 F   0  0  0  0  0  0
  -30.0145  -13.4100   20.4265 N   0  0  0  0  0  0
  -26.2984  -12.9331   20.3310 N   0  0  0  0  0  0
  -25.9317  -11.6489   20.5757 N   0  0  0  0  0  0
  -22.0492  -12.8219   22.0413 N   0  0  0  0  0  0
  -25.4265  -15.1877   20.4052 N   0  0  0  0  0  0
  -31.7845  -14.8053   20.1340 O   0  0  0  0  0  0
  -21.6635   -6.8877   21.4240 O   0  0  0  0  0  0
  -22.3543  -14.5537   20.6712 O   0  0  0  0  0  0
  -24.6256  -31.8606   23.2027 C   0  0  0  0  0  0
  -25.9109  -32.4781   23.8353 C   0  0  1  0  0  0
  -27.2227  -27.3194   20.1147 C   0  0  0  0  0  0
  -25.5934  -33.8581   24.2278 N   0  0  0  0  0  0
  -23.4191  -30.4846   21.5459 C   0  0  2  0  0  0
  -24.8661  -28.9424   20.1087 C   0  0  0  0  0  0
  -22.7474  -29.4625   22.4937 C   0  0  0  0  0  0
  -18.0296  -28.1376   22.8478 C   0  0  0  0  0  0
  -24.1495  -36.7285   23.2639 C   0  0  0  0  0  0
  -25.9603  -30.7913   21.3741 C   0  0  0  0  0  0
  -26.0353  -29.4197   20.7140 C   0  0  0  0  0  0
  -27.2166  -28.6198   20.7070 C   0  0  0  0  0  0
  -26.0297  -26.8991   19.4788 C   0  0  0  0  0  0
  -24.8658  -27.6881   19.4816 C   0  0  0  0  0  0
  -23.6335  -29.8214   20.1608 C   0  0  0  0  0  0
  -25.4118  -36.3080   24.0339 C   0  0  1  0  0  0
  -20.5893  -28.3676   23.1281 C   0  0  2  0  0  0
  -20.6783  -26.9401   22.5404 C   0  0  0  0  0  0
  -19.5759  -26.6377   21.5205 C   0  0  0  0  0  0
  -18.1938  -26.7914   22.1622 C   0  0  0  0  0  0
  -19.1546  -28.8844   23.2871 C   0  0  0  0  0  0
  -18.9473  -30.1444   23.8886 C   0  0  0  0  0  0
  -17.6476  -30.6576   24.0554 C   0  0  0  0  0  0
  -25.9054  -34.9453   23.5104 C   0  0  0  0  0  0
  -16.5365  -29.9070   23.6331 C   0  0  0  0  0  0
  -16.7287  -28.6492   23.0344 C   0  0  0  0  0  0
  -26.4498  -31.6589   25.0716 C   0  0  0  0  0  0
  -25.3737  -31.3726   26.1443 C   0  0  0  0  0  0
  -27.0349  -30.3025   24.6147 C   0  0  0  0  0  0
  -27.6055  -32.4321   25.7491 C   0  0  0  0  0  0
  -27.5583  -37.1796   24.8469 C   0  0  0  0  0  0
  -21.4190  -29.3033   22.3676 N   0  0  0  0  0  0
  -26.4290  -37.3780   23.9417 N   0  0  0  0  0  0
  -24.6873  -31.0615   22.0984 N   0  0  0  0  0  0
  -23.4201  -28.8151   23.3001 O   0  0  0  0  0  0
  -28.3369  -26.4647   20.1759 O   0  0  0  0  0  0
  -26.5609  -34.8921   22.4662 O   0  0  0  0  0  0
  -23.5420  -32.1412   23.7355 O   0  0  0  0  0  0
  -31.0901  -19.2995   20.5846 C   0  0  0  0  0  0
  -28.7024  -19.3444   20.7811 C   0  0  0  0  0  0
  -31.0867  -17.8712   20.5837 C   0  0  0  0  0  0
  -28.6957  -17.9162   20.7923 C   0  0  0  0  0  0
  -29.9091  -20.0919   20.7152 C   0  0  0  0  0  0
  -29.8819  -17.1353   20.7130 C   0  0  0  0  0  0
  -30.4361  -23.8182   19.6949 C   0  0  0  0  0  0
  -30.8116  -22.3152   19.7259 C   0  0  0  0  0  0
  -29.1993  -23.9793   20.5993 C   0  0  1  0  0  0
  -30.0280  -21.6716   20.8883 C   0  0  2  0  0  0
  -30.8298  -21.9017   22.1990 C   0  0  0  0  0  0
  -27.9191  -22.4176   22.0936 C   0  0  0  0  0  0
  -28.0949  -25.0033   20.0711 C   0  0  0  0  0  0
  -29.7762  -15.6783   20.8050 N   0  0  0  0  0  0
  -28.7802  -22.5407   20.8873 N   0  3  1  0  0  0
  -31.4813  -12.5229   19.1441 H   0  0  0  0  0  0
  -30.3805  -11.3956   19.8884 H   0  0  0  0  0  0
  -29.7694  -11.7531   17.4772 H   0  0  0  0  0  0
  -29.6485  -13.4740   17.7401 H   0  0  0  0  0  0
  -27.8674  -11.2889   18.8674 H   0  0  0  0  0  0
  -27.3746  -12.5711   17.7931 H   0  0  0  0  0  0
  -27.6702  -14.2473   19.5192 H   0  0  0  0  0  0
  -28.7120  -12.0412   21.3693 H   0  0  0  0  0  0
  -28.4462  -13.6926   21.8460 H   0  0  0  0  0  0
  -25.2756   -9.5680   22.4763 H   0  0  0  0  0  0
  -23.9999   -7.4630   22.7471 H   0  0  0  0  0  0
  -21.0845   -8.8765   19.8951 H   0  0  0  0  0  0
  -22.3693  -10.9669   19.6169 H   0  0  0  0  0  0
  -21.2003   -7.6144   23.9715 H   0  0  0  0  0  0
  -21.1485   -6.0520   25.9076 H   0  0  0  0  0  0
  -22.0599   -2.7609   23.2843 H   0  0  0  0  0  0
  -22.4098  -11.9871   22.4795 H   0  0  0  0  0  0
  -21.1109  -13.1246   22.2620 H   0  0  0  0  0  0
  -24.6500  -15.8345   20.4924 H   0  0  0  0  0  0
  -26.2554  -15.6173   20.0159 H   0  0  0  0  0  0
  -26.7171  -32.5464   23.1099 H   0  0  0  0  0  0
  -25.0127  -33.9736   25.0452 H   0  0  0  0  0  0
  -22.7132  -31.3058   21.4039 H   0  0  0  0  0  0
  -23.3764  -35.9611   23.3302 H   0  0  0  0  0  0
  -24.3586  -36.8899   22.2051 H   0  0  0  0  0  0
  -23.7241  -37.6488   23.6659 H   0  0  0  0  0  0
  -26.0900  -31.5560   20.6072 H   0  0  0  0  0  0
  -26.8408  -30.8394   22.0032 H   0  0  0  0  0  0
  -28.1125  -28.9780   21.1944 H   0  0  0  0  0  0
  -25.9629  -25.9445   18.9786 H   0  0  0  0  0  0
  -23.9706  -27.3197   18.9990 H   0  0  0  0  0  0
  -23.7490  -30.5996   19.4051 H   0  0  0  0  0  0
  -22.7537  -29.2508   19.8592 H   0  0  0  0  0  0
  -25.1290  -36.1934   25.0832 H   0  0  0  0  0  0
  -20.9993  -28.3250   24.1399 H   0  0  0  0  0  0
  -20.5686  -26.2284   23.3605 H   0  0  0  0  0  0
  -21.6652  -26.7430   22.1195 H   0  0  0  0  0  0
  -19.6921  -25.6287   21.1236 H   0  0  0  0  0  0
  -19.6699  -27.3184   20.6732 H   0  0  0  0  0  0
  -17.4209  -26.6676   21.4020 H   0  0  0  0  0  0
  -18.0325  -26.0050   22.9011 H   0  0  0  0  0  0
  -19.7954  -30.7251   24.2260 H   0  0  0  0  0  0
  -17.5034  -31.6262   24.5142 H   0  0  0  0  0  0
  -15.5362  -30.2961   23.7661 H   0  0  0  0  0  0
  -15.8691  -28.0805   22.7057 H   0  0  0  0  0  0
  -24.5920  -30.7060   25.7780 H   0  0  0  0  0  0
  -24.8913  -32.2890   26.4853 H   0  0  0  0  0  0
  -25.8055  -30.8925   27.0231 H   0  0  0  0  0  0
  -26.2917  -29.6767   24.1184 H   0  0  0  0  0  0
  -27.4092  -29.7278   25.4630 H   0  0  0  0  0  0
  -27.8766  -30.4333   23.9339 H   0  0  0  0  0  0
  -27.2673  -33.3629   26.2053 H   0  0  0  0  0  0
  -28.3876  -32.6863   25.0325 H   0  0  0  0  0  0
  -28.0711  -31.8454   26.5421 H   0  0  0  0  0  0
  -28.2588  -38.0102   24.7517 H   0  0  0  0  0  0
  -28.1089  -36.2633   24.6289 H   0  0  0  0  0  0
  -27.2300  -37.1425   25.8870 H   0  0  0  0  0  0
  -20.9363  -29.8770   21.6903 H   0  0  0  0  0  0
  -26.0177  -38.2857   24.1418 H   0  0  0  0  0  0
  -32.0484  -19.7947   20.5202 H   0  0  0  0  0  0
  -27.7495  -19.8454   20.8531 H   0  0  0  0  0  0
  -32.0326  -17.3526   20.5143 H   0  0  0  0  0  0
  -27.7408  -17.4167   20.8808 H   0  0  0  0  0  0
  -30.2368  -24.1385   18.6713 H   0  0  0  0  0  0
  -31.2545  -24.4363   20.0680 H   0  0  0  0  0  0
  -31.8882  -22.1540   19.7969 H   0  0  0  0  0  0
  -30.4916  -21.8611   18.7869 H   0  0  0  0  0  0
  -29.5405  -24.3956   21.5480 H   0  0  0  0  0  0
  -31.8165  -21.4429   22.1528 H   0  0  0  0  0  0
  -30.3254  -21.4650   23.0604 H   0  0  0  0  0  0
  -31.0007  -22.9539   22.4192 H   0  0  0  0  0  0
  -26.9441  -22.8720   21.9227 H   0  0  0  0  0  0
  -28.3638  -22.9105   22.9584 H   0  0  0  0  0  0
  -27.7413  -21.3820   22.3746 H   0  0  0  0  0  0
  -27.1864  -24.7932   20.6350 H   0  0  0  0  0  0
  -27.8701  -24.7600   19.0321 H   0  0  0  0  0  0
  -28.8551  -15.3483   21.0479 H   0  0  0  0  0  0
  -28.2364  -22.2200   20.0984 H   0  0  0  0  0  0
  1 25  1  0  0  0
  1 30  2  0  0  0
  1 84  1  0  0  0
  2  3  1  0  0  0
  2 25  1  0  0  0
  2 86  1  0  0  0
  2 87  1  0  0  0
  3  4  1  0  0  0
  3 88  1  0  0  0
  3 89  1  0  0  0
  4  5  1  0  0  0
  4 90  1  0  0  0
  4 91  1  0  0  0
  5  6  1  0  0  0
  5 26  1  0  0  0
  5 92  1  0  0  0
  6 25  1  0  0  0
  6 93  1  0  0  0
  6 94  1  0  0  0
  7  8  2  0  0  0
  7 26  1  0  0  0
  7 29  1  0  0  0
  8  9  1  0  0  0
  8 22  1  0  0  0
  9 10  1  0  0  0
  9 27  2  0  0  0
 10 11  2  0  0  0
 10 15  1  0  0  0
 11 12  1  0  0  0
 11 95  1  0  0  0
 12 13  2  0  0  0
 12 96  1  0  0  0
 13 14  1  0  0  0
 13 31  1  0  0  0
 14 15  2  0  0  0
 14 97  1  0  0  0
 15 98  1  0  0  0
 16 17  2  0  0  0
 16 21  1  0  0  0
 16 31  1  0  0  0
 17 18  1  0  0  0
 17 99  1  0  0  0
 18 19  2  0  0  0
 18100  1  0  0  0
 19 20  1  0  0  0
 19 24  1  0  0  0
 20 21  2  0  0  0
 20101  1  0  0  0
 21 23  1  0  0  0
 22 28  1  0  0  0
 22 32  2  0  0  0
 26 27  1  0  0  0
 28102  1  0  0  0
 28103  1  0  0  0
 29104  1  0  0  0
 29105  1  0  0  0
 33 34  1  0  0  0
 33 66  1  0  0  0
 33 70  2  0  0  0
 34 36  1  0  0  0
 34 59  1  0  0  0
 34106  1  0  0  0
 35 44  2  0  0  0
 35 45  1  0  0  0
 35 68  1  0  0  0
 36 56  1  0  0  0
 36107  1  0  0  0
 37 39  1  0  0  0
 37 47  1  0  0  0
 37 66  1  0  0  0
 37108  1  0  0  0
 38 43  2  0  0  0
 38 46  1  0  0  0
 38 47  1  0  0  0
 39 64  1  0  0  0
 39 67  2  0  0  0
 40 52  1  0  0  0
 40 53  2  0  0  0
 40 58  1  0  0  0
 41109  1  0  0  0
 41110  1  0  0  0
 41111  1  0  0  0
 41 48  1  0  0  0
 42 43  1  0  0  0
 42 66  1  0  0  0
 42112  1  0  0  0
 42113  1  0  0  0
 43 44  1  0  0  0
 44114  1  0  0  0
 45 46  2  0  0  0
 45115  1  0  0  0
 46116  1  0  0  0
 47117  1  0  0  0
 47118  1  0  0  0
 48 56  1  0  0  0
 48 65  1  0  0  0
 48119  1  0  0  0
 49 50  1  0  0  0
 49 53  1  0  0  0
 49 64  1  0  0  0
 49120  1  0  0  0
 50 51  1  0  0  0
 50121  1  0  0  0
 50122  1  0  0  0
 51 52  1  0  0  0
 51123  1  0  0  0
 51124  1  0  0  0
 52125  1  0  0  0
 52126  1  0  0  0
 53 54  1  0  0  0
 54 55  2  0  0  0
 54127  1  0  0  0
 55 57  1  0  0  0
 55128  1  0  0  0
 56 69  2  0  0  0
 57 58  2  0  0  0
 57129  1  0  0  0
 58130  1  0  0  0
 59 60  1  0  0  0
 59 61  1  0  0  0
 59 62  1  0  0  0
 60131  1  0  0  0
 60132  1  0  0  0
 60133  1  0  0  0
 61134  1  0  0  0
 61135  1  0  0  0
 61136  1  0  0  0
 62137  1  0  0  0
 62138  1  0  0  0
 62139  1  0  0  0
 63 65  1  0  0  0
 63140  1  0  0  0
 63141  1  0  0  0
 63142  1  0  0  0
 64143  1  0  0  0
 65144  1  0  0  0
 68 83  1  0  0  0
 71 73  2  0  0  0
 71 75  1  0  0  0
 71145  1  0  0  0
 72 74  1  0  0  0
 72 75  2  0  0  0
 72146  1  0  0  0
 73 76  1  0  0  0
 73147  1  0  0  0
 74 76  2  0  0  0
 74148  1  0  0  0
 75 80  1  0  0  0
 76 84  1  0  0  0
 77 78  1  0  0  0
 77 79  1  0  0  0
 77149  1  0  0  0
 77150  1  0  0  0
 78 80  1  0  0  0
 78151  1  0  0  0
 78152  1  0  0  0
 79 83  1  0  0  0
 79 85  1  0  0  0
 79153  1  0  0  0
 80 81  1  0  0  0
 80 85  1  0  0  0
 81154  1  0  0  0
 81155  1  0  0  0
 81156  1  0  0  0
 82157  1  0  0  0
 82158  1  0  0  0
 82159  1  0  0  0
 82 85  1  0  0  0
 83160  1  0  0  0
 83161  1  0  0  0
 84162  1  0  0  0
 85163  1  0  0  0
M  CHG  1  85   1
M  ISO  4   1 100  68 101  83 101  84 100
M  END
> <chiral flag>
0

> <version>
0

> <s_m_source_file>
/data/baiqing/PycharmProjects/Reinvent-master-3.2/result/LINK_invent/BTK/process_docking_weight1_custom_product_contain_oxygen_bond_distance_aromatic_linkinvent_7_9_3/rearranged_h_0145.sdf

> <i_m_source_file_index>
3

> <r_mmod_Potential_Energy-OPLS-2005>
67.8268890380859

> <r_mmod_Stretch_Energy-OPLS-2005>
84.6302795410156

> <r_mmod_Bend_Energy-OPLS-2005>
172.957717895508

> <r_mmod_Torsional_Energy-OPLS-2005>
287.117279052734

> <r_mmod_Improper_Torsional_Energy-OPLS-2005>
5.14718914031982

> <r_mmod_Van_der_Waal_Energy-OPLS-2005>
150.090042114258

> <r_mmod_Electrostatic_Energy-OPLS-2005>
-257.04541015625

> <r_mmod_Solvation_Energy-OPLS-2005>
-424.632415771484

> <b_mmod_Minimization_Converged-OPLS-2005>
0

> <r_mmod_RMS_Derivative-OPLS-2005>
1.05844497680664

$$$$
3
                    3D
 Structure written by MMmdl.
156165  0  0  1  0            999 V2000
  -30.6260  -14.8233   20.4476 C   0  0  0  0  0  0
  -30.4227  -12.5102   19.4851 C   0  0  0  0  0  0
  -29.5061  -12.5079   18.2433 C   0  0  0  0  0  0
  -28.0371  -12.3217   18.6634 C   0  0  0  0  0  0
  -27.6325  -13.2440   19.8446 C   0  0  2  0  0  0
  -28.6784  -13.2341   20.9798 C   0  0  0  0  0  0
  -25.2470  -13.8225   20.5711 C   0  0  0  0  0  0
  -24.1782  -13.0452   20.9230 C   0  0  0  0  0  0
  -24.6395  -11.6936   20.8771 C   0  0  0  0  0  0
  -23.9083  -10.4301   21.0414 C   0  0  0  0  0  0
  -24.3630   -9.4211   21.9188 C   0  0  0  0  0  0
  -23.6301   -8.2248   22.0756 C   0  0  0  0  0  0
  -22.4280   -8.0290   21.3547 C   0  0  0  0  0  0
  -21.9924   -9.0266   20.4647 C   0  0  0  0  0  0
  -22.7259  -10.2143   20.3059 C   0  0  0  0  0  0
  -21.6855   -6.0744   22.5279 C   0  0  0  0  0  0
  -21.4016   -6.5644   23.8214 C   0  0  0  0  0  0
  -21.3659   -5.6793   24.9174 C   0  0  0  0  0  0
  -21.6042   -4.3056   24.7222 C   0  0  0  0  0  0
  -21.8820   -3.8152   23.4340 C   0  0  0  0  0  0
  -21.9194   -4.6971   22.3399 C   0  0  0  0  0  0
  -22.7800  -13.5221   21.1874 C   0  0  0  0  0  0
  -22.1662   -4.2159   21.0975 F   0  0  0  0  0  0
  -21.5628   -3.4536   25.7732 F   0  0  0  0  0  0
  -29.9616  -13.6087   20.3760 N   0  0  0  0  0  0
  -26.2898  -12.9455   20.3289 N   0  0  0  0  0  0
  -25.9329  -11.6585   20.5784 N   0  0  0  0  0  0
  -22.0455  -12.8204   22.0430 N   0  0  0  0  0  0
  -25.4133  -15.1946   20.4094 N   0  0  0  0  0  0
  -31.8265  -14.8248   20.1510 O   0  0  0  0  0  0
  -21.6642   -6.8887   21.4241 O   0  0  0  0  0  0
  -22.3482  -14.5523   20.6719 O   0  0  0  0  0  0
  -24.6359  -31.8515   23.1957 C   0  0  0  0  0  0
  -25.9168  -32.4732   23.8317 C   0  0  1  0  0  0
  -27.2063  -27.2044   20.1530 C   0  0  0  0  0  0
  -25.5945  -33.8534   24.2235 N   0  0  0  0  0  0
  -23.4361  -30.4725   21.5399 C   0  0  2  0  0  0
  -24.8847  -28.9131   20.1105 C   0  0  0  0  0  0
  -22.7536  -29.4572   22.4894 C   0  0  0  0  0  0
  -18.0299  -28.1385   22.8474 C   0  0  0  0  0  0
  -24.1490  -36.7271   23.2640 C   0  0  0  0  0  0
  -25.9865  -30.7462   21.3866 C   0  0  0  0  0  0
  -26.0578  -29.3624   20.7325 C   0  0  0  0  0  0
  -27.2241  -28.5208   20.7427 C   0  0  0  0  0  0
  -26.0272  -26.8563   19.4632 C   0  0  0  0  0  0
  -24.8773  -27.6696   19.4614 C   0  0  0  0  0  0
  -23.6589  -29.8074   20.1563 C   0  0  0  0  0  0
  -25.4118  -36.3054   24.0319 C   0  0  1  0  0  0
  -20.5907  -28.3703   23.1250 C   0  0  2  0  0  0
  -20.6785  -26.9414   22.5403 C   0  0  0  0  0  0
  -19.5759  -26.6378   21.5208 C   0  0  0  0  0  0
  -18.1941  -26.7925   22.1620 C   0  0  0  0  0  0
  -19.1553  -28.8862   23.2854 C   0  0  0  0  0  0
  -18.9476  -30.1459   23.8876 C   0  0  0  0  0  0
  -17.6473  -30.6587   24.0556 C   0  0  0  0  0  0
  -25.9065  -34.9424   23.5081 C   0  0  0  0  0  0
  -16.5364  -29.9083   23.6329 C   0  0  0  0  0  0
  -16.7286  -28.6501   23.0350 C   0  0  0  0  0  0
  -26.4518  -31.6572   25.0726 C   0  0  0  0  0  0
  -25.3718  -31.3737   26.1431 C   0  0  0  0  0  0
  -27.0380  -30.2978   24.6256 C   0  0  0  0  0  0
  -27.6063  -32.4324   25.7502 C   0  0  0  0  0  0
  -27.5577  -37.1788   24.8463 C   0  0  0  0  0  0
  -21.4237  -29.3043   22.3638 N   0  0  0  0  0  0
  -26.4288  -37.3759   23.9407 N   0  0  0  0  0  0
  -24.7055  -31.0428   22.0964 N   0  0  0  0  0  0
  -23.4209  -28.8115   23.3019 O   0  0  0  0  0  0
  -28.2633  -26.2468   20.1722 O   0  0  0  0  0  0
  -26.5645  -34.8909   22.4656 O   0  0  0  0  0  0
  -23.5496  -32.1364   23.7216 O   0  0  0  0  0  0
  -29.7005  -20.0146   19.8758 C   0  0  0  0  0  0
  -29.7480  -18.5551   20.1327 C   0  0  0  0  0  0
  -28.9851  -18.1682   21.1583 C   0  0  0  0  0  0
  -28.8876  -20.7550   20.7572 C   0  0  0  0  0  0
  -30.4128  -17.2658   19.6042 C   0  0  0  0  0  0
  -29.0163  -16.6618   21.4261 C   0  0  0  0  0  0
  -26.7056  -24.5900   21.3466 C   0  0  0  0  0  0
  -29.0111  -25.1284   22.1065 C   0  0  0  0  0  0
  -28.7013  -23.4615   20.1724 C   0  0  0  0  0  0
  -28.1484  -24.8735   20.8590 C   0  0  0  0  0  0
  -29.9310  -16.0530   20.4003 N   0  0  0  0  0  0
  -28.5434  -22.1693   20.9858 N   0  0  0  0  0  0
  -28.1766  -19.5598   21.8921 S   0  0  0  0  0  0
  -31.4620  -12.6259   19.1744 H   0  0  0  0  0  0
  -30.3770  -11.5513   20.0040 H   0  0  0  0  0  0
  -29.8020  -11.7149   17.5549 H   0  0  0  0  0  0
  -29.6180  -13.4466   17.6984 H   0  0  0  0  0  0
  -27.9118  -11.2775   18.9537 H   0  0  0  0  0  0
  -27.3747  -12.4811   17.8120 H   0  0  0  0  0  0
  -27.6101  -14.2551   19.4368 H   0  0  0  0  0  0
  -28.7397  -12.2508   21.4484 H   0  0  0  0  0  0
  -28.4017  -13.9326   21.7696 H   0  0  0  0  0  0
  -25.2773   -9.5686   22.4769 H   0  0  0  0  0  0
  -24.0010   -7.4636   22.7472 H   0  0  0  0  0  0
  -21.0860   -8.8789   19.8945 H   0  0  0  0  0  0
  -22.3720  -10.9687   19.6171 H   0  0  0  0  0  0
  -21.2009   -7.6152   23.9722 H   0  0  0  0  0  0
  -21.1477   -6.0520   25.9078 H   0  0  0  0  0  0
  -22.0599   -2.7616   23.2836 H   0  0  0  0  0  0
  -22.4086  -11.9871   22.4819 H   0  0  0  0  0  0
  -21.1070  -13.1217   22.2635 H   0  0  0  0  0  0
  -24.6411  -15.8442   20.5115 H   0  0  0  0  0  0
  -26.2535  -15.6329   20.0551 H   0  0  0  0  0  0
  -26.7233  -32.5366   23.1055 H   0  0  0  0  0  0
  -25.0069  -33.9659   25.0364 H   0  0  0  0  0  0
  -22.7343  -31.2957   21.3912 H   0  0  0  0  0  0
  -23.3756  -35.9599   23.3293 H   0  0  0  0  0  0
  -24.3580  -36.8915   22.2057 H   0  0  0  0  0  0
  -23.7242  -37.6461   23.6681 H   0  0  0  0  0  0
  -26.1327  -31.5022   20.6141 H   0  0  0  0  0  0
  -26.8605  -30.7968   22.0239 H   0  0  0  0  0  0
  -28.1210  -28.8557   21.2444 H   0  0  0  0  0  0
  -25.9807  -25.9107   18.9434 H   0  0  0  0  0  0
  -23.9861  -27.3263   18.9541 H   0  0  0  0  0  0
  -23.7905  -30.5843   19.4022 H   0  0  0  0  0  0
  -22.7750  -29.2465   19.8476 H   0  0  0  0  0  0
  -25.1301  -36.1893   25.0811 H   0  0  0  0  0  0
  -20.9992  -28.3289   24.1373 H   0  0  0  0  0  0
  -20.5682  -26.2317   23.3613 H   0  0  0  0  0  0
  -21.6654  -26.7430   22.1202 H   0  0  0  0  0  0
  -19.6921  -25.6286   21.1247 H   0  0  0  0  0  0
  -19.6695  -27.3175   20.6725 H   0  0  0  0  0  0
  -17.4209  -26.6665   21.4025 H   0  0  0  0  0  0
  -18.0342  -26.0072   22.9018 H   0  0  0  0  0  0
  -19.7953  -30.7274   24.2245 H   0  0  0  0  0  0
  -17.5031  -31.6264   24.5164 H   0  0  0  0  0  0
  -15.5362  -30.2979   23.7664 H   0  0  0  0  0  0
  -15.8687  -28.0815   22.7073 H   0  0  0  0  0  0
  -24.5901  -30.7083   25.7749 H   0  0  0  0  0  0
  -24.8896  -32.2908   26.4819 H   0  0  0  0  0  0
  -25.8010  -30.8933   27.0233 H   0  0  0  0  0  0
  -26.2984  -29.6704   24.1267 H   0  0  0  0  0  0
  -27.4027  -29.7266   25.4804 H   0  0  0  0  0  0
  -27.8877  -30.4235   23.9543 H   0  0  0  0  0  0
  -27.2674  -33.3646   26.2033 H   0  0  0  0  0  0
  -28.3893  -32.6852   25.0341 H   0  0  0  0  0  0
  -28.0708  -31.8478   26.5452 H   0  0  0  0  0  0
  -28.2585  -38.0096   24.7523 H   0  0  0  0  0  0
  -28.1088  -36.2624   24.6281 H   0  0  0  0  0  0
  -27.2296  -37.1428   25.8868 H   0  0  0  0  0  0
  -20.9436  -29.8774   21.6840 H   0  0  0  0  0  0
  -26.0162  -38.2828   24.1419 H   0  0  0  0  0  0
  -30.2765  -20.4562   19.0750 H   0  0  0  0  0  0
  -31.4987  -17.3503   19.6675 H   0  0  0  0  0  0
  -30.1706  -17.1130   18.5517 H   0  0  0  0  0  0
  -28.0164  -16.2381   21.3387 H   0  0  0  0  0  0
  -29.3836  -16.4544   22.4321 H   0  0  0  0  0  0
  -26.6716  -23.7547   22.0446 H   0  0  0  0  0  0
  -26.0468  -24.3251   20.5208 H   0  0  0  0  0  0
  -26.2708  -25.4361   21.8792 H   0  0  0  0  0  0
  -29.0017  -24.2790   22.7900 H   0  0  0  0  0  0
  -28.6600  -25.9983   22.6633 H   0  0  0  0  0  0
  -30.0497  -25.3126   21.8312 H   0  0  0  0  0  0
  -29.7566  -23.5789   19.9223 H   0  0  0  0  0  0
  -28.1878  -23.3161   19.2209 H   0  0  0  0  0  0
  -27.9817  -22.3176   21.8196 H   0  0  0  0  0  0
  1 25  1  0  0  0
  1 30  2  0  0  0
  1 81  1  0  0  0
  2  3  1  0  0  0
  2 25  1  0  0  0
  2 84  1  0  0  0
  2 85  1  0  0  0
  3  4  1  0  0  0
  3 86  1  0  0  0
  3 87  1  0  0  0
  4  5  1  0  0  0
  4 88  1  0  0  0
  4 89  1  0  0  0
  5  6  1  0  0  0
  5 26  1  0  0  0
  5 90  1  0  0  0
  6 25  1  0  0  0
  6 91  1  0  0  0
  6 92  1  0  0  0
  7  8  2  0  0  0
  7 26  1  0  0  0
  7 29  1  0  0  0
  8  9  1  0  0  0
  8 22  1  0  0  0
  9 10  1  0  0  0
  9 27  2  0  0  0
 10 11  2  0  0  0
 10 15  1  0  0  0
 11 12  1  0  0  0
 11 93  1  0  0  0
 12 13  2  0  0  0
 12 94  1  0  0  0
 13 14  1  0  0  0
 13 31  1  0  0  0
 14 15  2  0  0  0
 14 95  1  0  0  0
 15 96  1  0  0  0
 16 17  2  0  0  0
 16 21  1  0  0  0
 16 31  1  0  0  0
 17 18  1  0  0  0
 17 97  1  0  0  0
 18 19  2  0  0  0
 18 98  1  0  0  0
 19 20  1  0  0  0
 19 24  1  0  0  0
 20 21  2  0  0  0
 20 99  1  0  0  0
 21 23  1  0  0  0
 22 28  1  0  0  0
 22 32  2  0  0  0
 26 27  1  0  0  0
 28100  1  0  0  0
 28101  1  0  0  0
 29102  1  0  0  0
 29103  1  0  0  0
 33 34  1  0  0  0
 33 66  1  0  0  0
 33 70  2  0  0  0
 34 36  1  0  0  0
 34 59  1  0  0  0
 34104  1  0  0  0
 35 44  2  0  0  0
 35 45  1  0  0  0
 35 68  1  0  0  0
 36 56  1  0  0  0
 36105  1  0  0  0
 37 39  1  0  0  0
 37 47  1  0  0  0
 37 66  1  0  0  0
 37106  1  0  0  0
 38 43  2  0  0  0
 38 46  1  0  0  0
 38 47  1  0  0  0
 39 64  1  0  0  0
 39 67  2  0  0  0
 40 52  1  0  0  0
 40 53  2  0  0  0
 40 58  1  0  0  0
 41107  1  0  0  0
 41108  1  0  0  0
 41109  1  0  0  0
 41 48  1  0  0  0
 42 43  1  0  0  0
 42 66  1  0  0  0
 42110  1  0  0  0
 42111  1  0  0  0
 43 44  1  0  0  0
 44112  1  0  0  0
 45 46  2  0  0  0
 45113  1  0  0  0
 46114  1  0  0  0
 47115  1  0  0  0
 47116  1  0  0  0
 48 56  1  0  0  0
 48 65  1  0  0  0
 48117  1  0  0  0
 49 50  1  0  0  0
 49 53  1  0  0  0
 49 64  1  0  0  0
 49118  1  0  0  0
 50 51  1  0  0  0
 50119  1  0  0  0
 50120  1  0  0  0
 51 52  1  0  0  0
 51121  1  0  0  0
 51122  1  0  0  0
 52123  1  0  0  0
 52124  1  0  0  0
 53 54  1  0  0  0
 54 55  2  0  0  0
 54125  1  0  0  0
 55 57  1  0  0  0
 55126  1  0  0  0
 56 69  2  0  0  0
 57 58  2  0  0  0
 57127  1  0  0  0
 58128  1  0  0  0
 59 60  1  0  0  0
 59 61  1  0  0  0
 59 62  1  0  0  0
 60129  1  0  0  0
 60130  1  0  0  0
 60131  1  0  0  0
 61132  1  0  0  0
 61133  1  0  0  0
 61134  1  0  0  0
 62135  1  0  0  0
 62136  1  0  0  0
 62137  1  0  0  0
 63 65  1  0  0  0
 63138  1  0  0  0
 63139  1  0  0  0
 63140  1  0  0  0
 64141  1  0  0  0
 65142  1  0  0  0
 68 80  1  0  0  0
 71 72  1  0  0  0
 71 74  2  0  0  0
 71143  1  0  0  0
 72 73  2  0  0  0
 72 75  1  0  0  0
 73 76  1  0  0  0
 73 83  1  0  0  0
 74 82  1  0  0  0
 74 83  1  0  0  0
 75 81  1  0  0  0
 75144  1  0  0  0
 75145  1  0  0  0
 76 81  1  0  0  0
 76146  1  0  0  0
 76147  1  0  0  0
 77148  1  0  0  0
 77149  1  0  0  0
 77150  1  0  0  0
 77 80  1  0  0  0
 78 80  1  0  0  0
 78151  1  0  0  0
 78152  1  0  0  0
 78153  1  0  0  0
 79 80  1  0  0  0
 79 82  1  0  0  0
 79154  1  0  0  0
 79155  1  0  0  0
 82156  1  0  0  0
M  ISO  4   1 100  68 101  80 101  81 100
M  END
> <chiral flag>
0

> <version>
0

> <s_m_source_file>
/data/baiqing/PycharmProjects/Reinvent-master-3.2/result/LINK_invent/BTK/process_docking_weight1_custom_product_contain_oxygen_bond_distance_aromatic_linkinvent_7_9_3/rearranged_h_0145.sdf

> <i_m_source_file_index>
4

> <r_mmod_Potential_Energy-OPLS-2005>
434.578765869141

> <r_mmod_Stretch_Energy-OPLS-2005>
164.740585327148

> <r_mmod_Bend_Energy-OPLS-2005>
297.587677001953

> <r_mmod_Torsional_Energy-OPLS-2005>
285.210388183594

> <r_mmod_Improper_Torsional_Energy-OPLS-2005>
15.3713817596436

> <r_mmod_Van_der_Waal_Energy-OPLS-2005>
113.34593963623

> <r_mmod_Electrostatic_Energy-OPLS-2005>
-364.231964111328

> <r_mmod_Solvation_Energy-OPLS-2005>
-202.840667724609

> <b_mmod_Minimization_Converged-OPLS-2005>
0

> <r_mmod_RMS_Derivative-OPLS-2005>
0.703089892864227

$$$$
4
                    3D
 Structure written by MMmdl.
163171  0  0  1  0            999 V2000
  -30.7433  -14.4643   20.5917 C   0  0  0  0  0  0
  -30.4097  -12.3111   19.4265 C   0  0  0  0  0  0
  -29.4880  -12.5029   18.2067 C   0  0  0  0  0  0
  -28.0129  -12.3544   18.6236 C   0  0  0  0  0  0
  -27.6584  -13.2100   19.8697 C   0  0  2  0  0  0
  -28.7011  -13.0239   20.9968 C   0  0  0  0  0  0
  -25.2570  -13.8166   20.5650 C   0  0  0  0  0  0
  -24.1837  -13.0446   20.9170 C   0  0  0  0  0  0
  -24.6397  -11.6909   20.8759 C   0  0  0  0  0  0
  -23.9062  -10.4301   21.0424 C   0  0  0  0  0  0
  -24.3622   -9.4212   21.9203 C   0  0  0  0  0  0
  -23.6296   -8.2245   22.0758 C   0  0  0  0  0  0
  -22.4284   -8.0283   21.3542 C   0  0  0  0  0  0
  -21.9930   -9.0258   20.4636 C   0  0  0  0  0  0
  -22.7252  -10.2140   20.3056 C   0  0  0  0  0  0
  -21.6858   -6.0743   22.5280 C   0  0  0  0  0  0
  -21.4012   -6.5647   23.8217 C   0  0  0  0  0  0
  -21.3654   -5.6801   24.9181 C   0  0  0  0  0  0
  -21.6045   -4.3060   24.7242 C   0  0  0  0  0  0
  -21.8817   -3.8148   23.4357 C   0  0  0  0  0  0
  -21.9193   -4.6966   22.3410 C   0  0  0  0  0  0
  -22.7854  -13.5235   21.1835 C   0  0  0  0  0  0
  -22.1659   -4.2152   21.0987 F   0  0  0  0  0  0
  -21.5633   -3.4539   25.7753 F   0  0  0  0  0  0
  -30.0313  -13.3133   20.4379 N   0  0  0  0  0  0
  -26.3012  -12.9350   20.3351 N   0  0  0  0  0  0
  -25.9325  -11.6507   20.5784 N   0  0  0  0  0  0
  -22.0495  -12.8218   22.0380 N   0  0  0  0  0  0
  -25.4272  -15.1882   20.3977 N   0  0  0  0  0  0
  -31.8634  -14.6064   20.0929 O   0  0  0  0  0  0
  -21.6634   -6.8891   21.4239 O   0  0  0  0  0  0
  -22.3555  -14.5563   20.6707 O   0  0  0  0  0  0
  -24.6102  -31.8688   23.2096 C   0  0  0  0  0  0
  -25.9009  -32.4820   23.8378 C   0  0  1  0  0  0
  -27.2458  -27.4588   20.1131 C   0  0  0  0  0  0
  -25.5893  -33.8617   24.2329 N   0  0  0  0  0  0
  -23.3965  -30.4871   21.5499 C   0  0  2  0  0  0
  -24.8473  -28.9567   20.1096 C   0  0  0  0  0  0
  -22.7384  -29.4625   22.5004 C   0  0  0  0  0  0
  -18.0248  -28.1354   22.8501 C   0  0  0  0  0  0
  -24.1483  -36.7315   23.2637 C   0  0  0  0  0  0
  -25.9161  -30.8473   21.3532 C   0  0  0  0  0  0
  -25.9990  -29.4800   20.7104 C   0  0  0  0  0  0
  -27.1984  -28.7406   20.7145 C   0  0  0  0  0  0
  -26.0863  -26.9543   19.4903 C   0  0  0  0  0  0
  -24.8839  -27.6906   19.4970 C   0  0  0  0  0  0
  -23.6022  -29.8145   20.1638 C   0  0  0  0  0  0
  -25.4102  -36.3112   24.0320 C   0  0  1  0  0  0
  -20.5837  -28.3621   23.1321 C   0  0  2  0  0  0
  -20.6741  -26.9366   22.5396 C   0  0  0  0  0  0
  -19.5719  -26.6376   21.5187 C   0  0  0  0  0  0
  -18.1891  -26.7910   22.1591 C   0  0  0  0  0  0
  -19.1504  -28.8798   23.2913 C   0  0  0  0  0  0
  -18.9448  -30.1414   23.8915 C   0  0  0  0  0  0
  -17.6458  -30.6589   24.0547 C   0  0  0  0  0  0
  -25.9017  -34.9475   23.5120 C   0  0  0  0  0  0
  -16.5342  -29.9081   23.6331 C   0  0  0  0  0  0
  -16.7240  -28.6483   23.0368 C   0  0  0  0  0  0
  -26.4445  -31.6585   25.0696 C   0  0  0  0  0  0
  -25.3702  -31.3664   26.1443 C   0  0  0  0  0  0
  -27.0285  -30.3049   24.6003 C   0  0  0  0  0  0
  -27.6030  -32.4276   25.7502 C   0  0  0  0  0  0
  -27.5571  -37.1818   24.8461 C   0  0  0  0  0  0
  -21.4114  -29.3005   22.3752 N   0  0  0  0  0  0
  -26.4307  -37.3782   23.9372 N   0  0  0  0  0  0
  -24.6598  -31.0805   22.0984 N   0  0  0  0  0  0
  -23.4161  -28.8179   23.3046 O   0  0  0  0  0  0
  -28.3743  -26.6674   20.1207 O   0  0  0  0  0  0
  -26.5592  -34.8938   22.4687 O   0  0  0  0  0  0
  -23.5304  -32.1435   23.7509 O   0  0  0  0  0  0
  -31.9417  -17.0495   21.7945 C   0  0  0  0  0  0
  -32.2091  -18.4456   21.9305 C   0  0  0  0  0  0
  -30.6525  -16.7363   21.4338 C   0  0  0  0  0  0
  -31.1122  -19.2407   21.6887 C   0  0  0  0  0  0
  -30.2009  -21.5426   21.5382 C   0  0  0  0  0  0
  -33.5673  -18.9739   22.2941 C   0  0  0  0  0  0
  -30.9770  -25.8731   22.7533 C   0  0  0  0  0  0
  -31.1656  -25.8097   20.2508 C   0  0  0  0  0  0
  -30.7047  -22.9998   21.6246 C   0  0  0  0  0  0
  -29.6456  -24.1317   21.4503 C   0  0  0  0  0  0
  -29.0856  -26.6589   21.3605 C   0  0  0  0  0  0
  -30.2117  -25.5927   21.4401 C   0  0  0  0  0  0
  -31.1514  -20.6053   21.7256 N   0  0  0  0  0  0
  -30.1180  -15.4978   21.1981 N   0  0  0  0  0  0
  -29.0127  -21.2954   21.3204 O   0  0  0  0  0  0
  -29.7180  -18.2202   21.3261 S   0  0  0  0  0  0
  -31.4553  -12.3877   19.1238 H   0  0  0  0  0  0
  -30.2933  -11.3073   19.8376 H   0  0  0  0  0  0
  -29.7301  -11.7772   17.4289 H   0  0  0  0  0  0
  -29.6495  -13.4892   17.7682 H   0  0  0  0  0  0
  -27.8359  -11.2989   18.8361 H   0  0  0  0  0  0
  -27.3565  -12.6085   17.7900 H   0  0  0  0  0  0
  -27.6950  -14.2518   19.5519 H   0  0  0  0  0  0
  -28.6792  -11.9998   21.3738 H   0  0  0  0  0  0
  -28.4626  -13.6574   21.8521 H   0  0  0  0  0  0
  -25.2771   -9.5696   22.4772 H   0  0  0  0  0  0
  -24.0008   -7.4646   22.7494 H   0  0  0  0  0  0
  -21.0864   -8.8780   19.8935 H   0  0  0  0  0  0
  -22.3725  -10.9681   19.6153 H   0  0  0  0  0  0
  -21.1993   -7.6154   23.9725 H   0  0  0  0  0  0
  -21.1475   -6.0528   25.9091 H   0  0  0  0  0  0
  -22.0597   -2.7608   23.2859 H   0  0  0  0  0  0
  -22.4106  -11.9859   22.4734 H   0  0  0  0  0  0
  -21.1097  -13.1217   22.2574 H   0  0  0  0  0  0
  -24.6515  -15.8378   20.4744 H   0  0  0  0  0  0
  -26.2723  -15.6217   20.0474 H   0  0  0  0  0  0
  -26.7082  -32.5549   23.1151 H   0  0  0  0  0  0
  -25.0063  -33.9778   25.0489 H   0  0  0  0  0  0
  -22.6827  -31.3011   21.4098 H   0  0  0  0  0  0
  -23.3752  -35.9647   23.3304 H   0  0  0  0  0  0
  -24.3597  -36.8929   22.2059 H   0  0  0  0  0  0
  -23.7242  -37.6510   23.6666 H   0  0  0  0  0  0
  -26.0079  -31.6106   20.5776 H   0  0  0  0  0  0
  -26.8080  -30.9161   21.9629 H   0  0  0  0  0  0
  -28.0737  -29.1681   21.1793 H   0  0  0  0  0  0
  -26.1106  -25.9813   19.0205 H   0  0  0  0  0  0
  -24.0006  -27.2827   19.0258 H   0  0  0  0  0  0
  -23.6934  -30.5838   19.3955 H   0  0  0  0  0  0
  -22.7314  -29.2180   19.8855 H   0  0  0  0  0  0
  -25.1287  -36.1991   25.0812 H   0  0  0  0  0  0
  -20.9912  -28.3193   24.1443 H   0  0  0  0  0  0
  -20.5635  -26.2225   23.3573 H   0  0  0  0  0  0
  -21.6616  -26.7417   22.1194 H   0  0  0  0  0  0
  -19.6877  -25.6299   21.1190 H   0  0  0  0  0  0
  -19.6664  -27.3211   20.6741 H   0  0  0  0  0  0
  -17.4155  -26.6664   21.3991 H   0  0  0  0  0  0
  -18.0283  -26.0054   22.8986 H   0  0  0  0  0  0
  -19.7942  -30.7203   24.2309 H   0  0  0  0  0  0
  -17.5034  -31.6280   24.5146 H   0  0  0  0  0  0
  -15.5349  -30.2982   23.7679 H   0  0  0  0  0  0
  -15.8629  -28.0809   22.7082 H   0  0  0  0  0  0
  -24.5922  -30.6961   25.7763 H   0  0  0  0  0  0
  -24.8847  -32.2810   26.4861 H   0  0  0  0  0  0
  -25.8063  -30.8870   27.0219 H   0  0  0  0  0  0
  -26.2831  -29.6828   24.1042 H   0  0  0  0  0  0
  -27.4088  -29.7248   25.4422 H   0  0  0  0  0  0
  -27.8631  -30.4395   23.9117 H   0  0  0  0  0  0
  -27.2667  -33.3594   26.2067 H   0  0  0  0  0  0
  -28.3894  -32.6780   25.0363 H   0  0  0  0  0  0
  -28.0628  -31.8381   26.5447 H   0  0  0  0  0  0
  -28.2582  -38.0127   24.7530 H   0  0  0  0  0  0
  -28.1076  -36.2654   24.6276 H   0  0  0  0  0  0
  -27.2296  -37.1468   25.8873 H   0  0  0  0  0  0
  -20.9280  -29.8772   21.7017 H   0  0  0  0  0  0
  -26.0193  -38.2844   24.1409 H   0  0  0  0  0  0
  -32.7235  -16.3188   21.9536 H   0  0  0  0  0  0
  -34.2942  -18.1688   22.4092 H   0  0  0  0  0  0
  -33.5404  -19.5200   23.2374 H   0  0  0  0  0  0
  -33.9525  -19.6481   21.5287 H   0  0  0  0  0  0
  -31.8546  -25.2397   22.8699 H   0  0  0  0  0  0
  -30.3373  -25.7299   23.6258 H   0  0  0  0  0  0
  -31.3342  -26.9022   22.7930 H   0  0  0  0  0  0
  -32.0703  -25.2105   20.3390 H   0  0  0  0  0  0
  -31.4841  -26.8506   20.1852 H   0  0  0  0  0  0
  -30.6844  -25.5568   19.3058 H   0  0  0  0  0  0
  -31.4810  -23.1080   20.8682 H   0  0  0  0  0  0
  -31.1994  -23.1077   22.5903 H   0  0  0  0  0  0
  -28.9111  -24.0423   22.2532 H   0  0  0  0  0  0
  -29.0891  -23.9642   20.5276 H   0  0  0  0  0  0
  -29.5397  -27.6389   21.5084 H   0  0  0  0  0  0
  -28.3827  -26.5110   22.1844 H   0  0  0  0  0  0
  -32.0664  -20.9937   21.9114 H   0  0  0  0  0  0
  -29.1410  -15.3659   21.4124 H   0  0  0  0  0  0
  1 25  1  0  0  0
  1 30  2  0  0  0
  1 84  1  0  0  0
  2  3  1  0  0  0
  2 25  1  0  0  0
  2 87  1  0  0  0
  2 88  1  0  0  0
  3  4  1  0  0  0
  3 89  1  0  0  0
  3 90  1  0  0  0
  4  5  1  0  0  0
  4 91  1  0  0  0
  4 92  1  0  0  0
  5  6  1  0  0  0
  5 26  1  0  0  0
  5 93  1  0  0  0
  6 25  1  0  0  0
  6 94  1  0  0  0
  6 95  1  0  0  0
  7  8  2  0  0  0
  7 26  1  0  0  0
  7 29  1  0  0  0
  8  9  1  0  0  0
  8 22  1  0  0  0
  9 10  1  0  0  0
  9 27  2  0  0  0
 10 11  2  0  0  0
 10 15  1  0  0  0
 11 12  1  0  0  0
 11 96  1  0  0  0
 12 13  2  0  0  0
 12 97  1  0  0  0
 13 14  1  0  0  0
 13 31  1  0  0  0
 14 15  2  0  0  0
 14 98  1  0  0  0
 15 99  1  0  0  0
 16 17  2  0  0  0
 16 21  1  0  0  0
 16 31  1  0  0  0
 17 18  1  0  0  0
 17100  1  0  0  0
 18 19  2  0  0  0
 18101  1  0  0  0
 19 20  1  0  0  0
 19 24  1  0  0  0
 20 21  2  0  0  0
 20102  1  0  0  0
 21 23  1  0  0  0
 22 28  1  0  0  0
 22 32  2  0  0  0
 26 27  1  0  0  0
 28103  1  0  0  0
 28104  1  0  0  0
 29105  1  0  0  0
 29106  1  0  0  0
 33 34  1  0  0  0
 33 66  1  0  0  0
 33 70  2  0  0  0
 34 36  1  0  0  0
 34 59  1  0  0  0
 34107  1  0  0  0
 35 44  2  0  0  0
 35 45  1  0  0  0
 35 68  1  0  0  0
 36 56  1  0  0  0
 36108  1  0  0  0
 37 39  1  0  0  0
 37 47  1  0  0  0
 37 66  1  0  0  0
 37109  1  0  0  0
 38 43  2  0  0  0
 38 46  1  0  0  0
 38 47  1  0  0  0
 39 64  1  0  0  0
 39 67  2  0  0  0
 40 52  1  0  0  0
 40 53  2  0  0  0
 40 58  1  0  0  0
 41110  1  0  0  0
 41111  1  0  0  0
 41112  1  0  0  0
 41 48  1  0  0  0
 42 43  1  0  0  0
 42 66  1  0  0  0
 42113  1  0  0  0
 42114  1  0  0  0
 43 44  1  0  0  0
 44115  1  0  0  0
 45 46  2  0  0  0
 45116  1  0  0  0
 46117  1  0  0  0
 47118  1  0  0  0
 47119  1  0  0  0
 48 56  1  0  0  0
 48 65  1  0  0  0
 48120  1  0  0  0
 49 50  1  0  0  0
 49 53  1  0  0  0
 49 64  1  0  0  0
 49121  1  0  0  0
 50 51  1  0  0  0
 50122  1  0  0  0
 50123  1  0  0  0
 51 52  1  0  0  0
 51124  1  0  0  0
 51125  1  0  0  0
 52126  1  0  0  0
 52127  1  0  0  0
 53 54  1  0  0  0
 54 55  2  0  0  0
 54128  1  0  0  0
 55 57  1  0  0  0
 55129  1  0  0  0
 56 69  2  0  0  0
 57 58  2  0  0  0
 57130  1  0  0  0
 58131  1  0  0  0
 59 60  1  0  0  0
 59 61  1  0  0  0
 59 62  1  0  0  0
 60132  1  0  0  0
 60133  1  0  0  0
 60134  1  0  0  0
 61135  1  0  0  0
 61136  1  0  0  0
 61137  1  0  0  0
 62138  1  0  0  0
 62139  1  0  0  0
 62140  1  0  0  0
 63 65  1  0  0  0
 63141  1  0  0  0
 63142  1  0  0  0
 63143  1  0  0  0
 64144  1  0  0  0
 65145  1  0  0  0
 68 81  1  0  0  0
 71 72  1  0  0  0
 71 73  2  0  0  0
 71146  1  0  0  0
 72 74  2  0  0  0
 72 76  1  0  0  0
 73 84  1  0  0  0
 73 86  1  0  0  0
 74 83  1  0  0  0
 74 86  1  0  0  0
 75 79  1  0  0  0
 75 83  1  0  0  0
 75 85  2  0  0  0
 76147  1  0  0  0
 76148  1  0  0  0
 76149  1  0  0  0
 77150  1  0  0  0
 77151  1  0  0  0
 77152  1  0  0  0
 77 82  1  0  0  0
 78 82  1  0  0  0
 78153  1  0  0  0
 78154  1  0  0  0
 78155  1  0  0  0
 79 80  1  0  0  0
 79156  1  0  0  0
 79157  1  0  0  0
 80 82  1  0  0  0
 80158  1  0  0  0
 80159  1  0  0  0
 81 82  1  0  0  0
 81160  1  0  0  0
 81161  1  0  0  0
 83162  1  0  0  0
 84163  1  0  0  0
M  ISO  4   1 100  68 101  81 101  84 100
M  END
> <chiral flag>
0

> <version>
0

> <s_m_source_file>
/data/baiqing/PycharmProjects/Reinvent-master-3.2/result/LINK_invent/BTK/process_docking_weight1_custom_product_contain_oxygen_bond_distance_aromatic_linkinvent_7_9_3/rearranged_h_0145.sdf

> <i_m_source_file_index>
5

> <r_mmod_Potential_Energy-OPLS-2005>
-107.10139465332

> <r_mmod_Stretch_Energy-OPLS-2005>
38.3497734069824

> <r_mmod_Bend_Energy-OPLS-2005>
121.806594848633

> <r_mmod_Torsional_Energy-OPLS-2005>
228.348495483398

> <r_mmod_Improper_Torsional_Energy-OPLS-2005>
3.12384438514709

> <r_mmod_Van_der_Waal_Energy-OPLS-2005>
139.794692993164

> <r_mmod_Electrostatic_Energy-OPLS-2005>
-426.776214599609

> <r_mmod_Solvation_Energy-OPLS-2005>
-224.2939453125

> <b_mmod_Minimization_Converged-OPLS-2005>
0

> <r_mmod_RMS_Derivative-OPLS-2005>
2.81370186805725

$$$$
5
                    3D
 Structure written by MMmdl.
156165  0  0  1  0            999 V2000
  -30.5888  -14.8043   20.4134 C   0  0  0  0  0  0
  -30.4308  -12.4814   19.4804 C   0  0  0  0  0  0
  -29.5125  -12.4924   18.2389 C   0  0  0  0  0  0
  -28.0399  -12.3136   18.6565 C   0  0  0  0  0  0
  -27.6347  -13.2363   19.8367 C   0  0  2  0  0  0
  -28.6769  -13.2276   20.9743 C   0  0  0  0  0  0
  -25.2509  -13.8217   20.5664 C   0  0  0  0  0  0
  -24.1822  -13.0454   20.9197 C   0  0  0  0  0  0
  -24.6431  -11.6933   20.8780 C   0  0  0  0  0  0
  -23.9127  -10.4294   21.0431 C   0  0  0  0  0  0
  -24.3659   -9.4200   21.9202 C   0  0  0  0  0  0
  -23.6314   -8.2248   22.0770 C   0  0  0  0  0  0
  -22.4307   -8.0297   21.3547 C   0  0  0  0  0  0
  -21.9954   -9.0287   20.4652 C   0  0  0  0  0  0
  -22.7306  -10.2149   20.3066 C   0  0  0  0  0  0
  -21.6856   -6.0762   22.5285 C   0  0  0  0  0  0
  -21.4018   -6.5660   23.8218 C   0  0  0  0  0  0
  -21.3654   -5.6806   24.9177 C   0  0  0  0  0  0
  -21.6036   -4.3067   24.7219 C   0  0  0  0  0  0
  -21.8820   -3.8168   23.4334 C   0  0  0  0  0  0
  -21.9190   -4.6990   22.3397 C   0  0  0  0  0  0
  -22.7838  -13.5227   21.1846 C   0  0  0  0  0  0
  -22.1663   -4.2176   21.0976 F   0  0  0  0  0  0
  -21.5620   -3.4548   25.7725 F   0  0  0  0  0  0
  -29.9726  -13.5691   20.3794 N   0  0  0  0  0  0
  -26.2920  -12.9419   20.3239 N   0  0  0  0  0  0
  -25.9349  -11.6563   20.5772 N   0  0  0  0  0  0
  -22.0473  -12.8228   22.0384 N   0  0  0  0  0  0
  -25.4205  -15.1945   20.4051 N   0  0  0  0  0  0
  -31.7911  -14.8665   20.1490 O   0  0  0  0  0  0
  -21.6651   -6.8911   21.4248 O   0  0  0  0  0  0
  -22.3518  -14.5524   20.6669 O   0  0  0  0  0  0
  -24.6367  -31.8558   23.1948 C   0  0  0  0  0  0
  -25.9184  -32.4748   23.8306 C   0  0  1  0  0  0
  -27.1985  -27.2186   20.1338 C   0  0  0  0  0  0
  -25.5977  -33.8545   24.2250 N   0  0  0  0  0  0
  -23.4344  -30.4823   21.5378 C   0  0  2  0  0  0
  -24.8780  -28.9140   20.1150 C   0  0  0  0  0  0
  -22.7547  -29.4618   22.4840 C   0  0  0  0  0  0
  -18.0325  -28.1448   22.8555 C   0  0  0  0  0  0
  -24.1484  -36.7221   23.2637 C   0  0  0  0  0  0
  -25.9832  -30.7555   21.3770 C   0  0  0  0  0  0
  -26.0546  -29.3701   20.7283 C   0  0  0  0  0  0
  -27.2274  -28.5380   20.7181 C   0  0  0  0  0  0
  -26.0000  -26.8321   19.5105 C   0  0  0  0  0  0
  -24.8553  -27.6572   19.4948 C   0  0  0  0  0  0
  -23.6635  -29.8290   20.1509 C   0  0  0  0  0  0
  -25.4118  -36.3037   24.0333 C   0  0  1  0  0  0
  -20.5937  -28.3733   23.1283 C   0  0  2  0  0  0
  -20.6807  -26.9446   22.5402 C   0  0  0  0  0  0
  -19.5742  -26.6422   21.5232 C   0  0  0  0  0  0
  -18.1946  -26.8010   22.1672 C   0  0  0  0  0  0
  -19.1584  -28.8910   23.2937 C   0  0  0  0  0  0
  -18.9494  -30.1531   23.8922 C   0  0  0  0  0  0
  -17.6488  -30.6638   24.0615 C   0  0  0  0  0  0
  -25.9082  -34.9433   23.5073 C   0  0  0  0  0  0
  -16.5385  -29.9142   23.6360 C   0  0  0  0  0  0
  -16.7309  -28.6569   23.0366 C   0  0  0  0  0  0
  -26.4540  -31.6556   25.0669 C   0  0  0  0  0  0
  -25.3743  -31.3694   26.1358 C   0  0  0  0  0  0
  -27.0376  -30.2995   24.6092 C   0  0  0  0  0  0
  -27.6122  -32.4240   25.7432 C   0  0  0  0  0  0
  -27.5588  -37.1767   24.8476 C   0  0  0  0  0  0
  -21.4236  -29.3083   22.3641 N   0  0  0  0  0  0
  -26.4272  -37.3763   23.9448 N   0  0  0  0  0  0
  -24.7048  -31.0535   22.0917 N   0  0  0  0  0  0
  -23.4231  -28.8191   23.2986 O   0  0  0  0  0  0
  -28.2574  -26.2726   20.0657 O   0  0  0  0  0  0
  -26.5670  -34.8932   22.4646 O   0  0  0  0  0  0
  -23.5520  -32.1385   23.7238 O   0  0  0  0  0  0
  -29.1677  -18.5506   20.4940 C   0  0  0  0  0  0
  -30.8600  -20.1144   19.8224 C   0  0  0  0  0  0
  -31.3837  -17.8335   19.8979 C   0  0  0  0  0  0
  -29.5190  -19.9545   20.2332 C   0  0  0  0  0  0
  -30.1011  -17.4262   20.3288 C   0  0  0  0  0  0
  -28.4946  -23.7191   20.3006 C   0  0  0  0  0  0
  -28.2547  -25.0225   20.7824 C   0  0  0  0  0  0
  -28.4518  -23.2299   18.8707 C   0  0  0  0  0  0
  -28.8197  -22.3818   21.0838 C   0  0  0  0  0  0
  -28.3360  -21.6685   18.9006 C   0  0  0  0  0  0
  -28.0995  -25.2880   22.2676 C   0  0  0  0  0  0
  -31.7501  -19.1107   19.6575 N   0  0  0  0  0  0
  -28.6387  -21.1353   20.2418 N   0  0  0  0  0  0
  -29.7978  -15.9576   20.5285 N   0  0  0  0  0  0
  -31.4714  -12.6047   19.1735 H   0  0  0  0  0  0
  -30.3834  -11.5193   19.9929 H   0  0  0  0  0  0
  -29.8024  -11.7015   17.5460 H   0  0  0  0  0  0
  -29.6316  -13.4314   17.6985 H   0  0  0  0  0  0
  -27.9071  -11.2703   18.9414 H   0  0  0  0  0  0
  -27.3819  -12.4817   17.8029 H   0  0  0  0  0  0
  -27.6125  -14.2437   19.4201 H   0  0  0  0  0  0
  -28.7232  -12.2612   21.4757 H   0  0  0  0  0  0
  -28.4053  -13.9583   21.7379 H   0  0  0  0  0  0
  -25.2811   -9.5660   22.4770 H   0  0  0  0  0  0
  -24.0023   -7.4636   22.7484 H   0  0  0  0  0  0
  -21.0888   -8.8814   19.8940 H   0  0  0  0  0  0
  -22.3795  -10.9691   19.6155 H   0  0  0  0  0  0
  -21.2021   -7.6168   23.9726 H   0  0  0  0  0  0
  -21.1468   -6.0537   25.9079 H   0  0  0  0  0  0
  -22.0598   -2.7632   23.2824 H   0  0  0  0  0  0
  -22.4085  -11.9895   22.4791 H   0  0  0  0  0  0
  -21.1074  -13.1240   22.2553 H   0  0  0  0  0  0
  -24.6452  -15.8436   20.4808 H   0  0  0  0  0  0
  -26.2699  -15.6323   20.0720 H   0  0  0  0  0  0
  -26.7256  -32.5422   23.1056 H   0  0  0  0  0  0
  -25.0117  -33.9678   25.0402 H   0  0  0  0  0  0
  -22.7310  -31.3068   21.3967 H   0  0  0  0  0  0
  -23.3773  -35.9516   23.3262 H   0  0  0  0  0  0
  -24.3590  -36.8855   22.2054 H   0  0  0  0  0  0
  -23.7198  -37.6404   23.6672 H   0  0  0  0  0  0
  -26.1316  -31.5107   20.6029 H   0  0  0  0  0  0
  -26.8602  -30.8093   22.0097 H   0  0  0  0  0  0
  -28.1373  -28.8957   21.1851 H   0  0  0  0  0  0
  -25.9485  -25.8633   19.0377 H   0  0  0  0  0  0
  -23.9578  -27.3081   19.0064 H   0  0  0  0  0  0
  -23.8347  -30.6207   19.4177 H   0  0  0  0  0  0
  -22.7692  -29.3037   19.8137 H   0  0  0  0  0  0
  -25.1289  -36.1835   25.0823 H   0  0  0  0  0  0
  -21.0108  -28.3304   24.1376 H   0  0  0  0  0  0
  -20.5716  -26.2352   23.3615 H   0  0  0  0  0  0
  -21.6673  -26.7475   22.1183 H   0  0  0  0  0  0
  -19.6851  -25.6307   21.1297 H   0  0  0  0  0  0
  -19.6669  -27.3241   20.6761 H   0  0  0  0  0  0
  -17.4220  -26.6849   21.4048 H   0  0  0  0  0  0
  -18.0299  -26.0133   22.9034 H   0  0  0  0  0  0
  -19.7940  -30.7402   24.2258 H   0  0  0  0  0  0
  -17.5008  -31.6292   24.5248 H   0  0  0  0  0  0
  -15.5388  -30.3054   23.7601 H   0  0  0  0  0  0
  -15.8737  -28.0885   22.7014 H   0  0  0  0  0  0
  -24.5940  -30.7031   25.7656 H   0  0  0  0  0  0
  -24.8918  -32.2866   26.4758 H   0  0  0  0  0  0
  -25.8040  -30.8877   27.0151 H   0  0  0  0  0  0
  -26.2933  -29.6712   24.1206 H   0  0  0  0  0  0
  -27.4219  -29.7258   25.4533 H   0  0  0  0  0  0
  -27.8729  -30.4289   23.9209 H   0  0  0  0  0  0
  -27.2819  -33.3583   26.1987 H   0  0  0  0  0  0
  -28.3984  -32.6722   25.0275 H   0  0  0  0  0  0
  -28.0746  -31.8349   26.5371 H   0  0  0  0  0  0
  -28.2568  -38.0115   24.7651 H   0  0  0  0  0  0
  -28.1148  -36.2676   24.6143 H   0  0  0  0  0  0
  -27.2361  -37.1199   25.8893 H   0  0  0  0  0  0
  -20.9380  -29.8845   21.6908 H   0  0  0  0  0  0
  -26.0113  -38.2789   24.1563 H   0  0  0  0  0  0
  -28.1591  -18.3288   20.8091 H   0  0  0  0  0  0
  -31.2284  -21.0943   19.5633 H   0  0  0  0  0  0
  -32.1783  -17.1360   19.6939 H   0  0  0  0  0  0
  -29.3665  -23.5072   18.3504 H   0  0  0  0  0  0
  -27.6105  -23.6744   18.3366 H   0  0  0  0  0  0
  -28.2197  -22.3277   21.9928 H   0  0  0  0  0  0
  -29.8592  -22.4290   21.4129 H   0  0  0  0  0  0
  -28.9912  -21.2479   18.1359 H   0  0  0  0  0  0
  -27.3213  -21.3615   18.6359 H   0  0  0  0  0  0
  -27.7705  -24.3960   22.7989 H   0  0  0  0  0  0
  -27.3387  -26.0507   22.4407 H   0  0  0  0  0  0
  -29.0358  -25.6386   22.6963 H   0  0  0  0  0  0
  -28.8270  -15.7423   20.6953 H   0  0  0  0  0  0
  1 25  1  0  0  0
  1 30  2  0  0  0
  1 84  1  0  0  0
  2  3  1  0  0  0
  2 25  1  0  0  0
  2 85  1  0  0  0
  2 86  1  0  0  0
  3  4  1  0  0  0
  3 87  1  0  0  0
  3 88  1  0  0  0
  4  5  1  0  0  0
  4 89  1  0  0  0
  4 90  1  0  0  0
  5  6  1  0  0  0
  5 26  1  0  0  0
  5 91  1  0  0  0
  6 25  1  0  0  0
  6 92  1  0  0  0
  6 93  1  0  0  0
  7  8  2  0  0  0
  7 26  1  0  0  0
  7 29  1  0  0  0
  8  9  1  0  0  0
  8 22  1  0  0  0
  9 10  1  0  0  0
  9 27  2  0  0  0
 10 11  2  0  0  0
 10 15  1  0  0  0
 11 12  1  0  0  0
 11 94  1  0  0  0
 12 13  2  0  0  0
 12 95  1  0  0  0
 13 14  1  0  0  0
 13 31  1  0  0  0
 14 15  2  0  0  0
 14 96  1  0  0  0
 15 97  1  0  0  0
 16 17  2  0  0  0
 16 21  1  0  0  0
 16 31  1  0  0  0
 17 18  1  0  0  0
 17 98  1  0  0  0
 18 19  2  0  0  0
 18 99  1  0  0  0
 19 20  1  0  0  0
 19 24  1  0  0  0
 20 21  2  0  0  0
 20100  1  0  0  0
 21 23  1  0  0  0
 22 28  1  0  0  0
 22 32  2  0  0  0
 26 27  1  0  0  0
 28101  1  0  0  0
 28102  1  0  0  0
 29103  1  0  0  0
 29104  1  0  0  0
 33 34  1  0  0  0
 33 66  1  0  0  0
 33 70  2  0  0  0
 34 36  1  0  0  0
 34 59  1  0  0  0
 34105  1  0  0  0
 35 44  2  0  0  0
 35 45  1  0  0  0
 35 68  1  0  0  0
 36 56  1  0  0  0
 36106  1  0  0  0
 37 39  1  0  0  0
 37 47  1  0  0  0
 37 66  1  0  0  0
 37107  1  0  0  0
 38 43  2  0  0  0
 38 46  1  0  0  0
 38 47  1  0  0  0
 39 64  1  0  0  0
 39 67  2  0  0  0
 40 52  1  0  0  0
 40 53  2  0  0  0
 40 58  1  0  0  0
 41108  1  0  0  0
 41109  1  0  0  0
 41110  1  0  0  0
 41 48  1  0  0  0
 42 43  1  0  0  0
 42 66  1  0  0  0
 42111  1  0  0  0
 42112  1  0  0  0
 43 44  1  0  0  0
 44113  1  0  0  0
 45 46  2  0  0  0
 45114  1  0  0  0
 46115  1  0  0  0
 47116  1  0  0  0
 47117  1  0  0  0
 48 56  1  0  0  0
 48 65  1  0  0  0
 48118  1  0  0  0
 49 50  1  0  0  0
 49 53  1  0  0  0
 49 64  1  0  0  0
 49119  1  0  0  0
 50 51  1  0  0  0
 50120  1  0  0  0
 50121  1  0  0  0
 51 52  1  0  0  0
 51122  1  0  0  0
 51123  1  0  0  0
 52124  1  0  0  0
 52125  1  0  0  0
 53 54  1  0  0  0
 54 55  2  0  0  0
 54126  1  0  0  0
 55 57  1  0  0  0
 55127  1  0  0  0
 56 69  2  0  0  0
 57 58  2  0  0  0
 57128  1  0  0  0
 58129  1  0  0  0
 59 60  1  0  0  0
 59 61  1  0  0  0
 59 62  1  0  0  0
 60130  1  0  0  0
 60131  1  0  0  0
 60132  1  0  0  0
 61133  1  0  0  0
 61134  1  0  0  0
 61135  1  0  0  0
 62136  1  0  0  0
 62137  1  0  0  0
 62138  1  0  0  0
 63 65  1  0  0  0
 63139  1  0  0  0
 63140  1  0  0  0
 63141  1  0  0  0
 64142  1  0  0  0
 65143  1  0  0  0
 68 77  1  0  0  0
 71 74  2  0  0  0
 71 75  1  0  0  0
 71144  1  0  0  0
 72 74  1  0  0  0
 72 82  2  0  0  0
 72145  1  0  0  0
 73 75  2  0  0  0
 73 82  1  0  0  0
 73146  1  0  0  0
 74 83  1  0  0  0
 75 84  1  0  0  0
 76 77  2  0  0  0
 76 78  1  0  0  0
 76 79  1  0  0  0
 77 81  1  0  0  0
 78 80  1  0  0  0
 78147  1  0  0  0
 78148  1  0  0  0
 79 83  1  0  0  0
 79149  1  0  0  0
 79150  1  0  0  0
 80 83  1  0  0  0
 80151  1  0  0  0
 80152  1  0  0  0
 81153  1  0  0  0
 81154  1  0  0  0
 81155  1  0  0  0
 84156  1  0  0  0
M  ISO  4   1 100  68 101  77 101  84 100
M  END
> <chiral flag>
0

> <version>
0

> <s_m_source_file>
/data/baiqing/PycharmProjects/Reinvent-master-3.2/result/LINK_invent/BTK/process_docking_weight1_custom_product_contain_oxygen_bond_distance_aromatic_linkinvent_7_9_3/rearranged_h_0145.sdf

> <i_m_source_file_index>
6

> <r_mmod_Potential_Energy-OPLS-2005>
243.968536376953

> <r_mmod_Stretch_Energy-OPLS-2005>
148.372009277344

> <r_mmod_Bend_Energy-OPLS-2005>
207.682632446289

> <r_mmod_Torsional_Energy-OPLS-2005>
289.530334472656

> <r_mmod_Improper_Torsional_Energy-OPLS-2005>
10.3185720443726

> <r_mmod_Van_der_Waal_Energy-OPLS-2005>
135.901489257812

> <r_mmod_Electrostatic_Energy-OPLS-2005>
-429.936401367188

> <r_mmod_Solvation_Energy-OPLS-2005>
-234.597442626953

> <b_mmod_Minimization_Converged-OPLS-2005>
0

> <r_mmod_RMS_Derivative-OPLS-2005>
5.48954582214355

$$$$
6
                    3D
 Structure written by MMmdl.
159168  0  0  1  0            999 V2000
  -30.6326  -14.5893   20.5668 C   0  0  0  0  0  0
  -30.4434  -12.3728   19.4433 C   0  0  0  0  0  0
  -29.5078  -12.5053   18.2194 C   0  0  0  0  0  0
  -28.0288  -12.3447   18.6296 C   0  0  0  0  0  0
  -27.6569  -13.2064   19.8648 C   0  0  2  0  0  0
  -28.6996  -13.0296   20.9914 C   0  0  0  0  0  0
  -25.2583  -13.8146   20.5671 C   0  0  0  0  0  0
  -24.1838  -13.0431   20.9193 C   0  0  0  0  0  0
  -24.6390  -11.6899   20.8740 C   0  0  0  0  0  0
  -23.9053  -10.4289   21.0410 C   0  0  0  0  0  0
  -24.3608   -9.4205   21.9186 C   0  0  0  0  0  0
  -23.6289   -8.2238   22.0752 C   0  0  0  0  0  0
  -22.4272   -8.0278   21.3543 C   0  0  0  0  0  0
  -21.9904   -9.0251   20.4645 C   0  0  0  0  0  0
  -22.7229  -10.2131   20.3058 C   0  0  0  0  0  0
  -21.6850   -6.0734   22.5279 C   0  0  0  0  0  0
  -21.4009   -6.5637   23.8213 C   0  0  0  0  0  0
  -21.3659   -5.6791   24.9176 C   0  0  0  0  0  0
  -21.6044   -4.3055   24.7227 C   0  0  0  0  0  0
  -21.8820   -3.8147   23.4348 C   0  0  0  0  0  0
  -21.9193   -4.6962   22.3404 C   0  0  0  0  0  0
  -22.7865  -13.5236   21.1860 C   0  0  0  0  0  0
  -22.1664   -4.2148   21.0982 F   0  0  0  0  0  0
  -21.5629   -3.4540   25.7739 F   0  0  0  0  0  0
  -30.0192  -13.3723   20.4416 N   0  0  0  0  0  0
  -26.3003  -12.9308   20.3310 N   0  0  0  0  0  0
  -25.9315  -11.6476   20.5750 N   0  0  0  0  0  0
  -22.0498  -12.8228   22.0409 N   0  0  0  0  0  0
  -25.4316  -15.1863   20.4062 N   0  0  0  0  0  0
  -31.7521  -14.7954   20.0871 O   0  0  0  0  0  0
  -21.6640   -6.8874   21.4240 O   0  0  0  0  0  0
  -22.3561  -14.5552   20.6716 O   0  0  0  0  0  0
  -24.6200  -31.8632   23.2042 C   0  0  0  0  0  0
  -25.9061  -32.4803   23.8366 C   0  0  1  0  0  0
  -27.2342  -27.3672   20.1272 C   0  0  0  0  0  0
  -25.5894  -33.8599   24.2297 N   0  0  0  0  0  0
  -23.4143  -30.4839   21.5447 C   0  0  2  0  0  0
  -24.8663  -28.9393   20.1159 C   0  0  0  0  0  0
  -22.7450  -29.4640   22.4950 C   0  0  0  0  0  0
  -18.0286  -28.1388   22.8508 C   0  0  0  0  0  0
  -24.1482  -36.7298   23.2639 C   0  0  0  0  0  0
  -25.9493  -30.8092   21.3688 C   0  0  0  0  0  0
  -26.0287  -29.4364   20.7202 C   0  0  0  0  0  0
  -27.2193  -28.6597   20.7212 C   0  0  0  0  0  0
  -26.0603  -26.9075   19.4972 C   0  0  0  0  0  0
  -24.8797  -27.6771   19.4966 C   0  0  0  0  0  0
  -23.6292  -29.8122   20.1618 C   0  0  0  0  0  0
  -25.4110  -36.3097   24.0334 C   0  0  1  0  0  0
  -20.5886  -28.3680   23.1303 C   0  0  2  0  0  0
  -20.6771  -26.9408   22.5422 C   0  0  0  0  0  0
  -19.5744  -26.6396   21.5221 C   0  0  0  0  0  0
  -18.1926  -26.7938   22.1631 C   0  0  0  0  0  0
  -19.1543  -28.8850   23.2904 C   0  0  0  0  0  0
  -18.9463  -30.1454   23.8915 C   0  0  0  0  0  0
  -17.6467  -30.6598   24.0575 C   0  0  0  0  0  0
  -25.9045  -34.9465   23.5118 C   0  0  0  0  0  0
  -16.5357  -29.9100   23.6336 C   0  0  0  0  0  0
  -16.7278  -28.6515   23.0365 C   0  0  0  0  0  0
  -26.4470  -31.6599   25.0713 C   0  0  0  0  0  0
  -25.3720  -31.3729   26.1450 C   0  0  0  0  0  0
  -27.0294  -30.3029   24.6120 C   0  0  0  0  0  0
  -27.6040  -32.4324   25.7481 C   0  0  0  0  0  0
  -27.5582  -37.1802   24.8468 C   0  0  0  0  0  0
  -21.4170  -29.3040   22.3695 N   0  0  0  0  0  0
  -26.4292  -37.3790   23.9414 N   0  0  0  0  0  0
  -24.6796  -31.0683   22.0968 N   0  0  0  0  0  0
  -23.4194  -28.8188   23.3023 O   0  0  0  0  0  0
  -28.3546  -26.5407   20.1147 O   0  0  0  0  0  0
  -26.5619  -34.8926   22.4688 O   0  0  0  0  0  0
  -23.5374  -32.1410   23.7390 O   0  0  0  0  0  0
  -29.1551  -20.7937   20.2534 C   0  0  0  0  0  0
  -29.6123  -19.4524   20.5719 C   0  0  0  0  0  0
  -30.3500  -19.4005   21.6874 C   0  0  0  0  0  0
  -29.5576  -21.7533   21.1835 C   0  0  0  0  0  0
  -28.7122  -24.0410   20.5241 C   0  0  0  0  0  0
  -29.4888  -18.0394   20.0257 C   0  0  0  0  0  0
  -30.8151  -18.0293   22.0561 C   0  0  0  0  0  0
  -27.3232  -25.4180   22.1338 C   0  0  0  0  0  0
  -29.7768  -25.9320   21.8963 C   0  0  0  0  0  0
  -29.8927  -15.7877   21.2546 C   0  0  0  0  0  0
  -28.5083  -25.4897   21.1377 C   0  0  0  0  0  0
  -29.3128  -23.1068   21.3153 N   0  0  0  0  0  0
  -30.3837  -17.1766   20.8974 N   0  3  1  0  0  0
  -28.3198  -23.7886   19.3817 O   0  0  0  0  0  0
  -30.5311  -20.9626   22.4370 S   0  0  0  0  0  0
  -31.4833  -12.5044   19.1399 H   0  0  0  0  0  0
  -30.3816  -11.3691   19.8662 H   0  0  0  0  0  0
  -29.7674  -11.7606   17.4653 H   0  0  0  0  0  0
  -29.6542  -13.4787   17.7486 H   0  0  0  0  0  0
  -27.8606  -11.2905   18.8522 H   0  0  0  0  0  0
  -27.3751  -12.5850   17.7903 H   0  0  0  0  0  0
  -27.6850  -14.2451   19.5369 H   0  0  0  0  0  0
  -28.7027  -11.9972   21.3452 H   0  0  0  0  0  0
  -28.4427  -13.6323   21.8630 H   0  0  0  0  0  0
  -25.2753   -9.5684   22.4761 H   0  0  0  0  0  0
  -24.0001   -7.4627   22.7470 H   0  0  0  0  0  0
  -21.0838   -8.8770   19.8950 H   0  0  0  0  0  0
  -22.3690  -10.9671   19.6169 H   0  0  0  0  0  0
  -21.1997   -7.6146   23.9714 H   0  0  0  0  0  0
  -21.1479   -6.0523   25.9078 H   0  0  0  0  0  0
  -22.0598   -2.7611   23.2851 H   0  0  0  0  0  0
  -22.4097  -11.9878   22.4784 H   0  0  0  0  0  0
  -21.1119  -13.1260   22.2617 H   0  0  0  0  0  0
  -24.6602  -15.8385   20.5004 H   0  0  0  0  0  0
  -26.2702  -15.6167   20.0399 H   0  0  0  0  0  0
  -26.7130  -32.5505   23.1126 H   0  0  0  0  0  0
  -25.0017  -33.9754   25.0421 H   0  0  0  0  0  0
  -22.7067  -31.3028   21.3995 H   0  0  0  0  0  0
  -23.3749  -35.9625   23.3311 H   0  0  0  0  0  0
  -24.3578  -36.8906   22.2052 H   0  0  0  0  0  0
  -23.7221  -37.6498   23.6654 H   0  0  0  0  0  0
  -26.0706  -31.5706   20.5967 H   0  0  0  0  0  0
  -26.8332  -30.8655   21.9932 H   0  0  0  0  0  0
  -28.1152  -29.0372   21.1942 H   0  0  0  0  0  0
  -26.0596  -25.9361   19.0230 H   0  0  0  0  0  0
  -23.9888  -27.2918   19.0201 H   0  0  0  0  0  0
  -23.7414  -30.5848   19.4002 H   0  0  0  0  0  0
  -22.7528  -29.2329   19.8653 H   0  0  0  0  0  0
  -25.1288  -36.1955   25.0829 H   0  0  0  0  0  0
  -20.9990  -28.3245   24.1417 H   0  0  0  0  0  0
  -20.5668  -26.2284   23.3616 H   0  0  0  0  0  0
  -21.6639  -26.7442   22.1208 H   0  0  0  0  0  0
  -19.6897  -25.6311   21.1237 H   0  0  0  0  0  0
  -19.6678  -27.3217   20.6760 H   0  0  0  0  0  0
  -17.4196  -26.6708   21.4029 H   0  0  0  0  0  0
  -18.0315  -26.0080   22.9026 H   0  0  0  0  0  0
  -19.7938  -30.7274   24.2283 H   0  0  0  0  0  0
  -17.5023  -31.6279   24.5176 H   0  0  0  0  0  0
  -15.5358  -30.3012   23.7648 H   0  0  0  0  0  0
  -15.8679  -28.0840   22.7070 H   0  0  0  0  0  0
  -24.5881  -30.7093   25.7783 H   0  0  0  0  0  0
  -24.8922  -32.2893   26.4898 H   0  0  0  0  0  0
  -25.8055  -30.8892   27.0210 H   0  0  0  0  0  0
  -26.2843  -29.6802   24.1145 H   0  0  0  0  0  0
  -27.4014  -29.7259   25.4596 H   0  0  0  0  0  0
  -27.8711  -30.4335   23.9311 H   0  0  0  0  0  0
  -27.2656  -33.3623   26.2068 H   0  0  0  0  0  0
  -28.3845  -32.6883   25.0304 H   0  0  0  0  0  0
  -28.0707  -31.8436   26.5387 H   0  0  0  0  0  0
  -28.2603  -38.0098   24.7529 H   0  0  0  0  0  0
  -28.1073  -36.2631   24.6277 H   0  0  0  0  0  0
  -27.2307  -37.1434   25.8872 H   0  0  0  0  0  0
  -20.9328  -29.8763   21.6919 H   0  0  0  0  0  0
  -26.0177  -38.2866   24.1424 H   0  0  0  0  0  0
  -28.5406  -20.9967   19.3874 H   0  0  0  0  0  0
  -29.8024  -17.9784   18.9841 H   0  0  0  0  0  0
  -28.4502  -17.7128   20.0762 H   0  0  0  0  0  0
  -30.3420  -17.7232   22.9895 H   0  0  0  0  0  0
  -31.8961  -17.9880   22.1895 H   0  0  0  0  0  0
  -27.4982  -24.6688   22.9072 H   0  0  0  0  0  0
  -26.3925  -25.1431   21.6369 H   0  0  0  0  0  0
  -27.1661  -26.3668   22.6473 H   0  0  0  0  0  0
  -29.9872  -25.3000   22.7601 H   0  0  0  0  0  0
  -29.6733  -26.9527   22.2653 H   0  0  0  0  0  0
  -30.6531  -25.9099   21.2468 H   0  0  0  0  0  0
  -28.8268  -15.7330   21.0446 H   0  0  0  0  0  0
  -29.9881  -15.6232   22.3279 H   0  0  0  0  0  0
  -29.6275  -23.4961   22.1934 H   0  0  0  0  0  0
  -31.2237  -17.0156   20.3601 H   0  0  0  0  0  0
  1 25  1  0  0  0
  1 30  2  0  0  0
  1 80  1  0  0  0
  2  3  1  0  0  0
  2 25  1  0  0  0
  2 86  1  0  0  0
  2 87  1  0  0  0
  3  4  1  0  0  0
  3 88  1  0  0  0
  3 89  1  0  0  0
  4  5  1  0  0  0
  4 90  1  0  0  0
  4 91  1  0  0  0
  5  6  1  0  0  0
  5 26  1  0  0  0
  5 92  1  0  0  0
  6 25  1  0  0  0
  6 93  1  0  0  0
  6 94  1  0  0  0
  7  8  2  0  0  0
  7 26  1  0  0  0
  7 29  1  0  0  0
  8  9  1  0  0  0
  8 22  1  0  0  0
  9 10  1  0  0  0
  9 27  2  0  0  0
 10 11  2  0  0  0
 10 15  1  0  0  0
 11 12  1  0  0  0
 11 95  1  0  0  0
 12 13  2  0  0  0
 12 96  1  0  0  0
 13 14  1  0  0  0
 13 31  1  0  0  0
 14 15  2  0  0  0
 14 97  1  0  0  0
 15 98  1  0  0  0
 16 17  2  0  0  0
 16 21  1  0  0  0
 16 31  1  0  0  0
 17 18  1  0  0  0
 17 99  1  0  0  0
 18 19  2  0  0  0
 18100  1  0  0  0
 19 20  1  0  0  0
 19 24  1  0  0  0
 20 21  2  0  0  0
 20101  1  0  0  0
 21 23  1  0  0  0
 22 28  1  0  0  0
 22 32  2  0  0  0
 26 27  1  0  0  0
 28102  1  0  0  0
 28103  1  0  0  0
 29104  1  0  0  0
 29105  1  0  0  0
 33 34  1  0  0  0
 33 66  1  0  0  0
 33 70  2  0  0  0
 34 36  1  0  0  0
 34 59  1  0  0  0
 34106  1  0  0  0
 35 44  2  0  0  0
 35 45  1  0  0  0
 35 68  1  0  0  0
 36 56  1  0  0  0
 36107  1  0  0  0
 37 39  1  0  0  0
 37 47  1  0  0  0
 37 66  1  0  0  0
 37108  1  0  0  0
 38 43  2  0  0  0
 38 46  1  0  0  0
 38 47  1  0  0  0
 39 64  1  0  0  0
 39 67  2  0  0  0
 40 52  1  0  0  0
 40 53  2  0  0  0
 40 58  1  0  0  0
 41109  1  0  0  0
 41110  1  0  0  0
 41111  1  0  0  0
 41 48  1  0  0  0
 42 43  1  0  0  0
 42 66  1  0  0  0
 42112  1  0  0  0
 42113  1  0  0  0
 43 44  1  0  0  0
 44114  1  0  0  0
 45 46  2  0  0  0
 45115  1  0  0  0
 46116  1  0  0  0
 47117  1  0  0  0
 47118  1  0  0  0
 48 56  1  0  0  0
 48 65  1  0  0  0
 48119  1  0  0  0
 49 50  1  0  0  0
 49 53  1  0  0  0
 49 64  1  0  0  0
 49120  1  0  0  0
 50 51  1  0  0  0
 50121  1  0  0  0
 50122  1  0  0  0
 51 52  1  0  0  0
 51123  1  0  0  0
 51124  1  0  0  0
 52125  1  0  0  0
 52126  1  0  0  0
 53 54  1  0  0  0
 54 55  2  0  0  0
 54127  1  0  0  0
 55 57  1  0  0  0
 55128  1  0  0  0
 56 69  2  0  0  0
 57 58  2  0  0  0
 57129  1  0  0  0
 58130  1  0  0  0
 59 60  1  0  0  0
 59 61  1  0  0  0
 59 62  1  0  0  0
 60131  1  0  0  0
 60132  1  0  0  0
 60133  1  0  0  0
 61134  1  0  0  0
 61135  1  0  0  0
 61136  1  0  0  0
 62137  1  0  0  0
 62138  1  0  0  0
 62139  1  0  0  0
 63 65  1  0  0  0
 63140  1  0  0  0
 63141  1  0  0  0
 63142  1  0  0  0
 64143  1  0  0  0
 65144  1  0  0  0
 68 81  1  0  0  0
 71 72  1  0  0  0
 71 74  2  0  0  0
 71145  1  0  0  0
 72 73  2  0  0  0
 72 76  1  0  0  0
 73 77  1  0  0  0
 73 85  1  0  0  0
 74 82  1  0  0  0
 74 85  1  0  0  0
 75 81  1  0  0  0
 75 82  1  0  0  0
 75 84  2  0  0  0
 76 83  1  0  0  0
 76146  1  0  0  0
 76147  1  0  0  0
 77 83  1  0  0  0
 77148  1  0  0  0
 77149  1  0  0  0
 78150  1  0  0  0
 78151  1  0  0  0
 78152  1  0  0  0
 78 81  1  0  0  0
 79 81  1  0  0  0
 79153  1  0  0  0
 79154  1  0  0  0
 79155  1  0  0  0
 80156  1  0  0  0
 80157  1  0  0  0
 80 83  1  0  0  0
 82158  1  0  0  0
 83159  1  0  0  0
M  CHG  1  83   1
M  ISO  4   1 100  68 101  80 100  81 101
M  END
> <chiral flag>
0

> <version>
0

> <s_m_source_file>
/data/baiqing/PycharmProjects/Reinvent-master-3.2/result/LINK_invent/BTK/process_docking_weight1_custom_product_contain_oxygen_bond_distance_aromatic_linkinvent_7_9_3/rearranged_h_0145.sdf

> <i_m_source_file_index>
7

> <r_mmod_Potential_Energy-OPLS-2005>
-215.252731323242

> <r_mmod_Stretch_Energy-OPLS-2005>
67.0786590576172

> <r_mmod_Bend_Energy-OPLS-2005>
200.788009643555

> <r_mmod_Torsional_Energy-OPLS-2005>
245.584854125977

> <r_mmod_Improper_Torsional_Energy-OPLS-2005>
2.5473198890686

> <r_mmod_Van_der_Waal_Energy-OPLS-2005>
117.42887878418

> <r_mmod_Electrostatic_Energy-OPLS-2005>
-408.746124267578

> <r_mmod_Solvation_Energy-OPLS-2005>
-471.404083251953

> <b_mmod_Minimization_Converged-OPLS-2005>
0

> <r_mmod_RMS_Derivative-OPLS-2005>
1.10227870941162

$$$$
7
                    3D
 Structure written by MMmdl.
173181  0  0  1  0            999 V2000
  -30.6688  -14.5254   20.6200 C   0  0  0  0  0  0
  -30.4460  -12.3561   19.4257 C   0  0  0  0  0  0
  -29.5020  -12.5246   18.2143 C   0  0  0  0  0  0
  -28.0259  -12.3649   18.6277 C   0  0  0  0  0  0
  -27.6677  -13.2053   19.8809 C   0  0  2  0  0  0
  -28.7093  -12.9735   20.9995 C   0  0  0  0  0  0
  -25.2583  -13.8141   20.5627 C   0  0  0  0  0  0
  -24.1846  -13.0424   20.9162 C   0  0  0  0  0  0
  -24.6414  -11.6898   20.8750 C   0  0  0  0  0  0
  -23.9077  -10.4289   21.0417 C   0  0  0  0  0  0
  -24.3626   -9.4200   21.9198 C   0  0  0  0  0  0
  -23.6297   -8.2241   22.0760 C   0  0  0  0  0  0
  -22.4278   -8.0287   21.3549 C   0  0  0  0  0  0
  -21.9921   -9.0262   20.4651 C   0  0  0  0  0  0
  -22.7255  -10.2137   20.3061 C   0  0  0  0  0  0
  -21.6850   -6.0744   22.5281 C   0  0  0  0  0  0
  -21.4009   -6.5645   23.8218 C   0  0  0  0  0  0
  -21.3652   -5.6797   24.9179 C   0  0  0  0  0  0
  -21.6042   -4.3056   24.7223 C   0  0  0  0  0  0
  -21.8818   -3.8151   23.4344 C   0  0  0  0  0  0
  -21.9193   -4.6976   22.3404 C   0  0  0  0  0  0
  -22.7866  -13.5229   21.1819 C   0  0  0  0  0  0
  -22.1661   -4.2162   21.0979 F   0  0  0  0  0  0
  -21.5627   -3.4537   25.7733 F   0  0  0  0  0  0
  -30.0444  -13.3177   20.4689 N   0  0  0  0  0  0
  -26.3057  -12.9322   20.3382 N   0  0  0  0  0  0
  -25.9348  -11.6484   20.5806 N   0  0  0  0  0  0
  -22.0505  -12.8236   22.0387 N   0  0  0  0  0  0
  -25.4233  -15.1846   20.3926 N   0  0  0  0  0  0
  -31.7165  -14.8135   20.0319 O   0  0  0  0  0  0
  -21.6634   -6.8888   21.4247 O   0  0  0  0  0  0
  -22.3550  -14.5539   20.6677 O   0  0  0  0  0  0
  -24.6218  -31.8644   23.2063 C   0  0  0  0  0  0
  -25.9088  -32.4804   23.8362 C   0  0  1  0  0  0
  -27.2213  -27.3652   20.0959 C   0  0  0  0  0  0
  -25.5934  -33.8606   24.2296 N   0  0  0  0  0  0
  -23.4118  -30.4931   21.5482 C   0  0  2  0  0  0
  -24.8548  -28.9586   20.1115 C   0  0  0  0  0  0
  -22.7450  -29.4666   22.4944 C   0  0  0  0  0  0
  -18.0286  -28.1390   22.8485 C   0  0  0  0  0  0
  -24.1498  -36.7290   23.2641 C   0  0  0  0  0  0
  -25.9509  -30.8087   21.3721 C   0  0  0  0  0  0
  -26.0240  -29.4415   20.7121 C   0  0  0  0  0  0
  -27.2090  -28.6553   20.6984 C   0  0  0  0  0  0
  -26.0225  -26.9266   19.4784 C   0  0  0  0  0  0
  -24.8535  -27.7034   19.4893 C   0  0  0  0  0  0
  -23.6222  -29.8334   20.1617 C   0  0  0  0  0  0
  -25.4122  -36.3098   24.0341 C   0  0  1  0  0  0
  -20.5893  -28.3690   23.1282 C   0  0  2  0  0  0
  -20.6793  -26.9421   22.5399 C   0  0  0  0  0  0
  -19.5768  -26.6391   21.5209 C   0  0  0  0  0  0
  -18.1943  -26.7938   22.1618 C   0  0  0  0  0  0
  -19.1543  -28.8854   23.2889 C   0  0  0  0  0  0
  -18.9474  -30.1461   23.8900 C   0  0  0  0  0  0
  -17.6476  -30.6594   24.0570 C   0  0  0  0  0  0
  -25.9051  -34.9472   23.5109 C   0  0  0  0  0  0
  -16.5365  -29.9098   23.6327 C   0  0  0  0  0  0
  -16.7277  -28.6516   23.0336 C   0  0  0  0  0  0
  -26.4479  -31.6609   25.0722 C   0  0  0  0  0  0
  -25.3715  -31.3738   26.1451 C   0  0  0  0  0  0
  -27.0321  -30.3044   24.6139 C   0  0  0  0  0  0
  -27.6048  -32.4335   25.7484 C   0  0  0  0  0  0
  -27.5590  -37.1802   24.8472 C   0  0  0  0  0  0
  -21.4174  -29.3060   22.3682 N   0  0  0  0  0  0
  -26.4300  -37.3793   23.9415 N   0  0  0  0  0  0
  -24.6801  -31.0705   22.0990 N   0  0  0  0  0  0
  -23.4207  -28.8194   23.2986 O   0  0  0  0  0  0
  -28.3568  -26.5494   20.1322 O   0  0  0  0  0  0
  -26.5609  -34.8943   22.4666 O   0  0  0  0  0  0
  -23.5391  -32.1412   23.7429 O   0  0  0  0  0  0
  -27.4238  -17.9286   21.6750 C   0  0  0  0  0  0
  -28.0672  -19.1137   21.2835 C   0  0  0  0  0  0
  -28.1311  -16.7162   21.6999 C   0  0  0  0  0  0
  -30.1393  -17.8603   20.9195 C   0  0  0  0  0  0
  -29.4181  -19.1032   20.8727 C   0  0  0  0  0  0
  -29.4891  -16.6491   21.3233 C   0  0  0  0  0  0
  -30.0483  -20.4332   20.4993 C   0  0  0  0  0  0
  -31.2658  -20.2040   17.6149 C   0  0  0  0  0  0
  -31.9421  -24.3595   19.8476 C   0  0  0  0  0  0
  -28.4283  -20.4407   18.5024 C   0  0  0  0  0  0
  -29.6157  -24.0706   21.5816 C   0  0  0  0  0  0
  -30.6570  -21.4753   18.2460 C   0  0  0  0  0  0
  -30.5440  -24.5821   19.2370 C   0  0  0  0  0  0
  -28.7509  -22.6523   19.6146 C   0  0  0  0  0  0
  -28.1635  -25.1314   19.8199 C   0  0  0  0  0  0
  -29.5006  -21.2716   19.2725 C   0  0  2  0  0  0
  -29.3250  -24.0811   20.0668 C   0  0  1  0  0  0
  -30.0928  -15.3554   21.5181 N   0  0  0  0  0  0
  -31.0429  -20.8429   21.1020 O   0  0  0  0  0  0
  -31.4833  -12.4981   19.1155 H   0  0  0  0  0  0
  -30.3936  -11.3388   19.8166 H   0  0  0  0  0  0
  -29.7521  -11.7988   17.4394 H   0  0  0  0  0  0
  -29.6502  -13.5096   17.7691 H   0  0  0  0  0  0
  -27.8501  -11.3079   18.8315 H   0  0  0  0  0  0
  -27.3696  -12.6252   17.7969 H   0  0  0  0  0  0
  -27.7155  -14.2550   19.5900 H   0  0  0  0  0  0
  -28.7002  -11.9267   21.3080 H   0  0  0  0  0  0
  -28.4394  -13.5316   21.8957 H   0  0  0  0  0  0
  -25.2772   -9.5668   22.4776 H   0  0  0  0  0  0
  -24.0000   -7.4624   22.7477 H   0  0  0  0  0  0
  -21.0852   -8.8788   19.8952 H   0  0  0  0  0  0
  -22.3729  -10.9680   19.6166 H   0  0  0  0  0  0
  -21.1998   -7.6154   23.9728 H   0  0  0  0  0  0
  -21.1471   -6.0522   25.9083 H   0  0  0  0  0  0
  -22.0604   -2.7616   23.2839 H   0  0  0  0  0  0
  -22.4102  -11.9884   22.4764 H   0  0  0  0  0  0
  -21.1136  -13.1287   22.2598 H   0  0  0  0  0  0
  -24.6513  -15.8347   20.4914 H   0  0  0  0  0  0
  -26.2727  -15.6270   20.0652 H   0  0  0  0  0  0
  -26.7163  -32.5482   23.1120 H   0  0  0  0  0  0
  -25.0125  -33.9749   25.0468 H   0  0  0  0  0  0
  -22.7045  -31.3134   21.4092 H   0  0  0  0  0  0
  -23.3781  -35.9604   23.3299 H   0  0  0  0  0  0
  -24.3580  -36.8886   22.2053 H   0  0  0  0  0  0
  -23.7235  -37.6490   23.6643 H   0  0  0  0  0  0
  -26.0795  -31.5765   20.6081 H   0  0  0  0  0  0
  -26.8328  -30.8516   21.9995 H   0  0  0  0  0  0
  -28.1078  -29.0240   21.1739 H   0  0  0  0  0  0
  -25.9458  -25.9730   18.9799 H   0  0  0  0  0  0
  -23.9574  -27.3276   19.0159 H   0  0  0  0  0  0
  -23.7368  -30.6110   19.4058 H   0  0  0  0  0  0
  -22.7436  -29.2599   19.8598 H   0  0  0  0  0  0
  -25.1304  -36.1949   25.0837 H   0  0  0  0  0  0
  -20.9972  -28.3265   24.1407 H   0  0  0  0  0  0
  -20.5694  -26.2308   23.3593 H   0  0  0  0  0  0
  -21.6664  -26.7462   22.1189 H   0  0  0  0  0  0
  -19.6940  -25.6297   21.1246 H   0  0  0  0  0  0
  -19.6717  -27.3199   20.6738 H   0  0  0  0  0  0
  -17.4212  -26.6678   21.4021 H   0  0  0  0  0  0
  -18.0350  -26.0075   22.9009 H   0  0  0  0  0  0
  -19.7960  -30.7276   24.2263 H   0  0  0  0  0  0
  -17.5042  -31.6267   24.5182 H   0  0  0  0  0  0
  -15.5373  -30.3009   23.7662 H   0  0  0  0  0  0
  -15.8673  -28.0854   22.7033 H   0  0  0  0  0  0
  -24.5903  -30.7071   25.7773 H   0  0  0  0  0  0
  -24.8901  -32.2913   26.4857 H   0  0  0  0  0  0
  -25.8049  -30.8931   27.0232 H   0  0  0  0  0  0
  -26.2886  -29.6802   24.1170 H   0  0  0  0  0  0
  -27.4058  -29.7282   25.4610 H   0  0  0  0  0  0
  -27.8735  -30.4351   23.9329 H   0  0  0  0  0  0
  -27.2666  -33.3643   26.2049 H   0  0  0  0  0  0
  -28.3867  -32.6872   25.0313 H   0  0  0  0  0  0
  -28.0706  -31.8466   26.5406 H   0  0  0  0  0  0
  -28.2607  -38.0101   24.7512 H   0  0  0  0  0  0
  -28.1086  -36.2630   24.6302 H   0  0  0  0  0  0
  -27.2297  -37.1435   25.8870 H   0  0  0  0  0  0
  -20.9336  -29.8783   21.6904 H   0  0  0  0  0  0
  -26.0189  -38.2873   24.1412 H   0  0  0  0  0  0
  -26.3849  -17.9503   21.9739 H   0  0  0  0  0  0
  -27.5105  -20.0412   21.3021 H   0  0  0  0  0  0
  -27.6098  -15.8305   22.0352 H   0  0  0  0  0  0
  -31.1906  -17.8468   20.6654 H   0  0  0  0  0  0
  -32.0928  -20.4705   16.9570 H   0  0  0  0  0  0
  -30.5451  -19.6573   17.0068 H   0  0  0  0  0  0
  -31.6620  -19.5199   18.3650 H   0  0  0  0  0  0
  -32.7188  -24.5445   19.1045 H   0  0  0  0  0  0
  -32.0882  -23.3535   20.2364 H   0  0  0  0  0  0
  -32.1189  -25.0476   20.6747 H   0  0  0  0  0  0
  -28.7115  -19.3968   18.3651 H   0  0  0  0  0  0
  -28.2531  -20.8424   17.5040 H   0  0  0  0  0  0
  -27.4611  -20.4466   19.0032 H   0  0  0  0  0  0
  -30.3762  -23.3380   21.8478 H   0  0  0  0  0  0
  -28.7227  -23.8240   22.1571 H   0  0  0  0  0  0
  -29.9585  -25.0486   21.9232 H   0  0  0  0  0  0
  -30.3095  -22.1115   17.4326 H   0  0  0  0  0  0
  -31.4781  -22.0063   18.7120 H   0  0  0  0  0  0
  -30.4969  -24.1789   18.2274 H   0  0  0  0  0  0
  -30.4635  -25.6590   19.0799 H   0  0  0  0  0  0
  -27.9721  -22.3982   20.3360 H   0  0  0  0  0  0
  -28.1880  -22.8728   18.7070 H   0  0  0  0  0  0
  -27.2908  -24.7770   20.3724 H   0  0  0  0  0  0
  -27.9052  -25.0821   18.7605 H   0  0  0  0  0  0
  -29.5229  -14.7877   22.1246 H   0  0  0  0  0  0
  1 25  1  0  0  0
  1 30  2  0  0  0
  1 88  1  0  0  0
  2  3  1  0  0  0
  2 25  1  0  0  0
  2 90  1  0  0  0
  2 91  1  0  0  0
  3  4  1  0  0  0
  3 92  1  0  0  0
  3 93  1  0  0  0
  4  5  1  0  0  0
  4 94  1  0  0  0
  4 95  1  0  0  0
  5  6  1  0  0  0
  5 26  1  0  0  0
  5 96  1  0  0  0
  6 25  1  0  0  0
  6 97  1  0  0  0
  6 98  1  0  0  0
  7  8  2  0  0  0
  7 26  1  0  0  0
  7 29  1  0  0  0
  8  9  1  0  0  0
  8 22  1  0  0  0
  9 10  1  0  0  0
  9 27  2  0  0  0
 10 11  2  0  0  0
 10 15  1  0  0  0
 11 12  1  0  0  0
 11 99  1  0  0  0
 12 13  2  0  0  0
 12100  1  0  0  0
 13 14  1  0  0  0
 13 31  1  0  0  0
 14 15  2  0  0  0
 14101  1  0  0  0
 15102  1  0  0  0
 16 17  2  0  0  0
 16 21  1  0  0  0
 16 31  1  0  0  0
 17 18  1  0  0  0
 17103  1  0  0  0
 18 19  2  0  0  0
 18104  1  0  0  0
 19 20  1  0  0  0
 19 24  1  0  0  0
 20 21  2  0  0  0
 20105  1  0  0  0
 21 23  1  0  0  0
 22 28  1  0  0  0
 22 32  2  0  0  0
 26 27  1  0  0  0
 28106  1  0  0  0
 28107  1  0  0  0
 29108  1  0  0  0
 29109  1  0  0  0
 33 34  1  0  0  0
 33 66  1  0  0  0
 33 70  2  0  0  0
 34 36  1  0  0  0
 34 59  1  0  0  0
 34110  1  0  0  0
 35 44  2  0  0  0
 35 45  1  0  0  0
 35 68  1  0  0  0
 36 56  1  0  0  0
 36111  1  0  0  0
 37 39  1  0  0  0
 37 47  1  0  0  0
 37 66  1  0  0  0
 37112  1  0  0  0
 38 43  2  0  0  0
 38 46  1  0  0  0
 38 47  1  0  0  0
 39 64  1  0  0  0
 39 67  2  0  0  0
 40 52  1  0  0  0
 40 53  2  0  0  0
 40 58  1  0  0  0
 41113  1  0  0  0
 41114  1  0  0  0
 41115  1  0  0  0
 41 48  1  0  0  0
 42 43  1  0  0  0
 42 66  1  0  0  0
 42116  1  0  0  0
 42117  1  0  0  0
 43 44  1  0  0  0
 44118  1  0  0  0
 45 46  2  0  0  0
 45119  1  0  0  0
 46120  1  0  0  0
 47121  1  0  0  0
 47122  1  0  0  0
 48 56  1  0  0  0
 48 65  1  0  0  0
 48123  1  0  0  0
 49 50  1  0  0  0
 49 53  1  0  0  0
 49 64  1  0  0  0
 49124  1  0  0  0
 50 51  1  0  0  0
 50125  1  0  0  0
 50126  1  0  0  0
 51 52  1  0  0  0
 51127  1  0  0  0
 51128  1  0  0  0
 52129  1  0  0  0
 52130  1  0  0  0
 53 54  1  0  0  0
 54 55  2  0  0  0
 54131  1  0  0  0
 55 57  1  0  0  0
 55132  1  0  0  0
 56 69  2  0  0  0
 57 58  2  0  0  0
 57133  1  0  0  0
 58134  1  0  0  0
 59 60  1  0  0  0
 59 61  1  0  0  0
 59 62  1  0  0  0
 60135  1  0  0  0
 60136  1  0  0  0
 60137  1  0  0  0
 61138  1  0  0  0
 61139  1  0  0  0
 61140  1  0  0  0
 62141  1  0  0  0
 62142  1  0  0  0
 62143  1  0  0  0
 63 65  1  0  0  0
 63144  1  0  0  0
 63145  1  0  0  0
 63146  1  0  0  0
 64147  1  0  0  0
 65148  1  0  0  0
 68 85  1  0  0  0
 71 72  2  0  0  0
 71 73  1  0  0  0
 71149  1  0  0  0
 72 75  1  0  0  0
 72150  1  0  0  0
 73 76  2  0  0  0
 73151  1  0  0  0
 74 75  2  0  0  0
 74 76  1  0  0  0
 74152  1  0  0  0
 75 77  1  0  0  0
 76 88  1  0  0  0
 77 89  2  0  0  0
 77 86  1  0  0  0
 78 82  1  0  0  0
 78153  1  0  0  0
 78154  1  0  0  0
 78155  1  0  0  0
 79 83  1  0  0  0
 79156  1  0  0  0
 79157  1  0  0  0
 79158  1  0  0  0
 80159  1  0  0  0
 80160  1  0  0  0
 80161  1  0  0  0
 80 86  1  0  0  0
 81162  1  0  0  0
 81163  1  0  0  0
 81164  1  0  0  0
 81 87  1  0  0  0
 82 86  1  0  0  0
 82165  1  0  0  0
 82166  1  0  0  0
 83 87  1  0  0  0
 83167  1  0  0  0
 83168  1  0  0  0
 84 86  1  0  0  0
 84 87  1  0  0  0
 84169  1  0  0  0
 84170  1  0  0  0
 85 87  1  0  0  0
 85171  1  0  0  0
 85172  1  0  0  0
 88173  1  0  0  0
M  ISO  4   1 100  68 101  85 101  88 100
M  END
> <chiral flag>
0

> <version>
0

> <s_m_source_file>
/data/baiqing/PycharmProjects/Reinvent-master-3.2/result/LINK_invent/BTK/process_docking_weight1_custom_product_contain_oxygen_bond_distance_aromatic_linkinvent_7_9_3/rearranged_h_0145.sdf

> <i_m_source_file_index>
8

> <r_mmod_Potential_Energy-OPLS-2005>
222.037780761719

> <r_mmod_Stretch_Energy-OPLS-2005>
76.0166397094727

> <r_mmod_Bend_Energy-OPLS-2005>
184.765167236328

> <r_mmod_Torsional_Energy-OPLS-2005>
299.794464111328

> <r_mmod_Improper_Torsional_Energy-OPLS-2005>
7.28932571411133

> <r_mmod_Van_der_Waal_Energy-OPLS-2005>
160.423828125

> <r_mmod_Electrostatic_Energy-OPLS-2005>
-328.743988037109

> <r_mmod_Solvation_Energy-OPLS-2005>
-203.466751098633

> <b_mmod_Minimization_Converged-OPLS-2005>
0

> <r_mmod_RMS_Derivative-OPLS-2005>
1.5816513299942

$$$$
8
                    3D
 Structure written by MMmdl.
161170  0  0  1  0            999 V2000
  -30.6695  -14.5419   20.5204 C   0  0  0  0  0  0
  -30.4259  -12.3352   19.4382 C   0  0  0  0  0  0
  -29.4992  -12.4957   18.2143 C   0  0  0  0  0  0
  -28.0210  -12.3486   18.6266 C   0  0  0  0  0  0
  -27.6554  -13.2097   19.8652 C   0  0  2  0  0  0
  -28.6986  -13.0362   20.9925 C   0  0  0  0  0  0
  -25.2571  -13.8164   20.5674 C   0  0  0  0  0  0
  -24.1829  -13.0439   20.9183 C   0  0  0  0  0  0
  -24.6385  -11.6906   20.8737 C   0  0  0  0  0  0
  -23.9053  -10.4293   21.0405 C   0  0  0  0  0  0
  -24.3608   -9.4208   21.9180 C   0  0  0  0  0  0
  -23.6286   -8.2243   22.0753 C   0  0  0  0  0  0
  -22.4268   -8.0280   21.3545 C   0  0  0  0  0  0
  -21.9900   -9.0252   20.4649 C   0  0  0  0  0  0
  -22.7226  -10.2132   20.3055 C   0  0  0  0  0  0
  -21.6853   -6.0732   22.5278 C   0  0  0  0  0  0
  -21.4016   -6.5637   23.8211 C   0  0  0  0  0  0
  -21.3659   -5.6790   24.9173 C   0  0  0  0  0  0
  -21.6043   -4.3051   24.7223 C   0  0  0  0  0  0
  -21.8820   -3.8145   23.4345 C   0  0  0  0  0  0
  -21.9193   -4.6963   22.3401 C   0  0  0  0  0  0
  -22.7854  -13.5238   21.1848 C   0  0  0  0  0  0
  -22.1660   -4.2148   21.0979 F   0  0  0  0  0  0
  -21.5628   -3.4536   25.7736 F   0  0  0  0  0  0
  -30.0219  -13.3454   20.4301 N   0  0  0  0  0  0
  -26.2995  -12.9333   20.3324 N   0  0  0  0  0  0
  -25.9310  -11.6494   20.5756 N   0  0  0  0  0  0
  -22.0493  -12.8235   22.0406 N   0  0  0  0  0  0
  -25.4287  -15.1884   20.4074 N   0  0  0  0  0  0
  -31.8352  -14.6835   20.1388 O   0  0  0  0  0  0
  -21.6638   -6.8873   21.4239 O   0  0  0  0  0  0
  -22.3540  -14.5544   20.6694 O   0  0  0  0  0  0
  -24.6185  -31.8653   23.2074 C   0  0  0  0  0  0
  -25.9065  -32.4806   23.8378 C   0  0  1  0  0  0
  -27.2335  -27.3932   20.0906 C   0  0  0  0  0  0
  -25.5910  -33.8605   24.2310 N   0  0  0  0  0  0
  -23.4075  -30.4894   21.5491 C   0  0  2  0  0  0
  -24.8518  -28.9502   20.1142 C   0  0  0  0  0  0
  -22.7429  -29.4648   22.4974 C   0  0  0  0  0  0
  -18.0277  -28.1376   22.8488 C   0  0  0  0  0  0
  -24.1487  -36.7308   23.2637 C   0  0  0  0  0  0
  -25.9410  -30.8166   21.3675 C   0  0  0  0  0  0
  -26.0151  -29.4485   20.7121 C   0  0  0  0  0  0
  -27.2041  -28.6764   20.6986 C   0  0  0  0  0  0
  -26.0379  -26.9125   19.5048 C   0  0  0  0  0  0
  -24.8599  -27.6828   19.5104 C   0  0  0  0  0  0
  -23.6171  -29.8232   20.1637 C   0  0  0  0  0  0
  -25.4109  -36.3101   24.0335 C   0  0  1  0  0  0
  -20.5869  -28.3667   23.1307 C   0  0  2  0  0  0
  -20.6765  -26.9398   22.5417 C   0  0  0  0  0  0
  -19.5747  -26.6380   21.5211 C   0  0  0  0  0  0
  -18.1924  -26.7923   22.1619 C   0  0  0  0  0  0
  -19.1527  -28.8838   23.2894 C   0  0  0  0  0  0
  -18.9454  -30.1443   23.8904 C   0  0  0  0  0  0
  -17.6456  -30.6581   24.0562 C   0  0  0  0  0  0
  -25.9040  -34.9468   23.5121 C   0  0  0  0  0  0
  -16.5347  -29.9082   23.6325 C   0  0  0  0  0  0
  -16.7265  -28.6500   23.0344 C   0  0  0  0  0  0
  -26.4480  -31.6597   25.0723 C   0  0  0  0  0  0
  -25.3740  -31.3725   26.1471 C   0  0  0  0  0  0
  -27.0310  -30.3029   24.6131 C   0  0  0  0  0  0
  -27.6050  -32.4324   25.7486 C   0  0  0  0  0  0
  -27.5584  -37.1805   24.8461 C   0  0  0  0  0  0
  -21.4152  -29.3033   22.3714 N   0  0  0  0  0  0
  -26.4292  -37.3789   23.9411 N   0  0  0  0  0  0
  -24.6741  -31.0724   22.0991 N   0  0  0  0  0  0
  -23.4188  -28.8187   23.3026 O   0  0  0  0  0  0
  -28.4098  -26.6532   20.1162 O   0  0  0  0  0  0
  -26.5603  -34.8926   22.4683 O   0  0  0  0  0  0
  -23.5370  -32.1423   23.7450 O   0  0  0  0  0  0
  -31.3852  -17.5907   20.8866 C   0  0  0  0  0  0
  -31.3677  -18.9972   20.6009 C   0  0  0  0  0  0
  -30.1321  -19.4601   20.2063 C   0  0  0  0  0  0
  -30.1830  -16.9425   20.7162 C   0  0  0  0  0  0
  -28.6500  -24.1264   20.0546 C   0  0  0  0  0  0
  -30.2382  -22.2967   17.7595 C   0  0  0  0  0  0
  -28.7942  -22.7925   17.8249 C   0  0  0  0  0  0
  -30.3032  -20.8600   18.2810 C   0  0  0  0  0  0
  -28.5552  -21.4096   19.9808 C   0  0  0  0  0  0
  -28.2906  -22.8110   19.2855 C   0  0  1  0  0  0
  -32.5980  -19.8527   20.6849 C   0  0  0  0  0  0
  -28.5617  -25.4771   19.2785 C   0  0  0  0  0  0
  -29.8452  -20.7419   19.6667 N   0  0  0  0  0  0
  -29.8933  -15.6053   20.8572 N   0  0  0  0  0  0
  -28.9634  -24.1040   21.2495 O   0  0  0  0  0  0
  -28.9625  -18.1413   20.2762 S   0  0  0  0  0  0
  -31.4702  -12.4372   19.1381 H   0  0  0  0  0  0
  -30.3339  -11.3342   19.8623 H   0  0  0  0  0  0
  -29.7492  -11.7557   17.4529 H   0  0  0  0  0  0
  -29.6589  -13.4723   17.7547 H   0  0  0  0  0  0
  -27.8441  -11.2948   18.8448 H   0  0  0  0  0  0
  -27.3689  -12.5970   17.7884 H   0  0  0  0  0  0
  -27.6840  -14.2490   19.5378 H   0  0  0  0  0  0
  -28.6881  -12.0124   21.3694 H   0  0  0  0  0  0
  -28.4596  -13.6691   21.8488 H   0  0  0  0  0  0
  -25.2753   -9.5685   22.4752 H   0  0  0  0  0  0
  -23.9999   -7.4632   22.7468 H   0  0  0  0  0  0
  -21.0832   -8.8768   19.8953 H   0  0  0  0  0  0
  -22.3683  -10.9669   19.6163 H   0  0  0  0  0  0
  -21.2010   -7.6145   23.9712 H   0  0  0  0  0  0
  -21.1480   -6.0521   25.9074 H   0  0  0  0  0  0
  -22.0600   -2.7608   23.2847 H   0  0  0  0  0  0
  -22.4106  -11.9899   22.4801 H   0  0  0  0  0  0
  -21.1112  -13.1268   22.2608 H   0  0  0  0  0  0
  -24.6591  -15.8407   20.5110 H   0  0  0  0  0  0
  -26.2721  -15.6271   20.0612 H   0  0  0  0  0  0
  -26.7131  -32.5499   23.1133 H   0  0  0  0  0  0
  -25.0073  -33.9765   25.0464 H   0  0  0  0  0  0
  -22.6978  -31.3075   21.4099 H   0  0  0  0  0  0
  -23.3750  -35.9640   23.3302 H   0  0  0  0  0  0
  -24.3581  -36.8923   22.2051 H   0  0  0  0  0  0
  -23.7239  -37.6513   23.6651 H   0  0  0  0  0  0
  -26.0631  -31.5826   20.6005 H   0  0  0  0  0  0
  -26.8254  -30.8655   21.9911 H   0  0  0  0  0  0
  -28.1024  -29.0599   21.1623 H   0  0  0  0  0  0
  -25.9709  -25.9333   19.0573 H   0  0  0  0  0  0
  -23.9604  -27.2880   19.0585 H   0  0  0  0  0  0
  -23.7300  -30.5988   19.4053 H   0  0  0  0  0  0
  -22.7387  -29.2478   19.8654 H   0  0  0  0  0  0
  -25.1284  -36.1963   25.0827 H   0  0  0  0  0  0
  -20.9960  -28.3236   24.1427 H   0  0  0  0  0  0
  -20.5662  -26.2274   23.3607 H   0  0  0  0  0  0
  -21.6638  -26.7434   22.1215 H   0  0  0  0  0  0
  -19.6908  -25.6293   21.1236 H   0  0  0  0  0  0
  -19.6689  -27.3194   20.6744 H   0  0  0  0  0  0
  -17.4195  -26.6671   21.4020 H   0  0  0  0  0  0
  -18.0323  -26.0063   22.9012 H   0  0  0  0  0  0
  -19.7932  -30.7256   24.2276 H   0  0  0  0  0  0
  -17.5013  -31.6263   24.5163 H   0  0  0  0  0  0
  -15.5348  -30.2985   23.7647 H   0  0  0  0  0  0
  -15.8665  -28.0823   22.7050 H   0  0  0  0  0  0
  -24.5904  -30.7077   25.7819 H   0  0  0  0  0  0
  -24.8944  -32.2890   26.4917 H   0  0  0  0  0  0
  -25.8089  -30.8899   27.0232 H   0  0  0  0  0  0
  -26.2862  -29.6793   24.1170 H   0  0  0  0  0  0
  -27.4046  -29.7268   25.4608 H   0  0  0  0  0  0
  -27.8716  -30.4332   23.9310 H   0  0  0  0  0  0
  -27.2659  -33.3611   26.2090 H   0  0  0  0  0  0
  -28.3843  -32.6907   25.0304 H   0  0  0  0  0  0
  -28.0737  -31.8436   26.5382 H   0  0  0  0  0  0
  -28.2597  -38.0106   24.7515 H   0  0  0  0  0  0
  -28.1084  -36.2639   24.6269 H   0  0  0  0  0  0
  -27.2307  -37.1437   25.8865 H   0  0  0  0  0  0
  -20.9314  -29.8761   21.6939 H   0  0  0  0  0  0
  -26.0182  -38.2868   24.1415 H   0  0  0  0  0  0
  -32.3013  -17.0988   21.1826 H   0  0  0  0  0  0
  -30.9013  -22.9450   18.3343 H   0  0  0  0  0  0
  -30.5931  -22.3265   16.7280 H   0  0  0  0  0  0
  -28.1586  -22.1270   17.2396 H   0  0  0  0  0  0
  -28.7150  -23.7614   17.3345 H   0  0  0  0  0  0
  -31.3298  -20.5004   18.1943 H   0  0  0  0  0  0
  -29.6984  -20.2084   17.6474 H   0  0  0  0  0  0
  -27.7486  -20.7350   19.6904 H   0  0  0  0  0  0
  -28.4719  -21.5151   21.0639 H   0  0  0  0  0  0
  -27.2050  -22.8944   19.2247 H   0  0  0  0  0  0
  -33.2934  -19.4794   21.4366 H   0  0  0  0  0  0
  -32.3539  -20.8814   20.9517 H   0  0  0  0  0  0
  -33.1257  -19.8759   19.7317 H   0  0  0  0  0  0
  -27.8165  -25.4156   18.4895 H   0  0  0  0  0  0
  -29.5108  -25.5939   18.7552 H   0  0  0  0  0  0
  -28.9305  -15.3763   21.0515 H   0  0  0  0  0  0
  1 25  1  0  0  0
  1 30  2  0  0  0
  1 84  1  0  0  0
  2  3  1  0  0  0
  2 25  1  0  0  0
  2 87  1  0  0  0
  2 88  1  0  0  0
  3  4  1  0  0  0
  3 89  1  0  0  0
  3 90  1  0  0  0
  4  5  1  0  0  0
  4 91  1  0  0  0
  4 92  1  0  0  0
  5  6  1  0  0  0
  5 26  1  0  0  0
  5 93  1  0  0  0
  6 25  1  0  0  0
  6 94  1  0  0  0
  6 95  1  0  0  0
  7  8  2  0  0  0
  7 26  1  0  0  0
  7 29  1  0  0  0
  8  9  1  0  0  0
  8 22  1  0  0  0
  9 10  1  0  0  0
  9 27  2  0  0  0
 10 11  2  0  0  0
 10 15  1  0  0  0
 11 12  1  0  0  0
 11 96  1  0  0  0
 12 13  2  0  0  0
 12 97  1  0  0  0
 13 14  1  0  0  0
 13 31  1  0  0  0
 14 15  2  0  0  0
 14 98  1  0  0  0
 15 99  1  0  0  0
 16 17  2  0  0  0
 16 21  1  0  0  0
 16 31  1  0  0  0
 17 18  1  0  0  0
 17100  1  0  0  0
 18 19  2  0  0  0
 18101  1  0  0  0
 19 20  1  0  0  0
 19 24  1  0  0  0
 20 21  2  0  0  0
 20102  1  0  0  0
 21 23  1  0  0  0
 22 28  1  0  0  0
 22 32  2  0  0  0
 26 27  1  0  0  0
 28103  1  0  0  0
 28104  1  0  0  0
 29105  1  0  0  0
 29106  1  0  0  0
 33 34  1  0  0  0
 33 66  1  0  0  0
 33 70  2  0  0  0
 34 36  1  0  0  0
 34 59  1  0  0  0
 34107  1  0  0  0
 35 44  2  0  0  0
 35 45  1  0  0  0
 35 68  1  0  0  0
 36 56  1  0  0  0
 36108  1  0  0  0
 37 39  1  0  0  0
 37 47  1  0  0  0
 37 66  1  0  0  0
 37109  1  0  0  0
 38 43  2  0  0  0
 38 46  1  0  0  0
 38 47  1  0  0  0
 39 64  1  0  0  0
 39 67  2  0  0  0
 40 52  1  0  0  0
 40 53  2  0  0  0
 40 58  1  0  0  0
 41110  1  0  0  0
 41111  1  0  0  0
 41112  1  0  0  0
 41 48  1  0  0  0
 42 43  1  0  0  0
 42 66  1  0  0  0
 42113  1  0  0  0
 42114  1  0  0  0
 43 44  1  0  0  0
 44115  1  0  0  0
 45 46  2  0  0  0
 45116  1  0  0  0
 46117  1  0  0  0
 47118  1  0  0  0
 47119  1  0  0  0
 48 56  1  0  0  0
 48 65  1  0  0  0
 48120  1  0  0  0
 49 50  1  0  0  0
 49 53  1  0  0  0
 49 64  1  0  0  0
 49121  1  0  0  0
 50 51  1  0  0  0
 50122  1  0  0  0
 50123  1  0  0  0
 51 52  1  0  0  0
 51124  1  0  0  0
 51125  1  0  0  0
 52126  1  0  0  0
 52127  1  0  0  0
 53 54  1  0  0  0
 54 55  2  0  0  0
 54128  1  0  0  0
 55 57  1  0  0  0
 55129  1  0  0  0
 56 69  2  0  0  0
 57 58  2  0  0  0
 57130  1  0  0  0
 58131  1  0  0  0
 59 60  1  0  0  0
 59 61  1  0  0  0
 59 62  1  0  0  0
 60132  1  0  0  0
 60133  1  0  0  0
 60134  1  0  0  0
 61135  1  0  0  0
 61136  1  0  0  0
 61137  1  0  0  0
 62138  1  0  0  0
 62139  1  0  0  0
 62140  1  0  0  0
 63 65  1  0  0  0
 63141  1  0  0  0
 63142  1  0  0  0
 63143  1  0  0  0
 64144  1  0  0  0
 65145  1  0  0  0
 68 82  1  0  0  0
 71 72  1  0  0  0
 71 74  2  0  0  0
 71146  1  0  0  0
 72 73  2  0  0  0
 72 81  1  0  0  0
 73 83  1  0  0  0
 73 86  1  0  0  0
 74 84  1  0  0  0
 74 86  1  0  0  0
 75 82  1  0  0  0
 75 85  2  0  0  0
 75 80  1  0  0  0
 76 77  1  0  0  0
 76 78  1  0  0  0
 76147  1  0  0  0
 76148  1  0  0  0
 77 80  1  0  0  0
 77149  1  0  0  0
 77150  1  0  0  0
 78 83  1  0  0  0
 78151  1  0  0  0
 78152  1  0  0  0
 79 80  1  0  0  0
 79 83  1  0  0  0
 79153  1  0  0  0
 79154  1  0  0  0
 80155  1  0  0  0
 81156  1  0  0  0
 81157  1  0  0  0
 81158  1  0  0  0
 82159  1  0  0  0
 82160  1  0  0  0
 84161  1  0  0  0
M  ISO  4   1 100  68 101  82 101  84 100
M  END
> <chiral flag>
0

> <version>
0

> <s_m_source_file>
/data/baiqing/PycharmProjects/Reinvent-master-3.2/result/LINK_invent/BTK/process_docking_weight1_custom_product_contain_oxygen_bond_distance_aromatic_linkinvent_7_9_3/rearranged_h_0145.sdf

> <i_m_source_file_index>
9

> <r_mmod_Potential_Energy-OPLS-2005>
72.0406875610352

> <r_mmod_Stretch_Energy-OPLS-2005>
51.827953338623

> <r_mmod_Bend_Energy-OPLS-2005>
129.785125732422

> <r_mmod_Torsional_Energy-OPLS-2005>
256.173126220703

> <r_mmod_Improper_Torsional_Energy-OPLS-2005>
9.08266830444336

> <r_mmod_Van_der_Waal_Energy-OPLS-2005>
133.600143432617

> <r_mmod_Electrostatic_Energy-OPLS-2005>
-294.870758056641

> <r_mmod_Solvation_Energy-OPLS-2005>
-236.327911376953

> <b_mmod_Minimization_Converged-OPLS-2005>
0

> <r_mmod_RMS_Derivative-OPLS-2005>
0.514957010746002

$$$$
9
                    3D
 Structure written by MMmdl.
162171  0  0  1  0            999 V2000
  -30.6089  -14.7298   20.4689 C   0  0  0  0  0  0
  -30.4363  -12.4466   19.4664 C   0  0  0  0  0  0
  -29.5098  -12.5049   18.2320 C   0  0  0  0  0  0
  -28.0358  -12.3294   18.6471 C   0  0  0  0  0  0
  -27.6436  -13.2258   19.8515 C   0  0  2  0  0  0
  -28.6891  -13.1476   20.9853 C   0  0  0  0  0  0
  -25.2522  -13.8183   20.5686 C   0  0  0  0  0  0
  -24.1807  -13.0437   20.9211 C   0  0  0  0  0  0
  -24.6389  -11.6912   20.8747 C   0  0  0  0  0  0
  -23.9062  -10.4293   21.0410 C   0  0  0  0  0  0
  -24.3615   -9.4206   21.9185 C   0  0  0  0  0  0
  -23.6292   -8.2240   22.0751 C   0  0  0  0  0  0
  -22.4273   -8.0280   21.3547 C   0  0  0  0  0  0
  -21.9910   -9.0248   20.4646 C   0  0  0  0  0  0
  -22.7236  -10.2132   20.3055 C   0  0  0  0  0  0
  -21.6856   -6.0734   22.5278 C   0  0  0  0  0  0
  -21.4014   -6.5637   23.8211 C   0  0  0  0  0  0
  -21.3657   -5.6793   24.9174 C   0  0  0  0  0  0
  -21.6045   -4.3054   24.7227 C   0  0  0  0  0  0
  -21.8819   -3.8145   23.4349 C   0  0  0  0  0  0
  -21.9191   -4.6960   22.3405 C   0  0  0  0  0  0
  -22.7829  -13.5225   21.1869 C   0  0  0  0  0  0
  -22.1661   -4.2146   21.0983 F   0  0  0  0  0  0
  -21.5628   -3.4539   25.7739 F   0  0  0  0  0  0
  -29.9906  -13.5016   20.4041 N   0  0  0  0  0  0
  -26.2942  -12.9379   20.3277 N   0  0  0  0  0  0
  -25.9317  -11.6527   20.5747 N   0  0  0  0  0  0
  -22.0472  -12.8211   22.0421 N   0  0  0  0  0  0
  -25.4216  -15.1908   20.4092 N   0  0  0  0  0  0
  -31.7999  -14.8336   20.1601 O   0  0  0  0  0  0
  -21.6641   -6.8874   21.4239 O   0  0  0  0  0  0
  -22.3516  -14.5531   20.6714 O   0  0  0  0  0  0
  -24.6320  -31.8552   23.1993 C   0  0  0  0  0  0
  -25.9144  -32.4754   23.8339 C   0  0  1  0  0  0
  -27.2185  -27.2613   20.1267 C   0  0  0  0  0  0
  -25.5936  -33.8557   24.2258 N   0  0  0  0  0  0
  -23.4284  -30.4793   21.5435 C   0  0  2  0  0  0
  -24.8742  -28.9283   20.1112 C   0  0  0  0  0  0
  -22.7508  -29.4602   22.4916 C   0  0  0  0  0  0
  -18.0291  -28.1391   22.8485 C   0  0  0  0  0  0
  -24.1487  -36.7278   23.2639 C   0  0  0  0  0  0
  -25.9754  -30.7686   21.3791 C   0  0  0  0  0  0
  -26.0480  -29.3922   20.7189 C   0  0  0  0  0  0
  -27.2224  -28.5719   20.7147 C   0  0  0  0  0  0
  -26.0184  -26.8684   19.4886 C   0  0  0  0  0  0
  -24.8654  -27.6748   19.4840 C   0  0  0  0  0  0
  -23.6458  -29.8152   20.1590 C   0  0  0  0  0  0
  -25.4116  -36.3066   24.0325 C   0  0  1  0  0  0
  -20.5898  -28.3697   23.1271 C   0  0  2  0  0  0
  -20.6778  -26.9415   22.5409 C   0  0  0  0  0  0
  -19.5748  -26.6385   21.5215 C   0  0  0  0  0  0
  -18.1927  -26.7934   22.1624 C   0  0  0  0  0  0
  -19.1545  -28.8863   23.2871 C   0  0  0  0  0  0
  -18.9465  -30.1466   23.8885 C   0  0  0  0  0  0
  -17.6463  -30.6591   24.0566 C   0  0  0  0  0  0
  -25.9059  -34.9439   23.5095 C   0  0  0  0  0  0
  -16.5353  -29.9083   23.6342 C   0  0  0  0  0  0
  -16.7277  -28.6504   23.0359 C   0  0  0  0  0  0
  -26.4512  -31.6581   25.0729 C   0  0  0  0  0  0
  -25.3732  -31.3740   26.1449 C   0  0  0  0  0  0
  -27.0361  -30.2997   24.6222 C   0  0  0  0  0  0
  -27.6060  -32.4329   25.7504 C   0  0  0  0  0  0
  -27.5581  -37.1793   24.8464 C   0  0  0  0  0  0
  -21.4215  -29.3041   22.3662 N   0  0  0  0  0  0
  -26.4285  -37.3768   23.9414 N   0  0  0  0  0  0
  -24.6979  -31.0523   22.0967 N   0  0  0  0  0  0
  -23.4202  -28.8143   23.3019 O   0  0  0  0  0  0
  -28.3121  -26.3623   20.1893 O   0  0  0  0  0  0
  -26.5632  -34.8911   22.4661 O   0  0  0  0  0  0
  -23.5468  -32.1371   23.7290 O   0  0  0  0  0  0
  -31.3078  -17.8588   20.7738 C   0  0  0  0  0  0
  -31.2988  -19.3089   20.8251 C   0  0  0  0  0  0
  -30.0429  -19.9036   20.7241 C   0  0  0  0  0  0
  -30.0921  -17.2247   20.6572 C   0  0  0  0  0  0
  -29.5545  -23.5666   21.7677 C   0  0  0  0  0  0
  -30.2772  -22.1984   21.8629 C   0  0  0  0  0  0
  -28.8477  -22.1996   19.9728 C   0  0  0  0  0  0
  -29.1835  -23.7483   20.2859 C   0  0  2  0  0  0
  -30.4176  -24.1693   19.4624 C   0  0  0  0  0  0
  -33.0532  -20.7398   19.6953 C   0  0  0  0  0  0
  -32.6120  -20.0293   20.9801 C   0  0  0  0  0  0
  -28.0552  -24.8860   20.0259 C   0  0  0  0  0  0
  -29.6929  -21.3227   20.8463 N   0  0  0  0  0  0
  -29.8052  -15.8470   20.6557 N   0  0  0  0  0  0
  -28.8787  -18.5508   20.5404 S   0  0  0  0  0  0
  -31.4758  -12.5776   19.1612 H   0  0  0  0  0  0
  -30.3848  -11.4669   19.9436 H   0  0  0  0  0  0
  -29.7907  -11.7340   17.5129 H   0  0  0  0  0  0
  -29.6371  -13.4608   17.7211 H   0  0  0  0  0  0
  -27.8921  -11.2801   18.9076 H   0  0  0  0  0  0
  -27.3778  -12.5237   17.7994 H   0  0  0  0  0  0
  -27.6409  -14.2486   19.4747 H   0  0  0  0  0  0
  -28.7224  -12.1452   21.4146 H   0  0  0  0  0  0
  -28.4248  -13.8200   21.8033 H   0  0  0  0  0  0
  -25.2759   -9.5687   22.4757 H   0  0  0  0  0  0
  -24.0006   -7.4633   22.7468 H   0  0  0  0  0  0
  -21.0842   -8.8763   19.8949 H   0  0  0  0  0  0
  -22.3690  -10.9668   19.6160 H   0  0  0  0  0  0
  -21.2006   -7.6145   23.9712 H   0  0  0  0  0  0
  -21.1480   -6.0524   25.9079 H   0  0  0  0  0  0
  -22.0597   -2.7606   23.2850 H   0  0  0  0  0  0
  -22.4095  -11.9876   22.4810 H   0  0  0  0  0  0
  -21.1086  -13.1223   22.2618 H   0  0  0  0  0  0
  -24.6498  -15.8407   20.5143 H   0  0  0  0  0  0
  -26.2595  -15.6301   20.0509 H   0  0  0  0  0  0
  -26.7214  -32.5404   23.1086 H   0  0  0  0  0  0
  -25.0106  -33.9696   25.0419 H   0  0  0  0  0  0
  -22.7247  -31.3022   21.4001 H   0  0  0  0  0  0
  -23.3753  -35.9606   23.3292 H   0  0  0  0  0  0
  -24.3580  -36.8904   22.2054 H   0  0  0  0  0  0
  -23.7231  -37.6470   23.6672 H   0  0  0  0  0  0
  -26.1180  -31.5303   20.6112 H   0  0  0  0  0  0
  -26.8512  -30.8146   22.0151 H   0  0  0  0  0  0
  -28.1201  -28.9211   21.2067 H   0  0  0  0  0  0
  -25.9318  -25.9120   18.9968 H   0  0  0  0  0  0
  -23.9669  -27.3145   19.0013 H   0  0  0  0  0  0
  -23.7707  -30.5921   19.4034 H   0  0  0  0  0  0
  -22.7630  -29.2497   19.8545 H   0  0  0  0  0  0
  -25.1298  -36.1911   25.0818 H   0  0  0  0  0  0
  -20.9996  -28.3270   24.1390 H   0  0  0  0  0  0
  -20.5684  -26.2306   23.3612 H   0  0  0  0  0  0
  -21.6648  -26.7443   22.1206 H   0  0  0  0  0  0
  -19.6908  -25.6293   21.1251 H   0  0  0  0  0  0
  -19.6687  -27.3196   20.6747 H   0  0  0  0  0  0
  -17.4210  -26.6696   21.4015 H   0  0  0  0  0  0
  -18.0314  -26.0073   22.9016 H   0  0  0  0  0  0
  -19.7938  -30.7294   24.2237 H   0  0  0  0  0  0
  -17.5017  -31.6269   24.5168 H   0  0  0  0  0  0
  -15.5353  -30.2982   23.7675 H   0  0  0  0  0  0
  -15.8677  -28.0824   22.7074 H   0  0  0  0  0  0
  -24.5910  -30.7078   25.7789 H   0  0  0  0  0  0
  -24.8920  -32.2913   26.4858 H   0  0  0  0  0  0
  -25.8047  -30.8937   27.0242 H   0  0  0  0  0  0
  -26.2951  -29.6737   24.1242 H   0  0  0  0  0  0
  -27.4033  -29.7269   25.4745 H   0  0  0  0  0  0
  -27.8833  -30.4270   23.9481 H   0  0  0  0  0  0
  -27.2672  -33.3646   26.2051 H   0  0  0  0  0  0
  -28.3890  -32.6855   25.0343 H   0  0  0  0  0  0
  -28.0712  -31.8474   26.5444 H   0  0  0  0  0  0
  -28.2592  -38.0098   24.7528 H   0  0  0  0  0  0
  -28.1078  -36.2626   24.6268 H   0  0  0  0  0  0
  -27.2305  -37.1427   25.8868 H   0  0  0  0  0  0
  -20.9400  -29.8755   21.6864 H   0  0  0  0  0  0
  -26.0156  -38.2837   24.1417 H   0  0  0  0  0  0
  -32.2421  -17.3221   20.8548 H   0  0  0  0  0  0
  -30.1629  -24.3851   22.1554 H   0  0  0  0  0  0
  -28.6443  -23.5332   22.3690 H   0  0  0  0  0  0
  -30.2009  -21.7686   22.8630 H   0  0  0  0  0  0
  -31.3312  -22.3629   21.6485 H   0  0  0  0  0  0
  -28.9963  -21.9625   18.9182 H   0  0  0  0  0  0
  -27.8001  -21.9945   20.1992 H   0  0  0  0  0  0
  -31.2726  -23.5183   19.6323 H   0  0  0  0  0  0
  -30.7300  -25.1837   19.7115 H   0  0  0  0  0  0
  -30.1996  -24.1458   18.3945 H   0  0  0  0  0  0
  -34.0073  -21.2472   19.8387 H   0  0  0  0  0  0
  -32.3233  -21.4849   19.3831 H   0  0  0  0  0  0
  -33.1743  -20.0290   18.8771 H   0  0  0  0  0  0
  -33.3933  -19.3198   21.2547 H   0  0  0  0  0  0
  -32.5864  -20.7209   21.8184 H   0  0  0  0  0  0
  -27.1906  -24.6300   20.6410 H   0  0  0  0  0  0
  -27.7376  -24.7418   18.9931 H   0  0  0  0  0  0
  -28.8302  -15.6183   20.7751 H   0  0  0  0  0  0
  1 25  1  0  0  0
  1 30  2  0  0  0
  1 84  1  0  0  0
  2  3  1  0  0  0
  2 25  1  0  0  0
  2 86  1  0  0  0
  2 87  1  0  0  0
  3  4  1  0  0  0
  3 88  1  0  0  0
  3 89  1  0  0  0
  4  5  1  0  0  0
  4 90  1  0  0  0
  4 91  1  0  0  0
  5  6  1  0  0  0
  5 26  1  0  0  0
  5 92  1  0  0  0
  6 25  1  0  0  0
  6 93  1  0  0  0
  6 94  1  0  0  0
  7  8  2  0  0  0
  7 26  1  0  0  0
  7 29  1  0  0  0
  8  9  1  0  0  0
  8 22  1  0  0  0
  9 10  1  0  0  0
  9 27  2  0  0  0
 10 11  2  0  0  0
 10 15  1  0  0  0
 11 12  1  0  0  0
 11 95  1  0  0  0
 12 13  2  0  0  0
 12 96  1  0  0  0
 13 14  1  0  0  0
 13 31  1  0  0  0
 14 15  2  0  0  0
 14 97  1  0  0  0
 15 98  1  0  0  0
 16 17  2  0  0  0
 16 21  1  0  0  0
 16 31  1  0  0  0
 17 18  1  0  0  0
 17 99  1  0  0  0
 18 19  2  0  0  0
 18100  1  0  0  0
 19 20  1  0  0  0
 19 24  1  0  0  0
 20 21  2  0  0  0
 20101  1  0  0  0
 21 23  1  0  0  0
 22 28  1  0  0  0
 22 32  2  0  0  0
 26 27  1  0  0  0
 28102  1  0  0  0
 28103  1  0  0  0
 29104  1  0  0  0
 29105  1  0  0  0
 33 34  1  0  0  0
 33 66  1  0  0  0
 33 70  2  0  0  0
 34 36  1  0  0  0
 34 59  1  0  0  0
 34106  1  0  0  0
 35 44  2  0  0  0
 35 45  1  0  0  0
 35 68  1  0  0  0
 36 56  1  0  0  0
 36107  1  0  0  0
 37 39  1  0  0  0
 37 47  1  0  0  0
 37 66  1  0  0  0
 37108  1  0  0  0
 38 43  2  0  0  0
 38 46  1  0  0  0
 38 47  1  0  0  0
 39 64  1  0  0  0
 39 67  2  0  0  0
 40 52  1  0  0  0
 40 53  2  0  0  0
 40 58  1  0  0  0
 41109  1  0  0  0
 41110  1  0  0  0
 41111  1  0  0  0
 41 48  1  0  0  0
 42 43  1  0  0  0
 42 66  1  0  0  0
 42112  1  0  0  0
 42113  1  0  0  0
 43 44  1  0  0  0
 44114  1  0  0  0
 45 46  2  0  0  0
 45115  1  0  0  0
 46116  1  0  0  0
 47117  1  0  0  0
 47118  1  0  0  0
 48 56  1  0  0  0
 48 65  1  0  0  0
 48119  1  0  0  0
 49 50  1  0  0  0
 49 53  1  0  0  0
 49 64  1  0  0  0
 49120  1  0  0  0
 50 51  1  0  0  0
 50121  1  0  0  0
 50122  1  0  0  0
 51 52  1  0  0  0
 51123  1  0  0  0
 51124  1  0  0  0
 52125  1  0  0  0
 52126  1  0  0  0
 53 54  1  0  0  0
 54 55  2  0  0  0
 54127  1  0  0  0
 55 57  1  0  0  0
 55128  1  0  0  0
 56 69  2  0  0  0
 57 58  2  0  0  0
 57129  1  0  0  0
 58130  1  0  0  0
 59 60  1  0  0  0
 59 61  1  0  0  0
 59 62  1  0  0  0
 60131  1  0  0  0
 60132  1  0  0  0
 60133  1  0  0  0
 61134  1  0  0  0
 61135  1  0  0  0
 61136  1  0  0  0
 62137  1  0  0  0
 62138  1  0  0  0
 62139  1  0  0  0
 63 65  1  0  0  0
 63140  1  0  0  0
 63141  1  0  0  0
 63142  1  0  0  0
 64143  1  0  0  0
 65144  1  0  0  0
 68 82  1  0  0  0
 71 72  1  0  0  0
 71 74  2  0  0  0
 71145  1  0  0  0
 72 73  2  0  0  0
 72 81  1  0  0  0
 73 83  1  0  0  0
 73 85  1  0  0  0
 74 84  1  0  0  0
 74 85  1  0  0  0
 75 76  1  0  0  0
 75 78  1  0  0  0
 75146  1  0  0  0
 75147  1  0  0  0
 76 83  1  0  0  0
 76148  1  0  0  0
 76149  1  0  0  0
 77 78  1  0  0  0
 77 83  1  0  0  0
 77150  1  0  0  0
 77151  1  0  0  0
 78 79  1  0  0  0
 78 82  1  0  0  0
 79152  1  0  0  0
 79153  1  0  0  0
 79154  1  0  0  0
 80 81  1  0  0  0
 80155  1  0  0  0
 80156  1  0  0  0
 80157  1  0  0  0
 81158  1  0  0  0
 81159  1  0  0  0
 82160  1  0  0  0
 82161  1  0  0  0
 84162  1  0  0  0
M  ISO  4   1 100  68 101  82 101  84 100
M  END
> <chiral flag>
0

> <version>
0

> <s_m_source_file>
/data/baiqing/PycharmProjects/Reinvent-master-3.2/result/LINK_invent/BTK/process_docking_weight1_custom_product_contain_oxygen_bond_distance_aromatic_linkinvent_7_9_3/rearranged_h_0145.sdf

> <i_m_source_file_index>
10

> <r_mmod_Potential_Energy-OPLS-2005>
266.779205322266

> <r_mmod_Stretch_Energy-OPLS-2005>
113.053909301758

> <r_mmod_Bend_Energy-OPLS-2005>
211.345123291016

> <r_mmod_Torsional_Energy-OPLS-2005>
295.686126708984

> <r_mmod_Improper_Torsional_Energy-OPLS-2005>
5.58704614639282

> <r_mmod_Van_der_Waal_Energy-OPLS-2005>
117.327033996582

> <r_mmod_Electrostatic_Energy-OPLS-2005>
-346.076965332031

> <r_mmod_Solvation_Energy-OPLS-2005>
-212.49089050293

> <b_mmod_Minimization_Converged-OPLS-2005>
0

> <r_mmod_RMS_Derivative-OPLS-2005>
1.00713980197906

$$$$
10
                    3D
 Structure written by MMmdl.
158167  0  0  1  0            999 V2000
  -30.7856  -14.4022   20.5742 C   0  0  0  0  0  0
  -30.3954  -12.2705   19.4186 C   0  0  0  0  0  0
  -29.4801  -12.4865   18.2012 C   0  0  0  0  0  0
  -28.0055  -12.3563   18.6244 C   0  0  0  0  0  0
  -27.6574  -13.2116   19.8717 C   0  0  2  0  0  0
  -28.7025  -13.0218   20.9951 C   0  0  0  0  0  0
  -25.2564  -13.8177   20.5715 C   0  0  0  0  0  0
  -24.1815  -13.0437   20.9187 C   0  0  0  0  0  0
  -24.6385  -11.6908   20.8744 C   0  0  0  0  0  0
  -23.9040  -10.4290   21.0408 C   0  0  0  0  0  0
  -24.3600   -9.4200   21.9166 C   0  0  0  0  0  0
  -23.6281   -8.2240   22.0728 C   0  0  0  0  0  0
  -22.4260   -8.0285   21.3536 C   0  0  0  0  0  0
  -21.9903   -9.0248   20.4631 C   0  0  0  0  0  0
  -22.7222  -10.2127   20.3046 C   0  0  0  0  0  0
  -21.6847   -6.0730   22.5275 C   0  0  0  0  0  0
  -21.4007   -6.5637   23.8212 C   0  0  0  0  0  0
  -21.3658   -5.6786   24.9174 C   0  0  0  0  0  0
  -21.6046   -4.3050   24.7222 C   0  0  0  0  0  0
  -21.8818   -3.8142   23.4345 C   0  0  0  0  0  0
  -21.9194   -4.6957   22.3403 C   0  0  0  0  0  0
  -22.7846  -13.5229   21.1849 C   0  0  0  0  0  0
  -22.1662   -4.2143   21.0980 F   0  0  0  0  0  0
  -21.5632   -3.4539   25.7739 F   0  0  0  0  0  0
  -30.0355  -13.2798   20.4276 N   0  0  0  0  0  0
  -26.3000  -12.9353   20.3403 N   0  0  0  0  0  0
  -25.9308  -11.6507   20.5784 N   0  0  0  0  0  0
  -22.0509  -12.8212   22.0418 N   0  0  0  0  0  0
  -25.4342  -15.1890   20.4149 N   0  0  0  0  0  0
  -31.9090  -14.4886   20.0886 O   0  0  0  0  0  0
  -21.6642   -6.8872   21.4229 O   0  0  0  0  0  0
  -22.3545  -14.5548   20.6718 O   0  0  0  0  0  0
  -24.6095  -31.8691   23.2129 C   0  0  0  0  0  0
  -25.9002  -32.4818   23.8408 C   0  0  1  0  0  0
  -27.2254  -27.4529   20.0768 C   0  0  0  0  0  0
  -25.5883  -33.8625   24.2341 N   0  0  0  0  0  0
  -23.3943  -30.4930   21.5565 C   0  0  2  0  0  0
  -24.8353  -28.9634   20.1217 C   0  0  0  0  0  0
  -22.7378  -29.4638   22.5052 C   0  0  0  0  0  0
  -18.0290  -28.1313   22.8492 C   0  0  0  0  0  0
  -24.1496  -36.7331   23.2637 C   0  0  0  0  0  0
  -25.9243  -30.8383   21.3664 C   0  0  0  0  0  0
  -25.9990  -29.4767   20.7074 C   0  0  0  0  0  0
  -27.1980  -28.7315   20.6748 C   0  0  0  0  0  0
  -26.0345  -26.9455   19.5128 C   0  0  0  0  0  0
  -24.8467  -27.6933   19.5253 C   0  0  0  0  0  0
  -23.6006  -29.8297   20.1708 C   0  0  0  0  0  0
  -25.4113  -36.3124   24.0343 C   0  0  1  0  0  0
  -20.5847  -28.3597   23.1356 C   0  0  2  0  0  0
  -20.6775  -26.9351   22.5416 C   0  0  0  0  0  0
  -19.5732  -26.6334   21.5207 C   0  0  0  0  0  0
  -18.1942  -26.7816   22.1694 C   0  0  0  0  0  0
  -19.1508  -28.8793   23.2907 C   0  0  0  0  0  0
  -18.9417  -30.1418   23.8882 C   0  0  0  0  0  0
  -17.6411  -30.6548   24.0527 C   0  0  0  0  0  0
  -25.9030  -34.9489   23.5133 C   0  0  0  0  0  0
  -16.5323  -29.9012   23.6300 C   0  0  0  0  0  0
  -16.7282  -28.6436   23.0314 C   0  0  0  0  0  0
  -26.4452  -31.6592   25.0736 C   0  0  0  0  0  0
  -25.3747  -31.3683   26.1497 C   0  0  0  0  0  0
  -27.0269  -30.3030   24.6140 C   0  0  0  0  0  0
  -27.6019  -32.4324   25.7482 C   0  0  0  0  0  0
  -27.5592  -37.1825   24.8480 C   0  0  0  0  0  0
  -21.4112  -29.2975   22.3784 N   0  0  0  0  0  0
  -26.4315  -37.3800   23.9411 N   0  0  0  0  0  0
  -24.6611  -31.0795   22.1043 N   0  0  0  0  0  0
  -23.4167  -28.8185   23.3082 O   0  0  0  0  0  0
  -28.4277  -26.7612   20.0559 O   0  0  0  0  0  0
  -26.5601  -34.8940   22.4713 O   0  0  0  0  0  0
  -23.5298  -32.1450   23.7562 O   0  0  0  0  0  0
  -31.5918  -19.6317   19.8418 C   0  0  0  0  0  0
  -30.4131  -20.4164   19.8178 C   0  0  0  0  0  0
  -29.0484  -18.7355   21.0852 C   0  0  0  0  0  0
  -31.4465  -18.4264   20.5197 C   0  0  0  0  0  0
  -30.2260  -17.9824   21.1158 C   0  0  0  0  0  0
  -29.1806  -19.9982   20.4325 C   0  0  0  0  0  0
  -28.1257  -22.1832   20.5420 C   0  0  0  0  0  0
  -32.2011  -17.1899   20.8908 C   0  0  0  0  0  0
  -30.8459  -16.6993   21.6355 C   0  0  2  0  0  0
  -27.1893  -23.0751   19.7237 C   0  0  0  0  0  0
  -27.9517  -24.2296   19.0193 C   0  0  0  0  0  0
  -28.5126  -25.3182   19.9843 C   0  0  0  0  0  0
  -28.0603  -20.8582   20.3339 N   0  0  0  0  0  0
  -30.2133  -15.4366   21.2056 N   0  0  0  0  0  0
  -28.9017  -22.6880   21.3585 O   0  0  0  0  0  0
  -31.4438  -12.3120   19.1161 H   0  0  0  0  0  0
  -30.2535  -11.2696   19.8293 H   0  0  0  0  0  0
  -29.7101  -11.7616   17.4204 H   0  0  0  0  0  0
  -29.6541  -13.4724   17.7717 H   0  0  0  0  0  0
  -27.8207  -11.3020   18.8361 H   0  0  0  0  0  0
  -27.3484  -12.6123   17.7940 H   0  0  0  0  0  0
  -27.6963  -14.2554   19.5580 H   0  0  0  0  0  0
  -28.6672  -12.0027   21.3849 H   0  0  0  0  0  0
  -28.4781  -13.6668   21.8448 H   0  0  0  0  0  0
  -25.2741   -9.5683   22.4738 H   0  0  0  0  0  0
  -23.9994   -7.4636   22.7446 H   0  0  0  0  0  0
  -21.0838   -8.8754   19.8948 H   0  0  0  0  0  0
  -22.3668  -10.9656   19.6161 H   0  0  0  0  0  0
  -21.1998   -7.6144   23.9703 H   0  0  0  0  0  0
  -21.1479   -6.0528   25.9075 H   0  0  0  0  0  0
  -22.0604   -2.7603   23.2851 H   0  0  0  0  0  0
  -22.4141  -11.9871   22.4784 H   0  0  0  0  0  0
  -21.1121  -13.1211   22.2628 H   0  0  0  0  0  0
  -24.6752  -15.8517   20.5324 H   0  0  0  0  0  0
  -26.2978  -15.6244   20.1161 H   0  0  0  0  0  0
  -26.7046  -32.5526   23.1141 H   0  0  0  0  0  0
  -25.0043  -33.9805   25.0484 H   0  0  0  0  0  0
  -22.6781  -31.3077   21.4214 H   0  0  0  0  0  0
  -23.3746  -35.9677   23.3324 H   0  0  0  0  0  0
  -24.3568  -36.8932   22.2048 H   0  0  0  0  0  0
  -23.7269  -37.6562   23.6619 H   0  0  0  0  0  0
  -26.0470  -31.6097   20.6021 H   0  0  0  0  0  0
  -26.8082  -30.8795   21.9901 H   0  0  0  0  0  0
  -28.1030  -29.1307   21.1126 H   0  0  0  0  0  0
  -25.9949  -25.9760   19.0518 H   0  0  0  0  0  0
  -23.9491  -27.2863   19.0774 H   0  0  0  0  0  0
  -23.7125  -30.6087   19.4149 H   0  0  0  0  0  0
  -22.7266  -29.2499   19.8690 H   0  0  0  0  0  0
  -25.1273  -36.2007   25.0833 H   0  0  0  0  0  0
  -20.9944  -28.3140   24.1480 H   0  0  0  0  0  0
  -20.5658  -26.2206   23.3592 H   0  0  0  0  0  0
  -21.6648  -26.7401   22.1247 H   0  0  0  0  0  0
  -19.6616  -27.3174   20.6764 H   0  0  0  0  0  0
  -19.6906  -25.6231   21.1211 H   0  0  0  0  0  0
  -17.4105  -26.6370   21.4203 H   0  0  0  0  0  0
  -18.0538  -26.0022   22.9188 H   0  0  0  0  0  0
  -19.7859  -30.7309   24.2246 H   0  0  0  0  0  0
  -17.4911  -31.6233   24.5120 H   0  0  0  0  0  0
  -15.5322  -30.2875   23.7607 H   0  0  0  0  0  0
  -15.8676  -28.0715   22.7100 H   0  0  0  0  0  0
  -24.5877  -30.7065   25.7851 H   0  0  0  0  0  0
  -24.8969  -32.2828   26.5026 H   0  0  0  0  0  0
  -25.8123  -30.8800   27.0207 H   0  0  0  0  0  0
  -26.2797  -29.6788   24.1207 H   0  0  0  0  0  0
  -27.4024  -29.7274   25.4608 H   0  0  0  0  0  0
  -27.8658  -30.4318   23.9292 H   0  0  0  0  0  0
  -27.2599  -33.3581   26.2119 H   0  0  0  0  0  0
  -28.3777  -32.6964   25.0283 H   0  0  0  0  0  0
  -28.0733  -31.8428   26.5352 H   0  0  0  0  0  0
  -28.2619  -38.0106   24.7475 H   0  0  0  0  0  0
  -28.1070  -36.2631   24.6334 H   0  0  0  0  0  0
  -27.2309  -37.1536   25.8888 H   0  0  0  0  0  0
  -20.9280  -29.8660   21.6974 H   0  0  0  0  0  0
  -26.0216  -38.2893   24.1373 H   0  0  0  0  0  0
  -32.5165  -19.9422   19.3733 H   0  0  0  0  0  0
  -30.4580  -21.3683   19.3075 H   0  0  0  0  0  0
  -28.1292  -18.3981   21.5450 H   0  0  0  0  0  0
  -33.0477  -17.3990   21.5466 H   0  0  0  0  0  0
  -32.5047  -16.7319   19.9521 H   0  0  0  0  0  0
  -30.9638  -16.7619   22.7177 H   0  0  0  0  0  0
  -26.3836  -23.4514   20.3560 H   0  0  0  0  0  0
  -26.6990  -22.4721   18.9619 H   0  0  0  0  0  0
  -27.3134  -24.6322   18.2316 H   0  0  0  0  0  0
  -28.7905  -23.7878   18.4730 H   0  0  0  0  0  0
  -27.6361  -25.2719   20.6246 H   0  0  0  0  0  0
  -28.7410  -25.7799   19.0210 H   0  0  0  0  0  0
  -27.2391  -20.4898   19.8708 H   0  0  0  0  0  0
  -29.2664  -15.2912   21.5165 H   0  0  0  0  0  0
  1 25  1  0  0  0
  1 30  2  0  0  0
  1 84  1  0  0  0
  2  3  1  0  0  0
  2 25  1  0  0  0
  2 86  1  0  0  0
  2 87  1  0  0  0
  3  4  1  0  0  0
  3 88  1  0  0  0
  3 89  1  0  0  0
  4  5  1  0  0  0
  4 90  1  0  0  0
  4 91  1  0  0  0
  5  6  1  0  0  0
  5 26  1  0  0  0
  5 92  1  0  0  0
  6 25  1  0  0  0
  6 93  1  0  0  0
  6 94  1  0  0  0
  7  8  2  0  0  0
  7 26  1  0  0  0
  7 29  1  0  0  0
  8  9  1  0  0  0
  8 22  1  0  0  0
  9 10  1  0  0  0
  9 27  2  0  0  0
 10 11  2  0  0  0
 10 15  1  0  0  0
 11 12  1  0  0  0
 11 95  1  0  0  0
 12 13  2  0  0  0
 12 96  1  0  0  0
 13 14  1  0  0  0
 13 31  1  0  0  0
 14 15  2  0  0  0
 14 97  1  0  0  0
 15 98  1  0  0  0
 16 17  2  0  0  0
 16 21  1  0  0  0
 16 31  1  0  0  0
 17 18  1  0  0  0
 17 99  1  0  0  0
 18 19  2  0  0  0
 18100  1  0  0  0
 19 20  1  0  0  0
 19 24  1  0  0  0
 20 21  2  0  0  0
 20101  1  0  0  0
 21 23  1  0  0  0
 22 28  1  0  0  0
 22 32  2  0  0  0
 26 27  1  0  0  0
 28102  1  0  0  0
 28103  1  0  0  0
 29104  1  0  0  0
 29105  1  0  0  0
 33 34  1  0  0  0
 33 66  1  0  0  0
 33 70  2  0  0  0
 34 36  1  0  0  0
 34 59  1  0  0  0
 34106  1  0  0  0
 35 44  2  0  0  0
 35 45  1  0  0  0
 35 68  1  0  0  0
 36 56  1  0  0  0
 36107  1  0  0  0
 37 39  1  0  0  0
 37 47  1  0  0  0
 37 66  1  0  0  0
 37108  1  0  0  0
 38 43  2  0  0  0
 38 46  1  0  0  0
 38 47  1  0  0  0
 39 64  1  0  0  0
 39 67  2  0  0  0
 40 52  1  0  0  0
 40 53  2  0  0  0
 40 58  1  0  0  0
 41109  1  0  0  0
 41110  1  0  0  0
 41111  1  0  0  0
 41 48  1  0  0  0
 42 43  1  0  0  0
 42 66  1  0  0  0
 42112  1  0  0  0
 42113  1  0  0  0
 43 44  1  0  0  0
 44114  1  0  0  0
 45 46  2  0  0  0
 45115  1  0  0  0
 46116  1  0  0  0
 47117  1  0  0  0
 47118  1  0  0  0
 48 56  1  0  0  0
 48 65  1  0  0  0
 48119  1  0  0  0
 49 50  1  0  0  0
 49 53  1  0  0  0
 49 64  1  0  0  0
 49120  1  0  0  0
 50 51  1  0  0  0
 50121  1  0  0  0
 50122  1  0  0  0
 51 52  1  0  0  0
 51123  1  0  0  0
 51124  1  0  0  0
 52125  1  0  0  0
 52126  1  0  0  0
 53 54  1  0  0  0
 54 55  2  0  0  0
 54127  1  0  0  0
 55 57  1  0  0  0
 55128  1  0  0  0
 56 69  2  0  0  0
 57 58  2  0  0  0
 57129  1  0  0  0
 58130  1  0  0  0
 59 60  1  0  0  0
 59 61  1  0  0  0
 59 62  1  0  0  0
 60131  1  0  0  0
 60132  1  0  0  0
 60133  1  0  0  0
 61134  1  0  0  0
 61135  1  0  0  0
 61136  1  0  0  0
 62137  1  0  0  0
 62138  1  0  0  0
 62139  1  0  0  0
 63 65  1  0  0  0
 63140  1  0  0  0
 63141  1  0  0  0
 63142  1  0  0  0
 64143  1  0  0  0
 65144  1  0  0  0
 68 82  1  0  0  0
 71 72  2  0  0  0
 71 74  1  0  0  0
 71145  1  0  0  0
 72 76  1  0  0  0
 72146  1  0  0  0
 73 75  1  0  0  0
 73 76  2  0  0  0
 73147  1  0  0  0
 74 75  2  0  0  0
 74 78  1  0  0  0
 75 79  1  0  0  0
 76 83  1  0  0  0
 77 80  1  0  0  0
 77 83  1  0  0  0
 77 85  2  0  0  0
 78 79  1  0  0  0
 78148  1  0  0  0
 78149  1  0  0  0
 79 84  1  0  0  0
 79150  1  0  0  0
 80 81  1  0  0  0
 80151  1  0  0  0
 80152  1  0  0  0
 81 82  1  0  0  0
 81153  1  0  0  0
 81154  1  0  0  0
 82155  1  0  0  0
 82156  1  0  0  0
 83157  1  0  0  0
 84158  1  0  0  0
M  ISO  4   1 100  68 101  82 101  84 100
M  END
> <chiral flag>
0

> <version>
0

> <s_m_source_file>
/data/baiqing/PycharmProjects/Reinvent-master-3.2/result/LINK_invent/BTK/process_docking_weight1_custom_product_contain_oxygen_bond_distance_aromatic_linkinvent_7_9_3/rearranged_h_0145.sdf

> <i_m_source_file_index>
11

> <r_mmod_Potential_Energy-OPLS-2005>
505.259307861328

> <r_mmod_Stretch_Energy-OPLS-2005>
56.833137512207

> <r_mmod_Bend_Energy-OPLS-2005>
710.039367675781

> <r_mmod_Torsional_Energy-OPLS-2005>
241.755981445312

> <r_mmod_Improper_Torsional_Energy-OPLS-2005>
2.84887218475342

> <r_mmod_Van_der_Waal_Energy-OPLS-2005>
185.588607788086

> <r_mmod_Electrostatic_Energy-OPLS-2005>
-468.996246337891

> <r_mmod_Solvation_Energy-OPLS-2005>
-238.024337768555

> <b_mmod_Minimization_Converged-OPLS-2005>
0

> <r_mmod_RMS_Derivative-OPLS-2005>
4.00867176055908

$$$$
11
                    3D
 Structure written by MMmdl.
165174  0  0  1  0            999 V2000
  -30.6236  -14.6560   20.4583 C   0  0  0  0  0  0
  -30.4278  -12.3841   19.4793 C   0  0  0  0  0  0
  -29.5174  -12.5039   18.2365 C   0  0  0  0  0  0
  -28.0328  -12.3666   18.6315 C   0  0  0  0  0  0
  -27.6514  -13.2302   19.8639 C   0  0  2  0  0  0
  -28.6910  -13.1030   21.0003 C   0  0  0  0  0  0
  -25.2534  -13.8200   20.5686 C   0  0  0  0  0  0
  -24.1805  -13.0455   20.9182 C   0  0  0  0  0  0
  -24.6397  -11.6930   20.8746 C   0  0  0  0  0  0
  -23.9087  -10.4304   21.0428 C   0  0  0  0  0  0
  -24.3628   -9.4211   21.9203 C   0  0  0  0  0  0
  -23.6292   -8.2251   22.0760 C   0  0  0  0  0  0
  -22.4275   -8.0295   21.3550 C   0  0  0  0  0  0
  -21.9922   -9.0282   20.4657 C   0  0  0  0  0  0
  -22.7266  -10.2147   20.3074 C   0  0  0  0  0  0
  -21.6852   -6.0739   22.5277 C   0  0  0  0  0  0
  -21.4013   -6.5637   23.8207 C   0  0  0  0  0  0
  -21.3649   -5.6784   24.9168 C   0  0  0  0  0  0
  -21.6040   -4.3049   24.7207 C   0  0  0  0  0  0
  -21.8817   -3.8150   23.4329 C   0  0  0  0  0  0
  -21.9192   -4.6975   22.3389 C   0  0  0  0  0  0
  -22.7828  -13.5251   21.1843 C   0  0  0  0  0  0
  -22.1662   -4.2167   21.0965 F   0  0  0  0  0  0
  -21.5631   -3.4526   25.7718 F   0  0  0  0  0  0
  -30.0094  -13.4290   20.4385 N   0  0  0  0  0  0
  -26.2968  -12.9405   20.3305 N   0  0  0  0  0  0
  -25.9330  -11.6553   20.5751 N   0  0  0  0  0  0
  -22.0451  -12.8267   22.0410 N   0  0  0  0  0  0
  -25.4267  -15.1919   20.4123 N   0  0  0  0  0  0
  -31.7879  -14.7867   20.0677 O   0  0  0  0  0  0
  -21.6639   -6.8891   21.4240 O   0  0  0  0  0  0
  -22.3526  -14.5570   20.6700 O   0  0  0  0  0  0
  -24.6279  -31.8584   23.2034 C   0  0  0  0  0  0
  -25.9128  -32.4764   23.8362 C   0  0  1  0  0  0
  -27.2204  -27.3132   20.1101 C   0  0  0  0  0  0
  -25.5935  -33.8564   24.2274 N   0  0  0  0  0  0
  -23.4211  -30.4838   21.5457 C   0  0  2  0  0  0
  -24.8667  -28.9423   20.1078 C   0  0  0  0  0  0
  -22.7481  -29.4613   22.4932 C   0  0  0  0  0  0
  -18.0290  -28.1385   22.8483 C   0  0  0  0  0  0
  -24.1482  -36.7281   23.2638 C   0  0  0  0  0  0
  -25.9637  -30.7872   21.3764 C   0  0  0  0  0  0
  -26.0370  -29.4156   20.7147 C   0  0  0  0  0  0
  -27.2171  -28.6122   20.7071 C   0  0  0  0  0  0
  -26.0298  -26.9027   19.4679 C   0  0  0  0  0  0
  -24.8659  -27.6914   19.4743 C   0  0  0  0  0  0
  -23.6353  -29.8217   20.1598 C   0  0  0  0  0  0
  -25.4105  -36.3057   24.0320 C   0  0  1  0  0  0
  -20.5888  -28.3684   23.1278 C   0  0  2  0  0  0
  -20.6776  -26.9407   22.5402 C   0  0  0  0  0  0
  -19.5749  -26.6385   21.5207 C   0  0  0  0  0  0
  -18.1932  -26.7936   22.1618 C   0  0  0  0  0  0
  -19.1546  -28.8854   23.2878 C   0  0  0  0  0  0
  -18.9464  -30.1461   23.8896 C   0  0  0  0  0  0
  -17.6465  -30.6587   24.0561 C   0  0  0  0  0  0
  -25.9048  -34.9434   23.5090 C   0  0  0  0  0  0
  -16.5355  -29.9082   23.6335 C   0  0  0  0  0  0
  -16.7277  -28.6499   23.0354 C   0  0  0  0  0  0
  -26.4517  -31.6581   25.0737 C   0  0  0  0  0  0
  -25.3761  -31.3722   26.1470 C   0  0  0  0  0  0
  -27.0361  -30.3000   24.6203 C   0  0  0  0  0  0
  -27.6069  -32.4324   25.7510 C   0  0  0  0  0  0
  -27.5562  -37.1793   24.8462 C   0  0  0  0  0  0
  -21.4190  -29.3038   22.3668 N   0  0  0  0  0  0
  -26.4273  -37.3758   23.9405 N   0  0  0  0  0  0
  -24.6895  -31.0603   22.0979 N   0  0  0  0  0  0
  -23.4203  -28.8147   23.3007 O   0  0  0  0  0  0
  -28.3256  -26.4454   20.1669 O   0  0  0  0  0  0
  -26.5612  -34.8903   22.4653 O   0  0  0  0  0  0
  -23.5443  -32.1379   23.7365 O   0  0  0  0  0  0
  -29.1199  -19.2326   18.3157 C   0  0  0  0  0  0
  -29.4235  -16.8220   18.6028 C   0  0  0  0  0  0
  -29.6572  -18.3317   20.5068 C   0  0  0  0  0  0
  -29.1258  -17.9276   17.7835 C   0  0  0  0  0  0
  -29.3973  -19.4921   19.6787 C   0  0  0  0  0  0
  -29.6956  -16.9803   19.9804 C   0  0  0  0  0  0
  -28.3964  -22.7324   21.5173 C   0  0  0  0  0  0
  -30.1490  -23.2976   19.7976 C   0  0  0  0  0  0
  -28.1887  -21.3635   20.7781 C   0  0  0  0  0  0
  -29.8290  -21.9007   19.1664 C   0  0  0  0  0  0
  -29.0874  -23.9380   20.7588 C   0  0  0  0  0  0
  -28.7797  -17.7257   16.3211 C   0  0  0  0  0  0
  -29.8509  -24.7592   21.8236 C   0  0  0  0  0  0
  -28.0727  -24.9792   20.0798 C   0  0  0  0  0  0
  -29.4131  -20.8641   20.1391 N   0  0  0  0  0  0
  -29.8594  -15.7548   20.7736 N   0  0  0  0  0  0
  -31.4775  -12.4755   19.1950 H   0  0  0  0  0  0
  -30.3284  -11.3966   19.9318 H   0  0  0  0  0  0
  -29.7798  -11.7456   17.4978 H   0  0  0  0  0  0
  -29.6833  -13.4664   17.7506 H   0  0  0  0  0  0
  -27.8405  -11.3132   18.8402 H   0  0  0  0  0  0
  -27.3984  -12.6275   17.7834 H   0  0  0  0  0  0
  -27.6662  -14.2664   19.5267 H   0  0  0  0  0  0
  -28.6916  -12.0906   21.4043 H   0  0  0  0  0  0
  -28.4387  -13.7575   21.8363 H   0  0  0  0  0  0
  -25.2761   -9.5670   22.4795 H   0  0  0  0  0  0
  -23.9983   -7.4626   22.7466 H   0  0  0  0  0  0
  -21.0850   -8.8833   19.8953 H   0  0  0  0  0  0
  -22.3748  -10.9704   19.6189 H   0  0  0  0  0  0
  -21.2013   -7.6144   23.9708 H   0  0  0  0  0  0
  -21.1475   -6.0519   25.9068 H   0  0  0  0  0  0
  -22.0614   -2.7613   23.2826 H   0  0  0  0  0  0
  -22.4034  -11.9920   22.4804 H   0  0  0  0  0  0
  -21.1085  -13.1341   22.2628 H   0  0  0  0  0  0
  -24.6599  -15.8480   20.5121 H   0  0  0  0  0  0
  -26.2788  -15.6290   20.0855 H   0  0  0  0  0  0
  -26.7195  -32.5430   23.1111 H   0  0  0  0  0  0
  -25.0091  -33.9715   25.0422 H   0  0  0  0  0  0
  -22.7151  -31.3046   21.4043 H   0  0  0  0  0  0
  -23.3731  -35.9628   23.3308 H   0  0  0  0  0  0
  -24.3571  -36.8903   22.2051 H   0  0  0  0  0  0
  -23.7265  -37.6491   23.6670 H   0  0  0  0  0  0
  -26.0999  -31.5541   20.6127 H   0  0  0  0  0  0
  -26.8413  -30.8319   22.0094 H   0  0  0  0  0  0
  -28.1122  -28.9678   21.1974 H   0  0  0  0  0  0
  -25.9725  -25.9517   18.9611 H   0  0  0  0  0  0
  -23.9713  -27.3264   18.9883 H   0  0  0  0  0  0
  -23.7536  -30.5993   19.4039 H   0  0  0  0  0  0
  -22.7554  -29.2508   19.8570 H   0  0  0  0  0  0
  -25.1289  -36.1890   25.0813 H   0  0  0  0  0  0
  -20.9988  -28.3260   24.1395 H   0  0  0  0  0  0
  -20.5675  -26.2292   23.3598 H   0  0  0  0  0  0
  -21.6646  -26.7436   22.1200 H   0  0  0  0  0  0
  -19.6906  -25.6297   21.1240 H   0  0  0  0  0  0
  -19.6688  -27.3191   20.6735 H   0  0  0  0  0  0
  -17.4197  -26.6685   21.4022 H   0  0  0  0  0  0
  -18.0326  -26.0080   22.9013 H   0  0  0  0  0  0
  -19.7941  -30.7279   24.2258 H   0  0  0  0  0  0
  -17.5018  -31.6273   24.5158 H   0  0  0  0  0  0
  -15.5355  -30.2977   23.7670 H   0  0  0  0  0  0
  -15.8678  -28.0818   22.7071 H   0  0  0  0  0  0
  -24.5929  -30.7073   25.7811 H   0  0  0  0  0  0
  -24.8974  -32.2895   26.4910 H   0  0  0  0  0  0
  -25.8107  -30.8895   27.0235 H   0  0  0  0  0  0
  -26.2934  -29.6743   24.1238 H   0  0  0  0  0  0
  -27.4058  -29.7265   25.4715 H   0  0  0  0  0  0
  -27.8810  -30.4270   23.9429 H   0  0  0  0  0  0
  -27.2662  -33.3610   26.2101 H   0  0  0  0  0  0
  -28.3878  -32.6908   25.0345 H   0  0  0  0  0  0
  -28.0743  -31.8453   26.5425 H   0  0  0  0  0  0
  -28.2582  -38.0082   24.7487 H   0  0  0  0  0  0
  -28.1052  -36.2618   24.6304 H   0  0  0  0  0  0
  -27.2287  -37.1467   25.8866 H   0  0  0  0  0  0
  -20.9361  -29.8761   21.6884 H   0  0  0  0  0  0
  -26.0141  -38.2822   24.1420 H   0  0  0  0  0  0
  -28.8811  -20.0387   17.6371 H   0  0  0  0  0  0
  -29.4013  -15.8322   18.1684 H   0  0  0  0  0  0
  -29.8423  -18.4837   21.5605 H   0  0  0  0  0  0
  -28.9990  -22.4867   22.3930 H   0  0  0  0  0  0
  -27.4431  -23.0564   21.9363 H   0  0  0  0  0  0
  -30.3842  -24.0047   19.0013 H   0  0  0  0  0  0
  -31.0861  -23.1717   20.3405 H   0  0  0  0  0  0
  -27.4069  -21.4741   20.0232 H   0  0  0  0  0  0
  -27.8209  -20.6189   21.4868 H   0  0  0  0  0  0
  -30.7081  -21.5528   18.6206 H   0  0  0  0  0  0
  -29.0443  -22.0418   18.4210 H   0  0  0  0  0  0
  -29.3873  -18.3729   15.6872 H   0  0  0  0  0  0
  -27.7309  -17.9712   16.1485 H   0  0  0  0  0  0
  -28.9414  -16.6962   16.0000 H   0  0  0  0  0  0
  -30.5495  -24.1449   22.3930 H   0  0  0  0  0  0
  -29.1660  -25.2175   22.5385 H   0  0  0  0  0  0
  -30.4356  -25.5579   21.3658 H   0  0  0  0  0  0
  -27.1078  -24.7984   20.5530 H   0  0  0  0  0  0
  -27.9351  -24.7107   19.0323 H   0  0  0  0  0  0
  -29.0503  -15.5245   21.3305 H   0  0  0  0  0  0
  1 25  1  0  0  0
  1 30  2  0  0  0
  1 86  1  0  0  0
  2  3  1  0  0  0
  2 25  1  0  0  0
  2 87  1  0  0  0
  2 88  1  0  0  0
  3  4  1  0  0  0
  3 89  1  0  0  0
  3 90  1  0  0  0
  4  5  1  0  0  0
  4 91  1  0  0  0
  4 92  1  0  0  0
  5  6  1  0  0  0
  5 26  1  0  0  0
  5 93  1  0  0  0
  6 25  1  0  0  0
  6 94  1  0  0  0
  6 95  1  0  0  0
  7  8  2  0  0  0
  7 26  1  0  0  0
  7 29  1  0  0  0
  8  9  1  0  0  0
  8 22  1  0  0  0
  9 10  1  0  0  0
  9 27  2  0  0  0
 10 11  2  0  0  0
 10 15  1  0  0  0
 11 12  1  0  0  0
 11 96  1  0  0  0
 12 13  2  0  0  0
 12 97  1  0  0  0
 13 14  1  0  0  0
 13 31  1  0  0  0
 14 15  2  0  0  0
 14 98  1  0  0  0
 15 99  1  0  0  0
 16 17  2  0  0  0
 16 21  1  0  0  0
 16 31  1  0  0  0
 17 18  1  0  0  0
 17100  1  0  0  0
 18 19  2  0  0  0
 18101  1  0  0  0
 19 20  1  0  0  0
 19 24  1  0  0  0
 20 21  2  0  0  0
 20102  1  0  0  0
 21 23  1  0  0  0
 22 28  1  0  0  0
 22 32  2  0  0  0
 26 27  1  0  0  0
 28103  1  0  0  0
 28104  1  0  0  0
 29105  1  0  0  0
 29106  1  0  0  0
 33 34  1  0  0  0
 33 66  1  0  0  0
 33 70  2  0  0  0
 34 36  1  0  0  0
 34 59  1  0  0  0
 34107  1  0  0  0
 35 44  2  0  0  0
 35 45  1  0  0  0
 35 68  1  0  0  0
 36 56  1  0  0  0
 36108  1  0  0  0
 37 39  1  0  0  0
 37 47  1  0  0  0
 37 66  1  0  0  0
 37109  1  0  0  0
 38 43  2  0  0  0
 38 46  1  0  0  0
 38 47  1  0  0  0
 39 64  1  0  0  0
 39 67  2  0  0  0
 40 52  1  0  0  0
 40 53  2  0  0  0
 40 58  1  0  0  0
 41110  1  0  0  0
 41111  1  0  0  0
 41112  1  0  0  0
 41 48  1  0  0  0
 42 43  1  0  0  0
 42 66  1  0  0  0
 42113  1  0  0  0
 42114  1  0  0  0
 43 44  1  0  0  0
 44115  1  0  0  0
 45 46  2  0  0  0
 45116  1  0  0  0
 46117  1  0  0  0
 47118  1  0  0  0
 47119  1  0  0  0
 48 56  1  0  0  0
 48 65  1  0  0  0
 48120  1  0  0  0
 49 50  1  0  0  0
 49 53  1  0  0  0
 49 64  1  0  0  0
 49121  1  0  0  0
 50 51  1  0  0  0
 50122  1  0  0  0
 50123  1  0  0  0
 51 52  1  0  0  0
 51124  1  0  0  0
 51125  1  0  0  0
 52126  1  0  0  0
 52127  1  0  0  0
 53 54  1  0  0  0
 54 55  2  0  0  0
 54128  1  0  0  0
 55 57  1  0  0  0
 55129  1  0  0  0
 56 69  2  0  0  0
 57 58  2  0  0  0
 57130  1  0  0  0
 58131  1  0  0  0
 59 60  1  0  0  0
 59 61  1  0  0  0
 59 62  1  0  0  0
 60132  1  0  0  0
 60133  1  0  0  0
 60134  1  0  0  0
 61135  1  0  0  0
 61136  1  0  0  0
 61137  1  0  0  0
 62138  1  0  0  0
 62139  1  0  0  0
 62140  1  0  0  0
 63 65  1  0  0  0
 63141  1  0  0  0
 63142  1  0  0  0
 63143  1  0  0  0
 64144  1  0  0  0
 65145  1  0  0  0
 68 84  1  0  0  0
 71 74  2  0  0  0
 71 75  1  0  0  0
 71146  1  0  0  0
 72 74  1  0  0  0
 72 76  2  0  0  0
 72147  1  0  0  0
 73 75  2  0  0  0
 73 76  1  0  0  0
 73148  1  0  0  0
 74 82  1  0  0  0
 75 85  1  0  0  0
 76 86  1  0  0  0
 77 79  1  0  0  0
 77 81  1  0  0  0
 77149  1  0  0  0
 77150  1  0  0  0
 78 80  1  0  0  0
 78 81  1  0  0  0
 78151  1  0  0  0
 78152  1  0  0  0
 79 85  1  0  0  0
 79153  1  0  0  0
 79154  1  0  0  0
 80 85  1  0  0  0
 80155  1  0  0  0
 80156  1  0  0  0
 81 83  1  0  0  0
 81 84  1  0  0  0
 82157  1  0  0  0
 82158  1  0  0  0
 82159  1  0  0  0
 83160  1  0  0  0
 83161  1  0  0  0
 83162  1  0  0  0
 84163  1  0  0  0
 84164  1  0  0  0
 86165  1  0  0  0
M  ISO  4   1 100  68 101  84 101  86 100
M  END
> <chiral flag>
0

> <version>
0

> <s_m_source_file>
/data/baiqing/PycharmProjects/Reinvent-master-3.2/result/LINK_invent/BTK/process_docking_weight1_custom_product_contain_oxygen_bond_distance_aromatic_linkinvent_7_9_3/rearranged_h_0145.sdf

> <i_m_source_file_index>
12

> <r_mmod_Potential_Energy-OPLS-2005>
213.985321044922

> <r_mmod_Stretch_Energy-OPLS-2005>
90.9838943481445

> <r_mmod_Bend_Energy-OPLS-2005>
151.637405395508

> <r_mmod_Torsional_Energy-OPLS-2005>
320.032501220703

> <r_mmod_Improper_Torsional_Energy-OPLS-2005>
11.4445352554321

> <r_mmod_Van_der_Waal_Energy-OPLS-2005>
153.851654052734

> <r_mmod_Electrostatic_Energy-OPLS-2005>
-345.831359863281

> <r_mmod_Solvation_Energy-OPLS-2005>
-222.698623657227

> <b_mmod_Minimization_Converged-OPLS-2005>
0

> <r_mmod_RMS_Derivative-OPLS-2005>
2.1479868888855

$$$$
12
                    3D
 Structure written by MMmdl.
158167  0  0  1  0            999 V2000
  -30.7101  -14.4239   20.5134 C   0  0  0  0  0  0
  -30.4152  -12.2598   19.4268 C   0  0  0  0  0  0
  -29.4934  -12.4764   18.2073 C   0  0  0  0  0  0
  -28.0112  -12.3586   18.6134 C   0  0  0  0  0  0
  -27.6612  -13.1997   19.8707 C   0  0  2  0  0  0
  -28.7016  -12.9804   20.9949 C   0  0  0  0  0  0
  -25.2615  -13.8154   20.5684 C   0  0  0  0  0  0
  -24.1854  -13.0440   20.9182 C   0  0  0  0  0  0
  -24.6386  -11.6904   20.8740 C   0  0  0  0  0  0
  -23.9060  -10.4289   21.0420 C   0  0  0  0  0  0
  -24.3625   -9.4190   21.9175 C   0  0  0  0  0  0
  -23.6296   -8.2227   22.0746 C   0  0  0  0  0  0
  -22.4270   -8.0277   21.3542 C   0  0  0  0  0  0
  -21.9920   -9.0252   20.4642 C   0  0  0  0  0  0
  -22.7249  -10.2128   20.3055 C   0  0  0  0  0  0
  -21.6845   -6.0736   22.5279 C   0  0  0  0  0  0
  -21.4011   -6.5643   23.8213 C   0  0  0  0  0  0
  -21.3653   -5.6790   24.9175 C   0  0  0  0  0  0
  -21.6041   -4.3054   24.7226 C   0  0  0  0  0  0
  -21.8817   -3.8144   23.4349 C   0  0  0  0  0  0
  -21.9190   -4.6965   22.3402 C   0  0  0  0  0  0
  -22.7873  -13.5254   21.1841 C   0  0  0  0  0  0
  -22.1668   -4.2160   21.0976 F   0  0  0  0  0  0
  -21.5622   -3.4525   25.7730 F   0  0  0  0  0  0
  -30.0389  -13.2491   20.4440 N   0  0  0  0  0  0
  -26.3022  -12.9298   20.3345 N   0  0  0  0  0  0
  -25.9308  -11.6467   20.5760 N   0  0  0  0  0  0
  -22.0502  -12.8240   22.0392 N   0  0  0  0  0  0
  -25.4402  -15.1862   20.4108 N   0  0  0  0  0  0
  -31.8869  -14.5602   20.1650 O   0  0  0  0  0  0
  -21.6622   -6.8887   21.4242 O   0  0  0  0  0  0
  -22.3571  -14.5559   20.6693 O   0  0  0  0  0  0
  -24.6107  -31.8713   23.2121 C   0  0  0  0  0  0
  -25.9007  -32.4849   23.8413 C   0  0  1  0  0  0
  -27.2412  -27.4870   20.0853 C   0  0  0  0  0  0
  -25.5873  -33.8644   24.2343 N   0  0  0  0  0  0
  -23.3962  -30.4937   21.5530 C   0  0  2  0  0  0
  -24.8419  -28.9607   20.1193 C   0  0  0  0  0  0
  -22.7395  -29.4668   22.5020 C   0  0  0  0  0  0
  -18.0269  -28.1360   22.8482 C   0  0  0  0  0  0
  -24.1475  -36.7334   23.2640 C   0  0  0  0  0  0
  -25.9187  -30.8538   21.3537 C   0  0  0  0  0  0
  -25.9985  -29.4896   20.7047 C   0  0  0  0  0  0
  -27.2035  -28.7605   20.6819 C   0  0  0  0  0  0
  -26.0695  -26.9524   19.5055 C   0  0  0  0  0  0
  -24.8686  -27.6873   19.5215 C   0  0  0  0  0  0
  -23.6012  -29.8224   20.1682 C   0  0  0  0  0  0
  -25.4093  -36.3131   24.0345 C   0  0  1  0  0  0
  -20.5856  -28.3642   23.1321 C   0  0  2  0  0  0
  -20.6753  -26.9382   22.5414 C   0  0  0  0  0  0
  -19.5742  -26.6374   21.5199 C   0  0  0  0  0  0
  -18.1922  -26.7905   22.1618 C   0  0  0  0  0  0
  -19.1518  -28.8819   23.2897 C   0  0  0  0  0  0
  -18.9455  -30.1420   23.8916 C   0  0  0  0  0  0
  -17.6460  -30.6570   24.0568 C   0  0  0  0  0  0
  -25.9020  -34.9493   23.5145 C   0  0  0  0  0  0
  -16.5347  -29.9080   23.6316 C   0  0  0  0  0  0
  -16.7259  -28.6494   23.0338 C   0  0  0  0  0  0
  -26.4445  -31.6621   25.0730 C   0  0  0  0  0  0
  -25.3734  -31.3726   26.1505 C   0  0  0  0  0  0
  -27.0266  -30.3079   24.6060 C   0  0  0  0  0  0
  -27.6029  -32.4343   25.7477 C   0  0  0  0  0  0
  -27.5582  -37.1810   24.8458 C   0  0  0  0  0  0
  -21.4131  -29.3015   22.3746 N   0  0  0  0  0  0
  -26.4284  -37.3809   23.9418 N   0  0  0  0  0  0
  -24.6604  -31.0854   22.0999 N   0  0  0  0  0  0
  -23.4179  -28.8224   23.3062 O   0  0  0  0  0  0
  -28.4246  -26.7987   20.0642 O   0  0  0  0  0  0
  -26.5586  -34.8936   22.4710 O   0  0  0  0  0  0
  -23.5307  -32.1434   23.7547 O   0  0  0  0  0  0
  -30.3036  -17.6174   17.6071 C   0  0  0  0  0  0
  -29.8766  -18.8665   18.0826 C   0  0  0  0  0  0
  -30.3279  -16.5099   18.4738 C   0  0  0  0  0  0
  -29.5030  -17.8839   20.3169 C   0  0  0  0  0  0
  -29.4769  -18.9808   19.4296 C   0  0  0  0  0  0
  -29.9435  -16.6316   19.8379 C   0  0  0  0  0  0
  -29.0144  -20.2871   19.8965 C   0  0  0  0  0  0
  -28.4548  -24.3751   19.8481 C   0  0  0  0  0  0
  -29.8270  -20.9451   20.9787 C   0  0  0  0  0  0
  -29.8647  -22.4524   20.7030 C   0  0  0  0  0  0
  -28.4294  -22.9879   20.5093 C   0  0  2  0  0  0
  -28.4017  -25.5759   20.7949 C   0  0  0  0  0  0
  -28.0006  -20.8468   19.3249 N   0  0  0  0  0  0
  -27.5553  -22.0842   19.7192 N   0  0  0  0  0  0
  -29.9361  -15.5026   20.7077 N   0  0  0  0  0  0
  -28.5022  -24.5330   18.6216 O   0  0  0  0  0  0
  -31.4608  -12.3453   19.1266 H   0  0  0  0  0  0
  -30.3013  -11.2493   19.8245 H   0  0  0  0  0  0
  -29.7273  -11.7484   17.4296 H   0  0  0  0  0  0
  -29.6753  -13.4573   17.7662 H   0  0  0  0  0  0
  -27.8080  -11.3045   18.8043 H   0  0  0  0  0  0
  -27.3695  -12.6416   17.7777 H   0  0  0  0  0  0
  -27.7049  -14.2460   19.5688 H   0  0  0  0  0  0
  -28.6565  -11.9503   21.3553 H   0  0  0  0  0  0
  -28.4858  -13.6094   21.8593 H   0  0  0  0  0  0
  -25.2784   -9.5633   22.4744 H   0  0  0  0  0  0
  -23.9986   -7.4611   22.7465 H   0  0  0  0  0  0
  -21.0848   -8.8786   19.8955 H   0  0  0  0  0  0
  -22.3728  -10.9674   19.6165 H   0  0  0  0  0  0
  -21.2013   -7.6147   23.9740 H   0  0  0  0  0  0
  -21.1481   -6.0508   25.9086 H   0  0  0  0  0  0
  -22.0604   -2.7607   23.2837 H   0  0  0  0  0  0
  -22.4122  -11.9906   22.4777 H   0  0  0  0  0  0
  -21.1117  -13.1260   22.2608 H   0  0  0  0  0  0
  -24.6851  -15.8506   20.5403 H   0  0  0  0  0  0
  -26.2910  -15.6153   20.0701 H   0  0  0  0  0  0
  -26.7097  -32.5572   23.1203 H   0  0  0  0  0  0
  -25.0018  -33.9808   25.0483 H   0  0  0  0  0  0
  -22.6833  -31.3093   21.4145 H   0  0  0  0  0  0
  -23.3731  -35.9674   23.3307 H   0  0  0  0  0  0
  -24.3576  -36.8940   22.2056 H   0  0  0  0  0  0
  -23.7228  -37.6544   23.6644 H   0  0  0  0  0  0
  -26.0196  -31.6175   20.5806 H   0  0  0  0  0  0
  -26.8118  -30.9132   21.9643 H   0  0  0  0  0  0
  -28.1034  -29.1734   21.1169 H   0  0  0  0  0  0
  -26.0868  -25.9838   19.0273 H   0  0  0  0  0  0
  -23.9770  -27.2741   19.0698 H   0  0  0  0  0  0
  -23.7105  -30.5959   19.4076 H   0  0  0  0  0  0
  -22.7252  -29.2420   19.8734 H   0  0  0  0  0  0
  -25.1263  -36.2010   25.0837 H   0  0  0  0  0  0
  -20.9945  -28.3193   24.1442 H   0  0  0  0  0  0
  -20.5633  -26.2252   23.3596 H   0  0  0  0  0  0
  -21.6628  -26.7409   22.1224 H   0  0  0  0  0  0
  -19.6905  -25.6295   21.1206 H   0  0  0  0  0  0
  -19.6681  -27.3200   20.6743 H   0  0  0  0  0  0
  -17.4187  -26.6636   21.4026 H   0  0  0  0  0  0
  -18.0340  -26.0042   22.9015 H   0  0  0  0  0  0
  -19.7934  -30.7216   24.2305 H   0  0  0  0  0  0
  -17.5018  -31.6246   24.5177 H   0  0  0  0  0  0
  -15.5347  -30.2995   23.7620 H   0  0  0  0  0  0
  -15.8658  -28.0817   22.7046 H   0  0  0  0  0  0
  -24.5872  -30.7112   25.7853 H   0  0  0  0  0  0
  -24.8972  -32.2888   26.5004 H   0  0  0  0  0  0
  -25.8102  -30.8857   27.0232 H   0  0  0  0  0  0
  -26.2790  -29.6860   24.1131 H   0  0  0  0  0  0
  -27.4084  -29.7298   25.4480 H   0  0  0  0  0  0
  -27.8593  -30.4437   23.9159 H   0  0  0  0  0  0
  -27.2649  -33.3622   26.2104 H   0  0  0  0  0  0
  -28.3799  -32.6949   25.0279 H   0  0  0  0  0  0
  -28.0746  -31.8451   26.5353 H   0  0  0  0  0  0
  -28.2592  -38.0117   24.7528 H   0  0  0  0  0  0
  -28.1083  -36.2650   24.6244 H   0  0  0  0  0  0
  -27.2307  -37.1416   25.8862 H   0  0  0  0  0  0
  -20.9303  -29.8731   21.6956 H   0  0  0  0  0  0
  -26.0181  -38.2886   24.1437 H   0  0  0  0  0  0
  -30.6037  -17.4999   16.5740 H   0  0  0  0  0  0
  -29.8526  -19.7225   17.4209 H   0  0  0  0  0  0
  -30.6434  -15.5642   18.0604 H   0  0  0  0  0  0
  -29.1837  -18.0036   21.3438 H   0  0  0  0  0  0
  -30.8483  -20.5603   20.9685 H   0  0  0  0  0  0
  -29.4089  -20.7168   21.9584 H   0  0  0  0  0  0
  -30.4605  -22.6344   19.8063 H   0  0  0  0  0  0
  -30.3696  -22.9775   21.5153 H   0  0  0  0  0  0
  -27.9745  -23.0846   21.4960 H   0  0  0  0  0  0
  -29.2660  -25.5432   21.4578 H   0  0  0  0  0  0
  -27.5124  -25.4990   21.4227 H   0  0  0  0  0  0
  -26.9281  -22.5601   19.0689 H   0  0  0  0  0  0
  -29.0828  -15.3529   21.2258 H   0  0  0  0  0  0
  1 25  1  0  0  0
  1 30  2  0  0  0
  1 85  1  0  0  0
  2  3  1  0  0  0
  2 25  1  0  0  0
  2 87  1  0  0  0
  2 88  1  0  0  0
  3  4  1  0  0  0
  3 89  1  0  0  0
  3 90  1  0  0  0
  4  5  1  0  0  0
  4 91  1  0  0  0
  4 92  1  0  0  0
  5  6  1  0  0  0
  5 26  1  0  0  0
  5 93  1  0  0  0
  6 25  1  0  0  0
  6 94  1  0  0  0
  6 95  1  0  0  0
  7  8  2  0  0  0
  7 26  1  0  0  0
  7 29  1  0  0  0
  8  9  1  0  0  0
  8 22  1  0  0  0
  9 10  1  0  0  0
  9 27  2  0  0  0
 10 11  2  0  0  0
 10 15  1  0  0  0
 11 12  1  0  0  0
 11 96  1  0  0  0
 12 13  2  0  0  0
 12 97  1  0  0  0
 13 14  1  0  0  0
 13 31  1  0  0  0
 14 15  2  0  0  0
 14 98  1  0  0  0
 15 99  1  0  0  0
 16 17  2  0  0  0
 16 21  1  0  0  0
 16 31  1  0  0  0
 17 18  1  0  0  0
 17100  1  0  0  0
 18 19  2  0  0  0
 18101  1  0  0  0
 19 20  1  0  0  0
 19 24  1  0  0  0
 20 21  2  0  0  0
 20102  1  0  0  0
 21 23  1  0  0  0
 22 28  1  0  0  0
 22 32  2  0  0  0
 26 27  1  0  0  0
 28103  1  0  0  0
 28104  1  0  0  0
 29105  1  0  0  0
 29106  1  0  0  0
 33 34  1  0  0  0
 33 66  1  0  0  0
 33 70  2  0  0  0
 34 36  1  0  0  0
 34 59  1  0  0  0
 34107  1  0  0  0
 35 44  2  0  0  0
 35 45  1  0  0  0
 35 68  1  0  0  0
 36 56  1  0  0  0
 36108  1  0  0  0
 37 39  1  0  0  0
 37 47  1  0  0  0
 37 66  1  0  0  0
 37109  1  0  0  0
 38 43  2  0  0  0
 38 46  1  0  0  0
 38 47  1  0  0  0
 39 64  1  0  0  0
 39 67  2  0  0  0
 40 52  1  0  0  0
 40 53  2  0  0  0
 40 58  1  0  0  0
 41110  1  0  0  0
 41111  1  0  0  0
 41112  1  0  0  0
 41 48  1  0  0  0
 42 43  1  0  0  0
 42 66  1  0  0  0
 42113  1  0  0  0
 42114  1  0  0  0
 43 44  1  0  0  0
 44115  1  0  0  0
 45 46  2  0  0  0
 45116  1  0  0  0
 46117  1  0  0  0
 47118  1  0  0  0
 47119  1  0  0  0
 48 56  1  0  0  0
 48 65  1  0  0  0
 48120  1  0  0  0
 49 50  1  0  0  0
 49 53  1  0  0  0
 49 64  1  0  0  0
 49121  1  0  0  0
 50 51  1  0  0  0
 50122  1  0  0  0
 50123  1  0  0  0
 51 52  1  0  0  0
 51124  1  0  0  0
 51125  1  0  0  0
 52126  1  0  0  0
 52127  1  0  0  0
 53 54  1  0  0  0
 54 55  2  0  0  0
 54128  1  0  0  0
 55 57  1  0  0  0
 55129  1  0  0  0
 56 69  2  0  0  0
 57 58  2  0  0  0
 57130  1  0  0  0
 58131  1  0  0  0
 59 60  1  0  0  0
 59 61  1  0  0  0
 59 62  1  0  0  0
 60132  1  0  0  0
 60133  1  0  0  0
 60134  1  0  0  0
 61135  1  0  0  0
 61136  1  0  0  0
 61137  1  0  0  0
 62138  1  0  0  0
 62139  1  0  0  0
 62140  1  0  0  0
 63 65  1  0  0  0
 63141  1  0  0  0
 63142  1  0  0  0
 63143  1  0  0  0
 64144  1  0  0  0
 65145  1  0  0  0
 68 82  1  0  0  0
 71 72  2  0  0  0
 71 73  1  0  0  0
 71146  1  0  0  0
 72 75  1  0  0  0
 72147  1  0  0  0
 73 76  2  0  0  0
 73148  1  0  0  0
 74 75  2  0  0  0
 74 76  1  0  0  0
 74149  1  0  0  0
 75 77  1  0  0  0
 76 85  1  0  0  0
 77 79  1  0  0  0
 77 83  2  0  0  0
 78 82  1  0  0  0
 78 86  2  0  0  0
 78 81  1  0  0  0
 79 80  1  0  0  0
 79150  1  0  0  0
 79151  1  0  0  0
 80 81  1  0  0  0
 80152  1  0  0  0
 80153  1  0  0  0
 81 84  1  0  0  0
 81154  1  0  0  0
 82155  1  0  0  0
 82156  1  0  0  0
 83 84  1  0  0  0
 84157  1  0  0  0
 85158  1  0  0  0
M  ISO  4   1 100  68 101  82 101  85 100
M  END
> <chiral flag>
0

> <version>
0

> <s_m_source_file>
/data/baiqing/PycharmProjects/Reinvent-master-3.2/result/LINK_invent/BTK/process_docking_weight1_custom_product_contain_oxygen_bond_distance_aromatic_linkinvent_7_9_3/rearranged_h_0145.sdf

> <i_m_source_file_index>
13

> <r_mmod_Potential_Energy-OPLS-2005>
97.1495742797852

> <r_mmod_Stretch_Energy-OPLS-2005>
34.1178588867188

> <r_mmod_Bend_Energy-OPLS-2005>
98.9756622314453

> <r_mmod_Torsional_Energy-OPLS-2005>
293.265075683594

> <r_mmod_Improper_Torsional_Energy-OPLS-2005>
9.15338802337646

> <r_mmod_Van_der_Waal_Energy-OPLS-2005>
169.492233276367

> <r_mmod_Electrostatic_Energy-OPLS-2005>
-282.062347412109

> <r_mmod_Solvation_Energy-OPLS-2005>
-239.707702636719

> <b_mmod_Minimization_Converged-OPLS-2005>
0

> <r_mmod_RMS_Derivative-OPLS-2005>
2.24939560890198

$$$$
13
                    3D
 Structure written by MMmdl.
158167  0  0  1  0            999 V2000
  -30.6810  -14.6207   20.3422 C   0  0  0  0  0  0
  -30.4408  -12.3150   19.4821 C   0  0  0  0  0  0
  -29.5124  -12.2386   18.2494 C   0  0  0  0  0  0
  -28.0132  -12.2762   18.6376 C   0  0  0  0  0  0
  -27.6421  -13.1972   19.8392 C   0  0  2  0  0  0
  -28.7040  -13.1570   20.9586 C   0  0  0  0  0  0
  -25.2581  -13.8130   20.5758 C   0  0  0  0  0  0
  -24.1816  -13.0428   20.9226 C   0  0  0  0  0  0
  -24.6356  -11.6893   20.8806 C   0  0  0  0  0  0
  -23.9028  -10.4290   21.0445 C   0  0  0  0  0  0
  -24.3594   -9.4202   21.9206 C   0  0  0  0  0  0
  -23.6280   -8.2233   22.0758 C   0  0  0  0  0  0
  -22.4266   -8.0275   21.3541 C   0  0  0  0  0  0
  -21.9897   -9.0249   20.4647 C   0  0  0  0  0  0
  -22.7215  -10.2135   20.3075 C   0  0  0  0  0  0
  -21.6854   -6.0735   22.5273 C   0  0  0  0  0  0
  -21.4020   -6.5641   23.8209 C   0  0  0  0  0  0
  -21.3654   -5.6792   24.9168 C   0  0  0  0  0  0
  -21.6038   -4.3056   24.7221 C   0  0  0  0  0  0
  -21.8821   -3.8147   23.4344 C   0  0  0  0  0  0
  -21.9196   -4.6962   22.3398 C   0  0  0  0  0  0
  -22.7844  -13.5242   21.1858 C   0  0  0  0  0  0
  -22.1664   -4.2150   21.0974 F   0  0  0  0  0  0
  -21.5621   -3.4540   25.7730 F   0  0  0  0  0  0
  -30.0075  -13.4288   20.3418 N   0  0  0  0  0  0
  -26.2967  -12.9254   20.3358 N   0  0  0  0  0  0
  -25.9282  -11.6451   20.5895 N   0  0  0  0  0  0
  -22.0474  -12.8241   22.0408 N   0  0  0  0  0  0
  -25.4349  -15.1855   20.4209 N   0  0  0  0  0  0
  -31.9093  -14.6583   20.2452 O   0  0  0  0  0  0
  -21.6630   -6.8874   21.4234 O   0  0  0  0  0  0
  -22.3544  -14.5552   20.6702 O   0  0  0  0  0  0
  -24.6159  -31.8673   23.2106 C   0  0  0  0  0  0
  -25.9049  -32.4815   23.8403 C   0  0  1  0  0  0
  -27.2290  -27.4120   20.1147 C   0  0  0  0  0  0
  -25.5889  -33.8615   24.2329 N   0  0  0  0  0  0
  -23.4059  -30.4927   21.5501 C   0  0  2  0  0  0
  -24.8552  -28.9647   20.1085 C   0  0  0  0  0  0
  -22.7436  -29.4648   22.4964 C   0  0  0  0  0  0
  -18.0284  -28.1372   22.8488 C   0  0  0  0  0  0
  -24.1489  -36.7310   23.2639 C   0  0  0  0  0  0
  -25.9377  -30.8299   21.3666 C   0  0  0  0  0  0
  -26.0168  -29.4649   20.7108 C   0  0  0  0  0  0
  -27.2082  -28.6983   20.7082 C   0  0  0  0  0  0
  -26.0567  -26.9504   19.4730 C   0  0  0  0  0  0
  -24.8724  -27.7087   19.4812 C   0  0  0  0  0  0
  -23.6173  -29.8309   20.1622 C   0  0  0  0  0  0
  -25.4105  -36.3100   24.0335 C   0  0  1  0  0  0
  -20.5881  -28.3666   23.1307 C   0  0  2  0  0  0
  -20.6779  -26.9399   22.5413 C   0  0  0  0  0  0
  -19.5756  -26.6384   21.5211 C   0  0  0  0  0  0
  -18.1932  -26.7916   22.1619 C   0  0  0  0  0  0
  -19.1533  -28.8837   23.2887 C   0  0  0  0  0  0
  -18.9462  -30.1447   23.8901 C   0  0  0  0  0  0
  -17.6462  -30.6580   24.0569 C   0  0  0  0  0  0
  -25.9027  -34.9468   23.5122 C   0  0  0  0  0  0
  -16.5352  -29.9085   23.6322 C   0  0  0  0  0  0
  -16.7272  -28.6501   23.0335 C   0  0  0  0  0  0
  -26.4473  -31.6597   25.0728 C   0  0  0  0  0  0
  -25.3733  -31.3704   26.1473 C   0  0  0  0  0  0
  -27.0302  -30.3037   24.6100 C   0  0  0  0  0  0
  -27.6043  -32.4321   25.7487 C   0  0  0  0  0  0
  -27.5581  -37.1812   24.8469 C   0  0  0  0  0  0
  -21.4161  -29.3029   22.3710 N   0  0  0  0  0  0
  -26.4297  -37.3783   23.9403 N   0  0  0  0  0  0
  -24.6718  -31.0771   22.1007 N   0  0  0  0  0  0
  -23.4201  -28.8182   23.3008 O   0  0  0  0  0  0
  -28.3634  -26.6153   20.1878 O   0  0  0  0  0  0
  -26.5603  -34.8923   22.4690 O   0  0  0  0  0  0
  -23.5344  -32.1440   23.7477 O   0  0  0  0  0  0
  -30.3798  -18.1434   21.0202 C   0  0  0  0  0  0
  -30.4714  -17.0825   20.0498 C   0  0  0  0  0  0
  -30.7394  -17.5272   18.8073 C   0  0  0  0  0  0
  -30.5899  -19.4013   20.4393 C   0  0  0  0  0  0
  -30.3217  -21.8562   20.4033 C   0  0  0  0  0  0
  -30.3772  -16.6028   17.7445 C   0  0  0  0  0  0
  -29.4398  -15.7146   18.5787 C   0  0  0  0  0  0
  -27.8161  -25.3599   22.2179 C   0  0  0  0  0  0
  -30.0008  -23.1120   21.2532 C   0  0  0  0  0  0
  -29.3920  -24.3196   20.4186 C   0  0  0  0  0  0
  -28.1626  -25.2716   20.7131 C   0  0  2  0  0  0
  -29.9560  -15.7349   19.9755 N   0  0  0  0  0  0
  -30.4077  -20.6398   21.0137 N   0  0  0  0  0  0
  -30.4845  -22.0326   19.1942 O   0  0  0  0  0  0
  -31.0567  -19.2106   18.7397 S   0  0  0  0  0  0
  -31.4785  -12.4149   19.1585 H   0  0  0  0  0  0
  -30.3940  -11.3835   20.0479 H   0  0  0  0  0  0
  -29.7005  -11.2883   17.7473 H   0  0  0  0  0  0
  -29.7801  -12.9563   17.4803 H   0  0  0  0  0  0
  -27.7513  -11.2478   18.8875 H   0  0  0  0  0  0
  -27.4030  -12.5247   17.7682 H   0  0  0  0  0  0
  -27.6040  -14.2090   19.4534 H   0  0  0  0  0  0
  -28.7131  -12.1864   21.4565 H   0  0  0  0  0  0
  -28.4803  -13.9030   21.7234 H   0  0  0  0  0  0
  -25.2739   -9.5676   22.4782 H   0  0  0  0  0  0
  -23.9988   -7.4626   22.7478 H   0  0  0  0  0  0
  -21.0826   -8.8768   19.8953 H   0  0  0  0  0  0
  -22.3674  -10.9680   19.6189 H   0  0  0  0  0  0
  -21.2024   -7.6154   23.9709 H   0  0  0  0  0  0
  -21.1470   -6.0523   25.9066 H   0  0  0  0  0  0
  -22.0609   -2.7613   23.2836 H   0  0  0  0  0  0
  -22.4085  -11.9889   22.4772 H   0  0  0  0  0  0
  -21.1098  -13.1278   22.2633 H   0  0  0  0  0  0
  -24.6834  -15.8512   20.5649 H   0  0  0  0  0  0
  -26.3061  -15.6249   20.1511 H   0  0  0  0  0  0
  -26.7127  -32.5532   23.1176 H   0  0  0  0  0  0
  -25.0019  -33.9781   25.0457 H   0  0  0  0  0  0
  -22.6944  -31.3091   21.4117 H   0  0  0  0  0  0
  -23.3734  -35.9665   23.3317 H   0  0  0  0  0  0
  -24.3584  -36.8908   22.2053 H   0  0  0  0  0  0
  -23.7271  -37.6525   23.6653 H   0  0  0  0  0  0
  -26.0525  -31.5985   20.6013 H   0  0  0  0  0  0
  -26.8245  -30.8817   21.9869 H   0  0  0  0  0  0
  -28.0996  -29.0736   21.1921 H   0  0  0  0  0  0
  -26.0391  -25.9995   18.9609 H   0  0  0  0  0  0
  -23.9856  -27.3227   18.9967 H   0  0  0  0  0  0
  -23.7285  -30.6098   19.4073 H   0  0  0  0  0  0
  -22.7428  -29.2519   19.8618 H   0  0  0  0  0  0
  -25.1288  -36.1964   25.0831 H   0  0  0  0  0  0
  -20.9970  -28.3232   24.1427 H   0  0  0  0  0  0
  -20.5680  -26.2270   23.3599 H   0  0  0  0  0  0
  -21.6648  -26.7439   22.1200 H   0  0  0  0  0  0
  -19.6906  -25.6297   21.1226 H   0  0  0  0  0  0
  -19.6693  -27.3210   20.6751 H   0  0  0  0  0  0
  -17.4197  -26.6672   21.4020 H   0  0  0  0  0  0
  -18.0331  -26.0059   22.9018 H   0  0  0  0  0  0
  -19.7941  -30.7263   24.2261 H   0  0  0  0  0  0
  -17.5020  -31.6265   24.5169 H   0  0  0  0  0  0
  -15.5352  -30.2984   23.7654 H   0  0  0  0  0  0
  -15.8673  -28.0840   22.7016 H   0  0  0  0  0  0
  -24.5915  -30.7035   25.7817 H   0  0  0  0  0  0
  -24.8910  -32.2859   26.4910 H   0  0  0  0  0  0
  -25.8091  -30.8898   27.0242 H   0  0  0  0  0  0
  -26.2851  -29.6790   24.1161 H   0  0  0  0  0  0
  -27.4063  -29.7274   25.4561 H   0  0  0  0  0  0
  -27.8694  -30.4338   23.9257 H   0  0  0  0  0  0
  -27.2666  -33.3623   26.2068 H   0  0  0  0  0  0
  -28.3861  -32.6869   25.0318 H   0  0  0  0  0  0
  -28.0701  -31.8437   26.5405 H   0  0  0  0  0  0
  -28.2605  -38.0102   24.7491 H   0  0  0  0  0  0
  -28.1066  -36.2631   24.6324 H   0  0  0  0  0  0
  -27.2296  -37.1489   25.8872 H   0  0  0  0  0  0
  -20.9309  -29.8751   21.6944 H   0  0  0  0  0  0
  -26.0177  -38.2855   24.1405 H   0  0  0  0  0  0
  -30.0521  -17.9710   22.0349 H   0  0  0  0  0  0
  -31.2505  -16.0581   17.3829 H   0  0  0  0  0  0
  -29.8724  -17.0874   16.9081 H   0  0  0  0  0  0
  -29.2908  -14.7659   18.1049 H   0  0  0  0  0  0
  -28.4526  -16.1798   18.6063 H   0  0  0  0  0  0
  -27.6305  -24.3716   22.6366 H   0  0  0  0  0  0
  -26.9139  -25.9455   22.3890 H   0  0  0  0  0  0
  -28.6188  -25.8207   22.7943 H   0  0  0  0  0  0
  -30.9604  -23.3885   21.6989 H   0  0  0  0  0  0
  -29.3670  -22.8300   22.0991 H   0  0  0  0  0  0
  -29.9103  -24.9432   21.1467 H   0  0  0  0  0  0
  -28.5917  -23.5792   20.4131 H   0  0  0  0  0  0
  -27.2685  -24.8685   20.2288 H   0  0  0  0  0  0
  -30.2368  -20.6445   22.0108 H   0  0  0  0  0  0
  1 25  1  0  0  0
  1 30  2  0  0  0
  1 82  1  0  0  0
  2  3  1  0  0  0
  2 25  1  0  0  0
  2 86  1  0  0  0
  2 87  1  0  0  0
  3  4  1  0  0  0
  3 88  1  0  0  0
  3 89  1  0  0  0
  4  5  1  0  0  0
  4 90  1  0  0  0
  4 91  1  0  0  0
  5  6  1  0  0  0
  5 26  1  0  0  0
  5 92  1  0  0  0
  6 25  1  0  0  0
  6 93  1  0  0  0
  6 94  1  0  0  0
  7  8  2  0  0  0
  7 26  1  0  0  0
  7 29  1  0  0  0
  8  9  1  0  0  0
  8 22  1  0  0  0
  9 10  1  0  0  0
  9 27  2  0  0  0
 10 11  2  0  0  0
 10 15  1  0  0  0
 11 12  1  0  0  0
 11 95  1  0  0  0
 12 13  2  0  0  0
 12 96  1  0  0  0
 13 14  1  0  0  0
 13 31  1  0  0  0
 14 15  2  0  0  0
 14 97  1  0  0  0
 15 98  1  0  0  0
 16 17  2  0  0  0
 16 21  1  0  0  0
 16 31  1  0  0  0
 17 18  1  0  0  0
 17 99  1  0  0  0
 18 19  2  0  0  0
 18100  1  0  0  0
 19 20  1  0  0  0
 19 24  1  0  0  0
 20 21  2  0  0  0
 20101  1  0  0  0
 21 23  1  0  0  0
 22 28  1  0  0  0
 22 32  2  0  0  0
 26 27  1  0  0  0
 28102  1  0  0  0
 28103  1  0  0  0
 29104  1  0  0  0
 29105  1  0  0  0
 33 34  1  0  0  0
 33 66  1  0  0  0
 33 70  2  0  0  0
 34 36  1  0  0  0
 34 59  1  0  0  0
 34106  1  0  0  0
 35 44  2  0  0  0
 35 45  1  0  0  0
 35 68  1  0  0  0
 36 56  1  0  0  0
 36107  1  0  0  0
 37 39  1  0  0  0
 37 47  1  0  0  0
 37 66  1  0  0  0
 37108  1  0  0  0
 38 43  2  0  0  0
 38 46  1  0  0  0
 38 47  1  0  0  0
 39 64  1  0  0  0
 39 67  2  0  0  0
 40 52  1  0  0  0
 40 53  2  0  0  0
 40 58  1  0  0  0
 41109  1  0  0  0
 41110  1  0  0  0
 41111  1  0  0  0
 41 48  1  0  0  0
 42 43  1  0  0  0
 42 66  1  0  0  0
 42112  1  0  0  0
 42113  1  0  0  0
 43 44  1  0  0  0
 44114  1  0  0  0
 45 46  2  0  0  0
 45115  1  0  0  0
 46116  1  0  0  0
 47117  1  0  0  0
 47118  1  0  0  0
 48 56  1  0  0  0
 48 65  1  0  0  0
 48119  1  0  0  0
 49 50  1  0  0  0
 49 53  1  0  0  0
 49 64  1  0  0  0
 49120  1  0  0  0
 50 51  1  0  0  0
 50121  1  0  0  0
 50122  1  0  0  0
 51 52  1  0  0  0
 51123  1  0  0  0
 51124  1  0  0  0
 52125  1  0  0  0
 52126  1  0  0  0
 53 54  1  0  0  0
 54 55  2  0  0  0
 54127  1  0  0  0
 55 57  1  0  0  0
 55128  1  0  0  0
 56 69  2  0  0  0
 57 58  2  0  0  0
 57129  1  0  0  0
 58130  1  0  0  0
 59 60  1  0  0  0
 59 61  1  0  0  0
 59 62  1  0  0  0
 60131  1  0  0  0
 60132  1  0  0  0
 60133  1  0  0  0
 61134  1  0  0  0
 61135  1  0  0  0
 61136  1  0  0  0
 62137  1  0  0  0
 62138  1  0  0  0
 62139  1  0  0  0
 63 65  1  0  0  0
 63140  1  0  0  0
 63141  1  0  0  0
 63142  1  0  0  0
 64143  1  0  0  0
 65144  1  0  0  0
 68 81  1  0  0  0
 71 72  1  0  0  0
 71 74  2  0  0  0
 71145  1  0  0  0
 72 73  2  0  0  0
 72 82  1  0  0  0
 73 76  1  0  0  0
 73 85  1  0  0  0
 74 83  1  0  0  0
 74 85  1  0  0  0
 75 79  1  0  0  0
 75 83  1  0  0  0
 75 84  2  0  0  0
 76 77  1  0  0  0
 76146  1  0  0  0
 76147  1  0  0  0
 77 82  1  0  0  0
 77148  1  0  0  0
 77149  1  0  0  0
 78150  1  0  0  0
 78151  1  0  0  0
 78152  1  0  0  0
 78 81  1  0  0  0
 79 80  1  0  0  0
 79153  1  0  0  0
 79154  1  0  0  0
 80 81  1  0  0  0
 80155  1  0  0  0
 80156  1  0  0  0
 81157  1  0  0  0
 83158  1  0  0  0
M  ISO  4   1 100  68 101  81 101  82 100
M  END
> <chiral flag>
0

> <version>
0

> <s_m_source_file>
/data/baiqing/PycharmProjects/Reinvent-master-3.2/result/LINK_invent/BTK/process_docking_weight1_custom_product_contain_oxygen_bond_distance_aromatic_linkinvent_7_9_3/rearranged_h_0145.sdf

> <i_m_source_file_index>
14

> <r_mmod_Potential_Energy-OPLS-2005>
547.468322753906

> <r_mmod_Stretch_Energy-OPLS-2005>
63.8896064758301

> <r_mmod_Bend_Energy-OPLS-2005>
449.997009277344

> <r_mmod_Torsional_Energy-OPLS-2005>
358.163940429688

> <r_mmod_Improper_Torsional_Energy-OPLS-2005>
28.1374130249023

> <r_mmod_Van_der_Waal_Energy-OPLS-2005>
171.056350708008

> <r_mmod_Electrostatic_Energy-OPLS-2005>
-355.175109863281

> <r_mmod_Solvation_Energy-OPLS-2005>
-227.492919921875

> <b_mmod_Minimization_Converged-OPLS-2005>
0

> <r_mmod_RMS_Derivative-OPLS-2005>
1.57456719875336

$$$$
14
                    3D
 Structure written by MMmdl.
162171  0  0  1  0            999 V2000
  -30.7801  -14.3948   20.6536 C   0  0  0  0  0  0
  -30.4056  -12.2928   19.4172 C   0  0  0  0  0  0
  -29.4884  -12.5212   18.2048 C   0  0  0  0  0  0
  -28.0146  -12.3653   18.6199 C   0  0  0  0  0  0
  -27.6622  -13.2067   19.8747 C   0  0  2  0  0  0
  -28.6989  -13.0039   21.0026 C   0  0  0  0  0  0
  -25.2601  -13.8162   20.5626 C   0  0  0  0  0  0
  -24.1839  -13.0431   20.9137 C   0  0  0  0  0  0
  -24.6396  -11.6898   20.8718 C   0  0  0  0  0  0
  -23.9042  -10.4293   21.0393 C   0  0  0  0  0  0
  -24.3601   -9.4224   21.9175 C   0  0  0  0  0  0
  -23.6281   -8.2261   22.0759 C   0  0  0  0  0  0
  -22.4280   -8.0277   21.3534 C   0  0  0  0  0  0
  -21.9904   -9.0251   20.4644 C   0  0  0  0  0  0
  -22.7212  -10.2132   20.3053 C   0  0  0  0  0  0
  -21.6859   -6.0733   22.5277 C   0  0  0  0  0  0
  -21.4016   -6.5636   23.8209 C   0  0  0  0  0  0
  -21.3665   -5.6781   24.9170 C   0  0  0  0  0  0
  -21.6059   -4.3052   24.7212 C   0  0  0  0  0  0
  -21.8818   -3.8142   23.4334 C   0  0  0  0  0  0
  -21.9190   -4.6960   22.3391 C   0  0  0  0  0  0
  -22.7876  -13.5265   21.1796 C   0  0  0  0  0  0
  -22.1658   -4.2147   21.0967 F   0  0  0  0  0  0
  -21.5643   -3.4536   25.7730 F   0  0  0  0  0  0
  -30.0410  -13.2706   20.4553 N   0  0  0  0  0  0
  -26.3031  -12.9319   20.3357 N   0  0  0  0  0  0
  -25.9335  -11.6470   20.5755 N   0  0  0  0  0  0
  -22.0515  -12.8265   22.0365 N   0  0  0  0  0  0
  -25.4309  -15.1866   20.3968 N   0  0  0  0  0  0
  -31.8349  -14.6104   20.0422 O   0  0  0  0  0  0
  -21.6648   -6.8873   21.4230 O   0  0  0  0  0  0
  -22.3564  -14.5563   20.6636 O   0  0  0  0  0  0
  -24.6151  -31.8704   23.2089 C   0  0  0  0  0  0
  -25.9005  -32.4850   23.8431 C   0  0  1  0  0  0
  -27.2255  -27.4406   20.0723 C   0  0  0  0  0  0
  -25.5829  -33.8657   24.2318 N   0  0  0  0  0  0
  -23.4046  -30.4940   21.5545 C   0  0  2  0  0  0
  -24.8408  -28.9632   20.1188 C   0  0  0  0  0  0
  -22.7419  -29.4654   22.5029 C   0  0  0  0  0  0
  -18.0272  -28.1375   22.8465 C   0  0  0  0  0  0
  -24.1456  -36.7347   23.2635 C   0  0  0  0  0  0
  -25.9319  -30.8448   21.3480 C   0  0  0  0  0  0
  -26.0054  -29.4740   20.7034 C   0  0  0  0  0  0
  -27.2009  -28.7212   20.6743 C   0  0  0  0  0  0
  -26.0265  -26.9363   19.5111 C   0  0  0  0  0  0
  -24.8443  -27.6922   19.5257 C   0  0  0  0  0  0
  -23.6041  -29.8246   20.1708 C   0  0  0  0  0  0
  -25.4074  -36.3147   24.0340 C   0  0  1  0  0  0
  -20.5843  -28.3664   23.1340 C   0  0  2  0  0  0
  -20.6730  -26.9394   22.5463 C   0  0  0  0  0  0
  -19.5735  -26.6368   21.5225 C   0  0  0  0  0  0
  -18.1906  -26.7923   22.1620 C   0  0  0  0  0  0
  -19.1511  -28.8841   23.2896 C   0  0  0  0  0  0
  -18.9435  -30.1432   23.8931 C   0  0  0  0  0  0
  -17.6431  -30.6575   24.0539 C   0  0  0  0  0  0
  -25.9011  -34.9508   23.5148 C   0  0  0  0  0  0
  -16.5326  -29.9078   23.6293 C   0  0  0  0  0  0
  -16.7256  -28.6492   23.0327 C   0  0  0  0  0  0
  -26.4374  -31.6645   25.0786 C   0  0  0  0  0  0
  -25.3541  -31.3845   26.1459 C   0  0  0  0  0  0
  -27.0145  -30.3070   24.6169 C   0  0  0  0  0  0
  -27.5985  -32.4318   25.7537 C   0  0  0  0  0  0
  -27.5573  -37.1815   24.8456 C   0  0  0  0  0  0
  -21.4145  -29.3043   22.3780 N   0  0  0  0  0  0
  -26.4269  -37.3820   23.9420 N   0  0  0  0  0  0
  -24.6732  -31.0825   22.0961 N   0  0  0  0  0  0
  -23.4194  -28.8136   23.3019 O   0  0  0  0  0  0
  -28.4159  -26.7364   20.0523 O   0  0  0  0  0  0
  -26.5635  -34.8958   22.4746 O   0  0  0  0  0  0
  -23.5344  -32.1429   23.7477 O   0  0  0  0  0  0
  -29.6814  -19.0033   21.4007 C   0  0  0  0  0  0
  -27.7774  -19.1067   22.7092 C   0  0  0  0  0  0
  -28.6126  -19.8234   21.8827 C   0  0  0  0  0  0
  -29.6484  -17.7038   21.8423 C   0  0  0  0  0  0
  -28.0349  -24.3405   20.5070 C   0  0  0  0  0  0
  -31.1256  -15.7364   22.6633 C   0  0  0  0  0  0
  -30.6975  -16.6598   21.5778 C   0  0  2  0  0  0
  -26.1291  -22.1670   21.9866 C   0  0  0  0  0  0
  -26.5396  -20.7002   20.0127 C   0  0  0  0  0  0
  -28.4929  -21.3021   21.5519 C   0  0  0  0  0  0
  -27.4366  -23.0318   19.9430 C   0  0  0  0  0  0
  -28.4404  -25.4170   19.4785 C   0  0  0  0  0  0
  -27.1667  -21.8080   20.8925 C   0  0  0  0  0  0
  -30.3198  -15.2680   21.5716 N   0  0  0  0  0  0
  -28.2061  -24.5252   21.7159 O   0  0  0  0  0  0
  -28.2460  -17.4293   22.8416 S   0  0  0  0  0  0
  -31.4536  -12.3595   19.1220 H   0  0  0  0  0  0
  -30.2760  -11.2794   19.8048 H   0  0  0  0  0  0
  -29.7358  -11.8217   17.4031 H   0  0  0  0  0  0
  -29.6563  -13.5195   17.8003 H   0  0  0  0  0  0
  -27.8366  -11.3064   18.8163 H   0  0  0  0  0  0
  -27.3597  -12.6364   17.7905 H   0  0  0  0  0  0
  -27.7057  -14.2531   19.5705 H   0  0  0  0  0  0
  -28.6609  -11.9865   21.3924 H   0  0  0  0  0  0
  -28.4515  -13.6475   21.8465 H   0  0  0  0  0  0
  -25.2733   -9.5722   22.4757 H   0  0  0  0  0  0
  -23.9996   -7.4662   22.7497 H   0  0  0  0  0  0
  -21.0837   -8.8754   19.8948 H   0  0  0  0  0  0
  -22.3657  -10.9670   19.6182 H   0  0  0  0  0  0
  -21.2002   -7.6150   23.9704 H   0  0  0  0  0  0
  -21.1506   -6.0521   25.9070 H   0  0  0  0  0  0
  -22.0591   -2.7606   23.2833 H   0  0  0  0  0  0
  -22.4101  -11.9934   22.4780 H   0  0  0  0  0  0
  -21.1160  -13.1331   22.2575 H   0  0  0  0  0  0
  -24.6612  -15.8393   20.4867 H   0  0  0  0  0  0
  -26.2929  -15.6294   20.0985 H   0  0  0  0  0  0
  -26.7098  -32.5569   23.1236 H   0  0  0  0  0  0
  -24.9825  -33.9836   25.0344 H   0  0  0  0  0  0
  -22.6942  -31.3102   21.4139 H   0  0  0  0  0  0
  -23.3729  -35.9668   23.3295 H   0  0  0  0  0  0
  -24.3541  -36.8992   22.2053 H   0  0  0  0  0  0
  -23.7201  -37.6547   23.6662 H   0  0  0  0  0  0
  -26.0132  -31.5945   20.5612 H   0  0  0  0  0  0
  -26.8344  -30.9265   21.9440 H   0  0  0  0  0  0
  -28.1072  -29.1215   21.1053 H   0  0  0  0  0  0
  -25.9601  -25.9596   19.0597 H   0  0  0  0  0  0
  -23.9420  -27.2842   19.0919 H   0  0  0  0  0  0
  -23.7042  -30.5928   19.4035 H   0  0  0  0  0  0
  -22.7315  -29.2331   19.8880 H   0  0  0  0  0  0
  -25.1237  -36.2045   25.0833 H   0  0  0  0  0  0
  -20.9905  -28.3229   24.1467 H   0  0  0  0  0  0
  -20.5528  -26.2288   23.3651 H   0  0  0  0  0  0
  -21.6621  -26.7374   22.1328 H   0  0  0  0  0  0
  -19.6886  -25.6287   21.1252 H   0  0  0  0  0  0
  -19.6687  -27.3168   20.6744 H   0  0  0  0  0  0
  -17.4179  -26.6642   21.4021 H   0  0  0  0  0  0
  -18.0279  -26.0114   22.9065 H   0  0  0  0  0  0
  -19.7918  -30.7208   24.2347 H   0  0  0  0  0  0
  -17.4985  -31.6257   24.5143 H   0  0  0  0  0  0
  -15.5320  -30.2946   23.7610 H   0  0  0  0  0  0
  -15.8657  -28.0776   22.7039 H   0  0  0  0  0  0
  -24.5776  -30.7121   25.7799 H   0  0  0  0  0  0
  -24.8594  -32.3013   26.4689 H   0  0  0  0  0  0
  -25.7737  -30.9189   27.0369 H   0  0  0  0  0  0
  -26.2743  -29.6976   24.0961 H   0  0  0  0  0  0
  -27.3607  -29.7195   25.4689 H   0  0  0  0  0  0
  -27.8695  -30.4403   23.9528 H   0  0  0  0  0  0
  -27.2713  -33.3720   26.1984 H   0  0  0  0  0  0
  -28.3836  -32.6675   25.0347 H   0  0  0  0  0  0
  -28.0530  -31.8457   26.5532 H   0  0  0  0  0  0
  -28.2592  -38.0109   24.7496 H   0  0  0  0  0  0
  -28.1063  -36.2647   24.6251 H   0  0  0  0  0  0
  -27.2318  -37.1456   25.8867 H   0  0  0  0  0  0
  -20.9291  -29.8944   21.7166 H   0  0  0  0  0  0
  -26.0179  -38.2914   24.1397 H   0  0  0  0  0  0
  -30.4610  -19.3990   20.7659 H   0  0  0  0  0  0
  -26.8995  -19.4473   23.2412 H   0  0  0  0  0  0
  -32.1707  -15.4370   22.6900 H   0  0  0  0  0  0
  -30.6383  -15.7949   23.6335 H   0  0  0  0  0  0
  -31.4504  -17.0034   20.8684 H   0  0  0  0  0  0
  -25.9259  -21.3214   22.6381 H   0  0  0  0  0  0
  -25.1729  -22.4592   21.5522 H   0  0  0  0  0  0
  -26.4543  -22.9765   22.6389 H   0  0  0  0  0  0
  -25.7131  -21.0858   19.4166 H   0  0  0  0  0  0
  -26.1397  -19.8764   20.6050 H   0  0  0  0  0  0
  -27.2677  -20.2723   19.3220 H   0  0  0  0  0  0
  -29.2983  -21.5327   20.8534 H   0  0  0  0  0  0
  -28.7286  -21.9019   22.4321 H   0  0  0  0  0  0
  -28.0988  -22.7103   19.1376 H   0  0  0  0  0  0
  -26.4996  -23.3121   19.4619 H   0  0  0  0  0  0
  -27.8382  -25.3470   18.5709 H   0  0  0  0  0  0
  -29.4629  -25.2104   19.1649 H   0  0  0  0  0  0
  1 25  1  0  0  0
  1 30  2  0  0  0
  1 84  1  0  0  0
  2  3  1  0  0  0
  2 25  1  0  0  0
  2 87  1  0  0  0
  2 88  1  0  0  0
  3  4  1  0  0  0
  3 89  1  0  0  0
  3 90  1  0  0  0
  4  5  1  0  0  0
  4 91  1  0  0  0
  4 92  1  0  0  0
  5  6  1  0  0  0
  5 26  1  0  0  0
  5 93  1  0  0  0
  6 25  1  0  0  0
  6 94  1  0  0  0
  6 95  1  0  0  0
  7  8  2  0  0  0
  7 26  1  0  0  0
  7 29  1  0  0  0
  8  9  1  0  0  0
  8 22  1  0  0  0
  9 10  1  0  0  0
  9 27  2  0  0  0
 10 11  2  0  0  0
 10 15  1  0  0  0
 11 12  1  0  0  0
 11 96  1  0  0  0
 12 13  2  0  0  0
 12 97  1  0  0  0
 13 14  1  0  0  0
 13 31  1  0  0  0
 14 15  2  0  0  0
 14 98  1  0  0  0
 15 99  1  0  0  0
 16 17  2  0  0  0
 16 21  1  0  0  0
 16 31  1  0  0  0
 17 18  1  0  0  0
 17100  1  0  0  0
 18 19  2  0  0  0
 18101  1  0  0  0
 19 20  1  0  0  0
 19 24  1  0  0  0
 20 21  2  0  0  0
 20102  1  0  0  0
 21 23  1  0  0  0
 22 28  1  0  0  0
 22 32  2  0  0  0
 26 27  1  0  0  0
 28103  1  0  0  0
 28104  1  0  0  0
 29105  1  0  0  0
 29106  1  0  0  0
 33 34  1  0  0  0
 33 66  1  0  0  0
 33 70  2  0  0  0
 34 36  1  0  0  0
 34 59  1  0  0  0
 34107  1  0  0  0
 35 44  2  0  0  0
 35 45  1  0  0  0
 35 68  1  0  0  0
 36 56  1  0  0  0
 36108  1  0  0  0
 37 39  1  0  0  0
 37 47  1  0  0  0
 37 66  1  0  0  0
 37109  1  0  0  0
 38 43  2  0  0  0
 38 46  1  0  0  0
 38 47  1  0  0  0
 39 64  1  0  0  0
 39 67  2  0  0  0
 40 52  1  0  0  0
 40 53  2  0  0  0
 40 58  1  0  0  0
 41110  1  0  0  0
 41111  1  0  0  0
 41112  1  0  0  0
 41 48  1  0  0  0
 42 43  1  0  0  0
 42 66  1  0  0  0
 42113  1  0  0  0
 42114  1  0  0  0
 43 44  1  0  0  0
 44115  1  0  0  0
 45 46  2  0  0  0
 45116  1  0  0  0
 46117  1  0  0  0
 47118  1  0  0  0
 47119  1  0  0  0
 48 56  1  0  0  0
 48 65  1  0  0  0
 48120  1  0  0  0
 49 50  1  0  0  0
 49 53  1  0  0  0
 49 64  1  0  0  0
 49121  1  0  0  0
 50 51  1  0  0  0
 50122  1  0  0  0
 50123  1  0  0  0
 51 52  1  0  0  0
 51124  1  0  0  0
 51125  1  0  0  0
 52126  1  0  0  0
 52127  1  0  0  0
 53 54  1  0  0  0
 54 55  2  0  0  0
 54128  1  0  0  0
 55 57  1  0  0  0
 55129  1  0  0  0
 56 69  2  0  0  0
 57 58  2  0  0  0
 57130  1  0  0  0
 58131  1  0  0  0
 59 60  1  0  0  0
 59 61  1  0  0  0
 59 62  1  0  0  0
 60132  1  0  0  0
 60133  1  0  0  0
 60134  1  0  0  0
 61135  1  0  0  0
 61136  1  0  0  0
 61137  1  0  0  0
 62138  1  0  0  0
 62139  1  0  0  0
 62140  1  0  0  0
 63 65  1  0  0  0
 63141  1  0  0  0
 63142  1  0  0  0
 63143  1  0  0  0
 64144  1  0  0  0
 65145  1  0  0  0
 68 82  1  0  0  0
 71 73  1  0  0  0
 71 74  2  0  0  0
 71146  1  0  0  0
 72 73  2  0  0  0
 72 86  1  0  0  0
 72147  1  0  0  0
 73 80  1  0  0  0
 74 86  1  0  0  0
 74 77  1  0  0  0
 75 81  1  0  0  0
 75 82  1  0  0  0
 75 85  2  0  0  0
 76 77  1  0  0  0
 76 84  1  0  0  0
 76148  1  0  0  0
 76149  1  0  0  0
 77 84  1  0  0  0
 77150  1  0  0  0
 78151  1  0  0  0
 78152  1  0  0  0
 78153  1  0  0  0
 78 83  1  0  0  0
 79 83  1  0  0  0
 79154  1  0  0  0
 79155  1  0  0  0
 79156  1  0  0  0
 80 83  1  0  0  0
 80157  1  0  0  0
 80158  1  0  0  0
 81 83  1  0  0  0
 81159  1  0  0  0
 81160  1  0  0  0
 82161  1  0  0  0
 82162  1  0  0  0
M  ISO  4   1 100  68 101  82 101  84 100
M  END
> <chiral flag>
0

> <version>
0

> <s_m_source_file>
/data/baiqing/PycharmProjects/Reinvent-master-3.2/result/LINK_invent/BTK/process_docking_weight1_custom_product_contain_oxygen_bond_distance_aromatic_linkinvent_7_9_3/rearranged_h_0145.sdf

> <i_m_source_file_index>
15

> <r_mmod_Potential_Energy-OPLS-2005>
57.4896087646484

> <r_mmod_Stretch_Energy-OPLS-2005>
40.0447425842285

> <r_mmod_Bend_Energy-OPLS-2005>
122.591232299805

> <r_mmod_Torsional_Energy-OPLS-2005>
247.192947387695

> <r_mmod_Improper_Torsional_Energy-OPLS-2005>
9.7712516784668

> <r_mmod_Van_der_Waal_Energy-OPLS-2005>
135.69140625

> <r_mmod_Electrostatic_Energy-OPLS-2005>
-300.198486328125

> <r_mmod_Solvation_Energy-OPLS-2005>
-207.603134155273

> <b_mmod_Minimization_Converged-OPLS-2005>
0

> <r_mmod_RMS_Derivative-OPLS-2005>
4.51372098922729

$$$$
15
                    3D
 Structure written by MMmdl.
157165  0  0  1  0            999 V2000
  -30.7717  -14.3216   20.7349 C   0  0  0  0  0  0
  -30.4223  -12.2920   19.3784 C   0  0  0  0  0  0
  -29.4834  -12.5542   18.1863 C   0  0  0  0  0  0
  -28.0081  -12.4009   18.5999 C   0  0  0  0  0  0
  -27.6699  -13.2017   19.8830 C   0  0  2  0  0  0
  -28.7042  -12.9123   20.9932 C   0  0  0  0  0  0
  -25.2604  -13.8149   20.5657 C   0  0  0  0  0  0
  -24.1832  -13.0446   20.9122 C   0  0  0  0  0  0
  -24.6371  -11.6910   20.8681 C   0  0  0  0  0  0
  -23.9039  -10.4307   21.0388 C   0  0  0  0  0  0
  -24.3589   -9.4230   21.9170 C   0  0  0  0  0  0
  -23.6266   -8.2273   22.0761 C   0  0  0  0  0  0
  -22.4246   -8.0300   21.3565 C   0  0  0  0  0  0
  -21.9874   -9.0272   20.4664 C   0  0  0  0  0  0
  -22.7208  -10.2144   20.3055 C   0  0  0  0  0  0
  -21.6865   -6.0731   22.5278 C   0  0  0  0  0  0
  -21.4023   -6.5632   23.8212 C   0  0  0  0  0  0
  -21.3654   -5.6776   24.9159 C   0  0  0  0  0  0
  -21.6036   -4.3046   24.7222 C   0  0  0  0  0  0
  -21.8822   -3.8141   23.4342 C   0  0  0  0  0  0
  -21.9187   -4.6958   22.3397 C   0  0  0  0  0  0
  -22.7855  -13.5272   21.1789 C   0  0  0  0  0  0
  -22.1663   -4.2151   21.0983 F   0  0  0  0  0  0
  -21.5626   -3.4527   25.7728 F   0  0  0  0  0  0
  -30.0587  -13.1985   20.4752 N   0  0  0  0  0  0
  -26.3041  -12.9309   20.3351 N   0  0  0  0  0  0
  -25.9290  -11.6468   20.5681 N   0  0  0  0  0  0
  -22.0481  -12.8310   22.0368 N   0  0  0  0  0  0
  -25.4324  -15.1864   20.4105 N   0  0  0  0  0  0
  -31.7232  -14.7054   20.0425 O   0  0  0  0  0  0
  -21.6636   -6.8879   21.4245 O   0  0  0  0  0  0
  -22.3561  -14.5581   20.6630 O   0  0  0  0  0  0
  -24.6098  -31.8710   23.2137 C   0  0  0  0  0  0
  -25.9005  -32.4853   23.8418 C   0  0  1  0  0  0
  -27.2520  -27.4758   20.0888 C   0  0  0  0  0  0
  -25.5874  -33.8649   24.2352 N   0  0  0  0  0  0
  -23.3979  -30.4938   21.5525 C   0  0  2  0  0  0
  -24.8484  -28.9626   20.1203 C   0  0  0  0  0  0
  -22.7386  -29.4668   22.4997 C   0  0  0  0  0  0
  -18.0265  -28.1381   22.8493 C   0  0  0  0  0  0
  -24.1481  -36.7332   23.2635 C   0  0  0  0  0  0
  -25.9210  -30.8503   21.3601 C   0  0  0  0  0  0
  -26.0039  -29.4839   20.7158 C   0  0  0  0  0  0
  -27.2070  -28.7487   20.7071 C   0  0  0  0  0  0
  -26.0802  -26.9627   19.4968 C   0  0  0  0  0  0
  -24.8771  -27.6961   19.5120 C   0  0  0  0  0  0
  -23.6074  -29.8253   20.1675 C   0  0  0  0  0  0
  -25.4100  -36.3132   24.0338 C   0  0  1  0  0  0
  -20.5851  -28.3660   23.1328 C   0  0  2  0  0  0
  -20.6754  -26.9397   22.5424 C   0  0  0  0  0  0
  -19.5736  -26.6386   21.5215 C   0  0  0  0  0  0
  -18.1910  -26.7926   22.1628 C   0  0  0  0  0  0
  -19.1513  -28.8831   23.2915 C   0  0  0  0  0  0
  -18.9449  -30.1434   23.8930 C   0  0  0  0  0  0
  -17.6456  -30.6581   24.0574 C   0  0  0  0  0  0
  -25.9024  -34.9495   23.5141 C   0  0  0  0  0  0
  -16.5345  -29.9095   23.6323 C   0  0  0  0  0  0
  -16.7258  -28.6514   23.0339 C   0  0  0  0  0  0
  -26.4455  -31.6617   25.0724 C   0  0  0  0  0  0
  -25.3737  -31.3713   26.1484 C   0  0  0  0  0  0
  -27.0265  -30.3065   24.6050 C   0  0  0  0  0  0
  -27.6043  -32.4323   25.7479 C   0  0  0  0  0  0
  -27.5588  -37.1812   24.8458 C   0  0  0  0  0  0
  -21.4120  -29.3038   22.3749 N   0  0  0  0  0  0
  -26.4294  -37.3813   23.9409 N   0  0  0  0  0  0
  -24.6613  -31.0836   22.1022 N   0  0  0  0  0  0
  -23.4169  -28.8205   23.3024 O   0  0  0  0  0  0
  -28.3756  -26.6847   20.0077 O   0  0  0  0  0  0
  -26.5594  -34.8936   22.4706 O   0  0  0  0  0  0
  -23.5301  -32.1442   23.7553 O   0  0  0  0  0  0
  -30.0116  -17.3060   21.4488 C   0  0  0  0  0  0
  -31.3746  -16.7089   23.2699 C   0  0  0  0  0  0
  -30.6444  -16.2701   22.1977 C   0  0  0  0  0  0
  -30.3157  -18.5497   21.9365 C   0  0  0  0  0  0
  -30.3943  -22.1527   21.8042 C   0  0  0  0  0  0
  -30.9930  -23.4361   21.2218 C   0  0  0  0  0  0
  -30.8702  -20.8224   21.2183 C   0  0  0  0  0  0
  -30.0506  -24.6446   21.3697 C   0  0  0  0  0  0
  -30.5490  -25.8986   20.6318 C   0  0  0  0  0  0
  -29.5524  -27.0665   20.7094 C   0  0  0  0  0  0
  -30.4710  -14.9017   21.9038 N   0  0  0  0  0  0
  -29.8813  -19.7688   21.4306 N   0  0  0  0  0  0
  -29.5430  -22.1751   22.7013 O   0  0  0  0  0  0
  -31.3540  -18.4504   23.3485 S   0  0  0  0  0  0
  -31.4639  -12.4105   19.0725 H   0  0  0  0  0  0
  -30.3310  -11.2587   19.7161 H   0  0  0  0  0  0
  -29.7157  -11.8746   17.3652 H   0  0  0  0  0  0
  -29.6514  -13.5614   17.7998 H   0  0  0  0  0  0
  -27.8073  -11.3400   18.7532 H   0  0  0  0  0  0
  -27.3602  -12.7202   17.7841 H   0  0  0  0  0  0
  -27.7375  -14.2602   19.6305 H   0  0  0  0  0  0
  -28.6540  -11.8607   21.2822 H   0  0  0  0  0  0
  -28.4446  -13.4714   21.8923 H   0  0  0  0  0  0
  -25.2747   -9.5695   22.4719 H   0  0  0  0  0  0
  -23.9987   -7.4654   22.7464 H   0  0  0  0  0  0
  -21.0817   -8.8778   19.8963 H   0  0  0  0  0  0
  -22.3677  -10.9664   19.6148 H   0  0  0  0  0  0
  -21.2029   -7.6134   23.9717 H   0  0  0  0  0  0
  -21.1468   -6.0504   25.9064 H   0  0  0  0  0  0
  -22.0597   -2.7607   23.2841 H   0  0  0  0  0  0
  -22.4087  -12.0014   22.4831 H   0  0  0  0  0  0
  -21.1095  -13.1372   22.2523 H   0  0  0  0  0  0
  -24.6674  -15.8430   20.5179 H   0  0  0  0  0  0
  -26.2959  -15.6274   20.1179 H   0  0  0  0  0  0
  -26.7089  -32.5585   23.1201 H   0  0  0  0  0  0
  -25.0011  -33.9821   25.0487 H   0  0  0  0  0  0
  -22.6856  -31.3096   21.4141 H   0  0  0  0  0  0
  -23.3744  -35.9668   23.3309 H   0  0  0  0  0  0
  -24.3582  -36.8936   22.2050 H   0  0  0  0  0  0
  -23.7239  -37.6541   23.6643 H   0  0  0  0  0  0
  -26.0188  -31.6130   20.5865 H   0  0  0  0  0  0
  -26.8135  -30.9148   21.9697 H   0  0  0  0  0  0
  -28.0880  -29.1747   21.1650 H   0  0  0  0  0  0
  -26.1027  -25.9932   19.0185 H   0  0  0  0  0  0
  -23.9895  -27.2846   19.0515 H   0  0  0  0  0  0
  -23.7167  -30.6006   19.4084 H   0  0  0  0  0  0
  -22.7338  -29.2426   19.8708 H   0  0  0  0  0  0
  -25.1269  -36.2011   25.0835 H   0  0  0  0  0  0
  -20.9943  -28.3226   24.1447 H   0  0  0  0  0  0
  -20.5642  -26.2269   23.3610 H   0  0  0  0  0  0
  -21.6633  -26.7431   22.1232 H   0  0  0  0  0  0
  -19.6896  -25.6296   21.1238 H   0  0  0  0  0  0
  -19.6676  -27.3205   20.6750 H   0  0  0  0  0  0
  -17.4180  -26.6668   21.4033 H   0  0  0  0  0  0
  -18.0317  -26.0063   22.9020 H   0  0  0  0  0  0
  -19.7923  -30.7239   24.2322 H   0  0  0  0  0  0
  -17.5013  -31.6264   24.5168 H   0  0  0  0  0  0
  -15.5350  -30.3019   23.7610 H   0  0  0  0  0  0
  -15.8659  -28.0850   22.7033 H   0  0  0  0  0  0
  -24.5904  -30.7064   25.7835 H   0  0  0  0  0  0
  -24.8929  -32.2863   26.4949 H   0  0  0  0  0  0
  -25.8096  -30.8880   27.0231 H   0  0  0  0  0  0
  -26.2786  -29.6860   24.1099 H   0  0  0  0  0  0
  -27.4055  -29.7266   25.4475 H   0  0  0  0  0  0
  -27.8614  -30.4407   23.9168 H   0  0  0  0  0  0
  -27.2671  -33.3609   26.2096 H   0  0  0  0  0  0
  -28.3825  -32.6905   25.0286 H   0  0  0  0  0  0
  -28.0737  -31.8422   26.5358 H   0  0  0  0  0  0
  -28.2602  -38.0115   24.7528 H   0  0  0  0  0  0
  -28.1084  -36.2649   24.6244 H   0  0  0  0  0  0
  -27.2309  -37.1427   25.8863 H   0  0  0  0  0  0
  -20.9266  -29.8783   21.7004 H   0  0  0  0  0  0
  -26.0187  -38.2890   24.1428 H   0  0  0  0  0  0
  -29.3724  -17.1120   20.5983 H   0  0  0  0  0  0
  -31.9369  -16.1376   23.9986 H   0  0  0  0  0  0
  -31.2056  -23.2615   20.1661 H   0  0  0  0  0  0
  -31.9506  -23.6298   21.7061 H   0  0  0  0  0  0
  -31.8334  -20.5697   21.6633 H   0  0  0  0  0  0
  -31.0379  -20.9502   20.1482 H   0  0  0  0  0  0
  -29.9144  -24.8774   22.4268 H   0  0  0  0  0  0
  -29.0643  -24.3719   20.9907 H   0  0  0  0  0  0
  -30.7458  -25.6617   19.5852 H   0  0  0  0  0  0
  -31.5031  -26.2120   21.0575 H   0  0  0  0  0  0
  -29.9833  -27.9553   20.2459 H   0  0  0  0  0  0
  -29.3346  -27.2946   21.7536 H   0  0  0  0  0  0
  -29.8405  -14.3825   22.4993 H   0  0  0  0  0  0
  -29.1376  -20.1705   22.0041 H   0  0  0  0  0  0
  1 25  1  0  0  0
  1 30  2  0  0  0
  1 81  1  0  0  0
  2  3  1  0  0  0
  2 25  1  0  0  0
  2 85  1  0  0  0
  2 86  1  0  0  0
  3  4  1  0  0  0
  3 87  1  0  0  0
  3 88  1  0  0  0
  4  5  1  0  0  0
  4 89  1  0  0  0
  4 90  1  0  0  0
  5  6  1  0  0  0
  5 26  1  0  0  0
  5 91  1  0  0  0
  6 25  1  0  0  0
  6 92  1  0  0  0
  6 93  1  0  0  0
  7  8  2  0  0  0
  7 26  1  0  0  0
  7 29  1  0  0  0
  8  9  1  0  0  0
  8 22  1  0  0  0
  9 10  1  0  0  0
  9 27  2  0  0  0
 10 11  2  0  0  0
 10 15  1  0  0  0
 11 12  1  0  0  0
 11 94  1  0  0  0
 12 13  2  0  0  0
 12 95  1  0  0  0
 13 14  1  0  0  0
 13 31  1  0  0  0
 14 15  2  0  0  0
 14 96  1  0  0  0
 15 97  1  0  0  0
 16 17  2  0  0  0
 16 21  1  0  0  0
 16 31  1  0  0  0
 17 18  1  0  0  0
 17 98  1  0  0  0
 18 19  2  0  0  0
 18 99  1  0  0  0
 19 20  1  0  0  0
 19 24  1  0  0  0
 20 21  2  0  0  0
 20100  1  0  0  0
 21 23  1  0  0  0
 22 28  1  0  0  0
 22 32  2  0  0  0
 26 27  1  0  0  0
 28101  1  0  0  0
 28102  1  0  0  0
 29103  1  0  0  0
 29104  1  0  0  0
 33 34  1  0  0  0
 33 66  1  0  0  0
 33 70  2  0  0  0
 34 36  1  0  0  0
 34 59  1  0  0  0
 34105  1  0  0  0
 35 44  2  0  0  0
 35 45  1  0  0  0
 35 68  1  0  0  0
 36 56  1  0  0  0
 36106  1  0  0  0
 37 39  1  0  0  0
 37 47  1  0  0  0
 37 66  1  0  0  0
 37107  1  0  0  0
 38 43  2  0  0  0
 38 46  1  0  0  0
 38 47  1  0  0  0
 39 64  1  0  0  0
 39 67  2  0  0  0
 40 52  1  0  0  0
 40 53  2  0  0  0
 40 58  1  0  0  0
 41108  1  0  0  0
 41109  1  0  0  0
 41110  1  0  0  0
 41 48  1  0  0  0
 42 43  1  0  0  0
 42 66  1  0  0  0
 42111  1  0  0  0
 42112  1  0  0  0
 43 44  1  0  0  0
 44113  1  0  0  0
 45 46  2  0  0  0
 45114  1  0  0  0
 46115  1  0  0  0
 47116  1  0  0  0
 47117  1  0  0  0
 48 56  1  0  0  0
 48 65  1  0  0  0
 48118  1  0  0  0
 49 50  1  0  0  0
 49 53  1  0  0  0
 49 64  1  0  0  0
 49119  1  0  0  0
 50 51  1  0  0  0
 50120  1  0  0  0
 50121  1  0  0  0
 51 52  1  0  0  0
 51122  1  0  0  0
 51123  1  0  0  0
 52124  1  0  0  0
 52125  1  0  0  0
 53 54  1  0  0  0
 54 55  2  0  0  0
 54126  1  0  0  0
 55 57  1  0  0  0
 55127  1  0  0  0
 56 69  2  0  0  0
 57 58  2  0  0  0
 57128  1  0  0  0
 58129  1  0  0  0
 59 60  1  0  0  0
 59 61  1  0  0  0
 59 62  1  0  0  0
 60130  1  0  0  0
 60131  1  0  0  0
 60132  1  0  0  0
 61133  1  0  0  0
 61134  1  0  0  0
 61135  1  0  0  0
 62136  1  0  0  0
 62137  1  0  0  0
 62138  1  0  0  0
 63 65  1  0  0  0
 63139  1  0  0  0
 63140  1  0  0  0
 63141  1  0  0  0
 64142  1  0  0  0
 65143  1  0  0  0
 68 80  1  0  0  0
 71 73  1  0  0  0
 71 74  2  0  0  0
 71144  1  0  0  0
 72 73  2  0  0  0
 72 84  1  0  0  0
 72145  1  0  0  0
 73 81  1  0  0  0
 74 82  1  0  0  0
 74 84  1  0  0  0
 75 76  1  0  0  0
 75 77  1  0  0  0
 75 83  2  0  0  0
 76 78  1  0  0  0
 76146  1  0  0  0
 76147  1  0  0  0
 77 82  1  0  0  0
 77148  1  0  0  0
 77149  1  0  0  0
 78 79  1  0  0  0
 78150  1  0  0  0
 78151  1  0  0  0
 79 80  1  0  0  0
 79152  1  0  0  0
 79153  1  0  0  0
 80154  1  0  0  0
 80155  1  0  0  0
 81156  1  0  0  0
 82157  1  0  0  0
M  ISO  4   1 100  68 101  80 101  81 100
M  END
> <chiral flag>
0

> <version>
0

> <s_m_source_file>
/data/baiqing/PycharmProjects/Reinvent-master-3.2/result/LINK_invent/BTK/process_docking_weight1_custom_product_contain_oxygen_bond_distance_aromatic_linkinvent_7_9_3/rearranged_h_0145.sdf

> <i_m_source_file_index>
16

> <r_mmod_Potential_Energy-OPLS-2005>
-46.8764533996582

> <r_mmod_Stretch_Energy-OPLS-2005>
30.0468006134033

> <r_mmod_Bend_Energy-OPLS-2005>
94.876106262207

> <r_mmod_Torsional_Energy-OPLS-2005>
244.751647949219

> <r_mmod_Improper_Torsional_Energy-OPLS-2005>
10.0369691848755

> <r_mmod_Van_der_Waal_Energy-OPLS-2005>
132.686309814453

> <r_mmod_Electrostatic_Energy-OPLS-2005>
-328.117034912109

> <r_mmod_Solvation_Energy-OPLS-2005>
-238.540878295898

> <b_mmod_Minimization_Converged-OPLS-2005>
0

> <r_mmod_RMS_Derivative-OPLS-2005>
2.55794453620911

$$$$
16
                    3D
 Structure written by MMmdl.
172181  0  0  1  0            999 V2000
  -30.6398  -14.6208   20.5091 C   0  0  0  0  0  0
  -30.4330  -12.3862   19.4427 C   0  0  0  0  0  0
  -29.5050  -12.5133   18.2147 C   0  0  0  0  0  0
  -28.0279  -12.3500   18.6284 C   0  0  0  0  0  0
  -27.6518  -13.2175   19.8596 C   0  0  2  0  0  0
  -28.6975  -13.0731   20.9879 C   0  0  0  0  0  0
  -25.2549  -13.8165   20.5670 C   0  0  0  0  0  0
  -24.1814  -13.0430   20.9191 C   0  0  0  0  0  0
  -24.6384  -11.6901   20.8732 C   0  0  0  0  0  0
  -23.9046  -10.4285   21.0408 C   0  0  0  0  0  0
  -24.3600   -9.4207   21.9189 C   0  0  0  0  0  0
  -23.6286   -8.2241   22.0757 C   0  0  0  0  0  0
  -22.4270   -8.0266   21.3549 C   0  0  0  0  0  0
  -21.9897   -9.0242   20.4658 C   0  0  0  0  0  0
  -22.7220  -10.2127   20.3060 C   0  0  0  0  0  0
  -21.6845   -6.0722   22.5281 C   0  0  0  0  0  0
  -21.4014   -6.5631   23.8214 C   0  0  0  0  0  0
  -21.3660   -5.6788   24.9179 C   0  0  0  0  0  0
  -21.6041   -4.3049   24.7231 C   0  0  0  0  0  0
  -21.8819   -3.8136   23.4355 C   0  0  0  0  0  0
  -21.9194   -4.6950   22.3409 C   0  0  0  0  0  0
  -22.7836  -13.5226   21.1861 C   0  0  0  0  0  0
  -22.1659   -4.2138   21.0987 F   0  0  0  0  0  0
  -21.5637   -3.4530   25.7747 F   0  0  0  0  0  0
  -30.0104  -13.4078   20.4197 N   0  0  0  0  0  0
  -26.2973  -12.9349   20.3291 N   0  0  0  0  0  0
  -25.9310  -11.6497   20.5729 N   0  0  0  0  0  0
  -22.0460  -12.8236   22.0409 N   0  0  0  0  0  0
  -25.4245  -15.1892   20.4098 N   0  0  0  0  0  0
  -31.8152  -14.7591   20.1590 O   0  0  0  0  0  0
  -21.6638   -6.8862   21.4247 O   0  0  0  0  0  0
  -22.3527  -14.5528   20.6702 O   0  0  0  0  0  0
  -24.6277  -31.8594   23.2053 C   0  0  0  0  0  0
  -25.9142  -32.4761   23.8351 C   0  0  1  0  0  0
  -27.2208  -27.3320   20.0889 C   0  0  0  0  0  0
  -25.5965  -33.8551   24.2298 N   0  0  0  0  0  0
  -23.4168  -30.4886   21.5496 C   0  0  2  0  0  0
  -24.8572  -28.9488   20.1111 C   0  0  0  0  0  0
  -22.7488  -29.4632   22.4964 C   0  0  0  0  0  0
  -18.0280  -28.1386   22.8476 C   0  0  0  0  0  0
  -24.1491  -36.7279   23.2647 C   0  0  0  0  0  0
  -25.9583  -30.7925   21.3746 C   0  0  0  0  0  0
  -26.0279  -29.4221   20.7147 C   0  0  0  0  0  0
  -27.2086  -28.6237   20.7002 C   0  0  0  0  0  0
  -26.0067  -26.8927   19.5065 C   0  0  0  0  0  0
  -24.8478  -27.6864   19.5042 C   0  0  0  0  0  0
  -23.6275  -29.8305   20.1624 C   0  0  0  0  0  0
  -25.4105  -36.3053   24.0344 C   0  0  1  0  0  0
  -20.5883  -28.3687   23.1302 C   0  0  2  0  0  0
  -20.6781  -26.9424   22.5409 C   0  0  0  0  0  0
  -19.5757  -26.6392   21.5207 C   0  0  0  0  0  0
  -18.1928  -26.7932   22.1611 C   0  0  0  0  0  0
  -19.1530  -28.8853   23.2873 C   0  0  0  0  0  0
  -18.9451  -30.1460   23.8886 C   0  0  0  0  0  0
  -17.6452  -30.6590   24.0554 C   0  0  0  0  0  0
  -25.9049  -34.9435   23.5110 C   0  0  0  0  0  0
  -16.5339  -29.9083   23.6335 C   0  0  0  0  0  0
  -16.7264  -28.6507   23.0343 C   0  0  0  0  0  0
  -26.4528  -31.6560   25.0707 C   0  0  0  0  0  0
  -25.3779  -31.3687   26.1448 C   0  0  0  0  0  0
  -27.0372  -30.2993   24.6141 C   0  0  0  0  0  0
  -27.6083  -32.4289   25.7474 C   0  0  0  0  0  0
  -27.5576  -37.1794   24.8466 C   0  0  0  0  0  0
  -21.4200  -29.3037   22.3707 N   0  0  0  0  0  0
  -26.4279  -37.3756   23.9413 N   0  0  0  0  0  0
  -24.6862  -31.0631   22.0997 N   0  0  0  0  0  0
  -23.4227  -28.8169   23.3031 O   0  0  0  0  0  0
  -28.3670  -26.5173   20.1172 O   0  0  0  0  0  0
  -26.5603  -34.8908   22.4666 O   0  0  0  0  0  0
  -23.5463  -32.1373   23.7429 O   0  0  0  0  0  0
  -31.3160  -17.6567   21.1787 C   0  0  0  0  0  0
  -31.2823  -19.0947   21.2593 C   0  0  0  0  0  0
  -30.0695  -19.6647   20.9078 C   0  0  0  0  0  0
  -30.1337  -17.0480   20.8355 C   0  0  0  0  0  0
  -28.2606  -21.5836   20.4347 C   0  0  0  0  0  0
  -30.6743  -22.0879   20.0751 C   0  0  0  0  0  0
  -27.9585  -23.1342   20.4404 C   0  0  0  0  0  0
  -30.3698  -23.6181   20.1496 C   0  0  0  0  0  0
  -29.7014  -21.1859   20.8931 C   0  0  2  0  0  0
  -28.9679  -23.9464   19.5836 C   0  0  2  0  0  0
  -32.4987  -19.8471   21.7104 C   0  0  0  0  0  0
  -28.6771  -27.0950   17.1634 C   0  0  0  0  0  0
  -30.7192  -26.8108   18.5477 C   0  0  0  0  0  0
  -29.9734  -25.0073   16.9588 C   0  0  0  0  0  0
  -28.5932  -25.4492   19.1231 C   0  0  2  0  0  0
  -29.4921  -26.0655   17.9812 C   0  0  0  0  0  0
  -29.8346  -15.6965   20.7795 N   0  0  0  0  0  0
  -28.9500  -18.3385   20.5274 S   0  0  0  0  0  0
  -31.4759  -12.5032   19.1424 H   0  0  0  0  0  0
  -30.3548  -11.3883   19.8794 H   0  0  0  0  0  0
  -29.7710  -11.7665   17.4659 H   0  0  0  0  0  0
  -29.6496  -13.4847   17.7380 H   0  0  0  0  0  0
  -27.8655  -11.2964   18.8575 H   0  0  0  0  0  0
  -27.3723  -12.5820   17.7878 H   0  0  0  0  0  0
  -27.6694  -14.2527   19.5165 H   0  0  0  0  0  0
  -28.7090  -12.0520   21.3726 H   0  0  0  0  0  0
  -28.4463  -13.7091   21.8382 H   0  0  0  0  0  0
  -25.2752   -9.5681   22.4753 H   0  0  0  0  0  0
  -24.0002   -7.4624   22.7467 H   0  0  0  0  0  0
  -21.0827   -8.8752   19.8967 H   0  0  0  0  0  0
  -22.3680  -10.9654   19.6153 H   0  0  0  0  0  0
  -21.2001   -7.6140   23.9714 H   0  0  0  0  0  0
  -21.1485   -6.0521   25.9087 H   0  0  0  0  0  0
  -22.0597   -2.7597   23.2857 H   0  0  0  0  0  0
  -22.4057  -11.9908   22.4836 H   0  0  0  0  0  0
  -21.1082  -13.1283   22.2588 H   0  0  0  0  0  0
  -24.6526  -15.8372   20.5166 H   0  0  0  0  0  0
  -26.2645  -15.6344   20.0618 H   0  0  0  0  0  0
  -26.7206  -32.5423   23.1092 H   0  0  0  0  0  0
  -25.0160  -33.9676   25.0482 H   0  0  0  0  0  0
  -22.7073  -31.3076   21.4170 H   0  0  0  0  0  0
  -23.3734  -35.9631   23.3285 H   0  0  0  0  0  0
  -24.3606  -36.8903   22.2069 H   0  0  0  0  0  0
  -23.7267  -37.6489   23.6671 H   0  0  0  0  0  0
  -26.0916  -31.5573   20.6083 H   0  0  0  0  0  0
  -26.8418  -30.8348   22.0008 H   0  0  0  0  0  0
  -28.1073  -28.9930   21.1742 H   0  0  0  0  0  0
  -25.8840  -25.9141   19.0730 H   0  0  0  0  0  0
  -23.9428  -27.3088   19.0479 H   0  0  0  0  0  0
  -23.7451  -30.6096   19.4087 H   0  0  0  0  0  0
  -22.7451  -29.2635   19.8611 H   0  0  0  0  0  0
  -25.1280  -36.1891   25.0836 H   0  0  0  0  0  0
  -20.9931  -28.3241   24.1437 H   0  0  0  0  0  0
  -20.5688  -26.2292   23.3590 H   0  0  0  0  0  0
  -21.6652  -26.7468   22.1202 H   0  0  0  0  0  0
  -19.6915  -25.6298   21.1245 H   0  0  0  0  0  0
  -19.6701  -27.3201   20.6736 H   0  0  0  0  0  0
  -17.4209  -26.6675   21.3999 H   0  0  0  0  0  0
  -18.0320  -26.0072   22.9008 H   0  0  0  0  0  0
  -19.7927  -30.7277   24.2245 H   0  0  0  0  0  0
  -17.5008  -31.6266   24.5163 H   0  0  0  0  0  0
  -15.5338  -30.2969   23.7694 H   0  0  0  0  0  0
  -15.8661  -28.0830   22.7048 H   0  0  0  0  0  0
  -24.5977  -30.6984   25.7814 H   0  0  0  0  0  0
  -24.8934  -32.2846   26.4849 H   0  0  0  0  0  0
  -25.8153  -30.8915   27.0233 H   0  0  0  0  0  0
  -26.2934  -29.6720   24.1216 H   0  0  0  0  0  0
  -27.4148  -29.7258   25.4620 H   0  0  0  0  0  0
  -27.8770  -30.4264   23.9300 H   0  0  0  0  0  0
  -27.2695  -33.3609   26.2010 H   0  0  0  0  0  0
  -28.3932  -32.6813   25.0326 H   0  0  0  0  0  0
  -28.0705  -31.8424   26.5427 H   0  0  0  0  0  0
  -28.2589  -38.0095   24.7505 H   0  0  0  0  0  0
  -28.1077  -36.2629   24.6277 H   0  0  0  0  0  0
  -27.2313  -37.1431   25.8877 H   0  0  0  0  0  0
  -20.9386  -29.8740   21.6894 H   0  0  0  0  0  0
  -26.0146  -38.2833   24.1382 H   0  0  0  0  0  0
  -32.2185  -17.1126   21.4223 H   0  0  0  0  0  0
  -28.0975  -21.2014   19.4258 H   0  0  0  0  0  0
  -27.5265  -21.0771   21.0639 H   0  0  0  0  0  0
  -31.6990  -21.9498   20.4051 H   0  0  0  0  0  0
  -30.6607  -21.7699   19.0317 H   0  0  0  0  0  0
  -27.9685  -23.5078   21.4650 H   0  0  0  0  0  0
  -26.9487  -23.3046   20.0667 H   0  0  0  0  0  0
  -31.1469  -24.1282   19.5887 H   0  0  0  0  0  0
  -30.4538  -23.9778   21.1752 H   0  0  0  0  0  0
  -29.7802  -21.5221   21.9288 H   0  0  0  0  0  0
  -28.9276  -23.4039   18.6402 H   0  0  0  0  0  0
  -33.1165  -19.2410   22.3736 H   0  0  0  0  0  0
  -32.2428  -20.7496   22.2656 H   0  0  0  0  0  0
  -33.1220  -20.1282   20.8621 H   0  0  0  0  0  0
  -29.2616  -27.4971   16.3353 H   0  0  0  0  0  0
  -28.3672  -27.9494   17.7643 H   0  0  0  0  0  0
  -27.7776  -26.6506   16.7369 H   0  0  0  0  0  0
  -31.3466  -27.1945   17.7418 H   0  0  0  0  0  0
  -31.3493  -26.1855   19.1741 H   0  0  0  0  0  0
  -30.4242  -27.6670   19.1549 H   0  0  0  0  0  0
  -30.4966  -25.4709   16.1223 H   0  0  0  0  0  0
  -29.1363  -24.4453   16.5408 H   0  0  0  0  0  0
  -30.6693  -24.2889   17.3903 H   0  0  0  0  0  0
  -27.6729  -25.2383   18.5948 H   0  0  0  0  0  0
  -28.8619  -15.4620   20.9027 H   0  0  0  0  0  0
  1 25  1  0  0  0
  1 30  2  0  0  0
  1 87  1  0  0  0
  2  3  1  0  0  0
  2 25  1  0  0  0
  2 89  1  0  0  0
  2 90  1  0  0  0
  3  4  1  0  0  0
  3 91  1  0  0  0
  3 92  1  0  0  0
  4  5  1  0  0  0
  4 93  1  0  0  0
  4 94  1  0  0  0
  5  6  1  0  0  0
  5 26  1  0  0  0
  5 95  1  0  0  0
  6 25  1  0  0  0
  6 96  1  0  0  0
  6 97  1  0  0  0
  7  8  2  0  0  0
  7 26  1  0  0  0
  7 29  1  0  0  0
  8  9  1  0  0  0
  8 22  1  0  0  0
  9 10  1  0  0  0
  9 27  2  0  0  0
 10 11  2  0  0  0
 10 15  1  0  0  0
 11 12  1  0  0  0
 11 98  1  0  0  0
 12 13  2  0  0  0
 12 99  1  0  0  0
 13 14  1  0  0  0
 13 31  1  0  0  0
 14 15  2  0  0  0
 14100  1  0  0  0
 15101  1  0  0  0
 16 17  2  0  0  0
 16 21  1  0  0  0
 16 31  1  0  0  0
 17 18  1  0  0  0
 17102  1  0  0  0
 18 19  2  0  0  0
 18103  1  0  0  0
 19 20  1  0  0  0
 19 24  1  0  0  0
 20 21  2  0  0  0
 20104  1  0  0  0
 21 23  1  0  0  0
 22 28  1  0  0  0
 22 32  2  0  0  0
 26 27  1  0  0  0
 28105  1  0  0  0
 28106  1  0  0  0
 29107  1  0  0  0
 29108  1  0  0  0
 33 34  1  0  0  0
 33 66  1  0  0  0
 33 70  2  0  0  0
 34 36  1  0  0  0
 34 59  1  0  0  0
 34109  1  0  0  0
 35 44  2  0  0  0
 35 45  1  0  0  0
 35 68  1  0  0  0
 36 56  1  0  0  0
 36110  1  0  0  0
 37 39  1  0  0  0
 37 47  1  0  0  0
 37 66  1  0  0  0
 37111  1  0  0  0
 38 43  2  0  0  0
 38 46  1  0  0  0
 38 47  1  0  0  0
 39 64  1  0  0  0
 39 67  2  0  0  0
 40 52  1  0  0  0
 40 53  2  0  0  0
 40 58  1  0  0  0
 41112  1  0  0  0
 41113  1  0  0  0
 41114  1  0  0  0
 41 48  1  0  0  0
 42 43  1  0  0  0
 42 66  1  0  0  0
 42115  1  0  0  0
 42116  1  0  0  0
 43 44  1  0  0  0
 44117  1  0  0  0
 45 46  2  0  0  0
 45118  1  0  0  0
 46119  1  0  0  0
 47120  1  0  0  0
 47121  1  0  0  0
 48 56  1  0  0  0
 48 65  1  0  0  0
 48122  1  0  0  0
 49 50  1  0  0  0
 49 53  1  0  0  0
 49 64  1  0  0  0
 49123  1  0  0  0
 50 51  1  0  0  0
 50124  1  0  0  0
 50125  1  0  0  0
 51 52  1  0  0  0
 51126  1  0  0  0
 51127  1  0  0  0
 52128  1  0  0  0
 52129  1  0  0  0
 53 54  1  0  0  0
 54 55  2  0  0  0
 54130  1  0  0  0
 55 57  1  0  0  0
 55131  1  0  0  0
 56 69  2  0  0  0
 57 58  2  0  0  0
 57132  1  0  0  0
 58133  1  0  0  0
 59 60  1  0  0  0
 59 61  1  0  0  0
 59 62  1  0  0  0
 60134  1  0  0  0
 60135  1  0  0  0
 60136  1  0  0  0
 61137  1  0  0  0
 61138  1  0  0  0
 61139  1  0  0  0
 62140  1  0  0  0
 62141  1  0  0  0
 62142  1  0  0  0
 63 65  1  0  0  0
 63143  1  0  0  0
 63144  1  0  0  0
 63145  1  0  0  0
 64146  1  0  0  0
 65147  1  0  0  0
 68 85  1  0  0  0
 71 72  1  0  0  0
 71 74  2  0  0  0
 71148  1  0  0  0
 72 73  2  0  0  0
 72 81  1  0  0  0
 73 88  1  0  0  0
 73 79  1  0  0  0
 74 87  1  0  0  0
 74 88  1  0  0  0
 75 77  1  0  0  0
 75 79  1  0  0  0
 75149  1  0  0  0
 75150  1  0  0  0
 76 78  1  0  0  0
 76 79  1  0  0  0
 76151  1  0  0  0
 76152  1  0  0  0
 77153  1  0  0  0
 77154  1  0  0  0
 77 80  1  0  0  0
 78 80  1  0  0  0
 78155  1  0  0  0
 78156  1  0  0  0
 79157  1  0  0  0
 80 85  1  0  0  0
 80158  1  0  0  0
 81159  1  0  0  0
 81160  1  0  0  0
 81161  1  0  0  0
 82162  1  0  0  0
 82163  1  0  0  0
 82164  1  0  0  0
 82 86  1  0  0  0
 83 86  1  0  0  0
 83165  1  0  0  0
 83166  1  0  0  0
 83167  1  0  0  0
 84 86  1  0  0  0
 84168  1  0  0  0
 84169  1  0  0  0
 84170  1  0  0  0
 85 86  1  0  0  0
 85171  1  0  0  0
 87172  1  0  0  0
M  ISO  4   1 100  68 101  85 101  87 100
M  END
> <chiral flag>
0

> <version>
0

> <s_m_source_file>
/data/baiqing/PycharmProjects/Reinvent-master-3.2/result/LINK_invent/BTK/process_docking_weight1_custom_product_contain_oxygen_bond_distance_aromatic_linkinvent_7_9_3/rearranged_h_0145.sdf

> <i_m_source_file_index>
17

> <r_mmod_Potential_Energy-OPLS-2005>
120.233909606934

> <r_mmod_Stretch_Energy-OPLS-2005>
78.7974624633789

> <r_mmod_Bend_Energy-OPLS-2005>
180.089492797852

> <r_mmod_Torsional_Energy-OPLS-2005>
239.856658935547

> <r_mmod_Improper_Torsional_Energy-OPLS-2005>
5.41830158233643

> <r_mmod_Van_der_Waal_Energy-OPLS-2005>
137.025329589844

> <r_mmod_Electrostatic_Energy-OPLS-2005>
-377.806243896484

> <r_mmod_Solvation_Energy-OPLS-2005>
-185.109283447266

> <b_mmod_Minimization_Converged-OPLS-2005>
0

> <r_mmod_RMS_Derivative-OPLS-2005>
2.35291051864624

$$$$
17
                    3D
 Structure written by MMmdl.
157165  0  0  1  0            999 V2000
  -30.7242  -14.5219   20.5120 C   0  0  0  0  0  0
  -30.3969  -12.3197   19.4444 C   0  0  0  0  0  0
  -29.4945  -12.5054   18.2123 C   0  0  0  0  0  0
  -28.0140  -12.3745   18.6192 C   0  0  0  0  0  0
  -27.6515  -13.2340   19.8615 C   0  0  2  0  0  0
  -28.6913  -13.0904   20.9930 C   0  0  0  0  0  0
  -25.2553  -13.8230   20.5658 C   0  0  0  0  0  0
  -24.1849  -13.0442   20.9148 C   0  0  0  0  0  0
  -24.6459  -11.6926   20.8744 C   0  0  0  0  0  0
  -23.9137  -10.4277   21.0405 C   0  0  0  0  0  0
  -24.3687   -9.4157   21.9150 C   0  0  0  0  0  0
  -23.6289   -8.2245   22.0788 C   0  0  0  0  0  0
  -22.4274   -8.0310   21.3580 C   0  0  0  0  0  0
  -21.9901   -9.0317   20.4707 C   0  0  0  0  0  0
  -22.7299  -10.2145   20.3061 C   0  0  0  0  0  0
  -21.6877   -6.0685   22.5228 C   0  0  0  0  0  0
  -21.4055   -6.5598   23.8152 C   0  0  0  0  0  0
  -21.3654   -5.6764   24.9124 C   0  0  0  0  0  0
  -21.6049   -4.3030   24.7205 C   0  0  0  0  0  0
  -21.8811   -3.8094   23.4327 C   0  0  0  0  0  0
  -21.9200   -4.6899   22.3371 C   0  0  0  0  0  0
  -22.7864  -13.5222   21.1809 C   0  0  0  0  0  0
  -22.1643   -4.2056   21.0968 F   0  0  0  0  0  0
  -21.5623   -3.4537   25.7739 F   0  0  0  0  0  0
  -30.0148  -13.3590   20.4173 N   0  0  0  0  0  0
  -26.3013  -12.9433   20.3334 N   0  0  0  0  0  0
  -25.9401  -11.6575   20.5804 N   0  0  0  0  0  0
  -22.0501  -12.8219   22.0369 N   0  0  0  0  0  0
  -25.4204  -15.1973   20.4070 N   0  0  0  0  0  0
  -31.8954  -14.5916   20.1309 O   0  0  0  0  0  0
  -21.6661   -6.8880   21.4221 O   0  0  0  0  0  0
  -22.3560  -14.5526   20.6666 O   0  0  0  0  0  0
  -24.6187  -31.8656   23.2077 C   0  0  0  0  0  0
  -25.9077  -32.4793   23.8367 C   0  0  1  0  0  0
  -27.2405  -27.4017   20.1031 C   0  0  0  0  0  0
  -25.5900  -33.8596   24.2289 N   0  0  0  0  0  0
  -23.4092  -30.4855   21.5537 C   0  0  2  0  0  0
  -24.8556  -28.9388   20.1301 C   0  0  0  0  0  0
  -22.7452  -29.4629   22.5030 C   0  0  0  0  0  0
  -18.0288  -28.1385   22.8513 C   0  0  0  0  0  0
  -24.1523  -36.7311   23.2638 C   0  0  0  0  0  0
  -25.9403  -30.8228   21.3636 C   0  0  0  0  0  0
  -26.0181  -29.4506   20.7180 C   0  0  0  0  0  0
  -27.2168  -28.6942   20.6913 C   0  0  0  0  0  0
  -26.0538  -26.8989   19.5314 C   0  0  0  0  0  0
  -24.8687  -27.6640   19.5366 C   0  0  0  0  0  0
  -23.6199  -29.8127   20.1722 C   0  0  0  0  0  0
  -25.4144  -36.3070   24.0314 C   0  0  1  0  0  0
  -20.5875  -28.3665   23.1363 C   0  0  2  0  0  0
  -20.6776  -26.9404   22.5449 C   0  0  0  0  0  0
  -19.5736  -26.6402   21.5261 C   0  0  0  0  0  0
  -18.1917  -26.7935   22.1661 C   0  0  0  0  0  0
  -19.1529  -28.8851   23.2930 C   0  0  0  0  0  0
  -18.9419  -30.1463   23.8922 C   0  0  0  0  0  0
  -17.6405  -30.6568   24.0595 C   0  0  0  0  0  0
  -25.9068  -34.9453   23.5107 C   0  0  0  0  0  0
  -16.5315  -29.9063   23.6335 C   0  0  0  0  0  0
  -16.7278  -28.6500   23.0341 C   0  0  0  0  0  0
  -26.4507  -31.6550   25.0687 C   0  0  0  0  0  0
  -25.3761  -31.3636   26.1406 C   0  0  0  0  0  0
  -27.0315  -30.2971   24.6051 C   0  0  0  0  0  0
  -27.6101  -32.4265   25.7444 C   0  0  0  0  0  0
  -27.5592  -37.1802   24.8455 C   0  0  0  0  0  0
  -21.4171  -29.2998   22.3741 N   0  0  0  0  0  0
  -26.4322  -37.3748   23.9381 N   0  0  0  0  0  0
  -24.6751  -31.0744   22.0992 N   0  0  0  0  0  0
  -23.4218  -28.8188   23.3095 O   0  0  0  0  0  0
  -28.4173  -26.6850   19.9832 O   0  0  0  0  0  0
  -26.5659  -34.8918   22.4682 O   0  0  0  0  0  0
  -23.5368  -32.1411   23.7456 O   0  0  0  0  0  0
  -30.0290  -19.3821   19.9990 C   0  0  0  0  0  0
  -28.5156  -19.7669   21.6052 C   0  0  0  0  0  0
  -29.1511  -20.3643   20.5484 C   0  0  0  0  0  0
  -29.9129  -18.2546   20.7798 C   0  0  0  0  0  0
  -28.4351  -22.7886   20.6262 C   0  0  0  0  0  0
  -30.4356  -24.7562   22.4870 C   0  0  0  0  0  0
  -30.7394  -16.9810   20.8380 C   0  0  0  0  0  0
  -28.5162  -24.1499   19.8718 C   0  0  0  0  0  0
  -30.0080  -25.6888   21.3478 C   0  0  0  0  0  0
  -28.5986  -25.4648   20.7433 C   0  0  1  0  0  0
  -29.0101  -21.7051   20.0453 N   0  0  0  0  0  0
  -30.0652  -15.6557   20.8464 N   0  0  0  0  0  0
  -27.8420  -22.7228   21.7065 O   0  0  0  0  0  0
  -28.9781  -18.4789   21.7579 O   0  0  0  0  0  0
  -31.4475  -12.3614   19.1539 H   0  0  0  0  0  0
  -30.2496  -11.3300   19.8807 H   0  0  0  0  0  0
  -29.7440  -11.7732   17.4415 H   0  0  0  0  0  0
  -29.6687  -13.4900   17.7733 H   0  0  0  0  0  0
  -27.8274  -11.3195   18.8228 H   0  0  0  0  0  0
  -27.3684  -12.6496   17.7824 H   0  0  0  0  0  0
  -27.6630  -14.2749   19.5366 H   0  0  0  0  0  0
  -28.6677  -12.0875   21.4201 H   0  0  0  0  0  0
  -28.4676  -13.7661   21.8203 H   0  0  0  0  0  0
  -25.2900   -9.5651   22.4584 H   0  0  0  0  0  0
  -23.9929   -7.4640   22.7579 H   0  0  0  0  0  0
  -21.0730   -8.8913   19.9105 H   0  0  0  0  0  0
  -22.3846  -10.9661   19.6087 H   0  0  0  0  0  0
  -21.2098   -7.6122   23.9644 H   0  0  0  0  0  0
  -21.1494   -6.0491   25.9032 H   0  0  0  0  0  0
  -22.0616   -2.7540   23.2847 H   0  0  0  0  0  0
  -22.4128  -11.9855   22.4662 H   0  0  0  0  0  0
  -21.1134  -13.1280   22.2633 H   0  0  0  0  0  0
  -24.6452  -15.8458   20.5053 H   0  0  0  0  0  0
  -26.2727  -15.6564   20.1137 H   0  0  0  0  0  0
  -26.7149  -32.5477   23.1121 H   0  0  0  0  0  0
  -24.9911  -33.9796   25.0332 H   0  0  0  0  0  0
  -22.6948  -31.3006   21.4174 H   0  0  0  0  0  0
  -23.3739  -35.9679   23.3307 H   0  0  0  0  0  0
  -24.3605  -36.8931   22.2044 H   0  0  0  0  0  0
  -23.7355  -37.6552   23.6663 H   0  0  0  0  0  0
  -26.0558  -31.5910   20.5973 H   0  0  0  0  0  0
  -26.8274  -30.8770   21.9812 H   0  0  0  0  0  0
  -28.1263  -29.1044   21.1086 H   0  0  0  0  0  0
  -26.0516  -25.9280   19.0552 H   0  0  0  0  0  0
  -23.9715  -27.2698   19.0811 H   0  0  0  0  0  0
  -23.7174  -30.5887   19.4117 H   0  0  0  0  0  0
  -22.7465  -29.2291   19.8802 H   0  0  0  0  0  0
  -25.1326  -36.1912   25.0797 H   0  0  0  0  0  0
  -20.9972  -28.3219   24.1495 H   0  0  0  0  0  0
  -20.5737  -26.2266   23.3628 H   0  0  0  0  0  0
  -21.6630  -26.7470   22.1191 H   0  0  0  0  0  0
  -19.6902  -25.6340   21.1229 H   0  0  0  0  0  0
  -19.6662  -27.3277   20.6838 H   0  0  0  0  0  0
  -17.4207  -26.6739   21.4045 H   0  0  0  0  0  0
  -18.0267  -26.0072   22.9036 H   0  0  0  0  0  0
  -19.7883  -30.7314   24.2273 H   0  0  0  0  0  0
  -17.4939  -31.6253   24.5176 H   0  0  0  0  0  0
  -15.5313  -30.2950   23.7635 H   0  0  0  0  0  0
  -15.8695  -28.0838   22.6982 H   0  0  0  0  0  0
  -24.5981  -30.6959   25.7683 H   0  0  0  0  0  0
  -24.8885  -32.2764   26.4821 H   0  0  0  0  0  0
  -25.8081  -30.8803   27.0167 H   0  0  0  0  0  0
  -26.2840  -29.6781   24.1056 H   0  0  0  0  0  0
  -27.4037  -29.7132   25.4482 H   0  0  0  0  0  0
  -27.8709  -30.4281   23.9221 H   0  0  0  0  0  0
  -27.2720  -33.3541   26.2069 H   0  0  0  0  0  0
  -28.3846  -32.6851   25.0219 H   0  0  0  0  0  0
  -28.0824  -31.8353   26.5292 H   0  0  0  0  0  0
  -28.2572  -38.0134   24.7456 H   0  0  0  0  0  0
  -28.1118  -36.2636   24.6297 H   0  0  0  0  0  0
  -27.2295  -37.1466   25.8863 H   0  0  0  0  0  0
  -20.9364  -29.8653   21.6868 H   0  0  0  0  0  0
  -26.0185  -38.2813   24.1357 H   0  0  0  0  0  0
  -30.7135  -19.5000   19.1696 H   0  0  0  0  0  0
  -27.7742  -20.0945   22.3217 H   0  0  0  0  0  0
  -30.5256  -23.7195   22.1622 H   0  0  0  0  0  0
  -29.7312  -24.8005   23.3191 H   0  0  0  0  0  0
  -31.4137  -25.0558   22.8653 H   0  0  0  0  0  0
  -31.3790  -17.0277   21.7210 H   0  0  0  0  0  0
  -31.4226  -17.0248   19.9871 H   0  0  0  0  0  0
  -27.6397  -24.1923   19.2292 H   0  0  0  0  0  0
  -29.3696  -24.1145   19.1941 H   0  0  0  0  0  0
  -30.0546  -26.7037   21.7463 H   0  0  0  0  0  0
  -30.7493  -25.6556   20.5494 H   0  0  0  0  0  0
  -27.8628  -25.4301   21.5475 H   0  0  0  0  0  0
  -29.4443  -21.8778   19.1460 H   0  0  0  0  0  0
  -29.0837  -15.6106   21.0760 H   0  0  0  0  0  0
  1 25  1  0  0  0
  1 30  2  0  0  0
  1 82  1  0  0  0
  2  3  1  0  0  0
  2 25  1  0  0  0
  2 85  1  0  0  0
  2 86  1  0  0  0
  3  4  1  0  0  0
  3 87  1  0  0  0
  3 88  1  0  0  0
  4  5  1  0  0  0
  4 89  1  0  0  0
  4 90  1  0  0  0
  5  6  1  0  0  0
  5 26  1  0  0  0
  5 91  1  0  0  0
  6 25  1  0  0  0
  6 92  1  0  0  0
  6 93  1  0  0  0
  7  8  2  0  0  0
  7 26  1  0  0  0
  7 29  1  0  0  0
  8  9  1  0  0  0
  8 22  1  0  0  0
  9 10  1  0  0  0
  9 27  2  0  0  0
 10 11  2  0  0  0
 10 15  1  0  0  0
 11 12  1  0  0  0
 11 94  1  0  0  0
 12 13  2  0  0  0
 12 95  1  0  0  0
 13 14  1  0  0  0
 13 31  1  0  0  0
 14 15  2  0  0  0
 14 96  1  0  0  0
 15 97  1  0  0  0
 16 17  2  0  0  0
 16 21  1  0  0  0
 16 31  1  0  0  0
 17 18  1  0  0  0
 17 98  1  0  0  0
 18 19  2  0  0  0
 18 99  1  0  0  0
 19 20  1  0  0  0
 19 24  1  0  0  0
 20 21  2  0  0  0
 20100  1  0  0  0
 21 23  1  0  0  0
 22 28  1  0  0  0
 22 32  2  0  0  0
 26 27  1  0  0  0
 28101  1  0  0  0
 28102  1  0  0  0
 29103  1  0  0  0
 29104  1  0  0  0
 33 34  1  0  0  0
 33 66  1  0  0  0
 33 70  2  0  0  0
 34 36  1  0  0  0
 34 59  1  0  0  0
 34105  1  0  0  0
 35 44  2  0  0  0
 35 45  1  0  0  0
 35 68  1  0  0  0
 36 56  1  0  0  0
 36106  1  0  0  0
 37 39  1  0  0  0
 37 47  1  0  0  0
 37 66  1  0  0  0
 37107  1  0  0  0
 38 43  2  0  0  0
 38 46  1  0  0  0
 38 47  1  0  0  0
 39 64  1  0  0  0
 39 67  2  0  0  0
 40 52  1  0  0  0
 40 53  2  0  0  0
 40 58  1  0  0  0
 41108  1  0  0  0
 41109  1  0  0  0
 41110  1  0  0  0
 41 48  1  0  0  0
 42 43  1  0  0  0
 42 66  1  0  0  0
 42111  1  0  0  0
 42112  1  0  0  0
 43 44  1  0  0  0
 44113  1  0  0  0
 45 46  2  0  0  0
 45114  1  0  0  0
 46115  1  0  0  0
 47116  1  0  0  0
 47117  1  0  0  0
 48 56  1  0  0  0
 48 65  1  0  0  0
 48118  1  0  0  0
 49 50  1  0  0  0
 49 53  1  0  0  0
 49 64  1  0  0  0
 49119  1  0  0  0
 50 51  1  0  0  0
 50120  1  0  0  0
 50121  1  0  0  0
 51 52  1  0  0  0
 51122  1  0  0  0
 51123  1  0  0  0
 52124  1  0  0  0
 52125  1  0  0  0
 53 54  1  0  0  0
 54 55  2  0  0  0
 54126  1  0  0  0
 55 57  1  0  0  0
 55127  1  0  0  0
 56 69  2  0  0  0
 57 58  2  0  0  0
 57128  1  0  0  0
 58129  1  0  0  0
 59 60  1  0  0  0
 59 61  1  0  0  0
 59 62  1  0  0  0
 60130  1  0  0  0
 60131  1  0  0  0
 60132  1  0  0  0
 61133  1  0  0  0
 61134  1  0  0  0
 61135  1  0  0  0
 62136  1  0  0  0
 62137  1  0  0  0
 62138  1  0  0  0
 63 65  1  0  0  0
 63139  1  0  0  0
 63140  1  0  0  0
 63141  1  0  0  0
 64142  1  0  0  0
 65143  1  0  0  0
 68 80  1  0  0  0
 71 73  1  0  0  0
 71 74  2  0  0  0
 71144  1  0  0  0
 72 73  2  0  0  0
 72 84  1  0  0  0
 72145  1  0  0  0
 73 81  1  0  0  0
 74 77  1  0  0  0
 74 84  1  0  0  0
 75 78  1  0  0  0
 75 81  1  0  0  0
 75 83  2  0  0  0
 76 79  1  0  0  0
 76146  1  0  0  0
 76147  1  0  0  0
 76148  1  0  0  0
 77 82  1  0  0  0
 77149  1  0  0  0
 77150  1  0  0  0
 78151  1  0  0  0
 78152  1  0  0  0
 78 80  1  0  0  0
 79 80  1  0  0  0
 79153  1  0  0  0
 79154  1  0  0  0
 80155  1  0  0  0
 81156  1  0  0  0
 82157  1  0  0  0
M  ISO  4   1 100  68 101  80 101  82 100
M  END
> <chiral flag>
0

> <version>
0

> <s_m_source_file>
/data/baiqing/PycharmProjects/Reinvent-master-3.2/result/LINK_invent/BTK/process_docking_weight1_custom_product_contain_oxygen_bond_distance_aromatic_linkinvent_7_9_3/rearranged_h_0145.sdf

> <i_m_source_file_index>
18

> <r_mmod_Potential_Energy-OPLS-2005>
-123.593719482422

> <r_mmod_Stretch_Energy-OPLS-2005>
46.0399971008301

> <r_mmod_Bend_Energy-OPLS-2005>
131.251174926758

> <r_mmod_Torsional_Energy-OPLS-2005>
232.058303833008

> <r_mmod_Improper_Torsional_Energy-OPLS-2005>
5.20872831344604

> <r_mmod_Van_der_Waal_Energy-OPLS-2005>
123.760131835938

> <r_mmod_Electrostatic_Energy-OPLS-2005>
-459.422729492188

> <r_mmod_Solvation_Energy-OPLS-2005>
-224.805847167969

> <b_mmod_Minimization_Converged-OPLS-2005>
0

> <r_mmod_RMS_Derivative-OPLS-2005>
5.32423496246338

$$$$
18
                    3D
 Structure written by MMmdl.
190198  0  0  1  0            999 V2000
  -29.0002  -14.8575   20.0117 C   0  0  0  0  0  0
  -30.3909  -12.8574   19.1828 C   0  0  0  0  0  0
  -29.4541  -12.3697   18.0443 C   0  0  0  0  0  0
  -28.1448  -11.7058   18.5816 C   0  0  0  0  0  0
  -27.7430  -12.4421   19.8445 C   0  0  2  0  0  0
  -28.8736  -12.5444   20.8373 C   0  0  0  0  0  0
  -26.1549  -13.1268   21.5337 C   0  0  0  0  0  0
  -24.8904  -13.1401   21.1362 C   0  0  0  0  0  0
  -24.8769  -11.5970   21.1755 C   0  0  0  0  0  0
  -23.9478  -10.3887   21.2644 C   0  0  0  0  0  0
  -24.4475   -9.2712   21.9603 C   0  0  0  0  0  0
  -23.7145   -8.0701   22.0590 C   0  0  0  0  0  0
  -22.4735   -7.9303   21.3968 C   0  0  0  0  0  0
  -21.9603   -8.9954   20.6824 C   0  0  0  0  0  0
  -22.6420  -10.1991   20.7269 C   0  0  0  0  0  0
  -21.6834   -6.0271   22.5360 C   0  0  0  0  0  0
  -21.3991   -6.5393   23.8194 C   0  0  0  0  0  0
  -21.3587   -5.6644   24.9215 C   0  0  0  0  0  0
  -21.5988   -4.2894   24.7359 C   0  0  0  0  0  0
  -21.8818   -3.7840   23.4538 C   0  0  0  0  0  0
  -21.9191   -4.6559   22.3535 C   0  0  0  0  0  0
  -23.0455  -14.9618   20.3439 C   0  0  0  0  0  0
  -22.1714   -4.1767   21.1116 F   0  0  0  0  0  0
  -21.5574   -3.4470   25.7933 F   0  0  0  0  0  0
  -29.5141  -13.5638   20.1609 N   0  0  0  0  0  0
  -26.6104  -12.2985   20.5760 N   0  0  0  0  0  0
  -25.9447  -11.2015   20.5504 N   0  0  0  0  0  0
  -21.6840  -14.8652   20.6309 N   0  0  0  0  0  0
  -26.9516  -14.0720   22.1232 N   0  0  0  0  0  0
  -30.0934  -15.5131   19.9370 O   0  0  0  0  0  0
  -21.6912   -6.8159   21.4252 O   0  0  0  0  0  0
  -23.1422  -15.9475   19.7073 O   0  0  0  0  0  0
  -24.6311  -31.8596   23.2013 C   0  0  0  0  0  0
  -25.9145  -32.4761   23.8361 C   0  0  1  0  0  0
  -27.0786  -27.1898   20.2441 C   0  0  0  0  0  0
  -25.5946  -33.8568   24.2280 N   0  0  0  0  0  0
  -23.4240  -30.4909   21.5436 C   0  0  2  0  0  0
  -24.8621  -28.9626   20.0827 C   0  0  0  0  0  0
  -22.7507  -29.4618   22.4855 C   0  0  0  0  0  0
  -18.0292  -28.1377   22.8497 C   0  0  0  0  0  0
  -24.1502  -36.7288   23.2635 C   0  0  0  0  0  0
  -25.9735  -30.7629   21.3907 C   0  0  0  0  0  0
  -26.0305  -29.3869   20.7334 C   0  0  0  0  0  0
  -27.1560  -28.5056   20.8144 C   0  0  0  0  0  0
  -25.9643  -26.9009   19.4375 C   0  0  0  0  0  0
  -24.8447  -27.7399   19.4010 C   0  0  0  0  0  0
  -23.6397  -29.8508   20.1472 C   0  0  0  0  0  0
  -25.4125  -36.3077   24.0331 C   0  0  1  0  0  0
  -20.5906  -28.3698   23.1246 C   0  0  2  0  0  0
  -20.6785  -26.9403   22.5406 C   0  0  0  0  0  0
  -19.5769  -26.6373   21.5211 C   0  0  0  0  0  0
  -18.1946  -26.7924   22.1619 C   0  0  0  0  0  0
  -19.1547  -28.8858   23.2873 C   0  0  0  0  0  0
  -18.9466  -30.1454   23.8900 C   0  0  0  0  0  0
  -17.6467  -30.6579   24.0573 C   0  0  0  0  0  0
  -25.9066  -34.9444   23.5101 C   0  0  0  0  0  0
  -16.5359  -29.9083   23.6328 C   0  0  0  0  0  0
  -16.7278  -28.6494   23.0361 C   0  0  0  0  0  0
  -26.4512  -31.6567   25.0737 C   0  0  0  0  0  0
  -25.3731  -31.3724   26.1450 C   0  0  0  0  0  0
  -27.0335  -30.2976   24.6210 C   0  0  0  0  0  0
  -27.6073  -32.4309   25.7509 C   0  0  0  0  0  0
  -27.5590  -37.1798   24.8463 C   0  0  0  0  0  0
  -21.4212  -29.3041   22.3614 N   0  0  0  0  0  0
  -26.4301  -37.3775   23.9400 N   0  0  0  0  0  0
  -24.6951  -31.0566   22.1003 N   0  0  0  0  0  0
  -23.4226  -28.8125   23.2913 O   0  0  0  0  0  0
  -27.8915  -26.0854   20.5618 O   0  0  0  0  0  0
  -26.5626  -34.8918   22.4664 O   0  0  0  0  0  0
  -23.5461  -32.1439   23.7289 O   0  0  0  0  0  0
  -22.7547  -13.0667   21.7400 C   0  0  0  0  0  0
  -24.6173  -13.7419   18.9525 C   0  0  0  0  0  0
  -25.0515  -15.4779   21.5373 C   0  0  0  0  0  0
  -23.1580  -12.7352   19.7365 C   0  0  0  0  0  0
  -23.7880  -14.5813   22.5503 C   0  0  0  0  0  0
  -25.6631  -14.9972   19.8981 C   0  0  0  0  0  0
  -22.1964  -12.2048   18.6637 C   0  0  0  0  0  0
  -24.1996  -20.6084   24.1236 C   0  0  0  0  0  0
  -24.2687  -17.5897   25.3315 C   0  0  0  0  0  0
  -22.0004  -16.0925   23.5777 C   0  0  0  0  0  0
  -25.7367  -23.3298   23.4004 C   0  0  0  0  0  0
  -27.6865  -21.8964   23.8579 C   0  0  0  0  0  0
  -29.0075  -23.8416   22.3062 C   0  0  0  0  0  0
  -27.9928  -22.6288   20.4124 C   0  0  0  0  0  0
  -24.5412  -18.4071   22.8544 C   0  0  0  0  0  0
  -25.9769  -20.9791   22.2374 C   0  0  0  0  0  0
  -27.0922  -24.9212   21.1964 C   0  0  0  0  0  0
  -25.2520  -19.8652   23.2772 C   0  0  1  0  0  0
  -24.4244  -17.0653   23.8803 C   0  0  2  0  0  0
  -23.4668  -15.6506   23.6930 C   0  0  2  0  0  0
  -26.7566  -22.4020   22.7158 C   0  0  0  0  0  0
  -27.6491  -23.4324   21.6739 C   0  0  0  0  0  0
  -27.4457  -15.3137   19.7843 N   0  0  0  0  0  0
  -23.5438  -14.9347   24.9053 O   0  0  0  0  0  0
  -31.1369  -13.5397   18.7729 H   0  0  0  0  0  0
  -30.9718  -12.0407   19.6183 H   0  0  0  0  0  0
  -29.9821  -11.6899   17.3742 H   0  0  0  0  0  0
  -29.1755  -13.2264   17.4265 H   0  0  0  0  0  0
  -28.3448  -10.6622   18.8269 H   0  0  0  0  0  0
  -27.3607  -11.6924   17.8193 H   0  0  0  0  0  0
  -27.4001  -13.2081   19.1875 H   0  0  0  0  0  0
  -29.3845  -11.5797   20.8706 H   0  0  0  0  0  0
  -28.7706  -12.7412   21.8973 H   0  0  0  0  0  0
  -25.4170   -9.3268   22.4358 H   0  0  0  0  0  0
  -24.1284   -7.2464   22.6230 H   0  0  0  0  0  0
  -20.9682   -8.9362   20.2570 H   0  0  0  0  0  0
  -21.9472  -10.9717   20.5348 H   0  0  0  0  0  0
  -21.2075   -7.5939   23.9542 H   0  0  0  0  0  0
  -21.1376   -6.0469   25.9077 H   0  0  0  0  0  0
  -22.0647   -2.7292   23.3146 H   0  0  0  0  0  0
  -21.3508  -14.0777   21.1617 H   0  0  0  0  0  0
  -21.0461  -15.5729   20.3042 H   0  0  0  0  0  0
  -26.3957  -14.5689   22.8074 H   0  0  0  0  0  0
  -27.1351  -14.7290   21.3723 H   0  0  0  0  0  0
  -26.7218  -32.5411   23.1105 H   0  0  0  0  0  0
  -25.0106  -33.9747   25.0432 H   0  0  0  0  0  0
  -22.7185  -31.3129   21.4108 H   0  0  0  0  0  0
  -23.3765  -35.9616   23.3289 H   0  0  0  0  0  0
  -24.3609  -36.8914   22.2052 H   0  0  0  0  0  0
  -23.7255  -37.6490   23.6664 H   0  0  0  0  0  0
  -26.1232  -31.5193   20.6194 H   0  0  0  0  0  0
  -26.8519  -30.8068   22.0225 H   0  0  0  0  0  0
  -28.0124  -28.7811   21.4144 H   0  0  0  0  0  0
  -25.8965  -25.9535   18.9221 H   0  0  0  0  0  0
  -23.9615  -27.4295   18.8573 H   0  0  0  0  0  0
  -23.7653  -30.6382   19.4042 H   0  0  0  0  0  0
  -22.7566  -29.2911   19.8356 H   0  0  0  0  0  0
  -25.1304  -36.1943   25.0828 H   0  0  0  0  0  0
  -21.0033  -28.3297   24.1356 H   0  0  0  0  0  0
  -20.5700  -26.2304   23.3621 H   0  0  0  0  0  0
  -21.6651  -26.7445   22.1190 H   0  0  0  0  0  0
  -19.6951  -25.6288   21.1244 H   0  0  0  0  0  0
  -19.6708  -27.3180   20.6744 H   0  0  0  0  0  0
  -17.4214  -26.6662   21.4018 H   0  0  0  0  0  0
  -18.0355  -26.0066   22.9020 H   0  0  0  0  0  0
  -19.7937  -30.7263   24.2279 H   0  0  0  0  0  0
  -17.5015  -31.6266   24.5153 H   0  0  0  0  0  0
  -15.5357  -30.2987   23.7642 H   0  0  0  0  0  0
  -15.8676  -28.0808   22.7089 H   0  0  0  0  0  0
  -24.5936  -30.7033   25.7791 H   0  0  0  0  0  0
  -24.8883  -32.2886   26.4829 H   0  0  0  0  0  0
  -25.8053  -30.8955   27.0253 H   0  0  0  0  0  0
  -26.2906  -29.6742   24.1218 H   0  0  0  0  0  0
  -27.3990  -29.7226   25.4725 H   0  0  0  0  0  0
  -27.8814  -30.4238   23.9472 H   0  0  0  0  0  0
  -27.2690  -33.3632   26.2049 H   0  0  0  0  0  0
  -28.3899  -32.6826   25.0337 H   0  0  0  0  0  0
  -28.0719  -31.8448   26.5450 H   0  0  0  0  0  0
  -28.2591  -38.0111   24.7519 H   0  0  0  0  0  0
  -28.1105  -36.2638   24.6278 H   0  0  0  0  0  0
  -27.2310  -37.1434   25.8868 H   0  0  0  0  0  0
  -20.9366  -29.8794   21.6868 H   0  0  0  0  0  0
  -26.0178  -38.2854   24.1383 H   0  0  0  0  0  0
  -21.8824  -12.6571   22.2334 H   0  0  0  0  0  0
  -24.9093  -13.4992   17.9413 H   0  0  0  0  0  0
  -25.6755  -16.2236   21.9844 H   0  0  0  0  0  0
  -22.4607  -11.2049   18.3203 H   0  0  0  0  0  0
  -22.2466  -12.8606   17.7944 H   0  0  0  0  0  0
  -21.1607  -12.2230   19.0051 H   0  0  0  0  0  0
  -23.3915  -19.9673   24.4715 H   0  0  0  0  0  0
  -23.7237  -21.4092   23.5552 H   0  0  0  0  0  0
  -24.6554  -21.0258   25.0208 H   0  0  0  0  0  0
  -24.9418  -18.4184   25.5401 H   0  0  0  0  0  0
  -24.5311  -16.8346   26.0723 H   0  0  0  0  0  0
  -23.2536  -17.9172   25.5500 H   0  0  0  0  0  0
  -21.8459  -16.6555   22.6568 H   0  0  0  0  0  0
  -21.6974  -16.7466   24.3959 H   0  0  0  0  0  0
  -21.3140  -15.2449   23.5691 H   0  0  0  0  0  0
  -25.2966  -22.8985   24.2908 H   0  0  0  0  0  0
  -24.9322  -23.6046   22.7179 H   0  0  0  0  0  0
  -26.2062  -24.2381   23.7732 H   0  0  0  0  0  0
  -27.1462  -21.3415   24.6230 H   0  0  0  0  0  0
  -28.1706  -22.6987   24.4140 H   0  0  0  0  0  0
  -28.4660  -21.2350   23.4770 H   0  0  0  0  0  0
  -29.6069  -24.4464   21.6233 H   0  0  0  0  0  0
  -29.6395  -22.9931   22.5645 H   0  0  0  0  0  0
  -28.8578  -24.4486   23.1998 H   0  0  0  0  0  0
  -28.6309  -23.2059   19.7420 H   0  0  0  0  0  0
  -27.0957  -22.3528   19.8607 H   0  0  0  0  0  0
  -28.5291  -21.7135   20.6638 H   0  0  0  0  0  0
  -25.0246  -18.1262   21.9232 H   0  0  0  0  0  0
  -23.5276  -18.6319   22.5231 H   0  0  0  0  0  0
  -25.2354  -21.2550   21.4877 H   0  0  0  0  0  0
  -26.7125  -20.3982   21.6800 H   0  0  0  0  0  0
  -26.6581  -25.4011   22.0705 H   0  0  0  0  0  0
  -26.2326  -24.6747   20.5778 H   0  0  0  0  0  0
  -26.0601  -19.5600   23.9404 H   0  0  0  0  0  0
  -25.4460  -16.6939   23.9397 H   0  0  0  0  0  0
  -27.5445  -16.2999   19.5823 H   0  0  0  0  0  0
  -22.9970  -14.1637   24.8094 H   0  0  0  0  0  0
  1 25  1  0  0  0
  1 30  2  0  0  0
  1 93  1  0  0  0
  2  3  1  0  0  0
  2 25  1  0  0  0
  2 95  1  0  0  0
  2 96  1  0  0  0
  3  4  1  0  0  0
  3 97  1  0  0  0
  3 98  1  0  0  0
  4  5  1  0  0  0
  4 99  1  0  0  0
  4100  1  0  0  0
  5  6  1  0  0  0
  5 26  1  0  0  0
  5101  1  0  0  0
  6 25  1  0  0  0
  6102  1  0  0  0
  6103  1  0  0  0
  7  8  2  0  0  0
  7 26  1  0  0  0
  7 29  1  0  0  0
  8  9  1  0  0  0
  8 22  1  0  0  0
  9 10  1  0  0  0
  9 27  2  0  0  0
 10 11  2  0  0  0
 10 15  1  0  0  0
 11 12  1  0  0  0
 11104  1  0  0  0
 12 13  2  0  0  0
 12105  1  0  0  0
 13 14  1  0  0  0
 13 31  1  0  0  0
 14 15  2  0  0  0
 14106  1  0  0  0
 15107  1  0  0  0
 16 17  2  0  0  0
 16 21  1  0  0  0
 16 31  1  0  0  0
 17 18  1  0  0  0
 17108  1  0  0  0
 18 19  2  0  0  0
 18109  1  0  0  0
 19 20  1  0  0  0
 19 24  1  0  0  0
 20 21  2  0  0  0
 20110  1  0  0  0
 21 23  1  0  0  0
 22 28  1  0  0  0
 22 32  2  0  0  0
 26 27  1  0  0  0
 28111  1  0  0  0
 28112  1  0  0  0
 29113  1  0  0  0
 29114  1  0  0  0
 33 34  1  0  0  0
 33 66  1  0  0  0
 33 70  2  0  0  0
 34 36  1  0  0  0
 34 59  1  0  0  0
 34115  1  0  0  0
 35 44  2  0  0  0
 35 45  1  0  0  0
 35 68  1  0  0  0
 36 56  1  0  0  0
 36116  1  0  0  0
 37 39  1  0  0  0
 37 47  1  0  0  0
 37 66  1  0  0  0
 37117  1  0  0  0
 38 43  2  0  0  0
 38 46  1  0  0  0
 38 47  1  0  0  0
 39 64  1  0  0  0
 39 67  2  0  0  0
 40 52  1  0  0  0
 40 53  2  0  0  0
 40 58  1  0  0  0
 41118  1  0  0  0
 41119  1  0  0  0
 41120  1  0  0  0
 41 48  1  0  0  0
 42 43  1  0  0  0
 42 66  1  0  0  0
 42121  1  0  0  0
 42122  1  0  0  0
 43 44  1  0  0  0
 44123  1  0  0  0
 45 46  2  0  0  0
 45124  1  0  0  0
 46125  1  0  0  0
 47126  1  0  0  0
 47127  1  0  0  0
 48 56  1  0  0  0
 48 65  1  0  0  0
 48128  1  0  0  0
 49 50  1  0  0  0
 49 53  1  0  0  0
 49 64  1  0  0  0
 49129  1  0  0  0
 50 51  1  0  0  0
 50130  1  0  0  0
 50131  1  0  0  0
 51 52  1  0  0  0
 51132  1  0  0  0
 51133  1  0  0  0
 52134  1  0  0  0
 52135  1  0  0  0
 53 54  1  0  0  0
 54 55  2  0  0  0
 54136  1  0  0  0
 55 57  1  0  0  0
 55137  1  0  0  0
 56 69  2  0  0  0
 57 58  2  0  0  0
 57138  1  0  0  0
 58139  1  0  0  0
 59 60  1  0  0  0
 59 61  1  0  0  0
 59 62  1  0  0  0
 60140  1  0  0  0
 60141  1  0  0  0
 60142  1  0  0  0
 61143  1  0  0  0
 61144  1  0  0  0
 61145  1  0  0  0
 62146  1  0  0  0
 62147  1  0  0  0
 62148  1  0  0  0
 63 65  1  0  0  0
 63149  1  0  0  0
 63150  1  0  0  0
 63151  1  0  0  0
 64152  1  0  0  0
 65153  1  0  0  0
 68 87  1  0  0  0
 71 74  2  0  0  0
 71 75  1  0  0  0
 71154  1  0  0  0
 72 74  1  0  0  0
 72 76  2  0  0  0
 72155  1  0  0  0
 73 75  2  0  0  0
 73 76  1  0  0  0
 73156  1  0  0  0
 74 77  1  0  0  0
 75 90  1  0  0  0
 76 93  1  0  0  0
 77157  1  0  0  0
 77158  1  0  0  0
 77159  1  0  0  0
 78160  1  0  0  0
 78161  1  0  0  0
 78162  1  0  0  0
 78 88  1  0  0  0
 79163  1  0  0  0
 79164  1  0  0  0
 79165  1  0  0  0
 79 89  1  0  0  0
 80166  1  0  0  0
 80167  1  0  0  0
 80168  1  0  0  0
 80 90  1  0  0  0
 81169  1  0  0  0
 81170  1  0  0  0
 81171  1  0  0  0
 81 91  1  0  0  0
 82 91  1  0  0  0
 82172  1  0  0  0
 82173  1  0  0  0
 82174  1  0  0  0
 83175  1  0  0  0
 83176  1  0  0  0
 83177  1  0  0  0
 83 92  1  0  0  0
 84 92  1  0  0  0
 84178  1  0  0  0
 84179  1  0  0  0
 84180  1  0  0  0
 85 88  1  0  0  0
 85 89  1  0  0  0
 85181  1  0  0  0
 85182  1  0  0  0
 86 88  1  0  0  0
 86 91  1  0  0  0
 86183  1  0  0  0
 86184  1  0  0  0
 87 92  1  0  0  0
 87185  1  0  0  0
 87186  1  0  0  0
 88187  1  0  0  0
 89 90  1  0  0  0
 89188  1  0  0  0
 90 94  1  0  0  0
 91 92  1  0  0  0
 93189  1  0  0  0
 94190  1  0  0  0
M  ISO  4   1 100  68 101  87 101  93 100
M  END
> <chiral flag>
0

> <version>
0

> <s_m_source_file>
/data/baiqing/PycharmProjects/Reinvent-master-3.2/result/LINK_invent/BTK/process_docking_weight1_custom_product_contain_oxygen_bond_distance_aromatic_linkinvent_7_9_3/rearranged_h_0145.sdf

> <i_m_source_file_index>
19

> <r_mmod_Potential_Energy-OPLS-2005>
14366.19140625

> <r_mmod_Stretch_Energy-OPLS-2005>
6692.5078125

> <r_mmod_Bend_Energy-OPLS-2005>
867.868347167969

> <r_mmod_Torsional_Energy-OPLS-2005>
674.824340820312

> <r_mmod_Improper_Torsional_Energy-OPLS-2005>
52.2654647827148

> <r_mmod_Van_der_Waal_Energy-OPLS-2005>
3368.68090820312

> <r_mmod_Electrostatic_Energy-OPLS-2005>
-518.353942871094

> <r_mmod_Solvation_Energy-OPLS-2005>
-188.608825683594

> <b_mmod_Minimization_Converged-OPLS-2005>
0

> <r_mmod_RMS_Derivative-OPLS-2005>
5.12430286407471

$$$$
19
                    3D
 Structure written by MMmdl.
166175  0  0  1  0            999 V2000
  -30.6173  -14.5495   20.5531 C   0  0  0  0  0  0
  -30.4348  -12.3487   19.4299 C   0  0  0  0  0  0
  -29.4968  -12.5189   18.2130 C   0  0  0  0  0  0
  -28.0170  -12.3644   18.6220 C   0  0  0  0  0  0
  -27.6560  -13.2047   19.8759 C   0  0  2  0  0  0
  -28.6971  -12.9754   20.9954 C   0  0  0  0  0  0
  -25.2546  -13.8161   20.5679 C   0  0  0  0  0  0
  -24.1798  -13.0438   20.9172 C   0  0  0  0  0  0
  -24.6350  -11.6900   20.8720 C   0  0  0  0  0  0
  -23.9021  -10.4286   21.0392 C   0  0  0  0  0  0
  -24.3586   -9.4204   21.9168 C   0  0  0  0  0  0
  -23.6274   -8.2238   22.0738 C   0  0  0  0  0  0
  -22.4261   -8.0264   21.3537 C   0  0  0  0  0  0
  -21.9885   -9.0226   20.4628 C   0  0  0  0  0  0
  -22.7199  -10.2109   20.3033 C   0  0  0  0  0  0
  -21.6849   -6.0723   22.5283 C   0  0  0  0  0  0
  -21.4011   -6.5627   23.8217 C   0  0  0  0  0  0
  -21.3662   -5.6783   24.9178 C   0  0  0  0  0  0
  -21.6049   -4.3044   24.7235 C   0  0  0  0  0  0
  -21.8817   -3.8129   23.4352 C   0  0  0  0  0  0
  -21.9189   -4.6949   22.3407 C   0  0  0  0  0  0
  -22.7824  -13.5226   21.1875 C   0  0  0  0  0  0
  -22.1651   -4.2136   21.0986 F   0  0  0  0  0  0
  -21.5642   -3.4530   25.7747 F   0  0  0  0  0  0
  -30.0231  -13.3241   20.4540 N   0  0  0  0  0  0
  -26.2976  -12.9317   20.3355 N   0  0  0  0  0  0
  -25.9274  -11.6482   20.5754 N   0  0  0  0  0  0
  -22.0472  -12.8190   22.0426 N   0  0  0  0  0  0
  -25.4309  -15.1880   20.4105 N   0  0  0  0  0  0
  -31.7385  -14.7830   20.0885 O   0  0  0  0  0  0
  -21.6633   -6.8854   21.4234 O   0  0  0  0  0  0
  -22.3494  -14.5541   20.6753 O   0  0  0  0  0  0
  -24.6173  -31.8659   23.2062 C   0  0  0  0  0  0
  -25.9048  -32.4831   23.8381 C   0  0  1  0  0  0
  -27.2356  -27.3978   20.1142 C   0  0  0  0  0  0
  -25.5877  -33.8630   24.2311 N   0  0  0  0  0  0
  -23.4071  -30.4874   21.5481 C   0  0  2  0  0  0
  -24.8556  -28.9427   20.1192 C   0  0  0  0  0  0
  -22.7429  -29.4648   22.4986 C   0  0  0  0  0  0
  -18.0269  -28.1389   22.8489 C   0  0  0  0  0  0
  -24.1479  -36.7301   23.2646 C   0  0  0  0  0  0
  -25.9374  -30.8217   21.3612 C   0  0  0  0  0  0
  -26.0188  -29.4509   20.7140 C   0  0  0  0  0  0
  -27.2142  -28.6887   20.7009 C   0  0  0  0  0  0
  -26.0563  -26.9087   19.5159 C   0  0  0  0  0  0
  -24.8719  -27.6724   19.5153 C   0  0  0  0  0  0
  -23.6201  -29.8170   20.1650 C   0  0  0  0  0  0
  -25.4101  -36.3116   24.0350 C   0  0  1  0  0  0
  -20.5862  -28.3674   23.1315 C   0  0  2  0  0  0
  -20.6773  -26.9417   22.5405 C   0  0  0  0  0  0
  -19.5742  -26.6386   21.5211 C   0  0  0  0  0  0
  -18.1919  -26.7936   22.1619 C   0  0  0  0  0  0
  -19.1524  -28.8843   23.2906 C   0  0  0  0  0  0
  -18.9463  -30.1449   23.8916 C   0  0  0  0  0  0
  -17.6469  -30.6600   24.0570 C   0  0  0  0  0  0
  -25.9029  -34.9489   23.5137 C   0  0  0  0  0  0
  -16.5356  -29.9113   23.6335 C   0  0  0  0  0  0
  -16.7261  -28.6530   23.0345 C   0  0  0  0  0  0
  -26.4456  -31.6616   25.0718 C   0  0  0  0  0  0
  -25.3712  -31.3714   26.1459 C   0  0  0  0  0  0
  -27.0309  -30.3083   24.6059 C   0  0  0  0  0  0
  -27.6019  -32.4348   25.7478 C   0  0  0  0  0  0
  -27.5576  -37.1807   24.8473 C   0  0  0  0  0  0
  -21.4147  -29.3063   22.3735 N   0  0  0  0  0  0
  -26.4284  -37.3807   23.9427 N   0  0  0  0  0  0
  -24.6734  -31.0733   22.0980 N   0  0  0  0  0  0
  -23.4192  -28.8193   23.3032 O   0  0  0  0  0  0
  -28.3856  -26.6289   20.0743 O   0  0  0  0  0  0
  -26.5596  -34.8950   22.4701 O   0  0  0  0  0  0
  -23.5355  -32.1405   23.7443 O   0  0  0  0  0  0
  -30.4135  -17.8864   20.7906 C   0  0  0  0  0  0
  -28.3814  -18.5158   20.1657 C   0  0  0  0  0  0
  -29.6180  -19.0458   20.4495 C   0  0  0  0  0  0
  -29.5972  -16.7816   20.7128 C   0  0  0  0  0  0
  -27.9217  -23.4281   19.3272 C   0  0  0  0  0  0
  -28.4066  -21.9703   19.2012 C   0  0  0  0  0  0
  -28.9540  -24.1092   20.2378 C   0  0  1  0  0  0
  -29.2798  -22.9082   21.2419 C   0  0  0  0  0  0
  -30.1880  -24.5090   19.3853 C   0  0  0  0  0  0
  -30.7094  -23.0412   21.8299 C   0  0  0  0  0  0
  -28.3073  -22.9011   22.4458 C   0  0  0  0  0  0
  -30.0760  -20.5270   20.4408 C   0  0  0  0  0  0
  -28.4094  -25.4385   20.9067 C   0  0  0  0  0  0
  -29.8434  -15.5005   21.1314 N   0  0  0  0  0  0
  -29.0153  -21.6065   20.5066 N   0  3  2  0  0  0
  -28.3432  -17.1594   20.3529 O   0  0  0  0  0  0
  -31.4755  -12.4804   19.1306 H   0  0  0  0  0  0
  -30.3689  -11.3349   19.8276 H   0  0  0  0  0  0
  -29.7458  -11.7910   17.4405 H   0  0  0  0  0  0
  -29.6476  -13.5023   17.7645 H   0  0  0  0  0  0
  -27.8367  -11.3075   18.8212 H   0  0  0  0  0  0
  -27.3637  -12.6286   17.7896 H   0  0  0  0  0  0
  -27.6958  -14.2532   19.5795 H   0  0  0  0  0  0
  -28.6897  -11.9277   21.2995 H   0  0  0  0  0  0
  -28.4412  -13.5342   21.8970 H   0  0  0  0  0  0
  -25.2732   -9.5705   22.4742 H   0  0  0  0  0  0
  -24.0003   -7.4623   22.7445 H   0  0  0  0  0  0
  -21.0832   -8.8707   19.8919 H   0  0  0  0  0  0
  -22.3638  -10.9638   19.6134 H   0  0  0  0  0  0
  -21.1986   -7.6132   23.9725 H   0  0  0  0  0  0
  -21.1497   -6.0506   25.9087 H   0  0  0  0  0  0
  -22.0594   -2.7596   23.2860 H   0  0  0  0  0  0
  -22.4080  -11.9827   22.4787 H   0  0  0  0  0  0
  -21.1083  -13.1186   22.2651 H   0  0  0  0  0  0
  -24.6711  -15.8510   20.5219 H   0  0  0  0  0  0
  -26.2987  -15.6263   20.1262 H   0  0  0  0  0  0
  -26.7114  -32.5525   23.1139 H   0  0  0  0  0  0
  -25.0069  -33.9796   25.0486 H   0  0  0  0  0  0
  -22.6973  -31.3055   21.4065 H   0  0  0  0  0  0
  -23.3767  -35.9612   23.3308 H   0  0  0  0  0  0
  -24.3565  -36.8895   22.2055 H   0  0  0  0  0  0
  -23.7192  -37.6496   23.6645 H   0  0  0  0  0  0
  -26.0423  -31.5821   20.5860 H   0  0  0  0  0  0
  -26.8278  -30.8834   21.9753 H   0  0  0  0  0  0
  -28.1163  -29.0816   21.1482 H   0  0  0  0  0  0
  -26.0577  -25.9345   19.0475 H   0  0  0  0  0  0
  -23.9790  -27.2756   19.0523 H   0  0  0  0  0  0
  -23.7368  -30.5940   19.4081 H   0  0  0  0  0  0
  -22.7401  -29.2458   19.8635 H   0  0  0  0  0  0
  -25.1275  -36.1990   25.0843 H   0  0  0  0  0  0
  -20.9942  -28.3234   24.1446 H   0  0  0  0  0  0
  -20.5683  -26.2288   23.3594 H   0  0  0  0  0  0
  -21.6637  -26.7474   22.1186 H   0  0  0  0  0  0
  -19.6923  -25.6303   21.1234 H   0  0  0  0  0  0
  -19.6695  -27.3213   20.6759 H   0  0  0  0  0  0
  -17.4195  -26.6701   21.4011 H   0  0  0  0  0  0
  -18.0308  -26.0064   22.9001 H   0  0  0  0  0  0
  -19.7948  -30.7243   24.2303 H   0  0  0  0  0  0
  -17.5048  -31.6298   24.5157 H   0  0  0  0  0  0
  -15.5369  -30.3044   23.7653 H   0  0  0  0  0  0
  -15.8648  -28.0869   22.7059 H   0  0  0  0  0  0
  -24.5905  -30.7033   25.7791 H   0  0  0  0  0  0
  -24.8881  -32.2871   26.4896 H   0  0  0  0  0  0
  -25.8062  -30.8898   27.0229 H   0  0  0  0  0  0
  -26.2864  -29.6836   24.1109 H   0  0  0  0  0  0
  -27.4129  -29.7306   25.4485 H   0  0  0  0  0  0
  -27.8657  -30.4452   23.9181 H   0  0  0  0  0  0
  -27.2633  -33.3661   26.2038 H   0  0  0  0  0  0
  -28.3837  -32.6885   25.0304 H   0  0  0  0  0  0
  -28.0675  -31.8485   26.5404 H   0  0  0  0  0  0
  -28.2593  -38.0110   24.7544 H   0  0  0  0  0  0
  -28.1074  -36.2641   24.6274 H   0  0  0  0  0  0
  -27.2298  -37.1415   25.8879 H   0  0  0  0  0  0
  -20.9304  -29.8816   21.6985 H   0  0  0  0  0  0
  -26.0180  -38.2888   24.1447 H   0  0  0  0  0  0
  -31.4503  -17.8722   21.0967 H   0  0  0  0  0  0
  -27.4327  -18.9404   19.8643 H   0  0  0  0  0  0
  -26.9390  -23.4389   19.7994 H   0  0  0  0  0  0
  -27.8128  -23.9237   18.3616 H   0  0  0  0  0  0
  -29.1521  -21.9044   18.4076 H   0  0  0  0  0  0
  -27.5920  -21.2984   18.9302 H   0  0  0  0  0  0
  -30.6874  -23.6542   18.9304 H   0  0  0  0  0  0
  -30.9280  -25.0466   19.9793 H   0  0  0  0  0  0
  -29.9072  -25.1783   18.5719 H   0  0  0  0  0  0
  -30.8627  -24.0344   22.2532 H   0  0  0  0  0  0
  -31.4889  -22.8875   21.0833 H   0  0  0  0  0  0
  -30.8892  -22.3381   22.6438 H   0  0  0  0  0  0
  -28.4264  -23.7816   23.0776 H   0  0  0  0  0  0
  -28.4772  -22.0365   23.0903 H   0  0  0  0  0  0
  -27.2629  -22.8632   22.1361 H   0  0  0  0  0  0
  -30.7370  -20.6974   19.5905 H   0  0  0  0  0  0
  -30.7121  -20.5853   21.3196 H   0  0  0  0  0  0
  -29.0726  -25.6941   21.7348 H   0  0  0  0  0  0
  -27.4345  -25.2642   21.3650 H   0  0  0  0  0  0
  -29.0362  -15.0688   21.5536 H   0  0  0  0  0  0
  -28.2753  -21.1890   21.0488 H   0  0  0  0  0  0
  1 25  1  0  0  0
  1 30  2  0  0  0
  1 84  1  0  0  0
  2  3  1  0  0  0
  2 25  1  0  0  0
  2 87  1  0  0  0
  2 88  1  0  0  0
  3  4  1  0  0  0
  3 89  1  0  0  0
  3 90  1  0  0  0
  4  5  1  0  0  0
  4 91  1  0  0  0
  4 92  1  0  0  0
  5  6  1  0  0  0
  5 26  1  0  0  0
  5 93  1  0  0  0
  6 25  1  0  0  0
  6 94  1  0  0  0
  6 95  1  0  0  0
  7  8  2  0  0  0
  7 26  1  0  0  0
  7 29  1  0  0  0
  8  9  1  0  0  0
  8 22  1  0  0  0
  9 10  1  0  0  0
  9 27  2  0  0  0
 10 11  2  0  0  0
 10 15  1  0  0  0
 11 12  1  0  0  0
 11 96  1  0  0  0
 12 13  2  0  0  0
 12 97  1  0  0  0
 13 14  1  0  0  0
 13 31  1  0  0  0
 14 15  2  0  0  0
 14 98  1  0  0  0
 15 99  1  0  0  0
 16 17  2  0  0  0
 16 21  1  0  0  0
 16 31  1  0  0  0
 17 18  1  0  0  0
 17100  1  0  0  0
 18 19  2  0  0  0
 18101  1  0  0  0
 19 20  1  0  0  0
 19 24  1  0  0  0
 20 21  2  0  0  0
 20102  1  0  0  0
 21 23  1  0  0  0
 22 28  1  0  0  0
 22 32  2  0  0  0
 26 27  1  0  0  0
 28103  1  0  0  0
 28104  1  0  0  0
 29105  1  0  0  0
 29106  1  0  0  0
 33 34  1  0  0  0
 33 66  1  0  0  0
 33 70  2  0  0  0
 34 36  1  0  0  0
 34 59  1  0  0  0
 34107  1  0  0  0
 35 44  2  0  0  0
 35 45  1  0  0  0
 35 68  1  0  0  0
 36 56  1  0  0  0
 36108  1  0  0  0
 37 39  1  0  0  0
 37 47  1  0  0  0
 37 66  1  0  0  0
 37109  1  0  0  0
 38 43  2  0  0  0
 38 46  1  0  0  0
 38 47  1  0  0  0
 39 64  1  0  0  0
 39 67  2  0  0  0
 40 52  1  0  0  0
 40 53  2  0  0  0
 40 58  1  0  0  0
 41110  1  0  0  0
 41111  1  0  0  0
 41112  1  0  0  0
 41 48  1  0  0  0
 42 43  1  0  0  0
 42 66  1  0  0  0
 42113  1  0  0  0
 42114  1  0  0  0
 43 44  1  0  0  0
 44115  1  0  0  0
 45 46  2  0  0  0
 45116  1  0  0  0
 46117  1  0  0  0
 47118  1  0  0  0
 47119  1  0  0  0
 48 56  1  0  0  0
 48 65  1  0  0  0
 48120  1  0  0  0
 49 50  1  0  0  0
 49 53  1  0  0  0
 49 64  1  0  0  0
 49121  1  0  0  0
 50 51  1  0  0  0
 50122  1  0  0  0
 50123  1  0  0  0
 51 52  1  0  0  0
 51124  1  0  0  0
 51125  1  0  0  0
 52126  1  0  0  0
 52127  1  0  0  0
 53 54  1  0  0  0
 54 55  2  0  0  0
 54128  1  0  0  0
 55 57  1  0  0  0
 55129  1  0  0  0
 56 69  2  0  0  0
 57 58  2  0  0  0
 57130  1  0  0  0
 58131  1  0  0  0
 59 60  1  0  0  0
 59 61  1  0  0  0
 59 62  1  0  0  0
 60132  1  0  0  0
 60133  1  0  0  0
 60134  1  0  0  0
 61135  1  0  0  0
 61136  1  0  0  0
 61137  1  0  0  0
 62138  1  0  0  0
 62139  1  0  0  0
 62140  1  0  0  0
 63 65  1  0  0  0
 63141  1  0  0  0
 63142  1  0  0  0
 63143  1  0  0  0
 64144  1  0  0  0
 65145  1  0  0  0
 68 83  1  0  0  0
 71 73  1  0  0  0
 71 74  2  0  0  0
 71146  1  0  0  0
 72 73  2  0  0  0
 72 86  1  0  0  0
 72147  1  0  0  0
 73 82  1  0  0  0
 74 84  1  0  0  0
 74 86  1  0  0  0
 75 76  1  0  0  0
 75 77  1  0  0  0
 75148  1  0  0  0
 75149  1  0  0  0
 76 85  1  0  0  0
 76150  1  0  0  0
 76151  1  0  0  0
 77 78  1  0  0  0
 77 79  1  0  0  0
 77 83  1  0  0  0
 78 80  1  0  0  0
 78 81  1  0  0  0
 78 85  1  0  0  0
 79152  1  0  0  0
 79153  1  0  0  0
 79154  1  0  0  0
 80155  1  0  0  0
 80156  1  0  0  0
 80157  1  0  0  0
 81158  1  0  0  0
 81159  1  0  0  0
 81160  1  0  0  0
 82161  1  0  0  0
 82162  1  0  0  0
 82 85  1  0  0  0
 83163  1  0  0  0
 83164  1  0  0  0
 84165  1  0  0  0
 85166  1  0  0  0
M  CHG  1  85   1
M  ISO  4   1 100  68 101  83 101  84 100
M  END
> <chiral flag>
0

> <version>
0

> <s_m_source_file>
/data/baiqing/PycharmProjects/Reinvent-master-3.2/result/LINK_invent/BTK/process_docking_weight1_custom_product_contain_oxygen_bond_distance_aromatic_linkinvent_7_9_3/rearranged_h_0145.sdf

> <i_m_source_file_index>
20

> <r_mmod_Potential_Energy-OPLS-2005>
-6.06600952148438

> <r_mmod_Stretch_Energy-OPLS-2005>
57.9674873352051

> <r_mmod_Bend_Energy-OPLS-2005>
162.613494873047

> <r_mmod_Torsional_Energy-OPLS-2005>
346.680389404297

> <r_mmod_Improper_Torsional_Energy-OPLS-2005>
6.34927034378052

> <r_mmod_Van_der_Waal_Energy-OPLS-2005>
125.669647216797

> <r_mmod_Electrostatic_Energy-OPLS-2005>
-292.29248046875

> <r_mmod_Solvation_Energy-OPLS-2005>
-434.851959228516

> <b_mmod_Minimization_Converged-OPLS-2005>
0

> <r_mmod_RMS_Derivative-OPLS-2005>
2.27435326576233

$$$$
20
                    3D
 Structure written by MMmdl.
179187  0  0  1  0            999 V2000
  -30.7052  -14.3916   20.7500 C   0  0  0  0  0  0
  -30.4392  -12.3286   19.3891 C   0  0  0  0  0  0
  -29.4973  -12.5666   18.1909 C   0  0  0  0  0  0
  -28.0192  -12.4035   18.6010 C   0  0  0  0  0  0
  -27.6718  -13.1960   19.8884 C   0  0  2  0  0  0
  -28.7055  -12.8783   20.9899 C   0  0  0  0  0  0
  -25.2616  -13.8128   20.5661 C   0  0  0  0  0  0
  -24.1865  -13.0430   20.9155 C   0  0  0  0  0  0
  -24.6368  -11.6869   20.8689 C   0  0  0  0  0  0
  -23.9007  -10.4283   21.0382 C   0  0  0  0  0  0
  -24.3577   -9.4218   21.9169 C   0  0  0  0  0  0
  -23.6266   -8.2247   22.0744 C   0  0  0  0  0  0
  -22.4247   -8.0258   21.3538 C   0  0  0  0  0  0
  -21.9874   -9.0232   20.4639 C   0  0  0  0  0  0
  -22.7178  -10.2123   20.3042 C   0  0  0  0  0  0
  -21.6851   -6.0709   22.5268 C   0  0  0  0  0  0
  -21.4005   -6.5624   23.8196 C   0  0  0  0  0  0
  -21.3668   -5.6792   24.9175 C   0  0  0  0  0  0
  -21.6045   -4.3048   24.7233 C   0  0  0  0  0  0
  -21.8821   -3.8125   23.4359 C   0  0  0  0  0  0
  -21.9183   -4.6935   22.3406 C   0  0  0  0  0  0
  -22.7883  -13.5237   21.1844 C   0  0  0  0  0  0
  -22.1659   -4.2119   21.0984 F   0  0  0  0  0  0
  -21.5639   -3.4532   25.7752 F   0  0  0  0  0  0
  -30.0491  -13.2297   20.4831 N   0  0  0  0  0  0
  -26.3053  -12.9287   20.3360 N   0  0  0  0  0  0
  -25.9287  -11.6439   20.5684 N   0  0  0  0  0  0
  -22.0495  -12.8254   22.0407 N   0  0  0  0  0  0
  -25.4359  -15.1848   20.4095 N   0  0  0  0  0  0
  -31.7127  -14.7514   20.1261 O   0  0  0  0  0  0
  -21.6628   -6.8846   21.4226 O   0  0  0  0  0  0
  -22.3568  -14.5568   20.6693 O   0  0  0  0  0  0
  -24.6110  -31.8706   23.2135 C   0  0  0  0  0  0
  -25.9017  -32.4856   23.8407 C   0  0  1  0  0  0
  -27.2440  -27.4477   20.1206 C   0  0  0  0  0  0
  -25.5871  -33.8629   24.2340 N   0  0  0  0  0  0
  -23.3998  -30.4908   21.5538 C   0  0  2  0  0  0
  -24.8527  -28.9452   20.1340 C   0  0  0  0  0  0
  -22.7382  -29.4694   22.5062 C   0  0  0  0  0  0
  -18.0245  -28.1374   22.8498 C   0  0  0  0  0  0
  -24.1459  -36.7307   23.2654 C   0  0  0  0  0  0
  -25.9248  -30.8344   21.3686 C   0  0  0  0  0  0
  -26.0073  -29.4628   20.7367 C   0  0  0  0  0  0
  -27.2065  -28.7157   20.7375 C   0  0  0  0  0  0
  -26.0791  -26.9370   19.5142 C   0  0  0  0  0  0
  -24.8782  -27.6757   19.5281 C   0  0  0  0  0  0
  -23.6125  -29.8117   20.1736 C   0  0  0  0  0  0
  -25.4085  -36.3122   24.0362 C   0  0  1  0  0  0
  -20.5847  -28.3646   23.1333 C   0  0  2  0  0  0
  -20.6756  -26.9389   22.5425 C   0  0  0  0  0  0
  -19.5743  -26.6381   21.5217 C   0  0  0  0  0  0
  -18.1908  -26.7927   22.1608 C   0  0  0  0  0  0
  -19.1508  -28.8825   23.2908 C   0  0  0  0  0  0
  -18.9450  -30.1437   23.8914 C   0  0  0  0  0  0
  -17.6469  -30.6606   24.0564 C   0  0  0  0  0  0
  -25.9008  -34.9488   23.5159 C   0  0  0  0  0  0
  -16.5345  -29.9120   23.6326 C   0  0  0  0  0  0
  -16.7238  -28.6521   23.0378 C   0  0  0  0  0  0
  -26.4445  -31.6641   25.0723 C   0  0  0  0  0  0
  -25.3715  -31.3763   26.1485 C   0  0  0  0  0  0
  -27.0289  -30.3099   24.6081 C   0  0  0  0  0  0
  -27.6013  -32.4379   25.7469 C   0  0  0  0  0  0
  -27.5562  -37.1795   24.8471 C   0  0  0  0  0  0
  -21.4115  -29.3028   22.3763 N   0  0  0  0  0  0
  -26.4278  -37.3805   23.9433 N   0  0  0  0  0  0
  -24.6630  -31.0789   22.1051 N   0  0  0  0  0  0
  -23.4128  -28.8260   23.3134 O   0  0  0  0  0  0
  -28.4110  -26.7335   20.0181 O   0  0  0  0  0  0
  -26.5580  -34.8962   22.4724 O   0  0  0  0  0  0
  -23.5309  -32.1448   23.7540 O   0  0  0  0  0  0
  -29.9974  -19.1386   22.9425 C   0  0  0  0  0  0
  -29.0358  -18.2199   23.3872 C   0  0  0  0  0  0
  -31.1487  -17.3600   21.7481 C   0  0  0  0  0  0
  -31.0519  -18.7293   22.1006 C   0  0  0  0  0  0
  -29.0825  -16.8700   22.9807 C   0  0  0  0  0  0
  -30.1645  -16.4254   22.1662 C   0  0  0  0  0  0
  -30.6061  -24.2236   21.8479 C   0  0  0  0  0  0
  -26.6792  -16.5479   23.9804 C   0  0  0  0  0  0
  -33.0836  -24.1914   21.4925 C   0  0  0  0  0  0
  -31.5876  -22.7558   20.0454 C   0  0  0  0  0  0
  -32.9842  -20.2048   23.7754 C   0  0  0  0  0  0
  -34.1585  -21.0439   21.7821 C   0  0  0  0  0  0
  -31.9938  -19.7594   21.4589 C   0  0  0  0  0  0
  -27.9402  -15.9165   23.3537 C   0  0  0  0  0  0
  -30.0820  -25.2196   20.7964 C   0  0  0  0  0  0
  -31.9307  -22.1465   22.5458 C   0  0  0  0  0  0
  -28.8105  -26.0046   21.1790 C   0  0  0  0  0  0
  -31.8161  -23.3021   21.4741 C   0  0  0  0  0  0
  -32.7435  -20.8043   22.3636 C   0  0  0  0  0  0
  -30.1991  -15.0416   21.8166 N   0  0  0  0  0  0
  -30.0933  -24.1903   22.9735 O   0  0  0  0  0  0
  -31.4796  -12.4733   19.0915 H   0  0  0  0  0  0
  -30.3701  -11.2906   19.7187 H   0  0  0  0  0  0
  -29.7423  -11.8788   17.3801 H   0  0  0  0  0  0
  -29.6620  -13.5706   17.7946 H   0  0  0  0  0  0
  -27.8358  -11.3401   18.7572 H   0  0  0  0  0  0
  -27.3694  -12.7090   17.7823 H   0  0  0  0  0  0
  -27.7441  -14.2590   19.6549 H   0  0  0  0  0  0
  -28.6831  -11.8103   21.2173 H   0  0  0  0  0  0
  -28.4268  -13.3542   21.9284 H   0  0  0  0  0  0
  -25.2713   -9.5706   22.4741 H   0  0  0  0  0  0
  -23.9972   -7.4642   22.7476 H   0  0  0  0  0  0
  -21.0795   -8.8725   19.8957 H   0  0  0  0  0  0
  -22.3608  -10.9645   19.6156 H   0  0  0  0  0  0
  -21.1983   -7.6124   23.9696 H   0  0  0  0  0  0
  -21.1504   -6.0518   25.9081 H   0  0  0  0  0  0
  -22.0587   -2.7578   23.2866 H   0  0  0  0  0  0
  -22.4073  -11.9907   22.4837 H   0  0  0  0  0  0
  -21.1095  -13.1299   22.2571 H   0  0  0  0  0  0
  -24.6710  -15.8396   20.5185 H   0  0  0  0  0  0
  -26.2981  -15.6267   20.1144 H   0  0  0  0  0  0
  -26.7090  -32.5604   23.1181 H   0  0  0  0  0  0
  -25.0003  -33.9781   25.0468 H   0  0  0  0  0  0
  -22.6888  -31.3072   21.4092 H   0  0  0  0  0  0
  -23.3729  -35.9628   23.3325 H   0  0  0  0  0  0
  -24.3566  -36.8903   22.2062 H   0  0  0  0  0  0
  -23.7184  -37.6515   23.6653 H   0  0  0  0  0  0
  -26.0214  -31.5835   20.5814 H   0  0  0  0  0  0
  -26.8209  -30.9071   21.9735 H   0  0  0  0  0  0
  -28.1002  -29.1110   21.1975 H   0  0  0  0  0  0
  -26.1010  -25.9691   19.0358 H   0  0  0  0  0  0
  -23.9924  -27.2678   19.0602 H   0  0  0  0  0  0
  -23.7248  -30.5824   19.4089 H   0  0  0  0  0  0
  -22.7342  -29.2326   19.8810 H   0  0  0  0  0  0
  -25.1240  -36.1992   25.0858 H   0  0  0  0  0  0
  -20.9877  -28.3219   24.1476 H   0  0  0  0  0  0
  -20.5689  -26.2246   23.3603 H   0  0  0  0  0  0
  -21.6629  -26.7491   22.1205 H   0  0  0  0  0  0
  -19.6927  -25.6298   21.1258 H   0  0  0  0  0  0
  -19.6717  -27.3181   20.6752 H   0  0  0  0  0  0
  -17.4177  -26.6669   21.4005 H   0  0  0  0  0  0
  -18.0310  -26.0042   22.8985 H   0  0  0  0  0  0
  -19.7969  -30.7217   24.2293 H   0  0  0  0  0  0
  -17.5081  -31.6318   24.5144 H   0  0  0  0  0  0
  -15.5381  -30.3067   23.7698 H   0  0  0  0  0  0
  -15.8606  -28.0886   22.7111 H   0  0  0  0  0  0
  -24.5866  -30.7125   25.7861 H   0  0  0  0  0  0
  -24.8911  -32.2925   26.4932 H   0  0  0  0  0  0
  -25.8058  -30.8950   27.0252 H   0  0  0  0  0  0
  -26.2838  -29.6846   24.1149 H   0  0  0  0  0  0
  -27.4110  -29.7344   25.4523 H   0  0  0  0  0  0
  -27.8643  -30.4454   23.9198 H   0  0  0  0  0  0
  -27.2628  -33.3687   26.2048 H   0  0  0  0  0  0
  -28.3805  -32.6961   25.0273 H   0  0  0  0  0  0
  -28.0710  -31.8515   26.5375 H   0  0  0  0  0  0
  -28.2588  -38.0080   24.7528 H   0  0  0  0  0  0
  -28.1038  -36.2615   24.6272 H   0  0  0  0  0  0
  -27.2292  -37.1422   25.8880 H   0  0  0  0  0  0
  -20.9272  -29.8676   21.6918 H   0  0  0  0  0  0
  -26.0158  -38.2888   24.1471 H   0  0  0  0  0  0
  -29.8774  -20.1653   23.2442 H   0  0  0  0  0  0
  -28.2392  -18.5903   24.0152 H   0  0  0  0  0  0
  -31.9631  -17.0430   21.1130 H   0  0  0  0  0  0
  -25.8801  -15.8078   24.0683 H   0  0  0  0  0  0
  -26.2913  -17.3605   23.3648 H   0  0  0  0  0  0
  -26.8727  -16.9334   24.9819 H   0  0  0  0  0  0
  -32.9965  -25.0445   20.8155 H   0  0  0  0  0  0
  -33.9765  -23.6486   21.1900 H   0  0  0  0  0  0
  -33.2702  -24.5931   22.4913 H   0  0  0  0  0  0
  -31.6462  -23.5431   19.2923 H   0  0  0  0  0  0
  -30.6101  -22.2826   19.9390 H   0  0  0  0  0  0
  -32.3351  -22.0260   19.7506 H   0  0  0  0  0  0
  -33.2979  -19.1612   23.7208 H   0  0  0  0  0  0
  -32.0940  -20.2474   24.4031 H   0  0  0  0  0  0
  -33.7716  -20.7391   24.3104 H   0  0  0  0  0  0
  -34.7507  -20.1268   21.8057 H   0  0  0  0  0  0
  -34.7149  -21.7902   22.3504 H   0  0  0  0  0  0
  -34.1435  -21.3607   20.7421 H   0  0  0  0  0  0
  -31.4192  -20.2524   20.6811 H   0  0  0  0  0  0
  -32.7407  -19.1822   20.9104 H   0  0  0  0  0  0
  -28.3211  -15.1391   24.0174 H   0  0  0  0  0  0
  -27.6189  -15.4247   22.4356 H   0  0  0  0  0  0
  -30.8789  -25.9239   20.5585 H   0  0  0  0  0  0
  -29.8600  -24.6639   19.8886 H   0  0  0  0  0  0
  -30.9165  -21.8475   22.7859 H   0  0  0  0  0  0
  -32.2871  -22.6145   23.4648 H   0  0  0  0  0  0
  -29.0062  -26.6776   22.0151 H   0  0  0  0  0  0
  -28.0159  -25.3208   21.4873 H   0  0  0  0  0  0
  -29.4954  -14.4896   22.2798 H   0  0  0  0  0  0
  1 25  1  0  0  0
  1 30  2  0  0  0
  1 90  1  0  0  0
  2  3  1  0  0  0
  2 25  1  0  0  0
  2 92  1  0  0  0
  2 93  1  0  0  0
  3  4  1  0  0  0
  3 94  1  0  0  0
  3 95  1  0  0  0
  4  5  1  0  0  0
  4 96  1  0  0  0
  4 97  1  0  0  0
  5  6  1  0  0  0
  5 26  1  0  0  0
  5 98  1  0  0  0
  6 25  1  0  0  0
  6 99  1  0  0  0
  6100  1  0  0  0
  7  8  2  0  0  0
  7 26  1  0  0  0
  7 29  1  0  0  0
  8  9  1  0  0  0
  8 22  1  0  0  0
  9 10  1  0  0  0
  9 27  2  0  0  0
 10 11  2  0  0  0
 10 15  1  0  0  0
 11 12  1  0  0  0
 11101  1  0  0  0
 12 13  2  0  0  0
 12102  1  0  0  0
 13 14  1  0  0  0
 13 31  1  0  0  0
 14 15  2  0  0  0
 14103  1  0  0  0
 15104  1  0  0  0
 16 17  2  0  0  0
 16 21  1  0  0  0
 16 31  1  0  0  0
 17 18  1  0  0  0
 17105  1  0  0  0
 18 19  2  0  0  0
 18106  1  0  0  0
 19 20  1  0  0  0
 19 24  1  0  0  0
 20 21  2  0  0  0
 20107  1  0  0  0
 21 23  1  0  0  0
 22 28  1  0  0  0
 22 32  2  0  0  0
 26 27  1  0  0  0
 28108  1  0  0  0
 28109  1  0  0  0
 29110  1  0  0  0
 29111  1  0  0  0
 33 34  1  0  0  0
 33 66  1  0  0  0
 33 70  2  0  0  0
 34 36  1  0  0  0
 34 59  1  0  0  0
 34112  1  0  0  0
 35 44  2  0  0  0
 35 45  1  0  0  0
 35 68  1  0  0  0
 36 56  1  0  0  0
 36113  1  0  0  0
 37 39  1  0  0  0
 37 47  1  0  0  0
 37 66  1  0  0  0
 37114  1  0  0  0
 38 43  2  0  0  0
 38 46  1  0  0  0
 38 47  1  0  0  0
 39 64  1  0  0  0
 39 67  2  0  0  0
 40 52  1  0  0  0
 40 53  2  0  0  0
 40 58  1  0  0  0
 41115  1  0  0  0
 41116  1  0  0  0
 41117  1  0  0  0
 41 48  1  0  0  0
 42 43  1  0  0  0
 42 66  1  0  0  0
 42118  1  0  0  0
 42119  1  0  0  0
 43 44  1  0  0  0
 44120  1  0  0  0
 45 46  2  0  0  0
 45121  1  0  0  0
 46122  1  0  0  0
 47123  1  0  0  0
 47124  1  0  0  0
 48 56  1  0  0  0
 48 65  1  0  0  0
 48125  1  0  0  0
 49 50  1  0  0  0
 49 53  1  0  0  0
 49 64  1  0  0  0
 49126  1  0  0  0
 50 51  1  0  0  0
 50127  1  0  0  0
 50128  1  0  0  0
 51 52  1  0  0  0
 51129  1  0  0  0
 51130  1  0  0  0
 52131  1  0  0  0
 52132  1  0  0  0
 53 54  1  0  0  0
 54 55  2  0  0  0
 54133  1  0  0  0
 55 57  1  0  0  0
 55134  1  0  0  0
 56 69  2  0  0  0
 57 58  2  0  0  0
 57135  1  0  0  0
 58136  1  0  0  0
 59 60  1  0  0  0
 59 61  1  0  0  0
 59 62  1  0  0  0
 60137  1  0  0  0
 60138  1  0  0  0
 60139  1  0  0  0
 61140  1  0  0  0
 61141  1  0  0  0
 61142  1  0  0  0
 62143  1  0  0  0
 62144  1  0  0  0
 62145  1  0  0  0
 63 65  1  0  0  0
 63146  1  0  0  0
 63147  1  0  0  0
 63148  1  0  0  0
 64149  1  0  0  0
 65150  1  0  0  0
 68 87  1  0  0  0
 71 72  2  0  0  0
 71 74  1  0  0  0
 71151  1  0  0  0
 72 75  1  0  0  0
 72152  1  0  0  0
 73 74  2  0  0  0
 73 76  1  0  0  0
 73153  1  0  0  0
 74 83  1  0  0  0
 75 76  2  0  0  0
 75 84  1  0  0  0
 76 90  1  0  0  0
 77 85  1  0  0  0
 77 88  1  0  0  0
 77 91  2  0  0  0
 78 84  1  0  0  0
 78154  1  0  0  0
 78155  1  0  0  0
 78156  1  0  0  0
 79157  1  0  0  0
 79158  1  0  0  0
 79159  1  0  0  0
 79 88  1  0  0  0
 80 88  1  0  0  0
 80160  1  0  0  0
 80161  1  0  0  0
 80162  1  0  0  0
 81163  1  0  0  0
 81164  1  0  0  0
 81165  1  0  0  0
 81 89  1  0  0  0
 82 89  1  0  0  0
 82166  1  0  0  0
 82167  1  0  0  0
 82168  1  0  0  0
 83 89  1  0  0  0
 83169  1  0  0  0
 83170  1  0  0  0
 84171  1  0  0  0
 84172  1  0  0  0
 85 87  1  0  0  0
 85173  1  0  0  0
 85174  1  0  0  0
 86 88  1  0  0  0
 86 89  1  0  0  0
 86175  1  0  0  0
 86176  1  0  0  0
 87177  1  0  0  0
 87178  1  0  0  0
 90179  1  0  0  0
M  ISO  4   1 100  68 101  87 101  90 100
M  END
> <chiral flag>
0

> <version>
0

> <s_m_source_file>
/data/baiqing/PycharmProjects/Reinvent-master-3.2/result/LINK_invent/BTK/process_docking_weight1_custom_product_contain_oxygen_bond_distance_aromatic_linkinvent_7_9_3/rearranged_h_0145.sdf

> <i_m_source_file_index>
21

> <r_mmod_Potential_Energy-OPLS-2005>
42.695613861084

> <r_mmod_Stretch_Energy-OPLS-2005>
49.107479095459

> <r_mmod_Bend_Energy-OPLS-2005>
139.291366577148

> <r_mmod_Torsional_Energy-OPLS-2005>
267.935913085938

> <r_mmod_Improper_Torsional_Energy-OPLS-2005>
4.33940982818604

> <r_mmod_Van_der_Waal_Energy-OPLS-2005>
169.448638916016

> <r_mmod_Electrostatic_Energy-OPLS-2005>
-403.363006591797

> <r_mmod_Solvation_Energy-OPLS-2005>
-195.096939086914

> <b_mmod_Minimization_Converged-OPLS-2005>
0

> <r_mmod_RMS_Derivative-OPLS-2005>
4.91589689254761

$$$$
21
                    3D
 Structure written by MMmdl.
165173  0  0  1  0            999 V2000
  -30.7223  -14.5151   20.5216 C   0  0  0  0  0  0
  -30.4009  -12.3256   19.4380 C   0  0  0  0  0  0
  -29.4848  -12.4975   18.2110 C   0  0  0  0  0  0
  -28.0093  -12.3574   18.6234 C   0  0  0  0  0  0
  -27.6489  -13.2207   19.8630 C   0  0  2  0  0  0
  -28.6927  -13.0711   20.9917 C   0  0  0  0  0  0
  -25.2531  -13.8189   20.5680 C   0  0  0  0  0  0
  -24.1804  -13.0451   20.9199 C   0  0  0  0  0  0
  -24.6378  -11.6928   20.8743 C   0  0  0  0  0  0
  -23.9049  -10.4307   21.0411 C   0  0  0  0  0  0
  -24.3607   -9.4225   21.9185 C   0  0  0  0  0  0
  -23.6289   -8.2251   22.0744 C   0  0  0  0  0  0
  -22.4268   -8.0286   21.3539 C   0  0  0  0  0  0
  -21.9906   -9.0253   20.4639 C   0  0  0  0  0  0
  -22.7223  -10.2139   20.3065 C   0  0  0  0  0  0
  -21.6867   -6.0738   22.5276 C   0  0  0  0  0  0
  -21.4015   -6.5636   23.8207 C   0  0  0  0  0  0
  -21.3662   -5.6789   24.9165 C   0  0  0  0  0  0
  -21.6059   -4.3053   24.7229 C   0  0  0  0  0  0
  -21.8818   -3.8147   23.4345 C   0  0  0  0  0  0
  -21.9192   -4.6962   22.3400 C   0  0  0  0  0  0
  -22.7830  -13.5237   21.1865 C   0  0  0  0  0  0
  -22.1669   -4.2154   21.0980 F   0  0  0  0  0  0
  -21.5628   -3.4536   25.7738 F   0  0  0  0  0  0
  -30.0138  -13.3563   20.4184 N   0  0  0  0  0  0
  -26.2963  -12.9382   20.3344 N   0  0  0  0  0  0
  -25.9310  -11.6530   20.5765 N   0  0  0  0  0  0
  -22.0479  -12.8220   22.0415 N   0  0  0  0  0  0
  -25.4239  -15.1905   20.4041 N   0  0  0  0  0  0
  -31.8872  -14.5860   20.1251 O   0  0  0  0  0  0
  -21.6643   -6.8877   21.4234 O   0  0  0  0  0  0
  -22.3525  -14.5552   20.6723 O   0  0  0  0  0  0
  -24.6184  -31.8659   23.2061 C   0  0  0  0  0  0
  -25.9064  -32.4807   23.8388 C   0  0  1  0  0  0
  -27.2268  -27.4047   20.1089 C   0  0  0  0  0  0
  -25.5917  -33.8607   24.2312 N   0  0  0  0  0  0
  -23.4087  -30.4886   21.5463 C   0  0  2  0  0  0
  -24.8570  -28.9542   20.1087 C   0  0  0  0  0  0
  -22.7445  -29.4637   22.4945 C   0  0  0  0  0  0
  -18.0282  -28.1383   22.8487 C   0  0  0  0  0  0
  -24.1488  -36.7301   23.2636 C   0  0  0  0  0  0
  -25.9400  -30.8263   21.3604 C   0  0  0  0  0  0
  -26.0197  -29.4595   20.7054 C   0  0  0  0  0  0
  -27.2118  -28.6935   20.6997 C   0  0  0  0  0  0
  -26.0523  -26.9253   19.4943 C   0  0  0  0  0  0
  -24.8703  -27.6870   19.4970 C   0  0  0  0  0  0
  -23.6191  -29.8212   20.1616 C   0  0  0  0  0  0
  -25.4102  -36.3089   24.0330 C   0  0  1  0  0  0
  -20.5884  -28.3662   23.1296 C   0  0  2  0  0  0
  -20.6776  -26.9393   22.5409 C   0  0  0  0  0  0
  -19.5751  -26.6380   21.5214 C   0  0  0  0  0  0
  -18.1925  -26.7928   22.1620 C   0  0  0  0  0  0
  -19.1544  -28.8839   23.2892 C   0  0  0  0  0  0
  -18.9462  -30.1442   23.8895 C   0  0  0  0  0  0
  -17.6468  -30.6585   24.0558 C   0  0  0  0  0  0
  -25.9040  -34.9463   23.5115 C   0  0  0  0  0  0
  -16.5352  -29.9077   23.6339 C   0  0  0  0  0  0
  -16.7275  -28.6506   23.0343 C   0  0  0  0  0  0
  -26.4475  -31.6580   25.0716 C   0  0  0  0  0  0
  -25.3723  -31.3699   26.1461 C   0  0  0  0  0  0
  -27.0293  -30.3017   24.6076 C   0  0  0  0  0  0
  -27.6062  -32.4289   25.7467 C   0  0  0  0  0  0
  -27.5572  -37.1795   24.8462 C   0  0  0  0  0  0
  -21.4165  -29.3025   22.3703 N   0  0  0  0  0  0
  -26.4278  -37.3774   23.9418 N   0  0  0  0  0  0
  -24.6743  -31.0746   22.0960 N   0  0  0  0  0  0
  -23.4202  -28.8184   23.3007 O   0  0  0  0  0  0
  -28.3399  -26.5861   20.1424 O   0  0  0  0  0  0
  -26.5594  -34.8915   22.4669 O   0  0  0  0  0  0
  -23.5366  -32.1410   23.7446 O   0  0  0  0  0  0
  -28.7535  -18.7286   21.0206 C   0  0  0  0  0  0
  -30.1003  -18.2893   20.7972 C   0  0  0  0  0  0
  -30.7541  -19.4254   20.3692 C   0  0  0  0  0  0
  -28.7153  -20.0736   20.7292 C   0  0  0  0  0  0
  -27.4469  -22.1230   20.5754 C   0  0  0  0  0  0
  -26.1031  -22.7474   20.9047 C   0  0  0  0  0  0
  -32.3535  -19.8548   18.4622 C   0  0  0  0  0  0
  -28.6885  -26.0354   22.4439 C   0  0  0  0  0  0
  -30.7975  -16.9367   21.0229 C   0  0  0  0  0  0
  -32.1697  -19.7030   19.9756 C   0  0  0  0  0  0
  -28.3953  -23.1022   19.8397 C   0  0  0  0  0  0
  -29.0602  -24.2125   20.7114 C   0  0  0  0  0  0
  -28.2296  -25.4868   21.0834 C   0  0  2  0  0  0
  -27.6083  -20.8854   20.9046 N   0  0  0  0  0  0
  -30.0765  -15.6420   20.9150 N   0  0  0  0  0  0
  -29.9251  -20.5100   20.3183 O   0  0  0  0  0  0
  -31.4465  -12.3951   19.1328 H   0  0  0  0  0  0
  -30.2835  -11.3298   19.8707 H   0  0  0  0  0  0
  -29.7314  -11.7607   17.4454 H   0  0  0  0  0  0
  -29.6505  -13.4773   17.7583 H   0  0  0  0  0  0
  -27.8256  -11.3028   18.8360 H   0  0  0  0  0  0
  -27.3587  -12.6137   17.7873 H   0  0  0  0  0  0
  -27.6715  -14.2598   19.5337 H   0  0  0  0  0  0
  -28.6745  -12.0596   21.4019 H   0  0  0  0  0  0
  -28.4596  -13.7376   21.8233 H   0  0  0  0  0  0
  -25.2753   -9.5706   22.4759 H   0  0  0  0  0  0
  -24.0015   -7.4643   22.7463 H   0  0  0  0  0  0
  -21.0845   -8.8772   19.8933 H   0  0  0  0  0  0
  -22.3683  -10.9683   19.6181 H   0  0  0  0  0  0
  -21.2001   -7.6142   23.9714 H   0  0  0  0  0  0
  -21.1492   -6.0516   25.9074 H   0  0  0  0  0  0
  -22.0591   -2.7611   23.2841 H   0  0  0  0  0  0
  -22.4102  -11.9877   22.4795 H   0  0  0  0  0  0
  -21.1098  -13.1257   22.2635 H   0  0  0  0  0  0
  -24.6522  -15.8429   20.4936 H   0  0  0  0  0  0
  -26.2674  -15.6231   20.0488 H   0  0  0  0  0  0
  -26.7142  -32.5510   23.1164 H   0  0  0  0  0  0
  -25.0120  -33.9786   25.0492 H   0  0  0  0  0  0
  -22.6978  -31.3047   21.4048 H   0  0  0  0  0  0
  -23.3742  -35.9643   23.3304 H   0  0  0  0  0  0
  -24.3592  -36.8913   22.2053 H   0  0  0  0  0  0
  -23.7258  -37.6512   23.6652 H   0  0  0  0  0  0
  -26.0551  -31.5930   20.5937 H   0  0  0  0  0  0
  -26.8274  -30.8804   21.9798 H   0  0  0  0  0  0
  -28.1077  -29.0711   21.1736 H   0  0  0  0  0  0
  -26.0484  -25.9485   19.0323 H   0  0  0  0  0  0
  -23.9764  -27.2903   19.0350 H   0  0  0  0  0  0
  -23.7260  -30.5964   19.4023 H   0  0  0  0  0  0
  -22.7430  -29.2409   19.8665 H   0  0  0  0  0  0
  -25.1274  -36.1945   25.0816 H   0  0  0  0  0  0
  -20.9977  -28.3229   24.1415 H   0  0  0  0  0  0
  -20.5688  -26.2260   23.3594 H   0  0  0  0  0  0
  -21.6636  -26.7443   22.1181 H   0  0  0  0  0  0
  -19.6912  -25.6297   21.1232 H   0  0  0  0  0  0
  -19.6695  -27.3198   20.6755 H   0  0  0  0  0  0
  -17.4195  -26.6689   21.4018 H   0  0  0  0  0  0
  -18.0310  -26.0061   22.9012 H   0  0  0  0  0  0
  -19.7938  -30.7263   24.2251 H   0  0  0  0  0  0
  -17.5020  -31.6263   24.5165 H   0  0  0  0  0  0
  -15.5354  -30.2978   23.7659 H   0  0  0  0  0  0
  -15.8676  -28.0832   22.7040 H   0  0  0  0  0  0
  -24.5904  -30.7045   25.7800 H   0  0  0  0  0  0
  -24.8907  -32.2852   26.4903 H   0  0  0  0  0  0
  -25.8054  -30.8877   27.0234 H   0  0  0  0  0  0
  -26.2834  -29.6798   24.1116 H   0  0  0  0  0  0
  -27.4061  -29.7237   25.4526 H   0  0  0  0  0  0
  -27.8665  -30.4350   23.9221 H   0  0  0  0  0  0
  -27.2717  -33.3606   26.2052 H   0  0  0  0  0  0
  -28.3854  -32.6826   25.0263 H   0  0  0  0  0  0
  -28.0744  -31.8397   26.5372 H   0  0  0  0  0  0
  -28.2575  -38.0108   24.7515 H   0  0  0  0  0  0
  -28.1078  -36.2636   24.6262 H   0  0  0  0  0  0
  -27.2306  -37.1414   25.8871 H   0  0  0  0  0  0
  -20.9323  -29.8755   21.6939 H   0  0  0  0  0  0
  -26.0163  -38.2847   24.1426 H   0  0  0  0  0  0
  -27.9240  -18.1420   21.3895 H   0  0  0  0  0  0
  -26.1161  -23.1495   21.9178 H   0  0  0  0  0  0
  -25.3053  -22.0059   20.8429 H   0  0  0  0  0  0
  -25.8538  -23.5522   20.2130 H   0  0  0  0  0  0
  -33.3940  -20.0681   18.2153 H   0  0  0  0  0  0
  -31.7496  -20.6738   18.0718 H   0  0  0  0  0  0
  -32.0652  -18.9439   17.9365 H   0  0  0  0  0  0
  -28.6135  -25.2749   23.2225 H   0  0  0  0  0  0
  -28.0755  -26.8781   22.7632 H   0  0  0  0  0  0
  -29.7253  -26.3704   22.4035 H   0  0  0  0  0  0
  -31.2796  -16.9670   22.0002 H   0  0  0  0  0  0
  -31.6155  -16.9437   20.3004 H   0  0  0  0  0  0
  -32.8246  -18.9125   20.3436 H   0  0  0  0  0  0
  -32.5052  -20.6151   20.4707 H   0  0  0  0  0  0
  -27.8480  -23.5787   19.0260 H   0  0  0  0  0  0
  -29.1727  -22.5374   19.3313 H   0  0  0  0  0  0
  -29.9714  -24.5453   20.2153 H   0  0  0  0  0  0
  -29.4082  -23.7251   21.6236 H   0  0  0  0  0  0
  -27.1888  -25.1915   21.2058 H   0  0  0  0  0  0
  -29.1079  -15.5892   21.1881 H   0  0  0  0  0  0
  1 25  1  0  0  0
  1 30  2  0  0  0
  1 85  1  0  0  0
  2  3  1  0  0  0
  2 25  1  0  0  0
  2 87  1  0  0  0
  2 88  1  0  0  0
  3  4  1  0  0  0
  3 89  1  0  0  0
  3 90  1  0  0  0
  4  5  1  0  0  0
  4 91  1  0  0  0
  4 92  1  0  0  0
  5  6  1  0  0  0
  5 26  1  0  0  0
  5 93  1  0  0  0
  6 25  1  0  0  0
  6 94  1  0  0  0
  6 95  1  0  0  0
  7  8  2  0  0  0
  7 26  1  0  0  0
  7 29  1  0  0  0
  8  9  1  0  0  0
  8 22  1  0  0  0
  9 10  1  0  0  0
  9 27  2  0  0  0
 10 11  2  0  0  0
 10 15  1  0  0  0
 11 12  1  0  0  0
 11 96  1  0  0  0
 12 13  2  0  0  0
 12 97  1  0  0  0
 13 14  1  0  0  0
 13 31  1  0  0  0
 14 15  2  0  0  0
 14 98  1  0  0  0
 15 99  1  0  0  0
 16 17  2  0  0  0
 16 21  1  0  0  0
 16 31  1  0  0  0
 17 18  1  0  0  0
 17100  1  0  0  0
 18 19  2  0  0  0
 18101  1  0  0  0
 19 20  1  0  0  0
 19 24  1  0  0  0
 20 21  2  0  0  0
 20102  1  0  0  0
 21 23  1  0  0  0
 22 28  1  0  0  0
 22 32  2  0  0  0
 26 27  1  0  0  0
 28103  1  0  0  0
 28104  1  0  0  0
 29105  1  0  0  0
 29106  1  0  0  0
 33 34  1  0  0  0
 33 66  1  0  0  0
 33 70  2  0  0  0
 34 36  1  0  0  0
 34 59  1  0  0  0
 34107  1  0  0  0
 35 44  2  0  0  0
 35 45  1  0  0  0
 35 68  1  0  0  0
 36 56  1  0  0  0
 36108  1  0  0  0
 37 39  1  0  0  0
 37 47  1  0  0  0
 37 66  1  0  0  0
 37109  1  0  0  0
 38 43  2  0  0  0
 38 46  1  0  0  0
 38 47  1  0  0  0
 39 64  1  0  0  0
 39 67  2  0  0  0
 40 52  1  0  0  0
 40 53  2  0  0  0
 40 58  1  0  0  0
 41110  1  0  0  0
 41111  1  0  0  0
 41112  1  0  0  0
 41 48  1  0  0  0
 42 43  1  0  0  0
 42 66  1  0  0  0
 42113  1  0  0  0
 42114  1  0  0  0
 43 44  1  0  0  0
 44115  1  0  0  0
 45 46  2  0  0  0
 45116  1  0  0  0
 46117  1  0  0  0
 47118  1  0  0  0
 47119  1  0  0  0
 48 56  1  0  0  0
 48 65  1  0  0  0
 48120  1  0  0  0
 49 50  1  0  0  0
 49 53  1  0  0  0
 49 64  1  0  0  0
 49121  1  0  0  0
 50 51  1  0  0  0
 50122  1  0  0  0
 50123  1  0  0  0
 51 52  1  0  0  0
 51124  1  0  0  0
 51125  1  0  0  0
 52126  1  0  0  0
 52127  1  0  0  0
 53 54  1  0  0  0
 54 55  2  0  0  0
 54128  1  0  0  0
 55 57  1  0  0  0
 55129  1  0  0  0
 56 69  2  0  0  0
 57 58  2  0  0  0
 57130  1  0  0  0
 58131  1  0  0  0
 59 60  1  0  0  0
 59 61  1  0  0  0
 59 62  1  0  0  0
 60132  1  0  0  0
 60133  1  0  0  0
 60134  1  0  0  0
 61135  1  0  0  0
 61136  1  0  0  0
 61137  1  0  0  0
 62138  1  0  0  0
 62139  1  0  0  0
 62140  1  0  0  0
 63 65  1  0  0  0
 63141  1  0  0  0
 63142  1  0  0  0
 63143  1  0  0  0
 64144  1  0  0  0
 65145  1  0  0  0
 68 83  1  0  0  0
 71 72  1  0  0  0
 71 74  2  0  0  0
 71146  1  0  0  0
 72 73  2  0  0  0
 72 79  1  0  0  0
 73 80  1  0  0  0
 73 86  1  0  0  0
 74 84  1  0  0  0
 74 86  1  0  0  0
 75 76  1  0  0  0
 75 81  1  0  0  0
 75 84  2  0  0  0
 76147  1  0  0  0
 76148  1  0  0  0
 76149  1  0  0  0
 77 80  1  0  0  0
 77150  1  0  0  0
 77151  1  0  0  0
 77152  1  0  0  0
 78153  1  0  0  0
 78154  1  0  0  0
 78155  1  0  0  0
 78 83  1  0  0  0
 79 85  1  0  0  0
 79156  1  0  0  0
 79157  1  0  0  0
 80158  1  0  0  0
 80159  1  0  0  0
 81 82  1  0  0  0
 81160  1  0  0  0
 81161  1  0  0  0
 82 83  1  0  0  0
 82162  1  0  0  0
 82163  1  0  0  0
 83164  1  0  0  0
 85165  1  0  0  0
M  ISO  4   1 100  68 101  83 101  85 100
M  END
> <chiral flag>
0

> <version>
0

> <s_m_source_file>
/data/baiqing/PycharmProjects/Reinvent-master-3.2/result/LINK_invent/BTK/process_docking_weight1_custom_product_contain_oxygen_bond_distance_aromatic_linkinvent_7_9_3/rearranged_h_0145.sdf

> <i_m_source_file_index>
22

> <r_mmod_Potential_Energy-OPLS-2005>
-114.845672607422

> <r_mmod_Stretch_Energy-OPLS-2005>
45.4904441833496

> <r_mmod_Bend_Energy-OPLS-2005>
149.44287109375

> <r_mmod_Torsional_Energy-OPLS-2005>
233.379241943359

> <r_mmod_Improper_Torsional_Energy-OPLS-2005>
4.0567364692688

> <r_mmod_Van_der_Waal_Energy-OPLS-2005>
124.874923706055

> <r_mmod_Electrostatic_Energy-OPLS-2005>
-493.295867919922

> <r_mmod_Solvation_Energy-OPLS-2005>
-203.534973144531

> <b_mmod_Minimization_Converged-OPLS-2005>
0

> <r_mmod_RMS_Derivative-OPLS-2005>
2.3351423740387

$$$$
22
                    3D
 Structure written by MMmdl.
161169  0  0  1  0            999 V2000
  -30.7351  -14.4625   20.6515 C   0  0  0  0  0  0
  -30.4255  -12.3516   19.3772 C   0  0  0  0  0  0
  -29.4804  -12.5656   18.1793 C   0  0  0  0  0  0
  -28.0156  -12.3815   18.6172 C   0  0  0  0  0  0
  -27.6772  -13.1970   19.8931 C   0  0  2  0  0  0
  -28.7294  -12.9373   20.9970 C   0  0  0  0  0  0
  -25.2661  -13.8089   20.5562 C   0  0  0  0  0  0
  -24.1945  -13.0383   20.9139 C   0  0  0  0  0  0
  -24.6503  -11.6867   20.8774 C   0  0  0  0  0  0
  -23.9144  -10.4271   21.0463 C   0  0  0  0  0  0
  -24.3665   -9.4194   21.9239 C   0  0  0  0  0  0
  -23.6316   -8.2243   22.0791 C   0  0  0  0  0  0
  -22.4302   -8.0306   21.3572 C   0  0  0  0  0  0
  -21.9957   -9.0297   20.4695 C   0  0  0  0  0  0
  -22.7313  -10.2159   20.3112 C   0  0  0  0  0  0
  -21.6863   -6.0753   22.5285 C   0  0  0  0  0  0
  -21.4028   -6.5662   23.8220 C   0  0  0  0  0  0
  -21.3643   -5.6828   24.9177 C   0  0  0  0  0  0
  -21.6025   -4.3083   24.7248 C   0  0  0  0  0  0
  -21.8820   -3.8171   23.4369 C   0  0  0  0  0  0
  -21.9207   -4.6975   22.3426 C   0  0  0  0  0  0
  -22.7971  -13.5236   21.1760 C   0  0  0  0  0  0
  -22.1669   -4.2165   21.0992 F   0  0  0  0  0  0
  -21.5614   -3.4556   25.7750 F   0  0  0  0  0  0
  -30.0456  -13.2980   20.4448 N   0  0  0  0  0  0
  -26.3161  -12.9263   20.3486 N   0  0  0  0  0  0
  -25.9454  -11.6431   20.5894 N   0  0  0  0  0  0
  -22.0602  -12.8251   22.0333 N   0  0  0  0  0  0
  -25.4205  -15.1736   20.3674 N   0  0  0  0  0  0
  -31.7694  -14.7415   20.0351 O   0  0  0  0  0  0
  -21.6652   -6.8900   21.4259 O   0  0  0  0  0  0
  -22.3684  -14.5543   20.6621 O   0  0  0  0  0  0
  -24.6220  -31.8556   23.2040 C   0  0  0  0  0  0
  -25.9103  -32.4728   23.8340 C   0  0  1  0  0  0
  -27.2336  -27.3625   20.1288 C   0  0  0  0  0  0
  -25.5948  -33.8544   24.2224 N   0  0  0  0  0  0
  -23.4106  -30.4811   21.5378 C   0  0  2  0  0  0
  -24.8605  -28.9344   20.1101 C   0  0  0  0  0  0
  -22.7387  -29.4637   22.4901 C   0  0  0  0  0  0
  -18.0263  -28.1468   22.8460 C   0  0  0  0  0  0
  -24.1493  -36.7242   23.2627 C   0  0  0  0  0  0
  -25.9456  -30.8061   21.3682 C   0  0  0  0  0  0
  -26.0205  -29.4400   20.7036 C   0  0  0  0  0  0
  -27.2083  -28.6643   20.7010 C   0  0  0  0  0  0
  -26.0444  -26.8765   19.5390 C   0  0  0  0  0  0
  -24.8671  -27.6559   19.5235 C   0  0  0  0  0  0
  -23.6248  -29.8086   20.1531 C   0  0  0  0  0  0
  -25.4116  -36.2987   24.0275 C   0  0  1  0  0  0
  -20.5854  -28.3573   23.1159 C   0  0  2  0  0  0
  -20.6582  -26.9277   22.5310 C   0  0  0  0  0  0
  -19.5597  -26.6501   21.5039 C   0  0  0  0  0  0
  -18.1769  -26.8102   22.1406 C   0  0  0  0  0  0
  -19.1560  -28.8847   23.2839 C   0  0  0  0  0  0
  -18.9523  -30.1485   23.8803 C   0  0  0  0  0  0
  -17.6531  -30.6622   24.0635 C   0  0  0  0  0  0
  -25.9040  -34.9395   23.5019 C   0  0  0  0  0  0
  -16.5407  -29.9128   23.6480 C   0  0  0  0  0  0
  -16.7274  -28.6615   23.0392 C   0  0  0  0  0  0
  -26.4508  -31.6604   25.0762 C   0  0  0  0  0  0
  -25.3773  -31.3856   26.1540 C   0  0  0  0  0  0
  -27.0362  -30.2995   24.6328 C   0  0  0  0  0  0
  -27.6012  -32.4384   25.7626 C   0  0  0  0  0  0
  -27.5542  -37.1778   24.8452 C   0  0  0  0  0  0
  -21.4161  -29.2865   22.3467 N   0  0  0  0  0  0
  -26.4258  -37.3692   23.9397 N   0  0  0  0  0  0
  -24.6749  -31.0616   22.0939 N   0  0  0  0  0  0
  -23.4096  -28.8320   23.3130 O   0  0  0  0  0  0
  -28.4192  -26.6359   20.1695 O   0  0  0  0  0  0
  -26.5581  -34.8847   22.4564 O   0  0  0  0  0  0
  -23.5398  -32.1356   23.7384 O   0  0  0  0  0  0
  -27.1380  -17.5016   21.7520 C   0  0  0  0  0  0
  -28.0118  -16.4077   21.7364 C   0  0  0  0  0  0
  -27.6173  -18.7980   21.5351 C   0  0  0  0  0  0
  -29.8756  -17.9051   21.2835 C   0  0  0  0  0  0
  -29.3950  -16.5731   21.5169 C   0  0  0  0  0  0
  -28.9897  -19.0344   21.2982 C   0  0  0  0  0  0
  -30.2592  -15.3706   21.7955 C   0  0  0  0  0  0
  -28.8166  -21.4668   20.6557 C   0  0  0  0  0  0
  -26.8337  -23.7980   21.1577 C   0  0  0  0  0  0
  -28.6360  -24.9264   22.3887 C   0  0  0  0  0  0
  -29.3106  -22.9121   20.9949 C   0  0  0  0  0  0
  -28.5097  -25.2064   19.8707 C   0  0  0  0  0  0
  -28.3266  -24.1831   21.0720 C   0  0  0  0  0  0
  -30.5254  -15.0759   22.9990 N   0  0  0  0  0  0
  -29.4488  -20.4039   21.2306 N   0  0  0  0  0  0
  -27.9227  -21.3065   19.8219 O   0  0  0  0  0  0
  -31.4646  -12.4572   19.0646 H   0  0  0  0  0  0
  -30.3304  -11.3274   19.7388 H   0  0  0  0  0  0
  -29.7176  -11.8724   17.3703 H   0  0  0  0  0  0
  -29.6164  -13.5702   17.7683 H   0  0  0  0  0  0
  -27.8588  -11.3180   18.8004 H   0  0  0  0  0  0
  -27.3392  -12.6565   17.8070 H   0  0  0  0  0  0
  -27.7358  -14.2517   19.6242 H   0  0  0  0  0  0
  -28.7359  -11.8837   21.2844 H   0  0  0  0  0  0
  -28.4759  -13.4610   21.9164 H   0  0  0  0  0  0
  -25.2816   -9.5639   22.4816 H   0  0  0  0  0  0
  -24.0006   -7.4653   22.7533 H   0  0  0  0  0  0
  -21.0872   -8.8871   19.9030 H   0  0  0  0  0  0
  -22.3821  -10.9713   19.6227 H   0  0  0  0  0  0
  -21.2029   -7.6172   23.9715 H   0  0  0  0  0  0
  -21.1440   -6.0557   25.9070 H   0  0  0  0  0  0
  -22.0606   -2.7628   23.2882 H   0  0  0  0  0  0
  -22.4164  -11.9854   22.4653 H   0  0  0  0  0  0
  -21.1259  -13.1370   22.2570 H   0  0  0  0  0  0
  -24.6447  -15.8157   20.4753 H   0  0  0  0  0  0
  -26.2781  -15.6335   20.0864 H   0  0  0  0  0  0
  -26.7171  -32.5369   23.1088 H   0  0  0  0  0  0
  -25.0252  -33.9734   25.0479 H   0  0  0  0  0  0
  -22.7160  -31.3072   21.3837 H   0  0  0  0  0  0
  -23.3685  -35.9637   23.3301 H   0  0  0  0  0  0
  -24.3589  -36.8882   22.2036 H   0  0  0  0  0  0
  -23.7335  -37.6465   23.6694 H   0  0  0  0  0  0
  -26.0857  -31.5925   20.6214 H   0  0  0  0  0  0
  -26.8205  -30.8360   22.0087 H   0  0  0  0  0  0
  -28.1014  -29.0532   21.1745 H   0  0  0  0  0  0
  -25.9926  -25.8911   19.1030 H   0  0  0  0  0  0
  -23.9650  -27.2548   19.0821 H   0  0  0  0  0  0
  -23.7352  -30.5709   19.3803 H   0  0  0  0  0  0
  -22.7515  -29.2222   19.8601 H   0  0  0  0  0  0
  -25.1315  -36.1770   25.0753 H   0  0  0  0  0  0
  -21.0067  -28.3012   24.1210 H   0  0  0  0  0  0
  -20.5343  -26.2128   23.3479 H   0  0  0  0  0  0
  -21.6364  -26.7043   22.1104 H   0  0  0  0  0  0
  -19.6696  -25.6489   21.0856 H   0  0  0  0  0  0
  -19.6625  -27.3497   20.6734 H   0  0  0  0  0  0
  -17.4091  -26.7214   21.3691 H   0  0  0  0  0  0
  -17.9841  -26.0117   22.8566 H   0  0  0  0  0  0
  -19.8050  -30.7332   24.1953 H   0  0  0  0  0  0
  -17.5058  -31.6304   24.5277 H   0  0  0  0  0  0
  -15.5442  -30.3055   23.7829 H   0  0  0  0  0  0
  -15.8610  -28.1120   22.7031 H   0  0  0  0  0  0
  -24.5833  -30.7305   25.7968 H   0  0  0  0  0  0
  -24.9127  -32.3098   26.4987 H   0  0  0  0  0  0
  -25.8121  -30.9043   27.0319 H   0  0  0  0  0  0
  -26.2999  -29.6784   24.1214 H   0  0  0  0  0  0
  -27.3829  -29.7249   25.4944 H   0  0  0  0  0  0
  -27.8959  -30.4217   23.9727 H   0  0  0  0  0  0
  -27.2486  -33.3602   26.2291 H   0  0  0  0  0  0
  -28.3852  -32.7115   25.0547 H   0  0  0  0  0  0
  -28.0661  -31.8494   26.5558 H   0  0  0  0  0  0
  -28.2520  -38.0100   24.7425 H   0  0  0  0  0  0
  -28.1056  -36.2611   24.6332 H   0  0  0  0  0  0
  -27.2267  -37.1477   25.8859 H   0  0  0  0  0  0
  -20.9456  -29.8103   21.6194 H   0  0  0  0  0  0
  -26.0063  -38.2718   24.1469 H   0  0  0  0  0  0
  -26.0940  -17.3516   21.9898 H   0  0  0  0  0  0
  -27.6062  -15.4392   21.9838 H   0  0  0  0  0  0
  -26.9146  -19.6149   21.6118 H   0  0  0  0  0  0
  -30.9387  -18.0616   21.1611 H   0  0  0  0  0  0
  -26.6397  -23.1012   21.9744 H   0  0  0  0  0  0
  -26.4823  -23.3431   20.2297 H   0  0  0  0  0  0
  -26.2172  -24.6794   21.3428 H   0  0  0  0  0  0
  -28.5675  -24.2604   23.2510 H   0  0  0  0  0  0
  -27.9311  -25.7438   22.5581 H   0  0  0  0  0  0
  -29.6326  -25.3686   22.3735 H   0  0  0  0  0  0
  -30.1270  -23.1213   20.3036 H   0  0  0  0  0  0
  -29.8067  -22.7979   21.9590 H   0  0  0  0  0  0
  -27.9012  -24.9263   19.0112 H   0  0  0  0  0  0
  -29.5294  -25.0976   19.5006 H   0  0  0  0  0  0
  -30.0818  -15.7435   23.6205 H   0  0  0  0  0  0
  -30.2770  -20.6104   21.7760 H   0  0  0  0  0  0
  1 25  1  0  0  0
  1 30  2  0  0  0
  1 77  1  0  0  0
  2  3  1  0  0  0
  2 25  1  0  0  0
  2 87  1  0  0  0
  2 88  1  0  0  0
  3  4  1  0  0  0
  3 89  1  0  0  0
  3 90  1  0  0  0
  4  5  1  0  0  0
  4 91  1  0  0  0
  4 92  1  0  0  0
  5  6  1  0  0  0
  5 26  1  0  0  0
  5 93  1  0  0  0
  6 25  1  0  0  0
  6 94  1  0  0  0
  6 95  1  0  0  0
  7  8  2  0  0  0
  7 26  1  0  0  0
  7 29  1  0  0  0
  8  9  1  0  0  0
  8 22  1  0  0  0
  9 10  1  0  0  0
  9 27  2  0  0  0
 10 11  2  0  0  0
 10 15  1  0  0  0
 11 12  1  0  0  0
 11 96  1  0  0  0
 12 13  2  0  0  0
 12 97  1  0  0  0
 13 14  1  0  0  0
 13 31  1  0  0  0
 14 15  2  0  0  0
 14 98  1  0  0  0
 15 99  1  0  0  0
 16 17  2  0  0  0
 16 21  1  0  0  0
 16 31  1  0  0  0
 17 18  1  0  0  0
 17100  1  0  0  0
 18 19  2  0  0  0
 18101  1  0  0  0
 19 20  1  0  0  0
 19 24  1  0  0  0
 20 21  2  0  0  0
 20102  1  0  0  0
 21 23  1  0  0  0
 22 28  1  0  0  0
 22 32  2  0  0  0
 26 27  1  0  0  0
 28103  1  0  0  0
 28104  1  0  0  0
 29105  1  0  0  0
 29106  1  0  0  0
 33 34  1  0  0  0
 33 66  1  0  0  0
 33 70  2  0  0  0
 34 36  1  0  0  0
 34 59  1  0  0  0
 34107  1  0  0  0
 35 44  2  0  0  0
 35 45  1  0  0  0
 35 68  1  0  0  0
 36 56  1  0  0  0
 36108  1  0  0  0
 37 39  1  0  0  0
 37 47  1  0  0  0
 37 66  1  0  0  0
 37109  1  0  0  0
 38 43  2  0  0  0
 38 46  1  0  0  0
 38 47  1  0  0  0
 39 64  1  0  0  0
 39 67  2  0  0  0
 40 52  1  0  0  0
 40 53  2  0  0  0
 40 58  1  0  0  0
 41110  1  0  0  0
 41111  1  0  0  0
 41112  1  0  0  0
 41 48  1  0  0  0
 42 43  1  0  0  0
 42 66  1  0  0  0
 42113  1  0  0  0
 42114  1  0  0  0
 43 44  1  0  0  0
 44115  1  0  0  0
 45 46  2  0  0  0
 45116  1  0  0  0
 46117  1  0  0  0
 47118  1  0  0  0
 47119  1  0  0  0
 48 56  1  0  0  0
 48 65  1  0  0  0
 48120  1  0  0  0
 49 50  1  0  0  0
 49 53  1  0  0  0
 49 64  1  0  0  0
 49121  1  0  0  0
 50 51  1  0  0  0
 50122  1  0  0  0
 50123  1  0  0  0
 51 52  1  0  0  0
 51124  1  0  0  0
 51125  1  0  0  0
 52126  1  0  0  0
 52127  1  0  0  0
 53 54  1  0  0  0
 54 55  2  0  0  0
 54128  1  0  0  0
 55 57  1  0  0  0
 55129  1  0  0  0
 56 69  2  0  0  0
 57 58  2  0  0  0
 57130  1  0  0  0
 58131  1  0  0  0
 59 60  1  0  0  0
 59 61  1  0  0  0
 59 62  1  0  0  0
 60132  1  0  0  0
 60133  1  0  0  0
 60134  1  0  0  0
 61135  1  0  0  0
 61136  1  0  0  0
 61137  1  0  0  0
 62138  1  0  0  0
 62139  1  0  0  0
 62140  1  0  0  0
 63 65  1  0  0  0
 63141  1  0  0  0
 63142  1  0  0  0
 63143  1  0  0  0
 64144  1  0  0  0
 65145  1  0  0  0
 68 82  1  0  0  0
 71 72  2  0  0  0
 71 73  1  0  0  0
 71146  1  0  0  0
 72 75  1  0  0  0
 72147  1  0  0  0
 73 76  2  0  0  0
 73148  1  0  0  0
 74 75  2  0  0  0
 74 76  1  0  0  0
 74149  1  0  0  0
 75 77  1  0  0  0
 76 85  1  0  0  0
 77 84  2  0  0  0
 78 81  1  0  0  0
 78 85  1  0  0  0
 78 86  2  0  0  0
 79150  1  0  0  0
 79151  1  0  0  0
 79152  1  0  0  0
 79 83  1  0  0  0
 80 83  1  0  0  0
 80153  1  0  0  0
 80154  1  0  0  0
 80155  1  0  0  0
 81 83  1  0  0  0
 81156  1  0  0  0
 81157  1  0  0  0
 82 83  1  0  0  0
 82158  1  0  0  0
 82159  1  0  0  0
 84160  1  0  0  0
 85161  1  0  0  0
M  ISO  4   1 100  68 101  77 100  82 101
M  END
> <chiral flag>
0

> <version>
0

> <s_m_source_file>
/data/baiqing/PycharmProjects/Reinvent-master-3.2/result/LINK_invent/BTK/process_docking_weight1_custom_product_contain_oxygen_bond_distance_aromatic_linkinvent_7_9_3/rearranged_h_0145.sdf

> <i_m_source_file_index>
23

> <r_mmod_Potential_Energy-OPLS-2005>
192.293228149414

> <r_mmod_Stretch_Energy-OPLS-2005>
66.4035491943359

> <r_mmod_Bend_Energy-OPLS-2005>
152.261077880859

> <r_mmod_Torsional_Energy-OPLS-2005>
260.884368896484

> <r_mmod_Improper_Torsional_Energy-OPLS-2005>
5.82162141799927

> <r_mmod_Van_der_Waal_Energy-OPLS-2005>
149.751266479492

> <r_mmod_Electrostatic_Energy-OPLS-2005>
-250.479568481445

> <r_mmod_Solvation_Energy-OPLS-2005>
-212.686431884766

> <b_mmod_Minimization_Converged-OPLS-2005>
0

> <r_mmod_RMS_Derivative-OPLS-2005>
6.95953464508057

$$$$
23
                    3D
 Structure written by MMmdl.
159167  0  0  1  0            999 V2000
  -30.6151  -14.7961   20.4253 C   0  0  0  0  0  0
  -30.4265  -12.4899   19.4690 C   0  0  0  0  0  0
  -29.5060  -12.4956   18.2304 C   0  0  0  0  0  0
  -28.0345  -12.3173   18.6522 C   0  0  0  0  0  0
  -27.6311  -13.2399   19.8344 C   0  0  2  0  0  0
  -28.6779  -13.2300   20.9655 C   0  0  0  0  0  0
  -25.2483  -13.8214   20.5712 C   0  0  0  0  0  0
  -24.1786  -13.0447   20.9224 C   0  0  0  0  0  0
  -24.6388  -11.6928   20.8753 C   0  0  0  0  0  0
  -23.9070  -10.4298   21.0406 C   0  0  0  0  0  0
  -24.3621   -9.4210   21.9183 C   0  0  0  0  0  0
  -23.6296   -8.2245   22.0754 C   0  0  0  0  0  0
  -22.4278   -8.0283   21.3544 C   0  0  0  0  0  0
  -21.9913   -9.0260   20.4648 C   0  0  0  0  0  0
  -22.7242  -10.2139   20.3056 C   0  0  0  0  0  0
  -21.6855   -6.0736   22.5277 C   0  0  0  0  0  0
  -21.4018   -6.5639   23.8212 C   0  0  0  0  0  0
  -21.3660   -5.6791   24.9174 C   0  0  0  0  0  0
  -21.6041   -4.3054   24.7226 C   0  0  0  0  0  0
  -21.8818   -3.8146   23.4348 C   0  0  0  0  0  0
  -21.9193   -4.6962   22.3403 C   0  0  0  0  0  0
  -22.7807  -13.5225   21.1878 C   0  0  0  0  0  0
  -22.1661   -4.2146   21.0982 F   0  0  0  0  0  0
  -21.5628   -3.4539   25.7741 F   0  0  0  0  0  0
  -29.9611  -13.5833   20.3542 N   0  0  0  0  0  0
  -26.2895  -12.9433   20.3240 N   0  0  0  0  0  0
  -25.9318  -11.6570   20.5743 N   0  0  0  0  0  0
  -22.0451  -12.8221   22.0434 N   0  0  0  0  0  0
  -25.4179  -15.1938   20.4150 N   0  0  0  0  0  0
  -31.8428  -14.7963   20.2840 O   0  0  0  0  0  0
  -21.6641   -6.8880   21.4239 O   0  0  0  0  0  0
  -22.3492  -14.5525   20.6714 O   0  0  0  0  0  0
  -24.6326  -31.8529   23.1944 C   0  0  0  0  0  0
  -25.9142  -32.4739   23.8303 C   0  0  1  0  0  0
  -27.2179  -27.2314   20.1549 C   0  0  0  0  0  0
  -25.5927  -33.8542   24.2226 N   0  0  0  0  0  0
  -23.4307  -30.4727   21.5390 C   0  0  2  0  0  0
  -24.8768  -28.9000   20.1255 C   0  0  0  0  0  0
  -22.7506  -29.4600   22.4916 C   0  0  0  0  0  0
  -18.0293  -28.1403   22.8483 C   0  0  0  0  0  0
  -24.1487  -36.7280   23.2643 C   0  0  0  0  0  0
  -25.9772  -30.7565   21.3767 C   0  0  0  0  0  0
  -26.0493  -29.3706   20.7318 C   0  0  0  0  0  0
  -27.2263  -28.5521   20.7257 C   0  0  0  0  0  0
  -26.0222  -26.8215   19.5349 C   0  0  0  0  0  0
  -24.8687  -27.6334   19.5168 C   0  0  0  0  0  0
  -23.6518  -29.7958   20.1603 C   0  0  0  0  0  0
  -25.4118  -36.3060   24.0323 C   0  0  1  0  0  0
  -20.5895  -28.3716   23.1269 C   0  0  2  0  0  0
  -20.6780  -26.9433   22.5413 C   0  0  0  0  0  0
  -19.5755  -26.6393   21.5222 C   0  0  0  0  0  0
  -18.1935  -26.7941   22.1629 C   0  0  0  0  0  0
  -19.1545  -28.8874   23.2868 C   0  0  0  0  0  0
  -18.9464  -30.1474   23.8891 C   0  0  0  0  0  0
  -17.6463  -30.6599   24.0573 C   0  0  0  0  0  0
  -25.9060  -34.9431   23.5081 C   0  0  0  0  0  0
  -16.5356  -29.9097   23.6338 C   0  0  0  0  0  0
  -16.7279  -28.6516   23.0353 C   0  0  0  0  0  0
  -26.4500  -31.6578   25.0708 C   0  0  0  0  0  0
  -25.3713  -31.3743   26.1423 C   0  0  0  0  0  0
  -27.0356  -30.2988   24.6225 C   0  0  0  0  0  0
  -27.6044  -32.4333   25.7486 C   0  0  0  0  0  0
  -27.5580  -37.1800   24.8467 C   0  0  0  0  0  0
  -21.4210  -29.3052   22.3651 N   0  0  0  0  0  0
  -26.4290  -37.3764   23.9407 N   0  0  0  0  0  0
  -24.6997  -31.0472   22.0929 N   0  0  0  0  0  0
  -23.4191  -28.8154   23.3040 O   0  0  0  0  0  0
  -28.3423  -26.3836   20.0506 O   0  0  0  0  0  0
  -26.5648  -34.8907   22.4660 O   0  0  0  0  0  0
  -23.5472  -32.1361   23.7228 O   0  0  0  0  0  0
  -30.7285  -18.7345   19.3823 C   0  0  0  0  0  0
  -31.0038  -17.6775   18.6001 C   0  0  0  0  0  0
  -29.5903  -18.6796   20.3226 C   0  0  0  0  0  0
  -29.3392  -21.1276   20.5161 C   0  0  0  0  0  0
  -30.2158  -16.3769   18.6419 C   0  0  0  0  0  0
  -29.3014  -17.1425   20.8183 C   0  0  2  0  0  0
  -28.7539  -17.8759   23.2750 C   0  0  0  0  0  0
  -28.4668  -22.2627   19.7800 C   0  0  0  0  0  0
  -29.5690  -16.9679   22.3394 C   0  0  0  0  0  0
  -27.8103  -23.6115   20.4454 C   0  0  0  0  0  0
  -28.5035  -25.0559   20.7527 C   0  0  0  0  0  0
  -28.8676  -19.7619   20.6256 N   0  0  0  0  0  0
  -29.9217  -15.9564   20.0268 N   0  0  0  0  0  0
  -30.4428  -21.4847   20.9271 O   0  0  0  0  0  0
  -31.4654  -12.6182   19.1600 H   0  0  0  0  0  0
  -30.3815  -11.5306   19.9868 H   0  0  0  0  0  0
  -29.7967  -11.7023   17.5406 H   0  0  0  0  0  0
  -29.6215  -13.4328   17.6839 H   0  0  0  0  0  0
  -27.9040  -11.2737   18.9406 H   0  0  0  0  0  0
  -27.3733  -12.4805   17.8003 H   0  0  0  0  0  0
  -27.6079  -14.2506   19.4257 H   0  0  0  0  0  0
  -28.7310  -12.2532   21.4486 H   0  0  0  0  0  0
  -28.4079  -13.9504   21.7387 H   0  0  0  0  0  0
  -25.2765   -9.5689   22.4761 H   0  0  0  0  0  0
  -24.0002   -7.4636   22.7473 H   0  0  0  0  0  0
  -21.0843   -8.8782   19.8957 H   0  0  0  0  0  0
  -22.3698  -10.9679   19.6168 H   0  0  0  0  0  0
  -21.2013   -7.6147   23.9718 H   0  0  0  0  0  0
  -21.1482   -6.0521   25.9076 H   0  0  0  0  0  0
  -22.0596   -2.7608   23.2850 H   0  0  0  0  0  0
  -22.4071  -11.9895   22.4842 H   0  0  0  0  0  0
  -21.1062  -13.1242   22.2620 H   0  0  0  0  0  0
  -24.6526  -15.8492   20.5324 H   0  0  0  0  0  0
  -26.2716  -15.6329   20.0967 H   0  0  0  0  0  0
  -26.7210  -32.5380   23.1047 H   0  0  0  0  0  0
  -25.0045  -33.9665   25.0350 H   0  0  0  0  0  0
  -22.7286  -31.2952   21.3871 H   0  0  0  0  0  0
  -23.3743  -35.9620   23.3305 H   0  0  0  0  0  0
  -24.3575  -36.8906   22.2058 H   0  0  0  0  0  0
  -23.7239  -37.6479   23.6673 H   0  0  0  0  0  0
  -26.1162  -31.5089   20.5989 H   0  0  0  0  0  0
  -26.8548  -30.8125   22.0090 H   0  0  0  0  0  0
  -28.1360  -28.9211   21.1777 H   0  0  0  0  0  0
  -25.9820  -25.8571   19.0493 H   0  0  0  0  0  0
  -23.9723  -27.2675   19.0349 H   0  0  0  0  0  0
  -23.7845  -30.5654   19.3990 H   0  0  0  0  0  0
  -22.7681  -29.2319   19.8560 H   0  0  0  0  0  0
  -25.1302  -36.1907   25.0817 H   0  0  0  0  0  0
  -20.9991  -28.3300   24.1389 H   0  0  0  0  0  0
  -20.5690  -26.2330   23.3620 H   0  0  0  0  0  0
  -21.6649  -26.7462   22.1209 H   0  0  0  0  0  0
  -19.6916  -25.6300   21.1262 H   0  0  0  0  0  0
  -19.6689  -27.3198   20.6747 H   0  0  0  0  0  0
  -17.4209  -26.6690   21.4028 H   0  0  0  0  0  0
  -18.0329  -26.0086   22.9027 H   0  0  0  0  0  0
  -19.7939  -30.7297   24.2254 H   0  0  0  0  0  0
  -17.5018  -31.6277   24.5182 H   0  0  0  0  0  0
  -15.5355  -30.3005   23.7663 H   0  0  0  0  0  0
  -15.8676  -28.0843   22.7069 H   0  0  0  0  0  0
  -24.5885  -30.7099   25.7748 H   0  0  0  0  0  0
  -24.8907  -32.2919   26.4829 H   0  0  0  0  0  0
  -25.8016  -30.8928   27.0213 H   0  0  0  0  0  0
  -26.2952  -29.6724   24.1238 H   0  0  0  0  0  0
  -27.4006  -29.7266   25.4765 H   0  0  0  0  0  0
  -27.8839  -30.4244   23.9492 H   0  0  0  0  0  0
  -27.2644  -33.3636   26.2047 H   0  0  0  0  0  0
  -28.3864  -32.6895   25.0328 H   0  0  0  0  0  0
  -28.0705  -31.8473   26.5416 H   0  0  0  0  0  0
  -28.2607  -38.0090   24.7509 H   0  0  0  0  0  0
  -28.1066  -36.2621   24.6300 H   0  0  0  0  0  0
  -27.2300  -37.1462   25.8871 H   0  0  0  0  0  0
  -20.9406  -29.8749   21.6826 H   0  0  0  0  0  0
  -26.0163  -38.2838   24.1400 H   0  0  0  0  0  0
  -31.2979  -19.6483   19.3102 H   0  0  0  0  0  0
  -31.8093  -17.7389   17.8814 H   0  0  0  0  0  0
  -30.7731  -15.6228   18.0806 H   0  0  0  0  0  0
  -29.2783  -16.5073   18.0996 H   0  0  0  0  0  0
  -28.2292  -16.9988   20.6805 H   0  0  0  0  0  0
  -28.9072  -17.5911   24.3166 H   0  0  0  0  0  0
  -27.6856  -17.8052   23.0669 H   0  0  0  0  0  0
  -29.0473  -18.9218   23.1879 H   0  0  0  0  0  0
  -27.6337  -21.7136   19.3408 H   0  0  0  0  0  0
  -29.0539  -22.5850   18.9199 H   0  0  0  0  0  0
  -30.6316  -17.1126   22.5410 H   0  0  0  0  0  0
  -29.3457  -15.9427   22.6335 H   0  0  0  0  0  0
  -27.4113  -23.2732   21.4023 H   0  0  0  0  0  0
  -26.9129  -23.8321   19.8686 H   0  0  0  0  0  0
  -29.5783  -24.8758   20.7720 H   0  0  0  0  0  0
  -28.2672  -25.2823   21.7930 H   0  0  0  0  0  0
  1 25  1  0  0  0
  1 30  2  0  0  0
  1 83  1  0  0  0
  2  3  1  0  0  0
  2 25  1  0  0  0
  2 85  1  0  0  0
  2 86  1  0  0  0
  3  4  1  0  0  0
  3 87  1  0  0  0
  3 88  1  0  0  0
  4  5  1  0  0  0
  4 89  1  0  0  0
  4 90  1  0  0  0
  5  6  1  0  0  0
  5 26  1  0  0  0
  5 91  1  0  0  0
  6 25  1  0  0  0
  6 92  1  0  0  0
  6 93  1  0  0  0
  7  8  2  0  0  0
  7 26  1  0  0  0
  7 29  1  0  0  0
  8  9  1  0  0  0
  8 22  1  0  0  0
  9 10  1  0  0  0
  9 27  2  0  0  0
 10 11  2  0  0  0
 10 15  1  0  0  0
 11 12  1  0  0  0
 11 94  1  0  0  0
 12 13  2  0  0  0
 12 95  1  0  0  0
 13 14  1  0  0  0
 13 31  1  0  0  0
 14 15  2  0  0  0
 14 96  1  0  0  0
 15 97  1  0  0  0
 16 17  2  0  0  0
 16 21  1  0  0  0
 16 31  1  0  0  0
 17 18  1  0  0  0
 17 98  1  0  0  0
 18 19  2  0  0  0
 18 99  1  0  0  0
 19 20  1  0  0  0
 19 24  1  0  0  0
 20 21  2  0  0  0
 20100  1  0  0  0
 21 23  1  0  0  0
 22 28  1  0  0  0
 22 32  2  0  0  0
 26 27  1  0  0  0
 28101  1  0  0  0
 28102  1  0  0  0
 29103  1  0  0  0
 29104  1  0  0  0
 33 34  1  0  0  0
 33 66  1  0  0  0
 33 70  2  0  0  0
 34 36  1  0  0  0
 34 59  1  0  0  0
 34105  1  0  0  0
 35 44  2  0  0  0
 35 45  1  0  0  0
 35 68  1  0  0  0
 36 56  1  0  0  0
 36106  1  0  0  0
 37 39  1  0  0  0
 37 47  1  0  0  0
 37 66  1  0  0  0
 37107  1  0  0  0
 38 43  2  0  0  0
 38 46  1  0  0  0
 38 47  1  0  0  0
 39 64  1  0  0  0
 39 67  2  0  0  0
 40 52  1  0  0  0
 40 53  2  0  0  0
 40 58  1  0  0  0
 41108  1  0  0  0
 41109  1  0  0  0
 41110  1  0  0  0
 41 48  1  0  0  0
 42 43  1  0  0  0
 42 66  1  0  0  0
 42111  1  0  0  0
 42112  1  0  0  0
 43 44  1  0  0  0
 44113  1  0  0  0
 45 46  2  0  0  0
 45114  1  0  0  0
 46115  1  0  0  0
 47116  1  0  0  0
 47117  1  0  0  0
 48 56  1  0  0  0
 48 65  1  0  0  0
 48118  1  0  0  0
 49 50  1  0  0  0
 49 53  1  0  0  0
 49 64  1  0  0  0
 49119  1  0  0  0
 50 51  1  0  0  0
 50120  1  0  0  0
 50121  1  0  0  0
 51 52  1  0  0  0
 51122  1  0  0  0
 51123  1  0  0  0
 52124  1  0  0  0
 52125  1  0  0  0
 53 54  1  0  0  0
 54 55  2  0  0  0
 54126  1  0  0  0
 55 57  1  0  0  0
 55127  1  0  0  0
 56 69  2  0  0  0
 57 58  2  0  0  0
 57128  1  0  0  0
 58129  1  0  0  0
 59 60  1  0  0  0
 59 61  1  0  0  0
 59 62  1  0  0  0
 60130  1  0  0  0
 60131  1  0  0  0
 60132  1  0  0  0
 61133  1  0  0  0
 61134  1  0  0  0
 61135  1  0  0  0
 62136  1  0  0  0
 62137  1  0  0  0
 62138  1  0  0  0
 63 65  1  0  0  0
 63139  1  0  0  0
 63140  1  0  0  0
 63141  1  0  0  0
 64142  1  0  0  0
 65143  1  0  0  0
 68 81  1  0  0  0
 71 72  2  0  0  0
 71 73  1  0  0  0
 71144  1  0  0  0
 72 75  1  0  0  0
 72145  1  0  0  0
 73 76  1  0  0  0
 73 82  2  0  0  0
 74 78  1  0  0  0
 74 82  1  0  0  0
 74 84  2  0  0  0
 75 83  1  0  0  0
 75146  1  0  0  0
 75147  1  0  0  0
 76 79  1  0  0  0
 76 83  1  0  0  0
 76148  1  0  0  0
 77 79  1  0  0  0
 77149  1  0  0  0
 77150  1  0  0  0
 77151  1  0  0  0
 78 80  1  0  0  0
 78152  1  0  0  0
 78153  1  0  0  0
 79154  1  0  0  0
 79155  1  0  0  0
 80 81  1  0  0  0
 80156  1  0  0  0
 80157  1  0  0  0
 81158  1  0  0  0
 81159  1  0  0  0
M  ISO  4   1 100  68 101  81 101  83 100
M  END
> <chiral flag>
0

> <version>
0

> <s_m_source_file>
/data/baiqing/PycharmProjects/Reinvent-master-3.2/result/LINK_invent/BTK/process_docking_weight1_custom_product_contain_oxygen_bond_distance_aromatic_linkinvent_7_9_3/rearranged_h_0145.sdf

> <i_m_source_file_index>
24

> <r_mmod_Potential_Energy-OPLS-2005>
521.039123535156

> <r_mmod_Stretch_Energy-OPLS-2005>
165.482223510742

> <r_mmod_Bend_Energy-OPLS-2005>
265.051513671875

> <r_mmod_Torsional_Energy-OPLS-2005>
364.321807861328

> <r_mmod_Improper_Torsional_Energy-OPLS-2005>
25.0223293304443

> <r_mmod_Van_der_Waal_Energy-OPLS-2005>
125.759399414062

> <r_mmod_Electrostatic_Energy-OPLS-2005>
-339.807220458984

> <r_mmod_Solvation_Energy-OPLS-2005>
-190.927352905273

> <b_mmod_Minimization_Converged-OPLS-2005>
0

> <r_mmod_RMS_Derivative-OPLS-2005>
0.843735575675964

$$$$
24
                    3D
 Structure written by MMmdl.
166175  0  0  1  0            999 V2000
  -30.6826  -14.4804   20.5830 C   0  0  0  0  0  0
  -30.4331  -12.3157   19.4163 C   0  0  0  0  0  0
  -29.4975  -12.5080   18.2038 C   0  0  0  0  0  0
  -28.0183  -12.3645   18.6166 C   0  0  0  0  0  0
  -27.6636  -13.2002   19.8751 C   0  0  2  0  0  0
  -28.7055  -12.9672   20.9928 C   0  0  0  0  0  0
  -25.2604  -13.8144   20.5663 C   0  0  0  0  0  0
  -24.1847  -13.0435   20.9176 C   0  0  0  0  0  0
  -24.6387  -11.6898   20.8730 C   0  0  0  0  0  0
  -23.9048  -10.4291   21.0400 C   0  0  0  0  0  0
  -24.3604   -9.4209   21.9179 C   0  0  0  0  0  0
  -23.6282   -8.2244   22.0753 C   0  0  0  0  0  0
  -22.4265   -8.0280   21.3541 C   0  0  0  0  0  0
  -21.9892   -9.0254   20.4648 C   0  0  0  0  0  0
  -22.7217  -10.2134   20.3055 C   0  0  0  0  0  0
  -21.6853   -6.0728   22.5274 C   0  0  0  0  0  0
  -21.4017   -6.5632   23.8208 C   0  0  0  0  0  0
  -21.3659   -5.6785   24.9170 C   0  0  0  0  0  0
  -21.6044   -4.3050   24.7221 C   0  0  0  0  0  0
  -21.8821   -3.8140   23.4344 C   0  0  0  0  0  0
  -21.9194   -4.6955   22.3398 C   0  0  0  0  0  0
  -22.7872  -13.5247   21.1839 C   0  0  0  0  0  0
  -22.1662   -4.2141   21.0974 F   0  0  0  0  0  0
  -21.5629   -3.4534   25.7736 F   0  0  0  0  0  0
  -30.0368  -13.2890   20.4457 N   0  0  0  0  0  0
  -26.3029  -12.9297   20.3348 N   0  0  0  0  0  0
  -25.9312  -11.6466   20.5753 N   0  0  0  0  0  0
  -22.0503  -12.8255   22.0400 N   0  0  0  0  0  0
  -25.4343  -15.1860   20.4046 N   0  0  0  0  0  0
  -31.8053  -14.6874   20.1120 O   0  0  0  0  0  0
  -21.6636   -6.8871   21.4237 O   0  0  0  0  0  0
  -22.3566  -14.5553   20.6683 O   0  0  0  0  0  0
  -24.6165  -31.8677   23.2097 C   0  0  0  0  0  0
  -25.9056  -32.4819   23.8391 C   0  0  1  0  0  0
  -27.2332  -27.4179   20.0881 C   0  0  0  0  0  0
  -25.5910  -33.8617   24.2323 N   0  0  0  0  0  0
  -23.4039  -30.4927   21.5518 C   0  0  2  0  0  0
  -24.8472  -28.9576   20.1172 C   0  0  0  0  0  0
  -22.7416  -29.4663   22.4992 C   0  0  0  0  0  0
  -18.0275  -28.1379   22.8492 C   0  0  0  0  0  0
  -24.1490  -36.7314   23.2635 C   0  0  0  0  0  0
  -25.9358  -30.8277   21.3649 C   0  0  0  0  0  0
  -26.0111  -29.4618   20.7096 C   0  0  0  0  0  0
  -27.2050  -28.7007   20.6895 C   0  0  0  0  0  0
  -26.0390  -26.9294   19.5034 C   0  0  0  0  0  0
  -24.8568  -27.6907   19.5136 C   0  0  0  0  0  0
  -23.6116  -29.8274   20.1663 C   0  0  0  0  0  0
  -25.4108  -36.3107   24.0336 C   0  0  1  0  0  0
  -20.5865  -28.3668   23.1316 C   0  0  2  0  0  0
  -20.6767  -26.9404   22.5417 C   0  0  0  0  0  0
  -19.5746  -26.6387   21.5214 C   0  0  0  0  0  0
  -18.1924  -26.7927   22.1622 C   0  0  0  0  0  0
  -19.1524  -28.8840   23.2901 C   0  0  0  0  0  0
  -18.9451  -30.1447   23.8912 C   0  0  0  0  0  0
  -17.6452  -30.6584   24.0569 C   0  0  0  0  0  0
  -25.9039  -34.9474   23.5124 C   0  0  0  0  0  0
  -16.5344  -29.9087   23.6325 C   0  0  0  0  0  0
  -16.7265  -28.6504   23.0347 C   0  0  0  0  0  0
  -26.4476  -31.6600   25.0722 C   0  0  0  0  0  0
  -25.3741  -31.3721   26.1475 C   0  0  0  0  0  0
  -27.0297  -30.3036   24.6107 C   0  0  0  0  0  0
  -27.6058  -32.4316   25.7474 C   0  0  0  0  0  0
  -27.5586  -37.1803   24.8458 C   0  0  0  0  0  0
  -21.4143  -29.3036   22.3726 N   0  0  0  0  0  0
  -26.4293  -37.3793   23.9411 N   0  0  0  0  0  0
  -24.6707  -31.0768   22.1004 N   0  0  0  0  0  0
  -23.4183  -28.8203   23.3035 O   0  0  0  0  0  0
  -28.4152  -26.6924   20.0900 O   0  0  0  0  0  0
  -26.5600  -34.8926   22.4686 O   0  0  0  0  0  0
  -23.5357  -32.1437   23.7487 O   0  0  0  0  0  0
  -29.0985  -19.0794   21.5544 C   0  0  0  0  0  0
  -31.5164  -18.8862   21.4256 C   0  0  0  0  0  0
  -28.9857  -17.6807   21.3757 C   0  0  0  0  0  0
  -31.4028  -17.4889   21.2325 C   0  0  0  0  0  0
  -30.3683  -19.6945   21.6096 C   0  0  0  0  0  0
  -30.1317  -16.8631   21.2275 C   0  0  0  0  0  0
  -30.5097  -21.1091   22.0218 C   0  0  0  0  0  0
  -29.7027  -23.1637   19.1494 C   0  0  0  0  0  0
  -30.4616  -24.5968   21.0674 C   0  0  0  0  0  0
  -29.1626  -22.1113   20.1509 C   0  0  0  0  0  0
  -29.8740  -23.5458   22.0280 C   0  0  0  0  0  0
  -29.7763  -24.6297   19.6795 C   0  0  0  0  0  0
  -30.6531  -25.4493   18.7070 C   0  0  0  0  0  0
  -28.3705  -25.2997   19.7187 C   0  0  0  0  0  0
  -29.9086  -22.1830   21.4286 N   0  0  0  0  0  0
  -29.9344  -15.4478   21.1531 N   0  0  0  0  0  0
  -31.2861  -21.3224   23.0816 N   0  3  0  0  0  0
  -31.4747  -12.4324   19.1112 H   0  0  0  0  0  0
  -30.3503  -11.3010   19.8086 H   0  0  0  0  0  0
  -29.7383  -11.7834   17.4248 H   0  0  0  0  0  0
  -29.6617  -13.4935   17.7649 H   0  0  0  0  0  0
  -27.8303  -11.3078   18.8105 H   0  0  0  0  0  0
  -27.3675  -12.6398   17.7859 H   0  0  0  0  0  0
  -27.7106  -14.2490   19.5823 H   0  0  0  0  0  0
  -28.6868  -11.9246   21.3137 H   0  0  0  0  0  0
  -28.4596  -13.5433   21.8859 H   0  0  0  0  0  0
  -25.2753   -9.5684   22.4747 H   0  0  0  0  0  0
  -23.9992   -7.4636   22.7473 H   0  0  0  0  0  0
  -21.0819   -8.8771   19.8959 H   0  0  0  0  0  0
  -22.3672  -10.9673   19.6164 H   0  0  0  0  0  0
  -21.2013   -7.6141   23.9707 H   0  0  0  0  0  0
  -21.1477   -6.0516   25.9071 H   0  0  0  0  0  0
  -22.0601   -2.7601   23.2846 H   0  0  0  0  0  0
  -22.4106  -11.9914   22.4794 H   0  0  0  0  0  0
  -21.1128  -13.1300   22.2602 H   0  0  0  0  0  0
  -24.6612  -15.8370   20.4925 H   0  0  0  0  0  0
  -26.2687  -15.6134   20.0244 H   0  0  0  0  0  0
  -26.7125  -32.5522   23.1153 H   0  0  0  0  0  0
  -25.0064  -33.9779   25.0471 H   0  0  0  0  0  0
  -22.6930  -31.3100   21.4142 H   0  0  0  0  0  0
  -23.3745  -35.9654   23.3303 H   0  0  0  0  0  0
  -24.3587  -36.8923   22.2049 H   0  0  0  0  0  0
  -23.7250  -37.6525   23.6645 H   0  0  0  0  0  0
  -26.0518  -31.5944   20.5976 H   0  0  0  0  0  0
  -26.8226  -30.8782   21.9851 H   0  0  0  0  0  0
  -28.1049  -29.0907   21.1446 H   0  0  0  0  0  0
  -25.9857  -25.9612   19.0303 H   0  0  0  0  0  0
  -23.9598  -27.2937   19.0583 H   0  0  0  0  0  0
  -23.7225  -30.6036   19.4083 H   0  0  0  0  0  0
  -22.7340  -29.2505   19.8689 H   0  0  0  0  0  0
  -25.1283  -36.1970   25.0827 H   0  0  0  0  0  0
  -20.9955  -28.3236   24.1438 H   0  0  0  0  0  0
  -20.5672  -26.2276   23.3604 H   0  0  0  0  0  0
  -21.6640  -26.7452   22.1210 H   0  0  0  0  0  0
  -19.6909  -25.6302   21.1233 H   0  0  0  0  0  0
  -19.6686  -27.3206   20.6752 H   0  0  0  0  0  0
  -17.4195  -26.6679   21.4022 H   0  0  0  0  0  0
  -18.0322  -26.0064   22.9013 H   0  0  0  0  0  0
  -19.7926  -30.7260   24.2285 H   0  0  0  0  0  0
  -17.5008  -31.6265   24.5169 H   0  0  0  0  0  0
  -15.5346  -30.2995   23.7640 H   0  0  0  0  0  0
  -15.8665  -28.0831   22.7050 H   0  0  0  0  0  0
  -24.5910  -30.7067   25.7821 H   0  0  0  0  0  0
  -24.8937  -32.2884   26.4918 H   0  0  0  0  0  0
  -25.8094  -30.8897   27.0234 H   0  0  0  0  0  0
  -26.2838  -29.6802   24.1161 H   0  0  0  0  0  0
  -27.4060  -29.7271   25.4568 H   0  0  0  0  0  0
  -27.8681  -30.4345   23.9260 H   0  0  0  0  0  0
  -27.2683  -33.3603   26.2088 H   0  0  0  0  0  0
  -28.3841  -32.6898   25.0280 H   0  0  0  0  0  0
  -28.0756  -31.8420   26.5357 H   0  0  0  0  0  0
  -28.2597  -38.0108   24.7523 H   0  0  0  0  0  0
  -28.1089  -36.2643   24.6254 H   0  0  0  0  0  0
  -27.2312  -37.1422   25.8863 H   0  0  0  0  0  0
  -20.9302  -29.8763   21.6954 H   0  0  0  0  0  0
  -26.0182  -38.2868   24.1421 H   0  0  0  0  0  0
  -28.2061  -19.6674   21.7186 H   0  0  0  0  0  0
  -32.5006  -19.3321   21.4744 H   0  0  0  0  0  0
  -27.9999  -17.2368   21.3850 H   0  0  0  0  0  0
  -32.3082  -16.9072   21.1370 H   0  0  0  0  0  0
  -29.1002  -23.1303   18.2405 H   0  0  0  0  0  0
  -30.6975  -22.8385   18.8415 H   0  0  0  0  0  0
  -31.5259  -24.3878   20.9500 H   0  0  0  0  0  0
  -30.4079  -25.5823   21.5321 H   0  0  0  0  0  0
  -29.2355  -21.1230   19.6948 H   0  0  0  0  0  0
  -28.1025  -22.2818   20.3448 H   0  0  0  0  0  0
  -28.8378  -23.7962   22.2594 H   0  0  0  0  0  0
  -30.3991  -23.6051   22.9812 H   0  0  0  0  0  0
  -31.6502  -25.0206   18.6004 H   0  0  0  0  0  0
  -30.7811  -26.4762   19.0516 H   0  0  0  0  0  0
  -30.2098  -25.4930   17.7114 H   0  0  0  0  0  0
  -27.7077  -24.7625   20.3987 H   0  0  0  0  0  0
  -27.9470  -25.2087   18.7177 H   0  0  0  0  0  0
  -29.0263  -15.1247   21.4458 H   0  0  0  0  0  0
  -31.6878  -20.5272   23.5555 H   0  0  0  0  0  0
  -31.5079  -22.2450   23.4117 H   0  0  0  0  0  0
  1 25  1  0  0  0
  1 30  2  0  0  0
  1 86  1  0  0  0
  2  3  1  0  0  0
  2 25  1  0  0  0
  2 88  1  0  0  0
  2 89  1  0  0  0
  3  4  1  0  0  0
  3 90  1  0  0  0
  3 91  1  0  0  0
  4  5  1  0  0  0
  4 92  1  0  0  0
  4 93  1  0  0  0
  5  6  1  0  0  0
  5 26  1  0  0  0
  5 94  1  0  0  0
  6 25  1  0  0  0
  6 95  1  0  0  0
  6 96  1  0  0  0
  7  8  2  0  0  0
  7 26  1  0  0  0
  7 29  1  0  0  0
  8  9  1  0  0  0
  8 22  1  0  0  0
  9 10  1  0  0  0
  9 27  2  0  0  0
 10 11  2  0  0  0
 10 15  1  0  0  0
 11 12  1  0  0  0
 11 97  1  0  0  0
 12 13  2  0  0  0
 12 98  1  0  0  0
 13 14  1  0  0  0
 13 31  1  0  0  0
 14 15  2  0  0  0
 14 99  1  0  0  0
 15100  1  0  0  0
 16 17  2  0  0  0
 16 21  1  0  0  0
 16 31  1  0  0  0
 17 18  1  0  0  0
 17101  1  0  0  0
 18 19  2  0  0  0
 18102  1  0  0  0
 19 20  1  0  0  0
 19 24  1  0  0  0
 20 21  2  0  0  0
 20103  1  0  0  0
 21 23  1  0  0  0
 22 28  1  0  0  0
 22 32  2  0  0  0
 26 27  1  0  0  0
 28104  1  0  0  0
 28105  1  0  0  0
 29106  1  0  0  0
 29107  1  0  0  0
 33 34  1  0  0  0
 33 66  1  0  0  0
 33 70  2  0  0  0
 34 36  1  0  0  0
 34 59  1  0  0  0
 34108  1  0  0  0
 35 44  2  0  0  0
 35 45  1  0  0  0
 35 68  1  0  0  0
 36 56  1  0  0  0
 36109  1  0  0  0
 37 39  1  0  0  0
 37 47  1  0  0  0
 37 66  1  0  0  0
 37110  1  0  0  0
 38 43  2  0  0  0
 38 46  1  0  0  0
 38 47  1  0  0  0
 39 64  1  0  0  0
 39 67  2  0  0  0
 40 52  1  0  0  0
 40 53  2  0  0  0
 40 58  1  0  0  0
 41111  1  0  0  0
 41112  1  0  0  0
 41113  1  0  0  0
 41 48  1  0  0  0
 42 43  1  0  0  0
 42 66  1  0  0  0
 42114  1  0  0  0
 42115  1  0  0  0
 43 44  1  0  0  0
 44116  1  0  0  0
 45 46  2  0  0  0
 45117  1  0  0  0
 46118  1  0  0  0
 47119  1  0  0  0
 47120  1  0  0  0
 48 56  1  0  0  0
 48 65  1  0  0  0
 48121  1  0  0  0
 49 50  1  0  0  0
 49 53  1  0  0  0
 49 64  1  0  0  0
 49122  1  0  0  0
 50 51  1  0  0  0
 50123  1  0  0  0
 50124  1  0  0  0
 51 52  1  0  0  0
 51125  1  0  0  0
 51126  1  0  0  0
 52127  1  0  0  0
 52128  1  0  0  0
 53 54  1  0  0  0
 54 55  2  0  0  0
 54129  1  0  0  0
 55 57  1  0  0  0
 55130  1  0  0  0
 56 69  2  0  0  0
 57 58  2  0  0  0
 57131  1  0  0  0
 58132  1  0  0  0
 59 60  1  0  0  0
 59 61  1  0  0  0
 59 62  1  0  0  0
 60133  1  0  0  0
 60134  1  0  0  0
 60135  1  0  0  0
 61136  1  0  0  0
 61137  1  0  0  0
 61138  1  0  0  0
 62139  1  0  0  0
 62140  1  0  0  0
 62141  1  0  0  0
 63 65  1  0  0  0
 63142  1  0  0  0
 63143  1  0  0  0
 63144  1  0  0  0
 64145  1  0  0  0
 65146  1  0  0  0
 68 84  1  0  0  0
 71 73  2  0  0  0
 71 75  1  0  0  0
 71147  1  0  0  0
 72 74  1  0  0  0
 72 75  2  0  0  0
 72148  1  0  0  0
 73 76  1  0  0  0
 73149  1  0  0  0
 74 76  2  0  0  0
 74150  1  0  0  0
 75 77  1  0  0  0
 76 86  1  0  0  0
 77 85  1  0  0  0
 77 87  2  0  0  0
 78 80  1  0  0  0
 78 82  1  0  0  0
 78151  1  0  0  0
 78152  1  0  0  0
 79 81  1  0  0  0
 79 82  1  0  0  0
 79153  1  0  0  0
 79154  1  0  0  0
 80 85  1  0  0  0
 80155  1  0  0  0
 80156  1  0  0  0
 81 85  1  0  0  0
 81157  1  0  0  0
 81158  1  0  0  0
 82 83  1  0  0  0
 82 84  1  0  0  0
 83159  1  0  0  0
 83160  1  0  0  0
 83161  1  0  0  0
 84162  1  0  0  0
 84163  1  0  0  0
 86164  1  0  0  0
 87165  1  0  0  0
 87166  1  0  0  0
M  CHG  1  87   1
M  ISO  4   1 100  68 101  84 101  86 100
M  END
> <chiral flag>
0

> <version>
0

> <s_m_source_file>
/data/baiqing/PycharmProjects/Reinvent-master-3.2/result/LINK_invent/BTK/process_docking_weight1_custom_product_contain_oxygen_bond_distance_aromatic_linkinvent_7_9_3/rearranged_h_0145.sdf

> <i_m_source_file_index>
25

> <r_mmod_Potential_Energy-OPLS-2005>
-157.465225219727

> <r_mmod_Stretch_Energy-OPLS-2005>
44.106372833252

> <r_mmod_Bend_Energy-OPLS-2005>
118.862701416016

> <r_mmod_Torsional_Energy-OPLS-2005>
260.954132080078

> <r_mmod_Improper_Torsional_Energy-OPLS-2005>
4.55434417724609

> <r_mmod_Van_der_Waal_Energy-OPLS-2005>
168.934768676758

> <r_mmod_Electrostatic_Energy-OPLS-2005>
-375.037689208984

> <r_mmod_Solvation_Energy-OPLS-2005>
-393.412780761719

> <b_mmod_Minimization_Converged-OPLS-2005>
0

> <r_mmod_RMS_Derivative-OPLS-2005>
0.506473898887634

$$$$
25
                    3D
 Structure written by MMmdl.
162170  0  0  1  0            999 V2000
  -30.7203  -14.4209   20.5974 C   0  0  0  0  0  0
  -30.4221  -12.2847   19.4011 C   0  0  0  0  0  0
  -29.4885  -12.5074   18.1937 C   0  0  0  0  0  0
  -28.0107  -12.3678   18.6101 C   0  0  0  0  0  0
  -27.6634  -13.1999   19.8737 C   0  0  2  0  0  0
  -28.7052  -12.9507   20.9867 C   0  0  0  0  0  0
  -25.2592  -13.8168   20.5688 C   0  0  0  0  0  0
  -24.1832  -13.0452   20.9198 C   0  0  0  0  0  0
  -24.6372  -11.6917   20.8730 C   0  0  0  0  0  0
  -23.9033  -10.4309   21.0401 C   0  0  0  0  0  0
  -24.3599   -9.4229   21.9178 C   0  0  0  0  0  0
  -23.6296   -8.2248   22.0742 C   0  0  0  0  0  0
  -22.4270   -8.0282   21.3538 C   0  0  0  0  0  0
  -21.9901   -9.0248   20.4634 C   0  0  0  0  0  0
  -22.7215  -10.2140   20.3053 C   0  0  0  0  0  0
  -21.6849   -6.0746   22.5286 C   0  0  0  0  0  0
  -21.4005   -6.5653   23.8224 C   0  0  0  0  0  0
  -21.3662   -5.6798   24.9195 C   0  0  0  0  0  0
  -21.6043   -4.3057   24.7230 C   0  0  0  0  0  0
  -21.8810   -3.8157   23.4350 C   0  0  0  0  0  0
  -21.9195   -4.6977   22.3414 C   0  0  0  0  0  0
  -22.7855  -13.5248   21.1896 C   0  0  0  0  0  0
  -22.1656   -4.2170   21.0981 F   0  0  0  0  0  0
  -21.5646   -3.4533   25.7740 F   0  0  0  0  0  0
  -30.0447  -13.2510   20.4428 N   0  0  0  0  0  0
  -26.3022  -12.9317   20.3361 N   0  0  0  0  0  0
  -25.9299  -11.6484   20.5749 N   0  0  0  0  0  0
  -22.0480  -12.8231   22.0441 N   0  0  0  0  0  0
  -25.4324  -15.1884   20.4088 N   0  0  0  0  0  0
  -31.8119  -14.6443   20.0700 O   0  0  0  0  0  0
  -21.6636   -6.8879   21.4245 O   0  0  0  0  0  0
  -22.3549  -14.5575   20.6784 O   0  0  0  0  0  0
  -24.6147  -31.8685   23.2101 C   0  0  0  0  0  0
  -25.9042  -32.4834   23.8382 C   0  0  1  0  0  0
  -27.2330  -27.4468   20.0894 C   0  0  0  0  0  0
  -25.5902  -33.8634   24.2301 N   0  0  0  0  0  0
  -23.4024  -30.4972   21.5492 C   0  0  2  0  0  0
  -24.8454  -28.9652   20.1139 C   0  0  0  0  0  0
  -22.7422  -29.4678   22.4957 C   0  0  0  0  0  0
  -18.0276  -28.1386   22.8511 C   0  0  0  0  0  0
  -24.1500  -36.7317   23.2638 C   0  0  0  0  0  0
  -25.9318  -30.8397   21.3588 C   0  0  0  0  0  0
  -26.0074  -29.4772   20.7035 C   0  0  0  0  0  0
  -27.2059  -28.7281   20.6844 C   0  0  0  0  0  0
  -26.0490  -26.9486   19.4959 C   0  0  0  0  0  0
  -24.8601  -27.6980   19.5087 C   0  0  0  0  0  0
  -23.6096  -29.8330   20.1623 C   0  0  0  0  0  0
  -25.4119  -36.3115   24.0344 C   0  0  1  0  0  0
  -20.5880  -28.3660   23.1315 C   0  0  2  0  0  0
  -20.6771  -26.9392   22.5433 C   0  0  0  0  0  0
  -19.5756  -26.6367   21.5237 C   0  0  0  0  0  0
  -18.1930  -26.7936   22.1633 C   0  0  0  0  0  0
  -19.1535  -28.8839   23.2916 C   0  0  0  0  0  0
  -18.9456  -30.1452   23.8906 C   0  0  0  0  0  0
  -17.6468  -30.6591   24.0588 C   0  0  0  0  0  0
  -25.9037  -34.9490   23.5116 C   0  0  0  0  0  0
  -16.5353  -29.9105   23.6326 C   0  0  0  0  0  0
  -16.7262  -28.6531   23.0322 C   0  0  0  0  0  0
  -26.4453  -31.6625   25.0713 C   0  0  0  0  0  0
  -25.3720  -31.3761   26.1478 C   0  0  0  0  0  0
  -27.0274  -30.3079   24.6062 C   0  0  0  0  0  0
  -27.6036  -32.4341   25.7459 C   0  0  0  0  0  0
  -27.5599  -37.1792   24.8448 C   0  0  0  0  0  0
  -21.4146  -29.3035   22.3716 N   0  0  0  0  0  0
  -26.4293  -37.3815   23.9423 N   0  0  0  0  0  0
  -24.6682  -31.0818   22.0977 N   0  0  0  0  0  0
  -23.4213  -28.8200   23.2975 O   0  0  0  0  0  0
  -28.4071  -26.7204   20.1011 O   0  0  0  0  0  0
  -26.5598  -34.8959   22.4671 O   0  0  0  0  0  0
  -23.5341  -32.1403   23.7514 O   0  0  0  0  0  0
  -29.4750  -17.4603   22.3260 C   0  0  0  0  0  0
  -31.2028  -17.4862   20.6448 C   0  0  0  0  0  0
  -29.5844  -18.8639   22.4301 C   0  0  0  0  0  0
  -30.2814  -16.7479   21.4212 C   0  0  0  0  0  0
  -30.5669  -19.5047   21.6264 C   0  0  0  0  0  0
  -28.6871  -19.6039   23.3760 C   0  0  0  0  0  0
  -26.2937  -19.8442   24.3091 C   0  0  0  0  0  0
  -27.4206  -18.8906   23.8738 C   0  0  0  0  0  0
  -29.5955  -24.5988   20.4738 C   0  0  0  0  0  0
  -28.2599  -25.3004   20.1805 C   0  0  0  0  0  0
  -29.3996  -23.0999   20.7839 C   0  0  0  0  0  0
  -31.3509  -18.8232   20.7593 N   0  0  0  0  0  0
  -30.0727  -15.3399   21.3306 N   0  0  0  0  0  0
  -30.8218  -20.8769   21.7497 N   0  0  0  0  0  0
  -28.9095  -20.7605   23.7480 O   0  0  0  0  0  0
  -32.0964  -22.9510   20.9673 O   0  0  0  0  0  0
  -30.9207  -21.4930   19.2355 O   0  0  0  0  0  0
  -30.9436  -22.1303   20.5625 S   0  0  0  0  0  0
  -31.4668  -12.3796   19.0970 H   0  0  0  0  0  0
  -30.3154  -11.2667   19.7796 H   0  0  0  0  0  0
  -29.7206  -11.7949   17.4008 H   0  0  0  0  0  0
  -29.6590  -13.4995   17.7721 H   0  0  0  0  0  0
  -27.8207  -11.3101   18.8006 H   0  0  0  0  0  0
  -27.3570  -12.6451   17.7821 H   0  0  0  0  0  0
  -27.7175  -14.2518   19.5911 H   0  0  0  0  0  0
  -28.6704  -11.9078   21.3041 H   0  0  0  0  0  0
  -28.4591  -13.5250   21.8797 H   0  0  0  0  0  0
  -25.2739   -9.5729   22.4749 H   0  0  0  0  0  0
  -24.0027   -7.4636   22.7440 H   0  0  0  0  0  0
  -21.0847   -8.8749   19.8922 H   0  0  0  0  0  0
  -22.3661  -10.9677   19.6162 H   0  0  0  0  0  0
  -21.1960   -7.6157   23.9747 H   0  0  0  0  0  0
  -21.1503   -6.0520   25.9101 H   0  0  0  0  0  0
  -22.0580   -2.7618   23.2838 H   0  0  0  0  0  0
  -22.4069  -11.9874   22.4818 H   0  0  0  0  0  0
  -21.1096  -13.1256   22.2633 H   0  0  0  0  0  0
  -24.6595  -15.8395   20.4941 H   0  0  0  0  0  0
  -26.2853  -15.6261   20.0834 H   0  0  0  0  0  0
  -26.7113  -32.5535   23.1144 H   0  0  0  0  0  0
  -25.0124  -33.9791   25.0494 H   0  0  0  0  0  0
  -22.6914  -31.3133   21.4117 H   0  0  0  0  0  0
  -23.3782  -35.9623   23.3259 H   0  0  0  0  0  0
  -24.3613  -36.8949   22.2061 H   0  0  0  0  0  0
  -23.7215  -37.6496   23.6674 H   0  0  0  0  0  0
  -26.0400  -31.6079   20.5910 H   0  0  0  0  0  0
  -26.8225  -30.8908   21.9725 H   0  0  0  0  0  0
  -28.1044  -29.1244   21.1362 H   0  0  0  0  0  0
  -26.0200  -25.9858   19.0072 H   0  0  0  0  0  0
  -23.9676  -27.2961   19.0488 H   0  0  0  0  0  0
  -23.7207  -30.6122   19.4062 H   0  0  0  0  0  0
  -22.7338  -29.2554   19.8619 H   0  0  0  0  0  0
  -25.1295  -36.1968   25.0826 H   0  0  0  0  0  0
  -20.9989  -28.3221   24.1429 H   0  0  0  0  0  0
  -20.5695  -26.2267   23.3612 H   0  0  0  0  0  0
  -21.6632  -26.7455   22.1182 H   0  0  0  0  0  0
  -19.6925  -25.6284   21.1231 H   0  0  0  0  0  0
  -19.6720  -27.3201   20.6792 H   0  0  0  0  0  0
  -17.4225  -26.6730   21.3996 H   0  0  0  0  0  0
  -18.0293  -26.0061   22.8991 H   0  0  0  0  0  0
  -19.7945  -30.7288   24.2241 H   0  0  0  0  0  0
  -17.5026  -31.6276   24.5193 H   0  0  0  0  0  0
  -15.5356  -30.3025   23.7662 H   0  0  0  0  0  0
  -15.8660  -28.0904   22.6962 H   0  0  0  0  0  0
  -24.5880  -30.7108   25.7843 H   0  0  0  0  0  0
  -24.8951  -32.2952   26.4916 H   0  0  0  0  0  0
  -25.8075  -30.8956   27.0249 H   0  0  0  0  0  0
  -26.2817  -29.6839   24.1135 H   0  0  0  0  0  0
  -27.4085  -29.7304   25.4480 H   0  0  0  0  0  0
  -27.8625  -30.4407   23.9179 H   0  0  0  0  0  0
  -27.2659  -33.3643   26.2048 H   0  0  0  0  0  0
  -28.3854  -32.6886   25.0285 H   0  0  0  0  0  0
  -28.0703  -31.8462   26.5368 H   0  0  0  0  0  0
  -28.2559  -38.0146   24.7576 H   0  0  0  0  0  0
  -28.1141  -36.2681   24.6156 H   0  0  0  0  0  0
  -27.2330  -37.1274   25.8846 H   0  0  0  0  0  0
  -20.9282  -29.8832   21.7019 H   0  0  0  0  0  0
  -26.0175  -38.2872   24.1489 H   0  0  0  0  0  0
  -28.7726  -16.9092   22.9330 H   0  0  0  0  0  0
  -31.8403  -17.0313   19.9042 H   0  0  0  0  0  0
  -25.4728  -19.2823   24.7549 H   0  0  0  0  0  0
  -25.8920  -20.3914   23.4549 H   0  0  0  0  0  0
  -26.6296  -20.5708   25.0502 H   0  0  0  0  0  0
  -27.7048  -18.2520   24.7107 H   0  0  0  0  0  0
  -27.0374  -18.2384   23.0883 H   0  0  0  0  0  0
  -30.0986  -25.0766   21.3154 H   0  0  0  0  0  0
  -30.2566  -24.7174   19.6134 H   0  0  0  0  0  0
  -27.5444  -25.0522   20.9684 H   0  0  0  0  0  0
  -27.8665  -24.9057   19.2420 H   0  0  0  0  0  0
  -28.6456  -22.6462   20.1411 H   0  0  0  0  0  0
  -29.0571  -22.9821   21.8119 H   0  0  0  0  0  0
  -29.2405  -14.9857   21.7784 H   0  0  0  0  0  0
  -30.3917  -21.2290   22.5986 H   0  0  0  0  0  0
  1 25  1  0  0  0
  1 30  2  0  0  0
  1 83  1  0  0  0
  2  3  1  0  0  0
  2 25  1  0  0  0
  2 89  1  0  0  0
  2 90  1  0  0  0
  3  4  1  0  0  0
  3 91  1  0  0  0
  3 92  1  0  0  0
  4  5  1  0  0  0
  4 93  1  0  0  0
  4 94  1  0  0  0
  5  6  1  0  0  0
  5 26  1  0  0  0
  5 95  1  0  0  0
  6 25  1  0  0  0
  6 96  1  0  0  0
  6 97  1  0  0  0
  7  8  2  0  0  0
  7 26  1  0  0  0
  7 29  1  0  0  0
  8  9  1  0  0  0
  8 22  1  0  0  0
  9 10  1  0  0  0
  9 27  2  0  0  0
 10 11  2  0  0  0
 10 15  1  0  0  0
 11 12  1  0  0  0
 11 98  1  0  0  0
 12 13  2  0  0  0
 12 99  1  0  0  0
 13 14  1  0  0  0
 13 31  1  0  0  0
 14 15  2  0  0  0
 14100  1  0  0  0
 15101  1  0  0  0
 16 17  2  0  0  0
 16 21  1  0  0  0
 16 31  1  0  0  0
 17 18  1  0  0  0
 17102  1  0  0  0
 18 19  2  0  0  0
 18103  1  0  0  0
 19 20  1  0  0  0
 19 24  1  0  0  0
 20 21  2  0  0  0
 20104  1  0  0  0
 21 23  1  0  0  0
 22 28  1  0  0  0
 22 32  2  0  0  0
 26 27  1  0  0  0
 28105  1  0  0  0
 28106  1  0  0  0
 29107  1  0  0  0
 29108  1  0  0  0
 33 34  1  0  0  0
 33 66  1  0  0  0
 33 70  2  0  0  0
 34 36  1  0  0  0
 34 59  1  0  0  0
 34109  1  0  0  0
 35 44  2  0  0  0
 35 45  1  0  0  0
 35 68  1  0  0  0
 36 56  1  0  0  0
 36110  1  0  0  0
 37 39  1  0  0  0
 37 47  1  0  0  0
 37 66  1  0  0  0
 37111  1  0  0  0
 38 43  2  0  0  0
 38 46  1  0  0  0
 38 47  1  0  0  0
 39 64  1  0  0  0
 39 67  2  0  0  0
 40 52  1  0  0  0
 40 53  2  0  0  0
 40 58  1  0  0  0
 41112  1  0  0  0
 41113  1  0  0  0
 41114  1  0  0  0
 41 48  1  0  0  0
 42 43  1  0  0  0
 42 66  1  0  0  0
 42115  1  0  0  0
 42116  1  0  0  0
 43 44  1  0  0  0
 44117  1  0  0  0
 45 46  2  0  0  0
 45118  1  0  0  0
 46119  1  0  0  0
 47120  1  0  0  0
 47121  1  0  0  0
 48 56  1  0  0  0
 48 65  1  0  0  0
 48122  1  0  0  0
 49 50  1  0  0  0
 49 53  1  0  0  0
 49 64  1  0  0  0
 49123  1  0  0  0
 50 51  1  0  0  0
 50124  1  0  0  0
 50125  1  0  0  0
 51 52  1  0  0  0
 51126  1  0  0  0
 51127  1  0  0  0
 52128  1  0  0  0
 52129  1  0  0  0
 53 54  1  0  0  0
 54 55  2  0  0  0
 54130  1  0  0  0
 55 57  1  0  0  0
 55131  1  0  0  0
 56 69  2  0  0  0
 57 58  2  0  0  0
 57132  1  0  0  0
 58133  1  0  0  0
 59 60  1  0  0  0
 59 61  1  0  0  0
 59 62  1  0  0  0
 60134  1  0  0  0
 60135  1  0  0  0
 60136  1  0  0  0
 61137  1  0  0  0
 61138  1  0  0  0
 61139  1  0  0  0
 62140  1  0  0  0
 62141  1  0  0  0
 62142  1  0  0  0
 63 65  1  0  0  0
 63143  1  0  0  0
 63144  1  0  0  0
 63145  1  0  0  0
 64146  1  0  0  0
 65147  1  0  0  0
 68 80  1  0  0  0
 71 73  2  0  0  0
 71 74  1  0  0  0
 71148  1  0  0  0
 72 74  2  0  0  0
 72 82  1  0  0  0
 72149  1  0  0  0
 73 75  1  0  0  0
 73 76  1  0  0  0
 74 83  1  0  0  0
 75 82  2  0  0  0
 75 84  1  0  0  0
 76 78  1  0  0  0
 76 85  2  0  0  0
 77 78  1  0  0  0
 77150  1  0  0  0
 77151  1  0  0  0
 77152  1  0  0  0
 78153  1  0  0  0
 78154  1  0  0  0
 79 80  1  0  0  0
 79 81  1  0  0  0
 79155  1  0  0  0
 79156  1  0  0  0
 80157  1  0  0  0
 80158  1  0  0  0
 81159  1  0  0  0
 81160  1  0  0  0
 81 88  1  0  0  0
 83161  1  0  0  0
 84 88  1  0  0  0
 84162  1  0  0  0
 86 88  2  0  0  0
 87 88  2  0  0  0
M  ISO  4   1 100  68 101  80 101  83 100
M  END
> <chiral flag>
0

> <version>
0

> <s_m_source_file>
/data/baiqing/PycharmProjects/Reinvent-master-3.2/result/LINK_invent/BTK/process_docking_weight1_custom_product_contain_oxygen_bond_distance_aromatic_linkinvent_7_9_3/rearranged_h_0145.sdf

> <i_m_source_file_index>
26

> <r_mmod_Potential_Energy-OPLS-2005>
-430.241546630859

> <r_mmod_Stretch_Energy-OPLS-2005>
35.4864807128906

> <r_mmod_Bend_Energy-OPLS-2005>
103.721061706543

> <r_mmod_Torsional_Energy-OPLS-2005>
246.637680053711

> <r_mmod_Improper_Torsional_Energy-OPLS-2005>
5.44784832000732

> <r_mmod_Van_der_Waal_Energy-OPLS-2005>
167.71418762207

> <r_mmod_Electrostatic_Energy-OPLS-2005>
-717.354736328125

> <r_mmod_Solvation_Energy-OPLS-2005>
-281.55859375

> <b_mmod_Minimization_Converged-OPLS-2005>
0

> <r_mmod_RMS_Derivative-OPLS-2005>
2.59069466590881

$$$$
26
                    3D
 Structure written by MMmdl.
155164  0  0  1  0            999 V2000
  -30.5880  -14.5869   20.5913 C   0  0  0  0  0  0
  -30.4593  -12.3934   19.4223 C   0  0  0  0  0  0
  -29.5142  -12.5503   18.2074 C   0  0  0  0  0  0
  -28.0302  -12.3861   18.6064 C   0  0  0  0  0  0
  -27.6664  -13.2069   19.8708 C   0  0  2  0  0  0
  -28.7029  -12.9561   20.9868 C   0  0  0  0  0  0
  -25.2621  -13.8188   20.5556 C   0  0  0  0  0  0
  -24.1878  -13.0486   20.9157 C   0  0  0  0  0  0
  -24.6412  -11.6942   20.8696 C   0  0  0  0  0  0
  -23.9049  -10.4339   21.0390 C   0  0  0  0  0  0
  -24.3608   -9.4252   21.9167 C   0  0  0  0  0  0
  -23.6318   -8.2260   22.0737 C   0  0  0  0  0  0
  -22.4297   -8.0298   21.3533 C   0  0  0  0  0  0
  -21.9927   -9.0274   20.4634 C   0  0  0  0  0  0
  -22.7220  -10.2173   20.3037 C   0  0  0  0  0  0
  -21.6862   -6.0749   22.5271 C   0  0  0  0  0  0
  -21.3994   -6.5653   23.8204 C   0  0  0  0  0  0
  -21.3665   -5.6799   24.9168 C   0  0  0  0  0  0
  -21.6060   -4.3058   24.7213 C   0  0  0  0  0  0
  -21.8829   -3.8154   23.4320 C   0  0  0  0  0  0
  -21.9199   -4.6975   22.3382 C   0  0  0  0  0  0
  -22.7897  -13.5266   21.1846 C   0  0  0  0  0  0
  -22.1675   -4.2168   21.0955 F   0  0  0  0  0  0
  -21.5657   -3.4536   25.7725 F   0  0  0  0  0  0
  -30.0257  -13.3446   20.4606 N   0  0  0  0  0  0
  -26.3046  -12.9337   20.3283 N   0  0  0  0  0  0
  -25.9336  -11.6510   20.5706 N   0  0  0  0  0  0
  -22.0515  -12.8268   22.0391 N   0  0  0  0  0  0
  -25.4378  -15.1896   20.3760 N   0  0  0  0  0  0
  -31.6979  -14.8639   20.1197 O   0  0  0  0  0  0
  -21.6646   -6.8893   21.4229 O   0  0  0  0  0  0
  -22.3564  -14.5564   20.6693 O   0  0  0  0  0  0
  -24.6233  -31.8633   23.2073 C   0  0  0  0  0  0
  -25.9086  -32.4802   23.8396 C   0  0  1  0  0  0
  -27.2221  -27.3402   20.1214 C   0  0  0  0  0  0
  -25.5917  -33.8602   24.2295 N   0  0  0  0  0  0
  -23.4170  -30.4896   21.5459 C   0  0  2  0  0  0
  -24.8656  -28.9516   20.1088 C   0  0  0  0  0  0
  -22.7468  -29.4648   22.4925 C   0  0  0  0  0  0
  -18.0284  -28.1387   22.8476 C   0  0  0  0  0  0
  -24.1490  -36.7312   23.2627 C   0  0  0  0  0  0
  -25.9586  -30.7952   21.3853 C   0  0  0  0  0  0
  -26.0286  -29.4261   20.7267 C   0  0  0  0  0  0
  -27.2067  -28.6247   20.7376 C   0  0  0  0  0  0
  -26.0491  -26.9372   19.4374 C   0  0  0  0  0  0
  -24.8736  -27.7100   19.4570 C   0  0  0  0  0  0
  -23.6328  -29.8287   20.1592 C   0  0  0  0  0  0
  -25.4109  -36.3086   24.0322 C   0  0  1  0  0  0
  -20.5884  -28.3684   23.1283 C   0  0  2  0  0  0
  -20.6783  -26.9411   22.5402 C   0  0  0  0  0  0
  -19.5764  -26.6376   21.5207 C   0  0  0  0  0  0
  -18.1940  -26.7932   22.1607 C   0  0  0  0  0  0
  -19.1532  -28.8853   23.2876 C   0  0  0  0  0  0
  -18.9449  -30.1457   23.8883 C   0  0  0  0  0  0
  -17.6449  -30.6585   24.0557 C   0  0  0  0  0  0
  -25.9059  -34.9462   23.5110 C   0  0  0  0  0  0
  -16.5339  -29.9083   23.6334 C   0  0  0  0  0  0
  -16.7268  -28.6505   23.0341 C   0  0  0  0  0  0
  -26.4481  -31.6629   25.0778 C   0  0  0  0  0  0
  -25.3721  -31.3773   26.1519 C   0  0  0  0  0  0
  -27.0325  -30.3046   24.6270 C   0  0  0  0  0  0
  -27.6034  -32.4378   25.7537 C   0  0  0  0  0  0
  -27.5601  -37.1769   24.8415 C   0  0  0  0  0  0
  -21.4184  -29.3043   22.3667 N   0  0  0  0  0  0
  -26.4258  -37.3804   23.9447 N   0  0  0  0  0  0
  -24.6840  -31.0666   22.1012 N   0  0  0  0  0  0
  -23.4219  -28.8182   23.2975 O   0  0  0  0  0  0
  -28.3346  -26.4890   20.1868 O   0  0  0  0  0  0
  -26.5619  -34.8902   22.4669 O   0  0  0  0  0  0
  -23.5397  -32.1403   23.7405 O   0  0  0  0  0  0
  -30.4037  -17.9703   20.6828 C   0  0  0  0  0  0
  -28.3327  -17.3746   21.5901 C   0  0  0  0  0  0
  -29.5423  -16.9048   21.1421 C   0  0  0  0  0  0
  -29.8249  -19.2393   20.7821 C   0  0  0  0  0  0
  -29.0486  -24.1002   20.3589 C   0  0  0  0  0  0
  -28.1251  -25.0982   20.2461 C   0  0  0  0  0  0
  -30.5251  -24.2416   20.5727 C   0  0  0  0  0  0
  -28.7768  -22.5836   20.2813 C   0  0  0  0  0  0
  -30.9403  -22.9145   21.2529 C   0  0  0  0  0  0
  -30.4318  -20.5948   20.3869 C   0  0  0  0  0  0
  -29.7764  -15.4779   21.2249 N   0  0  0  0  0  0
  -29.8944  -21.8800   20.9937 N   0  3  2  0  0  0
  -28.2117  -19.1113   21.4459 S   0  0  0  0  0  0
  -31.4921  -12.5743   19.1208 H   0  0  0  0  0  0
  -30.4314  -11.3708   19.8035 H   0  0  0  0  0  0
  -29.7759  -11.8276   17.4333 H   0  0  0  0  0  0
  -29.6577  -13.5357   17.7609 H   0  0  0  0  0  0
  -27.8445  -11.3271   18.7821 H   0  0  0  0  0  0
  -27.3831  -12.6755   17.7773 H   0  0  0  0  0  0
  -27.7175  -14.2597   19.5918 H   0  0  0  0  0  0
  -28.7123  -11.8961   21.2546 H   0  0  0  0  0  0
  -28.4248  -13.4740   21.9062 H   0  0  0  0  0  0
  -25.2735   -9.5785   22.4749 H   0  0  0  0  0  0
  -24.0066   -7.4654   22.7452 H   0  0  0  0  0  0
  -21.0864   -8.8771   19.8939 H   0  0  0  0  0  0
  -22.3637  -10.9733   19.6167 H   0  0  0  0  0  0
  -21.1940   -7.6155   23.9723 H   0  0  0  0  0  0
  -21.1495   -6.0507   25.9091 H   0  0  0  0  0  0
  -22.0597   -2.7611   23.2788 H   0  0  0  0  0  0
  -22.4098  -11.9909   22.4782 H   0  0  0  0  0  0
  -21.1113  -13.1305   22.2532 H   0  0  0  0  0  0
  -24.6546  -15.8351   20.3840 H   0  0  0  0  0  0
  -26.2571  -15.5847   19.9285 H   0  0  0  0  0  0
  -26.7147  -32.5466   23.1138 H   0  0  0  0  0  0
  -25.0086  -33.9777   25.0448 H   0  0  0  0  0  0
  -22.7089  -31.3091   21.4038 H   0  0  0  0  0  0
  -23.3780  -35.9610   23.3189 H   0  0  0  0  0  0
  -24.3609  -36.9045   22.2061 H   0  0  0  0  0  0
  -23.7167  -37.6447   23.6730 H   0  0  0  0  0  0
  -26.0993  -31.5626   20.6233 H   0  0  0  0  0  0
  -26.8346  -30.8355   22.0212 H   0  0  0  0  0  0
  -28.0943  -28.9767   21.2421 H   0  0  0  0  0  0
  -26.0109  -26.0112   18.8822 H   0  0  0  0  0  0
  -23.9874  -27.3524   18.9504 H   0  0  0  0  0  0
  -23.7489  -30.6046   19.4011 H   0  0  0  0  0  0
  -22.7549  -29.2547   19.8580 H   0  0  0  0  0  0
  -25.1265  -36.1935   25.0806 H   0  0  0  0  0  0
  -20.9975  -28.3252   24.1408 H   0  0  0  0  0  0
  -20.5702  -26.2291   23.3599 H   0  0  0  0  0  0
  -21.6652  -26.7466   22.1180 H   0  0  0  0  0  0
  -19.6939  -25.6285   21.1250 H   0  0  0  0  0  0
  -19.6723  -27.3169   20.6729 H   0  0  0  0  0  0
  -17.4222  -26.6656   21.4003 H   0  0  0  0  0  0
  -18.0346  -26.0081   22.9008 H   0  0  0  0  0  0
  -19.7928  -30.7265   24.2253 H   0  0  0  0  0  0
  -17.5009  -31.6271   24.5147 H   0  0  0  0  0  0
  -15.5340  -30.2976   23.7688 H   0  0  0  0  0  0
  -15.8664  -28.0835   22.7053 H   0  0  0  0  0  0
  -24.5842  -30.7193   25.7850 H   0  0  0  0  0  0
  -24.8978  -32.2940   26.5029 H   0  0  0  0  0  0
  -25.8045  -30.8870   27.0247 H   0  0  0  0  0  0
  -26.2913  -29.6803   24.1263 H   0  0  0  0  0  0
  -27.3950  -29.7328   25.4824 H   0  0  0  0  0  0
  -27.8831  -30.4323   23.9568 H   0  0  0  0  0  0
  -27.2626  -33.3644   26.2176 H   0  0  0  0  0  0
  -28.3817  -32.6995   25.0356 H   0  0  0  0  0  0
  -28.0757  -31.8476   26.5399 H   0  0  0  0  0  0
  -28.2477  -38.0207   24.7676 H   0  0  0  0  0  0
  -28.1225  -36.2746   24.5958 H   0  0  0  0  0  0
  -27.2359  -37.1071   25.8811 H   0  0  0  0  0  0
  -20.9366  -29.8752   21.6862 H   0  0  0  0  0  0
  -26.0136  -38.2851   24.1567 H   0  0  0  0  0  0
  -31.3998  -17.7838   20.3029 H   0  0  0  0  0  0
  -27.4902  -16.8243   21.9945 H   0  0  0  0  0  0
  -27.0901  -24.8127   20.1525 H   0  0  0  0  0  0
  -30.7775  -25.1191   21.1707 H   0  0  0  0  0  0
  -31.0100  -24.3339   19.6010 H   0  0  0  0  0  0
  -28.7672  -22.3026   19.2280 H   0  0  0  0  0  0
  -27.8046  -22.3198   20.6968 H   0  0  0  0  0  0
  -31.0044  -23.0465   22.3339 H   0  0  0  0  0  0
  -31.9363  -22.6186   20.9219 H   0  0  0  0  0  0
  -30.4440  -20.6859   19.3010 H   0  0  0  0  0  0
  -31.4826  -20.5183   20.6661 H   0  0  0  0  0  0
  -29.0010  -14.9846   21.6393 H   0  0  0  0  0  0
  -29.5497  -21.6355   21.9096 H   0  0  0  0  0  0
  1 25  1  0  0  0
  1 30  2  0  0  0
  1 81  1  0  0  0
  2  3  1  0  0  0
  2 25  1  0  0  0
  2 84  1  0  0  0
  2 85  1  0  0  0
  3  4  1  0  0  0
  3 86  1  0  0  0
  3 87  1  0  0  0
  4  5  1  0  0  0
  4 88  1  0  0  0
  4 89  1  0  0  0
  5  6  1  0  0  0
  5 26  1  0  0  0
  5 90  1  0  0  0
  6 25  1  0  0  0
  6 91  1  0  0  0
  6 92  1  0  0  0
  7  8  2  0  0  0
  7 26  1  0  0  0
  7 29  1  0  0  0
  8  9  1  0  0  0
  8 22  1  0  0  0
  9 10  1  0  0  0
  9 27  2  0  0  0
 10 11  2  0  0  0
 10 15  1  0  0  0
 11 12  1  0  0  0
 11 93  1  0  0  0
 12 13  2  0  0  0
 12 94  1  0  0  0
 13 14  1  0  0  0
 13 31  1  0  0  0
 14 15  2  0  0  0
 14 95  1  0  0  0
 15 96  1  0  0  0
 16 17  2  0  0  0
 16 21  1  0  0  0
 16 31  1  0  0  0
 17 18  1  0  0  0
 17 97  1  0  0  0
 18 19  2  0  0  0
 18 98  1  0  0  0
 19 20  1  0  0  0
 19 24  1  0  0  0
 20 21  2  0  0  0
 20 99  1  0  0  0
 21 23  1  0  0  0
 22 28  1  0  0  0
 22 32  2  0  0  0
 26 27  1  0  0  0
 28100  1  0  0  0
 28101  1  0  0  0
 29102  1  0  0  0
 29103  1  0  0  0
 33 34  1  0  0  0
 33 66  1  0  0  0
 33 70  2  0  0  0
 34 36  1  0  0  0
 34 59  1  0  0  0
 34104  1  0  0  0
 35 44  2  0  0  0
 35 45  1  0  0  0
 35 68  1  0  0  0
 36 56  1  0  0  0
 36105  1  0  0  0
 37 39  1  0  0  0
 37 47  1  0  0  0
 37 66  1  0  0  0
 37106  1  0  0  0
 38 43  2  0  0  0
 38 46  1  0  0  0
 38 47  1  0  0  0
 39 64  1  0  0  0
 39 67  2  0  0  0
 40 52  1  0  0  0
 40 53  2  0  0  0
 40 58  1  0  0  0
 41107  1  0  0  0
 41108  1  0  0  0
 41109  1  0  0  0
 41 48  1  0  0  0
 42 43  1  0  0  0
 42 66  1  0  0  0
 42110  1  0  0  0
 42111  1  0  0  0
 43 44  1  0  0  0
 44112  1  0  0  0
 45 46  2  0  0  0
 45113  1  0  0  0
 46114  1  0  0  0
 47115  1  0  0  0
 47116  1  0  0  0
 48 56  1  0  0  0
 48 65  1  0  0  0
 48117  1  0  0  0
 49 50  1  0  0  0
 49 53  1  0  0  0
 49 64  1  0  0  0
 49118  1  0  0  0
 50 51  1  0  0  0
 50119  1  0  0  0
 50120  1  0  0  0
 51 52  1  0  0  0
 51121  1  0  0  0
 51122  1  0  0  0
 52123  1  0  0  0
 52124  1  0  0  0
 53 54  1  0  0  0
 54 55  2  0  0  0
 54125  1  0  0  0
 55 57  1  0  0  0
 55126  1  0  0  0
 56 69  2  0  0  0
 57 58  2  0  0  0
 57127  1  0  0  0
 58128  1  0  0  0
 59 60  1  0  0  0
 59 61  1  0  0  0
 59 62  1  0  0  0
 60129  1  0  0  0
 60130  1  0  0  0
 60131  1  0  0  0
 61132  1  0  0  0
 61133  1  0  0  0
 61134  1  0  0  0
 62135  1  0  0  0
 62136  1  0  0  0
 62137  1  0  0  0
 63 65  1  0  0  0
 63138  1  0  0  0
 63139  1  0  0  0
 63140  1  0  0  0
 64141  1  0  0  0
 65142  1  0  0  0
 68 76  1  0  0  0
 71 73  1  0  0  0
 71 74  2  0  0  0
 71143  1  0  0  0
 72 73  2  0  0  0
 72 83  1  0  0  0
 72144  1  0  0  0
 73 81  1  0  0  0
 74 80  1  0  0  0
 74 83  1  0  0  0
 75 76  2  0  0  0
 75 77  1  0  0  0
 75 78  1  0  0  0
 76145  1  0  0  0
 77 79  1  0  0  0
 77146  1  0  0  0
 77147  1  0  0  0
 78 82  1  0  0  0
 78148  1  0  0  0
 78149  1  0  0  0
 79 82  1  0  0  0
 79150  1  0  0  0
 79151  1  0  0  0
 80152  1  0  0  0
 80153  1  0  0  0
 80 82  1  0  0  0
 81154  1  0  0  0
 82155  1  0  0  0
M  CHG  1  82   1
M  ISO  4   1 100  68 101  76 101  81 100
M  END
> <chiral flag>
0

> <version>
0

> <s_m_source_file>
/data/baiqing/PycharmProjects/Reinvent-master-3.2/result/LINK_invent/BTK/process_docking_weight1_custom_product_contain_oxygen_bond_distance_aromatic_linkinvent_7_9_3/rearranged_h_0145.sdf

> <i_m_source_file_index>
27

> <r_mmod_Potential_Energy-OPLS-2005>
-61.4557189941406

> <r_mmod_Stretch_Energy-OPLS-2005>
59.6805725097656

> <r_mmod_Bend_Energy-OPLS-2005>
166.295562744141

> <r_mmod_Torsional_Energy-OPLS-2005>
256.116455078125

> <r_mmod_Improper_Torsional_Energy-OPLS-2005>
4.65410041809082

> <r_mmod_Van_der_Waal_Energy-OPLS-2005>
125.275756835938

> <r_mmod_Electrostatic_Energy-OPLS-2005>
-283.986053466797

> <r_mmod_Solvation_Energy-OPLS-2005>
-431.744140625

> <b_mmod_Minimization_Converged-OPLS-2005>
0

> <r_mmod_RMS_Derivative-OPLS-2005>
3.69398021697998

$$$$
27
                    3D
 Structure written by MMmdl.
163172  0  0  1  0            999 V2000
  -30.6197  -14.5688   20.5294 C   0  0  0  0  0  0
  -30.4406  -12.3641   19.4271 C   0  0  0  0  0  0
  -29.5204  -12.5485   18.2055 C   0  0  0  0  0  0
  -28.0408  -12.3692   18.6145 C   0  0  0  0  0  0
  -27.6645  -13.1986   19.8771 C   0  0  2  0  0  0
  -28.7083  -12.9982   20.9980 C   0  0  0  0  0  0
  -25.2652  -13.8097   20.5668 C   0  0  0  0  0  0
  -24.1850  -13.0405   20.9108 C   0  0  0  0  0  0
  -24.6380  -11.6864   20.8713 C   0  0  0  0  0  0
  -23.9055  -10.4292   21.0419 C   0  0  0  0  0  0
  -24.3617   -9.4206   21.9206 C   0  0  0  0  0  0
  -23.6262   -8.2261   22.0775 C   0  0  0  0  0  0
  -22.4256   -8.0310   21.3573 C   0  0  0  0  0  0
  -21.9888   -9.0282   20.4671 C   0  0  0  0  0  0
  -22.7214  -10.2169   20.3068 C   0  0  0  0  0  0
  -21.6888   -6.0699   22.5248 C   0  0  0  0  0  0
  -21.4027   -6.5604   23.8165 C   0  0  0  0  0  0
  -21.3666   -5.6788   24.9138 C   0  0  0  0  0  0
  -21.6044   -4.3046   24.7194 C   0  0  0  0  0  0
  -21.8827   -3.8109   23.4318 C   0  0  0  0  0  0
  -21.9185   -4.6923   22.3373 C   0  0  0  0  0  0
  -22.7911  -13.5283   21.1709 C   0  0  0  0  0  0
  -22.1653   -4.2123   21.0941 F   0  0  0  0  0  0
  -21.5656   -3.4512   25.7692 F   0  0  0  0  0  0
  -30.0201  -13.3501   20.4319 N   0  0  0  0  0  0
  -26.3062  -12.9235   20.3384 N   0  0  0  0  0  0
  -25.9297  -11.6418   20.5706 N   0  0  0  0  0  0
  -22.0446  -12.8423   22.0301 N   0  0  0  0  0  0
  -25.4366  -15.1800   20.4003 N   0  0  0  0  0  0
  -31.7911  -14.7629   20.1694 O   0  0  0  0  0  0
  -21.6673   -6.8863   21.4232 O   0  0  0  0  0  0
  -22.3619  -14.5545   20.6417 O   0  0  0  0  0  0
  -24.6206  -31.8608   23.2047 C   0  0  0  0  0  0
  -25.9070  -32.4822   23.8324 C   0  0  1  0  0  0
  -27.1893  -27.3451   20.1120 C   0  0  0  0  0  0
  -25.5843  -33.8611   24.2260 N   0  0  0  0  0  0
  -23.4050  -30.4869   21.5561 C   0  0  2  0  0  0
  -24.8390  -28.9513   20.1162 C   0  0  0  0  0  0
  -22.7428  -29.4591   22.5004 C   0  0  0  0  0  0
  -18.0249  -28.1362   22.8499 C   0  0  0  0  0  0
  -24.1447  -36.7310   23.2629 C   0  0  0  0  0  0
  -25.9459  -30.8024   21.3705 C   0  0  0  0  0  0
  -26.0177  -29.4404   20.6949 C   0  0  0  0  0  0
  -27.2036  -28.6578   20.6630 C   0  0  0  0  0  0
  -25.9824  -26.8864   19.5428 C   0  0  0  0  0  0
  -24.8178  -27.6715   19.5404 C   0  0  0  0  0  0
  -23.6120  -29.8292   20.1684 C   0  0  0  0  0  0
  -25.4091  -36.3145   24.0325 C   0  0  1  0  0  0
  -20.5843  -28.3623   23.1317 C   0  0  2  0  0  0
  -20.6747  -26.9350   22.5412 C   0  0  0  0  0  0
  -19.5731  -26.6343   21.5209 C   0  0  0  0  0  0
  -18.1897  -26.7906   22.1619 C   0  0  0  0  0  0
  -19.1505  -28.8824   23.2874 C   0  0  0  0  0  0
  -18.9436  -30.1442   23.8860 C   0  0  0  0  0  0
  -17.6434  -30.6546   24.0559 C   0  0  0  0  0  0
  -25.9045  -34.9516   23.5127 C   0  0  0  0  0  0
  -16.5326  -29.9020   23.6343 C   0  0  0  0  0  0
  -16.7247  -28.6455   23.0346 C   0  0  0  0  0  0
  -26.4478  -31.6646   25.0704 C   0  0  0  0  0  0
  -25.3744  -31.3774   26.1452 C   0  0  0  0  0  0
  -27.0303  -30.3039   24.6223 C   0  0  0  0  0  0
  -27.5998  -32.4417   25.7478 C   0  0  0  0  0  0
  -27.5591  -37.1760   24.8413 C   0  0  0  0  0  0
  -21.4153  -29.2977   22.3766 N   0  0  0  0  0  0
  -26.4268  -37.3835   23.9450 N   0  0  0  0  0  0
  -24.6763  -31.0612   22.1035 N   0  0  0  0  0  0
  -23.4191  -28.8120   23.3043 O   0  0  0  0  0  0
  -28.3129  -26.5203   20.1243 O   0  0  0  0  0  0
  -26.5625  -34.8961   22.4717 O   0  0  0  0  0  0
  -23.5417  -32.1380   23.7461 O   0  0  0  0  0  0
  -30.9537  -18.7375   22.4784 C   0  0  0  0  0  0
  -30.3095  -19.7266   21.7215 C   0  0  0  0  0  0
  -30.7983  -17.3809   22.1500 C   0  0  0  0  0  0
  -29.3796  -18.0153   20.2590 C   0  0  0  0  0  0
  -29.5072  -19.4009   20.6038 C   0  0  0  0  0  0
  -30.0234  -16.9905   21.0313 C   0  0  0  0  0  0
  -28.0228  -22.7101   19.4988 C   0  0  0  0  0  0
  -27.7942  -24.0604   19.5741 C   0  0  0  0  0  0
  -27.8006  -21.8504   18.2571 C   0  0  0  0  0  0
  -28.6458  -21.7887   20.5304 C   0  0  0  0  0  0
  -28.2781  -20.4125   18.5847 C   0  0  0  0  0  0
  -29.6769  -24.8274   21.0531 C   0  0  0  0  0  0
  -27.3933  -25.1119   21.9366 C   0  0  0  0  0  0
  -28.2274  -25.1293   20.6370 C   0  0  0  0  0  0
  -28.8610  -20.4729   19.9185 N   0  0  0  0  0  0
  -29.7672  -15.5903   20.8087 N   0  0  0  0  0  0
  -31.4886  -12.4815   19.1553 H   0  0  0  0  0  0
  -30.3390  -11.3512   19.8176 H   0  0  0  0  0  0
  -29.7794  -11.8414   17.4211 H   0  0  0  0  0  0
  -29.6767  -13.5416   17.7774 H   0  0  0  0  0  0
  -27.8817  -11.3066   18.7995 H   0  0  0  0  0  0
  -27.3820  -12.6345   17.7820 H   0  0  0  0  0  0
  -27.6988  -14.2461   19.5812 H   0  0  0  0  0  0
  -28.7069  -11.9566   21.3301 H   0  0  0  0  0  0
  -28.4661  -13.5824   21.8808 H   0  0  0  0  0  0
  -25.2779   -9.5737   22.4730 H   0  0  0  0  0  0
  -23.9993   -7.4704   22.7522 H   0  0  0  0  0  0
  -21.0798   -8.8774   19.9013 H   0  0  0  0  0  0
  -22.3629  -10.9703   19.6163 H   0  0  0  0  0  0
  -21.2021   -7.6130   23.9661 H   0  0  0  0  0  0
  -21.1503   -6.0509   25.9055 H   0  0  0  0  0  0
  -22.0586   -2.7554   23.2807 H   0  0  0  0  0  0
  -22.4007  -12.0263   22.5032 H   0  0  0  0  0  0
  -21.1025  -13.1543   22.2203 H   0  0  0  0  0  0
  -24.6657  -15.8317   20.5117 H   0  0  0  0  0  0
  -26.2563  -15.6253   20.0069 H   0  0  0  0  0  0
  -26.7107  -32.5478   23.1029 H   0  0  0  0  0  0
  -24.9904  -33.9724   25.0363 H   0  0  0  0  0  0
  -22.6953  -31.3096   21.4243 H   0  0  0  0  0  0
  -23.3776  -35.9545   23.3178 H   0  0  0  0  0  0
  -24.3551  -36.9095   22.2060 H   0  0  0  0  0  0
  -23.7068  -37.6406   23.6771 H   0  0  0  0  0  0
  -26.0910  -31.5922   20.6313 H   0  0  0  0  0  0
  -26.8228  -30.8253   22.0080 H   0  0  0  0  0  0
  -28.1252  -29.0409   21.0818 H   0  0  0  0  0  0
  -25.9123  -25.8961   19.1258 H   0  0  0  0  0  0
  -23.9052  -27.2741   19.1189 H   0  0  0  0  0  0
  -23.7297  -30.6144   19.4206 H   0  0  0  0  0  0
  -22.7286  -29.2629   19.8677 H   0  0  0  0  0  0
  -25.1263  -36.1959   25.0801 H   0  0  0  0  0  0
  -20.9896  -28.3165   24.1457 H   0  0  0  0  0  0
  -20.5641  -26.2206   23.3598 H   0  0  0  0  0  0
  -21.6617  -26.7361   22.1214 H   0  0  0  0  0  0
  -19.6842  -25.6246   21.1232 H   0  0  0  0  0  0
  -19.6685  -27.3177   20.6780 H   0  0  0  0  0  0
  -17.4165  -26.6678   21.3987 H   0  0  0  0  0  0
  -18.0235  -26.0029   22.9017 H   0  0  0  0  0  0
  -19.7929  -30.7286   24.2152 H   0  0  0  0  0  0
  -17.4991  -31.6252   24.5163 H   0  0  0  0  0  0
  -15.5329  -30.2922   23.7709 H   0  0  0  0  0  0
  -15.8647  -28.0809   22.7022 H   0  0  0  0  0  0
  -24.5953  -30.7062   25.7819 H   0  0  0  0  0  0
  -24.8883  -32.2940   26.4790 H   0  0  0  0  0  0
  -25.8107  -30.9034   27.0258 H   0  0  0  0  0  0
  -26.2886  -29.6781   24.1244 H   0  0  0  0  0  0
  -27.3917  -29.7293   25.4753 H   0  0  0  0  0  0
  -27.8809  -30.4206   23.9511 H   0  0  0  0  0  0
  -27.2583  -33.3786   26.1856 H   0  0  0  0  0  0
  -28.3923  -32.6860   25.0418 H   0  0  0  0  0  0
  -28.0527  -31.8687   26.5556 H   0  0  0  0  0  0
  -28.2495  -38.0176   24.7737 H   0  0  0  0  0  0
  -28.1235  -36.2738   24.5952 H   0  0  0  0  0  0
  -27.2360  -37.1072   25.8816 H   0  0  0  0  0  0
  -20.9285  -29.8707   21.7033 H   0  0  0  0  0  0
  -26.0150  -38.2876   24.1619 H   0  0  0  0  0  0
  -31.5433  -19.0551   23.3299 H   0  0  0  0  0  0
  -30.4625  -20.7470   22.0314 H   0  0  0  0  0  0
  -31.2391  -16.6352   22.7930 H   0  0  0  0  0  0
  -28.7608  -17.7211   19.4224 H   0  0  0  0  0  0
  -27.3693  -24.4965   18.6872 H   0  0  0  0  0  0
  -28.4128  -22.2657   17.4531 H   0  0  0  0  0  0
  -26.7630  -21.8566   17.9177 H   0  0  0  0  0  0
  -27.9669  -21.6852   21.3809 H   0  0  0  0  0  0
  -29.5969  -22.2017   20.8373 H   0  0  0  0  0  0
  -29.0214  -20.0694   17.8601 H   0  0  0  0  0  0
  -27.4378  -19.7188   18.5629 H   0  0  0  0  0  0
  -30.1427  -25.6804   21.5370 H   0  0  0  0  0  0
  -30.2897  -24.5518   20.1931 H   0  0  0  0  0  0
  -29.7359  -24.0217   21.7836 H   0  0  0  0  0  0
  -27.7365  -25.8872   22.6284 H   0  0  0  0  0  0
  -27.4822  -24.1663   22.4679 H   0  0  0  0  0  0
  -26.3335  -25.2805   21.7590 H   0  0  0  0  0  0
  -28.8079  -15.3048   20.9381 H   0  0  0  0  0  0
  1 25  1  0  0  0
  1 30  2  0  0  0
  1 86  1  0  0  0
  2  3  1  0  0  0
  2 25  1  0  0  0
  2 87  1  0  0  0
  2 88  1  0  0  0
  3  4  1  0  0  0
  3 89  1  0  0  0
  3 90  1  0  0  0
  4  5  1  0  0  0
  4 91  1  0  0  0
  4 92  1  0  0  0
  5  6  1  0  0  0
  5 26  1  0  0  0
  5 93  1  0  0  0
  6 25  1  0  0  0
  6 94  1  0  0  0
  6 95  1  0  0  0
  7  8  2  0  0  0
  7 26  1  0  0  0
  7 29  1  0  0  0
  8  9  1  0  0  0
  8 22  1  0  0  0
  9 10  1  0  0  0
  9 27  2  0  0  0
 10 11  2  0  0  0
 10 15  1  0  0  0
 11 12  1  0  0  0
 11 96  1  0  0  0
 12 13  2  0  0  0
 12 97  1  0  0  0
 13 14  1  0  0  0
 13 31  1  0  0  0
 14 15  2  0  0  0
 14 98  1  0  0  0
 15 99  1  0  0  0
 16 17  2  0  0  0
 16 21  1  0  0  0
 16 31  1  0  0  0
 17 18  1  0  0  0
 17100  1  0  0  0
 18 19  2  0  0  0
 18101  1  0  0  0
 19 20  1  0  0  0
 19 24  1  0  0  0
 20 21  2  0  0  0
 20102  1  0  0  0
 21 23  1  0  0  0
 22 28  1  0  0  0
 22 32  2  0  0  0
 26 27  1  0  0  0
 28103  1  0  0  0
 28104  1  0  0  0
 29105  1  0  0  0
 29106  1  0  0  0
 33 34  1  0  0  0
 33 66  1  0  0  0
 33 70  2  0  0  0
 34 36  1  0  0  0
 34 59  1  0  0  0
 34107  1  0  0  0
 35 44  2  0  0  0
 35 45  1  0  0  0
 35 68  1  0  0  0
 36 56  1  0  0  0
 36108  1  0  0  0
 37 39  1  0  0  0
 37 47  1  0  0  0
 37 66  1  0  0  0
 37109  1  0  0  0
 38 43  2  0  0  0
 38 46  1  0  0  0
 38 47  1  0  0  0
 39 64  1  0  0  0
 39 67  2  0  0  0
 40 52  1  0  0  0
 40 53  2  0  0  0
 40 58  1  0  0  0
 41110  1  0  0  0
 41111  1  0  0  0
 41112  1  0  0  0
 41 48  1  0  0  0
 42 43  1  0  0  0
 42 66  1  0  0  0
 42113  1  0  0  0
 42114  1  0  0  0
 43 44  1  0  0  0
 44115  1  0  0  0
 45 46  2  0  0  0
 45116  1  0  0  0
 46117  1  0  0  0
 47118  1  0  0  0
 47119  1  0  0  0
 48 56  1  0  0  0
 48 65  1  0  0  0
 48120  1  0  0  0
 49 50  1  0  0  0
 49 53  1  0  0  0
 49 64  1  0  0  0
 49121  1  0  0  0
 50 51  1  0  0  0
 50122  1  0  0  0
 50123  1  0  0  0
 51 52  1  0  0  0
 51124  1  0  0  0
 51125  1  0  0  0
 52126  1  0  0  0
 52127  1  0  0  0
 53 54  1  0  0  0
 54 55  2  0  0  0
 54128  1  0  0  0
 55 57  1  0  0  0
 55129  1  0  0  0
 56 69  2  0  0  0
 57 58  2  0  0  0
 57130  1  0  0  0
 58131  1  0  0  0
 59 60  1  0  0  0
 59 61  1  0  0  0
 59 62  1  0  0  0
 60132  1  0  0  0
 60133  1  0  0  0
 60134  1  0  0  0
 61135  1  0  0  0
 61136  1  0  0  0
 61137  1  0  0  0
 62138  1  0  0  0
 62139  1  0  0  0
 62140  1  0  0  0
 63 65  1  0  0  0
 63141  1  0  0  0
 63142  1  0  0  0
 63143  1  0  0  0
 64144  1  0  0  0
 65145  1  0  0  0
 68 84  1  0  0  0
 71 72  2  0  0  0
 71 73  1  0  0  0
 71146  1  0  0  0
 72 75  1  0  0  0
 72147  1  0  0  0
 73 76  2  0  0  0
 73148  1  0  0  0
 74 75  2  0  0  0
 74 76  1  0  0  0
 74149  1  0  0  0
 75 85  1  0  0  0
 76 86  1  0  0  0
 77 78  2  0  0  0
 77 79  1  0  0  0
 77 80  1  0  0  0
 78 84  1  0  0  0
 78150  1  0  0  0
 79 81  1  0  0  0
 79151  1  0  0  0
 79152  1  0  0  0
 80 85  1  0  0  0
 80153  1  0  0  0
 80154  1  0  0  0
 81 85  1  0  0  0
 81155  1  0  0  0
 81156  1  0  0  0
 82157  1  0  0  0
 82158  1  0  0  0
 82159  1  0  0  0
 82 84  1  0  0  0
 83 84  1  0  0  0
 83160  1  0  0  0
 83161  1  0  0  0
 83162  1  0  0  0
 86163  1  0  0  0
M  ISO  4   1 100  68 101  84 101  86 100
M  END
> <chiral flag>
0

> <version>
0

> <s_m_source_file>
/data/baiqing/PycharmProjects/Reinvent-master-3.2/result/LINK_invent/BTK/process_docking_weight1_custom_product_contain_oxygen_bond_distance_aromatic_linkinvent_7_9_3/rearranged_h_0145.sdf

> <i_m_source_file_index>
28

> <r_mmod_Potential_Energy-OPLS-2005>
89.0752716064453

> <r_mmod_Stretch_Energy-OPLS-2005>
60.2664680480957

> <r_mmod_Bend_Energy-OPLS-2005>
168.808609008789

> <r_mmod_Torsional_Energy-OPLS-2005>
268.107727050781

> <r_mmod_Improper_Torsional_Energy-OPLS-2005>
6.99828243255615

> <r_mmod_Van_der_Waal_Energy-OPLS-2005>
150.958358764648

> <r_mmod_Electrostatic_Energy-OPLS-2005>
-379.670104980469

> <r_mmod_Solvation_Energy-OPLS-2005>
-222.523773193359

> <b_mmod_Minimization_Converged-OPLS-2005>
0

> <r_mmod_RMS_Derivative-OPLS-2005>
9.97622203826904

$$$$
28
                    3D
 Structure written by MMmdl.
167176  0  0  1  0            999 V2000
  -30.6608  -14.6336   20.3751 C   0  0  0  0  0  0
  -30.4199  -12.3465   19.4440 C   0  0  0  0  0  0
  -29.4946  -12.3827   18.2087 C   0  0  0  0  0  0
  -28.0119  -12.2815   18.6376 C   0  0  0  0  0  0
  -27.6326  -13.1866   19.8426 C   0  0  2  0  0  0
  -28.6977  -13.1455   20.9606 C   0  0  0  0  0  0
  -25.2551  -13.8075   20.5746 C   0  0  0  0  0  0
  -24.1809  -13.0395   20.9233 C   0  0  0  0  0  0
  -24.6343  -11.6841   20.8821 C   0  0  0  0  0  0
  -23.9022  -10.4252   21.0459 C   0  0  0  0  0  0
  -24.3592   -9.4173   21.9220 C   0  0  0  0  0  0
  -23.6276   -8.2215   22.0768 C   0  0  0  0  0  0
  -22.4261   -8.0270   21.3548 C   0  0  0  0  0  0
  -21.9892   -9.0244   20.4655 C   0  0  0  0  0  0
  -22.7214  -10.2120   20.3082 C   0  0  0  0  0  0
  -21.6847   -6.0741   22.5277 C   0  0  0  0  0  0
  -21.4013   -6.5647   23.8214 C   0  0  0  0  0  0
  -21.3661   -5.6798   24.9178 C   0  0  0  0  0  0
  -21.6037   -4.3055   24.7223 C   0  0  0  0  0  0
  -21.8823   -3.8154   23.4343 C   0  0  0  0  0  0
  -21.9189   -4.6972   22.3405 C   0  0  0  0  0  0
  -22.7842  -13.5216   21.1881 C   0  0  0  0  0  0
  -22.1663   -4.2172   21.0978 F   0  0  0  0  0  0
  -21.5630   -3.4538   25.7732 F   0  0  0  0  0  0
  -30.0014  -13.4335   20.3466 N   0  0  0  0  0  0
  -26.2922  -12.9167   20.3370 N   0  0  0  0  0  0
  -25.9258  -11.6367   20.5869 N   0  0  0  0  0  0
  -22.0463  -12.8241   22.0419 N   0  0  0  0  0  0
  -25.4283  -15.1821   20.4169 N   0  0  0  0  0  0
  -31.8828  -14.7006   20.2278 O   0  0  0  0  0  0
  -21.6630   -6.8874   21.4232 O   0  0  0  0  0  0
  -22.3555  -14.5527   20.6705 O   0  0  0  0  0  0
  -24.6137  -31.8648   23.2070 C   0  0  0  0  0  0
  -25.9033  -32.4793   23.8376 C   0  0  1  0  0  0
  -27.2460  -27.4133   20.1477 C   0  0  0  0  0  0
  -25.5910  -33.8581   24.2320 N   0  0  0  0  0  0
  -23.4055  -30.4824   21.5469 C   0  0  2  0  0  0
  -24.8603  -28.9490   20.1164 C   0  0  0  0  0  0
  -22.7427  -29.4630   22.5000 C   0  0  0  0  0  0
  -18.0271  -28.1366   22.8512 C   0  0  0  0  0  0
  -24.1497  -36.7303   23.2646 C   0  0  0  0  0  0
  -25.9330  -30.8311   21.3635 C   0  0  0  0  0  0
  -26.0156  -29.4635   20.7169 C   0  0  0  0  0  0
  -27.2132  -28.7084   20.7208 C   0  0  0  0  0  0
  -26.0819  -26.9296   19.5174 C   0  0  0  0  0  0
  -24.8932  -27.6857   19.5014 C   0  0  0  0  0  0
  -23.6131  -29.8051   20.1646 C   0  0  0  0  0  0
  -25.4119  -36.3094   24.0345 C   0  0  1  0  0  0
  -20.5864  -28.3644   23.1320 C   0  0  2  0  0  0
  -20.6770  -26.9378   22.5425 C   0  0  0  0  0  0
  -19.5754  -26.6376   21.5223 C   0  0  0  0  0  0
  -18.1927  -26.7927   22.1614 C   0  0  0  0  0  0
  -19.1525  -28.8828   23.2920 C   0  0  0  0  0  0
  -18.9442  -30.1440   23.8922 C   0  0  0  0  0  0
  -17.6441  -30.6587   24.0545 C   0  0  0  0  0  0
  -25.9042  -34.9457   23.5139 C   0  0  0  0  0  0
  -16.5332  -29.9075   23.6334 C   0  0  0  0  0  0
  -16.7259  -28.6483   23.0383 C   0  0  0  0  0  0
  -26.4490  -31.6549   25.0678 C   0  0  0  0  0  0
  -25.3752  -31.3646   26.1417 C   0  0  0  0  0  0
  -27.0322  -30.2995   24.6042 C   0  0  0  0  0  0
  -27.6085  -32.4245   25.7438 C   0  0  0  0  0  0
  -27.5597  -37.1797   24.8462 C   0  0  0  0  0  0
  -21.4158  -29.3004   22.3731 N   0  0  0  0  0  0
  -26.4312  -37.3768   23.9418 N   0  0  0  0  0  0
  -24.6680  -31.0747   22.0970 N   0  0  0  0  0  0
  -23.4191  -28.8203   23.3074 O   0  0  0  0  0  0
  -28.3679  -26.5949   20.1546 O   0  0  0  0  0  0
  -26.5593  -34.8923   22.4689 O   0  0  0  0  0  0
  -23.5318  -32.1375   23.7461 O   0  0  0  0  0  0
  -29.6575  -19.5955   18.1123 C   0  0  0  0  0  0
  -29.5805  -20.8267   18.7817 C   0  0  0  0  0  0
  -29.8987  -19.6734   20.9090 C   0  0  0  0  0  0
  -29.8565  -18.4044   18.8369 C   0  0  0  0  0  0
  -29.9726  -18.4107   20.2421 C   0  0  0  0  0  0
  -29.6915  -20.8918   20.1880 C   0  0  0  0  0  0
  -29.1066  -23.3403   20.4585 C   0  0  0  0  0  0
  -29.9098  -17.0864   18.1147 C   0  0  0  0  0  0
  -30.1838  -17.0580   20.9960 C   0  0  0  0  0  0
  -29.2304  -16.0123   18.9647 C   0  0  0  0  0  0
  -30.4272  -26.4397   23.3729 C   0  0  0  0  0  0
  -27.5166  -25.4625   22.2182 C   0  0  0  0  0  0
  -29.6656  -24.6574   21.0672 C   0  0  0  0  0  0
  -29.5756  -26.9534   22.1950 C   0  0  0  0  0  0
  -28.7478  -25.9060   21.3870 C   0  0  2  0  0  0
  -29.8999  -15.7752   20.2600 N   0  0  0  0  0  0
  -29.7041  -22.1758   20.8431 N   0  0  0  0  0  0
  -28.1560  -23.3785   19.6728 O   0  0  0  0  0  0
  -31.4638  -12.4363   19.1368 H   0  0  0  0  0  0
  -30.3281  -11.3821   19.9477 H   0  0  0  0  0  0
  -29.7312  -11.5444   17.5512 H   0  0  0  0  0  0
  -29.6868  -13.2638   17.5988 H   0  0  0  0  0  0
  -27.8371  -11.2388   18.9073 H   0  0  0  0  0  0
  -27.3539  -12.4812   17.7905 H   0  0  0  0  0  0
  -27.5799  -14.1893   19.4472 H   0  0  0  0  0  0
  -28.7204  -12.1730   21.4529 H   0  0  0  0  0  0
  -28.4629  -13.8783   21.7348 H   0  0  0  0  0  0
  -25.2736   -9.5673   22.4785 H   0  0  0  0  0  0
  -24.0006   -7.4606   22.7472 H   0  0  0  0  0  0
  -21.0841   -8.8752   19.8950 H   0  0  0  0  0  0
  -22.3683  -10.9667   19.6198 H   0  0  0  0  0  0
  -21.2003   -7.6157   23.9727 H   0  0  0  0  0  0
  -21.1482   -6.0532   25.9086 H   0  0  0  0  0  0
  -22.0600   -2.7617   23.2835 H   0  0  0  0  0  0
  -22.4055  -11.9912   22.4850 H   0  0  0  0  0  0
  -21.1082  -13.1297   22.2578 H   0  0  0  0  0  0
  -24.6621  -15.8356   20.5376 H   0  0  0  0  0  0
  -26.2949  -15.6285   20.1458 H   0  0  0  0  0  0
  -26.7097  -32.5531   23.1140 H   0  0  0  0  0  0
  -25.0068  -33.9700   25.0475 H   0  0  0  0  0  0
  -22.6969  -31.2992   21.4029 H   0  0  0  0  0  0
  -23.3754  -35.9634   23.3286 H   0  0  0  0  0  0
  -24.3614  -36.8926   22.2067 H   0  0  0  0  0  0
  -23.7240  -37.6508   23.6656 H   0  0  0  0  0  0
  -26.0386  -31.5949   20.5915 H   0  0  0  0  0  0
  -26.8189  -30.8873   21.9852 H   0  0  0  0  0  0
  -28.1029  -29.1219   21.1687 H   0  0  0  0  0  0
  -26.0937  -25.9512   19.0585 H   0  0  0  0  0  0
  -24.0115  -27.2858   19.0225 H   0  0  0  0  0  0
  -23.7041  -30.5689   19.3928 H   0  0  0  0  0  0
  -22.7402  -29.2125   19.8812 H   0  0  0  0  0  0
  -25.1291  -36.1972   25.0834 H   0  0  0  0  0  0
  -20.9936  -28.3193   24.1443 H   0  0  0  0  0  0
  -20.5698  -26.2227   23.3600 H   0  0  0  0  0  0
  -21.6635  -26.7452   22.1193 H   0  0  0  0  0  0
  -19.6919  -25.6298   21.1239 H   0  0  0  0  0  0
  -19.6704  -27.3194   20.6770 H   0  0  0  0  0  0
  -17.4197  -26.6691   21.4010 H   0  0  0  0  0  0
  -18.0324  -26.0057   22.8991 H   0  0  0  0  0  0
  -19.7918  -30.7263   24.2294 H   0  0  0  0  0  0
  -17.4991  -31.6277   24.5123 H   0  0  0  0  0  0
  -15.5333  -30.2963   23.7677 H   0  0  0  0  0  0
  -15.8664  -28.0786   22.7117 H   0  0  0  0  0  0
  -24.5922  -30.7005   25.7746 H   0  0  0  0  0  0
  -24.8932  -32.2777   26.4908 H   0  0  0  0  0  0
  -25.8068  -30.8775   27.0161 H   0  0  0  0  0  0
  -26.2834  -29.6748   24.1146 H   0  0  0  0  0  0
  -27.4165  -29.7247   25.4490 H   0  0  0  0  0  0
  -27.8655  -30.4347   23.9134 H   0  0  0  0  0  0
  -27.2735  -33.3539   26.2072 H   0  0  0  0  0  0
  -28.3867  -32.6799   25.0224 H   0  0  0  0  0  0
  -28.0793  -31.8317   26.5302 H   0  0  0  0  0  0
  -28.2582  -38.0124   24.7533 H   0  0  0  0  0  0
  -28.1119  -36.2646   24.6252 H   0  0  0  0  0  0
  -27.2313  -37.1414   25.8863 H   0  0  0  0  0  0
  -20.9327  -29.8666   21.6897 H   0  0  0  0  0  0
  -26.0206  -38.2847   24.1410 H   0  0  0  0  0  0
  -29.5649  -19.5764   17.0350 H   0  0  0  0  0  0
  -29.4556  -21.7268   18.1962 H   0  0  0  0  0  0
  -29.9957  -19.7058   21.9852 H   0  0  0  0  0  0
  -30.9473  -16.8303   17.8979 H   0  0  0  0  0  0
  -29.4011  -17.1690   17.1532 H   0  0  0  0  0  0
  -29.5548  -17.0749   21.8868 H   0  0  0  0  0  0
  -31.2140  -17.0489   21.3570 H   0  0  0  0  0  0
  -29.1907  -15.1211   18.3513 H   0  0  0  0  0  0
  -28.1979  -16.3103   19.1497 H   0  0  0  0  0  0
  -30.8362  -27.2755   23.9405 H   0  0  0  0  0  0
  -31.2862  -25.8621   23.0301 H   0  0  0  0  0  0
  -29.8443  -25.8285   24.0631 H   0  0  0  0  0  0
  -26.9305  -26.3058   22.5871 H   0  0  0  0  0  0
  -27.8169  -24.8825   23.0905 H   0  0  0  0  0  0
  -26.8457  -24.8357   21.6330 H   0  0  0  0  0  0
  -30.1382  -24.3298   21.9899 H   0  0  0  0  0  0
  -30.4776  -24.9917   20.4227 H   0  0  0  0  0  0
  -30.2385  -27.4867   21.5117 H   0  0  0  0  0  0
  -28.9052  -27.7062   22.6054 H   0  0  0  0  0  0
  -30.3360  -22.2520   21.6287 H   0  0  0  0  0  0
  1 25  1  0  0  0
  1 30  2  0  0  0
  1 86  1  0  0  0
  2  3  1  0  0  0
  2 25  1  0  0  0
  2 89  1  0  0  0
  2 90  1  0  0  0
  3  4  1  0  0  0
  3 91  1  0  0  0
  3 92  1  0  0  0
  4  5  1  0  0  0
  4 93  1  0  0  0
  4 94  1  0  0  0
  5  6  1  0  0  0
  5 26  1  0  0  0
  5 95  1  0  0  0
  6 25  1  0  0  0
  6 96  1  0  0  0
  6 97  1  0  0  0
  7  8  2  0  0  0
  7 26  1  0  0  0
  7 29  1  0  0  0
  8  9  1  0  0  0
  8 22  1  0  0  0
  9 10  1  0  0  0
  9 27  2  0  0  0
 10 11  2  0  0  0
 10 15  1  0  0  0
 11 12  1  0  0  0
 11 98  1  0  0  0
 12 13  2  0  0  0
 12 99  1  0  0  0
 13 14  1  0  0  0
 13 31  1  0  0  0
 14 15  2  0  0  0
 14100  1  0  0  0
 15101  1  0  0  0
 16 17  2  0  0  0
 16 21  1  0  0  0
 16 31  1  0  0  0
 17 18  1  0  0  0
 17102  1  0  0  0
 18 19  2  0  0  0
 18103  1  0  0  0
 19 20  1  0  0  0
 19 24  1  0  0  0
 20 21  2  0  0  0
 20104  1  0  0  0
 21 23  1  0  0  0
 22 28  1  0  0  0
 22 32  2  0  0  0
 26 27  1  0  0  0
 28105  1  0  0  0
 28106  1  0  0  0
 29107  1  0  0  0
 29108  1  0  0  0
 33 34  1  0  0  0
 33 66  1  0  0  0
 33 70  2  0  0  0
 34 36  1  0  0  0
 34 59  1  0  0  0
 34109  1  0  0  0
 35 44  2  0  0  0
 35 45  1  0  0  0
 35 68  1  0  0  0
 36 56  1  0  0  0
 36110  1  0  0  0
 37 39  1  0  0  0
 37 47  1  0  0  0
 37 66  1  0  0  0
 37111  1  0  0  0
 38 43  2  0  0  0
 38 46  1  0  0  0
 38 47  1  0  0  0
 39 64  1  0  0  0
 39 67  2  0  0  0
 40 52  1  0  0  0
 40 53  2  0  0  0
 40 58  1  0  0  0
 41112  1  0  0  0
 41113  1  0  0  0
 41114  1  0  0  0
 41 48  1  0  0  0
 42 43  1  0  0  0
 42 66  1  0  0  0
 42115  1  0  0  0
 42116  1  0  0  0
 43 44  1  0  0  0
 44117  1  0  0  0
 45 46  2  0  0  0
 45118  1  0  0  0
 46119  1  0  0  0
 47120  1  0  0  0
 47121  1  0  0  0
 48 56  1  0  0  0
 48 65  1  0  0  0
 48122  1  0  0  0
 49 50  1  0  0  0
 49 53  1  0  0  0
 49 64  1  0  0  0
 49123  1  0  0  0
 50 51  1  0  0  0
 50124  1  0  0  0
 50125  1  0  0  0
 51 52  1  0  0  0
 51126  1  0  0  0
 51127  1  0  0  0
 52128  1  0  0  0
 52129  1  0  0  0
 53 54  1  0  0  0
 54 55  2  0  0  0
 54130  1  0  0  0
 55 57  1  0  0  0
 55131  1  0  0  0
 56 69  2  0  0  0
 57 58  2  0  0  0
 57132  1  0  0  0
 58133  1  0  0  0
 59 60  1  0  0  0
 59 61  1  0  0  0
 59 62  1  0  0  0
 60134  1  0  0  0
 60135  1  0  0  0
 60136  1  0  0  0
 61137  1  0  0  0
 61138  1  0  0  0
 61139  1  0  0  0
 62140  1  0  0  0
 62141  1  0  0  0
 62142  1  0  0  0
 63 65  1  0  0  0
 63143  1  0  0  0
 63144  1  0  0  0
 63145  1  0  0  0
 64146  1  0  0  0
 65147  1  0  0  0
 68 85  1  0  0  0
 71 72  2  0  0  0
 71 74  1  0  0  0
 71148  1  0  0  0
 72 76  1  0  0  0
 72149  1  0  0  0
 73 75  1  0  0  0
 73 76  2  0  0  0
 73150  1  0  0  0
 74 75  2  0  0  0
 74 78  1  0  0  0
 75 79  1  0  0  0
 76 87  1  0  0  0
 77 83  1  0  0  0
 77 87  1  0  0  0
 77 88  2  0  0  0
 78 80  1  0  0  0
 78151  1  0  0  0
 78152  1  0  0  0
 79 86  1  0  0  0
 79153  1  0  0  0
 79154  1  0  0  0
 80 86  1  0  0  0
 80155  1  0  0  0
 80156  1  0  0  0
 81 84  1  0  0  0
 81157  1  0  0  0
 81158  1  0  0  0
 81159  1  0  0  0
 82160  1  0  0  0
 82161  1  0  0  0
 82162  1  0  0  0
 82 85  1  0  0  0
 83 85  1  0  0  0
 83163  1  0  0  0
 83164  1  0  0  0
 84 85  1  0  0  0
 84165  1  0  0  0
 84166  1  0  0  0
 87167  1  0  0  0
M  ISO  4   1 100  68 101  85 101  86 100
M  END
> <chiral flag>
0

> <version>
0

> <s_m_source_file>
/data/baiqing/PycharmProjects/Reinvent-master-3.2/result/LINK_invent/BTK/process_docking_weight1_custom_product_contain_oxygen_bond_distance_aromatic_linkinvent_7_9_3/rearranged_h_0145.sdf

> <i_m_source_file_index>
29

> <r_mmod_Potential_Energy-OPLS-2005>
196.160095214844

> <r_mmod_Stretch_Energy-OPLS-2005>
62.9145240783691

> <r_mmod_Bend_Energy-OPLS-2005>
131.688980102539

> <r_mmod_Torsional_Energy-OPLS-2005>
339.936340332031

> <r_mmod_Improper_Torsional_Energy-OPLS-2005>
9.72744083404541

> <r_mmod_Van_der_Waal_Energy-OPLS-2005>
161.225524902344

> <r_mmod_Electrostatic_Energy-OPLS-2005>
-336.500946044922

> <r_mmod_Solvation_Energy-OPLS-2005>
-221.003540039062

> <b_mmod_Minimization_Converged-OPLS-2005>
0

> <r_mmod_RMS_Derivative-OPLS-2005>
3.34193706512451

$$$$
29
                    3D
 Structure written by MMmdl.
166174  0  0  1  0            999 V2000
  -30.7137  -14.3810   20.6241 C   0  0  0  0  0  0
  -30.4311  -12.2658   19.3994 C   0  0  0  0  0  0
  -29.4962  -12.5275   18.2005 C   0  0  0  0  0  0
  -28.0158  -12.3969   18.6130 C   0  0  0  0  0  0
  -27.6795  -13.1942   19.9020 C   0  0  2  0  0  0
  -28.7193  -12.8849   21.0020 C   0  0  0  0  0  0
  -25.2642  -13.8081   20.5674 C   0  0  0  0  0  0
  -24.1870  -13.0368   20.9150 C   0  0  0  0  0  0
  -24.6413  -11.6842   20.8756 C   0  0  0  0  0  0
  -23.9039  -10.4254   21.0433 C   0  0  0  0  0  0
  -24.3587   -9.4181   21.9209 C   0  0  0  0  0  0
  -23.6265   -8.2210   22.0734 C   0  0  0  0  0  0
  -22.4245   -8.0256   21.3531 C   0  0  0  0  0  0
  -21.9890   -9.0229   20.4614 C   0  0  0  0  0  0
  -22.7213  -10.2110   20.3079 C   0  0  0  0  0  0
  -21.6824   -6.0711   22.5294 C   0  0  0  0  0  0
  -21.3993   -6.5602   23.8233 C   0  0  0  0  0  0
  -21.3708   -5.6772   24.9208 C   0  0  0  0  0  0
  -21.6075   -4.3039   24.7258 C   0  0  0  0  0  0
  -21.8818   -3.8110   23.4361 C   0  0  0  0  0  0
  -21.9190   -4.6933   22.3417 C   0  0  0  0  0  0
  -22.7916  -13.5202   21.1818 C   0  0  0  0  0  0
  -22.1632   -4.2100   21.1002 F   0  0  0  0  0  0
  -21.5694   -3.4550   25.7774 F   0  0  0  0  0  0
  -30.0605  -13.2008   20.4699 N   0  0  0  0  0  0
  -26.3124  -12.9255   20.3505 N   0  0  0  0  0  0
  -25.9366  -11.6410   20.5871 N   0  0  0  0  0  0
  -22.0518  -12.8248   22.0381 N   0  0  0  0  0  0
  -25.4315  -15.1778   20.3989 N   0  0  0  0  0  0
  -31.7881  -14.6485   20.0742 O   0  0  0  0  0  0
  -21.6590   -6.8859   21.4253 O   0  0  0  0  0  0
  -22.3650  -14.5542   20.6687 O   0  0  0  0  0  0
  -24.6143  -31.8669   23.2116 C   0  0  0  0  0  0
  -25.9047  -32.4822   23.8389 C   0  0  1  0  0  0
  -27.2355  -27.4523   20.0612 C   0  0  0  0  0  0
  -25.5918  -33.8627   24.2310 N   0  0  0  0  0  0
  -23.3979  -30.4941   21.5570 C   0  0  2  0  0  0
  -24.8352  -28.9592   20.1214 C   0  0  0  0  0  0
  -22.7379  -29.4673   22.5032 C   0  0  0  0  0  0
  -18.0253  -28.1372   22.8491 C   0  0  0  0  0  0
  -24.1477  -36.7312   23.2644 C   0  0  0  0  0  0
  -25.9269  -30.8361   21.3600 C   0  0  0  0  0  0
  -25.9997  -29.4724   20.7026 C   0  0  0  0  0  0
  -27.2002  -28.7292   20.6678 C   0  0  0  0  0  0
  -26.0376  -26.9389   19.5038 C   0  0  0  0  0  0
  -24.8478  -27.6880   19.5268 C   0  0  0  0  0  0
  -23.5980  -29.8249   20.1725 C   0  0  0  0  0  0
  -25.4093  -36.3114   24.0336 C   0  0  1  0  0  0
  -20.5845  -28.3635   23.1327 C   0  0  2  0  0  0
  -20.6730  -26.9381   22.5423 C   0  0  0  0  0  0
  -19.5721  -26.6379   21.5214 C   0  0  0  0  0  0
  -18.1904  -26.7908   22.1629 C   0  0  0  0  0  0
  -19.1514  -28.8822   23.2899 C   0  0  0  0  0  0
  -18.9446  -30.1432   23.8895 C   0  0  0  0  0  0
  -17.6447  -30.6583   24.0569 C   0  0  0  0  0  0
  -25.9021  -34.9483   23.5105 C   0  0  0  0  0  0
  -16.5332  -29.9086   23.6352 C   0  0  0  0  0  0
  -16.7245  -28.6508   23.0360 C   0  0  0  0  0  0
  -26.4473  -31.6615   25.0728 C   0  0  0  0  0  0
  -25.3763  -31.3720   26.1492 C   0  0  0  0  0  0
  -27.0301  -30.3057   24.6133 C   0  0  0  0  0  0
  -27.6032  -32.4341   25.7491 C   0  0  0  0  0  0
  -27.5562  -37.1801   24.8465 C   0  0  0  0  0  0
  -21.4112  -29.3022   22.3748 N   0  0  0  0  0  0
  -26.4268  -37.3802   23.9412 N   0  0  0  0  0  0
  -24.6659  -31.0797   22.0991 N   0  0  0  0  0  0
  -23.4170  -28.8195   23.3046 O   0  0  0  0  0  0
  -28.4389  -26.7721   20.0255 O   0  0  0  0  0  0
  -26.5607  -34.8926   22.4692 O   0  0  0  0  0  0
  -23.5356  -32.1407   23.7536 O   0  0  0  0  0  0
  -28.5446  -17.1385   21.4610 C   0  0  0  0  0  0
  -28.2508  -18.3660   20.7951 C   0  0  0  0  0  0
  -29.6532  -16.4904   20.9866 C   0  0  0  0  0  0
  -29.1704  -18.6864   19.8250 C   0  0  0  0  0  0
  -30.0740  -20.3765   18.3204 C   0  0  0  0  0  0
  -27.0536  -19.2074   21.1170 C   0  0  0  0  0  0
  -29.4209  -23.8420   16.5855 C   0  0  0  0  0  0
  -31.6641  -23.0134   17.3168 C   0  0  0  0  0  0
  -29.6229  -21.4789   17.3466 C   0  0  0  0  0  0
  -29.8630  -24.8661   19.4251 C   0  0  0  0  0  0
  -29.8645  -23.3565   19.0755 C   0  0  0  0  0  0
  -28.4379  -25.4356   19.5250 C   0  0  0  0  0  0
  -30.1481  -22.9297   17.6000 C   0  0  0  0  0  0
  -29.0930  -19.7654   19.0049 N   0  0  0  0  0  0
  -30.0619  -15.2615   21.3940 N   0  0  0  0  0  0
  -31.2703  -20.1039   18.4458 O   0  0  0  0  0  0
  -30.4153  -17.4521   19.7401 S   0  0  0  0  0  0
  -31.4733  -12.3768   19.0981 H   0  0  0  0  0  0
  -30.3379  -11.2365   19.7474 H   0  0  0  0  0  0
  -29.7242  -11.8433   17.3817 H   0  0  0  0  0  0
  -29.6790  -13.5322   17.8173 H   0  0  0  0  0  0
  -27.8072  -11.3391   18.7699 H   0  0  0  0  0  0
  -27.3622  -12.7167   17.8012 H   0  0  0  0  0  0
  -27.7554  -14.2556   19.6608 H   0  0  0  0  0  0
  -28.6827  -11.8235   21.2555 H   0  0  0  0  0  0
  -28.4851  -13.4024   21.9331 H   0  0  0  0  0  0
  -25.2716   -9.5669   22.4833 H   0  0  0  0  0  0
  -23.9975   -7.4604   22.7433 H   0  0  0  0  0  0
  -21.0828   -8.8737   19.8901 H   0  0  0  0  0  0
  -22.3652  -10.9671   19.6226 H   0  0  0  0  0  0
  -21.1933   -7.6107   23.9744 H   0  0  0  0  0  0
  -21.1556   -6.0474   25.9124 H   0  0  0  0  0  0
  -22.0556   -2.7561   23.2878 H   0  0  0  0  0  0
  -22.3995  -11.9866   22.4786 H   0  0  0  0  0  0
  -21.1182  -13.1396   22.2606 H   0  0  0  0  0  0
  -24.6396  -15.8096   20.4371 H   0  0  0  0  0  0
  -26.2740  -15.6151   20.0480 H   0  0  0  0  0  0
  -26.7104  -32.5493   23.1128 H   0  0  0  0  0  0
  -25.0021  -33.9794   25.0427 H   0  0  0  0  0  0
  -22.6878  -31.3113   21.4203 H   0  0  0  0  0  0
  -23.3733  -35.9661   23.3342 H   0  0  0  0  0  0
  -24.3539  -36.8897   22.2048 H   0  0  0  0  0  0
  -23.7232  -37.6524   23.6639 H   0  0  0  0  0  0
  -26.0452  -31.6040   20.5934 H   0  0  0  0  0  0
  -26.8129  -30.8794   21.9800 H   0  0  0  0  0  0
  -28.1044  -29.1414   21.0918 H   0  0  0  0  0  0
  -25.9862  -25.9665   19.0393 H   0  0  0  0  0  0
  -23.9483  -27.2772   19.0872 H   0  0  0  0  0  0
  -23.6974  -30.5947   19.4069 H   0  0  0  0  0  0
  -22.7206  -29.2415   19.8873 H   0  0  0  0  0  0
  -25.1271  -36.1977   25.0832 H   0  0  0  0  0  0
  -20.9926  -28.3190   24.1450 H   0  0  0  0  0  0
  -20.5617  -26.2248   23.3609 H   0  0  0  0  0  0
  -21.6590  -26.7407   22.1229 H   0  0  0  0  0  0
  -19.6865  -25.6301   21.1231 H   0  0  0  0  0  0
  -19.6652  -27.3184   20.6751 H   0  0  0  0  0  0
  -17.4159  -26.6654   21.4056 H   0  0  0  0  0  0
  -18.0304  -26.0046   22.9027 H   0  0  0  0  0  0
  -19.7930  -30.7256   24.2252 H   0  0  0  0  0  0
  -17.5020  -31.6278   24.5153 H   0  0  0  0  0  0
  -15.5343  -30.3009   23.7670 H   0  0  0  0  0  0
  -15.8634  -28.0843   22.7084 H   0  0  0  0  0  0
  -24.5916  -30.7089   25.7821 H   0  0  0  0  0  0
  -24.9003  -32.2894   26.4979 H   0  0  0  0  0  0
  -25.8139  -30.8847   27.0224 H   0  0  0  0  0  0
  -26.2848  -29.6813   24.1195 H   0  0  0  0  0  0
  -27.4048  -29.7296   25.4602 H   0  0  0  0  0  0
  -27.8698  -30.4339   23.9291 H   0  0  0  0  0  0
  -27.2638  -33.3626   26.2091 H   0  0  0  0  0  0
  -28.3838  -32.6938   25.0329 H   0  0  0  0  0  0
  -28.0730  -31.8475   26.5396 H   0  0  0  0  0  0
  -28.2594  -38.0086   24.7500 H   0  0  0  0  0  0
  -28.1045  -36.2620   24.6303 H   0  0  0  0  0  0
  -27.2283  -37.1443   25.8869 H   0  0  0  0  0  0
  -20.9253  -29.8765   21.6996 H   0  0  0  0  0  0
  -26.0167  -38.2877   24.1451 H   0  0  0  0  0  0
  -27.9027  -16.7544   22.2420 H   0  0  0  0  0  0
  -26.4197  -19.3487   20.2414 H   0  0  0  0  0  0
  -27.3493  -20.1945   21.4729 H   0  0  0  0  0  0
  -26.4337  -18.7514   21.8883 H   0  0  0  0  0  0
  -29.5852  -23.4956   15.5630 H   0  0  0  0  0  0
  -29.7718  -24.8731   16.6249 H   0  0  0  0  0  0
  -28.3421  -23.8503   16.7493 H   0  0  0  0  0  0
  -31.9027  -22.6424   16.3190 H   0  0  0  0  0  0
  -32.2495  -22.4295   18.0262 H   0  0  0  0  0  0
  -32.0264  -24.0392   17.3827 H   0  0  0  0  0  0
  -28.5320  -21.4949   17.3370 H   0  0  0  0  0  0
  -29.9068  -21.1510   16.3441 H   0  0  0  0  0  0
  -30.4602  -25.4457   18.7214 H   0  0  0  0  0  0
  -30.3472  -24.9939   20.3936 H   0  0  0  0  0  0
  -28.9158  -22.9273   19.4004 H   0  0  0  0  0  0
  -30.6121  -22.8808   19.7140 H   0  0  0  0  0  0
  -27.8435  -24.8140   20.1985 H   0  0  0  0  0  0
  -27.9870  -25.3918   18.5347 H   0  0  0  0  0  0
  -28.1730  -20.1704   18.8962 H   0  0  0  0  0  0
  -29.4122  -14.8099   22.0196 H   0  0  0  0  0  0
  1 25  1  0  0  0
  1 30  2  0  0  0
  1 85  1  0  0  0
  2  3  1  0  0  0
  2 25  1  0  0  0
  2 88  1  0  0  0
  2 89  1  0  0  0
  3  4  1  0  0  0
  3 90  1  0  0  0
  3 91  1  0  0  0
  4  5  1  0  0  0
  4 92  1  0  0  0
  4 93  1  0  0  0
  5  6  1  0  0  0
  5 26  1  0  0  0
  5 94  1  0  0  0
  6 25  1  0  0  0
  6 95  1  0  0  0
  6 96  1  0  0  0
  7  8  2  0  0  0
  7 26  1  0  0  0
  7 29  1  0  0  0
  8  9  1  0  0  0
  8 22  1  0  0  0
  9 10  1  0  0  0
  9 27  2  0  0  0
 10 11  2  0  0  0
 10 15  1  0  0  0
 11 12  1  0  0  0
 11 97  1  0  0  0
 12 13  2  0  0  0
 12 98  1  0  0  0
 13 14  1  0  0  0
 13 31  1  0  0  0
 14 15  2  0  0  0
 14 99  1  0  0  0
 15100  1  0  0  0
 16 17  2  0  0  0
 16 21  1  0  0  0
 16 31  1  0  0  0
 17 18  1  0  0  0
 17101  1  0  0  0
 18 19  2  0  0  0
 18102  1  0  0  0
 19 20  1  0  0  0
 19 24  1  0  0  0
 20 21  2  0  0  0
 20103  1  0  0  0
 21 23  1  0  0  0
 22 28  1  0  0  0
 22 32  2  0  0  0
 26 27  1  0  0  0
 28104  1  0  0  0
 28105  1  0  0  0
 29106  1  0  0  0
 29107  1  0  0  0
 33 34  1  0  0  0
 33 66  1  0  0  0
 33 70  2  0  0  0
 34 36  1  0  0  0
 34 59  1  0  0  0
 34108  1  0  0  0
 35 44  2  0  0  0
 35 45  1  0  0  0
 35 68  1  0  0  0
 36 56  1  0  0  0
 36109  1  0  0  0
 37 39  1  0  0  0
 37 47  1  0  0  0
 37 66  1  0  0  0
 37110  1  0  0  0
 38 43  2  0  0  0
 38 46  1  0  0  0
 38 47  1  0  0  0
 39 64  1  0  0  0
 39 67  2  0  0  0
 40 52  1  0  0  0
 40 53  2  0  0  0
 40 58  1  0  0  0
 41111  1  0  0  0
 41112  1  0  0  0
 41113  1  0  0  0
 41 48  1  0  0  0
 42 43  1  0  0  0
 42 66  1  0  0  0
 42114  1  0  0  0
 42115  1  0  0  0
 43 44  1  0  0  0
 44116  1  0  0  0
 45 46  2  0  0  0
 45117  1  0  0  0
 46118  1  0  0  0
 47119  1  0  0  0
 47120  1  0  0  0
 48 56  1  0  0  0
 48 65  1  0  0  0
 48121  1  0  0  0
 49 50  1  0  0  0
 49 53  1  0  0  0
 49 64  1  0  0  0
 49122  1  0  0  0
 50 51  1  0  0  0
 50123  1  0  0  0
 50124  1  0  0  0
 51 52  1  0  0  0
 51125  1  0  0  0
 51126  1  0  0  0
 52127  1  0  0  0
 52128  1  0  0  0
 53 54  1  0  0  0
 54 55  2  0  0  0
 54129  1  0  0  0
 55 57  1  0  0  0
 55130  1  0  0  0
 56 69  2  0  0  0
 57 58  2  0  0  0
 57131  1  0  0  0
 58132  1  0  0  0
 59 60  1  0  0  0
 59 61  1  0  0  0
 59 62  1  0  0  0
 60133  1  0  0  0
 60134  1  0  0  0
 60135  1  0  0  0
 61136  1  0  0  0
 61137  1  0  0  0
 61138  1  0  0  0
 62139  1  0  0  0
 62140  1  0  0  0
 62141  1  0  0  0
 63 65  1  0  0  0
 63142  1  0  0  0
 63143  1  0  0  0
 63144  1  0  0  0
 64145  1  0  0  0
 65146  1  0  0  0
 68 82  1  0  0  0
 71 72  1  0  0  0
 71 73  2  0  0  0
 71147  1  0  0  0
 72 74  2  0  0  0
 72 76  1  0  0  0
 73 85  1  0  0  0
 73 87  1  0  0  0
 74 84  1  0  0  0
 74 87  1  0  0  0
 75 79  1  0  0  0
 75 84  1  0  0  0
 75 86  2  0  0  0
 76148  1  0  0  0
 76149  1  0  0  0
 76150  1  0  0  0
 77151  1  0  0  0
 77152  1  0  0  0
 77153  1  0  0  0
 77 83  1  0  0  0
 78 83  1  0  0  0
 78154  1  0  0  0
 78155  1  0  0  0
 78156  1  0  0  0
 79 83  1  0  0  0
 79157  1  0  0  0
 79158  1  0  0  0
 80 81  1  0  0  0
 80 82  1  0  0  0
 80159  1  0  0  0
 80160  1  0  0  0
 81 83  1  0  0  0
 81161  1  0  0  0
 81162  1  0  0  0
 82163  1  0  0  0
 82164  1  0  0  0
 84165  1  0  0  0
 85166  1  0  0  0
M  ISO  4   1 100  68 101  82 101  85 100
M  END
> <chiral flag>
0

> <version>
0

> <s_m_source_file>
/data/baiqing/PycharmProjects/Reinvent-master-3.2/result/LINK_invent/BTK/process_docking_weight1_custom_product_contain_oxygen_bond_distance_aromatic_linkinvent_7_9_3/rearranged_h_0145.sdf

> <i_m_source_file_index>
30

> <r_mmod_Potential_Energy-OPLS-2005>
-71.3058776855469

> <r_mmod_Stretch_Energy-OPLS-2005>
35.122142791748

> <r_mmod_Bend_Energy-OPLS-2005>
120.217498779297

> <r_mmod_Torsional_Energy-OPLS-2005>
222.301605224609

> <r_mmod_Improper_Torsional_Energy-OPLS-2005>
5.8445086479187

> <r_mmod_Van_der_Waal_Energy-OPLS-2005>
143.482467651367

> <r_mmod_Electrostatic_Energy-OPLS-2005>
-371.231536865234

> <r_mmod_Solvation_Energy-OPLS-2005>
-236.103363037109

> <b_mmod_Minimization_Converged-OPLS-2005>
0

> <r_mmod_RMS_Derivative-OPLS-2005>
4.49544954299927

$$$$
30
                    3D
 Structure written by MMmdl.
174183  0  0  1  0            999 V2000
  -30.7292  -14.4503   20.5575 C   0  0  0  0  0  0
  -30.4113  -12.2852   19.4517 C   0  0  0  0  0  0
  -29.4988  -12.4891   18.2251 C   0  0  0  0  0  0
  -28.0188  -12.3664   18.6319 C   0  0  0  0  0  0
  -27.6623  -13.2131   19.8825 C   0  0  2  0  0  0
  -28.6975  -13.0141   21.0116 C   0  0  0  0  0  0
  -25.2555  -13.8145   20.5720 C   0  0  0  0  0  0
  -24.1789  -13.0422   20.9176 C   0  0  0  0  0  0
  -24.6344  -11.6884   20.8712 C   0  0  0  0  0  0
  -23.8996  -10.4277   21.0410 C   0  0  0  0  0  0
  -24.3543   -9.4202   21.9200 C   0  0  0  0  0  0
  -23.6225   -8.2247   22.0772 C   0  0  0  0  0  0
  -22.4212   -8.0262   21.3561 C   0  0  0  0  0  0
  -21.9840   -9.0237   20.4670 C   0  0  0  0  0  0
  -22.7148  -10.2102   20.3082 C   0  0  0  0  0  0
  -21.6870   -6.0689   22.5274 C   0  0  0  0  0  0
  -21.4031   -6.5609   23.8180 C   0  0  0  0  0  0
  -21.3688   -5.6777   24.9151 C   0  0  0  0  0  0
  -21.6058   -4.3043   24.7219 C   0  0  0  0  0  0
  -21.8810   -3.8110   23.4351 C   0  0  0  0  0  0
  -21.9180   -4.6917   22.3385 C   0  0  0  0  0  0
  -22.7812  -13.5249   21.1808 C   0  0  0  0  0  0
  -22.1653   -4.2094   21.0980 F   0  0  0  0  0  0
  -21.5622   -3.4535   25.7744 F   0  0  0  0  0  0
  -30.0364  -13.2850   20.4594 N   0  0  0  0  0  0
  -26.3018  -12.9333   20.3411 N   0  0  0  0  0  0
  -25.9286  -11.6474   20.5743 N   0  0  0  0  0  0
  -22.0450  -12.8302   22.0409 N   0  0  0  0  0  0
  -25.4229  -15.1867   20.4139 N   0  0  0  0  0  0
  -31.8658  -14.5838   20.0877 O   0  0  0  0  0  0
  -21.6625   -6.8841   21.4231 O   0  0  0  0  0  0
  -22.3530  -14.5559   20.6629 O   0  0  0  0  0  0
  -24.6132  -31.8714   23.2157 C   0  0  0  0  0  0
  -25.9034  -32.4843   23.8445 C   0  0  1  0  0  0
  -27.2453  -27.4709   20.0802 C   0  0  0  0  0  0
  -25.5888  -33.8640   24.2381 N   0  0  0  0  0  0
  -23.4025  -30.4978   21.5546 C   0  0  2  0  0  0
  -24.8541  -28.9682   20.1248 C   0  0  0  0  0  0
  -22.7409  -29.4694   22.5008 C   0  0  0  0  0  0
  -18.0269  -28.1368   22.8495 C   0  0  0  0  0  0
  -24.1479  -36.7317   23.2639 C   0  0  0  0  0  0
  -25.9312  -30.8464   21.3677 C   0  0  0  0  0  0
  -26.0168  -29.4799   20.7215 C   0  0  0  0  0  0
  -27.2232  -28.7376   20.7077 C   0  0  0  0  0  0
  -26.0674  -26.9685   19.4979 C   0  0  0  0  0  0
  -24.8701  -27.7042   19.5161 C   0  0  0  0  0  0
  -23.6126  -29.8317   20.1701 C   0  0  0  0  0  0
  -25.4092  -36.3134   24.0357 C   0  0  1  0  0  0
  -20.5865  -28.3668   23.1304 C   0  0  2  0  0  0
  -20.6764  -26.9401   22.5409 C   0  0  0  0  0  0
  -19.5742  -26.6384   21.5209 C   0  0  0  0  0  0
  -18.1923  -26.7916   22.1628 C   0  0  0  0  0  0
  -19.1522  -28.8838   23.2899 C   0  0  0  0  0  0
  -18.9453  -30.1435   23.8921 C   0  0  0  0  0  0
  -17.6460  -30.6579   24.0571 C   0  0  0  0  0  0
  -25.9009  -34.9489   23.5169 C   0  0  0  0  0  0
  -16.5347  -29.9083   23.6316 C   0  0  0  0  0  0
  -16.7261  -28.6491   23.0349 C   0  0  0  0  0  0
  -26.4464  -31.6590   25.0745 C   0  0  0  0  0  0
  -25.3745  -31.3709   26.1517 C   0  0  0  0  0  0
  -27.0272  -30.3036   24.6080 C   0  0  0  0  0  0
  -27.6078  -32.4282   25.7469 C   0  0  0  0  0  0
  -27.5585  -37.1807   24.8469 C   0  0  0  0  0  0
  -21.4149  -29.3042   22.3726 N   0  0  0  0  0  0
  -26.4283  -37.3816   23.9428 N   0  0  0  0  0  0
  -24.6671  -31.0851   22.1047 N   0  0  0  0  0  0
  -23.4173  -28.8227   23.3053 O   0  0  0  0  0  0
  -28.3252  -26.6386   19.9447 O   0  0  0  0  0  0
  -26.5578  -34.8939   22.4734 O   0  0  0  0  0  0
  -23.5327  -32.1462   23.7557 O   0  0  0  0  0  0
  -30.5191  -17.8795   21.7502 C   0  0  0  0  0  0
  -30.6028  -17.3101   19.4768 C   0  0  0  0  0  0
  -30.3861  -16.8652   20.7544 C   0  0  0  0  0  0
  -30.9435  -19.0864   21.2233 C   0  0  0  0  0  0
  -30.7015  -21.6014   21.3353 C   0  0  0  0  0  0
  -32.8630  -20.5305   23.5567 C   0  0  0  0  0  0
  -31.3496  -20.3327   23.4962 C   0  0  0  0  0  0
  -32.9171  -20.4186   22.0340 C   0  0  0  0  0  0
  -31.3752  -20.3550   21.9463 C   0  0  0  0  0  0
  -30.4413  -25.5091   18.5159 C   0  0  0  0  0  0
  -31.8446  -25.8898   22.1884 C   0  0  0  0  0  0
  -32.9098  -26.0093   19.9474 C   0  0  0  0  0  0
  -31.1613  -22.9911   21.8167 C   0  0  0  0  0  0
  -29.6093  -26.8964   20.4845 C   0  0  0  0  0  0
  -30.3821  -25.6101   20.0653 C   0  0  2  0  0  0
  -32.0156  -23.7834   20.7880 C   0  0  1  0  0  0
  -31.7702  -25.3296   20.7480 C   0  0  0  0  0  0
  -30.0680  -15.5081   21.0611 N   0  0  0  0  0  0
  -29.7804  -21.5933   20.5112 O   0  0  0  0  0  0
  -33.2966  -23.5564   21.0804 F   0  0  0  0  0  0
  -31.1153  -18.9660   19.4782 S   0  0  0  0  0  0
  -31.4651  -12.3494   19.1742 H   0  0  0  0  0  0
  -30.2809  -11.2853   19.8630 H   0  0  0  0  0  0
  -29.7289  -11.7480   17.4562 H   0  0  0  0  0  0
  -29.6957  -13.4649   17.7787 H   0  0  0  0  0  0
  -27.8187  -11.3114   18.8289 H   0  0  0  0  0  0
  -27.3768  -12.6505   17.7984 H   0  0  0  0  0  0
  -27.7055  -14.2598   19.5755 H   0  0  0  0  0  0
  -28.6582  -11.9909   21.3889 H   0  0  0  0  0  0
  -28.4636  -13.6489   21.8674 H   0  0  0  0  0  0
  -25.2698   -9.5657   22.4747 H   0  0  0  0  0  0
  -23.9925   -7.4649   22.7498 H   0  0  0  0  0  0
  -21.0774   -8.8711   19.9000 H   0  0  0  0  0  0
  -22.3603  -10.9608   19.6172 H   0  0  0  0  0  0
  -21.2060   -7.6119   23.9672 H   0  0  0  0  0  0
  -21.1533   -6.0516   25.9046 H   0  0  0  0  0  0
  -22.0559   -2.7570   23.2862 H   0  0  0  0  0  0
  -22.4019  -11.9996   22.4878 H   0  0  0  0  0  0
  -21.1080  -13.1345   22.2613 H   0  0  0  0  0  0
  -24.6481  -15.8296   20.5321 H   0  0  0  0  0  0
  -26.2644  -15.6362   20.0757 H   0  0  0  0  0  0
  -26.7124  -32.5595   23.1234 H   0  0  0  0  0  0
  -25.0058  -33.9804   25.0542 H   0  0  0  0  0  0
  -22.6895  -31.3138   21.4161 H   0  0  0  0  0  0
  -23.3746  -35.9643   23.3292 H   0  0  0  0  0  0
  -24.3590  -36.8926   22.2056 H   0  0  0  0  0  0
  -23.7197  -37.6516   23.6631 H   0  0  0  0  0  0
  -26.0391  -31.6107   20.5967 H   0  0  0  0  0  0
  -26.8197  -30.9054   21.9840 H   0  0  0  0  0  0
  -28.1174  -29.1418   21.1621 H   0  0  0  0  0  0
  -26.0846  -26.0018   19.0178 H   0  0  0  0  0  0
  -23.9809  -27.2972   19.0562 H   0  0  0  0  0  0
  -23.7205  -30.6084   19.4122 H   0  0  0  0  0  0
  -22.7381  -29.2508   19.8717 H   0  0  0  0  0  0
  -25.1255  -36.2024   25.0845 H   0  0  0  0  0  0
  -20.9951  -28.3225   24.1430 H   0  0  0  0  0  0
  -20.5658  -26.2278   23.3600 H   0  0  0  0  0  0
  -21.6636  -26.7444   22.1204 H   0  0  0  0  0  0
  -19.6909  -25.6306   21.1213 H   0  0  0  0  0  0
  -19.6663  -27.3212   20.6753 H   0  0  0  0  0  0
  -17.4186  -26.6647   21.4036 H   0  0  0  0  0  0
  -18.0338  -26.0043   22.9012 H   0  0  0  0  0  0
  -19.7936  -30.7243   24.2288 H   0  0  0  0  0  0
  -17.5020  -31.6261   24.5176 H   0  0  0  0  0  0
  -15.5350  -30.3004   23.7637 H   0  0  0  0  0  0
  -15.8653  -28.0827   22.7060 H   0  0  0  0  0  0
  -24.5883  -30.7088   25.7874 H   0  0  0  0  0  0
  -24.8978  -32.2870   26.5013 H   0  0  0  0  0  0
  -25.8112  -30.8844   27.0244 H   0  0  0  0  0  0
  -26.2794  -29.6803   24.1163 H   0  0  0  0  0  0
  -27.4088  -29.7274   25.4514 H   0  0  0  0  0  0
  -27.8616  -30.4373   23.9193 H   0  0  0  0  0  0
  -27.2754  -33.3612   26.2034 H   0  0  0  0  0  0
  -28.3873  -32.6771   25.0253 H   0  0  0  0  0  0
  -28.0732  -31.8381   26.5372 H   0  0  0  0  0  0
  -28.2619  -38.0101   24.7537 H   0  0  0  0  0  0
  -28.1069  -36.2632   24.6253 H   0  0  0  0  0  0
  -27.2316  -37.1417   25.8882 H   0  0  0  0  0  0
  -20.9303  -29.8769   21.6963 H   0  0  0  0  0  0
  -26.0185  -38.2902   24.1439 H   0  0  0  0  0  0
  -30.3587  -17.6665   22.7976 H   0  0  0  0  0  0
  -30.5498  -16.7737   18.5376 H   0  0  0  0  0  0
  -33.3893  -19.7225   24.0651 H   0  0  0  0  0  0
  -33.1653  -21.5111   23.9257 H   0  0  0  0  0  0
  -30.7982  -21.1526   23.9563 H   0  0  0  0  0  0
  -31.0471  -19.3901   23.9479 H   0  0  0  0  0  0
  -33.4046  -19.4963   21.7104 H   0  0  0  0  0  0
  -33.3807  -21.2715   21.5452 H   0  0  0  0  0  0
  -29.4501  -25.5453   18.0650 H   0  0  0  0  0  0
  -30.8940  -24.5804   18.1734 H   0  0  0  0  0  0
  -31.0090  -26.3296   18.0770 H   0  0  0  0  0  0
  -31.8299  -26.9804   22.1965 H   0  0  0  0  0  0
  -32.7688  -25.5882   22.6838 H   0  0  0  0  0  0
  -31.0192  -25.5497   22.8125 H   0  0  0  0  0  0
  -32.7002  -27.0659   19.7708 H   0  0  0  0  0  0
  -33.0714  -25.5347   18.9773 H   0  0  0  0  0  0
  -33.8636  -25.9564   20.4750 H   0  0  0  0  0  0
  -31.6918  -22.9258   22.7669 H   0  0  0  0  0  0
  -30.2493  -23.5412   22.0380 H   0  0  0  0  0  0
  -30.0623  -27.7973   20.0696 H   0  0  0  0  0  0
  -29.5248  -27.0043   21.5665 H   0  0  0  0  0  0
  -29.7270  -24.7985   20.3793 H   0  0  0  0  0  0
  -31.8791  -23.3660   19.7883 H   0  0  0  0  0  0
  -29.2282  -15.3345   21.5982 H   0  0  0  0  0  0
  1 25  1  0  0  0
  1 30  2  0  0  0
  1 88  1  0  0  0
  2  3  1  0  0  0
  2 25  1  0  0  0
  2 92  1  0  0  0
  2 93  1  0  0  0
  3  4  1  0  0  0
  3 94  1  0  0  0
  3 95  1  0  0  0
  4  5  1  0  0  0
  4 96  1  0  0  0
  4 97  1  0  0  0
  5  6  1  0  0  0
  5 26  1  0  0  0
  5 98  1  0  0  0
  6 25  1  0  0  0
  6 99  1  0  0  0
  6100  1  0  0  0
  7  8  2  0  0  0
  7 26  1  0  0  0
  7 29  1  0  0  0
  8  9  1  0  0  0
  8 22  1  0  0  0
  9 10  1  0  0  0
  9 27  2  0  0  0
 10 11  2  0  0  0
 10 15  1  0  0  0
 11 12  1  0  0  0
 11101  1  0  0  0
 12 13  2  0  0  0
 12102  1  0  0  0
 13 14  1  0  0  0
 13 31  1  0  0  0
 14 15  2  0  0  0
 14103  1  0  0  0
 15104  1  0  0  0
 16 17  2  0  0  0
 16 21  1  0  0  0
 16 31  1  0  0  0
 17 18  1  0  0  0
 17105  1  0  0  0
 18 19  2  0  0  0
 18106  1  0  0  0
 19 20  1  0  0  0
 19 24  1  0  0  0
 20 21  2  0  0  0
 20107  1  0  0  0
 21 23  1  0  0  0
 22 28  1  0  0  0
 22 32  2  0  0  0
 26 27  1  0  0  0
 28108  1  0  0  0
 28109  1  0  0  0
 29110  1  0  0  0
 29111  1  0  0  0
 33 34  1  0  0  0
 33 66  1  0  0  0
 33 70  2  0  0  0
 34 36  1  0  0  0
 34 59  1  0  0  0
 34112  1  0  0  0
 35 44  2  0  0  0
 35 45  1  0  0  0
 35 68  1  0  0  0
 36 56  1  0  0  0
 36113  1  0  0  0
 37 39  1  0  0  0
 37 47  1  0  0  0
 37 66  1  0  0  0
 37114  1  0  0  0
 38 43  2  0  0  0
 38 46  1  0  0  0
 38 47  1  0  0  0
 39 64  1  0  0  0
 39 67  2  0  0  0
 40 52  1  0  0  0
 40 53  2  0  0  0
 40 58  1  0  0  0
 41115  1  0  0  0
 41116  1  0  0  0
 41117  1  0  0  0
 41 48  1  0  0  0
 42 43  1  0  0  0
 42 66  1  0  0  0
 42118  1  0  0  0
 42119  1  0  0  0
 43 44  1  0  0  0
 44120  1  0  0  0
 45 46  2  0  0  0
 45121  1  0  0  0
 46122  1  0  0  0
 47123  1  0  0  0
 47124  1  0  0  0
 48 56  1  0  0  0
 48 65  1  0  0  0
 48125  1  0  0  0
 49 50  1  0  0  0
 49 53  1  0  0  0
 49 64  1  0  0  0
 49126  1  0  0  0
 50 51  1  0  0  0
 50127  1  0  0  0
 50128  1  0  0  0
 51 52  1  0  0  0
 51129  1  0  0  0
 51130  1  0  0  0
 52131  1  0  0  0
 52132  1  0  0  0
 53 54  1  0  0  0
 54 55  2  0  0  0
 54133  1  0  0  0
 55 57  1  0  0  0
 55134  1  0  0  0
 56 69  2  0  0  0
 57 58  2  0  0  0
 57135  1  0  0  0
 58136  1  0  0  0
 59 60  1  0  0  0
 59 61  1  0  0  0
 59 62  1  0  0  0
 60137  1  0  0  0
 60138  1  0  0  0
 60139  1  0  0  0
 61140  1  0  0  0
 61141  1  0  0  0
 61142  1  0  0  0
 62143  1  0  0  0
 62144  1  0  0  0
 62145  1  0  0  0
 63 65  1  0  0  0
 63146  1  0  0  0
 63147  1  0  0  0
 63148  1  0  0  0
 64149  1  0  0  0
 65150  1  0  0  0
 68 84  1  0  0  0
 71 73  1  0  0  0
 71 74  2  0  0  0
 71151  1  0  0  0
 72 73  2  0  0  0
 72 91  1  0  0  0
 72152  1  0  0  0
 73 88  1  0  0  0
 74 79  1  0  0  0
 74 91  1  0  0  0
 75 83  1  0  0  0
 75 89  2  0  0  0
 75 79  1  0  0  0
 76 77  1  0  0  0
 76 78  1  0  0  0
 76153  1  0  0  0
 76154  1  0  0  0
 77 79  1  0  0  0
 77155  1  0  0  0
 77156  1  0  0  0
 78 79  1  0  0  0
 78157  1  0  0  0
 78158  1  0  0  0
 80159  1  0  0  0
 80160  1  0  0  0
 80161  1  0  0  0
 80 85  1  0  0  0
 81162  1  0  0  0
 81163  1  0  0  0
 81164  1  0  0  0
 81 87  1  0  0  0
 82 87  1  0  0  0
 82165  1  0  0  0
 82166  1  0  0  0
 82167  1  0  0  0
 83 86  1  0  0  0
 83168  1  0  0  0
 83169  1  0  0  0
 84 85  1  0  0  0
 84170  1  0  0  0
 84171  1  0  0  0
 85 87  1  0  0  0
 85172  1  0  0  0
 86 87  1  0  0  0
 86 90  1  0  0  0
 86173  1  0  0  0
 88174  1  0  0  0
M  ISO  4   1 100  68 101  84 101  88 100
M  END
> <chiral flag>
0

> <version>
0

> <s_m_source_file>
/data/baiqing/PycharmProjects/Reinvent-master-3.2/result/LINK_invent/BTK/process_docking_weight1_custom_product_contain_oxygen_bond_distance_aromatic_linkinvent_7_9_3/rearranged_h_0145.sdf

> <i_m_source_file_index>
31

> <r_mmod_Potential_Energy-OPLS-2005>
76.3376312255859

> <r_mmod_Stretch_Energy-OPLS-2005>
42.8846092224121

> <r_mmod_Bend_Energy-OPLS-2005>
149.767395019531

> <r_mmod_Torsional_Energy-OPLS-2005>
283.728637695312

> <r_mmod_Improper_Torsional_Energy-OPLS-2005>
4.13041210174561

> <r_mmod_Van_der_Waal_Energy-OPLS-2005>
153.011505126953

> <r_mmod_Electrostatic_Energy-OPLS-2005>
-357.076293945312

> <r_mmod_Solvation_Energy-OPLS-2005>
-213.811157226562

> <b_mmod_Minimization_Converged-OPLS-2005>
0

> <r_mmod_RMS_Derivative-OPLS-2005>
4.83671379089355

$$$$
31
                    3D
 Structure written by MMmdl.
173181  0  0  1  0            999 V2000
  -30.6840  -14.4772   20.4908 C   0  0  0  0  0  0
  -30.4263  -12.2849   19.4199 C   0  0  0  0  0  0
  -29.4988  -12.4632   18.2013 C   0  0  0  0  0  0
  -28.0190  -12.3355   18.6160 C   0  0  0  0  0  0
  -27.6550  -13.1995   19.8559 C   0  0  2  0  0  0
  -28.7047  -13.0253   20.9782 C   0  0  0  0  0  0
  -25.2599  -13.8127   20.5670 C   0  0  0  0  0  0
  -24.1844  -13.0415   20.9143 C   0  0  0  0  0  0
  -24.6375  -11.6879   20.8695 C   0  0  0  0  0  0
  -23.9017  -10.4278   21.0402 C   0  0  0  0  0  0
  -24.3577   -9.4206   21.9190 C   0  0  0  0  0  0
  -23.6250   -8.2238   22.0764 C   0  0  0  0  0  0
  -22.4241   -8.0269   21.3534 C   0  0  0  0  0  0
  -21.9855   -9.0242   20.4641 C   0  0  0  0  0  0
  -22.7175  -10.2118   20.3061 C   0  0  0  0  0  0
  -21.6855   -6.0717   22.5269 C   0  0  0  0  0  0
  -21.4000   -6.5621   23.8199 C   0  0  0  0  0  0
  -21.3655   -5.6783   24.9168 C   0  0  0  0  0  0
  -21.6058   -4.3051   24.7224 C   0  0  0  0  0  0
  -21.8822   -3.8115   23.4351 C   0  0  0  0  0  0
  -21.9194   -4.6933   22.3396 C   0  0  0  0  0  0
  -22.7876  -13.5251   21.1822 C   0  0  0  0  0  0
  -22.1669   -4.2114   21.0985 F   0  0  0  0  0  0
  -21.5612   -3.4540   25.7744 F   0  0  0  0  0  0
  -30.0294  -13.2953   20.4025 N   0  0  0  0  0  0
  -26.3025  -12.9270   20.3297 N   0  0  0  0  0  0
  -25.9303  -11.6436   20.5743 N   0  0  0  0  0  0
  -22.0464  -12.8273   22.0373 N   0  0  0  0  0  0
  -25.4363  -15.1840   20.4177 N   0  0  0  0  0  0
  -31.8829  -14.6135   20.2431 O   0  0  0  0  0  0
  -21.6627   -6.8857   21.4231 O   0  0  0  0  0  0
  -22.3588  -14.5577   20.6705 O   0  0  0  0  0  0
  -24.6138  -31.8692   23.2103 C   0  0  0  0  0  0
  -25.9036  -32.4816   23.8393 C   0  0  1  0  0  0
  -27.2334  -27.4321   20.0687 C   0  0  0  0  0  0
  -25.5893  -33.8613   24.2322 N   0  0  0  0  0  0
  -23.4007  -30.4935   21.5533 C   0  0  2  0  0  0
  -24.8432  -28.9613   20.1122 C   0  0  0  0  0  0
  -22.7406  -29.4656   22.4998 C   0  0  0  0  0  0
  -18.0269  -28.1389   22.8495 C   0  0  0  0  0  0
  -24.1499  -36.7329   23.2631 C   0  0  0  0  0  0
  -25.9306  -30.8267   21.3658 C   0  0  0  0  0  0
  -26.0038  -29.4600   20.7151 C   0  0  0  0  0  0
  -27.1939  -28.6965   20.7036 C   0  0  0  0  0  0
  -26.0438  -26.9488   19.4697 C   0  0  0  0  0  0
  -24.8573  -27.7025   19.4927 C   0  0  0  0  0  0
  -23.6085  -29.8312   20.1657 C   0  0  0  0  0  0
  -25.4104  -36.3113   24.0339 C   0  0  1  0  0  0
  -20.5858  -28.3666   23.1329 C   0  0  2  0  0  0
  -20.6766  -26.9404   22.5421 C   0  0  0  0  0  0
  -19.5744  -26.6394   21.5212 C   0  0  0  0  0  0
  -18.1924  -26.7929   22.1628 C   0  0  0  0  0  0
  -19.1522  -28.8835   23.2910 C   0  0  0  0  0  0
  -18.9449  -30.1444   23.8925 C   0  0  0  0  0  0
  -17.6458  -30.6588   24.0568 C   0  0  0  0  0  0
  -25.9036  -34.9481   23.5121 C   0  0  0  0  0  0
  -16.5351  -29.9100   23.6314 C   0  0  0  0  0  0
  -16.7263  -28.6513   23.0334 C   0  0  0  0  0  0
  -26.4449  -31.6572   25.0705 C   0  0  0  0  0  0
  -25.3718  -31.3712   26.1460 C   0  0  0  0  0  0
  -27.0215  -30.2999   24.6048 C   0  0  0  0  0  0
  -27.6064  -32.4253   25.7453 C   0  0  0  0  0  0
  -27.5585  -37.1811   24.8460 C   0  0  0  0  0  0
  -21.4130  -29.3026   22.3731 N   0  0  0  0  0  0
  -26.4289  -37.3796   23.9412 N   0  0  0  0  0  0
  -24.6669  -31.0785   22.1015 N   0  0  0  0  0  0
  -23.4174  -28.8193   23.3033 O   0  0  0  0  0  0
  -28.4206  -26.7181   20.0874 O   0  0  0  0  0  0
  -26.5615  -34.8927   22.4698 O   0  0  0  0  0  0
  -23.5323  -32.1456   23.7481 O   0  0  0  0  0  0
  -29.3085  -17.8530   20.6127 C   0  0  0  0  0  0
  -29.0700  -18.1730   22.8980 C   0  0  0  0  0  0
  -29.0040  -18.7758   21.6642 C   0  0  0  0  0  0
  -29.6235  -16.5851   21.0458 C   0  0  0  0  0  0
  -28.6138  -20.1853   21.5092 C   0  0  0  0  0  0
  -25.9943  -21.6268   19.1449 C   0  0  0  0  0  0
  -29.1106  -26.3954   17.8215 C   0  0  0  0  0  0
  -30.6988  -22.8729   20.9960 C   0  0  0  0  0  0
  -28.6397  -24.0285   21.7626 C   0  0  0  0  0  0
  -28.7930  -22.3655   18.2341 C   0  0  0  0  0  0
  -28.8680  -20.8121   20.1175 C   0  0  0  0  0  0
  -26.9478  -22.5209   19.9578 C   0  0  0  0  0  0
  -29.7577  -24.7045   19.6266 C   0  0  0  0  0  0
  -28.6684  -25.6890   19.1142 C   0  0  1  0  0  0
  -29.3473  -23.4559   20.5095 C   0  0  0  0  0  0
  -28.4887  -22.3093   19.7579 C   0  0  2  0  0  0
  -29.8773  -15.5231   20.2443 N   0  0  0  0  0  0
  -28.1333  -20.8499   22.4278 O   0  0  0  0  0  0
  -29.5699  -16.5044   22.7912 S   0  0  0  0  0  0
  -31.4714  -12.3861   19.1216 H   0  0  0  0  0  0
  -30.3209  -11.2854   19.8482 H   0  0  0  0  0  0
  -29.7386  -11.7228   17.4385 H   0  0  0  0  0  0
  -29.6714  -13.4371   17.7406 H   0  0  0  0  0  0
  -27.8320  -11.2837   18.8351 H   0  0  0  0  0  0
  -27.3771  -12.5887   17.7716 H   0  0  0  0  0  0
  -27.6743  -14.2372   19.5238 H   0  0  0  0  0  0
  -28.6746  -12.0116   21.3780 H   0  0  0  0  0  0
  -28.4926  -13.6974   21.8128 H   0  0  0  0  0  0
  -25.2719   -9.5680   22.4772 H   0  0  0  0  0  0
  -23.9922   -7.4640   22.7517 H   0  0  0  0  0  0
  -21.0746   -8.8773   19.8972 H   0  0  0  0  0  0
  -22.3621  -10.9661   19.6180 H   0  0  0  0  0  0
  -21.1978   -7.6127   23.9700 H   0  0  0  0  0  0
  -21.1496   -6.0511   25.9082 H   0  0  0  0  0  0
  -22.0605   -2.7567   23.2876 H   0  0  0  0  0  0
  -22.3999  -11.9955   22.4868 H   0  0  0  0  0  0
  -21.1132  -13.1430   22.2543 H   0  0  0  0  0  0
  -24.6862  -15.8509   20.5651 H   0  0  0  0  0  0
  -26.3252  -15.6197   20.2019 H   0  0  0  0  0  0
  -26.7102  -32.5530   23.1153 H   0  0  0  0  0  0
  -24.9981  -33.9783   25.0418 H   0  0  0  0  0  0
  -22.6872  -31.3095   21.4177 H   0  0  0  0  0  0
  -23.3747  -35.9677   23.3281 H   0  0  0  0  0  0
  -24.3610  -36.8944   22.2049 H   0  0  0  0  0  0
  -23.7253  -37.6535   23.6644 H   0  0  0  0  0  0
  -26.0411  -31.5872   20.5915 H   0  0  0  0  0  0
  -26.8224  -30.8861   21.9785 H   0  0  0  0  0  0
  -28.0872  -29.0763   21.1773 H   0  0  0  0  0  0
  -25.9836  -25.9921   18.9809 H   0  0  0  0  0  0
  -23.9646  -27.3109   19.0251 H   0  0  0  0  0  0
  -23.7199  -30.6119   19.4119 H   0  0  0  0  0  0
  -22.7297  -29.2570   19.8662 H   0  0  0  0  0  0
  -25.1264  -36.1985   25.0827 H   0  0  0  0  0  0
  -20.9935  -28.3246   24.1463 H   0  0  0  0  0  0
  -20.5678  -26.2275   23.3607 H   0  0  0  0  0  0
  -21.6644  -26.7474   22.1220 H   0  0  0  0  0  0
  -19.6917  -25.6310   21.1231 H   0  0  0  0  0  0
  -19.6683  -27.3219   20.6754 H   0  0  0  0  0  0
  -17.4187  -26.6660   21.4048 H   0  0  0  0  0  0
  -18.0352  -26.0078   22.9034 H   0  0  0  0  0  0
  -19.7921  -30.7248   24.2333 H   0  0  0  0  0  0
  -17.5008  -31.6271   24.5167 H   0  0  0  0  0  0
  -15.5356  -30.3013   23.7612 H   0  0  0  0  0  0
  -15.8661  -28.0848   22.7033 H   0  0  0  0  0  0
  -24.5894  -30.7041   25.7811 H   0  0  0  0  0  0
  -24.8905  -32.2881   26.4877 H   0  0  0  0  0  0
  -25.8068  -30.8907   27.0230 H   0  0  0  0  0  0
  -26.2727  -29.6823   24.1063 H   0  0  0  0  0  0
  -27.3925  -29.7159   25.4476 H   0  0  0  0  0  0
  -27.8606  -30.4275   23.9203 H   0  0  0  0  0  0
  -27.2728  -33.3551   26.2064 H   0  0  0  0  0  0
  -28.3858  -32.6788   25.0261 H   0  0  0  0  0  0
  -28.0730  -31.8332   26.5326 H   0  0  0  0  0  0
  -28.2600  -38.0111   24.7503 H   0  0  0  0  0  0
  -28.1086  -36.2646   24.6275 H   0  0  0  0  0  0
  -27.2325  -37.1444   25.8870 H   0  0  0  0  0  0
  -20.9276  -29.8763   21.6974 H   0  0  0  0  0  0
  -26.0182  -38.2880   24.1397 H   0  0  0  0  0  0
  -29.2741  -18.1412   19.5715 H   0  0  0  0  0  0
  -28.8542  -18.6193   23.8613 H   0  0  0  0  0  0
  -24.9609  -21.8932   19.3665 H   0  0  0  0  0  0
  -26.1065  -20.5683   19.3797 H   0  0  0  0  0  0
  -26.1259  -21.7566   18.0718 H   0  0  0  0  0  0
  -29.3456  -25.6766   17.0352 H   0  0  0  0  0  0
  -29.9968  -27.0086   17.9892 H   0  0  0  0  0  0
  -28.3231  -27.0458   17.4387 H   0  0  0  0  0  0
  -31.3311  -23.6385   21.4487 H   0  0  0  0  0  0
  -31.2714  -22.4392   20.1754 H   0  0  0  0  0  0
  -30.5761  -22.1068   21.7601 H   0  0  0  0  0  0
  -29.2632  -24.7703   22.2630 H   0  0  0  0  0  0
  -28.4069  -23.2702   22.5047 H   0  0  0  0  0  0
  -27.7084  -24.5368   21.5179 H   0  0  0  0  0  0
  -28.3618  -21.5249   17.6891 H   0  0  0  0  0  0
  -29.8646  -22.3202   18.0345 H   0  0  0  0  0  0
  -28.4041  -23.2627   17.7565 H   0  0  0  0  0  0
  -28.3316  -20.1652   19.4252 H   0  0  0  0  0  0
  -29.9186  -20.6412   19.8882 H   0  0  0  0  0  0
  -26.6871  -22.3994   21.0088 H   0  0  0  0  0  0
  -26.6745  -23.5457   19.7269 H   0  0  0  0  0  0
  -30.4756  -25.3117   20.1806 H   0  0  0  0  0  0
  -30.3464  -24.3616   18.7772 H   0  0  0  0  0  0
  -27.7907  -25.1051   18.8808 H   0  0  0  0  0  0
  -29.7492  -15.6861   19.2562 H   0  0  0  0  0  0
  1 25  1  0  0  0
  1 30  2  0  0  0
  1 87  1  0  0  0
  2  3  1  0  0  0
  2 25  1  0  0  0
  2 90  1  0  0  0
  2 91  1  0  0  0
  3  4  1  0  0  0
  3 92  1  0  0  0
  3 93  1  0  0  0
  4  5  1  0  0  0
  4 94  1  0  0  0
  4 95  1  0  0  0
  5  6  1  0  0  0
  5 26  1  0  0  0
  5 96  1  0  0  0
  6 25  1  0  0  0
  6 97  1  0  0  0
  6 98  1  0  0  0
  7  8  2  0  0  0
  7 26  1  0  0  0
  7 29  1  0  0  0
  8  9  1  0  0  0
  8 22  1  0  0  0
  9 10  1  0  0  0
  9 27  2  0  0  0
 10 11  2  0  0  0
 10 15  1  0  0  0
 11 12  1  0  0  0
 11 99  1  0  0  0
 12 13  2  0  0  0
 12100  1  0  0  0
 13 14  1  0  0  0
 13 31  1  0  0  0
 14 15  2  0  0  0
 14101  1  0  0  0
 15102  1  0  0  0
 16 17  2  0  0  0
 16 21  1  0  0  0
 16 31  1  0  0  0
 17 18  1  0  0  0
 17103  1  0  0  0
 18 19  2  0  0  0
 18104  1  0  0  0
 19 20  1  0  0  0
 19 24  1  0  0  0
 20 21  2  0  0  0
 20105  1  0  0  0
 21 23  1  0  0  0
 22 28  1  0  0  0
 22 32  2  0  0  0
 26 27  1  0  0  0
 28106  1  0  0  0
 28107  1  0  0  0
 29108  1  0  0  0
 29109  1  0  0  0
 33 34  1  0  0  0
 33 66  1  0  0  0
 33 70  2  0  0  0
 34 36  1  0  0  0
 34 59  1  0  0  0
 34110  1  0  0  0
 35 44  2  0  0  0
 35 45  1  0  0  0
 35 68  1  0  0  0
 36 56  1  0  0  0
 36111  1  0  0  0
 37 39  1  0  0  0
 37 47  1  0  0  0
 37 66  1  0  0  0
 37112  1  0  0  0
 38 43  2  0  0  0
 38 46  1  0  0  0
 38 47  1  0  0  0
 39 64  1  0  0  0
 39 67  2  0  0  0
 40 52  1  0  0  0
 40 53  2  0  0  0
 40 58  1  0  0  0
 41113  1  0  0  0
 41114  1  0  0  0
 41115  1  0  0  0
 41 48  1  0  0  0
 42 43  1  0  0  0
 42 66  1  0  0  0
 42116  1  0  0  0
 42117  1  0  0  0
 43 44  1  0  0  0
 44118  1  0  0  0
 45 46  2  0  0  0
 45119  1  0  0  0
 46120  1  0  0  0
 47121  1  0  0  0
 47122  1  0  0  0
 48 56  1  0  0  0
 48 65  1  0  0  0
 48123  1  0  0  0
 49 50  1  0  0  0
 49 53  1  0  0  0
 49 64  1  0  0  0
 49124  1  0  0  0
 50 51  1  0  0  0
 50125  1  0  0  0
 50126  1  0  0  0
 51 52  1  0  0  0
 51127  1  0  0  0
 51128  1  0  0  0
 52129  1  0  0  0
 52130  1  0  0  0
 53 54  1  0  0  0
 54 55  2  0  0  0
 54131  1  0  0  0
 55 57  1  0  0  0
 55132  1  0  0  0
 56 69  2  0  0  0
 57 58  2  0  0  0
 57133  1  0  0  0
 58134  1  0  0  0
 59 60  1  0  0  0
 59 61  1  0  0  0
 59 62  1  0  0  0
 60135  1  0  0  0
 60136  1  0  0  0
 60137  1  0  0  0
 61138  1  0  0  0
 61139  1  0  0  0
 61140  1  0  0  0
 62141  1  0  0  0
 62142  1  0  0  0
 62143  1  0  0  0
 63 65  1  0  0  0
 63144  1  0  0  0
 63145  1  0  0  0
 63146  1  0  0  0
 64147  1  0  0  0
 65148  1  0  0  0
 68 84  1  0  0  0
 71 73  1  0  0  0
 71 74  2  0  0  0
 71149  1  0  0  0
 72 73  2  0  0  0
 72 89  1  0  0  0
 72150  1  0  0  0
 73 75  1  0  0  0
 74 87  1  0  0  0
 74 89  1  0  0  0
 75 81  1  0  0  0
 75 88  2  0  0  0
 76 82  1  0  0  0
 76151  1  0  0  0
 76152  1  0  0  0
 76153  1  0  0  0
 77154  1  0  0  0
 77155  1  0  0  0
 77156  1  0  0  0
 77 84  1  0  0  0
 78157  1  0  0  0
 78158  1  0  0  0
 78159  1  0  0  0
 78 85  1  0  0  0
 79 85  1  0  0  0
 79160  1  0  0  0
 79161  1  0  0  0
 79162  1  0  0  0
 80163  1  0  0  0
 80164  1  0  0  0
 80165  1  0  0  0
 80 86  1  0  0  0
 81 86  1  0  0  0
 81166  1  0  0  0
 81167  1  0  0  0
 82 86  1  0  0  0
 82168  1  0  0  0
 82169  1  0  0  0
 83 84  1  0  0  0
 83 85  1  0  0  0
 83170  1  0  0  0
 83171  1  0  0  0
 84172  1  0  0  0
 85 86  1  0  0  0
 87173  1  0  0  0
M  ISO  4   1 100  68 101  84 101  87 100
M  END
> <chiral flag>
0

> <version>
0

> <s_m_source_file>
/data/baiqing/PycharmProjects/Reinvent-master-3.2/result/LINK_invent/BTK/process_docking_weight1_custom_product_contain_oxygen_bond_distance_aromatic_linkinvent_7_9_3/rearranged_h_0145.sdf

> <i_m_source_file_index>
32

> <r_mmod_Potential_Energy-OPLS-2005>
96.2803726196289

> <r_mmod_Stretch_Energy-OPLS-2005>
52.6670989990234

> <r_mmod_Bend_Energy-OPLS-2005>
154.728515625

> <r_mmod_Torsional_Energy-OPLS-2005>
312.068603515625

> <r_mmod_Improper_Torsional_Energy-OPLS-2005>
22.3135166168213

> <r_mmod_Van_der_Waal_Energy-OPLS-2005>
147.586578369141

> <r_mmod_Electrostatic_Energy-OPLS-2005>
-415.839080810547

> <r_mmod_Solvation_Energy-OPLS-2005>
-198.828689575195

> <b_mmod_Minimization_Converged-OPLS-2005>
0

> <r_mmod_RMS_Derivative-OPLS-2005>
3.43987083435059

$$$$
32
                    3D
 Structure written by MMmdl.
169178  0  0  1  0            999 V2000
  -30.7208  -14.3824   20.6826 C   0  0  0  0  0  0
  -30.4329  -12.2960   19.3865 C   0  0  0  0  0  0
  -29.4892  -12.5226   18.1876 C   0  0  0  0  0  0
  -28.0111  -12.3801   18.6026 C   0  0  0  0  0  0
  -27.6697  -13.1920   19.8793 C   0  0  2  0  0  0
  -28.7051  -12.8974   20.9850 C   0  0  0  0  0  0
  -25.2637  -13.8128   20.5668 C   0  0  0  0  0  0
  -24.1860  -13.0435   20.9155 C   0  0  0  0  0  0
  -24.6385  -11.6891   20.8704 C   0  0  0  0  0  0
  -23.9040  -10.4291   21.0387 C   0  0  0  0  0  0
  -24.3591   -9.4212   21.9172 C   0  0  0  0  0  0
  -23.6275   -8.2249   22.0746 C   0  0  0  0  0  0
  -22.4257   -8.0280   21.3546 C   0  0  0  0  0  0
  -21.9886   -9.0254   20.4651 C   0  0  0  0  0  0
  -22.7209  -10.2133   20.3054 C   0  0  0  0  0  0
  -21.6858   -6.0732   22.5274 C   0  0  0  0  0  0
  -21.4016   -6.5626   23.8206 C   0  0  0  0  0  0
  -21.3656   -5.6782   24.9166 C   0  0  0  0  0  0
  -21.6038   -4.3043   24.7221 C   0  0  0  0  0  0
  -21.8818   -3.8141   23.4340 C   0  0  0  0  0  0
  -21.9196   -4.6961   22.3401 C   0  0  0  0  0  0
  -22.7888  -13.5264   21.1818 C   0  0  0  0  0  0
  -22.1668   -4.2146   21.0979 F   0  0  0  0  0  0
  -21.5627   -3.4530   25.7737 F   0  0  0  0  0  0
  -30.0493  -13.2218   20.4612 N   0  0  0  0  0  0
  -26.3056  -12.9270   20.3354 N   0  0  0  0  0  0
  -25.9298  -11.6439   20.5705 N   0  0  0  0  0  0
  -22.0514  -12.8280   22.0384 N   0  0  0  0  0  0
  -25.4401  -15.1841   20.4100 N   0  0  0  0  0  0
  -31.7581  -14.6957   20.0867 O   0  0  0  0  0  0
  -21.6633   -6.8875   21.4238 O   0  0  0  0  0  0
  -22.3593  -14.5581   20.6676 O   0  0  0  0  0  0
  -24.6127  -31.8690   23.2110 C   0  0  0  0  0  0
  -25.9025  -32.4825   23.8401 C   0  0  1  0  0  0
  -27.2381  -27.4554   20.0891 C   0  0  0  0  0  0
  -25.5875  -33.8618   24.2325 N   0  0  0  0  0  0
  -23.3994  -30.4928   21.5526 C   0  0  2  0  0  0
  -24.8451  -28.9618   20.1157 C   0  0  0  0  0  0
  -22.7402  -29.4663   22.5010 C   0  0  0  0  0  0
  -18.0274  -28.1380   22.8501 C   0  0  0  0  0  0
  -24.1480  -36.7326   23.2642 C   0  0  0  0  0  0
  -25.9271  -30.8426   21.3592 C   0  0  0  0  0  0
  -26.0057  -29.4794   20.7052 C   0  0  0  0  0  0
  -27.2061  -28.7356   20.6842 C   0  0  0  0  0  0
  -26.0581  -26.9474   19.4977 C   0  0  0  0  0  0
  -24.8664  -27.6948   19.5091 C   0  0  0  0  0  0
  -23.6052  -29.8252   20.1670 C   0  0  0  0  0  0
  -25.4096  -36.3110   24.0341 C   0  0  1  0  0  0
  -20.5863  -28.3655   23.1340 C   0  0  2  0  0  0
  -20.6758  -26.9393   22.5440 C   0  0  0  0  0  0
  -19.5737  -26.6392   21.5226 C   0  0  0  0  0  0
  -18.1913  -26.7933   22.1626 C   0  0  0  0  0  0
  -19.1523  -28.8839   23.2921 C   0  0  0  0  0  0
  -18.9447  -30.1442   23.8921 C   0  0  0  0  0  0
  -17.6445  -30.6583   24.0581 C   0  0  0  0  0  0
  -25.9028  -34.9477   23.5133 C   0  0  0  0  0  0
  -16.5339  -29.9082   23.6333 C   0  0  0  0  0  0
  -16.7260  -28.6510   23.0347 C   0  0  0  0  0  0
  -26.4470  -31.6603   25.0721 C   0  0  0  0  0  0
  -25.3755  -31.3727   26.1496 C   0  0  0  0  0  0
  -27.0284  -30.3036   24.6098 C   0  0  0  0  0  0
  -27.6074  -32.4323   25.7444 C   0  0  0  0  0  0
  -27.5582  -37.1802   24.8459 C   0  0  0  0  0  0
  -21.4132  -29.3016   22.3741 N   0  0  0  0  0  0
  -26.4284  -37.3793   23.9416 N   0  0  0  0  0  0
  -24.6652  -31.0815   22.0995 N   0  0  0  0  0  0
  -23.4186  -28.8211   23.3054 O   0  0  0  0  0  0
  -28.4176  -26.7419   20.0968 O   0  0  0  0  0  0
  -26.5602  -34.8931   22.4702 O   0  0  0  0  0  0
  -23.5323  -32.1426   23.7513 O   0  0  0  0  0  0
  -31.2482  -17.4603   21.4050 C   0  0  0  0  0  0
  -29.2934  -17.2499   22.5072 C   0  0  0  0  0  0
  -30.2402  -16.5456   21.8254 C   0  0  0  0  0  0
  -30.8199  -18.6886   21.8429 C   0  0  0  0  0  0
  -31.3495  -20.0348   21.8133 C   0  0  0  0  0  0
  -28.8492  -22.2857   20.2525 C   0  0  0  0  0  0
  -29.3079  -20.8929   20.6999 C   0  0  0  0  0  0
  -29.5709  -23.2458   21.2119 C   0  0  2  0  0  0
  -30.9670  -22.5332   21.3587 C   0  0  0  0  0  0
  -28.8030  -23.2611   22.5672 C   0  0  0  0  0  0
  -31.6922  -22.9827   22.6521 C   0  0  0  0  0  0
  -31.9087  -22.7717   20.1528 C   0  0  0  0  0  0
  -29.6443  -24.7068   20.6625 C   0  0  0  0  0  0
  -28.2958  -25.3245   20.2357 C   0  0  0  0  0  0
  -30.5966  -21.0913   21.3905 N   0  0  0  0  0  0
  -30.1592  -15.1450   21.6322 N   0  0  0  0  0  0
  -32.6191  -20.1826   22.2232 N   0  3  0  0  0  0
  -29.6350  -18.5648   22.5169 O   0  0  0  0  0  0
  -31.4719  -12.4272   19.0772 H   0  0  0  0  0  0
  -30.3587  -11.2677   19.7418 H   0  0  0  0  0  0
  -29.7201  -11.8139   17.3911 H   0  0  0  0  0  0
  -29.6590  -13.5156   17.7675 H   0  0  0  0  0  0
  -27.8105  -11.3215   18.7737 H   0  0  0  0  0  0
  -27.3602  -12.6810   17.7807 H   0  0  0  0  0  0
  -27.7378  -14.2490   19.6217 H   0  0  0  0  0  0
  -28.6719  -11.8392   21.2485 H   0  0  0  0  0  0
  -28.4386  -13.4189   21.9042 H   0  0  0  0  0  0
  -25.2731   -9.5691   22.4751 H   0  0  0  0  0  0
  -23.9985   -7.4637   22.7460 H   0  0  0  0  0  0
  -21.0817   -8.8760   19.8967 H   0  0  0  0  0  0
  -22.3647  -10.9667   19.6167 H   0  0  0  0  0  0
  -21.2004   -7.6135   23.9703 H   0  0  0  0  0  0
  -21.1481   -6.0515   25.9068 H   0  0  0  0  0  0
  -22.0604   -2.7604   23.2838 H   0  0  0  0  0  0
  -22.4106  -11.9944   22.4793 H   0  0  0  0  0  0
  -21.1141  -13.1334   22.2576 H   0  0  0  0  0  0
  -24.6784  -15.8445   20.5223 H   0  0  0  0  0  0
  -26.2985  -15.6185   20.0942 H   0  0  0  0  0  0
  -26.7101  -32.5551   23.1176 H   0  0  0  0  0  0
  -24.9987  -33.9778   25.0443 H   0  0  0  0  0  0
  -22.6874  -31.3092   21.4150 H   0  0  0  0  0  0
  -23.3730  -35.9675   23.3305 H   0  0  0  0  0  0
  -24.3579  -36.8943   22.2060 H   0  0  0  0  0  0
  -23.7246  -37.6533   23.6662 H   0  0  0  0  0  0
  -26.0365  -31.6111   20.5928 H   0  0  0  0  0  0
  -26.8149  -30.8958   21.9774 H   0  0  0  0  0  0
  -28.1050  -29.1337   21.1334 H   0  0  0  0  0  0
  -26.0477  -25.9806   19.0160 H   0  0  0  0  0  0
  -23.9749  -27.2902   19.0499 H   0  0  0  0  0  0
  -23.7082  -30.5993   19.4055 H   0  0  0  0  0  0
  -22.7293  -29.2417   19.8757 H   0  0  0  0  0  0
  -25.1268  -36.1979   25.0834 H   0  0  0  0  0  0
  -20.9963  -28.3222   24.1456 H   0  0  0  0  0  0
  -20.5661  -26.2255   23.3624 H   0  0  0  0  0  0
  -21.6629  -26.7438   22.1236 H   0  0  0  0  0  0
  -19.6895  -25.6311   21.1235 H   0  0  0  0  0  0
  -19.6677  -27.3223   20.6771 H   0  0  0  0  0  0
  -17.4192  -26.6710   21.4012 H   0  0  0  0  0  0
  -18.0284  -26.0064   22.9005 H   0  0  0  0  0  0
  -19.7917  -30.7266   24.2295 H   0  0  0  0  0  0
  -17.4993  -31.6258   24.5185 H   0  0  0  0  0  0
  -15.5335  -30.2987   23.7638 H   0  0  0  0  0  0
  -15.8667  -28.0833   22.7034 H   0  0  0  0  0  0
  -24.5889  -30.7113   25.7852 H   0  0  0  0  0  0
  -24.8991  -32.2889   26.4994 H   0  0  0  0  0  0
  -25.8116  -30.8859   27.0226 H   0  0  0  0  0  0
  -26.2797  -29.6781   24.1218 H   0  0  0  0  0  0
  -27.4109  -29.7305   25.4555 H   0  0  0  0  0  0
  -27.8623  -30.4339   23.9194 H   0  0  0  0  0  0
  -27.2722  -33.3619   26.2062 H   0  0  0  0  0  0
  -28.3838  -32.6891   25.0222 H   0  0  0  0  0  0
  -28.0801  -31.8426   26.5309 H   0  0  0  0  0  0
  -28.2611  -38.0087   24.7496 H   0  0  0  0  0  0
  -28.1059  -36.2619   24.6275 H   0  0  0  0  0  0
  -27.2318  -37.1476   25.8868 H   0  0  0  0  0  0
  -20.9292  -29.8722   21.6952 H   0  0  0  0  0  0
  -26.0174  -38.2873   24.1407 H   0  0  0  0  0  0
  -32.1577  -17.2625   20.8561 H   0  0  0  0  0  0
  -28.3692  -17.0007   23.0117 H   0  0  0  0  0  0
  -27.7647  -22.3860   20.3038 H   0  0  0  0  0  0
  -29.1354  -22.4575   19.2147 H   0  0  0  0  0  0
  -29.4116  -20.2136   19.8542 H   0  0  0  0  0  0
  -28.5827  -20.4696   21.3941 H   0  0  0  0  0  0
  -28.8380  -22.3005   23.0812 H   0  0  0  0  0  0
  -27.7471  -23.4983   22.4447 H   0  0  0  0  0  0
  -29.2114  -24.0011   23.2561 H   0  0  0  0  0  0
  -31.5346  -24.0437   22.8479 H   0  0  0  0  0  0
  -32.7714  -22.8446   22.5943 H   0  0  0  0  0  0
  -31.3355  -22.4375   23.5272 H   0  0  0  0  0  0
  -32.3053  -23.7868   20.1462 H   0  0  0  0  0  0
  -31.4197  -22.5999   19.1949 H   0  0  0  0  0  0
  -32.7705  -22.1047   20.1833 H   0  0  0  0  0  0
  -30.2975  -24.7666   19.7938 H   0  0  0  0  0  0
  -30.1037  -25.3432   21.4190 H   0  0  0  0  0  0
  -27.5251  -25.1086   20.9751 H   0  0  0  0  0  0
  -27.9781  -24.8778   19.2921 H   0  0  0  0  0  0
  -29.3866  -14.6894   22.0941 H   0  0  0  0  0  0
  -33.1319  -19.3798   22.5566 H   0  0  0  0  0  0
  -33.0675  -21.0831   22.2600 H   0  0  0  0  0  0
  1 25  1  0  0  0
  1 30  2  0  0  0
  1 86  1  0  0  0
  2  3  1  0  0  0
  2 25  1  0  0  0
  2 89  1  0  0  0
  2 90  1  0  0  0
  3  4  1  0  0  0
  3 91  1  0  0  0
  3 92  1  0  0  0
  4  5  1  0  0  0
  4 93  1  0  0  0
  4 94  1  0  0  0
  5  6  1  0  0  0
  5 26  1  0  0  0
  5 95  1  0  0  0
  6 25  1  0  0  0
  6 96  1  0  0  0
  6 97  1  0  0  0
  7  8  2  0  0  0
  7 26  1  0  0  0
  7 29  1  0  0  0
  8  9  1  0  0  0
  8 22  1  0  0  0
  9 10  1  0  0  0
  9 27  2  0  0  0
 10 11  2  0  0  0
 10 15  1  0  0  0
 11 12  1  0  0  0
 11 98  1  0  0  0
 12 13  2  0  0  0
 12 99  1  0  0  0
 13 14  1  0  0  0
 13 31  1  0  0  0
 14 15  2  0  0  0
 14100  1  0  0  0
 15101  1  0  0  0
 16 17  2  0  0  0
 16 21  1  0  0  0
 16 31  1  0  0  0
 17 18  1  0  0  0
 17102  1  0  0  0
 18 19  2  0  0  0
 18103  1  0  0  0
 19 20  1  0  0  0
 19 24  1  0  0  0
 20 21  2  0  0  0
 20104  1  0  0  0
 21 23  1  0  0  0
 22 28  1  0  0  0
 22 32  2  0  0  0
 26 27  1  0  0  0
 28105  1  0  0  0
 28106  1  0  0  0
 29107  1  0  0  0
 29108  1  0  0  0
 33 34  1  0  0  0
 33 66  1  0  0  0
 33 70  2  0  0  0
 34 36  1  0  0  0
 34 59  1  0  0  0
 34109  1  0  0  0
 35 44  2  0  0  0
 35 45  1  0  0  0
 35 68  1  0  0  0
 36 56  1  0  0  0
 36110  1  0  0  0
 37 39  1  0  0  0
 37 47  1  0  0  0
 37 66  1  0  0  0
 37111  1  0  0  0
 38 43  2  0  0  0
 38 46  1  0  0  0
 38 47  1  0  0  0
 39 64  1  0  0  0
 39 67  2  0  0  0
 40 52  1  0  0  0
 40 53  2  0  0  0
 40 58  1  0  0  0
 41112  1  0  0  0
 41113  1  0  0  0
 41114  1  0  0  0
 41 48  1  0  0  0
 42 43  1  0  0  0
 42 66  1  0  0  0
 42115  1  0  0  0
 42116  1  0  0  0
 43 44  1  0  0  0
 44117  1  0  0  0
 45 46  2  0  0  0
 45118  1  0  0  0
 46119  1  0  0  0
 47120  1  0  0  0
 47121  1  0  0  0
 48 56  1  0  0  0
 48 65  1  0  0  0
 48122  1  0  0  0
 49 50  1  0  0  0
 49 53  1  0  0  0
 49 64  1  0  0  0
 49123  1  0  0  0
 50 51  1  0  0  0
 50124  1  0  0  0
 50125  1  0  0  0
 51 52  1  0  0  0
 51126  1  0  0  0
 51127  1  0  0  0
 52128  1  0  0  0
 52129  1  0  0  0
 53 54  1  0  0  0
 54 55  2  0  0  0
 54130  1  0  0  0
 55 57  1  0  0  0
 55131  1  0  0  0
 56 69  2  0  0  0
 57 58  2  0  0  0
 57132  1  0  0  0
 58133  1  0  0  0
 59 60  1  0  0  0
 59 61  1  0  0  0
 59 62  1  0  0  0
 60134  1  0  0  0
 60135  1  0  0  0
 60136  1  0  0  0
 61137  1  0  0  0
 61138  1  0  0  0
 61139  1  0  0  0
 62140  1  0  0  0
 62141  1  0  0  0
 62142  1  0  0  0
 63 65  1  0  0  0
 63143  1  0  0  0
 63144  1  0  0  0
 63145  1  0  0  0
 64146  1  0  0  0
 65147  1  0  0  0
 68 84  1  0  0  0
 71 73  1  0  0  0
 71 74  2  0  0  0
 71148  1  0  0  0
 72 73  2  0  0  0
 72 88  1  0  0  0
 72149  1  0  0  0
 73 86  1  0  0  0
 74 75  1  0  0  0
 74 88  1  0  0  0
 75 85  1  0  0  0
 75 87  2  0  0  0
 76 77  1  0  0  0
 76 78  1  0  0  0
 76150  1  0  0  0
 76151  1  0  0  0
 77 85  1  0  0  0
 77152  1  0  0  0
 77153  1  0  0  0
 78 79  1  0  0  0
 78 80  1  0  0  0
 78 83  1  0  0  0
 79 81  1  0  0  0
 79 82  1  0  0  0
 79 85  1  0  0  0
 80154  1  0  0  0
 80155  1  0  0  0
 80156  1  0  0  0
 81157  1  0  0  0
 81158  1  0  0  0
 81159  1  0  0  0
 82160  1  0  0  0
 82161  1  0  0  0
 82162  1  0  0  0
 83 84  1  0  0  0
 83163  1  0  0  0
 83164  1  0  0  0
 84165  1  0  0  0
 84166  1  0  0  0
 86167  1  0  0  0
 87168  1  0  0  0
 87169  1  0  0  0
M  CHG  1  87   1
M  ISO  4   1 100  68 101  84 101  86 100
M  END
> <chiral flag>
0

> <version>
0

> <s_m_source_file>
/data/baiqing/PycharmProjects/Reinvent-master-3.2/result/LINK_invent/BTK/process_docking_weight1_custom_product_contain_oxygen_bond_distance_aromatic_linkinvent_7_9_3/rearranged_h_0145.sdf

> <i_m_source_file_index>
33

> <r_mmod_Potential_Energy-OPLS-2005>
12.6252689361572

> <r_mmod_Stretch_Energy-OPLS-2005>
38.7194900512695

> <r_mmod_Bend_Energy-OPLS-2005>
148.036743164062

> <r_mmod_Torsional_Energy-OPLS-2005>
321.513427734375

> <r_mmod_Improper_Torsional_Energy-OPLS-2005>
3.08534646034241

> <r_mmod_Van_der_Waal_Energy-OPLS-2005>
151.457214355469

> <r_mmod_Electrostatic_Energy-OPLS-2005>
-243.32275390625

> <r_mmod_Solvation_Energy-OPLS-2005>
-415.332244873047

> <b_mmod_Minimization_Converged-OPLS-2005>
0

> <r_mmod_RMS_Derivative-OPLS-2005>
1.61191380023956

$$$$
33
                    3D
 Structure written by MMmdl.
151160  0  0  1  0            999 V2000
  -30.5554  -14.8456   20.4579 C   0  0  0  0  0  0
  -30.4447  -12.5164   19.4954 C   0  0  0  0  0  0
  -29.5231  -12.5339   18.2529 C   0  0  0  0  0  0
  -28.0493  -12.3402   18.6593 C   0  0  0  0  0  0
  -27.6432  -13.2399   19.8561 C   0  0  2  0  0  0
  -28.6854  -13.1889   20.9959 C   0  0  0  0  0  0
  -25.2519  -13.8216   20.5708 C   0  0  0  0  0  0
  -24.1810  -13.0451   20.9199 C   0  0  0  0  0  0
  -24.6407  -11.6929   20.8737 C   0  0  0  0  0  0
  -23.9081  -10.4302   21.0402 C   0  0  0  0  0  0
  -24.3628   -9.4214   21.9180 C   0  0  0  0  0  0
  -23.6298   -8.2250   22.0751 C   0  0  0  0  0  0
  -22.4280   -8.0288   21.3542 C   0  0  0  0  0  0
  -21.9919   -9.0263   20.4645 C   0  0  0  0  0  0
  -22.7248  -10.2146   20.3056 C   0  0  0  0  0  0
  -21.6860   -6.0738   22.5275 C   0  0  0  0  0  0
  -21.4015   -6.5638   23.8208 C   0  0  0  0  0  0
  -21.3661   -5.6792   24.9170 C   0  0  0  0  0  0
  -21.6047   -4.3054   24.7222 C   0  0  0  0  0  0
  -21.8817   -3.8145   23.4342 C   0  0  0  0  0  0
  -21.9192   -4.6963   22.3399 C   0  0  0  0  0  0
  -22.7830  -13.5229   21.1864 C   0  0  0  0  0  0
  -22.1664   -4.2149   21.0977 F   0  0  0  0  0  0
  -21.5628   -3.4535   25.7734 F   0  0  0  0  0  0
  -29.9830  -13.5813   20.4258 N   0  0  0  0  0  0
  -26.2949  -12.9430   20.3294 N   0  0  0  0  0  0
  -25.9342  -11.6563   20.5742 N   0  0  0  0  0  0
  -22.0477  -12.8217   22.0421 N   0  0  0  0  0  0
  -25.4226  -15.1946   20.4162 N   0  0  0  0  0  0
  -31.7196  -14.9779   20.0619 O   0  0  0  0  0  0
  -21.6645   -6.8884   21.4240 O   0  0  0  0  0  0
  -22.3509  -14.5531   20.6709 O   0  0  0  0  0  0
  -24.6386  -31.8489   23.1945 C   0  0  0  0  0  0
  -25.9184  -32.4718   23.8313 C   0  0  1  0  0  0
  -27.2137  -27.1787   20.1450 C   0  0  0  0  0  0
  -25.5952  -33.8527   24.2224 N   0  0  0  0  0  0
  -23.4403  -30.4712   21.5380 C   0  0  2  0  0  0
  -24.8908  -28.9109   20.1074 C   0  0  0  0  0  0
  -22.7546  -29.4565   22.4862 C   0  0  0  0  0  0
  -18.0304  -28.1394   22.8470 C   0  0  0  0  0  0
  -24.1494  -36.7274   23.2638 C   0  0  0  0  0  0
  -25.9941  -30.7324   21.3931 C   0  0  0  0  0  0
  -26.0640  -29.3478   20.7366 C   0  0  0  0  0  0
  -27.2245  -28.4926   20.7512 C   0  0  0  0  0  0
  -26.0271  -26.8544   19.4461 C   0  0  0  0  0  0
  -24.8819  -27.6739   19.4494 C   0  0  0  0  0  0
  -23.6658  -29.8080   20.1539 C   0  0  0  0  0  0
  -25.4122  -36.3048   24.0313 C   0  0  1  0  0  0
  -20.5915  -28.3716   23.1237 C   0  0  2  0  0  0
  -20.6791  -26.9420   22.5398 C   0  0  0  0  0  0
  -19.5764  -26.6371   21.5209 C   0  0  0  0  0  0
  -18.1947  -26.7926   22.1622 C   0  0  0  0  0  0
  -19.1561  -28.8871   23.2847 C   0  0  0  0  0  0
  -18.9477  -30.1470   23.8869 C   0  0  0  0  0  0
  -17.6474  -30.6587   24.0556 C   0  0  0  0  0  0
  -25.9068  -34.9418   23.5071 C   0  0  0  0  0  0
  -16.5365  -29.9082   23.6330 C   0  0  0  0  0  0
  -16.7289  -28.6505   23.0341 C   0  0  0  0  0  0
  -26.4513  -31.6572   25.0740 C   0  0  0  0  0  0
  -25.3713  -31.3773   26.1450 C   0  0  0  0  0  0
  -27.0367  -30.2964   24.6315 C   0  0  0  0  0  0
  -27.6049  -32.4332   25.7520 C   0  0  0  0  0  0
  -27.5578  -37.1794   24.8459 C   0  0  0  0  0  0
  -21.4242  -29.3051   22.3612 N   0  0  0  0  0  0
  -26.4289  -37.3754   23.9401 N   0  0  0  0  0  0
  -24.7102  -31.0378   22.0969 N   0  0  0  0  0  0
  -23.4206  -28.8100   23.2988 O   0  0  0  0  0  0
  -28.2574  -26.1944   20.2127 O   0  0  0  0  0  0
  -26.5643  -34.8900   22.4644 O   0  0  0  0  0  0
  -23.5513  -32.1356   23.7182 O   0  0  0  0  0  0
  -30.0764  -18.5185   20.8536 C   0  0  0  0  0  0
  -28.2613  -18.9293   19.6418 C   0  0  0  0  0  0
  -29.2276  -19.6137   20.3344 C   0  0  0  0  0  0
  -29.5680  -17.2690   20.4270 C   0  0  0  0  0  0
  -28.6917  -23.5848   20.2959 C   0  0  0  0  0  0
  -27.9362  -24.7741   20.2624 C   0  0  0  0  0  0
  -30.1983  -23.3903   20.3578 C   0  0  0  0  0  0
  -28.1637  -22.0915   20.2720 C   0  0  0  0  0  0
  -30.4899  -21.8738   20.6926 C   0  0  0  0  0  0
  -29.2714  -21.0851   20.4763 N   0  0  0  0  0  0
  -29.7775  -15.9343   20.8789 N   0  0  0  0  0  0
  -28.4374  -17.5540   19.7038 O   0  0  0  0  0  0
  -31.4829  -12.6612   19.1930 H   0  0  0  0  0  0
  -30.4122  -11.5417   19.9854 H   0  0  0  0  0  0
  -29.8217  -11.7580   17.5466 H   0  0  0  0  0  0
  -29.6353  -13.4841   17.7283 H   0  0  0  0  0  0
  -27.9142  -11.2908   18.9232 H   0  0  0  0  0  0
  -27.3952  -12.5267   17.8069 H   0  0  0  0  0  0
  -27.6309  -14.2602   19.4714 H   0  0  0  0  0  0
  -28.7404  -12.1877   21.4255 H   0  0  0  0  0  0
  -28.3968  -13.8512   21.8130 H   0  0  0  0  0  0
  -25.2776   -9.5685   22.4752 H   0  0  0  0  0  0
  -24.0004   -7.4644   22.7474 H   0  0  0  0  0  0
  -21.0842   -8.8785   19.8959 H   0  0  0  0  0  0
  -22.3700  -10.9684   19.6166 H   0  0  0  0  0  0
  -21.2012   -7.6150   23.9713 H   0  0  0  0  0  0
  -21.1486   -6.0522   25.9074 H   0  0  0  0  0  0
  -22.0597   -2.7606   23.2843 H   0  0  0  0  0  0
  -22.4098  -11.9878   22.4805 H   0  0  0  0  0  0
  -21.1099  -13.1247   22.2642 H   0  0  0  0  0  0
  -24.6573  -15.8496   20.5320 H   0  0  0  0  0  0
  -26.2721  -15.6356   20.0864 H   0  0  0  0  0  0
  -26.7248  -32.5337   23.1041 H   0  0  0  0  0  0
  -25.0086  -33.9657   25.0360 H   0  0  0  0  0  0
  -22.7403  -31.2960   21.3888 H   0  0  0  0  0  0
  -23.3751  -35.9611   23.3289 H   0  0  0  0  0  0
  -24.3581  -36.8915   22.2054 H   0  0  0  0  0  0
  -23.7247  -37.6467   23.6681 H   0  0  0  0  0  0
  -26.1481  -31.4879   20.6215 H   0  0  0  0  0  0
  -26.8655  -30.7796   22.0342 H   0  0  0  0  0  0
  -28.1138  -28.8151   21.2745 H   0  0  0  0  0  0
  -25.9526  -25.9243   18.9029 H   0  0  0  0  0  0
  -23.9921  -27.3413   18.9326 H   0  0  0  0  0  0
  -23.8012  -30.5869   19.4026 H   0  0  0  0  0  0
  -22.7812  -29.2507   19.8402 H   0  0  0  0  0  0
  -25.1305  -36.1885   25.0804 H   0  0  0  0  0  0
  -21.0004  -28.3305   24.1360 H   0  0  0  0  0  0
  -20.5690  -26.2329   23.3616 H   0  0  0  0  0  0
  -21.6658  -26.7432   22.1199 H   0  0  0  0  0  0
  -19.6929  -25.6275   21.1255 H   0  0  0  0  0  0
  -19.6696  -27.3164   20.6725 H   0  0  0  0  0  0
  -17.4208  -26.6654   21.4036 H   0  0  0  0  0  0
  -18.0360  -26.0082   22.9038 H   0  0  0  0  0  0
  -19.7955  -30.7296   24.2220 H   0  0  0  0  0  0
  -17.5027  -31.6263   24.5167 H   0  0  0  0  0  0
  -15.5366  -30.2975   23.7670 H   0  0  0  0  0  0
  -15.8692  -28.0823   22.7055 H   0  0  0  0  0  0
  -24.5852  -30.7166   25.7775 H   0  0  0  0  0  0
  -24.8958  -32.2972   26.4868 H   0  0  0  0  0  0
  -25.8001  -30.8932   27.0234 H   0  0  0  0  0  0
  -26.2984  -29.6692   24.1306 H   0  0  0  0  0  0
  -27.3950  -29.7256   25.4891 H   0  0  0  0  0  0
  -27.8905  -30.4186   23.9648 H   0  0  0  0  0  0
  -27.2637  -33.3632   26.2079 H   0  0  0  0  0  0
  -28.3873  -32.6895   25.0365 H   0  0  0  0  0  0
  -28.0705  -31.8476   26.5455 H   0  0  0  0  0  0
  -28.2584  -38.0102   24.7503 H   0  0  0  0  0  0
  -28.1081  -36.2627   24.6285 H   0  0  0  0  0  0
  -27.2296  -37.1441   25.8862 H   0  0  0  0  0  0
  -20.9440  -29.8786   21.6820 H   0  0  0  0  0  0
  -26.0156  -38.2822   24.1404 H   0  0  0  0  0  0
  -30.9273  -18.6339   21.5094 H   0  0  0  0  0  0
  -27.3919  -19.2414   19.0801 H   0  0  0  0  0  0
  -26.8671  -24.6302   20.2770 H   0  0  0  0  0  0
  -30.6554  -24.0661   21.0814 H   0  0  0  0  0  0
  -30.6093  -23.6357   19.3777 H   0  0  0  0  0  0
  -27.6822  -21.9074   19.3105 H   0  0  0  0  0  0
  -27.4009  -21.9660   21.0419 H   0  0  0  0  0  0
  -30.7839  -21.7759   21.7387 H   0  0  0  0  0  0
  -31.3155  -21.4915   20.0901 H   0  0  0  0  0  0
  -28.9368  -15.5630   21.2940 H   0  0  0  0  0  0
  1 25  1  0  0  0
  1 30  2  0  0  0
  1 81  1  0  0  0
  2  3  1  0  0  0
  2 25  1  0  0  0
  2 83  1  0  0  0
  2 84  1  0  0  0
  3  4  1  0  0  0
  3 85  1  0  0  0
  3 86  1  0  0  0
  4  5  1  0  0  0
  4 87  1  0  0  0
  4 88  1  0  0  0
  5  6  1  0  0  0
  5 26  1  0  0  0
  5 89  1  0  0  0
  6 25  1  0  0  0
  6 90  1  0  0  0
  6 91  1  0  0  0
  7  8  2  0  0  0
  7 26  1  0  0  0
  7 29  1  0  0  0
  8  9  1  0  0  0
  8 22  1  0  0  0
  9 10  1  0  0  0
  9 27  2  0  0  0
 10 11  2  0  0  0
 10 15  1  0  0  0
 11 12  1  0  0  0
 11 92  1  0  0  0
 12 13  2  0  0  0
 12 93  1  0  0  0
 13 14  1  0  0  0
 13 31  1  0  0  0
 14 15  2  0  0  0
 14 94  1  0  0  0
 15 95  1  0  0  0
 16 17  2  0  0  0
 16 21  1  0  0  0
 16 31  1  0  0  0
 17 18  1  0  0  0
 17 96  1  0  0  0
 18 19  2  0  0  0
 18 97  1  0  0  0
 19 20  1  0  0  0
 19 24  1  0  0  0
 20 21  2  0  0  0
 20 98  1  0  0  0
 21 23  1  0  0  0
 22 28  1  0  0  0
 22 32  2  0  0  0
 26 27  1  0  0  0
 28 99  1  0  0  0
 28100  1  0  0  0
 29101  1  0  0  0
 29102  1  0  0  0
 33 34  1  0  0  0
 33 66  1  0  0  0
 33 70  2  0  0  0
 34 36  1  0  0  0
 34 59  1  0  0  0
 34103  1  0  0  0
 35 44  2  0  0  0
 35 45  1  0  0  0
 35 68  1  0  0  0
 36 56  1  0  0  0
 36104  1  0  0  0
 37 39  1  0  0  0
 37 47  1  0  0  0
 37 66  1  0  0  0
 37105  1  0  0  0
 38 43  2  0  0  0
 38 46  1  0  0  0
 38 47  1  0  0  0
 39 64  1  0  0  0
 39 67  2  0  0  0
 40 52  1  0  0  0
 40 53  2  0  0  0
 40 58  1  0  0  0
 41106  1  0  0  0
 41107  1  0  0  0
 41108  1  0  0  0
 41 48  1  0  0  0
 42 43  1  0  0  0
 42 66  1  0  0  0
 42109  1  0  0  0
 42110  1  0  0  0
 43 44  1  0  0  0
 44111  1  0  0  0
 45 46  2  0  0  0
 45112  1  0  0  0
 46113  1  0  0  0
 47114  1  0  0  0
 47115  1  0  0  0
 48 56  1  0  0  0
 48 65  1  0  0  0
 48116  1  0  0  0
 49 50  1  0  0  0
 49 53  1  0  0  0
 49 64  1  0  0  0
 49117  1  0  0  0
 50 51  1  0  0  0
 50118  1  0  0  0
 50119  1  0  0  0
 51 52  1  0  0  0
 51120  1  0  0  0
 51121  1  0  0  0
 52122  1  0  0  0
 52123  1  0  0  0
 53 54  1  0  0  0
 54 55  2  0  0  0
 54124  1  0  0  0
 55 57  1  0  0  0
 55125  1  0  0  0
 56 69  2  0  0  0
 57 58  2  0  0  0
 57126  1  0  0  0
 58127  1  0  0  0
 59 60  1  0  0  0
 59 61  1  0  0  0
 59 62  1  0  0  0
 60128  1  0  0  0
 60129  1  0  0  0
 60130  1  0  0  0
 61131  1  0  0  0
 61132  1  0  0  0
 61133  1  0  0  0
 62134  1  0  0  0
 62135  1  0  0  0
 62136  1  0  0  0
 63 65  1  0  0  0
 63137  1  0  0  0
 63138  1  0  0  0
 63139  1  0  0  0
 64140  1  0  0  0
 65141  1  0  0  0
 68 76  1  0  0  0
 71 73  1  0  0  0
 71 74  2  0  0  0
 71142  1  0  0  0
 72 73  2  0  0  0
 72 82  1  0  0  0
 72143  1  0  0  0
 73 80  1  0  0  0
 74 81  1  0  0  0
 74 82  1  0  0  0
 75 76  2  0  0  0
 75 77  1  0  0  0
 75 78  1  0  0  0
 76144  1  0  0  0
 77 79  1  0  0  0
 77145  1  0  0  0
 77146  1  0  0  0
 78 80  1  0  0  0
 78147  1  0  0  0
 78148  1  0  0  0
 79 80  1  0  0  0
 79149  1  0  0  0
 79150  1  0  0  0
 81151  1  0  0  0
M  ISO  4   1 100  68 101  76 101  81 100
M  END
> <chiral flag>
0

> <version>
0

> <s_m_source_file>
/data/baiqing/PycharmProjects/Reinvent-master-3.2/result/LINK_invent/BTK/process_docking_weight1_custom_product_contain_oxygen_bond_distance_aromatic_linkinvent_7_9_3/rearranged_h_0145.sdf

> <i_m_source_file_index>
34

> <r_mmod_Potential_Energy-OPLS-2005>
359.539764404297

> <r_mmod_Stretch_Energy-OPLS-2005>
150.333862304688

> <r_mmod_Bend_Energy-OPLS-2005>
258.325500488281

> <r_mmod_Torsional_Energy-OPLS-2005>
277.354919433594

> <r_mmod_Improper_Torsional_Energy-OPLS-2005>
7.27380847930908

> <r_mmod_Van_der_Waal_Energy-OPLS-2005>
113.280982971191

> <r_mmod_Electrostatic_Energy-OPLS-2005>
-359.659790039062

> <r_mmod_Solvation_Energy-OPLS-2005>
-230.317337036133

> <b_mmod_Minimization_Converged-OPLS-2005>
0

> <r_mmod_RMS_Derivative-OPLS-2005>
0.841490507125854

$$$$
34
                    3D
 Structure written by MMmdl.
164173  0  0  1  0            999 V2000
  -30.6738  -14.5715   20.5675 C   0  0  0  0  0  0
  -30.4391  -12.3656   19.4476 C   0  0  0  0  0  0
  -29.5077  -12.5069   18.2238 C   0  0  0  0  0  0
  -28.0325  -12.3308   18.6331 C   0  0  0  0  0  0
  -27.6577  -13.1941   19.8632 C   0  0  2  0  0  0
  -28.7009  -13.0367   20.9966 C   0  0  0  0  0  0
  -25.2500  -13.8038   20.5605 C   0  0  0  0  0  0
  -24.1801  -13.0342   20.9209 C   0  0  0  0  0  0
  -24.6384  -11.6832   20.8771 C   0  0  0  0  0  0
  -23.9054  -10.4242   21.0429 C   0  0  0  0  0  0
  -24.3610   -9.4164   21.9204 C   0  0  0  0  0  0
  -23.6280   -8.2208   22.0765 C   0  0  0  0  0  0
  -22.4267   -8.0257   21.3546 C   0  0  0  0  0  0
  -21.9901   -9.0232   20.4650 C   0  0  0  0  0  0
  -22.7232  -10.2105   20.3068 C   0  0  0  0  0  0
  -21.6842   -6.0720   22.5277 C   0  0  0  0  0  0
  -21.3999   -6.5627   23.8209 C   0  0  0  0  0  0
  -21.3659   -5.6785   24.9173 C   0  0  0  0  0  0
  -21.6050   -4.3048   24.7227 C   0  0  0  0  0  0
  -21.8821   -3.8136   23.4348 C   0  0  0  0  0  0
  -21.9190   -4.6950   22.3402 C   0  0  0  0  0  0
  -22.7831  -13.5175   21.1862 C   0  0  0  0  0  0
  -22.1663   -4.2138   21.0979 F   0  0  0  0  0  0
  -21.5640   -3.4534   25.7741 F   0  0  0  0  0  0
  -30.0335  -13.3655   20.4552 N   0  0  0  0  0  0
  -26.2983  -12.9242   20.3281 N   0  0  0  0  0  0
  -25.9310  -11.6419   20.5778 N   0  0  0  0  0  0
  -22.0459  -12.8204   22.0433 N   0  0  0  0  0  0
  -25.3949  -15.1725   20.3859 N   0  0  0  0  0  0
  -31.7726  -14.7832   20.0465 O   0  0  0  0  0  0
  -21.6626   -6.8861   21.4239 O   0  0  0  0  0  0
  -22.3540  -14.5492   20.6704 O   0  0  0  0  0  0
  -24.6192  -31.8641   23.2063 C   0  0  0  0  0  0
  -25.9066  -32.4803   23.8375 C   0  0  1  0  0  0
  -27.2418  -27.3845   20.1074 C   0  0  0  0  0  0
  -25.5903  -33.8602   24.2305 N   0  0  0  0  0  0
  -23.4102  -30.4869   21.5473 C   0  0  2  0  0  0
  -24.8591  -28.9470   20.1125 C   0  0  0  0  0  0
  -22.7435  -29.4643   22.4964 C   0  0  0  0  0  0
  -18.0278  -28.1382   22.8490 C   0  0  0  0  0  0
  -24.1486  -36.7307   23.2639 C   0  0  0  0  0  0
  -25.9439  -30.8147   21.3672 C   0  0  0  0  0  0
  -26.0213  -29.4455   20.7134 C   0  0  0  0  0  0
  -27.2116  -28.6730   20.7058 C   0  0  0  0  0  0
  -26.0581  -26.9211   19.4837 C   0  0  0  0  0  0
  -24.8759  -27.6868   19.4927 C   0  0  0  0  0  0
  -23.6219  -29.8181   20.1626 C   0  0  0  0  0  0
  -25.4108  -36.3100   24.0334 C   0  0  1  0  0  0
  -20.5871  -28.3674   23.1302 C   0  0  2  0  0  0
  -20.6765  -26.9405   22.5413 C   0  0  0  0  0  0
  -19.5744  -26.6385   21.5210 C   0  0  0  0  0  0
  -18.1924  -26.7927   22.1624 C   0  0  0  0  0  0
  -19.1529  -28.8844   23.2894 C   0  0  0  0  0  0
  -18.9456  -30.1450   23.8907 C   0  0  0  0  0  0
  -17.6457  -30.6586   24.0567 C   0  0  0  0  0  0
  -25.9038  -34.9465   23.5120 C   0  0  0  0  0  0
  -16.5348  -29.9089   23.6327 C   0  0  0  0  0  0
  -16.7266  -28.6505   23.0349 C   0  0  0  0  0  0
  -26.4475  -31.6595   25.0721 C   0  0  0  0  0  0
  -25.3730  -31.3714   26.1463 C   0  0  0  0  0  0
  -27.0310  -30.3031   24.6126 C   0  0  0  0  0  0
  -27.6046  -32.4319   25.7484 C   0  0  0  0  0  0
  -27.5578  -37.1809   24.8464 C   0  0  0  0  0  0
  -21.4155  -29.3037   22.3703 N   0  0  0  0  0  0
  -26.4293  -37.3787   23.9405 N   0  0  0  0  0  0
  -24.6763  -31.0704   22.0985 N   0  0  0  0  0  0
  -23.4183  -28.8188   23.3028 O   0  0  0  0  0  0
  -28.4037  -26.6182   20.1579 O   0  0  0  0  0  0
  -26.5608  -34.8924   22.4686 O   0  0  0  0  0  0
  -23.5371  -32.1413   23.7430 O   0  0  0  0  0  0
  -28.5506  -19.4094   20.1439 C   0  0  0  0  0  0
  -28.3276  -16.9966   20.3350 C   0  0  0  0  0  0
  -30.4200  -18.0537   20.9582 C   0  0  0  0  0  0
  -27.7849  -18.2443   19.9801 C   0  0  0  0  0  0
  -29.8654  -19.3447   20.6479 C   0  0  0  0  0  0
  -29.6457  -16.8583   20.8104 C   0  0  0  0  0  0
  -29.3655  -24.3405   20.6545 C   0  0  0  0  0  0
  -31.6045  -21.6470   18.8770 C   0  0  0  0  0  0
  -31.0834  -23.0251   19.3290 C   0  0  0  0  0  0
  -31.8199  -20.7064   20.0746 C   0  0  0  0  0  0
  -29.9084  -21.8252   21.2483 C   0  0  0  0  0  0
  -29.7599  -22.9193   20.1243 C   0  0  1  0  0  0
  -26.3680  -18.3368   19.4473 C   0  0  0  0  0  0
  -28.3238  -25.1896   19.8682 C   0  0  0  0  0  0
  -30.5767  -20.5626   20.8231 N   0  0  0  0  0  0
  -30.0216  -15.5355   21.2656 N   0  0  0  0  0  0
  -29.8869  -24.7895   21.6814 O   0  0  0  0  0  0
  -31.4810  -12.4830   19.1445 H   0  0  0  0  0  0
  -30.3667  -11.3623   19.8705 H   0  0  0  0  0  0
  -29.7729  -11.7717   17.4631 H   0  0  0  0  0  0
  -29.6484  -13.4868   17.7643 H   0  0  0  0  0  0
  -27.8725  -11.2755   18.8587 H   0  0  0  0  0  0
  -27.3781  -12.5646   17.7926 H   0  0  0  0  0  0
  -27.6813  -14.2175   19.5052 H   0  0  0  0  0  0
  -28.7020  -12.0106   21.3674 H   0  0  0  0  0  0
  -28.4304  -13.6527   21.8547 H   0  0  0  0  0  0
  -25.2754   -9.5642   22.4779 H   0  0  0  0  0  0
  -23.9983   -7.4602   22.7489 H   0  0  0  0  0  0
  -21.0830   -8.8761   19.8956 H   0  0  0  0  0  0
  -22.3704  -10.9656   19.6184 H   0  0  0  0  0  0
  -21.1976   -7.6133   23.9706 H   0  0  0  0  0  0
  -21.1487   -6.0515   25.9078 H   0  0  0  0  0  0
  -22.0603   -2.7597   23.2856 H   0  0  0  0  0  0
  -22.4045  -11.9852   22.4819 H   0  0  0  0  0  0
  -21.1089  -13.1268   22.2637 H   0  0  0  0  0  0
  -24.5988  -15.7951   20.4685 H   0  0  0  0  0  0
  -26.1856  -15.6015   19.9291 H   0  0  0  0  0  0
  -26.7138  -32.5499   23.1136 H   0  0  0  0  0  0
  -25.0045  -33.9755   25.0446 H   0  0  0  0  0  0
  -22.7013  -31.3054   21.4055 H   0  0  0  0  0  0
  -23.3741  -35.9648   23.3313 H   0  0  0  0  0  0
  -24.3577  -36.8911   22.2051 H   0  0  0  0  0  0
  -23.7246  -37.6518   23.6648 H   0  0  0  0  0  0
  -26.0631  -31.5794   20.5983 H   0  0  0  0  0  0
  -26.8290  -30.8681   21.9895 H   0  0  0  0  0  0
  -28.1050  -29.0536   21.1814 H   0  0  0  0  0  0
  -26.0224  -25.9652   18.9829 H   0  0  0  0  0  0
  -23.9850  -27.2992   19.0176 H   0  0  0  0  0  0
  -23.7320  -30.5931   19.4031 H   0  0  0  0  0  0
  -22.7446  -29.2402   19.8659 H   0  0  0  0  0  0
  -25.1286  -36.1963   25.0827 H   0  0  0  0  0  0
  -20.9967  -28.3247   24.1422 H   0  0  0  0  0  0
  -20.5661  -26.2286   23.3605 H   0  0  0  0  0  0
  -21.6638  -26.7441   22.1212 H   0  0  0  0  0  0
  -19.6906  -25.6298   21.1234 H   0  0  0  0  0  0
  -19.6682  -27.3199   20.6744 H   0  0  0  0  0  0
  -17.4193  -26.6675   21.4028 H   0  0  0  0  0  0
  -18.0328  -26.0067   22.9017 H   0  0  0  0  0  0
  -19.7932  -30.7263   24.2280 H   0  0  0  0  0  0
  -17.5013  -31.6267   24.5166 H   0  0  0  0  0  0
  -15.5350  -30.2995   23.7644 H   0  0  0  0  0  0
  -15.8666  -28.0827   22.7059 H   0  0  0  0  0  0
  -24.5901  -30.7063   25.7800 H   0  0  0  0  0  0
  -24.8923  -32.2874   26.4909 H   0  0  0  0  0  0
  -25.8074  -30.8883   27.0224 H   0  0  0  0  0  0
  -26.2866  -29.6791   24.1166 H   0  0  0  0  0  0
  -27.4052  -29.7272   25.4600 H   0  0  0  0  0  0
  -27.8712  -30.4339   23.9304 H   0  0  0  0  0  0
  -27.2665  -33.3613   26.2076 H   0  0  0  0  0  0
  -28.3847  -32.6885   25.0305 H   0  0  0  0  0  0
  -28.0722  -31.8433   26.5387 H   0  0  0  0  0  0
  -28.2606  -38.0096   24.7502 H   0  0  0  0  0  0
  -28.1064  -36.2629   24.6300 H   0  0  0  0  0  0
  -27.2296  -37.1473   25.8868 H   0  0  0  0  0  0
  -20.9322  -29.8760   21.6921 H   0  0  0  0  0  0
  -26.0179  -38.2866   24.1400 H   0  0  0  0  0  0
  -28.1168  -20.3616   19.8748 H   0  0  0  0  0  0
  -27.7072  -16.1286   20.2638 H   0  0  0  0  0  0
  -31.4198  -17.9872   21.3626 H   0  0  0  0  0  0
  -32.5444  -21.7693   18.3367 H   0  0  0  0  0  0
  -30.9032  -21.1975   18.1722 H   0  0  0  0  0  0
  -30.9462  -23.6678   18.4585 H   0  0  0  0  0  0
  -31.8467  -23.5038   19.9450 H   0  0  0  0  0  0
  -32.5911  -21.1071   20.7346 H   0  0  0  0  0  0
  -32.1848  -19.7394   19.7234 H   0  0  0  0  0  0
  -28.9308  -21.6091   21.6824 H   0  0  0  0  0  0
  -30.4990  -22.2371   22.0682 H   0  0  0  0  0  0
  -28.9753  -22.5991   19.4385 H   0  0  0  0  0  0
  -26.1675  -19.3171   19.0138 H   0  0  0  0  0  0
  -25.6481  -18.1696   20.2488 H   0  0  0  0  0  0
  -26.1981  -17.5904   18.6708 H   0  0  0  0  0  0
  -27.3485  -24.7931   20.1487 H   0  0  0  0  0  0
  -28.4517  -25.0245   18.7984 H   0  0  0  0  0  0
  -29.2851  -15.0991   21.7999 H   0  0  0  0  0  0
  1 25  1  0  0  0
  1 30  2  0  0  0
  1 86  1  0  0  0
  2  3  1  0  0  0
  2 25  1  0  0  0
  2 88  1  0  0  0
  2 89  1  0  0  0
  3  4  1  0  0  0
  3 90  1  0  0  0
  3 91  1  0  0  0
  4  5  1  0  0  0
  4 92  1  0  0  0
  4 93  1  0  0  0
  5  6  1  0  0  0
  5 26  1  0  0  0
  5 94  1  0  0  0
  6 25  1  0  0  0
  6 95  1  0  0  0
  6 96  1  0  0  0
  7  8  2  0  0  0
  7 26  1  0  0  0
  7 29  1  0  0  0
  8  9  1  0  0  0
  8 22  1  0  0  0
  9 10  1  0  0  0
  9 27  2  0  0  0
 10 11  2  0  0  0
 10 15  1  0  0  0
 11 12  1  0  0  0
 11 97  1  0  0  0
 12 13  2  0  0  0
 12 98  1  0  0  0
 13 14  1  0  0  0
 13 31  1  0  0  0
 14 15  2  0  0  0
 14 99  1  0  0  0
 15100  1  0  0  0
 16 17  2  0  0  0
 16 21  1  0  0  0
 16 31  1  0  0  0
 17 18  1  0  0  0
 17101  1  0  0  0
 18 19  2  0  0  0
 18102  1  0  0  0
 19 20  1  0  0  0
 19 24  1  0  0  0
 20 21  2  0  0  0
 20103  1  0  0  0
 21 23  1  0  0  0
 22 28  1  0  0  0
 22 32  2  0  0  0
 26 27  1  0  0  0
 28104  1  0  0  0
 28105  1  0  0  0
 29106  1  0  0  0
 29107  1  0  0  0
 33 34  1  0  0  0
 33 66  1  0  0  0
 33 70  2  0  0  0
 34 36  1  0  0  0
 34 59  1  0  0  0
 34108  1  0  0  0
 35 44  2  0  0  0
 35 45  1  0  0  0
 35 68  1  0  0  0
 36 56  1  0  0  0
 36109  1  0  0  0
 37 39  1  0  0  0
 37 47  1  0  0  0
 37 66  1  0  0  0
 37110  1  0  0  0
 38 43  2  0  0  0
 38 46  1  0  0  0
 38 47  1  0  0  0
 39 64  1  0  0  0
 39 67  2  0  0  0
 40 52  1  0  0  0
 40 53  2  0  0  0
 40 58  1  0  0  0
 41111  1  0  0  0
 41112  1  0  0  0
 41113  1  0  0  0
 41 48  1  0  0  0
 42 43  1  0  0  0
 42 66  1  0  0  0
 42114  1  0  0  0
 42115  1  0  0  0
 43 44  1  0  0  0
 44116  1  0  0  0
 45 46  2  0  0  0
 45117  1  0  0  0
 46118  1  0  0  0
 47119  1  0  0  0
 47120  1  0  0  0
 48 56  1  0  0  0
 48 65  1  0  0  0
 48121  1  0  0  0
 49 50  1  0  0  0
 49 53  1  0  0  0
 49 64  1  0  0  0
 49122  1  0  0  0
 50 51  1  0  0  0
 50123  1  0  0  0
 50124  1  0  0  0
 51 52  1  0  0  0
 51125  1  0  0  0
 51126  1  0  0  0
 52127  1  0  0  0
 52128  1  0  0  0
 53 54  1  0  0  0
 54 55  2  0  0  0
 54129  1  0  0  0
 55 57  1  0  0  0
 55130  1  0  0  0
 56 69  2  0  0  0
 57 58  2  0  0  0
 57131  1  0  0  0
 58132  1  0  0  0
 59 60  1  0  0  0
 59 61  1  0  0  0
 59 62  1  0  0  0
 60133  1  0  0  0
 60134  1  0  0  0
 60135  1  0  0  0
 61136  1  0  0  0
 61137  1  0  0  0
 61138  1  0  0  0
 62139  1  0  0  0
 62140  1  0  0  0
 62141  1  0  0  0
 63 65  1  0  0  0
 63142  1  0  0  0
 63143  1  0  0  0
 63144  1  0  0  0
 64145  1  0  0  0
 65146  1  0  0  0
 68 84  1  0  0  0
 71 74  2  0  0  0
 71 75  1  0  0  0
 71147  1  0  0  0
 72 74  1  0  0  0
 72 76  2  0  0  0
 72148  1  0  0  0
 73 75  2  0  0  0
 73 76  1  0  0  0
 73149  1  0  0  0
 74 83  1  0  0  0
 75 85  1  0  0  0
 76 86  1  0  0  0
 77 84  1  0  0  0
 77 87  2  0  0  0
 77 82  1  0  0  0
 78 79  1  0  0  0
 78 80  1  0  0  0
 78150  1  0  0  0
 78151  1  0  0  0
 79 82  1  0  0  0
 79152  1  0  0  0
 79153  1  0  0  0
 80 85  1  0  0  0
 80154  1  0  0  0
 80155  1  0  0  0
 81 82  1  0  0  0
 81 85  1  0  0  0
 81156  1  0  0  0
 81157  1  0  0  0
 82158  1  0  0  0
 83159  1  0  0  0
 83160  1  0  0  0
 83161  1  0  0  0
 84162  1  0  0  0
 84163  1  0  0  0
 86164  1  0  0  0
M  ISO  4   1 100  68 101  84 101  86 100
M  END
> <chiral flag>
0

> <version>
0

> <s_m_source_file>
/data/baiqing/PycharmProjects/Reinvent-master-3.2/result/LINK_invent/BTK/process_docking_weight1_custom_product_contain_oxygen_bond_distance_aromatic_linkinvent_7_9_3/rearranged_h_0145.sdf

> <i_m_source_file_index>
35

> <r_mmod_Potential_Energy-OPLS-2005>
128.80094909668

> <r_mmod_Stretch_Energy-OPLS-2005>
58.9721984863281

> <r_mmod_Bend_Energy-OPLS-2005>
126.827445983887

> <r_mmod_Torsional_Energy-OPLS-2005>
288.924468994141

> <r_mmod_Improper_Torsional_Energy-OPLS-2005>
8.67881679534912

> <r_mmod_Van_der_Waal_Energy-OPLS-2005>
147.661224365234

> <r_mmod_Electrostatic_Energy-OPLS-2005>
-284.384033203125

> <r_mmod_Solvation_Energy-OPLS-2005>
-244.579772949219

> <b_mmod_Minimization_Converged-OPLS-2005>
0

> <r_mmod_RMS_Derivative-OPLS-2005>
0.613638579845428

$$$$
35
                    3D
 Structure written by MMmdl.
168176  0  0  1  0            999 V2000
  -30.7175  -14.3850   20.6607 C   0  0  0  0  0  0
  -30.4288  -12.2873   19.3876 C   0  0  0  0  0  0
  -29.4893  -12.5252   18.1883 C   0  0  0  0  0  0
  -28.0100  -12.3878   18.6016 C   0  0  0  0  0  0
  -27.6695  -13.1952   19.8817 C   0  0  2  0  0  0
  -28.7068  -12.9008   20.9867 C   0  0  0  0  0  0
  -25.2632  -13.8141   20.5673 C   0  0  0  0  0  0
  -24.1861  -13.0435   20.9158 C   0  0  0  0  0  0
  -24.6390  -11.6898   20.8710 C   0  0  0  0  0  0
  -23.9049  -10.4289   21.0389 C   0  0  0  0  0  0
  -24.3607   -9.4206   21.9174 C   0  0  0  0  0  0
  -23.6282   -8.2243   22.0751 C   0  0  0  0  0  0
  -22.4267   -8.0279   21.3542 C   0  0  0  0  0  0
  -21.9896   -9.0247   20.4646 C   0  0  0  0  0  0
  -22.7221  -10.2125   20.3043 C   0  0  0  0  0  0
  -21.6855   -6.0727   22.5276 C   0  0  0  0  0  0
  -21.4014   -6.5633   23.8208 C   0  0  0  0  0  0
  -21.3659   -5.6787   24.9174 C   0  0  0  0  0  0
  -21.6044   -4.3048   24.7226 C   0  0  0  0  0  0
  -21.8822   -3.8140   23.4347 C   0  0  0  0  0  0
  -21.9193   -4.6955   22.3402 C   0  0  0  0  0  0
  -22.7884  -13.5240   21.1833 C   0  0  0  0  0  0
  -22.1662   -4.2141   21.0978 F   0  0  0  0  0  0
  -21.5630   -3.4535   25.7738 F   0  0  0  0  0  0
  -30.0481  -13.2206   20.4563 N   0  0  0  0  0  0
  -26.3062  -12.9290   20.3373 N   0  0  0  0  0  0
  -25.9310  -11.6459   20.5734 N   0  0  0  0  0  0
  -22.0522  -12.8233   22.0392 N   0  0  0  0  0  0
  -25.4379  -15.1857   20.4091 N   0  0  0  0  0  0
  -31.7726  -14.6673   20.0821 O   0  0  0  0  0  0
  -21.6638   -6.8871   21.4239 O   0  0  0  0  0  0
  -22.3571  -14.5551   20.6690 O   0  0  0  0  0  0
  -24.6120  -31.8711   23.2102 C   0  0  0  0  0  0
  -25.9023  -32.4841   23.8389 C   0  0  1  0  0  0
  -27.2384  -27.4559   20.0769 C   0  0  0  0  0  0
  -25.5916  -33.8640   24.2327 N   0  0  0  0  0  0
  -23.3978  -30.4958   21.5508 C   0  0  2  0  0  0
  -24.8421  -28.9610   20.1170 C   0  0  0  0  0  0
  -22.7391  -29.4690   22.4989 C   0  0  0  0  0  0
  -18.0282  -28.1370   22.8516 C   0  0  0  0  0  0
  -24.1498  -36.7295   23.2645 C   0  0  0  0  0  0
  -25.9259  -30.8404   21.3609 C   0  0  0  0  0  0
  -26.0005  -29.4755   20.7093 C   0  0  0  0  0  0
  -27.1986  -28.7275   20.6882 C   0  0  0  0  0  0
  -26.0512  -26.9420   19.5011 C   0  0  0  0  0  0
  -24.8594  -27.6910   19.5158 C   0  0  0  0  0  0
  -23.6036  -29.8270   20.1655 C   0  0  0  0  0  0
  -25.4125  -36.3116   24.0340 C   0  0  1  0  0  0
  -20.5876  -28.3661   23.1328 C   0  0  2  0  0  0
  -20.6782  -26.9398   22.5418 C   0  0  0  0  0  0
  -19.5754  -26.6390   21.5226 C   0  0  0  0  0  0
  -18.1933  -26.7927   22.1635 C   0  0  0  0  0  0
  -19.1531  -28.8832   23.2930 C   0  0  0  0  0  0
  -18.9468  -30.1446   23.8931 C   0  0  0  0  0  0
  -17.6470  -30.6590   24.0579 C   0  0  0  0  0  0
  -25.9047  -34.9492   23.5123 C   0  0  0  0  0  0
  -16.5364  -29.9093   23.6328 C   0  0  0  0  0  0
  -16.7272  -28.6506   23.0354 C   0  0  0  0  0  0
  -26.4455  -31.6624   25.0715 C   0  0  0  0  0  0
  -25.3711  -31.3724   26.1452 C   0  0  0  0  0  0
  -27.0279  -30.3085   24.6053 C   0  0  0  0  0  0
  -27.6048  -32.4331   25.7463 C   0  0  0  0  0  0
  -27.5583  -37.1808   24.8474 C   0  0  0  0  0  0
  -21.4124  -29.3038   22.3735 N   0  0  0  0  0  0
  -26.4307  -37.3795   23.9405 N   0  0  0  0  0  0
  -24.6639  -31.0828   22.0991 N   0  0  0  0  0  0
  -23.4191  -28.8234   23.3012 O   0  0  0  0  0  0
  -28.4410  -26.7814   20.0643 O   0  0  0  0  0  0
  -26.5596  -34.8942   22.4675 O   0  0  0  0  0  0
  -23.5318  -32.1444   23.7517 O   0  0  0  0  0  0
  -31.3672  -17.3928   21.3084 C   0  0  0  0  0  0
  -30.2900  -16.5811   21.7893 C   0  0  0  0  0  0
  -29.3673  -17.2611   22.5466 C   0  0  0  0  0  0
  -31.2554  -18.6949   21.7249 C   0  0  0  0  0  0
  -31.1179  -21.9975   20.9371 C   0  0  0  0  0  0
  -29.9465  -25.0249   19.3075 C   0  0  0  0  0  0
  -28.2867  -16.4270   24.6768 C   0  0  0  0  0  0
  -29.2705  -23.0715   17.8409 C   0  0  0  0  0  0
  -31.6668  -23.3966   18.4066 C   0  0  0  0  0  0
  -28.1125  -16.7524   23.1900 C   0  0  0  0  0  0
  -29.9312  -22.6711   20.2416 C   0  0  0  0  0  0
  -31.6232  -20.6642   20.3707 C   0  0  0  0  0  0
  -28.4868  -25.4833   19.4687 C   0  0  0  0  0  0
  -30.2232  -23.5360   18.9690 C   0  0  0  0  0  0
  -30.1173  -15.1936   21.5458 N   0  0  0  0  0  0
  -32.0895  -19.7656   21.4226 N   0  0  0  0  0  0
  -31.6231  -22.4817   21.9544 O   0  0  0  0  0  0
  -30.8756  -25.8264   19.4554 O   0  0  0  0  0  0
  -29.8304  -18.9364   22.7078 S   0  0  0  0  0  0
  -31.4708  -12.4042   19.0840 H   0  0  0  0  0  0
  -30.3388  -11.2597   19.7440 H   0  0  0  0  0  0
  -29.7192  -11.8202   17.3882 H   0  0  0  0  0  0
  -29.6644  -13.5204   17.7774 H   0  0  0  0  0  0
  -27.8077  -11.3289   18.7668 H   0  0  0  0  0  0
  -27.3610  -12.6954   17.7812 H   0  0  0  0  0  0
  -27.7365  -14.2537   19.6286 H   0  0  0  0  0  0
  -28.6750  -11.8424   21.2521 H   0  0  0  0  0  0
  -28.4502  -13.4225   21.9086 H   0  0  0  0  0  0
  -25.2757   -9.5687   22.4738 H   0  0  0  0  0  0
  -23.9998   -7.4638   22.7467 H   0  0  0  0  0  0
  -21.0829   -8.8759   19.8954 H   0  0  0  0  0  0
  -22.3682  -10.9656   19.6144 H   0  0  0  0  0  0
  -21.2005   -7.6143   23.9711 H   0  0  0  0  0  0
  -21.1479   -6.0517   25.9075 H   0  0  0  0  0  0
  -22.0601   -2.7603   23.2849 H   0  0  0  0  0  0
  -22.4131  -11.9887   22.4775 H   0  0  0  0  0  0
  -21.1137  -13.1258   22.2591 H   0  0  0  0  0  0
  -24.6723  -15.8425   20.5128 H   0  0  0  0  0  0
  -26.2917  -15.6222   20.0851 H   0  0  0  0  0  0
  -26.7094  -32.5556   23.1154 H   0  0  0  0  0  0
  -25.0115  -33.9807   25.0507 H   0  0  0  0  0  0
  -22.6858  -31.3132   21.4121 H   0  0  0  0  0  0
  -23.3778  -35.9612   23.3336 H   0  0  0  0  0  0
  -24.3595  -36.8863   22.2054 H   0  0  0  0  0  0
  -23.7226  -37.6504   23.6627 H   0  0  0  0  0  0
  -26.0345  -31.6054   20.5914 H   0  0  0  0  0  0
  -26.8156  -30.8925   21.9766 H   0  0  0  0  0  0
  -28.0965  -29.1262   21.1375 H   0  0  0  0  0  0
  -26.0182  -25.9704   19.0308 H   0  0  0  0  0  0
  -23.9629  -27.2867   19.0663 H   0  0  0  0  0  0
  -23.7077  -30.6017   19.4051 H   0  0  0  0  0  0
  -22.7273  -29.2463   19.8708 H   0  0  0  0  0  0
  -25.1298  -36.1989   25.0830 H   0  0  0  0  0  0
  -20.9987  -28.3223   24.1444 H   0  0  0  0  0  0
  -20.5721  -26.2253   23.3591 H   0  0  0  0  0  0
  -21.6644  -26.7458   22.1187 H   0  0  0  0  0  0
  -19.6917  -25.6308   21.1232 H   0  0  0  0  0  0
  -19.6705  -27.3230   20.6786 H   0  0  0  0  0  0
  -17.4207  -26.6719   21.4029 H   0  0  0  0  0  0
  -18.0316  -26.0044   22.9004 H   0  0  0  0  0  0
  -19.7945  -30.7255   24.2311 H   0  0  0  0  0  0
  -17.5032  -31.6275   24.5164 H   0  0  0  0  0  0
  -15.5371  -30.3017   23.7631 H   0  0  0  0  0  0
  -15.8671  -28.0844   22.7046 H   0  0  0  0  0  0
  -24.5905  -30.7047   25.7771 H   0  0  0  0  0  0
  -24.8873  -32.2875   26.4891 H   0  0  0  0  0  0
  -25.8054  -30.8899   27.0219 H   0  0  0  0  0  0
  -26.2803  -29.6877   24.1091 H   0  0  0  0  0  0
  -27.4068  -29.7282   25.4477 H   0  0  0  0  0  0
  -27.8627  -30.4437   23.9163 H   0  0  0  0  0  0
  -27.2698  -33.3640   26.2051 H   0  0  0  0  0  0
  -28.3849  -32.6883   25.0274 H   0  0  0  0  0  0
  -28.0721  -31.8440   26.5363 H   0  0  0  0  0  0
  -28.2622  -38.0091   24.7516 H   0  0  0  0  0  0
  -28.1059  -36.2620   24.6316 H   0  0  0  0  0  0
  -27.2289  -37.1459   25.8876 H   0  0  0  0  0  0
  -20.9265  -29.8742   21.6951 H   0  0  0  0  0  0
  -26.0207  -38.2878   24.1419 H   0  0  0  0  0  0
  -32.1700  -17.0215   20.6883 H   0  0  0  0  0  0
  -27.3569  -16.0488   25.1035 H   0  0  0  0  0  0
  -28.5733  -17.3137   25.2428 H   0  0  0  0  0  0
  -29.0548  -15.6679   24.8284 H   0  0  0  0  0  0
  -29.3525  -23.7021   16.9554 H   0  0  0  0  0  0
  -28.2244  -23.0735   18.1513 H   0  0  0  0  0  0
  -29.5012  -22.0511   17.5294 H   0  0  0  0  0  0
  -31.8062  -24.0196   17.5222 H   0  0  0  0  0  0
  -31.8879  -22.3758   18.0982 H   0  0  0  0  0  0
  -32.4297  -23.7022   19.1249 H   0  0  0  0  0  0
  -27.7470  -15.8702   22.6633 H   0  0  0  0  0  0
  -27.3242  -17.4988   23.0809 H   0  0  0  0  0  0
  -29.4113  -23.2572   21.0000 H   0  0  0  0  0  0
  -29.2363  -21.8709   19.9868 H   0  0  0  0  0  0
  -32.4485  -20.8647   19.6881 H   0  0  0  0  0  0
  -30.8309  -20.1968   19.7836 H   0  0  0  0  0  0
  -27.9356  -24.7671   20.0796 H   0  0  0  0  0  0
  -28.0367  -25.5066   18.4771 H   0  0  0  0  0  0
  -29.3073  -14.7783   21.9774 H   0  0  0  0  0  0
  -32.2557  -20.3415   22.2487 H   0  0  0  0  0  0
  1 25  1  0  0  0
  1 30  2  0  0  0
  1 85  1  0  0  0
  2  3  1  0  0  0
  2 25  1  0  0  0
  2 90  1  0  0  0
  2 91  1  0  0  0
  3  4  1  0  0  0
  3 92  1  0  0  0
  3 93  1  0  0  0
  4  5  1  0  0  0
  4 94  1  0  0  0
  4 95  1  0  0  0
  5  6  1  0  0  0
  5 26  1  0  0  0
  5 96  1  0  0  0
  6 25  1  0  0  0
  6 97  1  0  0  0
  6 98  1  0  0  0
  7  8  2  0  0  0
  7 26  1  0  0  0
  7 29  1  0  0  0
  8  9  1  0  0  0
  8 22  1  0  0  0
  9 10  1  0  0  0
  9 27  2  0  0  0
 10 11  2  0  0  0
 10 15  1  0  0  0
 11 12  1  0  0  0
 11 99  1  0  0  0
 12 13  2  0  0  0
 12100  1  0  0  0
 13 14  1  0  0  0
 13 31  1  0  0  0
 14 15  2  0  0  0
 14101  1  0  0  0
 15102  1  0  0  0
 16 17  2  0  0  0
 16 21  1  0  0  0
 16 31  1  0  0  0
 17 18  1  0  0  0
 17103  1  0  0  0
 18 19  2  0  0  0
 18104  1  0  0  0
 19 20  1  0  0  0
 19 24  1  0  0  0
 20 21  2  0  0  0
 20105  1  0  0  0
 21 23  1  0  0  0
 22 28  1  0  0  0
 22 32  2  0  0  0
 26 27  1  0  0  0
 28106  1  0  0  0
 28107  1  0  0  0
 29108  1  0  0  0
 29109  1  0  0  0
 33 34  1  0  0  0
 33 66  1  0  0  0
 33 70  2  0  0  0
 34 36  1  0  0  0
 34 59  1  0  0  0
 34110  1  0  0  0
 35 44  2  0  0  0
 35 45  1  0  0  0
 35 68  1  0  0  0
 36 56  1  0  0  0
 36111  1  0  0  0
 37 39  1  0  0  0
 37 47  1  0  0  0
 37 66  1  0  0  0
 37112  1  0  0  0
 38 43  2  0  0  0
 38 46  1  0  0  0
 38 47  1  0  0  0
 39 64  1  0  0  0
 39 67  2  0  0  0
 40 52  1  0  0  0
 40 53  2  0  0  0
 40 58  1  0  0  0
 41113  1  0  0  0
 41114  1  0  0  0
 41115  1  0  0  0
 41 48  1  0  0  0
 42 43  1  0  0  0
 42 66  1  0  0  0
 42116  1  0  0  0
 42117  1  0  0  0
 43 44  1  0  0  0
 44118  1  0  0  0
 45 46  2  0  0  0
 45119  1  0  0  0
 46120  1  0  0  0
 47121  1  0  0  0
 47122  1  0  0  0
 48 56  1  0  0  0
 48 65  1  0  0  0
 48123  1  0  0  0
 49 50  1  0  0  0
 49 53  1  0  0  0
 49 64  1  0  0  0
 49124  1  0  0  0
 50 51  1  0  0  0
 50125  1  0  0  0
 50126  1  0  0  0
 51 52  1  0  0  0
 51127  1  0  0  0
 51128  1  0  0  0
 52129  1  0  0  0
 52130  1  0  0  0
 53 54  1  0  0  0
 54 55  2  0  0  0
 54131  1  0  0  0
 55 57  1  0  0  0
 55132  1  0  0  0
 56 69  2  0  0  0
 57 58  2  0  0  0
 57133  1  0  0  0
 58134  1  0  0  0
 59 60  1  0  0  0
 59 61  1  0  0  0
 59 62  1  0  0  0
 60135  1  0  0  0
 60136  1  0  0  0
 60137  1  0  0  0
 61138  1  0  0  0
 61139  1  0  0  0
 61140  1  0  0  0
 62141  1  0  0  0
 62142  1  0  0  0
 62143  1  0  0  0
 63 65  1  0  0  0
 63144  1  0  0  0
 63145  1  0  0  0
 63146  1  0  0  0
 64147  1  0  0  0
 65148  1  0  0  0
 68 83  1  0  0  0
 71 72  1  0  0  0
 71 74  2  0  0  0
 71149  1  0  0  0
 72 73  2  0  0  0
 72 85  1  0  0  0
 73 80  1  0  0  0
 73 89  1  0  0  0
 74 86  1  0  0  0
 74 89  1  0  0  0
 75 81  1  0  0  0
 75 82  1  0  0  0
 75 87  2  0  0  0
 76 83  1  0  0  0
 76 84  1  0  0  0
 76 88  2  0  0  0
 77 80  1  0  0  0
 77150  1  0  0  0
 77151  1  0  0  0
 77152  1  0  0  0
 78153  1  0  0  0
 78154  1  0  0  0
 78155  1  0  0  0
 78 84  1  0  0  0
 79 84  1  0  0  0
 79156  1  0  0  0
 79157  1  0  0  0
 79158  1  0  0  0
 80159  1  0  0  0
 80160  1  0  0  0
 81 84  1  0  0  0
 81161  1  0  0  0
 81162  1  0  0  0
 82 86  1  0  0  0
 82163  1  0  0  0
 82164  1  0  0  0
 83165  1  0  0  0
 83166  1  0  0  0
 85167  1  0  0  0
 86168  1  0  0  0
M  ISO  4   1 100  68 101  83 101  85 100
M  END
> <chiral flag>
0

> <version>
0

> <s_m_source_file>
/data/baiqing/PycharmProjects/Reinvent-master-3.2/result/LINK_invent/BTK/process_docking_weight1_custom_product_contain_oxygen_bond_distance_aromatic_linkinvent_7_9_3/rearranged_h_0145.sdf

> <i_m_source_file_index>
36

> <r_mmod_Potential_Energy-OPLS-2005>
-32.3598098754883

> <r_mmod_Stretch_Energy-OPLS-2005>
35.6987686157227

> <r_mmod_Bend_Energy-OPLS-2005>
112.633255004883

> <r_mmod_Torsional_Energy-OPLS-2005>
216.753692626953

> <r_mmod_Improper_Torsional_Energy-OPLS-2005>
8.56044006347656

> <r_mmod_Van_der_Waal_Energy-OPLS-2005>
141.297164916992

> <r_mmod_Electrostatic_Energy-OPLS-2005>
-303.851867675781

> <r_mmod_Solvation_Energy-OPLS-2005>
-251.676010131836

> <b_mmod_Minimization_Converged-OPLS-2005>
0

> <r_mmod_RMS_Derivative-OPLS-2005>
1.87516033649445

$$$$
36
                    3D
 Structure written by MMmdl.
163172  0  0  1  0            999 V2000
  -30.6718  -14.5696   20.5096 C   0  0  0  0  0  0
  -30.4222  -12.3476   19.4578 C   0  0  0  0  0  0
  -29.5054  -12.5045   18.2249 C   0  0  0  0  0  0
  -28.0256  -12.3584   18.6291 C   0  0  0  0  0  0
  -27.6555  -13.2194   19.8681 C   0  0  2  0  0  0
  -28.6959  -13.0641   21.0018 C   0  0  0  0  0  0
  -25.2562  -13.8182   20.5686 C   0  0  0  0  0  0
  -24.1833  -13.0439   20.9180 C   0  0  0  0  0  0
  -24.6403  -11.6915   20.8726 C   0  0  0  0  0  0
  -23.9073  -10.4294   21.0393 C   0  0  0  0  0  0
  -24.3625   -9.4215   21.9176 C   0  0  0  0  0  0
  -23.6301   -8.2255   22.0751 C   0  0  0  0  0  0
  -22.4284   -8.0282   21.3548 C   0  0  0  0  0  0
  -21.9917   -9.0250   20.4649 C   0  0  0  0  0  0
  -22.7241  -10.2131   20.3047 C   0  0  0  0  0  0
  -21.6854   -6.0735   22.5280 C   0  0  0  0  0  0
  -21.4008   -6.5637   23.8214 C   0  0  0  0  0  0
  -21.3670   -5.6793   24.9180 C   0  0  0  0  0  0
  -21.6050   -4.3055   24.7236 C   0  0  0  0  0  0
  -21.8821   -3.8151   23.4356 C   0  0  0  0  0  0
  -21.9196   -4.6964   22.3410 C   0  0  0  0  0  0
  -22.7857  -13.5223   21.1850 C   0  0  0  0  0  0
  -22.1662   -4.2146   21.0989 F   0  0  0  0  0  0
  -21.5638   -3.4542   25.7752 F   0  0  0  0  0  0
  -30.0234  -13.3683   20.4477 N   0  0  0  0  0  0
  -26.3000  -12.9371   20.3339 N   0  0  0  0  0  0
  -25.9333  -11.6519   20.5759 N   0  0  0  0  0  0
  -22.0510  -12.8211   22.0414 N   0  0  0  0  0  0
  -25.4277  -15.1903   20.4125 N   0  0  0  0  0  0
  -31.8144  -14.7128   20.0672 O   0  0  0  0  0  0
  -21.6654   -6.8875   21.4239 O   0  0  0  0  0  0
  -22.3534  -14.5531   20.6699 O   0  0  0  0  0  0
  -24.6217  -31.8640   23.2077 C   0  0  0  0  0  0
  -25.9087  -32.4797   23.8381 C   0  0  1  0  0  0
  -27.2204  -27.3672   20.1043 C   0  0  0  0  0  0
  -25.5918  -33.8600   24.2310 N   0  0  0  0  0  0
  -23.4099  -30.4910   21.5504 C   0  0  2  0  0  0
  -24.8519  -28.9527   20.1112 C   0  0  0  0  0  0
  -22.7435  -29.4661   22.4969 C   0  0  0  0  0  0
  -18.0281  -28.1376   22.8500 C   0  0  0  0  0  0
  -24.1480  -36.7310   23.2638 C   0  0  0  0  0  0
  -25.9464  -30.8091   21.3696 C   0  0  0  0  0  0
  -26.0190  -29.4415   20.7108 C   0  0  0  0  0  0
  -27.2060  -28.6597   20.6999 C   0  0  0  0  0  0
  -26.0298  -26.9196   19.4832 C   0  0  0  0  0  0
  -24.8557  -27.6933   19.4932 C   0  0  0  0  0  0
  -23.6181  -29.8280   20.1640 C   0  0  0  0  0  0
  -25.4102  -36.3103   24.0337 C   0  0  1  0  0  0
  -20.5876  -28.3683   23.1296 C   0  0  2  0  0  0
  -20.6769  -26.9411   22.5413 C   0  0  0  0  0  0
  -19.5740  -26.6383   21.5219 C   0  0  0  0  0  0
  -18.1923  -26.7921   22.1636 C   0  0  0  0  0  0
  -19.1532  -28.8844   23.2895 C   0  0  0  0  0  0
  -18.9460  -30.1450   23.8909 C   0  0  0  0  0  0
  -17.6460  -30.6581   24.0571 C   0  0  0  0  0  0
  -25.9045  -34.9466   23.5128 C   0  0  0  0  0  0
  -16.5352  -29.9085   23.6323 C   0  0  0  0  0  0
  -16.7270  -28.6498   23.0352 C   0  0  0  0  0  0
  -26.4484  -31.6588   25.0735 C   0  0  0  0  0  0
  -25.3737  -31.3715   26.1477 C   0  0  0  0  0  0
  -27.0311  -30.3012   24.6159 C   0  0  0  0  0  0
  -27.6044  -32.4320   25.7506 C   0  0  0  0  0  0
  -27.5579  -37.1808   24.8467 C   0  0  0  0  0  0
  -21.4158  -29.3049   22.3700 N   0  0  0  0  0  0
  -26.4288  -37.3791   23.9416 N   0  0  0  0  0  0
  -24.6782  -31.0697   22.1003 N   0  0  0  0  0  0
  -23.4181  -28.8200   23.3028 O   0  0  0  0  0  0
  -28.3576  -26.5593   20.1559 O   0  0  0  0  0  0
  -26.5616  -34.8928   22.4696 O   0  0  0  0  0  0
  -23.5400  -32.1427   23.7443 O   0  0  0  0  0  0
  -30.0157  -18.1629   21.1941 C   0  0  0  0  0  0
  -30.2037  -19.6071   19.2346 C   0  0  0  0  0  0
  -30.0867  -17.1708   18.9766 C   0  0  0  0  0  0
  -30.1375  -19.4822   20.6377 C   0  0  0  0  0  0
  -30.0342  -16.9883   20.3786 C   0  0  0  0  0  0
  -30.1590  -18.4630   18.4149 C   0  0  0  0  0  0
  -30.3781  -20.6684   21.5129 C   0  0  0  0  0  0
  -29.5327  -24.2926   21.9909 C   0  0  0  0  0  0
  -30.2803  -23.0113   22.3888 C   0  0  0  0  0  0
  -29.0769  -22.6360   20.3544 C   0  0  0  0  0  0
  -29.3400  -24.1869   20.4758 C   0  0  2  0  0  0
  -30.6372  -24.5685   19.7288 C   0  0  0  0  0  0
  -28.1764  -25.1175   19.9722 C   0  0  0  0  0  0
  -29.9480  -21.9746   21.3766 N   0  0  0  0  0  0
  -29.9567  -15.6483   20.9343 N   0  0  0  0  0  0
  -31.1634  -20.4174   22.5608 N   0  3  0  0  0  0
  -30.2156  -18.6055   17.0691 F   0  0  0  0  0  0
  -31.4691  -12.4364   19.1629 H   0  0  0  0  0  0
  -30.3203  -11.3486   19.8848 H   0  0  0  0  0  0
  -29.7596  -11.7620   17.4669 H   0  0  0  0  0  0
  -29.6676  -13.4799   17.7642 H   0  0  0  0  0  0
  -27.8446  -11.3036   18.8411 H   0  0  0  0  0  0
  -27.3803  -12.6141   17.7871 H   0  0  0  0  0  0
  -27.6786  -14.2584   19.5383 H   0  0  0  0  0  0
  -28.6858  -12.0474   21.3974 H   0  0  0  0  0  0
  -28.4487  -13.7132   21.8433 H   0  0  0  0  0  0
  -25.2775   -9.5695   22.4746 H   0  0  0  0  0  0
  -24.0022   -7.4648   22.7460 H   0  0  0  0  0  0
  -21.0856   -8.8752   19.8950 H   0  0  0  0  0  0
  -22.3691  -10.9661   19.6155 H   0  0  0  0  0  0
  -21.1979   -7.6138   23.9710 H   0  0  0  0  0  0
  -21.1492   -6.0529   25.9080 H   0  0  0  0  0  0
  -22.0588   -2.7609   23.2864 H   0  0  0  0  0  0
  -22.4135  -11.9872   22.4792 H   0  0  0  0  0  0
  -21.1111  -13.1203   22.2589 H   0  0  0  0  0  0
  -24.6577  -15.8426   20.5169 H   0  0  0  0  0  0
  -26.2816  -15.6355   20.1015 H   0  0  0  0  0  0
  -26.7154  -32.5473   23.1131 H   0  0  0  0  0  0
  -25.0042  -33.9745   25.0438 H   0  0  0  0  0  0
  -22.7033  -31.3127   21.4138 H   0  0  0  0  0  0
  -23.3738  -35.9646   23.3302 H   0  0  0  0  0  0
  -24.3576  -36.8928   22.2053 H   0  0  0  0  0  0
  -23.7231  -37.6516   23.6652 H   0  0  0  0  0  0
  -26.0721  -31.5740   20.6026 H   0  0  0  0  0  0
  -26.8302  -30.8554   21.9938 H   0  0  0  0  0  0
  -28.1017  -29.0326   21.1765 H   0  0  0  0  0  0
  -25.9749  -25.9604   18.9906 H   0  0  0  0  0  0
  -23.9587  -27.3113   19.0255 H   0  0  0  0  0  0
  -23.7307  -30.6068   19.4088 H   0  0  0  0  0  0
  -22.7369  -29.2563   19.8657 H   0  0  0  0  0  0
  -25.1271  -36.1970   25.0828 H   0  0  0  0  0  0
  -20.9978  -28.3256   24.1412 H   0  0  0  0  0  0
  -20.5680  -26.2296   23.3613 H   0  0  0  0  0  0
  -21.6638  -26.7449   22.1201 H   0  0  0  0  0  0
  -19.6904  -25.6298   21.1236 H   0  0  0  0  0  0
  -19.6665  -27.3207   20.6759 H   0  0  0  0  0  0
  -17.4195  -26.6683   21.4036 H   0  0  0  0  0  0
  -18.0321  -26.0051   22.9021 H   0  0  0  0  0  0
  -19.7936  -30.7266   24.2275 H   0  0  0  0  0  0
  -17.5015  -31.6263   24.5169 H   0  0  0  0  0  0
  -15.5355  -30.2996   23.7626 H   0  0  0  0  0  0
  -15.8670  -28.0821   22.7056 H   0  0  0  0  0  0
  -24.5912  -30.7054   25.7828 H   0  0  0  0  0  0
  -24.8928  -32.2875   26.4917 H   0  0  0  0  0  0
  -25.8087  -30.8900   27.0244 H   0  0  0  0  0  0
  -26.2872  -29.6781   24.1180 H   0  0  0  0  0  0
  -27.4008  -29.7247   25.4649 H   0  0  0  0  0  0
  -27.8743  -30.4296   23.9369 H   0  0  0  0  0  0
  -27.2642  -33.3610   26.2091 H   0  0  0  0  0  0
  -28.3848  -32.6896   25.0336 H   0  0  0  0  0  0
  -28.0712  -31.8444   26.5419 H   0  0  0  0  0  0
  -28.2599  -38.0102   24.7516 H   0  0  0  0  0  0
  -28.1070  -36.2638   24.6280 H   0  0  0  0  0  0
  -27.2307  -37.1448   25.8872 H   0  0  0  0  0  0
  -20.9329  -29.8774   21.6920 H   0  0  0  0  0  0
  -26.0176  -38.2873   24.1406 H   0  0  0  0  0  0
  -29.9671  -18.0475   22.2683 H   0  0  0  0  0  0
  -30.3435  -20.5689   18.7684 H   0  0  0  0  0  0
  -30.0764  -16.3218   18.3095 H   0  0  0  0  0  0
  -30.0813  -25.1917   22.2738 H   0  0  0  0  0  0
  -28.5713  -24.3274   22.5055 H   0  0  0  0  0  0
  -29.9973  -22.7041   23.3974 H   0  0  0  0  0  0
  -31.3567  -23.1943   22.3858 H   0  0  0  0  0  0
  -29.2672  -22.2910   19.3400 H   0  0  0  0  0  0
  -28.0349  -22.4044   20.5842 H   0  0  0  0  0  0
  -31.4903  -23.9658   20.0405 H   0  0  0  0  0  0
  -30.8959  -25.6142   19.8994 H   0  0  0  0  0  0
  -30.5224  -24.4357   18.6525 H   0  0  0  0  0  0
  -27.2676  -24.7997   20.4870 H   0  0  0  0  0  0
  -28.0122  -24.9271   18.9109 H   0  0  0  0  0  0
  -29.1372  -15.4451   21.4874 H   0  0  0  0  0  0
  -31.5711  -19.5002   22.6545 H   0  0  0  0  0  0
  -31.4436  -21.1315   23.2092 H   0  0  0  0  0  0
  1 25  1  0  0  0
  1 30  2  0  0  0
  1 85  1  0  0  0
  2  3  1  0  0  0
  2 25  1  0  0  0
  2 88  1  0  0  0
  2 89  1  0  0  0
  3  4  1  0  0  0
  3 90  1  0  0  0
  3 91  1  0  0  0
  4  5  1  0  0  0
  4 92  1  0  0  0
  4 93  1  0  0  0
  5  6  1  0  0  0
  5 26  1  0  0  0
  5 94  1  0  0  0
  6 25  1  0  0  0
  6 95  1  0  0  0
  6 96  1  0  0  0
  7  8  2  0  0  0
  7 26  1  0  0  0
  7 29  1  0  0  0
  8  9  1  0  0  0
  8 22  1  0  0  0
  9 10  1  0  0  0
  9 27  2  0  0  0
 10 11  2  0  0  0
 10 15  1  0  0  0
 11 12  1  0  0  0
 11 97  1  0  0  0
 12 13  2  0  0  0
 12 98  1  0  0  0
 13 14  1  0  0  0
 13 31  1  0  0  0
 14 15  2  0  0  0
 14 99  1  0  0  0
 15100  1  0  0  0
 16 17  2  0  0  0
 16 21  1  0  0  0
 16 31  1  0  0  0
 17 18  1  0  0  0
 17101  1  0  0  0
 18 19  2  0  0  0
 18102  1  0  0  0
 19 20  1  0  0  0
 19 24  1  0  0  0
 20 21  2  0  0  0
 20103  1  0  0  0
 21 23  1  0  0  0
 22 28  1  0  0  0
 22 32  2  0  0  0
 26 27  1  0  0  0
 28104  1  0  0  0
 28105  1  0  0  0
 29106  1  0  0  0
 29107  1  0  0  0
 33 34  1  0  0  0
 33 66  1  0  0  0
 33 70  2  0  0  0
 34 36  1  0  0  0
 34 59  1  0  0  0
 34108  1  0  0  0
 35 44  2  0  0  0
 35 45  1  0  0  0
 35 68  1  0  0  0
 36 56  1  0  0  0
 36109  1  0  0  0
 37 39  1  0  0  0
 37 47  1  0  0  0
 37 66  1  0  0  0
 37110  1  0  0  0
 38 43  2  0  0  0
 38 46  1  0  0  0
 38 47  1  0  0  0
 39 64  1  0  0  0
 39 67  2  0  0  0
 40 52  1  0  0  0
 40 53  2  0  0  0
 40 58  1  0  0  0
 41111  1  0  0  0
 41112  1  0  0  0
 41113  1  0  0  0
 41 48  1  0  0  0
 42 43  1  0  0  0
 42 66  1  0  0  0
 42114  1  0  0  0
 42115  1  0  0  0
 43 44  1  0  0  0
 44116  1  0  0  0
 45 46  2  0  0  0
 45117  1  0  0  0
 46118  1  0  0  0
 47119  1  0  0  0
 47120  1  0  0  0
 48 56  1  0  0  0
 48 65  1  0  0  0
 48121  1  0  0  0
 49 50  1  0  0  0
 49 53  1  0  0  0
 49 64  1  0  0  0
 49122  1  0  0  0
 50 51  1  0  0  0
 50123  1  0  0  0
 50124  1  0  0  0
 51 52  1  0  0  0
 51125  1  0  0  0
 51126  1  0  0  0
 52127  1  0  0  0
 52128  1  0  0  0
 53 54  1  0  0  0
 54 55  2  0  0  0
 54129  1  0  0  0
 55 57  1  0  0  0
 55130  1  0  0  0
 56 69  2  0  0  0
 57 58  2  0  0  0
 57131  1  0  0  0
 58132  1  0  0  0
 59 60  1  0  0  0
 59 61  1  0  0  0
 59 62  1  0  0  0
 60133  1  0  0  0
 60134  1  0  0  0
 60135  1  0  0  0
 61136  1  0  0  0
 61137  1  0  0  0
 61138  1  0  0  0
 62139  1  0  0  0
 62140  1  0  0  0
 62141  1  0  0  0
 63 65  1  0  0  0
 63142  1  0  0  0
 63143  1  0  0  0
 63144  1  0  0  0
 64145  1  0  0  0
 65146  1  0  0  0
 68 83  1  0  0  0
 71 74  2  0  0  0
 71 75  1  0  0  0
 71147  1  0  0  0
 72 74  1  0  0  0
 72 76  2  0  0  0
 72148  1  0  0  0
 73 75  2  0  0  0
 73 76  1  0  0  0
 73149  1  0  0  0
 74 77  1  0  0  0
 75 85  1  0  0  0
 76 87  1  0  0  0
 77 84  1  0  0  0
 77 86  2  0  0  0
 78 79  1  0  0  0
 78 81  1  0  0  0
 78150  1  0  0  0
 78151  1  0  0  0
 79 84  1  0  0  0
 79152  1  0  0  0
 79153  1  0  0  0
 80 81  1  0  0  0
 80 84  1  0  0  0
 80154  1  0  0  0
 80155  1  0  0  0
 81 82  1  0  0  0
 81 83  1  0  0  0
 82156  1  0  0  0
 82157  1  0  0  0
 82158  1  0  0  0
 83159  1  0  0  0
 83160  1  0  0  0
 85161  1  0  0  0
 86162  1  0  0  0
 86163  1  0  0  0
M  CHG  1  86   1
M  ISO  4   1 100  68 101  83 101  85 100
M  END
> <chiral flag>
0

> <version>
0

> <s_m_source_file>
/data/baiqing/PycharmProjects/Reinvent-master-3.2/result/LINK_invent/BTK/process_docking_weight1_custom_product_contain_oxygen_bond_distance_aromatic_linkinvent_7_9_3/rearranged_h_0145.sdf

> <i_m_source_file_index>
37

> <r_mmod_Potential_Energy-OPLS-2005>
-113.510223388672

> <r_mmod_Stretch_Energy-OPLS-2005>
62.0833320617676

> <r_mmod_Bend_Energy-OPLS-2005>
155.148361206055

> <r_mmod_Torsional_Energy-OPLS-2005>
308.6982421875

> <r_mmod_Improper_Torsional_Energy-OPLS-2005>
5.51445198059082

> <r_mmod_Van_der_Waal_Energy-OPLS-2005>
155.537612915039

> <r_mmod_Electrostatic_Energy-OPLS-2005>
-417.076446533203

> <r_mmod_Solvation_Energy-OPLS-2005>
-413.543853759766

> <b_mmod_Minimization_Converged-OPLS-2005>
0

> <r_mmod_RMS_Derivative-OPLS-2005>
1.42658972740173

$$$$
37
                    3D
 Structure written by MMmdl.
172181  0  0  1  0            999 V2000
  -30.7052  -14.5088   20.5531 C   0  0  0  0  0  0
  -30.4161  -12.3238   19.4344 C   0  0  0  0  0  0
  -29.4931  -12.4998   18.2114 C   0  0  0  0  0  0
  -28.0155  -12.3575   18.6245 C   0  0  0  0  0  0
  -27.6557  -13.2131   19.8693 C   0  0  2  0  0  0
  -28.6988  -13.0341   20.9961 C   0  0  0  0  0  0
  -25.2562  -13.8175   20.5682 C   0  0  0  0  0  0
  -24.1823  -13.0443   20.9183 C   0  0  0  0  0  0
  -24.6385  -11.6912   20.8738 C   0  0  0  0  0  0
  -23.9054  -10.4294   21.0402 C   0  0  0  0  0  0
  -24.3605   -9.4212   21.9180 C   0  0  0  0  0  0
  -23.6284   -8.2246   22.0753 C   0  0  0  0  0  0
  -22.4268   -8.0278   21.3542 C   0  0  0  0  0  0
  -21.9902   -9.0250   20.4643 C   0  0  0  0  0  0
  -22.7226  -10.2132   20.3053 C   0  0  0  0  0  0
  -21.6853   -6.0727   22.5272 C   0  0  0  0  0  0
  -21.4016   -6.5633   23.8203 C   0  0  0  0  0  0
  -21.3660   -5.6791   24.9167 C   0  0  0  0  0  0
  -21.6046   -4.3053   24.7223 C   0  0  0  0  0  0
  -21.8821   -3.8140   23.4345 C   0  0  0  0  0  0
  -21.9193   -4.6955   22.3400 C   0  0  0  0  0  0
  -22.7848  -13.5237   21.1848 C   0  0  0  0  0  0
  -22.1663   -4.2140   21.0977 F   0  0  0  0  0  0
  -21.5629   -3.4538   25.7737 F   0  0  0  0  0  0
  -30.0242  -13.3338   20.4333 N   0  0  0  0  0  0
  -26.2993  -12.9354   20.3347 N   0  0  0  0  0  0
  -25.9313  -11.6510   20.5769 N   0  0  0  0  0  0
  -22.0490  -12.8224   22.0401 N   0  0  0  0  0  0
  -25.4279  -15.1894   20.4073 N   0  0  0  0  0  0
  -31.8433  -14.6424   20.0964 O   0  0  0  0  0  0
  -21.6639   -6.8871   21.4236 O   0  0  0  0  0  0
  -22.3538  -14.5545   20.6699 O   0  0  0  0  0  0
  -24.6171  -31.8662   23.2084 C   0  0  0  0  0  0
  -25.9061  -32.4811   23.8383 C   0  0  1  0  0  0
  -27.2222  -27.4072   20.1001 C   0  0  0  0  0  0
  -25.5914  -33.8610   24.2318 N   0  0  0  0  0  0
  -23.4069  -30.4909   21.5488 C   0  0  2  0  0  0
  -24.8538  -28.9581   20.1101 C   0  0  0  0  0  0
  -22.7429  -29.4651   22.4971 C   0  0  0  0  0  0
  -18.0277  -28.1382   22.8491 C   0  0  0  0  0  0
  -24.1486  -36.7311   23.2641 C   0  0  0  0  0  0
  -25.9391  -30.8236   21.3670 C   0  0  0  0  0  0
  -26.0171  -29.4574   20.7119 C   0  0  0  0  0  0
  -27.2081  -28.6882   20.7063 C   0  0  0  0  0  0
  -26.0478  -26.9378   19.4780 C   0  0  0  0  0  0
  -24.8657  -27.6988   19.4880 C   0  0  0  0  0  0
  -23.6169  -29.8274   20.1622 C   0  0  0  0  0  0
  -25.4112  -36.3103   24.0333 C   0  0  1  0  0  0
  -20.5869  -28.3673   23.1308 C   0  0  2  0  0  0
  -20.6769  -26.9408   22.5414 C   0  0  0  0  0  0
  -19.5745  -26.6384   21.5215 C   0  0  0  0  0  0
  -18.1919  -26.7928   22.1624 C   0  0  0  0  0  0
  -19.1528  -28.8845   23.2893 C   0  0  0  0  0  0
  -18.9460  -30.1449   23.8909 C   0  0  0  0  0  0
  -17.6462  -30.6589   24.0566 C   0  0  0  0  0  0
  -25.9045  -34.9469   23.5122 C   0  0  0  0  0  0
  -16.5353  -29.9091   23.6330 C   0  0  0  0  0  0
  -16.7268  -28.6507   23.0354 C   0  0  0  0  0  0
  -26.4479  -31.6598   25.0721 C   0  0  0  0  0  0
  -25.3740  -31.3708   26.1467 C   0  0  0  0  0  0
  -27.0326  -30.3042   24.6116 C   0  0  0  0  0  0
  -27.6043  -32.4329   25.7493 C   0  0  0  0  0  0
  -27.5577  -37.1806   24.8468 C   0  0  0  0  0  0
  -21.4153  -29.3037   22.3716 N   0  0  0  0  0  0
  -26.4295  -37.3787   23.9406 N   0  0  0  0  0  0
  -24.6726  -31.0745   22.0996 N   0  0  0  0  0  0
  -23.4186  -28.8193   23.3023 O   0  0  0  0  0  0
  -28.3333  -26.5860   20.1285 O   0  0  0  0  0  0
  -26.5600  -34.8923   22.4680 O   0  0  0  0  0  0
  -23.5361  -32.1426   23.7470 O   0  0  0  0  0  0
  -31.2709  -19.5922   21.8180 C   0  0  0  0  0  0
  -29.5066  -18.0000   21.2715 C   0  0  0  0  0  0
  -31.8116  -17.2379   21.4691 C   0  0  0  0  0  0
  -29.9071  -19.3414   21.5578 C   0  0  0  0  0  0
  -32.2208  -18.5552   21.7525 C   0  0  0  0  0  0
  -30.4483  -16.9286   21.2342 C   0  0  0  0  0  0
  -28.9129  -20.4278   21.7726 C   0  0  0  0  0  0
  -29.9240  -23.7166   20.2621 C   0  0  0  0  0  0
  -30.0630  -22.1850   20.3798 C   0  0  0  0  0  0
  -28.4620  -24.0225   20.6201 C   0  0  2  0  0  0
  -28.2156  -22.9382   21.7500 C   0  0  0  0  0  0
  -33.6839  -18.8476   22.0213 C   0  0  0  0  0  0
  -27.5932  -23.7393   19.3685 C   0  0  0  0  0  0
  -26.6957  -22.6721   21.9308 C   0  0  0  0  0  0
  -28.7825  -23.3950   23.1169 C   0  0  0  0  0  0
  -28.2347  -25.5130   21.1004 C   0  0  0  0  0  0
  -28.9982  -21.7258   21.3078 N   0  0  0  0  0  0
  -30.0036  -15.5679   21.0327 N   0  0  0  0  0  0
  -27.8867  -20.0911   22.5477 N   0  3  0  0  0  0
  -31.4621  -12.4085   19.1342 H   0  0  0  0  0  0
  -30.3100  -11.3217   19.8538 H   0  0  0  0  0  0
  -29.7386  -11.7645   17.4440 H   0  0  0  0  0  0
  -29.6577  -13.4800   17.7607 H   0  0  0  0  0  0
  -27.8321  -11.3033   18.8347 H   0  0  0  0  0  0
  -27.3642  -12.6165   17.7890 H   0  0  0  0  0  0
  -27.6875  -14.2548   19.5497 H   0  0  0  0  0  0
  -28.6823  -12.0105   21.3731 H   0  0  0  0  0  0
  -28.4607  -13.6662   21.8527 H   0  0  0  0  0  0
  -25.2747   -9.5691   22.4754 H   0  0  0  0  0  0
  -23.9991   -7.4642   22.7476 H   0  0  0  0  0  0
  -21.0830   -8.8762   19.8951 H   0  0  0  0  0  0
  -22.3675  -10.9666   19.6159 H   0  0  0  0  0  0
  -21.2011   -7.6142   23.9702 H   0  0  0  0  0  0
  -21.1484   -6.0522   25.9070 H   0  0  0  0  0  0
  -22.0601   -2.7602   23.2847 H   0  0  0  0  0  0
  -22.4107  -11.9877   22.4774 H   0  0  0  0  0  0
  -21.1110  -13.1246   22.2613 H   0  0  0  0  0  0
  -24.6560  -15.8406   20.5014 H   0  0  0  0  0  0
  -26.2693  -15.6239   20.0507 H   0  0  0  0  0  0
  -26.7132  -32.5515   23.1144 H   0  0  0  0  0  0
  -25.0061  -33.9762   25.0464 H   0  0  0  0  0  0
  -22.6970  -31.3091   21.4105 H   0  0  0  0  0  0
  -23.3738  -35.9653   23.3320 H   0  0  0  0  0  0
  -24.3579  -36.8917   22.2052 H   0  0  0  0  0  0
  -23.7248  -37.6523   23.6655 H   0  0  0  0  0  0
  -26.0552  -31.5901   20.5995 H   0  0  0  0  0  0
  -26.8246  -30.8746   21.9887 H   0  0  0  0  0  0
  -28.1026  -29.0594   21.1862 H   0  0  0  0  0  0
  -26.0390  -25.9774   18.9876 H   0  0  0  0  0  0
  -23.9745  -27.3124   19.0125 H   0  0  0  0  0  0
  -23.7260  -30.6047   19.4047 H   0  0  0  0  0  0
  -22.7395  -29.2499   19.8660 H   0  0  0  0  0  0
  -25.1281  -36.1964   25.0823 H   0  0  0  0  0  0
  -20.9957  -28.3248   24.1432 H   0  0  0  0  0  0
  -20.5693  -26.2280   23.3604 H   0  0  0  0  0  0
  -21.6635  -26.7460   22.1196 H   0  0  0  0  0  0
  -19.6915  -25.6297   21.1240 H   0  0  0  0  0  0
  -19.6690  -27.3202   20.6751 H   0  0  0  0  0  0
  -17.4193  -26.6689   21.4021 H   0  0  0  0  0  0
  -18.0311  -26.0066   22.9015 H   0  0  0  0  0  0
  -19.7942  -30.7250   24.2291 H   0  0  0  0  0  0
  -17.5027  -31.6275   24.5157 H   0  0  0  0  0  0
  -15.5356  -30.2997   23.7655 H   0  0  0  0  0  0
  -15.8665  -28.0832   22.7066 H   0  0  0  0  0  0
  -24.5916  -30.7059   25.7799 H   0  0  0  0  0  0
  -24.8929  -32.2864   26.4919 H   0  0  0  0  0  0
  -25.8078  -30.8873   27.0228 H   0  0  0  0  0  0
  -26.2884  -29.6789   24.1173 H   0  0  0  0  0  0
  -27.4100  -29.7294   25.4583 H   0  0  0  0  0  0
  -27.8709  -30.4364   23.9272 H   0  0  0  0  0  0
  -27.2660  -33.3628   26.2080 H   0  0  0  0  0  0
  -28.3847  -32.6900   25.0319 H   0  0  0  0  0  0
  -28.0720  -31.8457   26.5407 H   0  0  0  0  0  0
  -28.2591  -38.0102   24.7499 H   0  0  0  0  0  0
  -28.1064  -36.2628   24.6303 H   0  0  0  0  0  0
  -27.2287  -37.1470   25.8868 H   0  0  0  0  0  0
  -20.9324  -29.8771   21.6943 H   0  0  0  0  0  0
  -26.0181  -38.2862   24.1406 H   0  0  0  0  0  0
  -31.5944  -20.5744   22.1293 H   0  0  0  0  0  0
  -28.4576  -17.7897   21.1128 H   0  0  0  0  0  0
  -32.5673  -16.4671   21.4755 H   0  0  0  0  0  0
  -30.1806  -24.0682   19.2623 H   0  0  0  0  0  0
  -30.6143  -24.2047   20.9501 H   0  0  0  0  0  0
  -31.0729  -21.9470   20.7024 H   0  0  0  0  0  0
  -29.9135  -21.7135   19.4073 H   0  0  0  0  0  0
  -33.8083  -19.7728   22.5848 H   0  0  0  0  0  0
  -34.2268  -18.9464   21.0807 H   0  0  0  0  0  0
  -34.1422  -18.0424   22.5965 H   0  0  0  0  0  0
  -27.6967  -22.7122   19.0179 H   0  0  0  0  0  0
  -27.8699  -24.3922   18.5404 H   0  0  0  0  0  0
  -26.5335  -23.8989   19.5614 H   0  0  0  0  0  0
  -26.1163  -23.5911   21.8478 H   0  0  0  0  0  0
  -26.4577  -22.2694   22.9151 H   0  0  0  0  0  0
  -26.3060  -21.9839   21.1800 H   0  0  0  0  0  0
  -28.2253  -24.2388   23.5245 H   0  0  0  0  0  0
  -29.8300  -23.6895   23.0592 H   0  0  0  0  0  0
  -28.7200  -22.6002   23.8599 H   0  0  0  0  0  0
  -28.9659  -25.7598   21.8703 H   0  0  0  0  0  0
  -27.2718  -25.5608   21.6127 H   0  0  0  0  0  0
  -29.0356  -15.3757   21.2384 H   0  0  0  0  0  0
  -27.8618  -19.1751   22.9684 H   0  0  0  0  0  0
  -27.1372  -20.7363   22.7255 H   0  0  0  0  0  0
  1 25  1  0  0  0
  1 30  2  0  0  0
  1 88  1  0  0  0
  2  3  1  0  0  0
  2 25  1  0  0  0
  2 90  1  0  0  0
  2 91  1  0  0  0
  3  4  1  0  0  0
  3 92  1  0  0  0
  3 93  1  0  0  0
  4  5  1  0  0  0
  4 94  1  0  0  0
  4 95  1  0  0  0
  5  6  1  0  0  0
  5 26  1  0  0  0
  5 96  1  0  0  0
  6 25  1  0  0  0
  6 97  1  0  0  0
  6 98  1  0  0  0
  7  8  2  0  0  0
  7 26  1  0  0  0
  7 29  1  0  0  0
  8  9  1  0  0  0
  8 22  1  0  0  0
  9 10  1  0  0  0
  9 27  2  0  0  0
 10 11  2  0  0  0
 10 15  1  0  0  0
 11 12  1  0  0  0
 11 99  1  0  0  0
 12 13  2  0  0  0
 12100  1  0  0  0
 13 14  1  0  0  0
 13 31  1  0  0  0
 14 15  2  0  0  0
 14101  1  0  0  0
 15102  1  0  0  0
 16 17  2  0  0  0
 16 21  1  0  0  0
 16 31  1  0  0  0
 17 18  1  0  0  0
 17103  1  0  0  0
 18 19  2  0  0  0
 18104  1  0  0  0
 19 20  1  0  0  0
 19 24  1  0  0  0
 20 21  2  0  0  0
 20105  1  0  0  0
 21 23  1  0  0  0
 22 28  1  0  0  0
 22 32  2  0  0  0
 26 27  1  0  0  0
 28106  1  0  0  0
 28107  1  0  0  0
 29108  1  0  0  0
 29109  1  0  0  0
 33 34  1  0  0  0
 33 66  1  0  0  0
 33 70  2  0  0  0
 34 36  1  0  0  0
 34 59  1  0  0  0
 34110  1  0  0  0
 35 44  2  0  0  0
 35 45  1  0  0  0
 35 68  1  0  0  0
 36 56  1  0  0  0
 36111  1  0  0  0
 37 39  1  0  0  0
 37 47  1  0  0  0
 37 66  1  0  0  0
 37112  1  0  0  0
 38 43  2  0  0  0
 38 46  1  0  0  0
 38 47  1  0  0  0
 39 64  1  0  0  0
 39 67  2  0  0  0
 40 52  1  0  0  0
 40 53  2  0  0  0
 40 58  1  0  0  0
 41113  1  0  0  0
 41114  1  0  0  0
 41115  1  0  0  0
 41 48  1  0  0  0
 42 43  1  0  0  0
 42 66  1  0  0  0
 42116  1  0  0  0
 42117  1  0  0  0
 43 44  1  0  0  0
 44118  1  0  0  0
 45 46  2  0  0  0
 45119  1  0  0  0
 46120  1  0  0  0
 47121  1  0  0  0
 47122  1  0  0  0
 48 56  1  0  0  0
 48 65  1  0  0  0
 48123  1  0  0  0
 49 50  1  0  0  0
 49 53  1  0  0  0
 49 64  1  0  0  0
 49124  1  0  0  0
 50 51  1  0  0  0
 50125  1  0  0  0
 50126  1  0  0  0
 51 52  1  0  0  0
 51127  1  0  0  0
 51128  1  0  0  0
 52129  1  0  0  0
 52130  1  0  0  0
 53 54  1  0  0  0
 54 55  2  0  0  0
 54131  1  0  0  0
 55 57  1  0  0  0
 55132  1  0  0  0
 56 69  2  0  0  0
 57 58  2  0  0  0
 57133  1  0  0  0
 58134  1  0  0  0
 59 60  1  0  0  0
 59 61  1  0  0  0
 59 62  1  0  0  0
 60135  1  0  0  0
 60136  1  0  0  0
 60137  1  0  0  0
 61138  1  0  0  0
 61139  1  0  0  0
 61140  1  0  0  0
 62141  1  0  0  0
 62142  1  0  0  0
 62143  1  0  0  0
 63 65  1  0  0  0
 63144  1  0  0  0
 63145  1  0  0  0
 63146  1  0  0  0
 64147  1  0  0  0
 65148  1  0  0  0
 68 86  1  0  0  0
 71 74  2  0  0  0
 71 75  1  0  0  0
 71149  1  0  0  0
 72 74  1  0  0  0
 72 76  2  0  0  0
 72150  1  0  0  0
 73 75  2  0  0  0
 73 76  1  0  0  0
 73151  1  0  0  0
 74 77  1  0  0  0
 75 82  1  0  0  0
 76 88  1  0  0  0
 77 87  1  0  0  0
 77 89  2  0  0  0
 78 79  1  0  0  0
 78 80  1  0  0  0
 78152  1  0  0  0
 78153  1  0  0  0
 79 87  1  0  0  0
 79154  1  0  0  0
 79155  1  0  0  0
 80 81  1  0  0  0
 80 83  1  0  0  0
 80 86  1  0  0  0
 81 84  1  0  0  0
 81 85  1  0  0  0
 81 87  1  0  0  0
 82156  1  0  0  0
 82157  1  0  0  0
 82158  1  0  0  0
 83159  1  0  0  0
 83160  1  0  0  0
 83161  1  0  0  0
 84162  1  0  0  0
 84163  1  0  0  0
 84164  1  0  0  0
 85165  1  0  0  0
 85166  1  0  0  0
 85167  1  0  0  0
 86168  1  0  0  0
 86169  1  0  0  0
 88170  1  0  0  0
 89171  1  0  0  0
 89172  1  0  0  0
M  CHG  1  89   1
M  ISO  4   1 100  68 101  86 101  88 100
M  END
> <chiral flag>
0

> <version>
0

> <s_m_source_file>
/data/baiqing/PycharmProjects/Reinvent-master-3.2/result/LINK_invent/BTK/process_docking_weight1_custom_product_contain_oxygen_bond_distance_aromatic_linkinvent_7_9_3/rearranged_h_0145.sdf

> <i_m_source_file_index>
38

> <r_mmod_Potential_Energy-OPLS-2005>
-34.8764114379883

> <r_mmod_Stretch_Energy-OPLS-2005>
58.4661903381348

> <r_mmod_Bend_Energy-OPLS-2005>
147.739822387695

> <r_mmod_Torsional_Energy-OPLS-2005>
345.747100830078

> <r_mmod_Improper_Torsional_Energy-OPLS-2005>
5.44813823699951

> <r_mmod_Van_der_Waal_Energy-OPLS-2005>
172.839477539062

> <r_mmod_Electrostatic_Energy-OPLS-2005>
-407.454010009766

> <r_mmod_Solvation_Energy-OPLS-2005>
-378.078674316406

> <b_mmod_Minimization_Converged-OPLS-2005>
0

> <r_mmod_RMS_Derivative-OPLS-2005>
1.05229508876801

$$$$
38
                    3D
 Structure written by MMmdl.
158166  0  0  1  0            999 V2000
  -30.6762  -14.4589   20.6180 C   0  0  0  0  0  0
  -30.4324  -12.3143   19.4122 C   0  0  0  0  0  0
  -29.5009  -12.5492   18.2030 C   0  0  0  0  0  0
  -28.0201  -12.3998   18.6062 C   0  0  0  0  0  0
  -27.6679  -13.2040   19.8853 C   0  0  2  0  0  0
  -28.7053  -12.9319   20.9987 C   0  0  0  0  0  0
  -25.2608  -13.8148   20.5678 C   0  0  0  0  0  0
  -24.1845  -13.0434   20.9160 C   0  0  0  0  0  0
  -24.6389  -11.6893   20.8685 C   0  0  0  0  0  0
  -23.9055  -10.4284   21.0373 C   0  0  0  0  0  0
  -24.3607   -9.4218   21.9167 C   0  0  0  0  0  0
  -23.6274   -8.2259   22.0753 C   0  0  0  0  0  0
  -22.4251   -8.0297   21.3551 C   0  0  0  0  0  0
  -21.9885   -9.0258   20.4662 C   0  0  0  0  0  0
  -22.7218  -10.2126   20.3041 C   0  0  0  0  0  0
  -21.6858   -6.0719   22.5275 C   0  0  0  0  0  0
  -21.4026   -6.5612   23.8207 C   0  0  0  0  0  0
  -21.3668   -5.6773   24.9168 C   0  0  0  0  0  0
  -21.6042   -4.3036   24.7223 C   0  0  0  0  0  0
  -21.8822   -3.8129   23.4347 C   0  0  0  0  0  0
  -21.9195   -4.6943   22.3399 C   0  0  0  0  0  0
  -22.7881  -13.5251   21.1821 C   0  0  0  0  0  0
  -22.1666   -4.2129   21.0973 F   0  0  0  0  0  0
  -21.5625   -3.4523   25.7746 F   0  0  0  0  0  0
  -30.0457  -13.2596   20.4722 N   0  0  0  0  0  0
  -26.3043  -12.9311   20.3372 N   0  0  0  0  0  0
  -25.9310  -11.6472   20.5700 N   0  0  0  0  0  0
  -22.0501  -12.8273   22.0382 N   0  0  0  0  0  0
  -25.4326  -15.1873   20.4094 N   0  0  0  0  0  0
  -31.7499  -14.7300   20.0686 O   0  0  0  0  0  0
  -21.6635   -6.8876   21.4245 O   0  0  0  0  0  0
  -22.3591  -14.5562   20.6662 O   0  0  0  0  0  0
  -24.6142  -31.8677   23.2079 C   0  0  0  0  0  0
  -25.9034  -32.4815   23.8395 C   0  0  1  0  0  0
  -27.2421  -27.4250   20.0765 C   0  0  0  0  0  0
  -25.5872  -33.8617   24.2322 N   0  0  0  0  0  0
  -23.4017  -30.4900   21.5488 C   0  0  2  0  0  0
  -24.8473  -28.9524   20.1152 C   0  0  0  0  0  0
  -22.7396  -29.4651   22.4978 C   0  0  0  0  0  0
  -18.0273  -28.1382   22.8474 C   0  0  0  0  0  0
  -24.1481  -36.7312   23.2635 C   0  0  0  0  0  0
  -25.9323  -30.8251   21.3659 C   0  0  0  0  0  0
  -26.0077  -29.4595   20.7109 C   0  0  0  0  0  0
  -27.2010  -28.6995   20.6935 C   0  0  0  0  0  0
  -26.0490  -26.9221   19.5042 C   0  0  0  0  0  0
  -24.8628  -27.6807   19.5174 C   0  0  0  0  0  0
  -23.6102  -29.8209   20.1644 C   0  0  0  0  0  0
  -25.4094  -36.3098   24.0335 C   0  0  1  0  0  0
  -20.5859  -28.3665   23.1303 C   0  0  2  0  0  0
  -20.6764  -26.9398   22.5409 C   0  0  0  0  0  0
  -19.5745  -26.6390   21.5195 C   0  0  0  0  0  0
  -18.1923  -26.7931   22.1606 C   0  0  0  0  0  0
  -19.1524  -28.8837   23.2892 C   0  0  0  0  0  0
  -18.9456  -30.1437   23.8916 C   0  0  0  0  0  0
  -17.6462  -30.6583   24.0563 C   0  0  0  0  0  0
  -25.9025  -34.9471   23.5130 C   0  0  0  0  0  0
  -16.5350  -29.9092   23.6318 C   0  0  0  0  0  0
  -16.7263  -28.6505   23.0339 C   0  0  0  0  0  0
  -26.4461  -31.6602   25.0733 C   0  0  0  0  0  0
  -25.3725  -31.3723   26.1486 C   0  0  0  0  0  0
  -27.0302  -30.3034   24.6146 C   0  0  0  0  0  0
  -27.6048  -32.4317   25.7494 C   0  0  0  0  0  0
  -27.5570  -37.1802   24.8452 C   0  0  0  0  0  0
  -21.4126  -29.3040   22.3715 N   0  0  0  0  0  0
  -26.4278  -37.3778   23.9405 N   0  0  0  0  0  0
  -24.6670  -31.0763   22.0988 N   0  0  0  0  0  0
  -23.4167  -28.8200   23.3025 O   0  0  0  0  0  0
  -28.4454  -26.7356   20.0925 O   0  0  0  0  0  0
  -26.5606  -34.8921   22.4706 O   0  0  0  0  0  0
  -23.5332  -32.1460   23.7454 O   0  0  0  0  0  0
  -29.9245  -18.8832   20.0159 C   0  0  0  0  0  0
  -27.8428  -18.3623   21.1539 C   0  0  0  0  0  0
  -30.4182  -17.5898   20.3377 C   0  0  0  0  0  0
  -28.3385  -17.0846   21.4873 C   0  0  0  0  0  0
  -28.6179  -19.2727   20.3988 C   0  0  0  0  0  0
  -29.6187  -16.6669   21.0596 C   0  0  0  0  0  0
  -28.0008  -20.5537   19.9765 C   0  0  0  0  0  0
  -28.0626  -23.0682   19.8126 C   0  0  0  0  0  0
  -29.8951  -25.9141   18.3954 C   0  0  0  0  0  0
  -28.9345  -24.2979   20.1508 C   0  0  0  0  0  0
  -28.6816  -25.5705   19.2746 C   0  0  1  0  0  0
  -30.0134  -15.3350   21.3976 N   0  0  0  0  0  0
  -28.6114  -21.7587   20.1331 N   0  0  0  0  0  0
  -26.7781  -20.4686   19.4393 N   0  3  0  0  0  0
  -26.9318  -23.1986   19.3262 O   0  0  0  0  0  0
  -31.4777  -12.4242   19.1166 H   0  0  0  0  0  0
  -30.3311  -11.2880   19.7710 H   0  0  0  0  0  0
  -29.7395  -11.8573   17.3952 H   0  0  0  0  0  0
  -29.6709  -13.5520   17.8040 H   0  0  0  0  0  0
  -27.8195  -11.3415   18.7697 H   0  0  0  0  0  0
  -27.3791  -12.7118   17.7805 H   0  0  0  0  0  0
  -27.7260  -14.2592   19.6241 H   0  0  0  0  0  0
  -28.6761  -11.8789   21.2846 H   0  0  0  0  0  0
  -28.4447  -13.4723   21.9098 H   0  0  0  0  0  0
  -25.2738   -9.5686   22.4759 H   0  0  0  0  0  0
  -23.9987   -7.4644   22.7450 H   0  0  0  0  0  0
  -21.0816   -8.8756   19.8968 H   0  0  0  0  0  0
  -22.3659  -10.9654   19.6155 H   0  0  0  0  0  0
  -21.2023   -7.6123   23.9708 H   0  0  0  0  0  0
  -21.1488   -6.0498   25.9067 H   0  0  0  0  0  0
  -22.0591   -2.7594   23.2853 H   0  0  0  0  0  0
  -22.4075  -11.9932   22.4795 H   0  0  0  0  0  0
  -21.1132  -13.1355   22.2574 H   0  0  0  0  0  0
  -24.6544  -15.8323   20.4872 H   0  0  0  0  0  0
  -26.2730  -15.6164   20.0461 H   0  0  0  0  0  0
  -26.7105  -32.5516   23.1157 H   0  0  0  0  0  0
  -24.9974  -33.9797   25.0431 H   0  0  0  0  0  0
  -22.6894  -31.3054   21.4086 H   0  0  0  0  0  0
  -23.3734  -35.9651   23.3299 H   0  0  0  0  0  0
  -24.3573  -36.8940   22.2048 H   0  0  0  0  0  0
  -23.7264  -37.6521   23.6672 H   0  0  0  0  0  0
  -26.0546  -31.5899   20.5981 H   0  0  0  0  0  0
  -26.8162  -30.8750   21.9895 H   0  0  0  0  0  0
  -28.0986  -29.0859   21.1563 H   0  0  0  0  0  0
  -25.9926  -25.9396   19.0602 H   0  0  0  0  0  0
  -23.9639  -27.2740   19.0745 H   0  0  0  0  0  0
  -23.7168  -30.5946   19.4030 H   0  0  0  0  0  0
  -22.7327  -29.2427   19.8696 H   0  0  0  0  0  0
  -25.1270  -36.1947   25.0825 H   0  0  0  0  0  0
  -20.9952  -28.3244   24.1419 H   0  0  0  0  0  0
  -20.5635  -26.2279   23.3598 H   0  0  0  0  0  0
  -21.6648  -26.7433   22.1224 H   0  0  0  0  0  0
  -19.6910  -25.6306   21.1215 H   0  0  0  0  0  0
  -19.6675  -27.3204   20.6723 H   0  0  0  0  0  0
  -17.4181  -26.6657   21.4020 H   0  0  0  0  0  0
  -18.0322  -26.0079   22.9006 H   0  0  0  0  0  0
  -19.7938  -30.7241   24.2301 H   0  0  0  0  0  0
  -17.5024  -31.6262   24.5166 H   0  0  0  0  0  0
  -15.5355  -30.3000   23.7642 H   0  0  0  0  0  0
  -15.8657  -28.0828   22.7066 H   0  0  0  0  0  0
  -24.5863  -30.7115   25.7816 H   0  0  0  0  0  0
  -24.8957  -32.2894   26.4955 H   0  0  0  0  0  0
  -25.8059  -30.8858   27.0233 H   0  0  0  0  0  0
  -26.2872  -29.6789   24.1172 H   0  0  0  0  0  0
  -27.4027  -29.7274   25.4629 H   0  0  0  0  0  0
  -27.8723  -30.4338   23.9346 H   0  0  0  0  0  0
  -27.2674  -33.3593   26.2132 H   0  0  0  0  0  0
  -28.3819  -32.6921   25.0294 H   0  0  0  0  0  0
  -28.0767  -31.8411   26.5359 H   0  0  0  0  0  0
  -28.2578  -38.0103   24.7498 H   0  0  0  0  0  0
  -28.1079  -36.2645   24.6263 H   0  0  0  0  0  0
  -27.2308  -37.1434   25.8859 H   0  0  0  0  0  0
  -20.9272  -29.8769   21.6956 H   0  0  0  0  0  0
  -26.0161  -38.2851   24.1407 H   0  0  0  0  0  0
  -30.5434  -19.5495   19.4312 H   0  0  0  0  0  0
  -26.8438  -18.6328   21.4687 H   0  0  0  0  0  0
  -31.4113  -17.3114   20.0110 H   0  0  0  0  0  0
  -27.7008  -16.4180   22.0520 H   0  0  0  0  0  0
  -30.1291  -25.0951   17.7142 H   0  0  0  0  0  0
  -30.7837  -26.1177   18.9939 H   0  0  0  0  0  0
  -29.6999  -26.7973   17.7860 H   0  0  0  0  0  0
  -29.9842  -24.0078   20.0952 H   0  0  0  0  0  0
  -28.7495  -24.5408   21.1970 H   0  0  0  0  0  0
  -27.8878  -25.3918   18.5557 H   0  0  0  0  0  0
  -29.3422  -14.8558   21.9765 H   0  0  0  0  0  0
  -29.5233  -21.6591   20.5517 H   0  0  0  0  0  0
  -26.3478  -19.5741   19.2662 H   0  0  0  0  0  0
  -26.3099  -21.3241   19.1649 H   0  0  0  0  0  0
  1 25  1  0  0  0
  1 30  2  0  0  0
  1 82  1  0  0  0
  2  3  1  0  0  0
  2 25  1  0  0  0
  2 86  1  0  0  0
  2 87  1  0  0  0
  3  4  1  0  0  0
  3 88  1  0  0  0
  3 89  1  0  0  0
  4  5  1  0  0  0
  4 90  1  0  0  0
  4 91  1  0  0  0
  5  6  1  0  0  0
  5 26  1  0  0  0
  5 92  1  0  0  0
  6 25  1  0  0  0
  6 93  1  0  0  0
  6 94  1  0  0  0
  7  8  2  0  0  0
  7 26  1  0  0  0
  7 29  1  0  0  0
  8  9  1  0  0  0
  8 22  1  0  0  0
  9 10  1  0  0  0
  9 27  2  0  0  0
 10 11  2  0  0  0
 10 15  1  0  0  0
 11 12  1  0  0  0
 11 95  1  0  0  0
 12 13  2  0  0  0
 12 96  1  0  0  0
 13 14  1  0  0  0
 13 31  1  0  0  0
 14 15  2  0  0  0
 14 97  1  0  0  0
 15 98  1  0  0  0
 16 17  2  0  0  0
 16 21  1  0  0  0
 16 31  1  0  0  0
 17 18  1  0  0  0
 17 99  1  0  0  0
 18 19  2  0  0  0
 18100  1  0  0  0
 19 20  1  0  0  0
 19 24  1  0  0  0
 20 21  2  0  0  0
 20101  1  0  0  0
 21 23  1  0  0  0
 22 28  1  0  0  0
 22 32  2  0  0  0
 26 27  1  0  0  0
 28102  1  0  0  0
 28103  1  0  0  0
 29104  1  0  0  0
 29105  1  0  0  0
 33 34  1  0  0  0
 33 66  1  0  0  0
 33 70  2  0  0  0
 34 36  1  0  0  0
 34 59  1  0  0  0
 34106  1  0  0  0
 35 44  2  0  0  0
 35 45  1  0  0  0
 35 68  1  0  0  0
 36 56  1  0  0  0
 36107  1  0  0  0
 37 39  1  0  0  0
 37 47  1  0  0  0
 37 66  1  0  0  0
 37108  1  0  0  0
 38 43  2  0  0  0
 38 46  1  0  0  0
 38 47  1  0  0  0
 39 64  1  0  0  0
 39 67  2  0  0  0
 40 52  1  0  0  0
 40 53  2  0  0  0
 40 58  1  0  0  0
 41109  1  0  0  0
 41110  1  0  0  0
 41111  1  0  0  0
 41 48  1  0  0  0
 42 43  1  0  0  0
 42 66  1  0  0  0
 42112  1  0  0  0
 42113  1  0  0  0
 43 44  1  0  0  0
 44114  1  0  0  0
 45 46  2  0  0  0
 45115  1  0  0  0
 46116  1  0  0  0
 47117  1  0  0  0
 47118  1  0  0  0
 48 56  1  0  0  0
 48 65  1  0  0  0
 48119  1  0  0  0
 49 50  1  0  0  0
 49 53  1  0  0  0
 49 64  1  0  0  0
 49120  1  0  0  0
 50 51  1  0  0  0
 50121  1  0  0  0
 50122  1  0  0  0
 51 52  1  0  0  0
 51123  1  0  0  0
 51124  1  0  0  0
 52125  1  0  0  0
 52126  1  0  0  0
 53 54  1  0  0  0
 54 55  2  0  0  0
 54127  1  0  0  0
 55 57  1  0  0  0
 55128  1  0  0  0
 56 69  2  0  0  0
 57 58  2  0  0  0
 57129  1  0  0  0
 58130  1  0  0  0
 59 60  1  0  0  0
 59 61  1  0  0  0
 59 62  1  0  0  0
 60131  1  0  0  0
 60132  1  0  0  0
 60133  1  0  0  0
 61134  1  0  0  0
 61135  1  0  0  0
 61136  1  0  0  0
 62137  1  0  0  0
 62138  1  0  0  0
 62139  1  0  0  0
 63 65  1  0  0  0
 63140  1  0  0  0
 63141  1  0  0  0
 63142  1  0  0  0
 64143  1  0  0  0
 65144  1  0  0  0
 68 81  1  0  0  0
 71 73  2  0  0  0
 71 75  1  0  0  0
 71145  1  0  0  0
 72 74  1  0  0  0
 72 75  2  0  0  0
 72146  1  0  0  0
 73 76  1  0  0  0
 73147  1  0  0  0
 74 76  2  0  0  0
 74148  1  0  0  0
 75 77  1  0  0  0
 76 82  1  0  0  0
 77 83  1  0  0  0
 77 84  2  0  0  0
 78 80  1  0  0  0
 78 83  1  0  0  0
 78 85  2  0  0  0
 79149  1  0  0  0
 79150  1  0  0  0
 79151  1  0  0  0
 79 81  1  0  0  0
 80 81  1  0  0  0
 80152  1  0  0  0
 80153  1  0  0  0
 81154  1  0  0  0
 82155  1  0  0  0
 83156  1  0  0  0
 84157  1  0  0  0
 84158  1  0  0  0
M  CHG  1  84   1
M  ISO  4   1 100  68 101  81 101  82 100
M  END
> <chiral flag>
0

> <version>
0

> <s_m_source_file>
/data/baiqing/PycharmProjects/Reinvent-master-3.2/result/LINK_invent/BTK/process_docking_weight1_custom_product_contain_oxygen_bond_distance_aromatic_linkinvent_7_9_3/rearranged_h_0145.sdf

> <i_m_source_file_index>
39

> <r_mmod_Potential_Energy-OPLS-2005>
-285.82861328125

> <r_mmod_Stretch_Energy-OPLS-2005>
43.3595390319824

> <r_mmod_Bend_Energy-OPLS-2005>
125.581962585449

> <r_mmod_Torsional_Energy-OPLS-2005>
224.756881713867

> <r_mmod_Improper_Torsional_Energy-OPLS-2005>
5.69510555267334

> <r_mmod_Van_der_Waal_Energy-OPLS-2005>
163.076950073242

> <r_mmod_Electrostatic_Energy-OPLS-2005>
-412.643218994141

> <r_mmod_Solvation_Energy-OPLS-2005>
-447.843963623047

> <b_mmod_Minimization_Converged-OPLS-2005>
0

> <r_mmod_RMS_Derivative-OPLS-2005>
2.6509895324707

$$$$
39
                    3D
 Structure written by MMmdl.
157166  0  0  1  0            999 V2000
  -30.6302  -14.8198   20.4176 C   0  0  0  0  0  0
  -30.4420  -12.4991   19.4779 C   0  0  0  0  0  0
  -29.5177  -12.5277   18.2429 C   0  0  0  0  0  0
  -28.0464  -12.3366   18.6591 C   0  0  0  0  0  0
  -27.6467  -13.2444   19.8523 C   0  0  2  0  0  0
  -28.7010  -13.2173   20.9838 C   0  0  0  0  0  0
  -25.2505  -13.8224   20.5669 C   0  0  0  0  0  0
  -24.1801  -13.0457   20.9196 C   0  0  0  0  0  0
  -24.6431  -11.6936   20.8747 C   0  0  0  0  0  0
  -23.9096  -10.4317   21.0407 C   0  0  0  0  0  0
  -24.3633   -9.4222   21.9185 C   0  0  0  0  0  0
  -23.6316   -8.2245   22.0742 C   0  0  0  0  0  0
  -22.4301   -8.0287   21.3526 C   0  0  0  0  0  0
  -21.9938   -9.0273   20.4652 C   0  0  0  0  0  0
  -22.7264  -10.2159   20.3065 C   0  0  0  0  0  0
  -21.6871   -6.0741   22.5271 C   0  0  0  0  0  0
  -21.4051   -6.5638   23.8207 C   0  0  0  0  0  0
  -21.3671   -5.6788   24.9172 C   0  0  0  0  0  0
  -21.6037   -4.3037   24.7217 C   0  0  0  0  0  0
  -21.8816   -3.8145   23.4325 C   0  0  0  0  0  0
  -21.9196   -4.6963   22.3395 C   0  0  0  0  0  0
  -22.7821  -13.5224   21.1818 C   0  0  0  0  0  0
  -22.1644   -4.2148   21.0969 F   0  0  0  0  0  0
  -21.5621   -3.4520   25.7723 F   0  0  0  0  0  0
  -29.9983  -13.5825   20.3915 N   0  0  0  0  0  0
  -26.2987  -12.9470   20.3323 N   0  0  0  0  0  0
  -25.9377  -11.6602   20.5772 N   0  0  0  0  0  0
  -22.0449  -12.8292   22.0420 N   0  0  0  0  0  0
  -25.4053  -15.1966   20.4001 N   0  0  0  0  0  0
  -31.8269  -14.8702   20.1223 O   0  0  0  0  0  0
  -21.6661   -6.8881   21.4243 O   0  0  0  0  0  0
  -22.3485  -14.5493   20.6590 O   0  0  0  0  0  0
  -24.6342  -31.8508   23.1924 C   0  0  0  0  0  0
  -25.9107  -32.4759   23.8320 C   0  0  1  0  0  0
  -27.2141  -27.2231   20.1118 C   0  0  0  0  0  0
  -25.5828  -33.8534   24.2237 N   0  0  0  0  0  0
  -23.4381  -30.4705   21.5408 C   0  0  2  0  0  0
  -24.8839  -28.9176   20.1065 C   0  0  0  0  0  0
  -22.7538  -29.4546   22.4900 C   0  0  0  0  0  0
  -18.0273  -28.1378   22.8514 C   0  0  0  0  0  0
  -24.1457  -36.7281   23.2659 C   0  0  0  0  0  0
  -25.9876  -30.7548   21.3731 C   0  0  0  0  0  0
  -26.0588  -29.3733   20.7162 C   0  0  0  0  0  0
  -27.2293  -28.5393   20.7056 C   0  0  0  0  0  0
  -26.0112  -26.8504   19.4721 C   0  0  0  0  0  0
  -24.8666  -27.6675   19.4739 C   0  0  0  0  0  0
  -23.6567  -29.8056   20.1583 C   0  0  0  0  0  0
  -25.4075  -36.3058   24.0356 C   0  0  1  0  0  0
  -20.5897  -28.3662   23.1276 C   0  0  2  0  0  0
  -20.6723  -26.9345   22.5440 C   0  0  0  0  0  0
  -19.5694  -26.6346   21.5238 C   0  0  0  0  0  0
  -18.1888  -26.7914   22.1664 C   0  0  0  0  0  0
  -19.1536  -28.8834   23.2911 C   0  0  0  0  0  0
  -18.9444  -30.1428   23.8947 C   0  0  0  0  0  0
  -17.6437  -30.6583   24.0529 C   0  0  0  0  0  0
  -25.9029  -34.9440   23.5140 C   0  0  0  0  0  0
  -16.5333  -29.9092   23.6281 C   0  0  0  0  0  0
  -16.7260  -28.6491   23.0360 C   0  0  0  0  0  0
  -26.4394  -31.6588   25.0743 C   0  0  0  0  0  0
  -25.3564  -31.3762   26.1447 C   0  0  0  0  0  0
  -27.0205  -30.3009   24.6214 C   0  0  0  0  0  0
  -27.5975  -32.4307   25.7489 C   0  0  0  0  0  0
  -27.5562  -37.1770   24.8457 C   0  0  0  0  0  0
  -21.4232  -29.3020   22.3665 N   0  0  0  0  0  0
  -26.4257  -37.3766   23.9434 N   0  0  0  0  0  0
  -24.7089  -31.0427   22.0936 N   0  0  0  0  0  0
  -23.4228  -28.8045   23.2965 O   0  0  0  0  0  0
  -28.2903  -26.2924   20.1703 O   0  0  0  0  0  0
  -26.5675  -34.8914   22.4755 O   0  0  0  0  0  0
  -23.5469  -32.1342   23.7166 O   0  0  0  0  0  0
  -31.0439  -19.3709   19.7005 C   0  0  0  0  0  0
  -31.2422  -17.9394   19.7873 C   0  0  0  0  0  0
  -29.8078  -19.6699   20.2174 C   0  0  0  0  0  0
  -30.1188  -17.3685   20.3478 C   0  0  0  0  0  0
  -29.2811  -23.2027   21.5879 C   0  0  0  0  0  0
  -29.8990  -21.7797   21.6039 C   0  0  0  0  0  0
  -28.8271  -22.0801   19.5571 C   0  0  0  0  0  0
  -29.1194  -23.5859   20.1072 C   0  0  1  0  0  0
  -30.9768  -25.1589   19.7955 C   0  0  0  0  0  0
  -28.0710  -24.8275   19.8105 C   0  0  0  0  0  0
  -29.2849  -21.0078   20.5266 N   0  0  0  0  0  0
  -29.8692  -15.9853   20.5862 N   0  0  0  0  0  0
  -29.2294  -18.4423   20.6369 O   0  0  0  0  0  0
  -30.4019  -23.8789   19.5319 O   0  0  0  0  0  0
  -31.4780  -12.6187   19.1568 H   0  0  0  0  0  0
  -30.3963  -11.5295   19.9765 H   0  0  0  0  0  0
  -29.8171  -11.7548   17.5339 H   0  0  0  0  0  0
  -29.6248  -13.4853   17.7307 H   0  0  0  0  0  0
  -27.9098  -11.2889   18.9284 H   0  0  0  0  0  0
  -27.3906  -12.5187   17.8089 H   0  0  0  0  0  0
  -27.6301  -14.2592   19.4557 H   0  0  0  0  0  0
  -28.7477  -12.2320   21.4539 H   0  0  0  0  0  0
  -28.4284  -13.9160   21.7759 H   0  0  0  0  0  0
  -25.2786   -9.5718   22.4757 H   0  0  0  0  0  0
  -24.0022   -7.4665   22.7482 H   0  0  0  0  0  0
  -21.0843   -8.8832   19.8992 H   0  0  0  0  0  0
  -22.3728  -10.9692   19.6174 H   0  0  0  0  0  0
  -21.2065   -7.6149   23.9729 H   0  0  0  0  0  0
  -21.1493   -6.0501   25.9079 H   0  0  0  0  0  0
  -22.0587   -2.7596   23.2831 H   0  0  0  0  0  0
  -22.4080  -12.0026   22.4928 H   0  0  0  0  0  0
  -21.1058  -13.1335   22.2560 H   0  0  0  0  0  0
  -24.6172  -15.8282   20.4932 H   0  0  0  0  0  0
  -26.2309  -15.6499   20.0296 H   0  0  0  0  0  0
  -26.7195  -32.5386   23.1079 H   0  0  0  0  0  0
  -24.9651  -33.9618   25.0151 H   0  0  0  0  0  0
  -22.7379  -31.2944   21.3917 H   0  0  0  0  0  0
  -23.3740  -35.9599   23.3289 H   0  0  0  0  0  0
  -24.3561  -36.8942   22.2085 H   0  0  0  0  0  0
  -23.7179  -37.6463   23.6700 H   0  0  0  0  0  0
  -26.1151  -31.5043   20.5906 H   0  0  0  0  0  0
  -26.8758  -30.8223   21.9915 H   0  0  0  0  0  0
  -28.1285  -28.8847   21.1974 H   0  0  0  0  0  0
  -25.9103  -25.8964   18.9762 H   0  0  0  0  0  0
  -23.9655  -27.3203   18.9878 H   0  0  0  0  0  0
  -23.7667  -30.5817   19.3993 H   0  0  0  0  0  0
  -22.7812  -29.2259   19.8642 H   0  0  0  0  0  0
  -25.1241  -36.1928   25.0856 H   0  0  0  0  0  0
  -21.0008  -28.3217   24.1388 H   0  0  0  0  0  0
  -20.5532  -26.2239   23.3644 H   0  0  0  0  0  0
  -21.6575  -26.7264   22.1248 H   0  0  0  0  0  0
  -19.6785  -25.6256   21.1244 H   0  0  0  0  0  0
  -19.6645  -27.3167   20.6778 H   0  0  0  0  0  0
  -17.4118  -26.6664   21.4108 H   0  0  0  0  0  0
  -18.0290  -26.0093   22.9094 H   0  0  0  0  0  0
  -19.7913  -30.7223   24.2397 H   0  0  0  0  0  0
  -17.4978  -31.6284   24.5094 H   0  0  0  0  0  0
  -15.5333  -30.2998   23.7572 H   0  0  0  0  0  0
  -15.8661  -28.0807   22.7086 H   0  0  0  0  0  0
  -24.5746  -30.7118   25.7749 H   0  0  0  0  0  0
  -24.8697  -32.2921   26.4824 H   0  0  0  0  0  0
  -25.7810  -30.8945   27.0268 H   0  0  0  0  0  0
  -26.2778  -29.6836   24.1161 H   0  0  0  0  0  0
  -27.3801  -29.7209   25.4716 H   0  0  0  0  0  0
  -27.8682  -30.4322   23.9494 H   0  0  0  0  0  0
  -27.2632  -33.3620   26.2080 H   0  0  0  0  0  0
  -28.3733  -32.6871   25.0260 H   0  0  0  0  0  0
  -28.0692  -31.8421   26.5369 H   0  0  0  0  0  0
  -28.2551  -38.0083   24.7505 H   0  0  0  0  0  0
  -28.1069  -36.2618   24.6247 H   0  0  0  0  0  0
  -27.2290  -37.1375   25.8859 H   0  0  0  0  0  0
  -20.9412  -29.8810   21.6931 H   0  0  0  0  0  0
  -26.0147  -38.2844   24.1478 H   0  0  0  0  0  0
  -31.7569  -20.0979   19.3347 H   0  0  0  0  0  0
  -32.1289  -17.4016   19.4761 H   0  0  0  0  0  0
  -29.8745  -23.9214   22.1523 H   0  0  0  0  0  0
  -28.2997  -23.1627   22.0671 H   0  0  0  0  0  0
  -29.7430  -21.2966   22.5682 H   0  0  0  0  0  0
  -30.9744  -21.8488   21.4332 H   0  0  0  0  0  0
  -29.2563  -21.9269   18.5628 H   0  0  0  0  0  0
  -27.7493  -21.9598   19.4407 H   0  0  0  0  0  0
  -32.0286  -25.1465   19.5102 H   0  0  0  0  0  0
  -30.9260  -25.4373   20.8482 H   0  0  0  0  0  0
  -30.5149  -25.9456   19.1965 H   0  0  0  0  0  0
  -27.1325  -24.5238   20.2733 H   0  0  0  0  0  0
  -27.8656  -24.8129   18.7404 H   0  0  0  0  0  0
  -28.9261  -15.7848   20.8749 H   0  0  0  0  0  0
  1 25  1  0  0  0
  1 30  2  0  0  0
  1 82  1  0  0  0
  2  3  1  0  0  0
  2 25  1  0  0  0
  2 85  1  0  0  0
  2 86  1  0  0  0
  3  4  1  0  0  0
  3 87  1  0  0  0
  3 88  1  0  0  0
  4  5  1  0  0  0
  4 89  1  0  0  0
  4 90  1  0  0  0
  5  6  1  0  0  0
  5 26  1  0  0  0
  5 91  1  0  0  0
  6 25  1  0  0  0
  6 92  1  0  0  0
  6 93  1  0  0  0
  7  8  2  0  0  0
  7 26  1  0  0  0
  7 29  1  0  0  0
  8  9  1  0  0  0
  8 22  1  0  0  0
  9 10  1  0  0  0
  9 27  2  0  0  0
 10 11  2  0  0  0
 10 15  1  0  0  0
 11 12  1  0  0  0
 11 94  1  0  0  0
 12 13  2  0  0  0
 12 95  1  0  0  0
 13 14  1  0  0  0
 13 31  1  0  0  0
 14 15  2  0  0  0
 14 96  1  0  0  0
 15 97  1  0  0  0
 16 17  2  0  0  0
 16 21  1  0  0  0
 16 31  1  0  0  0
 17 18  1  0  0  0
 17 98  1  0  0  0
 18 19  2  0  0  0
 18 99  1  0  0  0
 19 20  1  0  0  0
 19 24  1  0  0  0
 20 21  2  0  0  0
 20100  1  0  0  0
 21 23  1  0  0  0
 22 28  1  0  0  0
 22 32  2  0  0  0
 26 27  1  0  0  0
 28101  1  0  0  0
 28102  1  0  0  0
 29103  1  0  0  0
 29104  1  0  0  0
 33 34  1  0  0  0
 33 66  1  0  0  0
 33 70  2  0  0  0
 34 36  1  0  0  0
 34 59  1  0  0  0
 34105  1  0  0  0
 35 44  2  0  0  0
 35 45  1  0  0  0
 35 68  1  0  0  0
 36 56  1  0  0  0
 36106  1  0  0  0
 37 39  1  0  0  0
 37 47  1  0  0  0
 37 66  1  0  0  0
 37107  1  0  0  0
 38 43  2  0  0  0
 38 46  1  0  0  0
 38 47  1  0  0  0
 39 64  1  0  0  0
 39 67  2  0  0  0
 40 52  1  0  0  0
 40 53  2  0  0  0
 40 58  1  0  0  0
 41108  1  0  0  0
 41109  1  0  0  0
 41110  1  0  0  0
 41 48  1  0  0  0
 42 43  1  0  0  0
 42 66  1  0  0  0
 42111  1  0  0  0
 42112  1  0  0  0
 43 44  1  0  0  0
 44113  1  0  0  0
 45 46  2  0  0  0
 45114  1  0  0  0
 46115  1  0  0  0
 47116  1  0  0  0
 47117  1  0  0  0
 48 56  1  0  0  0
 48 65  1  0  0  0
 48118  1  0  0  0
 49 50  1  0  0  0
 49 53  1  0  0  0
 49 64  1  0  0  0
 49119  1  0  0  0
 50 51  1  0  0  0
 50120  1  0  0  0
 50121  1  0  0  0
 51 52  1  0  0  0
 51122  1  0  0  0
 51123  1  0  0  0
 52124  1  0  0  0
 52125  1  0  0  0
 53 54  1  0  0  0
 54 55  2  0  0  0
 54126  1  0  0  0
 55 57  1  0  0  0
 55127  1  0  0  0
 56 69  2  0  0  0
 57 58  2  0  0  0
 57128  1  0  0  0
 58129  1  0  0  0
 59 60  1  0  0  0
 59 61  1  0  0  0
 59 62  1  0  0  0
 60130  1  0  0  0
 60131  1  0  0  0
 60132  1  0  0  0
 61133  1  0  0  0
 61134  1  0  0  0
 61135  1  0  0  0
 62136  1  0  0  0
 62137  1  0  0  0
 62138  1  0  0  0
 63 65  1  0  0  0
 63139  1  0  0  0
 63140  1  0  0  0
 63141  1  0  0  0
 64142  1  0  0  0
 65143  1  0  0  0
 68 80  1  0  0  0
 71 72  1  0  0  0
 71 73  2  0  0  0
 71144  1  0  0  0
 72 74  2  0  0  0
 72145  1  0  0  0
 73 81  1  0  0  0
 73 83  1  0  0  0
 74 82  1  0  0  0
 74 83  1  0  0  0
 75 76  1  0  0  0
 75 78  1  0  0  0
 75146  1  0  0  0
 75147  1  0  0  0
 76 81  1  0  0  0
 76148  1  0  0  0
 76149  1  0  0  0
 77 78  1  0  0  0
 77 81  1  0  0  0
 77150  1  0  0  0
 77151  1  0  0  0
 78 80  1  0  0  0
 78 84  1  0  0  0
 79 84  1  0  0  0
 79152  1  0  0  0
 79153  1  0  0  0
 79154  1  0  0  0
 80155  1  0  0  0
 80156  1  0  0  0
 82157  1  0  0  0
M  ISO  4   1 100  68 101  80 101  82 100
M  END
> <chiral flag>
0

> <version>
0

> <s_m_source_file>
/data/baiqing/PycharmProjects/Reinvent-master-3.2/result/LINK_invent/BTK/process_docking_weight1_custom_product_contain_oxygen_bond_distance_aromatic_linkinvent_7_9_3/rearranged_h_0145.sdf

> <i_m_source_file_index>
40

> <r_mmod_Potential_Energy-OPLS-2005>
335.864898681641

> <r_mmod_Stretch_Energy-OPLS-2005>
152.915008544922

> <r_mmod_Bend_Energy-OPLS-2005>
238.392608642578

> <r_mmod_Torsional_Energy-OPLS-2005>
308.922912597656

> <r_mmod_Improper_Torsional_Energy-OPLS-2005>
9.13643932342529

> <r_mmod_Van_der_Waal_Energy-OPLS-2005>
120.282295227051

> <r_mmod_Electrostatic_Energy-OPLS-2005>
-379.233703613281

> <r_mmod_Solvation_Energy-OPLS-2005>
-230.268493652344

> <b_mmod_Minimization_Converged-OPLS-2005>
0

> <r_mmod_RMS_Derivative-OPLS-2005>
4.70744800567627

$$$$
40
                    3D
 Structure written by MMmdl.
177185  0  0  1  0            999 V2000
  -30.6824  -14.4671   20.4344 C   0  0  0  0  0  0
  -30.4096  -12.2701   19.4170 C   0  0  0  0  0  0
  -29.4880  -12.4564   18.1953 C   0  0  0  0  0  0
  -28.0069  -12.3448   18.6065 C   0  0  0  0  0  0
  -27.6490  -13.2024   19.8509 C   0  0  2  0  0  0
  -28.6958  -13.0258   20.9750 C   0  0  0  0  0  0
  -25.2601  -13.8158   20.5699 C   0  0  0  0  0  0
  -24.1854  -13.0432   20.9227 C   0  0  0  0  0  0
  -24.6363  -11.6895   20.8700 C   0  0  0  0  0  0
  -23.9022  -10.4274   21.0349 C   0  0  0  0  0  0
  -24.3589   -9.4221   21.9148 C   0  0  0  0  0  0
  -23.6281   -8.2252   22.0741 C   0  0  0  0  0  0
  -22.4254   -8.0269   21.3557 C   0  0  0  0  0  0
  -21.9880   -9.0211   20.4634 C   0  0  0  0  0  0
  -22.7181  -10.2103   20.3018 C   0  0  0  0  0  0
  -21.6849   -6.0714   22.5274 C   0  0  0  0  0  0
  -21.4013   -6.5625   23.8202 C   0  0  0  0  0  0
  -21.3666   -5.6792   24.9166 C   0  0  0  0  0  0
  -21.6046   -4.3058   24.7227 C   0  0  0  0  0  0
  -21.8826   -3.8137   23.4350 C   0  0  0  0  0  0
  -21.9211   -4.6947   22.3399 C   0  0  0  0  0  0
  -22.7893  -13.5266   21.1878 C   0  0  0  0  0  0
  -22.1672   -4.2138   21.0978 F   0  0  0  0  0  0
  -21.5634   -3.4535   25.7741 F   0  0  0  0  0  0
  -30.0213  -13.2859   20.4036 N   0  0  0  0  0  0
  -26.2953  -12.9282   20.3222 N   0  0  0  0  0  0
  -25.9281  -11.6451   20.5693 N   0  0  0  0  0  0
  -22.0496  -12.8220   22.0369 N   0  0  0  0  0  0
  -25.4360  -15.1861   20.4098 N   0  0  0  0  0  0
  -31.8966  -14.5568   20.2410 O   0  0  0  0  0  0
  -21.6650   -6.8843   21.4231 O   0  0  0  0  0  0
  -22.3578  -14.5553   20.6686 O   0  0  0  0  0  0
  -24.6161  -31.8654   23.2111 C   0  0  0  0  0  0
  -25.9046  -32.4836   23.8425 C   0  0  1  0  0  0
  -27.2471  -27.4507   20.1100 C   0  0  0  0  0  0
  -25.5926  -33.8621   24.2375 N   0  0  0  0  0  0
  -23.4001  -30.4911   21.5452 C   0  0  2  0  0  0
  -24.8537  -28.9571   20.1106 C   0  0  0  0  0  0
  -22.7408  -29.4649   22.4948 C   0  0  0  0  0  0
  -18.0263  -28.1390   22.8472 C   0  0  0  0  0  0
  -24.1459  -36.7280   23.2653 C   0  0  0  0  0  0
  -25.9272  -30.8386   21.3601 C   0  0  0  0  0  0
  -26.0087  -29.4729   20.7144 C   0  0  0  0  0  0
  -27.2076  -28.7240   20.7189 C   0  0  0  0  0  0
  -26.0845  -26.9487   19.4901 C   0  0  0  0  0  0
  -24.8867  -27.6929   19.4958 C   0  0  0  0  0  0
  -23.6102  -29.8203   20.1607 C   0  0  0  0  0  0
  -25.4078  -36.3097   24.0358 C   0  0  1  0  0  0
  -20.5857  -28.3646   23.1314 C   0  0  2  0  0  0
  -20.6754  -26.9394   22.5393 C   0  0  0  0  0  0
  -19.5722  -26.6358   21.5224 C   0  0  0  0  0  0
  -18.1894  -26.7933   22.1614 C   0  0  0  0  0  0
  -19.1517  -28.8843   23.2877 C   0  0  0  0  0  0
  -18.9458  -30.1468   23.8866 C   0  0  0  0  0  0
  -17.6468  -30.6590   24.0573 C   0  0  0  0  0  0
  -25.9000  -34.9471   23.5154 C   0  0  0  0  0  0
  -16.5352  -29.9067   23.6392 C   0  0  0  0  0  0
  -16.7268  -28.6500   23.0379 C   0  0  0  0  0  0
  -26.4487  -31.6630   25.0762 C   0  0  0  0  0  0
  -25.3783  -31.3697   26.1545 C   0  0  0  0  0  0
  -27.0372  -30.3091   24.6155 C   0  0  0  0  0  0
  -27.6032  -32.4390   25.7547 C   0  0  0  0  0  0
  -27.5543  -37.1784   24.8485 C   0  0  0  0  0  0
  -21.4118  -29.3006   22.3693 N   0  0  0  0  0  0
  -26.4237  -37.3800   23.9454 N   0  0  0  0  0  0
  -24.6651  -31.0771   22.1008 N   0  0  0  0  0  0
  -23.4188  -28.8189   23.2986 O   0  0  0  0  0  0
  -28.3842  -26.6692   20.1381 O   0  0  0  0  0  0
  -26.5524  -34.8934   22.4696 O   0  0  0  0  0  0
  -23.5335  -32.1375   23.7506 O   0  0  0  0  0  0
  -31.2844  -18.8559   18.0187 C   0  0  0  0  0  0
  -30.7132  -19.0880   19.2830 C   0  0  0  0  0  0
  -30.7955  -16.4904   18.2322 C   0  0  0  0  0  0
  -31.3005  -17.5604   17.4740 C   0  0  0  0  0  0
  -30.1568  -18.0267   20.0323 C   0  0  0  0  0  0
  -30.2728  -16.6962   19.5384 C   0  0  0  0  0  0
  -29.0196  -20.7478   21.7403 C   0  0  0  0  0  0
  -29.2735  -18.9667   23.5407 C   0  0  0  0  0  0
  -29.5326  -24.1665   23.6411 C   0  0  0  0  0  0
  -27.4280  -23.2358   22.7769 C   0  0  0  0  0  0
  -28.4312  -23.7687   19.8587 C   0  0  0  0  0  0
  -30.5810  -24.5895   20.7340 C   0  0  0  0  0  0
  -29.6294  -22.0357   22.3717 C   0  0  0  0  0  0
  -28.4739  -25.8385   21.3148 C   0  0  0  0  0  0
  -29.7225  -19.3994   22.1301 C   0  0  1  0  0  0
  -28.9140  -23.4549   22.3999 C   0  0  0  0  0  0
  -29.0889  -24.3962   21.1023 C   0  0  0  0  0  0
  -31.8363  -17.3480   16.2047 N   0  0  0  0  0  0
  -29.9006  -15.5633   20.3375 N   0  0  0  0  0  0
  -29.4686  -18.2556   21.2372 N   0  0  0  0  0  0
  -28.0261  -20.7732   21.0083 O   0  0  0  0  0  0
  -31.4559  -12.3600   19.1180 H   0  0  0  0  0  0
  -30.2993  -11.2668   19.8326 H   0  0  0  0  0  0
  -29.7187  -11.7053   17.4399 H   0  0  0  0  0  0
  -29.6791  -13.4194   17.7243 H   0  0  0  0  0  0
  -27.8070  -11.2921   18.8073 H   0  0  0  0  0  0
  -27.3674  -12.6231   17.7691 H   0  0  0  0  0  0
  -27.6716  -14.2405   19.5245 H   0  0  0  0  0  0
  -28.6661  -12.0068   21.3640 H   0  0  0  0  0  0
  -28.4905  -13.6919   21.8180 H   0  0  0  0  0  0
  -25.2709   -9.5753   22.4737 H   0  0  0  0  0  0
  -24.0015   -7.4657   22.7462 H   0  0  0  0  0  0
  -21.0823   -8.8662   19.8938 H   0  0  0  0  0  0
  -22.3571  -10.9625   19.6142 H   0  0  0  0  0  0
  -21.1972   -7.6121   23.9701 H   0  0  0  0  0  0
  -21.1496   -6.0512   25.9073 H   0  0  0  0  0  0
  -22.0607   -2.7598   23.2843 H   0  0  0  0  0  0
  -22.4069  -11.9894   22.4817 H   0  0  0  0  0  0
  -21.1094  -13.1244   22.2479 H   0  0  0  0  0  0
  -24.6812  -15.8504   20.5423 H   0  0  0  0  0  0
  -26.2633  -15.6150   20.0161 H   0  0  0  0  0  0
  -26.7117  -32.5548   23.1171 H   0  0  0  0  0  0
  -25.0319  -33.9828   25.0690 H   0  0  0  0  0  0
  -22.6853  -31.3025   21.4000 H   0  0  0  0  0  0
  -23.3750  -35.9587   23.3360 H   0  0  0  0  0  0
  -24.3536  -36.8841   22.2050 H   0  0  0  0  0  0
  -23.7141  -37.6478   23.6645 H   0  0  0  0  0  0
  -26.0338  -31.5997   20.5841 H   0  0  0  0  0  0
  -26.8144  -30.8992   21.9779 H   0  0  0  0  0  0
  -28.0904  -29.1122   21.2048 H   0  0  0  0  0  0
  -26.1056  -25.9792   19.0101 H   0  0  0  0  0  0
  -24.0033  -27.2901   19.0188 H   0  0  0  0  0  0
  -23.7100  -30.5930   19.3957 H   0  0  0  0  0  0
  -22.7372  -29.2287   19.8792 H   0  0  0  0  0  0
  -25.1243  -36.1952   25.0837 H   0  0  0  0  0  0
  -20.9965  -28.3238   24.1439 H   0  0  0  0  0  0
  -20.5674  -26.2284   23.3571 H   0  0  0  0  0  0
  -21.6619  -26.7447   22.1173 H   0  0  0  0  0  0
  -19.6886  -25.6264   21.1271 H   0  0  0  0  0  0
  -19.6694  -27.3161   20.6758 H   0  0  0  0  0  0
  -17.4184  -26.6735   21.3993 H   0  0  0  0  0  0
  -18.0241  -26.0074   22.9002 H   0  0  0  0  0  0
  -19.7954  -30.7290   24.2178 H   0  0  0  0  0  0
  -17.5050  -31.6293   24.5139 H   0  0  0  0  0  0
  -15.5361  -30.2977   23.7724 H   0  0  0  0  0  0
  -15.8655  -28.0815   22.7117 H   0  0  0  0  0  0
  -24.5952  -30.7041   25.7904 H   0  0  0  0  0  0
  -24.9017  -32.2870   26.5043 H   0  0  0  0  0  0
  -25.8192  -30.8861   27.0275 H   0  0  0  0  0  0
  -26.2936  -29.6719   24.1376 H   0  0  0  0  0  0
  -27.4347  -29.7438   25.4586 H   0  0  0  0  0  0
  -27.8662  -30.4444   23.9193 H   0  0  0  0  0  0
  -27.2638  -33.3686   26.2130 H   0  0  0  0  0  0
  -28.3888  -32.6949   25.0425 H   0  0  0  0  0  0
  -28.0698  -31.8542   26.5484 H   0  0  0  0  0  0
  -28.2586  -38.0057   24.7567 H   0  0  0  0  0  0
  -28.0998  -36.2607   24.6279 H   0  0  0  0  0  0
  -27.2302  -37.1415   25.8893 H   0  0  0  0  0  0
  -20.9222  -29.8731   21.6945 H   0  0  0  0  0  0
  -26.0139  -38.2878   24.1490 H   0  0  0  0  0  0
  -31.6941  -19.6829   17.4585 H   0  0  0  0  0  0
  -30.6928  -20.1041   19.6500 H   0  0  0  0  0  0
  -30.8406  -15.4940   17.8158 H   0  0  0  0  0  0
  -29.6752  -19.6077   24.3251 H   0  0  0  0  0  0
  -29.6210  -17.9556   23.7616 H   0  0  0  0  0  0
  -28.1843  -18.9729   23.6394 H   0  0  0  0  0  0
  -29.4316  -23.5540   24.5394 H   0  0  0  0  0  0
  -29.0475  -25.1103   23.8921 H   0  0  0  0  0  0
  -30.5993  -24.3648   23.5305 H   0  0  0  0  0  0
  -27.3560  -22.6403   23.6858 H   0  0  0  0  0  0
  -26.8634  -22.7023   22.0145 H   0  0  0  0  0  0
  -26.8861  -24.1562   22.9775 H   0  0  0  0  0  0
  -28.5598  -24.4134   18.9855 H   0  0  0  0  0  0
  -27.3619  -23.6109   19.9780 H   0  0  0  0  0  0
  -28.8823  -22.8116   19.6010 H   0  0  0  0  0  0
  -30.6930  -25.2488   19.8678 H   0  0  0  0  0  0
  -31.0693  -23.6522   20.4718 H   0  0  0  0  0  0
  -31.1600  -25.0452   21.5341 H   0  0  0  0  0  0
  -30.6537  -22.1398   22.0201 H   0  0  0  0  0  0
  -29.7370  -21.7284   23.4123 H   0  0  0  0  0  0
  -29.0853  -26.3957   22.0263 H   0  0  0  0  0  0
  -27.4871  -25.7678   21.7716 H   0  0  0  0  0  0
  -30.8001  -19.5740   22.1619 H   0  0  0  0  0  0
  -32.3459  -18.0961   15.7402 H   0  0  0  0  0  0
  -32.1232  -16.4163   15.9099 H   0  0  0  0  0  0
  -28.9247  -15.4660   20.5652 H   0  0  0  0  0  0
  -29.0758  -17.4301   21.6741 H   0  0  0  0  0  0
  1 25  1  0  0  0
  1 30  2  0  0  0
  1 89  1  0  0  0
  2  3  1  0  0  0
  2 25  1  0  0  0
  2 92  1  0  0  0
  2 93  1  0  0  0
  3  4  1  0  0  0
  3 94  1  0  0  0
  3 95  1  0  0  0
  4  5  1  0  0  0
  4 96  1  0  0  0
  4 97  1  0  0  0
  5  6  1  0  0  0
  5 26  1  0  0  0
  5 98  1  0  0  0
  6 25  1  0  0  0
  6 99  1  0  0  0
  6100  1  0  0  0
  7  8  2  0  0  0
  7 26  1  0  0  0
  7 29  1  0  0  0
  8  9  1  0  0  0
  8 22  1  0  0  0
  9 10  1  0  0  0
  9 27  2  0  0  0
 10 11  2  0  0  0
 10 15  1  0  0  0
 11 12  1  0  0  0
 11101  1  0  0  0
 12 13  2  0  0  0
 12102  1  0  0  0
 13 14  1  0  0  0
 13 31  1  0  0  0
 14 15  2  0  0  0
 14103  1  0  0  0
 15104  1  0  0  0
 16 17  2  0  0  0
 16 21  1  0  0  0
 16 31  1  0  0  0
 17 18  1  0  0  0
 17105  1  0  0  0
 18 19  2  0  0  0
 18106  1  0  0  0
 19 20  1  0  0  0
 19 24  1  0  0  0
 20 21  2  0  0  0
 20107  1  0  0  0
 21 23  1  0  0  0
 22 28  1  0  0  0
 22 32  2  0  0  0
 26 27  1  0  0  0
 28108  1  0  0  0
 28109  1  0  0  0
 29110  1  0  0  0
 29111  1  0  0  0
 33 34  1  0  0  0
 33 66  1  0  0  0
 33 70  2  0  0  0
 34 36  1  0  0  0
 34 59  1  0  0  0
 34112  1  0  0  0
 35 44  2  0  0  0
 35 45  1  0  0  0
 35 68  1  0  0  0
 36 56  1  0  0  0
 36113  1  0  0  0
 37 39  1  0  0  0
 37 47  1  0  0  0
 37 66  1  0  0  0
 37114  1  0  0  0
 38 43  2  0  0  0
 38 46  1  0  0  0
 38 47  1  0  0  0
 39 64  1  0  0  0
 39 67  2  0  0  0
 40 52  1  0  0  0
 40 53  2  0  0  0
 40 58  1  0  0  0
 41115  1  0  0  0
 41116  1  0  0  0
 41117  1  0  0  0
 41 48  1  0  0  0
 42 43  1  0  0  0
 42 66  1  0  0  0
 42118  1  0  0  0
 42119  1  0  0  0
 43 44  1  0  0  0
 44120  1  0  0  0
 45 46  2  0  0  0
 45121  1  0  0  0
 46122  1  0  0  0
 47123  1  0  0  0
 47124  1  0  0  0
 48 56  1  0  0  0
 48 65  1  0  0  0
 48125  1  0  0  0
 49 50  1  0  0  0
 49 53  1  0  0  0
 49 64  1  0  0  0
 49126  1  0  0  0
 50 51  1  0  0  0
 50127  1  0  0  0
 50128  1  0  0  0
 51 52  1  0  0  0
 51129  1  0  0  0
 51130  1  0  0  0
 52131  1  0  0  0
 52132  1  0  0  0
 53 54  1  0  0  0
 54 55  2  0  0  0
 54133  1  0  0  0
 55 57  1  0  0  0
 55134  1  0  0  0
 56 69  2  0  0  0
 57 58  2  0  0  0
 57135  1  0  0  0
 58136  1  0  0  0
 59 60  1  0  0  0
 59 61  1  0  0  0
 59 62  1  0  0  0
 60137  1  0  0  0
 60138  1  0  0  0
 60139  1  0  0  0
 61140  1  0  0  0
 61141  1  0  0  0
 61142  1  0  0  0
 62143  1  0  0  0
 62144  1  0  0  0
 62145  1  0  0  0
 63 65  1  0  0  0
 63146  1  0  0  0
 63147  1  0  0  0
 63148  1  0  0  0
 64149  1  0  0  0
 65150  1  0  0  0
 68 84  1  0  0  0
 71 72  2  0  0  0
 71 74  1  0  0  0
 71151  1  0  0  0
 72 75  1  0  0  0
 72152  1  0  0  0
 73 74  2  0  0  0
 73 76  1  0  0  0
 73153  1  0  0  0
 74 88  1  0  0  0
 75 76  2  0  0  0
 75 90  1  0  0  0
 76 89  1  0  0  0
 77 83  1  0  0  0
 77 85  1  0  0  0
 77 91  2  0  0  0
 78154  1  0  0  0
 78155  1  0  0  0
 78156  1  0  0  0
 78 85  1  0  0  0
 79157  1  0  0  0
 79158  1  0  0  0
 79159  1  0  0  0
 79 86  1  0  0  0
 80 86  1  0  0  0
 80160  1  0  0  0
 80161  1  0  0  0
 80162  1  0  0  0
 81163  1  0  0  0
 81164  1  0  0  0
 81165  1  0  0  0
 81 87  1  0  0  0
 82 87  1  0  0  0
 82166  1  0  0  0
 82167  1  0  0  0
 82168  1  0  0  0
 83 86  1  0  0  0
 83169  1  0  0  0
 83170  1  0  0  0
 84 87  1  0  0  0
 84171  1  0  0  0
 84172  1  0  0  0
 85 90  1  0  0  0
 85173  1  0  0  0
 86 87  1  0  0  0
 88174  1  0  0  0
 88175  1  0  0  0
 89176  1  0  0  0
 90177  1  0  0  0
M  ISO  4   1 100  68 101  84 101  89 100
M  END
> <chiral flag>
0

> <version>
0

> <s_m_source_file>
/data/baiqing/PycharmProjects/Reinvent-master-3.2/result/LINK_invent/BTK/process_docking_weight1_custom_product_contain_oxygen_bond_distance_aromatic_linkinvent_7_9_3/rearranged_h_0145.sdf

> <i_m_source_file_index>
41

> <r_mmod_Potential_Energy-OPLS-2005>
26.5583744049072

> <r_mmod_Stretch_Energy-OPLS-2005>
57.8787498474121

> <r_mmod_Bend_Energy-OPLS-2005>
152.360855102539

> <r_mmod_Torsional_Energy-OPLS-2005>
297.641235351562

> <r_mmod_Improper_Torsional_Energy-OPLS-2005>
13.8416223526001

> <r_mmod_Van_der_Waal_Energy-OPLS-2005>
160.327117919922

> <r_mmod_Electrostatic_Energy-OPLS-2005>
-452.321472167969

> <r_mmod_Solvation_Energy-OPLS-2005>
-227.397186279297

> <b_mmod_Minimization_Converged-OPLS-2005>
0

> <r_mmod_RMS_Derivative-OPLS-2005>
6.91212463378906

$$$$
41
                    3D
 Structure written by MMmdl.
191200  0  0  1  0            999 V2000
  -30.7275  -14.3728   20.6923 C   0  0  0  0  0  0
  -30.4293  -12.2947   19.3854 C   0  0  0  0  0  0
  -29.4888  -12.5360   18.1884 C   0  0  0  0  0  0
  -28.0108  -12.3893   18.6023 C   0  0  0  0  0  0
  -27.6695  -13.1958   19.8824 C   0  0  2  0  0  0
  -28.7048  -12.8981   20.9874 C   0  0  0  0  0  0
  -25.2620  -13.8139   20.5659 C   0  0  0  0  0  0
  -24.1852  -13.0433   20.9150 C   0  0  0  0  0  0
  -24.6391  -11.6893   20.8716 C   0  0  0  0  0  0
  -23.9050  -10.4285   21.0398 C   0  0  0  0  0  0
  -24.3608   -9.4208   21.9178 C   0  0  0  0  0  0
  -23.6287   -8.2244   22.0754 C   0  0  0  0  0  0
  -22.4267   -8.0280   21.3544 C   0  0  0  0  0  0
  -21.9898   -9.0247   20.4645 C   0  0  0  0  0  0
  -22.7224  -10.2128   20.3048 C   0  0  0  0  0  0
  -21.6849   -6.0733   22.5280 C   0  0  0  0  0  0
  -21.4012   -6.5637   23.8212 C   0  0  0  0  0  0
  -21.3660   -5.6793   24.9176 C   0  0  0  0  0  0
  -21.6044   -4.3055   24.7224 C   0  0  0  0  0  0
  -21.8819   -3.8144   23.4345 C   0  0  0  0  0  0
  -21.9191   -4.6963   22.3403 C   0  0  0  0  0  0
  -22.7877  -13.5242   21.1831 C   0  0  0  0  0  0
  -22.1659   -4.2148   21.0979 F   0  0  0  0  0  0
  -21.5631   -3.4537   25.7737 F   0  0  0  0  0  0
  -30.0496  -13.2176   20.4633 N   0  0  0  0  0  0
  -26.3057  -12.9287   20.3370 N   0  0  0  0  0  0
  -25.9310  -11.6457   20.5733 N   0  0  0  0  0  0
  -22.0512  -12.8240   22.0388 N   0  0  0  0  0  0
  -25.4363  -15.1856   20.4092 N   0  0  0  0  0  0
  -31.7579  -14.6899   20.0860 O   0  0  0  0  0  0
  -21.6636   -6.8873   21.4240 O   0  0  0  0  0  0
  -22.3564  -14.5556   20.6690 O   0  0  0  0  0  0
  -24.6078  -31.8725   23.2127 C   0  0  0  0  0  0
  -25.8997  -32.4857   23.8412 C   0  0  1  0  0  0
  -27.2683  -27.4801   20.1003 C   0  0  0  0  0  0
  -25.5875  -33.8652   24.2353 N   0  0  0  0  0  0
  -23.3959  -30.4914   21.5504 C   0  0  2  0  0  0
  -24.8484  -28.9588   20.1200 C   0  0  0  0  0  0
  -22.7389  -29.4672   22.5020 C   0  0  0  0  0  0
  -18.0268  -28.1391   22.8489 C   0  0  0  0  0  0
  -24.1496  -36.7310   23.2642 C   0  0  0  0  0  0
  -25.9143  -30.8544   21.3559 C   0  0  0  0  0  0
  -25.9979  -29.4862   20.7155 C   0  0  0  0  0  0
  -27.2034  -28.7575   20.7129 C   0  0  0  0  0  0
  -26.0957  -26.9646   19.5075 C   0  0  0  0  0  0
  -24.8878  -27.6908   19.5161 C   0  0  0  0  0  0
  -23.6041  -29.8168   20.1660 C   0  0  0  0  0  0
  -25.4114  -36.3126   24.0352 C   0  0  1  0  0  0
  -20.5859  -28.3656   23.1347 C   0  0  2  0  0  0
  -20.6774  -26.9399   22.5432 C   0  0  0  0  0  0
  -19.5755  -26.6386   21.5229 C   0  0  0  0  0  0
  -18.1922  -26.7946   22.1618 C   0  0  0  0  0  0
  -19.1518  -28.8836   23.2918 C   0  0  0  0  0  0
  -18.9454  -30.1448   23.8926 C   0  0  0  0  0  0
  -17.6462  -30.6592   24.0573 C   0  0  0  0  0  0
  -25.9023  -34.9490   23.5147 C   0  0  0  0  0  0
  -16.5346  -29.9104   23.6331 C   0  0  0  0  0  0
  -16.7259  -28.6525   23.0337 C   0  0  0  0  0  0
  -26.4455  -31.6616   25.0707 C   0  0  0  0  0  0
  -25.3733  -31.3693   26.1461 C   0  0  0  0  0  0
  -27.0281  -30.3083   24.6006 C   0  0  0  0  0  0
  -27.6057  -32.4304   25.7460 C   0  0  0  0  0  0
  -27.5592  -37.1812   24.8470 C   0  0  0  0  0  0
  -21.4122  -29.3033   22.3767 N   0  0  0  0  0  0
  -26.4309  -37.3802   23.9406 N   0  0  0  0  0  0
  -24.6570  -31.0861   22.1002 N   0  0  0  0  0  0
  -23.4181  -28.8224   23.3057 O   0  0  0  0  0  0
  -28.3976  -26.6870   20.0029 O   0  0  0  0  0  0
  -26.5570  -34.8931   22.4696 O   0  0  0  0  0  0
  -23.5278  -32.1449   23.7542 O   0  0  0  0  0  0
  -31.3524  -17.3077   21.6406 C   0  0  0  0  0  0
  -29.9107  -18.7654   22.7314 C   0  0  0  0  0  0
  -31.1225  -18.6406   22.1040 C   0  0  0  0  0  0
  -30.3255  -16.4373   21.9257 C   0  0  0  0  0  0
  -30.9809  -24.8859   21.2651 C   0  0  0  0  0  0
  -30.5536  -21.0870   18.5757 C   0  0  0  0  0  0
  -30.1414  -19.7331   19.1042 C   0  0  0  0  0  0
  -31.4714  -20.3292   19.5125 C   0  0  0  0  0  0
  -32.7424  -19.7208   18.9316 C   0  0  0  0  0  0
  -30.7348  -26.7290   22.9196 C   0  0  0  0  0  0
  -28.7289  -25.3138   22.3851 C   0  0  0  0  0  0
  -35.8514  -24.4323   23.6016 C   0  0  0  0  0  0
  -33.9833  -23.4384   24.9254 C   0  0  0  0  0  0
  -35.2328  -22.0365   23.2483 C   0  0  0  0  0  0
  -32.0959  -19.7740   21.9560 C   0  0  0  0  0  0
  -32.6207  -22.0796   20.9626 C   0  0  0  0  0  0
  -33.6931  -23.9188   22.4385 C   0  0  0  0  0  0
  -29.6071  -27.0186   20.6961 C   0  0  0  0  0  0
  -31.6630  -20.8645   20.9391 C   0  0  1  0  0  0
  -32.4406  -23.0334   22.1724 C   0  0  1  0  0  0
  -29.9980  -25.9698   21.7899 C   0  0  0  0  0  0
  -34.6738  -23.4401   23.5445 C   0  0  0  0  0  0
  -30.1872  -15.1155   21.6699 N   0  0  0  0  0  0
  -31.2250  -23.8549   22.0918 N   0  0  0  0  0  0
  -31.5965  -25.0345   20.2077 O   0  0  0  0  0  0
  -29.0475  -17.2607   22.7813 S   0  0  0  0  0  0
  -31.4704  -12.4184   19.0815 H   0  0  0  0  0  0
  -30.3451  -11.2643   19.7341 H   0  0  0  0  0  0
  -29.7214  -11.8407   17.3809 H   0  0  0  0  0  0
  -29.6578  -13.5368   17.7875 H   0  0  0  0  0  0
  -27.8136  -11.3295   18.7683 H   0  0  0  0  0  0
  -27.3598  -12.6939   17.7823 H   0  0  0  0  0  0
  -27.7376  -14.2552   19.6319 H   0  0  0  0  0  0
  -28.6710  -11.8403   21.2531 H   0  0  0  0  0  0
  -28.4394  -13.4203   21.9066 H   0  0  0  0  0  0
  -25.2754   -9.5685   22.4748 H   0  0  0  0  0  0
  -23.9997   -7.4634   22.7470 H   0  0  0  0  0  0
  -21.0832   -8.8760   19.8949 H   0  0  0  0  0  0
  -22.3684  -10.9663   19.6152 H   0  0  0  0  0  0
  -21.2002   -7.6146   23.9716 H   0  0  0  0  0  0
  -21.1484   -6.0522   25.9079 H   0  0  0  0  0  0
  -22.0597   -2.7606   23.2845 H   0  0  0  0  0  0
  -22.4111  -11.9894   22.4775 H   0  0  0  0  0  0
  -21.1138  -13.1282   22.2597 H   0  0  0  0  0  0
  -24.6752  -15.8458   20.5255 H   0  0  0  0  0  0
  -26.2991  -15.6249   20.1127 H   0  0  0  0  0  0
  -26.7086  -32.5611   23.1205 H   0  0  0  0  0  0
  -25.0072  -33.9844   25.0531 H   0  0  0  0  0  0
  -22.6819  -31.3047   21.4071 H   0  0  0  0  0  0
  -23.3772  -35.9632   23.3312 H   0  0  0  0  0  0
  -24.3585  -36.8896   22.2051 H   0  0  0  0  0  0
  -23.7242  -37.6520   23.6633 H   0  0  0  0  0  0
  -26.0059  -31.6174   20.5814 H   0  0  0  0  0  0
  -26.8080  -30.9253   21.9630 H   0  0  0  0  0  0
  -28.0535  -29.2279   21.1775 H   0  0  0  0  0  0
  -26.1220  -25.9937   19.0340 H   0  0  0  0  0  0
  -24.0041  -27.2744   19.0541 H   0  0  0  0  0  0
  -23.7067  -30.5864   19.4000 H   0  0  0  0  0  0
  -22.7336  -29.2260   19.8735 H   0  0  0  0  0  0
  -25.1302  -36.1999   25.0851 H   0  0  0  0  0  0
  -20.9940  -28.3209   24.1471 H   0  0  0  0  0  0
  -20.5706  -26.2251   23.3605 H   0  0  0  0  0  0
  -21.6641  -26.7469   22.1202 H   0  0  0  0  0  0
  -19.6919  -25.6298   21.1251 H   0  0  0  0  0  0
  -19.6720  -27.3207   20.6769 H   0  0  0  0  0  0
  -17.4210  -26.6703   21.3999 H   0  0  0  0  0  0
  -18.0285  -26.0085   22.9006 H   0  0  0  0  0  0
  -19.7934  -30.7250   24.2297 H   0  0  0  0  0  0
  -17.5027  -31.6285   24.5155 H   0  0  0  0  0  0
  -15.5355  -30.3023   23.7657 H   0  0  0  0  0  0
  -15.8651  -28.0868   22.7032 H   0  0  0  0  0  0
  -24.5916  -30.7037   25.7780 H   0  0  0  0  0  0
  -24.8912  -32.2839   26.4922 H   0  0  0  0  0  0
  -25.8092  -30.8847   27.0209 H   0  0  0  0  0  0
  -26.2797  -29.6852   24.1095 H   0  0  0  0  0  0
  -27.4143  -29.7296   25.4409 H   0  0  0  0  0  0
  -27.8590  -30.4436   23.9075 H   0  0  0  0  0  0
  -27.2709  -33.3597   26.2072 H   0  0  0  0  0  0
  -28.3852  -32.6859   25.0271 H   0  0  0  0  0  0
  -28.0741  -31.8396   26.5338 H   0  0  0  0  0  0
  -28.2623  -38.0099   24.7509 H   0  0  0  0  0  0
  -28.1077  -36.2626   24.6315 H   0  0  0  0  0  0
  -27.2295  -37.1479   25.8872 H   0  0  0  0  0  0
  -20.9268  -29.8740   21.6985 H   0  0  0  0  0  0
  -26.0210  -38.2889   24.1407 H   0  0  0  0  0  0
  -32.2658  -17.0393   21.1293 H   0  0  0  0  0  0
  -29.4706  -19.6491   23.1790 H   0  0  0  0  0  0
  -30.0332  -21.9583   18.9699 H   0  0  0  0  0  0
  -30.8369  -21.1543   17.5263 H   0  0  0  0  0  0
  -30.1562  -18.8936   18.4117 H   0  0  0  0  0  0
  -29.3468  -19.7026   19.8481 H   0  0  0  0  0  0
  -32.5873  -19.4264   17.8931 H   0  0  0  0  0  0
  -33.0374  -18.8277   19.4814 H   0  0  0  0  0  0
  -33.5660  -20.4341   18.9529 H   0  0  0  0  0  0
  -31.0388  -26.0669   23.7316 H   0  0  0  0  0  0
  -30.1014  -27.5005   23.3587 H   0  0  0  0  0  0
  -31.6361  -27.2186   22.5459 H   0  0  0  0  0  0
  -28.9453  -24.7327   23.2819 H   0  0  0  0  0  0
  -28.2523  -24.6453   21.6663 H   0  0  0  0  0  0
  -27.9934  -26.0687   22.6657 H   0  0  0  0  0  0
  -36.5509  -24.1826   24.4000 H   0  0  0  0  0  0
  -35.5082  -25.4523   23.7820 H   0  0  0  0  0  0
  -36.4159  -24.4403   22.6679 H   0  0  0  0  0  0
  -34.6991  -23.2532   25.7269 H   0  0  0  0  0  0
  -33.2203  -22.6651   25.0095 H   0  0  0  0  0  0
  -33.5022  -24.3944   25.1357 H   0  0  0  0  0  0
  -35.9597  -21.7325   24.0023 H   0  0  0  0  0  0
  -35.7346  -21.9988   22.2811 H   0  0  0  0  0  0
  -34.4497  -21.2791   23.2432 H   0  0  0  0  0  0
  -33.0822  -19.3899   21.6948 H   0  0  0  0  0  0
  -32.2355  -20.2250   22.9377 H   0  0  0  0  0  0
  -32.5200  -22.6467   20.0375 H   0  0  0  0  0  0
  -33.6446  -21.7062   20.9449 H   0  0  0  0  0  0
  -33.3771  -24.9268   22.7121 H   0  0  0  0  0  0
  -34.2329  -24.0529   21.4990 H   0  0  0  0  0  0
  -30.3793  -27.1100   19.9338 H   0  0  0  0  0  0
  -29.6123  -28.0069   21.1380 H   0  0  0  0  0  0
  -30.6876  -21.2326   21.2613 H   0  0  0  0  0  0
  -32.2755  -22.4215   23.0548 H   0  0  0  0  0  0
  -29.3987  -14.6730   22.1173 H   0  0  0  0  0  0
  -30.6204  -23.8079   22.9008 H   0  0  0  0  0  0
  1 25  1  0  0  0
  1 30  2  0  0  0
  1 93  1  0  0  0
  2  3  1  0  0  0
  2 25  1  0  0  0
  2 97  1  0  0  0
  2 98  1  0  0  0
  3  4  1  0  0  0
  3 99  1  0  0  0
  3100  1  0  0  0
  4  5  1  0  0  0
  4101  1  0  0  0
  4102  1  0  0  0
  5  6  1  0  0  0
  5 26  1  0  0  0
  5103  1  0  0  0
  6 25  1  0  0  0
  6104  1  0  0  0
  6105  1  0  0  0
  7  8  2  0  0  0
  7 26  1  0  0  0
  7 29  1  0  0  0
  8  9  1  0  0  0
  8 22  1  0  0  0
  9 10  1  0  0  0
  9 27  2  0  0  0
 10 11  2  0  0  0
 10 15  1  0  0  0
 11 12  1  0  0  0
 11106  1  0  0  0
 12 13  2  0  0  0
 12107  1  0  0  0
 13 14  1  0  0  0
 13 31  1  0  0  0
 14 15  2  0  0  0
 14108  1  0  0  0
 15109  1  0  0  0
 16 17  2  0  0  0
 16 21  1  0  0  0
 16 31  1  0  0  0
 17 18  1  0  0  0
 17110  1  0  0  0
 18 19  2  0  0  0
 18111  1  0  0  0
 19 20  1  0  0  0
 19 24  1  0  0  0
 20 21  2  0  0  0
 20112  1  0  0  0
 21 23  1  0  0  0
 22 28  1  0  0  0
 22 32  2  0  0  0
 26 27  1  0  0  0
 28113  1  0  0  0
 28114  1  0  0  0
 29115  1  0  0  0
 29116  1  0  0  0
 33 34  1  0  0  0
 33 66  1  0  0  0
 33 70  2  0  0  0
 34 36  1  0  0  0
 34 59  1  0  0  0
 34117  1  0  0  0
 35 44  2  0  0  0
 35 45  1  0  0  0
 35 68  1  0  0  0
 36 56  1  0  0  0
 36118  1  0  0  0
 37 39  1  0  0  0
 37 47  1  0  0  0
 37 66  1  0  0  0
 37119  1  0  0  0
 38 43  2  0  0  0
 38 46  1  0  0  0
 38 47  1  0  0  0
 39 64  1  0  0  0
 39 67  2  0  0  0
 40 52  1  0  0  0
 40 53  2  0  0  0
 40 58  1  0  0  0
 41120  1  0  0  0
 41121  1  0  0  0
 41122  1  0  0  0
 41 48  1  0  0  0
 42 43  1  0  0  0
 42 66  1  0  0  0
 42123  1  0  0  0
 42124  1  0  0  0
 43 44  1  0  0  0
 44125  1  0  0  0
 45 46  2  0  0  0
 45126  1  0  0  0
 46127  1  0  0  0
 47128  1  0  0  0
 47129  1  0  0  0
 48 56  1  0  0  0
 48 65  1  0  0  0
 48130  1  0  0  0
 49 50  1  0  0  0
 49 53  1  0  0  0
 49 64  1  0  0  0
 49131  1  0  0  0
 50 51  1  0  0  0
 50132  1  0  0  0
 50133  1  0  0  0
 51 52  1  0  0  0
 51134  1  0  0  0
 51135  1  0  0  0
 52136  1  0  0  0
 52137  1  0  0  0
 53 54  1  0  0  0
 54 55  2  0  0  0
 54138  1  0  0  0
 55 57  1  0  0  0
 55139  1  0  0  0
 56 69  2  0  0  0
 57 58  2  0  0  0
 57140  1  0  0  0
 58141  1  0  0  0
 59 60  1  0  0  0
 59 61  1  0  0  0
 59 62  1  0  0  0
 60142  1  0  0  0
 60143  1  0  0  0
 60144  1  0  0  0
 61145  1  0  0  0
 61146  1  0  0  0
 61147  1  0  0  0
 62148  1  0  0  0
 62149  1  0  0  0
 62150  1  0  0  0
 63 65  1  0  0  0
 63151  1  0  0  0
 63152  1  0  0  0
 63153  1  0  0  0
 64154  1  0  0  0
 65155  1  0  0  0
 68 88  1  0  0  0
 71 73  1  0  0  0
 71 74  2  0  0  0
 71156  1  0  0  0
 72 73  2  0  0  0
 72 96  1  0  0  0
 72157  1  0  0  0
 73 85  1  0  0  0
 74 93  1  0  0  0
 74 96  1  0  0  0
 75 91  1  0  0  0
 75 94  1  0  0  0
 75 95  2  0  0  0
 76 77  1  0  0  0
 76 78  1  0  0  0
 76158  1  0  0  0
 76159  1  0  0  0
 77 78  1  0  0  0
 77160  1  0  0  0
 77161  1  0  0  0
 78 79  1  0  0  0
 78 89  1  0  0  0
 79162  1  0  0  0
 79163  1  0  0  0
 79164  1  0  0  0
 80165  1  0  0  0
 80166  1  0  0  0
 80167  1  0  0  0
 80 91  1  0  0  0
 81 91  1  0  0  0
 81168  1  0  0  0
 81169  1  0  0  0
 81170  1  0  0  0
 82171  1  0  0  0
 82172  1  0  0  0
 82173  1  0  0  0
 82 92  1  0  0  0
 83 92  1  0  0  0
 83174  1  0  0  0
 83175  1  0  0  0
 83176  1  0  0  0
 84 92  1  0  0  0
 84177  1  0  0  0
 84178  1  0  0  0
 84179  1  0  0  0
 85180  1  0  0  0
 85181  1  0  0  0
 85 89  1  0  0  0
 86 89  1  0  0  0
 86182  1  0  0  0
 86183  1  0  0  0
 86 90  1  0  0  0
 87 90  1  0  0  0
 87 92  1  0  0  0
 87184  1  0  0  0
 87185  1  0  0  0
 88 91  1  0  0  0
 88186  1  0  0  0
 88187  1  0  0  0
 89188  1  0  0  0
 90 94  1  0  0  0
 90189  1  0  0  0
 93190  1  0  0  0
 94191  1  0  0  0
M  ISO  4   1 100  68 101  88 101  93 100
M  END
> <chiral flag>
0

> <version>
0

> <s_m_source_file>
/data/baiqing/PycharmProjects/Reinvent-master-3.2/result/LINK_invent/BTK/process_docking_weight1_custom_product_contain_oxygen_bond_distance_aromatic_linkinvent_7_9_3/rearranged_h_0145.sdf

> <i_m_source_file_index>
42

> <r_mmod_Potential_Energy-OPLS-2005>
5.01645517349243

> <r_mmod_Stretch_Energy-OPLS-2005>
39.9753532409668

> <r_mmod_Bend_Energy-OPLS-2005>
140.785995483398

> <r_mmod_Torsional_Energy-OPLS-2005>
316.827667236328

> <r_mmod_Improper_Torsional_Energy-OPLS-2005>
4.66789436340332

> <r_mmod_Van_der_Waal_Energy-OPLS-2005>
138.466186523438

> <r_mmod_Electrostatic_Energy-OPLS-2005>
-432.521484375

> <r_mmod_Solvation_Energy-OPLS-2005>
-209.525787353516

> <b_mmod_Minimization_Converged-OPLS-2005>
0

> <r_mmod_RMS_Derivative-OPLS-2005>
1.58003234863281

$$$$
42
                    3D
 Structure written by MMmdl.
175184  0  0  1  0            999 V2000
  -30.7316  -14.4175   20.6407 C   0  0  0  0  0  0
  -30.4158  -12.3027   19.4102 C   0  0  0  0  0  0
  -29.4830  -12.5061   18.2001 C   0  0  0  0  0  0
  -28.0098  -12.3512   18.6210 C   0  0  0  0  0  0
  -27.6588  -13.1979   19.8732 C   0  0  2  0  0  0
  -28.6964  -12.9668   20.9945 C   0  0  0  0  0  0
  -25.2578  -13.8152   20.5650 C   0  0  0  0  0  0
  -24.1821  -13.0439   20.9169 C   0  0  0  0  0  0
  -24.6363  -11.6902   20.8734 C   0  0  0  0  0  0
  -23.9032  -10.4298   21.0405 C   0  0  0  0  0  0
  -24.3590   -9.4219   21.9190 C   0  0  0  0  0  0
  -23.6273   -8.2250   22.0760 C   0  0  0  0  0  0
  -22.4262   -8.0279   21.3546 C   0  0  0  0  0  0
  -21.9895   -9.0246   20.4638 C   0  0  0  0  0  0
  -22.7209  -10.2131   20.3053 C   0  0  0  0  0  0
  -21.6853   -6.0726   22.5276 C   0  0  0  0  0  0
  -21.4006   -6.5631   23.8204 C   0  0  0  0  0  0
  -21.3662   -5.6784   24.9175 C   0  0  0  0  0  0
  -21.6051   -4.3052   24.7224 C   0  0  0  0  0  0
  -21.8824   -3.8135   23.4348 C   0  0  0  0  0  0
  -21.9185   -4.6954   22.3397 C   0  0  0  0  0  0
  -22.7847  -13.5246   21.1830 C   0  0  0  0  0  0
  -22.1657   -4.2135   21.0981 F   0  0  0  0  0  0
  -21.5636   -3.4535   25.7741 F   0  0  0  0  0  0
  -30.0304  -13.2697   20.4492 N   0  0  0  0  0  0
  -26.2994  -12.9298   20.3343 N   0  0  0  0  0  0
  -25.9280  -11.6464   20.5757 N   0  0  0  0  0  0
  -22.0472  -12.8246   22.0373 N   0  0  0  0  0  0
  -25.4333  -15.1863   20.4030 N   0  0  0  0  0  0
  -31.8124  -14.6326   20.0831 O   0  0  0  0  0  0
  -21.6635   -6.8870   21.4237 O   0  0  0  0  0  0
  -22.3542  -14.5561   20.6679 O   0  0  0  0  0  0
  -24.6114  -31.8681   23.2091 C   0  0  0  0  0  0
  -25.9012  -32.4828   23.8381 C   0  0  1  0  0  0
  -27.2516  -27.4460   20.1117 C   0  0  0  0  0  0
  -25.5891  -33.8628   24.2338 N   0  0  0  0  0  0
  -23.3995  -30.4867   21.5503 C   0  0  2  0  0  0
  -24.8484  -28.9457   20.1236 C   0  0  0  0  0  0
  -22.7385  -29.4643   22.5017 C   0  0  0  0  0  0
  -18.0266  -28.1366   22.8490 C   0  0  0  0  0  0
  -24.1498  -36.7316   23.2639 C   0  0  0  0  0  0
  -25.9209  -30.8417   21.3534 C   0  0  0  0  0  0
  -26.0038  -29.4694   20.7175 C   0  0  0  0  0  0
  -27.2037  -28.7265   20.7074 C   0  0  0  0  0  0
  -26.0769  -26.9277   19.5193 C   0  0  0  0  0  0
  -24.8788  -27.6727   19.5256 C   0  0  0  0  0  0
  -23.6095  -29.8130   20.1666 C   0  0  0  0  0  0
  -25.4115  -36.3128   24.0339 C   0  0  1  0  0  0
  -20.5853  -28.3649   23.1340 C   0  0  2  0  0  0
  -20.6757  -26.9393   22.5426 C   0  0  0  0  0  0
  -19.5745  -26.6386   21.5212 C   0  0  0  0  0  0
  -18.1917  -26.7919   22.1611 C   0  0  0  0  0  0
  -19.1517  -28.8824   23.2910 C   0  0  0  0  0  0
  -18.9458  -30.1424   23.8925 C   0  0  0  0  0  0
  -17.6467  -30.6586   24.0573 C   0  0  0  0  0  0
  -25.9027  -34.9477   23.5131 C   0  0  0  0  0  0
  -16.5357  -29.9088   23.6322 C   0  0  0  0  0  0
  -16.7256  -28.6500   23.0348 C   0  0  0  0  0  0
  -26.4467  -31.6558   25.0655 C   0  0  0  0  0  0
  -25.3727  -31.3574   26.1376 C   0  0  0  0  0  0
  -27.0321  -30.3048   24.5900 C   0  0  0  0  0  0
  -27.6063  -32.4223   25.7434 C   0  0  0  0  0  0
  -27.5589  -37.1806   24.8465 C   0  0  0  0  0  0
  -21.4121  -29.3009   22.3746 N   0  0  0  0  0  0
  -26.4319  -37.3797   23.9392 N   0  0  0  0  0  0
  -24.6640  -31.0780   22.1001 N   0  0  0  0  0  0
  -23.4155  -28.8198   23.3075 O   0  0  0  0  0  0
  -28.4687  -26.7962   20.0992 O   0  0  0  0  0  0
  -26.5603  -34.8923   22.4697 O   0  0  0  0  0  0
  -23.5310  -32.1419   23.7508 O   0  0  0  0  0  0
  -32.5790  -17.9783   22.4897 C   0  0  0  0  0  0
  -31.7477  -19.1103   22.5348 C   0  0  0  0  0  0
  -32.0457  -16.7316   22.1273 C   0  0  0  0  0  0
  -29.8306  -17.7427   21.8862 C   0  0  0  0  0  0
  -30.3658  -19.0035   22.2536 C   0  0  0  0  0  0
  -30.6759  -16.6071   21.7924 C   0  0  0  0  0  0
  -29.5366  -20.2080   22.4451 C   0  0  0  0  0  0
  -27.7294  -21.1155   19.3479 C   0  0  0  0  0  0
  -26.9520  -21.9304   20.3793 C   0  0  0  0  0  0
  -28.5011  -20.1019   20.1935 C   0  0  0  0  0  0
  -27.9012  -22.0160   21.5944 C   0  0  2  0  0  0
  -26.3126  -20.9627   23.4194 C   0  0  0  0  0  0
  -29.0362  -25.4507   22.5419 C   0  0  0  0  0  0
  -27.0994  -22.1938   22.9231 C   0  0  0  0  0  0
  -28.9015  -23.1993   21.3828 C   0  0  0  0  0  0
  -28.5597  -25.3702   20.0291 C   0  0  0  0  0  0
  -28.3569  -24.6652   21.3989 C   0  0  2  0  0  0
  -28.6645  -20.7224   21.5277 N   0  0  0  0  0  0
  -30.1329  -15.3451   21.4124 N   0  0  0  0  0  0
  -29.7117  -20.8397   23.6033 N   0  3  0  0  0  0
  -31.4593  -12.4052   19.1059 H   0  0  0  0  0  0
  -30.3228  -11.2886   19.8015 H   0  0  0  0  0  0
  -29.7243  -11.7869   17.4167 H   0  0  0  0  0  0
  -29.6379  -13.4950   17.7683 H   0  0  0  0  0  0
  -27.8363  -11.2949   18.8282 H   0  0  0  0  0  0
  -27.3505  -12.6086   17.7917 H   0  0  0  0  0  0
  -27.7092  -14.2449   19.5752 H   0  0  0  0  0  0
  -28.6714  -11.9254   21.3199 H   0  0  0  0  0  0
  -28.4464  -13.5491   21.8816 H   0  0  0  0  0  0
  -25.2730   -9.5701   22.4767 H   0  0  0  0  0  0
  -23.9975   -7.4648   22.7494 H   0  0  0  0  0  0
  -21.0828   -8.8763   19.8937 H   0  0  0  0  0  0
  -22.3674  -10.9669   19.6156 H   0  0  0  0  0  0
  -21.2001   -7.6137   23.9707 H   0  0  0  0  0  0
  -21.1480   -6.0517   25.9075 H   0  0  0  0  0  0
  -22.0601   -2.7596   23.2855 H   0  0  0  0  0  0
  -22.4068  -11.9893   22.4758 H   0  0  0  0  0  0
  -21.1079  -13.1265   22.2550 H   0  0  0  0  0  0
  -24.6661  -15.8434   20.4972 H   0  0  0  0  0  0
  -26.2839  -15.6165   20.0623 H   0  0  0  0  0  0
  -26.7088  -32.5592   23.1171 H   0  0  0  0  0  0
  -25.0075  -33.9801   25.0502 H   0  0  0  0  0  0
  -22.6889  -31.3039   21.4085 H   0  0  0  0  0  0
  -23.3768  -35.9645   23.3301 H   0  0  0  0  0  0
  -24.3627  -36.8914   22.2059 H   0  0  0  0  0  0
  -23.7214  -37.6502   23.6647 H   0  0  0  0  0  0
  -25.9996  -31.5986   20.5713 H   0  0  0  0  0  0
  -26.8208  -30.9256   21.9501 H   0  0  0  0  0  0
  -28.0982  -29.1293   21.1641 H   0  0  0  0  0  0
  -26.0729  -25.9680   19.0267 H   0  0  0  0  0  0
  -23.9926  -27.2631   19.0617 H   0  0  0  0  0  0
  -23.7229  -30.5899   19.4102 H   0  0  0  0  0  0
  -22.7333  -29.2332   19.8680 H   0  0  0  0  0  0
  -25.1278  -36.2035   25.0834 H   0  0  0  0  0  0
  -20.9927  -28.3257   24.1472 H   0  0  0  0  0  0
  -20.5693  -26.2255   23.3605 H   0  0  0  0  0  0
  -21.6622  -26.7460   22.1200 H   0  0  0  0  0  0
  -19.6921  -25.6305   21.1230 H   0  0  0  0  0  0
  -19.6720  -27.3215   20.6761 H   0  0  0  0  0  0
  -17.4178  -26.6692   21.4018 H   0  0  0  0  0  0
  -18.0302  -26.0062   22.8997 H   0  0  0  0  0  0
  -19.7955  -30.7198   24.2331 H   0  0  0  0  0  0
  -17.5040  -31.6276   24.5155 H   0  0  0  0  0  0
  -15.5358  -30.2999   23.7614 H   0  0  0  0  0  0
  -15.8661  -28.0820   22.7043 H   0  0  0  0  0  0
  -24.6010  -30.6818   25.7663 H   0  0  0  0  0  0
  -24.8788  -32.2675   26.4778 H   0  0  0  0  0  0
  -25.8094  -30.8793   27.0148 H   0  0  0  0  0  0
  -26.2825  -29.6762   24.1084 H   0  0  0  0  0  0
  -27.4323  -29.7306   25.4259 H   0  0  0  0  0  0
  -27.8538  -30.4437   23.8872 H   0  0  0  0  0  0
  -27.2729  -33.3533   26.2025 H   0  0  0  0  0  0
  -28.3895  -32.6712   25.0261 H   0  0  0  0  0  0
  -28.0681  -31.8281   26.5322 H   0  0  0  0  0  0
  -28.2581  -38.0132   24.7533 H   0  0  0  0  0  0
  -28.1111  -36.2642   24.6288 H   0  0  0  0  0  0
  -27.2304  -37.1438   25.8874 H   0  0  0  0  0  0
  -20.9260  -29.8712   21.6965 H   0  0  0  0  0  0
  -26.0227  -38.2880   24.1419 H   0  0  0  0  0  0
  -33.6278  -18.0610   22.7375 H   0  0  0  0  0  0
  -32.1767  -20.0640   22.8139 H   0  0  0  0  0  0
  -32.7046  -15.8753   22.1140 H   0  0  0  0  0  0
  -28.7721  -17.6472   21.6863 H   0  0  0  0  0  0
  -28.4242  -21.7373   18.7814 H   0  0  0  0  0  0
  -27.0597  -20.6378   18.6335 H   0  0  0  0  0  0
  -26.0253  -21.4170   20.6332 H   0  0  0  0  0  0
  -26.6675  -22.9047   19.9822 H   0  0  0  0  0  0
  -29.4537  -19.8457   19.7282 H   0  0  0  0  0  0
  -27.9171  -19.1847   20.2824 H   0  0  0  0  0  0
  -25.7232  -21.2175   24.3003 H   0  0  0  0  0  0
  -26.9671  -20.1395   23.7078 H   0  0  0  0  0  0
  -25.6204  -20.5856   22.6668 H   0  0  0  0  0  0
  -28.8346  -24.9883   23.5098 H   0  0  0  0  0  0
  -28.6706  -26.4757   22.5953 H   0  0  0  0  0  0
  -30.1195  -25.4924   22.4156 H   0  0  0  0  0  0
  -26.3699  -22.9925   22.7868 H   0  0  0  0  0  0
  -27.7445  -22.5634   23.7202 H   0  0  0  0  0  0
  -29.4477  -23.0323   20.4537 H   0  0  0  0  0  0
  -29.6839  -23.1233   22.1377 H   0  0  0  0  0  0
  -27.9171  -24.9434   19.2607 H   0  0  0  0  0  0
  -29.5752  -25.1748   19.6850 H   0  0  0  0  0  0
  -27.2886  -24.6718   21.6105 H   0  0  0  0  0  0
  -29.1897  -15.1391   21.7041 H   0  0  0  0  0  0
  -30.3291  -20.4321   24.2883 H   0  0  0  0  0  0
  -29.1842  -21.6564   23.8497 H   0  0  0  0  0  0
  1 25  1  0  0  0
  1 30  2  0  0  0
  1 89  1  0  0  0
  2  3  1  0  0  0
  2 25  1  0  0  0
  2 91  1  0  0  0
  2 92  1  0  0  0
  3  4  1  0  0  0
  3 93  1  0  0  0
  3 94  1  0  0  0
  4  5  1  0  0  0
  4 95  1  0  0  0
  4 96  1  0  0  0
  5  6  1  0  0  0
  5 26  1  0  0  0
  5 97  1  0  0  0
  6 25  1  0  0  0
  6 98  1  0  0  0
  6 99  1  0  0  0
  7  8  2  0  0  0
  7 26  1  0  0  0
  7 29  1  0  0  0
  8  9  1  0  0  0
  8 22  1  0  0  0
  9 10  1  0  0  0
  9 27  2  0  0  0
 10 11  2  0  0  0
 10 15  1  0  0  0
 11 12  1  0  0  0
 11100  1  0  0  0
 12 13  2  0  0  0
 12101  1  0  0  0
 13 14  1  0  0  0
 13 31  1  0  0  0
 14 15  2  0  0  0
 14102  1  0  0  0
 15103  1  0  0  0
 16 17  2  0  0  0
 16 21  1  0  0  0
 16 31  1  0  0  0
 17 18  1  0  0  0
 17104  1  0  0  0
 18 19  2  0  0  0
 18105  1  0  0  0
 19 20  1  0  0  0
 19 24  1  0  0  0
 20 21  2  0  0  0
 20106  1  0  0  0
 21 23  1  0  0  0
 22 28  1  0  0  0
 22 32  2  0  0  0
 26 27  1  0  0  0
 28107  1  0  0  0
 28108  1  0  0  0
 29109  1  0  0  0
 29110  1  0  0  0
 33 34  1  0  0  0
 33 66  1  0  0  0
 33 70  2  0  0  0
 34 36  1  0  0  0
 34 59  1  0  0  0
 34111  1  0  0  0
 35 44  2  0  0  0
 35 45  1  0  0  0
 35 68  1  0  0  0
 36 56  1  0  0  0
 36112  1  0  0  0
 37 39  1  0  0  0
 37 47  1  0  0  0
 37 66  1  0  0  0
 37113  1  0  0  0
 38 43  2  0  0  0
 38 46  1  0  0  0
 38 47  1  0  0  0
 39 64  1  0  0  0
 39 67  2  0  0  0
 40 52  1  0  0  0
 40 53  2  0  0  0
 40 58  1  0  0  0
 41114  1  0  0  0
 41115  1  0  0  0
 41116  1  0  0  0
 41 48  1  0  0  0
 42 43  1  0  0  0
 42 66  1  0  0  0
 42117  1  0  0  0
 42118  1  0  0  0
 43 44  1  0  0  0
 44119  1  0  0  0
 45 46  2  0  0  0
 45120  1  0  0  0
 46121  1  0  0  0
 47122  1  0  0  0
 47123  1  0  0  0
 48 56  1  0  0  0
 48 65  1  0  0  0
 48124  1  0  0  0
 49 50  1  0  0  0
 49 53  1  0  0  0
 49 64  1  0  0  0
 49125  1  0  0  0
 50 51  1  0  0  0
 50126  1  0  0  0
 50127  1  0  0  0
 51 52  1  0  0  0
 51128  1  0  0  0
 51129  1  0  0  0
 52130  1  0  0  0
 52131  1  0  0  0
 53 54  1  0  0  0
 54 55  2  0  0  0
 54132  1  0  0  0
 55 57  1  0  0  0
 55133  1  0  0  0
 56 69  2  0  0  0
 57 58  2  0  0  0
 57134  1  0  0  0
 58135  1  0  0  0
 59 60  1  0  0  0
 59 61  1  0  0  0
 59 62  1  0  0  0
 60136  1  0  0  0
 60137  1  0  0  0
 60138  1  0  0  0
 61139  1  0  0  0
 61140  1  0  0  0
 61141  1  0  0  0
 62142  1  0  0  0
 62143  1  0  0  0
 62144  1  0  0  0
 63 65  1  0  0  0
 63145  1  0  0  0
 63146  1  0  0  0
 63147  1  0  0  0
 64148  1  0  0  0
 65149  1  0  0  0
 68 86  1  0  0  0
 71 72  2  0  0  0
 71 73  1  0  0  0
 71150  1  0  0  0
 72 75  1  0  0  0
 72151  1  0  0  0
 73 76  2  0  0  0
 73152  1  0  0  0
 74 75  2  0  0  0
 74 76  1  0  0  0
 74153  1  0  0  0
 75 77  1  0  0  0
 76 89  1  0  0  0
 77 88  1  0  0  0
 77 90  2  0  0  0
 78 79  1  0  0  0
 78 80  1  0  0  0
 78154  1  0  0  0
 78155  1  0  0  0
 79 81  1  0  0  0
 79156  1  0  0  0
 79157  1  0  0  0
 80 88  1  0  0  0
 80158  1  0  0  0
 80159  1  0  0  0
 81 84  1  0  0  0
 81 85  1  0  0  0
 81 88  1  0  0  0
 82 84  1  0  0  0
 82160  1  0  0  0
 82161  1  0  0  0
 82162  1  0  0  0
 83163  1  0  0  0
 83164  1  0  0  0
 83165  1  0  0  0
 83 87  1  0  0  0
 84166  1  0  0  0
 84167  1  0  0  0
 85 87  1  0  0  0
 85168  1  0  0  0
 85169  1  0  0  0
 86 87  1  0  0  0
 86170  1  0  0  0
 86171  1  0  0  0
 87172  1  0  0  0
 89173  1  0  0  0
 90174  1  0  0  0
 90175  1  0  0  0
M  CHG  1  90   1
M  ISO  4   1 100  68 101  86 101  89 100
M  END
> <chiral flag>
0

> <version>
0

> <s_m_source_file>
/data/baiqing/PycharmProjects/Reinvent-master-3.2/result/LINK_invent/BTK/process_docking_weight1_custom_product_contain_oxygen_bond_distance_aromatic_linkinvent_7_9_3/rearranged_h_0145.sdf

> <i_m_source_file_index>
43

> <r_mmod_Potential_Energy-OPLS-2005>
-89.0147171020508

> <r_mmod_Stretch_Energy-OPLS-2005>
43.5673980712891

> <r_mmod_Bend_Energy-OPLS-2005>
148.706268310547

> <r_mmod_Torsional_Energy-OPLS-2005>
329.738922119141

> <r_mmod_Improper_Torsional_Energy-OPLS-2005>
2.95656752586365

> <r_mmod_Van_der_Waal_Energy-OPLS-2005>
166.390213012695

> <r_mmod_Electrostatic_Energy-OPLS-2005>
-409.9208984375

> <r_mmod_Solvation_Energy-OPLS-2005>
-379.943237304688

> <b_mmod_Minimization_Converged-OPLS-2005>
0

> <r_mmod_RMS_Derivative-OPLS-2005>
2.94160342216492

$$$$
43
                    3D
 Structure written by MMmdl.
169178  0  0  1  0            999 V2000
  -30.7055  -14.5866   20.5281 C   0  0  0  0  0  0
  -30.4187  -12.3697   19.4530 C   0  0  0  0  0  0
  -29.5005  -12.4988   18.2246 C   0  0  0  0  0  0
  -28.0218  -12.3597   18.6311 C   0  0  0  0  0  0
  -27.6544  -13.2195   19.8678 C   0  0  2  0  0  0
  -28.6994  -13.0999   20.9993 C   0  0  0  0  0  0
  -25.2561  -13.8178   20.5685 C   0  0  0  0  0  0
  -24.1819  -13.0456   20.9175 C   0  0  0  0  0  0
  -24.6382  -11.6928   20.8740 C   0  0  0  0  0  0
  -23.9041  -10.4316   21.0390 C   0  0  0  0  0  0
  -24.3593   -9.4229   21.9164 C   0  0  0  0  0  0
  -23.6294   -8.2249   22.0732 C   0  0  0  0  0  0
  -22.4273   -8.0296   21.3535 C   0  0  0  0  0  0
  -21.9906   -9.0253   20.4631 C   0  0  0  0  0  0
  -22.7210  -10.2134   20.3035 C   0  0  0  0  0  0
  -21.6858   -6.0727   22.5280 C   0  0  0  0  0  0
  -21.3993   -6.5619   23.8211 C   0  0  0  0  0  0
  -21.3675   -5.6785   24.9175 C   0  0  0  0  0  0
  -21.6061   -4.3052   24.7220 C   0  0  0  0  0  0
  -21.8825   -3.8130   23.4346 C   0  0  0  0  0  0
  -21.9182   -4.6949   22.3401 C   0  0  0  0  0  0
  -22.7839  -13.5235   21.1874 C   0  0  0  0  0  0
  -22.1662   -4.2126   21.0985 F   0  0  0  0  0  0
  -21.5658   -3.4547   25.7735 F   0  0  0  0  0  0
  -30.0219  -13.4050   20.4300 N   0  0  0  0  0  0
  -26.3010  -12.9365   20.3359 N   0  0  0  0  0  0
  -25.9314  -11.6525   20.5748 N   0  0  0  0  0  0
  -22.0488  -12.8217   22.0407 N   0  0  0  0  0  0
  -25.4300  -15.1897   20.4133 N   0  0  0  0  0  0
  -31.8383  -14.7157   20.0578 O   0  0  0  0  0  0
  -21.6667   -6.8873   21.4236 O   0  0  0  0  0  0
  -22.3527  -14.5551   20.6751 O   0  0  0  0  0  0
  -24.6167  -31.8646   23.2006 C   0  0  0  0  0  0
  -25.9032  -32.4805   23.8332 C   0  0  1  0  0  0
  -27.2442  -27.3878   20.0954 C   0  0  0  0  0  0
  -25.5854  -33.8605   24.2257 N   0  0  0  0  0  0
  -23.4086  -30.4819   21.5461 C   0  0  2  0  0  0
  -24.8560  -28.9422   20.1085 C   0  0  0  0  0  0
  -22.7418  -29.4632   22.4994 C   0  0  0  0  0  0
  -18.0277  -28.1384   22.8533 C   0  0  0  0  0  0
  -24.1487  -36.7309   23.2650 C   0  0  0  0  0  0
  -25.9387  -30.8128   21.3599 C   0  0  0  0  0  0
  -26.0162  -29.4418   20.7095 C   0  0  0  0  0  0
  -27.2040  -28.6692   20.7031 C   0  0  0  0  0  0
  -26.0566  -26.9100   19.4931 C   0  0  0  0  0  0
  -24.8752  -27.6786   19.4962 C   0  0  0  0  0  0
  -23.6156  -29.8041   20.1636 C   0  0  0  0  0  0
  -25.4117  -36.3088   24.0326 C   0  0  1  0  0  0
  -20.5869  -28.3665   23.1362 C   0  0  2  0  0  0
  -20.6737  -26.9400   22.5462 C   0  0  0  0  0  0
  -19.5725  -26.6380   21.5249 C   0  0  0  0  0  0
  -18.1908  -26.7931   22.1660 C   0  0  0  0  0  0
  -19.1527  -28.8853   23.2927 C   0  0  0  0  0  0
  -18.9423  -30.1439   23.8939 C   0  0  0  0  0  0
  -17.6417  -30.6583   24.0592 C   0  0  0  0  0  0
  -25.9052  -34.9456   23.5102 C   0  0  0  0  0  0
  -16.5318  -29.9089   23.6330 C   0  0  0  0  0  0
  -16.7256  -28.6506   23.0368 C   0  0  0  0  0  0
  -26.4445  -31.6610   25.0693 C   0  0  0  0  0  0
  -25.3685  -31.3727   26.1418 C   0  0  0  0  0  0
  -27.0239  -30.3035   24.6095 C   0  0  0  0  0  0
  -27.6031  -32.4339   25.7467 C   0  0  0  0  0  0
  -27.5574  -37.1803   24.8452 C   0  0  0  0  0  0
  -21.4140  -29.3017   22.3726 N   0  0  0  0  0  0
  -26.4283  -37.3776   23.9399 N   0  0  0  0  0  0
  -24.6746  -31.0693   22.0936 N   0  0  0  0  0  0
  -23.4165  -28.8185   23.3051 O   0  0  0  0  0  0
  -28.4210  -26.6496   20.1550 O   0  0  0  0  0  0
  -26.5640  -34.8900   22.4678 O   0  0  0  0  0  0
  -23.5341  -32.1391   23.7365 O   0  0  0  0  0  0
  -30.2856  -18.1209   20.6423 C   0  0  0  0  0  0
  -29.6876  -19.1317   19.7896 C   0  0  0  0  0  0
  -28.7318  -18.6105   18.9513 C   0  0  0  0  0  0
  -29.7860  -16.8354   20.4546 C   0  0  0  0  0  0
  -30.2167  -20.5243   19.6261 C   0  0  0  0  0  0
  -27.7028  -23.2532   20.3288 C   0  0  0  0  0  0
  -28.1930  -21.7825   20.4552 C   0  0  0  0  0  0
  -28.9653  -24.0938   20.0331 C   0  0  2  0  0  0
  -29.7671  -23.0538   19.1432 C   0  0  0  0  0  0
  -27.9785  -19.2522   17.8276 C   0  0  0  0  0  0
  -29.7089  -24.3688   21.3638 C   0  0  0  0  0  0
  -31.2741  -23.4256   19.0581 C   0  0  0  0  0  0
  -29.2100  -23.0192   17.6978 C   0  0  0  0  0  0
  -28.6674  -25.4851   19.3210 C   0  0  0  0  0  0
  -29.4947  -21.7027   19.7640 N   0  0  0  0  0  0
  -30.0950  -15.6559   21.1017 N   0  0  0  0  0  0
  -31.5055  -20.5783   19.2579 N   0  3  0  0  0  0
  -28.5472  -16.8892   19.2172 S   0  0  0  0  0  0
  -31.4601  -12.4664   19.1446 H   0  0  0  0  0  0
  -30.3317  -11.3776   19.8990 H   0  0  0  0  0  0
  -29.7653  -11.7360   17.4892 H   0  0  0  0  0  0
  -29.6649  -13.4618   17.7402 H   0  0  0  0  0  0
  -27.8323  -11.3062   18.8406 H   0  0  0  0  0  0
  -27.3700  -12.6260   17.7974 H   0  0  0  0  0  0
  -27.6662  -14.2494   19.5226 H   0  0  0  0  0  0
  -28.6918  -12.0995   21.4335 H   0  0  0  0  0  0
  -28.4402  -13.7798   21.8116 H   0  0  0  0  0  0
  -25.2723   -9.5696   22.4730 H   0  0  0  0  0  0
  -24.0010   -7.4642   22.7432 H   0  0  0  0  0  0
  -21.0836   -8.8714   19.8958 H   0  0  0  0  0  0
  -22.3646  -10.9635   19.6119 H   0  0  0  0  0  0
  -21.1966   -7.6127   23.9688 H   0  0  0  0  0  0
  -21.1515   -6.0527   25.9081 H   0  0  0  0  0  0
  -22.0595   -2.7599   23.2851 H   0  0  0  0  0  0
  -22.4123  -11.9879   22.4769 H   0  0  0  0  0  0
  -21.1090  -13.1174   22.2612 H   0  0  0  0  0  0
  -24.6718  -15.8498   20.5347 H   0  0  0  0  0  0
  -26.3046  -15.6262   20.1502 H   0  0  0  0  0  0
  -26.7125  -32.5474   23.1110 H   0  0  0  0  0  0
  -24.9936  -33.9776   25.0364 H   0  0  0  0  0  0
  -22.6990  -31.2974   21.3960 H   0  0  0  0  0  0
  -23.3733  -35.9645   23.3288 H   0  0  0  0  0  0
  -24.3634  -36.8952   22.2072 H   0  0  0  0  0  0
  -23.7204  -37.6502   23.6684 H   0  0  0  0  0  0
  -26.0480  -31.5764   20.5868 H   0  0  0  0  0  0
  -26.8266  -30.8755   21.9763 H   0  0  0  0  0  0
  -28.0939  -29.0506   21.1812 H   0  0  0  0  0  0
  -26.0075  -25.9322   19.0416 H   0  0  0  0  0  0
  -23.9822  -27.2848   19.0299 H   0  0  0  0  0  0
  -23.7081  -30.5682   19.3937 H   0  0  0  0  0  0
  -22.7398  -29.2161   19.8836 H   0  0  0  0  0  0
  -25.1297  -36.1946   25.0813 H   0  0  0  0  0  0
  -21.0017  -28.3197   24.1457 H   0  0  0  0  0  0
  -20.5655  -26.2250   23.3647 H   0  0  0  0  0  0
  -21.6585  -26.7447   22.1213 H   0  0  0  0  0  0
  -19.6885  -25.6296   21.1253 H   0  0  0  0  0  0
  -19.6665  -27.3213   20.6810 H   0  0  0  0  0  0
  -17.4194  -26.6726   21.4043 H   0  0  0  0  0  0
  -18.0279  -26.0043   22.9036 H   0  0  0  0  0  0
  -19.7887  -30.7250   24.2331 H   0  0  0  0  0  0
  -17.4969  -31.6282   24.5142 H   0  0  0  0  0  0
  -15.5310  -30.2997   23.7637 H   0  0  0  0  0  0
  -15.8656  -28.0827   22.7091 H   0  0  0  0  0  0
  -24.5905  -30.7039   25.7726 H   0  0  0  0  0  0
  -24.8826  -32.2876   26.4818 H   0  0  0  0  0  0
  -25.8014  -30.8928   27.0201 H   0  0  0  0  0  0
  -26.2765  -29.6858   24.1109 H   0  0  0  0  0  0
  -27.3917  -29.7226   25.4557 H   0  0  0  0  0  0
  -27.8642  -30.4319   23.9269 H   0  0  0  0  0  0
  -27.2671  -33.3644   26.2057 H   0  0  0  0  0  0
  -28.3844  -32.6904   25.0302 H   0  0  0  0  0  0
  -28.0692  -31.8451   26.5379 H   0  0  0  0  0  0
  -28.2579  -38.0116   24.7532 H   0  0  0  0  0  0
  -28.1069  -36.2649   24.6228 H   0  0  0  0  0  0
  -27.2317  -37.1401   25.8861 H   0  0  0  0  0  0
  -20.9271  -29.8739   21.6973 H   0  0  0  0  0  0
  -26.0157  -38.2836   24.1423 H   0  0  0  0  0  0
  -31.0844  -18.3797   21.3234 H   0  0  0  0  0  0
  -27.1933  -23.5903   21.2341 H   0  0  0  0  0  0
  -26.9763  -23.3264   19.5214 H   0  0  0  0  0  0
  -27.4659  -21.0655   20.0803 H   0  0  0  0  0  0
  -28.3723  -21.5436   21.5045 H   0  0  0  0  0  0
  -27.5277  -20.2017   18.1031 H   0  0  0  0  0  0
  -27.1758  -18.5978   17.4856 H   0  0  0  0  0  0
  -28.6384  -19.4296   16.9783 H   0  0  0  0  0  0
  -30.0090  -23.4515   21.8722 H   0  0  0  0  0  0
  -29.0792  -24.9254   22.0578 H   0  0  0  0  0  0
  -30.6091  -24.9626   21.2062 H   0  0  0  0  0  0
  -31.4187  -24.4942   18.8979 H   0  0  0  0  0  0
  -31.7689  -22.9365   18.2182 H   0  0  0  0  0  0
  -31.8103  -23.1736   19.9738 H   0  0  0  0  0  0
  -29.4208  -23.9384   17.1514 H   0  0  0  0  0  0
  -28.1306  -22.8665   17.6655 H   0  0  0  0  0  0
  -29.6539  -22.2066   17.1259 H   0  0  0  0  0  0
  -27.9422  -25.3748   18.5176 H   0  0  0  0  0  0
  -29.5721  -25.7761   18.7873 H   0  0  0  0  0  0
  -30.3975  -15.7795   22.0579 H   0  0  0  0  0  0
  -32.0398  -19.7344   19.1085 H   0  0  0  0  0  0
  -31.9672  -21.4691   19.1420 H   0  0  0  0  0  0
  1 25  1  0  0  0
  1 30  2  0  0  0
  1 86  1  0  0  0
  2  3  1  0  0  0
  2 25  1  0  0  0
  2 89  1  0  0  0
  2 90  1  0  0  0
  3  4  1  0  0  0
  3 91  1  0  0  0
  3 92  1  0  0  0
  4  5  1  0  0  0
  4 93  1  0  0  0
  4 94  1  0  0  0
  5  6  1  0  0  0
  5 26  1  0  0  0
  5 95  1  0  0  0
  6 25  1  0  0  0
  6 96  1  0  0  0
  6 97  1  0  0  0
  7  8  2  0  0  0
  7 26  1  0  0  0
  7 29  1  0  0  0
  8  9  1  0  0  0
  8 22  1  0  0  0
  9 10  1  0  0  0
  9 27  2  0  0  0
 10 11  2  0  0  0
 10 15  1  0  0  0
 11 12  1  0  0  0
 11 98  1  0  0  0
 12 13  2  0  0  0
 12 99  1  0  0  0
 13 14  1  0  0  0
 13 31  1  0  0  0
 14 15  2  0  0  0
 14100  1  0  0  0
 15101  1  0  0  0
 16 17  2  0  0  0
 16 21  1  0  0  0
 16 31  1  0  0  0
 17 18  1  0  0  0
 17102  1  0  0  0
 18 19  2  0  0  0
 18103  1  0  0  0
 19 20  1  0  0  0
 19 24  1  0  0  0
 20 21  2  0  0  0
 20104  1  0  0  0
 21 23  1  0  0  0
 22 28  1  0  0  0
 22 32  2  0  0  0
 26 27  1  0  0  0
 28105  1  0  0  0
 28106  1  0  0  0
 29107  1  0  0  0
 29108  1  0  0  0
 33 34  1  0  0  0
 33 66  1  0  0  0
 33 70  2  0  0  0
 34 36  1  0  0  0
 34 59  1  0  0  0
 34109  1  0  0  0
 35 44  2  0  0  0
 35 45  1  0  0  0
 35 68  1  0  0  0
 36 56  1  0  0  0
 36110  1  0  0  0
 37 39  1  0  0  0
 37 47  1  0  0  0
 37 66  1  0  0  0
 37111  1  0  0  0
 38 43  2  0  0  0
 38 46  1  0  0  0
 38 47  1  0  0  0
 39 64  1  0  0  0
 39 67  2  0  0  0
 40 52  1  0  0  0
 40 53  2  0  0  0
 40 58  1  0  0  0
 41112  1  0  0  0
 41113  1  0  0  0
 41114  1  0  0  0
 41 48  1  0  0  0
 42 43  1  0  0  0
 42 66  1  0  0  0
 42115  1  0  0  0
 42116  1  0  0  0
 43 44  1  0  0  0
 44117  1  0  0  0
 45 46  2  0  0  0
 45118  1  0  0  0
 46119  1  0  0  0
 47120  1  0  0  0
 47121  1  0  0  0
 48 56  1  0  0  0
 48 65  1  0  0  0
 48122  1  0  0  0
 49 50  1  0  0  0
 49 53  1  0  0  0
 49 64  1  0  0  0
 49123  1  0  0  0
 50 51  1  0  0  0
 50124  1  0  0  0
 50125  1  0  0  0
 51 52  1  0  0  0
 51126  1  0  0  0
 51127  1  0  0  0
 52128  1  0  0  0
 52129  1  0  0  0
 53 54  1  0  0  0
 54 55  2  0  0  0
 54130  1  0  0  0
 55 57  1  0  0  0
 55131  1  0  0  0
 56 69  2  0  0  0
 57 58  2  0  0  0
 57132  1  0  0  0
 58133  1  0  0  0
 59 60  1  0  0  0
 59 61  1  0  0  0
 59 62  1  0  0  0
 60134  1  0  0  0
 60135  1  0  0  0
 60136  1  0  0  0
 61137  1  0  0  0
 61138  1  0  0  0
 61139  1  0  0  0
 62140  1  0  0  0
 62141  1  0  0  0
 62142  1  0  0  0
 63 65  1  0  0  0
 63143  1  0  0  0
 63144  1  0  0  0
 63145  1  0  0  0
 64146  1  0  0  0
 65147  1  0  0  0
 68 84  1  0  0  0
 71 72  1  0  0  0
 71 74  2  0  0  0
 71148  1  0  0  0
 72 73  2  0  0  0
 72 75  1  0  0  0
 73 80  1  0  0  0
 73 88  1  0  0  0
 74 86  1  0  0  0
 74 88  1  0  0  0
 75 85  1  0  0  0
 75 87  2  0  0  0
 76 77  1  0  0  0
 76 78  1  0  0  0
 76149  1  0  0  0
 76150  1  0  0  0
 77 85  1  0  0  0
 77151  1  0  0  0
 77152  1  0  0  0
 78 79  1  0  0  0
 78 81  1  0  0  0
 78 84  1  0  0  0
 79 82  1  0  0  0
 79 83  1  0  0  0
 79 85  1  0  0  0
 80153  1  0  0  0
 80154  1  0  0  0
 80155  1  0  0  0
 81156  1  0  0  0
 81157  1  0  0  0
 81158  1  0  0  0
 82159  1  0  0  0
 82160  1  0  0  0
 82161  1  0  0  0
 83162  1  0  0  0
 83163  1  0  0  0
 83164  1  0  0  0
 84165  1  0  0  0
 84166  1  0  0  0
 86167  1  0  0  0
 87168  1  0  0  0
 87169  1  0  0  0
M  CHG  1  87   1
M  ISO  4   1 100  68 101  84 101  86 100
M  END
> <chiral flag>
0

> <version>
0

> <s_m_source_file>
/data/baiqing/PycharmProjects/Reinvent-master-3.2/result/LINK_invent/BTK/process_docking_weight1_custom_product_contain_oxygen_bond_distance_aromatic_linkinvent_7_9_3/rearranged_h_0145.sdf

> <i_m_source_file_index>
44

> <r_mmod_Potential_Energy-OPLS-2005>
145.796524047852

> <r_mmod_Stretch_Energy-OPLS-2005>
63.351921081543

> <r_mmod_Bend_Energy-OPLS-2005>
181.344833374023

> <r_mmod_Torsional_Energy-OPLS-2005>
397.718536376953

> <r_mmod_Improper_Torsional_Energy-OPLS-2005>
7.19503831863403

> <r_mmod_Van_der_Waal_Energy-OPLS-2005>
126.013633728027

> <r_mmod_Electrostatic_Energy-OPLS-2005>
-234.983917236328

> <r_mmod_Solvation_Energy-OPLS-2005>
-423.883361816406

> <b_mmod_Minimization_Converged-OPLS-2005>
0

> <r_mmod_RMS_Derivative-OPLS-2005>
5.0134449005127

$$$$
44
                    3D
 Structure written by MMmdl.
162171  0  0  1  0            999 V2000
  -30.6211  -14.6129   20.5300 C   0  0  0  0  0  0
  -30.4338  -12.3772   19.4580 C   0  0  0  0  0  0
  -29.5151  -12.5316   18.2278 C   0  0  0  0  0  0
  -28.0308  -12.3811   18.6213 C   0  0  0  0  0  0
  -27.6589  -13.2213   19.8742 C   0  0  2  0  0  0
  -28.6965  -13.0396   21.0052 C   0  0  0  0  0  0
  -25.2587  -13.8199   20.5692 C   0  0  0  0  0  0
  -24.1854  -13.0450   20.9170 C   0  0  0  0  0  0
  -24.6428  -11.6922   20.8689 C   0  0  0  0  0  0
  -23.9071  -10.4298   21.0358 C   0  0  0  0  0  0
  -24.3611   -9.4231   21.9153 C   0  0  0  0  0  0
  -23.6309   -8.2263   22.0728 C   0  0  0  0  0  0
  -22.4294   -8.0277   21.3520 C   0  0  0  0  0  0
  -21.9920   -9.0231   20.4616 C   0  0  0  0  0  0
  -22.7226  -10.2135   20.3030 C   0  0  0  0  0  0
  -21.6890   -6.0727   22.5264 C   0  0  0  0  0  0
  -21.4018   -6.5625   23.8194 C   0  0  0  0  0  0
  -21.3671   -5.6774   24.9154 C   0  0  0  0  0  0
  -21.6071   -4.3040   24.7226 C   0  0  0  0  0  0
  -21.8831   -3.8140   23.4341 C   0  0  0  0  0  0
  -21.9202   -4.6956   22.3392 C   0  0  0  0  0  0
  -22.7857  -13.5216   21.1850 C   0  0  0  0  0  0
  -22.1671   -4.2148   21.0961 F   0  0  0  0  0  0
  -21.5641   -3.4515   25.7734 F   0  0  0  0  0  0
  -30.0177  -13.3832   20.4576 N   0  0  0  0  0  0
  -26.3014  -12.9381   20.3326 N   0  0  0  0  0  0
  -25.9363  -11.6526   20.5700 N   0  0  0  0  0  0
  -22.0507  -12.8182   22.0410 N   0  0  0  0  0  0
  -25.4412  -15.1916   20.4141 N   0  0  0  0  0  0
  -31.7403  -14.8095   20.0476 O   0  0  0  0  0  0
  -21.6677   -6.8881   21.4233 O   0  0  0  0  0  0
  -22.3526  -14.5517   20.6709 O   0  0  0  0  0  0
  -24.6252  -31.8565   23.2015 C   0  0  0  0  0  0
  -25.9102  -32.4754   23.8342 C   0  0  1  0  0  0
  -27.2246  -27.3144   20.1383 C   0  0  0  0  0  0
  -25.5933  -33.8561   24.2284 N   0  0  0  0  0  0
  -23.4185  -30.4779   21.5430 C   0  0  2  0  0  0
  -24.8670  -28.9273   20.1125 C   0  0  0  0  0  0
  -22.7454  -29.4608   22.4952 C   0  0  0  0  0  0
  -18.0273  -28.1349   22.8467 C   0  0  0  0  0  0
  -24.1482  -36.7307   23.2630 C   0  0  0  0  0  0
  -25.9557  -30.7891   21.3696 C   0  0  0  0  0  0
  -26.0336  -29.4128   20.7187 C   0  0  0  0  0  0
  -27.2158  -28.6186   20.7193 C   0  0  0  0  0  0
  -26.0408  -26.8773   19.5065 C   0  0  0  0  0  0
  -24.8747  -27.6654   19.4948 C   0  0  0  0  0  0
  -23.6328  -29.8037   20.1603 C   0  0  0  0  0  0
  -25.4109  -36.3077   24.0321 C   0  0  1  0  0  0
  -20.5862  -28.3663   23.1292 C   0  0  2  0  0  0
  -20.6775  -26.9394   22.5415 C   0  0  0  0  0  0
  -19.5769  -26.6349   21.5202 C   0  0  0  0  0  0
  -18.1932  -26.7902   22.1586 C   0  0  0  0  0  0
  -19.1515  -28.8830   23.2872 C   0  0  0  0  0  0
  -18.9447  -30.1439   23.8879 C   0  0  0  0  0  0
  -17.6453  -30.6569   24.0555 C   0  0  0  0  0  0
  -25.9043  -34.9440   23.5107 C   0  0  0  0  0  0
  -16.5338  -29.9064   23.6332 C   0  0  0  0  0  0
  -16.7259  -28.6472   23.0349 C   0  0  0  0  0  0
  -26.4476  -31.6551   25.0715 C   0  0  0  0  0  0
  -25.3724  -31.3694   26.1455 C   0  0  0  0  0  0
  -27.0314  -30.2973   24.6169 C   0  0  0  0  0  0
  -27.6013  -32.4264   25.7536 C   0  0  0  0  0  0
  -27.5583  -37.1814   24.8444 C   0  0  0  0  0  0
  -21.4164  -29.3037   22.3709 N   0  0  0  0  0  0
  -26.4275  -37.3778   23.9405 N   0  0  0  0  0  0
  -24.6854  -31.0565   22.0964 N   0  0  0  0  0  0
  -23.4171  -28.8133   23.3024 O   0  0  0  0  0  0
  -28.3423  -26.4711   20.1667 O   0  0  0  0  0  0
  -26.5598  -34.8905   22.4666 O   0  0  0  0  0  0
  -23.5430  -32.1335   23.7376 O   0  0  0  0  0  0
  -29.6372  -19.4477   21.4678 C   0  0  0  0  0  0
  -29.8480  -18.0568   21.7616 C   0  0  0  0  0  0
  -29.5323  -17.4749   19.4345 C   0  0  0  0  0  0
  -29.2944  -18.8535   19.1747 C   0  0  0  0  0  0
  -29.3474  -19.8662   20.1439 C   0  0  0  0  0  0
  -29.8163  -17.0391   20.7565 C   0  0  0  0  0  0
  -28.9215  -19.4339   17.8526 C   0  0  0  0  0  0
  -28.6950  -20.9165   18.2089 C   0  0  0  0  0  0
  -30.3421  -24.0709   19.7753 C   0  0  0  0  0  0
  -28.2680  -24.0373   18.3369 C   0  0  0  0  0  0
  -28.5378  -22.3718   20.3426 C   0  0  0  0  0  0
  -28.1667  -25.0643   20.6188 C   0  0  0  0  0  0
  -28.8174  -23.8679   19.7708 C   0  0  0  0  0  0
  -29.0959  -21.1765   19.6041 N   0  0  0  0  0  0
  -29.8967  -15.6230   21.1035 N   0  0  0  0  0  0
  -31.4768  -12.4971   19.1640 H   0  0  0  0  0  0
  -30.3560  -11.3700   19.8686 H   0  0  0  0  0  0
  -29.7745  -11.7966   17.4655 H   0  0  0  0  0  0
  -29.6841  -13.5122   17.7807 H   0  0  0  0  0  0
  -27.8400  -11.3232   18.8049 H   0  0  0  0  0  0
  -27.3941  -12.6631   17.7817 H   0  0  0  0  0  0
  -27.6920  -14.2663   19.5652 H   0  0  0  0  0  0
  -28.6965  -12.0079   21.3603 H   0  0  0  0  0  0
  -28.4360  -13.6462   21.8726 H   0  0  0  0  0  0
  -25.2780   -9.5743   22.4694 H   0  0  0  0  0  0
  -24.0057   -7.4682   22.7448 H   0  0  0  0  0  0
  -21.0860   -8.8708   19.8919 H   0  0  0  0  0  0
  -22.3659  -10.9641   19.6121 H   0  0  0  0  0  0
  -21.1986   -7.6132   23.9697 H   0  0  0  0  0  0
  -21.1494   -6.0499   25.9056 H   0  0  0  0  0  0
  -22.0607   -2.7608   23.2831 H   0  0  0  0  0  0
  -22.4125  -11.9825   22.4767 H   0  0  0  0  0  0
  -21.1101  -13.1164   22.2551 H   0  0  0  0  0  0
  -24.7008  -15.8675   20.5622 H   0  0  0  0  0  0
  -26.3047  -15.6203   20.1027 H   0  0  0  0  0  0
  -26.7188  -32.5409   23.1108 H   0  0  0  0  0  0
  -25.0125  -33.9692   25.0468 H   0  0  0  0  0  0
  -22.7128  -31.2974   21.3972 H   0  0  0  0  0  0
  -23.3735  -35.9644   23.3228 H   0  0  0  0  0  0
  -24.3589  -36.8995   22.2059 H   0  0  0  0  0  0
  -23.7217  -37.6494   23.6687 H   0  0  0  0  0  0
  -26.0764  -31.5504   20.5962 H   0  0  0  0  0  0
  -26.8411  -30.8473   21.9926 H   0  0  0  0  0  0
  -28.1109  -28.9855   21.2019 H   0  0  0  0  0  0
  -26.0128  -25.9080   19.0267 H   0  0  0  0  0  0
  -23.9815  -27.2903   19.0140 H   0  0  0  0  0  0
  -23.7462  -30.5731   19.3964 H   0  0  0  0  0  0
  -22.7542  -29.2262   19.8646 H   0  0  0  0  0  0
  -25.1292  -36.1937   25.0808 H   0  0  0  0  0  0
  -20.9931  -28.3229   24.1419 H   0  0  0  0  0  0
  -20.5673  -26.2270   23.3608 H   0  0  0  0  0  0
  -21.6655  -26.7430   22.1224 H   0  0  0  0  0  0
  -19.6947  -25.6246   21.1269 H   0  0  0  0  0  0
  -19.6738  -27.3127   20.6708 H   0  0  0  0  0  0
  -17.4228  -26.6643   21.3966 H   0  0  0  0  0  0
  -18.0323  -26.0028   22.8962 H   0  0  0  0  0  0
  -19.7925  -30.7258   24.2220 H   0  0  0  0  0  0
  -17.5002  -31.6246   24.5159 H   0  0  0  0  0  0
  -15.5336  -30.2961   23.7672 H   0  0  0  0  0  0
  -15.8647  -28.0794   22.7075 H   0  0  0  0  0  0
  -24.5902  -30.7020   25.7816 H   0  0  0  0  0  0
  -24.8914  -32.2866   26.4877 H   0  0  0  0  0  0
  -25.8080  -30.8900   27.0236 H   0  0  0  0  0  0
  -26.2900  -29.6734   24.1169 H   0  0  0  0  0  0
  -27.3967  -29.7215   25.4682 H   0  0  0  0  0  0
  -27.8778  -30.4223   23.9408 H   0  0  0  0  0  0
  -27.2582  -33.3521   26.2174 H   0  0  0  0  0  0
  -28.3857  -32.6885   25.0420 H   0  0  0  0  0  0
  -28.0647  -31.8339   26.5444 H   0  0  0  0  0  0
  -28.2568  -38.0145   24.7541 H   0  0  0  0  0  0
  -28.1117  -36.2683   24.6204 H   0  0  0  0  0  0
  -27.2309  -37.1391   25.8844 H   0  0  0  0  0  0
  -20.9324  -29.8800   21.6969 H   0  0  0  0  0  0
  -26.0153  -38.2850   24.1424 H   0  0  0  0  0  0
  -29.6977  -20.1704   22.2687 H   0  0  0  0  0  0
  -30.0347  -17.7761   22.7867 H   0  0  0  0  0  0
  -29.4504  -16.7607   18.6276 H   0  0  0  0  0  0
  -28.0244  -18.9685   17.4390 H   0  0  0  0  0  0
  -29.7351  -19.3152   17.1358 H   0  0  0  0  0  0
  -27.6402  -21.1681   18.0889 H   0  0  0  0  0  0
  -29.2696  -21.5337   17.5241 H   0  0  0  0  0  0
  -30.8499  -23.3108   19.1824 H   0  0  0  0  0  0
  -30.7359  -24.0031   20.7895 H   0  0  0  0  0  0
  -30.6180  -25.0440   19.3699 H   0  0  0  0  0  0
  -28.9166  -23.5890   17.5898 H   0  0  0  0  0  0
  -28.1849  -25.0852   18.0437 H   0  0  0  0  0  0
  -27.2742  -23.6013   18.2393 H   0  0  0  0  0  0
  -27.4571  -22.2332   20.4016 H   0  0  0  0  0  0
  -28.8841  -22.3246   21.3754 H   0  0  0  0  0  0
  -28.5951  -25.0298   21.6223 H   0  0  0  0  0  0
  -27.1129  -24.8446   20.7818 H   0  0  0  0  0  0
  -29.1577  -15.2949   21.7066 H   0  0  0  0  0  0
  1 25  1  0  0  0
  1 30  2  0  0  0
  1 85  1  0  0  0
  2  3  1  0  0  0
  2 25  1  0  0  0
  2 86  1  0  0  0
  2 87  1  0  0  0
  3  4  1  0  0  0
  3 88  1  0  0  0
  3 89  1  0  0  0
  4  5  1  0  0  0
  4 90  1  0  0  0
  4 91  1  0  0  0
  5  6  1  0  0  0
  5 26  1  0  0  0
  5 92  1  0  0  0
  6 25  1  0  0  0
  6 93  1  0  0  0
  6 94  1  0  0  0
  7  8  2  0  0  0
  7 26  1  0  0  0
  7 29  1  0  0  0
  8  9  1  0  0  0
  8 22  1  0  0  0
  9 10  1  0  0  0
  9 27  2  0  0  0
 10 11  2  0  0  0
 10 15  1  0  0  0
 11 12  1  0  0  0
 11 95  1  0  0  0
 12 13  2  0  0  0
 12 96  1  0  0  0
 13 14  1  0  0  0
 13 31  1  0  0  0
 14 15  2  0  0  0
 14 97  1  0  0  0
 15 98  1  0  0  0
 16 17  2  0  0  0
 16 21  1  0  0  0
 16 31  1  0  0  0
 17 18  1  0  0  0
 17 99  1  0  0  0
 18 19  2  0  0  0
 18100  1  0  0  0
 19 20  1  0  0  0
 19 24  1  0  0  0
 20 21  2  0  0  0
 20101  1  0  0  0
 21 23  1  0  0  0
 22 28  1  0  0  0
 22 32  2  0  0  0
 26 27  1  0  0  0
 28102  1  0  0  0
 28103  1  0  0  0
 29104  1  0  0  0
 29105  1  0  0  0
 33 34  1  0  0  0
 33 66  1  0  0  0
 33 70  2  0  0  0
 34 36  1  0  0  0
 34 59  1  0  0  0
 34106  1  0  0  0
 35 44  2  0  0  0
 35 45  1  0  0  0
 35 68  1  0  0  0
 36 56  1  0  0  0
 36107  1  0  0  0
 37 39  1  0  0  0
 37 47  1  0  0  0
 37 66  1  0  0  0
 37108  1  0  0  0
 38 43  2  0  0  0
 38 46  1  0  0  0
 38 47  1  0  0  0
 39 64  1  0  0  0
 39 67  2  0  0  0
 40 52  1  0  0  0
 40 53  2  0  0  0
 40 58  1  0  0  0
 41109  1  0  0  0
 41110  1  0  0  0
 41111  1  0  0  0
 41 48  1  0  0  0
 42 43  1  0  0  0
 42 66  1  0  0  0
 42112  1  0  0  0
 42113  1  0  0  0
 43 44  1  0  0  0
 44114  1  0  0  0
 45 46  2  0  0  0
 45115  1  0  0  0
 46116  1  0  0  0
 47117  1  0  0  0
 47118  1  0  0  0
 48 56  1  0  0  0
 48 65  1  0  0  0
 48119  1  0  0  0
 49 50  1  0  0  0
 49 53  1  0  0  0
 49 64  1  0  0  0
 49120  1  0  0  0
 50 51  1  0  0  0
 50121  1  0  0  0
 50122  1  0  0  0
 51 52  1  0  0  0
 51123  1  0  0  0
 51124  1  0  0  0
 52125  1  0  0  0
 52126  1  0  0  0
 53 54  1  0  0  0
 54 55  2  0  0  0
 54127  1  0  0  0
 55 57  1  0  0  0
 55128  1  0  0  0
 56 69  2  0  0  0
 57 58  2  0  0  0
 57129  1  0  0  0
 58130  1  0  0  0
 59 60  1  0  0  0
 59 61  1  0  0  0
 59 62  1  0  0  0
 60131  1  0  0  0
 60132  1  0  0  0
 60133  1  0  0  0
 61134  1  0  0  0
 61135  1  0  0  0
 61136  1  0  0  0
 62137  1  0  0  0
 62138  1  0  0  0
 62139  1  0  0  0
 63 65  1  0  0  0
 63140  1  0  0  0
 63141  1  0  0  0
 63142  1  0  0  0
 64143  1  0  0  0
 65144  1  0  0  0
 68 82  1  0  0  0
 71 72  2  0  0  0
 71 75  1  0  0  0
 71145  1  0  0  0
 72 76  1  0  0  0
 72146  1  0  0  0
 73 74  1  0  0  0
 73 76  2  0  0  0
 73147  1  0  0  0
 74 75  2  0  0  0
 74 77  1  0  0  0
 75 84  1  0  0  0
 76 85  1  0  0  0
 77 78  1  0  0  0
 77148  1  0  0  0
 77149  1  0  0  0
 78 84  1  0  0  0
 78150  1  0  0  0
 78151  1  0  0  0
 79152  1  0  0  0
 79153  1  0  0  0
 79154  1  0  0  0
 79 83  1  0  0  0
 80 83  1  0  0  0
 80155  1  0  0  0
 80156  1  0  0  0
 80157  1  0  0  0
 81 83  1  0  0  0
 81 84  1  0  0  0
 81158  1  0  0  0
 81159  1  0  0  0
 82 83  1  0  0  0
 82160  1  0  0  0
 82161  1  0  0  0
 85162  1  0  0  0
M  ISO  4   1 100  68 101  82 101  85 100
M  END
> <chiral flag>
0

> <version>
0

> <s_m_source_file>
/data/baiqing/PycharmProjects/Reinvent-master-3.2/result/LINK_invent/BTK/process_docking_weight1_custom_product_contain_oxygen_bond_distance_aromatic_linkinvent_7_9_3/rearranged_h_0145.sdf

> <i_m_source_file_index>
45

> <r_mmod_Potential_Energy-OPLS-2005>
120.130714416504

> <r_mmod_Stretch_Energy-OPLS-2005>
89.087776184082

> <r_mmod_Bend_Energy-OPLS-2005>
187.258224487305

> <r_mmod_Torsional_Energy-OPLS-2005>
279.357177734375

> <r_mmod_Improper_Torsional_Energy-OPLS-2005>
6.21781015396118

> <r_mmod_Van_der_Waal_Energy-OPLS-2005>
133.826934814453

> <r_mmod_Electrostatic_Energy-OPLS-2005>
-398.919250488281

> <r_mmod_Solvation_Energy-OPLS-2005>
-220.734588623047

> <b_mmod_Minimization_Converged-OPLS-2005>
0

> <r_mmod_RMS_Derivative-OPLS-2005>
4.38436460494995

$$$$
45
                    3D
 Structure written by MMmdl.
160169  0  0  1  0            999 V2000
  -30.6267  -14.9756   20.5078 C   0  0  0  0  0  0
  -30.4218  -12.6074   19.5681 C   0  0  0  0  0  0
  -29.5372  -12.5734   18.2976 C   0  0  0  0  0  0
  -28.0634  -12.3614   18.6820 C   0  0  0  0  0  0
  -27.6329  -13.2705   19.8657 C   0  0  2  0  0  0
  -28.6730  -13.2981   21.0176 C   0  0  0  0  0  0
  -25.2148  -13.8081   20.5260 C   0  0  0  0  0  0
  -24.1567  -13.0333   20.9022 C   0  0  0  0  0  0
  -24.6335  -11.6858   20.8732 C   0  0  0  0  0  0
  -23.9061  -10.4225   21.0412 C   0  0  0  0  0  0
  -24.3606   -9.4151   21.9211 C   0  0  0  0  0  0
  -23.6249   -8.2197   22.0778 C   0  0  0  0  0  0
  -22.4263   -8.0221   21.3535 C   0  0  0  0  0  0
  -21.9889   -9.0208   20.4666 C   0  0  0  0  0  0
  -22.7226  -10.2074   20.3060 C   0  0  0  0  0  0
  -21.6821   -6.0708   22.5277 C   0  0  0  0  0  0
  -21.4023   -6.5616   23.8213 C   0  0  0  0  0  0
  -21.3680   -5.6771   24.9177 C   0  0  0  0  0  0
  -21.6038   -4.3028   24.7231 C   0  0  0  0  0  0
  -21.8811   -3.8117   23.4353 C   0  0  0  0  0  0
  -21.9175   -4.6932   22.3407 C   0  0  0  0  0  0
  -22.7619  -13.5134   21.1784 C   0  0  0  0  0  0
  -22.1642   -4.2101   21.0985 F   0  0  0  0  0  0
  -21.5626   -3.4535   25.7761 F   0  0  0  0  0  0
  -29.9622  -13.7299   20.4617 N   0  0  0  0  0  0
  -26.2830  -12.9502   20.3320 N   0  0  0  0  0  0
  -25.9314  -11.6609   20.5838 N   0  0  0  0  0  0
  -22.0315  -12.8197   22.0413 N   0  0  0  0  0  0
  -25.3426  -15.1689   20.3051 N   0  0  0  0  0  0
  -31.7297  -14.9651   19.9457 O   0  0  0  0  0  0
  -21.6604   -6.8849   21.4242 O   0  0  0  0  0  0
  -22.3322  -14.5489   20.6681 O   0  0  0  0  0  0
  -24.6450  -31.8445   23.1865 C   0  0  0  0  0  0
  -25.9239  -32.4683   23.8271 C   0  0  1  0  0  0
  -27.2276  -27.1305   20.1545 C   0  0  0  0  0  0
  -25.5962  -33.8494   24.2190 N   0  0  0  0  0  0
  -23.4443  -30.4641   21.5346 C   0  0  2  0  0  0
  -24.8926  -28.8883   20.1107 C   0  0  0  0  0  0
  -22.7578  -29.4559   22.4891 C   0  0  0  0  0  0
  -18.0300  -28.1408   22.8477 C   0  0  0  0  0  0
  -24.1449  -36.7200   23.2651 C   0  0  0  0  0  0
  -26.0047  -30.7160   21.3820 C   0  0  0  0  0  0
  -26.0731  -29.3249   20.7257 C   0  0  0  0  0  0
  -27.2369  -28.4653   20.7271 C   0  0  0  0  0  0
  -26.0115  -26.7925   19.5141 C   0  0  0  0  0  0
  -24.8773  -27.6316   19.4891 C   0  0  0  0  0  0
  -23.6654  -29.7891   20.1555 C   0  0  0  0  0  0
  -25.4095  -36.3027   24.0340 C   0  0  1  0  0  0
  -20.5916  -28.3724   23.1235 C   0  0  2  0  0  0
  -20.6764  -26.9431   22.5397 C   0  0  0  0  0  0
  -19.5728  -26.6402   21.5207 C   0  0  0  0  0  0
  -18.1922  -26.7945   22.1639 C   0  0  0  0  0  0
  -19.1561  -28.8889   23.2832 C   0  0  0  0  0  0
  -18.9502  -30.1487   23.8852 C   0  0  0  0  0  0
  -17.6499  -30.6613   24.0554 C   0  0  0  0  0  0
  -25.9082  -34.9412   23.5080 C   0  0  0  0  0  0
  -16.5382  -29.9104   23.6347 C   0  0  0  0  0  0
  -16.7284  -28.6514   23.0382 C   0  0  0  0  0  0
  -26.4553  -31.6554   25.0710 C   0  0  0  0  0  0
  -25.3730  -31.3741   26.1413 C   0  0  0  0  0  0
  -27.0419  -30.2937   24.6297 C   0  0  0  0  0  0
  -27.6063  -32.4325   25.7484 C   0  0  0  0  0  0
  -27.5553  -37.1757   24.8498 C   0  0  0  0  0  0
  -21.4274  -29.3039   22.3622 N   0  0  0  0  0  0
  -26.4256  -37.3753   23.9462 N   0  0  0  0  0  0
  -24.7181  -31.0317   22.0866 N   0  0  0  0  0  0
  -23.4227  -28.8180   23.3093 O   0  0  0  0  0  0
  -28.2915  -26.1474   20.2434 O   0  0  0  0  0  0
  -26.5720  -34.8933   22.4683 O   0  0  0  0  0  0
  -23.5565  -32.1322   23.7103 O   0  0  0  0  0  0
  -28.1090  -19.5610   20.7603 C   0  0  0  0  0  0
  -30.4140  -20.0489   20.6993 C   0  0  0  0  0  0
  -28.3821  -18.1530   21.0254 C   0  0  0  0  0  0
  -30.6591  -18.6079   20.8362 C   0  0  0  0  0  0
  -29.6926  -17.5622   20.8553 C   0  0  0  0  0  0
  -29.0824  -20.6035   20.6068 C   0  0  0  0  0  0
  -27.3228  -17.3689   21.7138 C   0  0  0  0  0  0
  -29.0234  -23.3908   20.4864 C   0  0  0  0  0  0
  -31.9438  -17.9792   21.2997 C   0  0  0  0  0  0
  -31.4499  -16.6620   21.9871 C   0  0  0  0  0  0
  -26.1753  -18.0995   22.4229 C   0  0  0  0  0  0
  -28.1757  -24.4946   18.3661 C   0  0  0  0  0  0
  -28.0806  -24.6339   19.9023 C   0  0  2  0  0  0
  -30.2563  -16.1744   21.2389 N   0  0  0  0  0  0
  -28.5844  -22.0457   20.3985 N   0  0  0  0  0  0
  -27.3832  -16.1511   21.8400 O   0  0  0  0  0  0
  -30.1246  -23.6565   20.9746 O   0  0  0  0  0  0
  -31.4727  -12.6899   19.2890 H   0  0  0  0  0  0
  -30.3653  -11.6521   20.0939 H   0  0  0  0  0  0
  -29.8704  -11.7841   17.6210 H   0  0  0  0  0  0
  -29.6420  -13.5120   17.7499 H   0  0  0  0  0  0
  -27.9275  -11.3125   18.9470 H   0  0  0  0  0  0
  -27.4214  -12.5298   17.8160 H   0  0  0  0  0  0
  -27.5959  -14.2793   19.4542 H   0  0  0  0  0  0
  -28.7597  -12.3154   21.4810 H   0  0  0  0  0  0
  -28.3701  -13.9649   21.8180 H   0  0  0  0  0  0
  -25.2745   -9.5611   22.4794 H   0  0  0  0  0  0
  -23.9925   -7.4603   22.7508 H   0  0  0  0  0  0
  -21.0803   -8.8714   19.8997 H   0  0  0  0  0  0
  -22.3657  -10.9604   19.6145 H   0  0  0  0  0  0
  -21.2028   -7.6130   23.9696 H   0  0  0  0  0  0
  -21.1534   -6.0527   25.9085 H   0  0  0  0  0  0
  -22.0581   -2.7574   23.2861 H   0  0  0  0  0  0
  -22.3968  -11.9926   22.4903 H   0  0  0  0  0  0
  -21.0989  -13.1292   22.2774 H   0  0  0  0  0  0
  -24.5647  -15.7568   20.5773 H   0  0  0  0  0  0
  -26.2398  -15.5720   20.5656 H   0  0  0  0  0  0
  -26.7329  -32.5275   23.1007 H   0  0  0  0  0  0
  -24.9997  -33.9572   25.0260 H   0  0  0  0  0  0
  -22.7429  -31.2862   21.3830 H   0  0  0  0  0  0
  -23.3749  -35.9489   23.3311 H   0  0  0  0  0  0
  -24.3511  -36.8824   22.2061 H   0  0  0  0  0  0
  -23.7169  -37.6381   23.6674 H   0  0  0  0  0  0
  -26.1826  -31.4683   20.6089 H   0  0  0  0  0  0
  -26.8672  -30.7549   22.0366 H   0  0  0  0  0  0
  -28.1318  -28.8025   21.2312 H   0  0  0  0  0  0
  -25.8793  -25.8285   19.0538 H   0  0  0  0  0  0
  -23.9768  -27.2762   19.0030 H   0  0  0  0  0  0
  -23.7900  -30.5579   19.3929 H   0  0  0  0  0  0
  -22.7771  -29.2269   19.8566 H   0  0  0  0  0  0
  -25.1268  -36.1826   25.0834 H   0  0  0  0  0  0
  -20.9982  -28.3322   24.1370 H   0  0  0  0  0  0
  -20.5628  -26.2362   23.3647 H   0  0  0  0  0  0
  -21.6646  -26.7432   22.1239 H   0  0  0  0  0  0
  -19.6885  -25.6320   21.1249 H   0  0  0  0  0  0
  -19.6650  -27.3206   20.6748 H   0  0  0  0  0  0
  -17.4198  -26.6686   21.4054 H   0  0  0  0  0  0
  -18.0315  -26.0099   22.9049 H   0  0  0  0  0  0
  -19.7989  -30.7289   24.2200 H   0  0  0  0  0  0
  -17.5081  -31.6285   24.5178 H   0  0  0  0  0  0
  -15.5389  -30.3009   23.7693 H   0  0  0  0  0  0
  -15.8684  -28.0811   22.7152 H   0  0  0  0  0  0
  -24.5929  -30.7058   25.7775 H   0  0  0  0  0  0
  -24.8910  -32.2920   26.4768 H   0  0  0  0  0  0
  -25.8050  -30.8999   27.0230 H   0  0  0  0  0  0
  -26.3074  -29.6675   24.1233 H   0  0  0  0  0  0
  -27.3963  -29.7201   25.4869 H   0  0  0  0  0  0
  -27.8999  -30.4175   23.9686 H   0  0  0  0  0  0
  -27.2655  -33.3654   26.1958 H   0  0  0  0  0  0
  -28.3911  -32.6841   25.0342 H   0  0  0  0  0  0
  -28.0674  -31.8527   26.5463 H   0  0  0  0  0  0
  -28.2617  -38.0013   24.7549 H   0  0  0  0  0  0
  -28.1009  -36.2565   24.6306 H   0  0  0  0  0  0
  -27.2298  -37.1395   25.8911 H   0  0  0  0  0  0
  -20.9533  -29.8641   21.6694 H   0  0  0  0  0  0
  -26.0100  -38.2814   24.1473 H   0  0  0  0  0  0
  -27.0826  -19.8965   20.7826 H   0  0  0  0  0  0
  -31.2617  -20.7214   20.7176 H   0  0  0  0  0  0
  -32.4949  -18.6233   21.9856 H   0  0  0  0  0  0
  -32.5830  -17.7666   20.4398 H   0  0  0  0  0  0
  -32.2566  -15.9396   22.1370 H   0  0  0  0  0  0
  -31.1029  -16.9045   22.9940 H   0  0  0  0  0  0
  -26.3767  -19.1606   22.5629 H   0  0  0  0  0  0
  -26.0294  -17.6753   23.4183 H   0  0  0  0  0  0
  -25.2434  -17.9904   21.8685 H   0  0  0  0  0  0
  -27.4372  -25.0801   17.8264 H   0  0  0  0  0  0
  -28.0294  -23.4582   18.0543 H   0  0  0  0  0  0
  -29.1618  -24.8028   18.0136 H   0  0  0  0  0  0
  -27.0741  -24.3707   20.2227 H   0  0  0  0  0  0
  -27.6127  -22.0607   20.1198 H   0  0  0  0  0  0
  1 25  1  0  0  0
  1 30  2  0  0  0
  1 84  1  0  0  0
  2  3  1  0  0  0
  2 25  1  0  0  0
  2 88  1  0  0  0
  2 89  1  0  0  0
  3  4  1  0  0  0
  3 90  1  0  0  0
  3 91  1  0  0  0
  4  5  1  0  0  0
  4 92  1  0  0  0
  4 93  1  0  0  0
  5  6  1  0  0  0
  5 26  1  0  0  0
  5 94  1  0  0  0
  6 25  1  0  0  0
  6 95  1  0  0  0
  6 96  1  0  0  0
  7  8  2  0  0  0
  7 26  1  0  0  0
  7 29  1  0  0  0
  8  9  1  0  0  0
  8 22  1  0  0  0
  9 10  1  0  0  0
  9 27  2  0  0  0
 10 11  2  0  0  0
 10 15  1  0  0  0
 11 12  1  0  0  0
 11 97  1  0  0  0
 12 13  2  0  0  0
 12 98  1  0  0  0
 13 14  1  0  0  0
 13 31  1  0  0  0
 14 15  2  0  0  0
 14 99  1  0  0  0
 15100  1  0  0  0
 16 17  2  0  0  0
 16 21  1  0  0  0
 16 31  1  0  0  0
 17 18  1  0  0  0
 17101  1  0  0  0
 18 19  2  0  0  0
 18102  1  0  0  0
 19 20  1  0  0  0
 19 24  1  0  0  0
 20 21  2  0  0  0
 20103  1  0  0  0
 21 23  1  0  0  0
 22 28  1  0  0  0
 22 32  2  0  0  0
 26 27  1  0  0  0
 28104  1  0  0  0
 28105  1  0  0  0
 29106  1  0  0  0
 29107  1  0  0  0
 33 34  1  0  0  0
 33 66  1  0  0  0
 33 70  2  0  0  0
 34 36  1  0  0  0
 34 59  1  0  0  0
 34108  1  0  0  0
 35 44  2  0  0  0
 35 45  1  0  0  0
 35 68  1  0  0  0
 36 56  1  0  0  0
 36109  1  0  0  0
 37 39  1  0  0  0
 37 47  1  0  0  0
 37 66  1  0  0  0
 37110  1  0  0  0
 38 43  2  0  0  0
 38 46  1  0  0  0
 38 47  1  0  0  0
 39 64  1  0  0  0
 39 67  2  0  0  0
 40 52  1  0  0  0
 40 53  2  0  0  0
 40 58  1  0  0  0
 41111  1  0  0  0
 41112  1  0  0  0
 41113  1  0  0  0
 41 48  1  0  0  0
 42 43  1  0  0  0
 42 66  1  0  0  0
 42114  1  0  0  0
 42115  1  0  0  0
 43 44  1  0  0  0
 44116  1  0  0  0
 45 46  2  0  0  0
 45117  1  0  0  0
 46118  1  0  0  0
 47119  1  0  0  0
 47120  1  0  0  0
 48 56  1  0  0  0
 48 65  1  0  0  0
 48121  1  0  0  0
 49 50  1  0  0  0
 49 53  1  0  0  0
 49 64  1  0  0  0
 49122  1  0  0  0
 50 51  1  0  0  0
 50123  1  0  0  0
 50124  1  0  0  0
 51 52  1  0  0  0
 51125  1  0  0  0
 51126  1  0  0  0
 52127  1  0  0  0
 52128  1  0  0  0
 53 54  1  0  0  0
 54 55  2  0  0  0
 54129  1  0  0  0
 55 57  1  0  0  0
 55130  1  0  0  0
 56 69  2  0  0  0
 57 58  2  0  0  0
 57131  1  0  0  0
 58132  1  0  0  0
 59 60  1  0  0  0
 59 61  1  0  0  0
 59 62  1  0  0  0
 60133  1  0  0  0
 60134  1  0  0  0
 60135  1  0  0  0
 61136  1  0  0  0
 61137  1  0  0  0
 61138  1  0  0  0
 62139  1  0  0  0
 62140  1  0  0  0
 62141  1  0  0  0
 63 65  1  0  0  0
 63142  1  0  0  0
 63143  1  0  0  0
 63144  1  0  0  0
 64145  1  0  0  0
 65146  1  0  0  0
 68 83  1  0  0  0
 71 73  2  0  0  0
 71 76  1  0  0  0
 71147  1  0  0  0
 72 74  1  0  0  0
 72 76  2  0  0  0
 72148  1  0  0  0
 73 75  1  0  0  0
 73 77  1  0  0  0
 74 75  2  0  0  0
 74 79  1  0  0  0
 75 84  1  0  0  0
 76 85  1  0  0  0
 77 81  1  0  0  0
 77 86  2  0  0  0
 78 83  1  0  0  0
 78 85  1  0  0  0
 78 87  2  0  0  0
 79 80  1  0  0  0
 79149  1  0  0  0
 79150  1  0  0  0
 80 84  1  0  0  0
 80151  1  0  0  0
 80152  1  0  0  0
 81153  1  0  0  0
 81154  1  0  0  0
 81155  1  0  0  0
 82156  1  0  0  0
 82157  1  0  0  0
 82158  1  0  0  0
 82 83  1  0  0  0
 83159  1  0  0  0
 85160  1  0  0  0
M  ISO  4   1 100  68 101  83 101  84 100
M  END
> <chiral flag>
0

> <version>
0

> <s_m_source_file>
/data/baiqing/PycharmProjects/Reinvent-master-3.2/result/LINK_invent/BTK/process_docking_weight1_custom_product_contain_oxygen_bond_distance_aromatic_linkinvent_7_9_3/rearranged_h_0145.sdf

> <i_m_source_file_index>
46

> <r_mmod_Potential_Energy-OPLS-2005>
835.252136230469

> <r_mmod_Stretch_Energy-OPLS-2005>
266.908569335938

> <r_mmod_Bend_Energy-OPLS-2005>
405.51318359375

> <r_mmod_Torsional_Energy-OPLS-2005>
352.80615234375

> <r_mmod_Improper_Torsional_Energy-OPLS-2005>
25.0870151519775

> <r_mmod_Van_der_Waal_Energy-OPLS-2005>
155.89079284668

> <r_mmod_Electrostatic_Energy-OPLS-2005>
-340.478851318359

> <r_mmod_Solvation_Energy-OPLS-2005>
-230.605712890625

> <b_mmod_Minimization_Converged-OPLS-2005>
0

> <r_mmod_RMS_Derivative-OPLS-2005>
5.77044868469238

$$$$
46
                    3D
 Structure written by MMmdl.
169178  0  0  1  0            999 V2000
  -30.6970  -14.4738   20.5033 C   0  0  0  0  0  0
  -30.4193  -12.2757   19.4349 C   0  0  0  0  0  0
  -29.5009  -12.4905   18.2141 C   0  0  0  0  0  0
  -28.0232  -12.3545   18.6259 C   0  0  0  0  0  0
  -27.6685  -13.2028   19.8815 C   0  0  2  0  0  0
  -28.7142  -13.0012   21.0069 C   0  0  0  0  0  0
  -25.2656  -13.8175   20.5707 C   0  0  0  0  0  0
  -24.1868  -13.0471   20.9135 C   0  0  0  0  0  0
  -24.6399  -11.6929   20.8724 C   0  0  0  0  0  0
  -23.9058  -10.4306   21.0373 C   0  0  0  0  0  0
  -24.3595   -9.4209   21.9168 C   0  0  0  0  0  0
  -23.6247   -8.2263   22.0748 C   0  0  0  0  0  0
  -22.4245   -8.0311   21.3536 C   0  0  0  0  0  0
  -21.9882   -9.0291   20.4639 C   0  0  0  0  0  0
  -22.7213  -10.2173   20.3027 C   0  0  0  0  0  0
  -21.6879   -6.0706   22.5243 C   0  0  0  0  0  0
  -21.4017   -6.5567   23.8170 C   0  0  0  0  0  0
  -21.3659   -5.6713   24.9135 C   0  0  0  0  0  0
  -21.6053   -4.2986   24.7169 C   0  0  0  0  0  0
  -21.8828   -3.8080   23.4267 C   0  0  0  0  0  0
  -21.9195   -4.6916   22.3339 C   0  0  0  0  0  0
  -22.7900  -13.5317   21.1775 C   0  0  0  0  0  0
  -22.1684   -4.2115   21.0912 F   0  0  0  0  0  0
  -21.5619   -3.4439   25.7650 F   0  0  0  0  0  0
  -30.0398  -13.2862   20.4381 N   0  0  0  0  0  0
  -26.3084  -12.9327   20.3409 N   0  0  0  0  0  0
  -25.9348  -11.6500   20.5791 N   0  0  0  0  0  0
  -22.0523  -12.8342   22.0320 N   0  0  0  0  0  0
  -25.4400  -15.1891   20.4125 N   0  0  0  0  0  0
  -31.8654  -14.5800   20.1167 O   0  0  0  0  0  0
  -21.6649   -6.8881   21.4222 O   0  0  0  0  0  0
  -22.3608  -14.5646   20.6614 O   0  0  0  0  0  0
  -24.6205  -31.8714   23.2082 C   0  0  0  0  0  0
  -25.9090  -32.4826   23.8385 C   0  0  1  0  0  0
  -27.2030  -27.3728   20.0923 C   0  0  0  0  0  0
  -25.5924  -33.8622   24.2334 N   0  0  0  0  0  0
  -23.4086  -30.4963   21.5548 C   0  0  2  0  0  0
  -24.8455  -28.9686   20.1093 C   0  0  0  0  0  0
  -22.7437  -29.4689   22.5019 C   0  0  0  0  0  0
  -18.0282  -28.1418   22.8539 C   0  0  0  0  0  0
  -24.1476  -36.7245   23.2628 C   0  0  0  0  0  0
  -25.9451  -30.8165   21.3745 C   0  0  0  0  0  0
  -26.0111  -29.4469   20.7195 C   0  0  0  0  0  0
  -27.1885  -28.6506   20.7166 C   0  0  0  0  0  0
  -26.0177  -26.9508   19.4440 C   0  0  0  0  0  0
  -24.8467  -27.7232   19.4695 C   0  0  0  0  0  0
  -23.6103  -29.8374   20.1677 C   0  0  0  0  0  0
  -25.4094  -36.3110   24.0355 C   0  0  1  0  0  0
  -20.5885  -28.3718   23.1337 C   0  0  2  0  0  0
  -20.6777  -26.9457   22.5437 C   0  0  0  0  0  0
  -19.5720  -26.6440   21.5266 C   0  0  0  0  0  0
  -18.1898  -26.7989   22.1664 C   0  0  0  0  0  0
  -19.1537  -28.8889   23.2935 C   0  0  0  0  0  0
  -18.9454  -30.1488   23.8945 C   0  0  0  0  0  0
  -17.6454  -30.6622   24.0598 C   0  0  0  0  0  0
  -25.9043  -34.9472   23.5145 C   0  0  0  0  0  0
  -16.5342  -29.9123   23.6355 C   0  0  0  0  0  0
  -16.7278  -28.6546   23.0399 C   0  0  0  0  0  0
  -26.4533  -31.6556   25.0676 C   0  0  0  0  0  0
  -25.3763  -31.3690   26.1396 C   0  0  0  0  0  0
  -27.0376  -30.2976   24.6065 C   0  0  0  0  0  0
  -27.6123  -32.4281   25.7409 C   0  0  0  0  0  0
  -27.5587  -37.1748   24.8469 C   0  0  0  0  0  0
  -21.4164  -29.3065   22.3745 N   0  0  0  0  0  0
  -26.4286  -37.3791   23.9460 N   0  0  0  0  0  0
  -24.6757  -31.0764   22.1024 N   0  0  0  0  0  0
  -23.4200  -28.8237   23.3099 O   0  0  0  0  0  0
  -28.3499  -26.5796   20.1406 O   0  0  0  0  0  0
  -26.5617  -34.8971   22.4717 O   0  0  0  0  0  0
  -23.5374  -32.1494   23.7435 O   0  0  0  0  0  0
  -29.1822  -17.8676   20.4384 C   0  0  0  0  0  0
  -29.6650  -19.1152   19.8846 C   0  0  0  0  0  0
  -31.0006  -19.0703   19.5542 C   0  0  0  0  0  0
  -30.1323  -16.8596   20.4849 C   0  0  0  0  0  0
  -27.8194  -19.9797   18.5946 C   0  0  0  0  0  0
  -29.1396  -22.7505   19.7570 C   0  0  0  0  0  0
  -26.6725  -20.9608   18.7501 C   0  0  0  0  0  0
  -26.9374  -21.5190   20.1481 C   0  0  0  0  0  0
  -28.4728  -21.4295   20.3003 C   0  0  1  0  0  0
  -33.1144  -20.4887   19.5910 C   0  0  0  0  0  0
  -30.5024  -24.6057   20.7824 C   0  0  0  0  0  0
  -28.3432  -24.0243   21.9017 C   0  0  0  0  0  0
  -31.8576  -20.0482   18.8219 C   0  0  0  0  0  0
  -28.3270  -25.2017   19.6446 C   0  0  0  0  0  0
  -29.0587  -24.1278   20.5297 C   0  0  0  0  0  0
  -28.7831  -20.1963   19.5072 N   0  0  0  0  0  0
  -29.9367  -15.5450   20.8331 N   0  0  0  0  0  0
  -27.8304  -19.1119   17.7177 O   0  0  0  0  0  0
  -29.6967  -22.7525   18.6542 O   0  0  0  0  0  0
  -31.6740  -17.5174   19.9610 S   0  0  0  0  0  0
  -31.4696  -12.3369   19.1404 H   0  0  0  0  0  0
  -30.2885  -11.2708   19.8391 H   0  0  0  0  0  0
  -29.7340  -11.7731   17.4246 H   0  0  0  0  0  0
  -29.6730  -13.4796   17.7893 H   0  0  0  0  0  0
  -27.8354  -11.2978   18.8206 H   0  0  0  0  0  0
  -27.3766  -12.6386   17.7946 H   0  0  0  0  0  0
  -27.7037  -14.2430   19.5671 H   0  0  0  0  0  0
  -28.6823  -11.9717   21.3673 H   0  0  0  0  0  0
  -28.5069  -13.6232   21.8809 H   0  0  0  0  0  0
  -25.2778   -9.5596   22.4689 H   0  0  0  0  0  0
  -23.9888   -7.4613   22.7467 H   0  0  0  0  0  0
  -21.0796   -8.8834   19.8953 H   0  0  0  0  0  0
  -22.3719  -10.9685   19.6070 H   0  0  0  0  0  0
  -21.2082   -7.6097   23.9672 H   0  0  0  0  0  0
  -21.1491   -6.0464   25.9038 H   0  0  0  0  0  0
  -22.0643   -2.7544   23.2805 H   0  0  0  0  0  0
  -22.4097  -11.9969   22.4667 H   0  0  0  0  0  0
  -21.1181  -13.1466   22.2544 H   0  0  0  0  0  0
  -24.6776  -15.8494   20.5026 H   0  0  0  0  0  0
  -26.2935  -15.6051   20.0537 H   0  0  0  0  0  0
  -26.7166  -32.5582   23.1152 H   0  0  0  0  0  0
  -25.0084  -33.9737   25.0500 H   0  0  0  0  0  0
  -22.6955  -31.3137   21.4220 H   0  0  0  0  0  0
  -23.3788  -35.9528   23.3296 H   0  0  0  0  0  0
  -24.3552  -36.8824   22.2026 H   0  0  0  0  0  0
  -23.7168  -37.6414   23.6663 H   0  0  0  0  0  0
  -26.0675  -31.5854   20.6092 H   0  0  0  0  0  0
  -26.8277  -30.8634   22.0000 H   0  0  0  0  0  0
  -28.0815  -29.0013   21.2139 H   0  0  0  0  0  0
  -25.9398  -26.0314   18.8904 H   0  0  0  0  0  0
  -23.9554  -27.3671   18.9703 H   0  0  0  0  0  0
  -23.7022  -30.6147   19.4081 H   0  0  0  0  0  0
  -22.7324  -29.2535   19.8845 H   0  0  0  0  0  0
  -25.1253  -36.1961   25.0840 H   0  0  0  0  0  0
  -20.9968  -28.3343   24.1464 H   0  0  0  0  0  0
  -20.5744  -26.2336   23.3631 H   0  0  0  0  0  0
  -21.6640  -26.7538   22.1185 H   0  0  0  0  0  0
  -19.6857  -25.6377   21.1232 H   0  0  0  0  0  0
  -19.6624  -27.3324   20.6855 H   0  0  0  0  0  0
  -17.4168  -26.6841   21.4047 H   0  0  0  0  0  0
  -18.0206  -26.0103   22.9003 H   0  0  0  0  0  0
  -19.7913  -30.7321   24.2333 H   0  0  0  0  0  0
  -17.4987  -31.6305   24.5205 H   0  0  0  0  0  0
  -15.5337  -30.3032   23.7643 H   0  0  0  0  0  0
  -15.8677  -28.0854   22.7101 H   0  0  0  0  0  0
  -24.5969  -30.7016   25.7712 H   0  0  0  0  0  0
  -24.8935  -32.2855   26.4778 H   0  0  0  0  0  0
  -25.8034  -30.8883   27.0189 H   0  0  0  0  0  0
  -26.2929  -29.6655   24.1192 H   0  0  0  0  0  0
  -27.4216  -29.7288   25.4538 H   0  0  0  0  0  0
  -27.8764  -30.4264   23.9211 H   0  0  0  0  0  0
  -27.2792  -33.3620   26.1969 H   0  0  0  0  0  0
  -28.3924  -32.6725   25.0180 H   0  0  0  0  0  0
  -28.0833  -31.8398   26.5290 H   0  0  0  0  0  0
  -28.2596  -38.0054   24.7581 H   0  0  0  0  0  0
  -28.1095  -36.2582   24.6247 H   0  0  0  0  0  0
  -27.2323  -37.1332   25.8875 H   0  0  0  0  0  0
  -20.9336  -29.8710   21.6869 H   0  0  0  0  0  0
  -26.0163  -38.2868   24.1497 H   0  0  0  0  0  0
  -28.1451  -17.7154   20.7034 H   0  0  0  0  0  0
  -25.6976  -20.4767   18.6670 H   0  0  0  0  0  0
  -26.7481  -21.7299   17.9781 H   0  0  0  0  0  0
  -26.4364  -20.9107   20.9042 H   0  0  0  0  0  0
  -26.5433  -22.5298   20.2300 H   0  0  0  0  0  0
  -28.7582  -21.2831   21.3420 H   0  0  0  0  0  0
  -33.6488  -21.2555   19.0306 H   0  0  0  0  0  0
  -33.8109  -19.6620   19.7356 H   0  0  0  0  0  0
  -32.8710  -20.9059   20.5695 H   0  0  0  0  0  0
  -31.0602  -23.8952   21.3981 H   0  0  0  0  0  0
  -30.5027  -25.5597   21.3113 H   0  0  0  0  0  0
  -31.0458  -24.7522   19.8466 H   0  0  0  0  0  0
  -28.8344  -23.3205   22.5747 H   0  0  0  0  0  0
  -27.2913  -23.7506   21.8289 H   0  0  0  0  0  0
  -28.3562  -24.9906   22.4052 H   0  0  0  0  0  0
  -31.2688  -20.9132   18.5382 H   0  0  0  0  0  0
  -32.1724  -19.5866   17.8824 H   0  0  0  0  0  0
  -27.3317  -24.7872   19.5198 H   0  0  0  0  0  0
  -28.7654  -25.2289   18.6449 H   0  0  0  0  0  0
  -29.0114  -15.3007   21.1558 H   0  0  0  0  0  0
  1 25  1  0  0  0
  1 30  2  0  0  0
  1 87  1  0  0  0
  2  3  1  0  0  0
  2 25  1  0  0  0
  2 91  1  0  0  0
  2 92  1  0  0  0
  3  4  1  0  0  0
  3 93  1  0  0  0
  3 94  1  0  0  0
  4  5  1  0  0  0
  4 95  1  0  0  0
  4 96  1  0  0  0
  5  6  1  0  0  0
  5 26  1  0  0  0
  5 97  1  0  0  0
  6 25  1  0  0  0
  6 98  1  0  0  0
  6 99  1  0  0  0
  7  8  2  0  0  0
  7 26  1  0  0  0
  7 29  1  0  0  0
  8  9  1  0  0  0
  8 22  1  0  0  0
  9 10  1  0  0  0
  9 27  2  0  0  0
 10 11  2  0  0  0
 10 15  1  0  0  0
 11 12  1  0  0  0
 11100  1  0  0  0
 12 13  2  0  0  0
 12101  1  0  0  0
 13 14  1  0  0  0
 13 31  1  0  0  0
 14 15  2  0  0  0
 14102  1  0  0  0
 15103  1  0  0  0
 16 17  2  0  0  0
 16 21  1  0  0  0
 16 31  1  0  0  0
 17 18  1  0  0  0
 17104  1  0  0  0
 18 19  2  0  0  0
 18105  1  0  0  0
 19 20  1  0  0  0
 19 24  1  0  0  0
 20 21  2  0  0  0
 20106  1  0  0  0
 21 23  1  0  0  0
 22 28  1  0  0  0
 22 32  2  0  0  0
 26 27  1  0  0  0
 28107  1  0  0  0
 28108  1  0  0  0
 29109  1  0  0  0
 29110  1  0  0  0
 33 34  1  0  0  0
 33 66  1  0  0  0
 33 70  2  0  0  0
 34 36  1  0  0  0
 34 59  1  0  0  0
 34111  1  0  0  0
 35 44  2  0  0  0
 35 45  1  0  0  0
 35 68  1  0  0  0
 36 56  1  0  0  0
 36112  1  0  0  0
 37 39  1  0  0  0
 37 47  1  0  0  0
 37 66  1  0  0  0
 37113  1  0  0  0
 38 43  2  0  0  0
 38 46  1  0  0  0
 38 47  1  0  0  0
 39 64  1  0  0  0
 39 67  2  0  0  0
 40 52  1  0  0  0
 40 53  2  0  0  0
 40 58  1  0  0  0
 41114  1  0  0  0
 41115  1  0  0  0
 41116  1  0  0  0
 41 48  1  0  0  0
 42 43  1  0  0  0
 42 66  1  0  0  0
 42117  1  0  0  0
 42118  1  0  0  0
 43 44  1  0  0  0
 44119  1  0  0  0
 45 46  2  0  0  0
 45120  1  0  0  0
 46121  1  0  0  0
 47122  1  0  0  0
 47123  1  0  0  0
 48 56  1  0  0  0
 48 65  1  0  0  0
 48124  1  0  0  0
 49 50  1  0  0  0
 49 53  1  0  0  0
 49 64  1  0  0  0
 49125  1  0  0  0
 50 51  1  0  0  0
 50126  1  0  0  0
 50127  1  0  0  0
 51 52  1  0  0  0
 51128  1  0  0  0
 51129  1  0  0  0
 52130  1  0  0  0
 52131  1  0  0  0
 53 54  1  0  0  0
 54 55  2  0  0  0
 54132  1  0  0  0
 55 57  1  0  0  0
 55133  1  0  0  0
 56 69  2  0  0  0
 57 58  2  0  0  0
 57134  1  0  0  0
 58135  1  0  0  0
 59 60  1  0  0  0
 59 61  1  0  0  0
 59 62  1  0  0  0
 60136  1  0  0  0
 60137  1  0  0  0
 60138  1  0  0  0
 61139  1  0  0  0
 61140  1  0  0  0
 61141  1  0  0  0
 62142  1  0  0  0
 62143  1  0  0  0
 62144  1  0  0  0
 63 65  1  0  0  0
 63145  1  0  0  0
 63146  1  0  0  0
 63147  1  0  0  0
 64148  1  0  0  0
 65149  1  0  0  0
 68 84  1  0  0  0
 71 72  1  0  0  0
 71 74  2  0  0  0
 71150  1  0  0  0
 72 73  2  0  0  0
 72 86  1  0  0  0
 73 83  1  0  0  0
 73 90  1  0  0  0
 74 87  1  0  0  0
 74 90  1  0  0  0
 75 77  1  0  0  0
 75 86  1  0  0  0
 75 88  2  0  0  0
 76 85  1  0  0  0
 76 89  2  0  0  0
 76 79  1  0  0  0
 77 78  1  0  0  0
 77151  1  0  0  0
 77152  1  0  0  0
 78 79  1  0  0  0
 78153  1  0  0  0
 78154  1  0  0  0
 79 86  1  0  0  0
 79155  1  0  0  0
 80 83  1  0  0  0
 80156  1  0  0  0
 80157  1  0  0  0
 80158  1  0  0  0
 81159  1  0  0  0
 81160  1  0  0  0
 81161  1  0  0  0
 81 85  1  0  0  0
 82 85  1  0  0  0
 82162  1  0  0  0
 82163  1  0  0  0
 82164  1  0  0  0
 83165  1  0  0  0
 83166  1  0  0  0
 84 85  1  0  0  0
 84167  1  0  0  0
 84168  1  0  0  0
 87169  1  0  0  0
M  ISO  4   1 100  68 101  84 101  87 100
M  END
> <chiral flag>
0

> <version>
0

> <s_m_source_file>
/data/baiqing/PycharmProjects/Reinvent-master-3.2/result/LINK_invent/BTK/process_docking_weight1_custom_product_contain_oxygen_bond_distance_aromatic_linkinvent_7_9_3/rearranged_h_0145.sdf

> <i_m_source_file_index>
47

> <r_mmod_Potential_Energy-OPLS-2005>
84.9517822265625

> <r_mmod_Stretch_Energy-OPLS-2005>
58.3949813842773

> <r_mmod_Bend_Energy-OPLS-2005>
163.47737121582

> <r_mmod_Torsional_Energy-OPLS-2005>
304.31396484375

> <r_mmod_Improper_Torsional_Energy-OPLS-2005>
8.13732719421387

> <r_mmod_Van_der_Waal_Energy-OPLS-2005>
137.224365234375

> <r_mmod_Electrostatic_Energy-OPLS-2005>
-379.715026855469

> <r_mmod_Solvation_Energy-OPLS-2005>
-230.957168579102

> <b_mmod_Minimization_Converged-OPLS-2005>
0

> <r_mmod_RMS_Derivative-OPLS-2005>
7.20897054672241

$$$$
47
                    3D
 Structure written by MMmdl.
165174  0  0  1  0            999 V2000
  -30.6594  -14.4961   20.5734 C   0  0  0  0  0  0
  -30.4418  -12.3196   19.4139 C   0  0  0  0  0  0
  -29.5004  -12.5051   18.2028 C   0  0  0  0  0  0
  -28.0196  -12.3602   18.6172 C   0  0  0  0  0  0
  -27.6652  -13.1966   19.8749 C   0  0  2  0  0  0
  -28.7083  -12.9512   20.9866 C   0  0  0  0  0  0
  -25.2615  -13.8150   20.5676 C   0  0  0  0  0  0
  -24.1836  -13.0442   20.9179 C   0  0  0  0  0  0
  -24.6373  -11.6910   20.8716 C   0  0  0  0  0  0
  -23.9050  -10.4287   21.0400 C   0  0  0  0  0  0
  -24.3604   -9.4211   21.9183 C   0  0  0  0  0  0
  -23.6281   -8.2249   22.0758 C   0  0  0  0  0  0
  -22.4263   -8.0279   21.3562 C   0  0  0  0  0  0
  -21.9900   -9.0253   20.4664 C   0  0  0  0  0  0
  -22.7224  -10.2132   20.3060 C   0  0  0  0  0  0
  -21.6855   -6.0733   22.5281 C   0  0  0  0  0  0
  -21.4014   -6.5638   23.8217 C   0  0  0  0  0  0
  -21.3654   -5.6790   24.9179 C   0  0  0  0  0  0
  -21.6053   -4.3055   24.7233 C   0  0  0  0  0  0
  -21.8817   -3.8149   23.4348 C   0  0  0  0  0  0
  -21.9186   -4.6963   22.3403 C   0  0  0  0  0  0
  -22.7862  -13.5265   21.1842 C   0  0  0  0  0  0
  -22.1652   -4.2150   21.0987 F   0  0  0  0  0  0
  -21.5628   -3.4531   25.7747 F   0  0  0  0  0  0
  -30.0383  -13.2886   20.4440 N   0  0  0  0  0  0
  -26.3037  -12.9280   20.3366 N   0  0  0  0  0  0
  -25.9294  -11.6464   20.5767 N   0  0  0  0  0  0
  -22.0484  -12.8261   22.0392 N   0  0  0  0  0  0
  -25.4377  -15.1860   20.4089 N   0  0  0  0  0  0
  -31.7978  -14.7038   20.1437 O   0  0  0  0  0  0
  -21.6633   -6.8872   21.4244 O   0  0  0  0  0  0
  -22.3560  -14.5565   20.6672 O   0  0  0  0  0  0
  -24.6137  -31.8669   23.2098 C   0  0  0  0  0  0
  -25.9037  -32.4816   23.8398 C   0  0  1  0  0  0
  -27.2379  -27.4307   20.0971 C   0  0  0  0  0  0
  -25.5888  -33.8612   24.2315 N   0  0  0  0  0  0
  -23.4015  -30.4923   21.5482 C   0  0  2  0  0  0
  -24.8491  -28.9569   20.1173 C   0  0  0  0  0  0
  -22.7407  -29.4646   22.4945 C   0  0  0  0  0  0
  -18.0274  -28.1376   22.8495 C   0  0  0  0  0  0
  -24.1478  -36.7306   23.2639 C   0  0  0  0  0  0
  -25.9318  -30.8351   21.3621 C   0  0  0  0  0  0
  -26.0087  -29.4668   20.7123 C   0  0  0  0  0  0
  -27.2036  -28.7115   20.6993 C   0  0  0  0  0  0
  -26.0588  -26.9429   19.4870 C   0  0  0  0  0  0
  -24.8674  -27.6937   19.5033 C   0  0  0  0  0  0
  -23.6132  -29.8248   20.1642 C   0  0  0  0  0  0
  -25.4093  -36.3090   24.0338 C   0  0  1  0  0  0
  -20.5871  -28.3654   23.1316 C   0  0  2  0  0  0
  -20.6754  -26.9387   22.5419 C   0  0  0  0  0  0
  -19.5734  -26.6375   21.5216 C   0  0  0  0  0  0
  -18.1912  -26.7926   22.1623 C   0  0  0  0  0  0
  -19.1524  -28.8825   23.2915 C   0  0  0  0  0  0
  -18.9459  -30.1433   23.8919 C   0  0  0  0  0  0
  -17.6460  -30.6587   24.0566 C   0  0  0  0  0  0
  -25.9018  -34.9463   23.5115 C   0  0  0  0  0  0
  -16.5350  -29.9090   23.6326 C   0  0  0  0  0  0
  -16.7261  -28.6511   23.0343 C   0  0  0  0  0  0
  -26.4490  -31.6582   25.0708 C   0  0  0  0  0  0
  -25.3775  -31.3699   26.1470 C   0  0  0  0  0  0
  -27.0315  -30.3018   24.6076 C   0  0  0  0  0  0
  -27.6062  -32.4295   25.7489 C   0  0  0  0  0  0
  -27.5575  -37.1801   24.8470 C   0  0  0  0  0  0
  -21.4134  -29.3023   22.3703 N   0  0  0  0  0  0
  -26.4278  -37.3781   23.9420 N   0  0  0  0  0  0
  -24.6671  -31.0793   22.0980 N   0  0  0  0  0  0
  -23.4179  -28.8166   23.2973 O   0  0  0  0  0  0
  -28.4255  -26.7204   20.0966 O   0  0  0  0  0  0
  -26.5587  -34.8919   22.4684 O   0  0  0  0  0  0
  -23.5332  -32.1399   23.7497 O   0  0  0  0  0  0
  -29.9802  -19.1580   20.3721 C   0  0  0  0  0  0
  -29.2190  -18.6573   22.5845 C   0  0  0  0  0  0
  -30.2440  -17.7687   20.1821 C   0  0  0  0  0  0
  -29.4381  -19.6222   21.5918 C   0  0  0  0  0  0
  -29.9170  -16.8673   21.2432 C   0  0  0  0  0  0
  -29.0821  -24.6816   21.2982 C   0  0  0  0  0  0
  -28.9719  -22.0975   21.1783 C   0  0  0  0  0  0
  -32.3000  -17.3162   18.6316 C   0  0  0  0  0  0
  -31.4029  -18.1963   17.8010 C   0  0  0  0  0  0
  -30.8036  -17.2920   18.8640 C   0  0  0  0  0  0
  -26.9750  -23.4419   21.9956 C   0  0  0  0  0  0
  -29.0370  -23.3173   23.4331 C   0  0  0  0  0  0
  -28.3784  -25.2771   20.0572 C   0  0  0  0  0  0
  -28.5240  -23.3770   21.9617 C   0  0  0  0  0  0
  -29.4253  -17.3382   22.4084 N   0  0  0  0  0  0
  -29.1075  -20.9780   21.9223 N   0  0  0  0  0  0
  -29.8597  -15.4453   21.1095 N   0  0  0  0  0  0
  -30.0668  -25.2648   21.7729 O   0  0  0  0  0  0
  -29.1432  -22.1142   19.9573 O   0  0  0  0  0  0
  -31.4810  -12.4506   19.1107 H   0  0  0  0  0  0
  -30.3732  -11.3049   19.8052 H   0  0  0  0  0  0
  -29.7403  -11.7812   17.4229 H   0  0  0  0  0  0
  -29.6613  -13.4920   17.7657 H   0  0  0  0  0  0
  -27.8310  -11.3025   18.8072 H   0  0  0  0  0  0
  -27.3662  -12.6323   17.7883 H   0  0  0  0  0  0
  -27.7142  -14.2456   19.5839 H   0  0  0  0  0  0
  -28.6950  -11.9025   21.2828 H   0  0  0  0  0  0
  -28.4640  -13.5004   21.8962 H   0  0  0  0  0  0
  -25.2744   -9.5685   22.4764 H   0  0  0  0  0  0
  -23.9989   -7.4641   22.7470 H   0  0  0  0  0  0
  -21.0833   -8.8779   19.8961 H   0  0  0  0  0  0
  -22.3690  -10.9671   19.6169 H   0  0  0  0  0  0
  -21.2002   -7.6149   23.9728 H   0  0  0  0  0  0
  -21.1482   -6.0519   25.9089 H   0  0  0  0  0  0
  -22.0594   -2.7612   23.2857 H   0  0  0  0  0  0
  -22.4080  -11.9917   22.4777 H   0  0  0  0  0  0
  -21.1121  -13.1324   22.2633 H   0  0  0  0  0  0
  -24.6745  -15.8452   20.5252 H   0  0  0  0  0  0
  -26.2937  -15.6239   20.0946 H   0  0  0  0  0  0
  -26.7101  -32.5544   23.1170 H   0  0  0  0  0  0
  -25.0091  -33.9788   25.0497 H   0  0  0  0  0  0
  -22.6894  -31.3081   21.4079 H   0  0  0  0  0  0
  -23.3735  -35.9647   23.3304 H   0  0  0  0  0  0
  -24.3584  -36.8918   22.2054 H   0  0  0  0  0  0
  -23.7238  -37.6511   23.6657 H   0  0  0  0  0  0
  -26.0432  -31.6021   20.5928 H   0  0  0  0  0  0
  -26.8205  -30.8902   21.9802 H   0  0  0  0  0  0
  -28.0991  -29.1071   21.1570 H   0  0  0  0  0  0
  -26.0370  -25.9960   18.9700 H   0  0  0  0  0  0
  -23.9776  -27.2993   19.0333 H   0  0  0  0  0  0
  -23.7291  -30.5993   19.4069 H   0  0  0  0  0  0
  -22.7383  -29.2473   19.8597 H   0  0  0  0  0  0
  -25.1271  -36.1955   25.0832 H   0  0  0  0  0  0
  -20.9986  -28.3228   24.1430 H   0  0  0  0  0  0
  -20.5631  -26.2267   23.3605 H   0  0  0  0  0  0
  -21.6628  -26.7404   22.1224 H   0  0  0  0  0  0
  -19.6891  -25.6292   21.1224 H   0  0  0  0  0  0
  -19.6684  -27.3198   20.6754 H   0  0  0  0  0  0
  -17.4178  -26.6674   21.4027 H   0  0  0  0  0  0
  -18.0325  -26.0077   22.9027 H   0  0  0  0  0  0
  -19.7935  -30.7249   24.2290 H   0  0  0  0  0  0
  -17.5017  -31.6277   24.5159 H   0  0  0  0  0  0
  -15.5349  -30.2998   23.7634 H   0  0  0  0  0  0
  -15.8664  -28.0834   22.7027 H   0  0  0  0  0  0
  -24.5938  -30.7053   25.7831 H   0  0  0  0  0  0
  -24.8999  -32.2863   26.4937 H   0  0  0  0  0  0
  -25.8151  -30.8868   27.0213 H   0  0  0  0  0  0
  -26.2851  -29.6775   24.1137 H   0  0  0  0  0  0
  -27.4103  -29.7253   25.4535 H   0  0  0  0  0  0
  -27.8688  -30.4341   23.9212 H   0  0  0  0  0  0
  -27.2672  -33.3587   26.2098 H   0  0  0  0  0  0
  -28.3876  -32.6859   25.0319 H   0  0  0  0  0  0
  -28.0722  -31.8391   26.5391 H   0  0  0  0  0  0
  -28.2578  -38.0106   24.7498 H   0  0  0  0  0  0
  -28.1063  -36.2629   24.6290 H   0  0  0  0  0  0
  -27.2300  -37.1455   25.8874 H   0  0  0  0  0  0
  -20.9248  -29.8805   21.7014 H   0  0  0  0  0  0
  -26.0154  -38.2853   24.1438 H   0  0  0  0  0  0
  -30.1775  -19.8624   19.5814 H   0  0  0  0  0  0
  -28.8197  -18.9371   23.5476 H   0  0  0  0  0  0
  -32.9248  -17.8087   19.3736 H   0  0  0  0  0  0
  -32.7491  -16.4523   18.1455 H   0  0  0  0  0  0
  -31.2688  -17.9024   16.7622 H   0  0  0  0  0  0
  -31.4773  -19.2680   17.9703 H   0  0  0  0  0  0
  -30.2461  -16.4363   18.4875 H   0  0  0  0  0  0
  -26.5548  -22.7877   22.7598 H   0  0  0  0  0  0
  -26.5266  -23.1346   21.0496 H   0  0  0  0  0  0
  -26.6180  -24.4508   22.2121 H   0  0  0  0  0  0
  -30.0957  -23.0529   23.4784 H   0  0  0  0  0  0
  -28.4941  -22.5862   24.0317 H   0  0  0  0  0  0
  -28.9200  -24.2746   23.9443 H   0  0  0  0  0  0
  -28.9008  -24.9325   19.1654 H   0  0  0  0  0  0
  -27.3687  -24.8846   19.9943 H   0  0  0  0  0  0
  -28.8744  -21.1345   22.8939 H   0  0  0  0  0  0
  -29.0319  -15.0435   21.5164 H   0  0  0  0  0  0
  1 25  1  0  0  0
  1 30  2  0  0  0
  1 87  1  0  0  0
  2  3  1  0  0  0
  2 25  1  0  0  0
  2 90  1  0  0  0
  2 91  1  0  0  0
  3  4  1  0  0  0
  3 92  1  0  0  0
  3 93  1  0  0  0
  4  5  1  0  0  0
  4 94  1  0  0  0
  4 95  1  0  0  0
  5  6  1  0  0  0
  5 26  1  0  0  0
  5 96  1  0  0  0
  6 25  1  0  0  0
  6 97  1  0  0  0
  6 98  1  0  0  0
  7  8  2  0  0  0
  7 26  1  0  0  0
  7 29  1  0  0  0
  8  9  1  0  0  0
  8 22  1  0  0  0
  9 10  1  0  0  0
  9 27  2  0  0  0
 10 11  2  0  0  0
 10 15  1  0  0  0
 11 12  1  0  0  0
 11 99  1  0  0  0
 12 13  2  0  0  0
 12100  1  0  0  0
 13 14  1  0  0  0
 13 31  1  0  0  0
 14 15  2  0  0  0
 14101  1  0  0  0
 15102  1  0  0  0
 16 17  2  0  0  0
 16 21  1  0  0  0
 16 31  1  0  0  0
 17 18  1  0  0  0
 17103  1  0  0  0
 18 19  2  0  0  0
 18104  1  0  0  0
 19 20  1  0  0  0
 19 24  1  0  0  0
 20 21  2  0  0  0
 20105  1  0  0  0
 21 23  1  0  0  0
 22 28  1  0  0  0
 22 32  2  0  0  0
 26 27  1  0  0  0
 28106  1  0  0  0
 28107  1  0  0  0
 29108  1  0  0  0
 29109  1  0  0  0
 33 34  1  0  0  0
 33 66  1  0  0  0
 33 70  2  0  0  0
 34 36  1  0  0  0
 34 59  1  0  0  0
 34110  1  0  0  0
 35 44  2  0  0  0
 35 45  1  0  0  0
 35 68  1  0  0  0
 36 56  1  0  0  0
 36111  1  0  0  0
 37 39  1  0  0  0
 37 47  1  0  0  0
 37 66  1  0  0  0
 37112  1  0  0  0
 38 43  2  0  0  0
 38 46  1  0  0  0
 38 47  1  0  0  0
 39 64  1  0  0  0
 39 67  2  0  0  0
 40 52  1  0  0  0
 40 53  2  0  0  0
 40 58  1  0  0  0
 41113  1  0  0  0
 41114  1  0  0  0
 41115  1  0  0  0
 41 48  1  0  0  0
 42 43  1  0  0  0
 42 66  1  0  0  0
 42116  1  0  0  0
 42117  1  0  0  0
 43 44  1  0  0  0
 44118  1  0  0  0
 45 46  2  0  0  0
 45119  1  0  0  0
 46120  1  0  0  0
 47121  1  0  0  0
 47122  1  0  0  0
 48 56  1  0  0  0
 48 65  1  0  0  0
 48123  1  0  0  0
 49 50  1  0  0  0
 49 53  1  0  0  0
 49 64  1  0  0  0
 49124  1  0  0  0
 50 51  1  0  0  0
 50125  1  0  0  0
 50126  1  0  0  0
 51 52  1  0  0  0
 51127  1  0  0  0
 51128  1  0  0  0
 52129  1  0  0  0
 52130  1  0  0  0
 53 54  1  0  0  0
 54 55  2  0  0  0
 54131  1  0  0  0
 55 57  1  0  0  0
 55132  1  0  0  0
 56 69  2  0  0  0
 57 58  2  0  0  0
 57133  1  0  0  0
 58134  1  0  0  0
 59 60  1  0  0  0
 59 61  1  0  0  0
 59 62  1  0  0  0
 60135  1  0  0  0
 60136  1  0  0  0
 60137  1  0  0  0
 61138  1  0  0  0
 61139  1  0  0  0
 61140  1  0  0  0
 62141  1  0  0  0
 62142  1  0  0  0
 62143  1  0  0  0
 63 65  1  0  0  0
 63144  1  0  0  0
 63145  1  0  0  0
 63146  1  0  0  0
 64147  1  0  0  0
 65148  1  0  0  0
 68 83  1  0  0  0
 71 73  2  0  0  0
 71 74  1  0  0  0
 71149  1  0  0  0
 72 74  2  0  0  0
 72 85  1  0  0  0
 72150  1  0  0  0
 73 75  1  0  0  0
 73 80  1  0  0  0
 74 86  1  0  0  0
 75 85  2  0  0  0
 75 87  1  0  0  0
 76 83  1  0  0  0
 76 84  1  0  0  0
 76 88  2  0  0  0
 77 84  1  0  0  0
 77 86  1  0  0  0
 77 89  2  0  0  0
 78 79  1  0  0  0
 78 80  1  0  0  0
 78151  1  0  0  0
 78152  1  0  0  0
 79 80  1  0  0  0
 79153  1  0  0  0
 79154  1  0  0  0
 80155  1  0  0  0
 81156  1  0  0  0
 81157  1  0  0  0
 81158  1  0  0  0
 81 84  1  0  0  0
 82 84  1  0  0  0
 82159  1  0  0  0
 82160  1  0  0  0
 82161  1  0  0  0
 83162  1  0  0  0
 83163  1  0  0  0
 86164  1  0  0  0
 87165  1  0  0  0
M  ISO  4   1 100  68 101  83 101  87 100
M  END
> <chiral flag>
0

> <version>
0

> <s_m_source_file>
/data/baiqing/PycharmProjects/Reinvent-master-3.2/result/LINK_invent/BTK/process_docking_weight1_custom_product_contain_oxygen_bond_distance_aromatic_linkinvent_7_9_3/rearranged_h_0145.sdf

> <i_m_source_file_index>
48

> <r_mmod_Potential_Energy-OPLS-2005>
-94.1010513305664

> <r_mmod_Stretch_Energy-OPLS-2005>
48.1869812011719

> <r_mmod_Bend_Energy-OPLS-2005>
145.340148925781

> <r_mmod_Torsional_Energy-OPLS-2005>
295.931945800781

> <r_mmod_Improper_Torsional_Energy-OPLS-2005>
4.20243740081787

> <r_mmod_Van_der_Waal_Energy-OPLS-2005>
167.732345581055

> <r_mmod_Electrostatic_Energy-OPLS-2005>
-529.984619140625

> <r_mmod_Solvation_Energy-OPLS-2005>
-239.756591796875

> <b_mmod_Minimization_Converged-OPLS-2005>
0

> <r_mmod_RMS_Derivative-OPLS-2005>
3.35170316696167

$$$$
48
                    3D
 Structure written by MMmdl.
168176  0  0  1  0            999 V2000
  -30.6846  -14.5036   20.5456 C   0  0  0  0  0  0
  -30.4304  -12.3212   19.4209 C   0  0  0  0  0  0
  -29.4946  -12.5026   18.2073 C   0  0  0  0  0  0
  -28.0166  -12.3571   18.6238 C   0  0  0  0  0  0
  -27.6585  -13.2021   19.8750 C   0  0  2  0  0  0
  -28.7071  -12.9988   20.9933 C   0  0  0  0  0  0
  -25.2523  -13.8071   20.5685 C   0  0  0  0  0  0
  -24.1800  -13.0361   20.9208 C   0  0  0  0  0  0
  -24.6385  -11.6848   20.8768 C   0  0  0  0  0  0
  -23.9057  -10.4249   21.0426 C   0  0  0  0  0  0
  -24.3609   -9.4167   21.9201 C   0  0  0  0  0  0
  -23.6279   -8.2206   22.0757 C   0  0  0  0  0  0
  -22.4260   -8.0261   21.3544 C   0  0  0  0  0  0
  -21.9902   -9.0236   20.4645 C   0  0  0  0  0  0
  -22.7236  -10.2109   20.3066 C   0  0  0  0  0  0
  -21.6843   -6.0728   22.5279 C   0  0  0  0  0  0
  -21.4004   -6.5634   23.8213 C   0  0  0  0  0  0
  -21.3658   -5.6790   24.9176 C   0  0  0  0  0  0
  -21.6044   -4.3053   24.7227 C   0  0  0  0  0  0
  -21.8821   -3.8143   23.4349 C   0  0  0  0  0  0
  -21.9187   -4.6957   22.3404 C   0  0  0  0  0  0
  -22.7829  -13.5180   21.1861 C   0  0  0  0  0  0
  -22.1659   -4.2146   21.0982 F   0  0  0  0  0  0
  -21.5633   -3.4536   25.7741 F   0  0  0  0  0  0
  -30.0346  -13.3118   20.4331 N   0  0  0  0  0  0
  -26.3002  -12.9276   20.3390 N   0  0  0  0  0  0
  -25.9315  -11.6440   20.5808 N   0  0  0  0  0  0
  -22.0463  -12.8191   22.0424 N   0  0  0  0  0  0
  -25.4095  -15.1766   20.4041 N   0  0  0  0  0  0
  -31.8232  -14.6899   20.1060 O   0  0  0  0  0  0
  -21.6620   -6.8864   21.4239 O   0  0  0  0  0  0
  -22.3528  -14.5491   20.6705 O   0  0  0  0  0  0
  -24.6136  -31.8673   23.2082 C   0  0  0  0  0  0
  -25.9027  -32.4826   23.8386 C   0  0  1  0  0  0
  -27.2433  -27.4330   20.0962 C   0  0  0  0  0  0
  -25.5880  -33.8626   24.2320 N   0  0  0  0  0  0
  -23.4024  -30.4890   21.5472 C   0  0  2  0  0  0
  -24.8487  -28.9467   20.1202 C   0  0  0  0  0  0
  -22.7409  -29.4651   22.4974 C   0  0  0  0  0  0
  -18.0279  -28.1385   22.8489 C   0  0  0  0  0  0
  -24.1487  -36.7315   23.2644 C   0  0  0  0  0  0
  -25.9294  -30.8316   21.3597 C   0  0  0  0  0  0
  -26.0055  -29.4632   20.7133 C   0  0  0  0  0  0
  -27.2027  -28.7137   20.6948 C   0  0  0  0  0  0
  -26.0664  -26.9250   19.5016 C   0  0  0  0  0  0
  -24.8731  -27.6770   19.5139 C   0  0  0  0  0  0
  -23.6118  -29.8163   20.1629 C   0  0  0  0  0  0
  -25.4105  -36.3115   24.0346 C   0  0  1  0  0  0
  -20.5870  -28.3660   23.1320 C   0  0  2  0  0  0
  -20.6776  -26.9400   22.5418 C   0  0  0  0  0  0
  -19.5756  -26.6395   21.5212 C   0  0  0  0  0  0
  -18.1931  -26.7936   22.1618 C   0  0  0  0  0  0
  -19.1529  -28.8837   23.2907 C   0  0  0  0  0  0
  -18.9458  -30.1443   23.8913 C   0  0  0  0  0  0
  -17.6464  -30.6586   24.0568 C   0  0  0  0  0  0
  -25.9034  -34.9481   23.5135 C   0  0  0  0  0  0
  -16.5355  -29.9097   23.6324 C   0  0  0  0  0  0
  -16.7272  -28.6519   23.0334 C   0  0  0  0  0  0
  -26.4454  -31.6608   25.0717 C   0  0  0  0  0  0
  -25.3727  -31.3719   26.1476 C   0  0  0  0  0  0
  -27.0289  -30.3060   24.6075 C   0  0  0  0  0  0
  -27.6030  -32.4332   25.7473 C   0  0  0  0  0  0
  -27.5585  -37.1809   24.8472 C   0  0  0  0  0  0
  -21.4139  -29.3028   22.3717 N   0  0  0  0  0  0
  -26.4297  -37.3795   23.9417 N   0  0  0  0  0  0
  -24.6668  -31.0782   22.0969 N   0  0  0  0  0  0
  -23.4185  -28.8201   23.3024 O   0  0  0  0  0  0
  -28.4588  -26.7799   20.0582 O   0  0  0  0  0  0
  -26.5609  -34.8933   22.4704 O   0  0  0  0  0  0
  -23.5328  -32.1425   23.7467 O   0  0  0  0  0  0
  -31.2910  -18.9934   21.7410 C   0  0  0  0  0  0
  -29.3648  -19.1593   20.2907 C   0  0  0  0  0  0
  -31.2354  -17.5751   21.7078 C   0  0  0  0  0  0
  -29.2778  -17.7498   20.2527 C   0  0  0  0  0  0
  -30.3566  -19.8009   21.0592 C   0  0  0  0  0  0
  -30.1856  -16.9322   20.9825 C   0  0  0  0  0  0
  -32.2458  -16.8347   22.5187 C   0  0  0  0  0  0
  -29.6903  -22.2443   20.8074 C   0  0  0  0  0  0
  -28.1760  -17.1402   19.4101 C   0  0  0  0  0  0
  -33.7059  -17.2482   22.3510 C   0  0  0  0  0  0
  -28.0901  -24.4843   22.4181 C   0  0  0  0  0  0
  -30.0490  -25.9784   22.0504 C   0  0  0  0  0  0
  -30.2042  -23.6466   21.2070 C   0  0  0  0  0  0
  -28.5644  -25.3452   20.0811 C   0  0  0  0  0  0
  -29.2070  -24.8429   21.4160 C   0  0  0  0  0  0
  -30.4862  -21.2207   21.1933 N   0  0  0  0  0  0
  -29.9318  -15.5159   21.0268 N   0  0  0  0  0  0
  -31.9720  -15.8968   23.2731 O   0  0  0  0  0  0
  -28.6444  -22.1178   20.1689 O   0  0  0  0  0  0
  -31.4721  -12.4328   19.1143 H   0  0  0  0  0  0
  -30.3457  -11.3125   19.8283 H   0  0  0  0  0  0
  -29.7363  -11.7731   17.4335 H   0  0  0  0  0  0
  -29.6546  -13.4856   17.7617 H   0  0  0  0  0  0
  -27.8336  -11.3020   18.8283 H   0  0  0  0  0  0
  -27.3631  -12.6222   17.7919 H   0  0  0  0  0  0
  -27.6920  -14.2452   19.5674 H   0  0  0  0  0  0
  -28.6935  -11.9654   21.3432 H   0  0  0  0  0  0
  -28.4713  -13.6034   21.8703 H   0  0  0  0  0  0
  -25.2756   -9.5638   22.4779 H   0  0  0  0  0  0
  -23.9984   -7.4594   22.7476 H   0  0  0  0  0  0
  -21.0832   -8.8761   19.8951 H   0  0  0  0  0  0
  -22.3705  -10.9656   19.6177 H   0  0  0  0  0  0
  -21.1991   -7.6143   23.9715 H   0  0  0  0  0  0
  -21.1482   -6.0520   25.9080 H   0  0  0  0  0  0
  -22.0603   -2.7605   23.2849 H   0  0  0  0  0  0
  -22.4065  -11.9847   22.4815 H   0  0  0  0  0  0
  -21.1093  -13.1240   22.2643 H   0  0  0  0  0  0
  -24.6310  -15.8196   20.4998 H   0  0  0  0  0  0
  -26.2405  -15.6122   20.0310 H   0  0  0  0  0  0
  -26.7094  -32.5532   23.1145 H   0  0  0  0  0  0
  -25.0023  -33.9800   25.0458 H   0  0  0  0  0  0
  -22.6919  -31.3057   21.4044 H   0  0  0  0  0  0
  -23.3754  -35.9644   23.3323 H   0  0  0  0  0  0
  -24.3585  -36.8915   22.2060 H   0  0  0  0  0  0
  -23.7236  -37.6524   23.6646 H   0  0  0  0  0  0
  -26.0434  -31.5949   20.5884 H   0  0  0  0  0  0
  -26.8175  -30.8871   21.9773 H   0  0  0  0  0  0
  -28.1017  -29.1171   21.1389 H   0  0  0  0  0  0
  -26.0595  -25.9700   18.9978 H   0  0  0  0  0  0
  -23.9842  -27.2790   19.0455 H   0  0  0  0  0  0
  -23.7242  -30.5891   19.4010 H   0  0  0  0  0  0
  -22.7360  -29.2373   19.8648 H   0  0  0  0  0  0
  -25.1276  -36.1990   25.0841 H   0  0  0  0  0  0
  -20.9959  -28.3224   24.1442 H   0  0  0  0  0  0
  -20.5685  -26.2257   23.3590 H   0  0  0  0  0  0
  -21.6640  -26.7457   22.1193 H   0  0  0  0  0  0
  -19.6925  -25.6313   21.1229 H   0  0  0  0  0  0
  -19.6709  -27.3209   20.6750 H   0  0  0  0  0  0
  -17.4200  -26.6679   21.4023 H   0  0  0  0  0  0
  -18.0328  -26.0077   22.9012 H   0  0  0  0  0  0
  -19.7939  -30.7255   24.2278 H   0  0  0  0  0  0
  -17.5031  -31.6261   24.5174 H   0  0  0  0  0  0
  -15.5358  -30.3011   23.7644 H   0  0  0  0  0  0
  -15.8671  -28.0860   22.7019 H   0  0  0  0  0  0
  -24.5880  -30.7086   25.7818 H   0  0  0  0  0  0
  -24.8937  -32.2885   26.4944 H   0  0  0  0  0  0
  -25.8085  -30.8877   27.0224 H   0  0  0  0  0  0
  -26.2832  -29.6827   24.1126 H   0  0  0  0  0  0
  -27.4095  -29.7287   25.4512 H   0  0  0  0  0  0
  -27.8647  -30.4413   23.9197 H   0  0  0  0  0  0
  -27.2644  -33.3613   26.2084 H   0  0  0  0  0  0
  -28.3809  -32.6924   25.0282 H   0  0  0  0  0  0
  -28.0725  -31.8444   26.5364 H   0  0  0  0  0  0
  -28.2599  -38.0106   24.7503 H   0  0  0  0  0  0
  -28.1076  -36.2637   24.6299 H   0  0  0  0  0  0
  -27.2304  -37.1458   25.8875 H   0  0  0  0  0  0
  -20.9289  -29.8777   21.6966 H   0  0  0  0  0  0
  -26.0197  -38.2879   24.1414 H   0  0  0  0  0  0
  -32.0508  -19.4777   22.3385 H   0  0  0  0  0  0
  -28.6449  -19.7380   19.7313 H   0  0  0  0  0  0
  -27.7588  -17.8640   18.7091 H   0  0  0  0  0  0
  -27.3751  -16.8132   20.0652 H   0  0  0  0  0  0
  -28.5425  -16.2954   18.8271 H   0  0  0  0  0  0
  -33.8089  -18.2700   21.9892 H   0  0  0  0  0  0
  -34.1919  -16.5886   21.6336 H   0  0  0  0  0  0
  -34.2325  -17.1678   23.3009 H   0  0  0  0  0  0
  -28.4985  -24.1608   23.3763 H   0  0  0  0  0  0
  -27.4537  -23.6820   22.0453 H   0  0  0  0  0  0
  -27.4433  -25.3428   22.6065 H   0  0  0  0  0  0
  -30.5454  -25.6541   22.9657 H   0  0  0  0  0  0
  -29.4372  -26.8393   22.3229 H   0  0  0  0  0  0
  -30.8225  -26.3296   21.3656 H   0  0  0  0  0  0
  -30.9518  -23.9351   20.4675 H   0  0  0  0  0  0
  -30.7621  -23.5115   22.1350 H   0  0  0  0  0  0
  -27.6249  -24.8278   19.8949 H   0  0  0  0  0  0
  -29.2134  -25.0841   19.2444 H   0  0  0  0  0  0
  -31.3044  -21.5206   21.7053 H   0  0  0  0  0  0
  -28.9868  -15.2465   21.2550 H   0  0  0  0  0  0
  1 25  1  0  0  0
  1 30  2  0  0  0
  1 87  1  0  0  0
  2  3  1  0  0  0
  2 25  1  0  0  0
  2 90  1  0  0  0
  2 91  1  0  0  0
  3  4  1  0  0  0
  3 92  1  0  0  0
  3 93  1  0  0  0
  4  5  1  0  0  0
  4 94  1  0  0  0
  4 95  1  0  0  0
  5  6  1  0  0  0
  5 26  1  0  0  0
  5 96  1  0  0  0
  6 25  1  0  0  0
  6 97  1  0  0  0
  6 98  1  0  0  0
  7  8  2  0  0  0
  7 26  1  0  0  0
  7 29  1  0  0  0
  8  9  1  0  0  0
  8 22  1  0  0  0
  9 10  1  0  0  0
  9 27  2  0  0  0
 10 11  2  0  0  0
 10 15  1  0  0  0
 11 12  1  0  0  0
 11 99  1  0  0  0
 12 13  2  0  0  0
 12100  1  0  0  0
 13 14  1  0  0  0
 13 31  1  0  0  0
 14 15  2  0  0  0
 14101  1  0  0  0
 15102  1  0  0  0
 16 17  2  0  0  0
 16 21  1  0  0  0
 16 31  1  0  0  0
 17 18  1  0  0  0
 17103  1  0  0  0
 18 19  2  0  0  0
 18104  1  0  0  0
 19 20  1  0  0  0
 19 24  1  0  0  0
 20 21  2  0  0  0
 20105  1  0  0  0
 21 23  1  0  0  0
 22 28  1  0  0  0
 22 32  2  0  0  0
 26 27  1  0  0  0
 28106  1  0  0  0
 28107  1  0  0  0
 29108  1  0  0  0
 29109  1  0  0  0
 33 34  1  0  0  0
 33 66  1  0  0  0
 33 70  2  0  0  0
 34 36  1  0  0  0
 34 59  1  0  0  0
 34110  1  0  0  0
 35 44  2  0  0  0
 35 45  1  0  0  0
 35 68  1  0  0  0
 36 56  1  0  0  0
 36111  1  0  0  0
 37 39  1  0  0  0
 37 47  1  0  0  0
 37 66  1  0  0  0
 37112  1  0  0  0
 38 43  2  0  0  0
 38 46  1  0  0  0
 38 47  1  0  0  0
 39 64  1  0  0  0
 39 67  2  0  0  0
 40 52  1  0  0  0
 40 53  2  0  0  0
 40 58  1  0  0  0
 41113  1  0  0  0
 41114  1  0  0  0
 41115  1  0  0  0
 41 48  1  0  0  0
 42 43  1  0  0  0
 42 66  1  0  0  0
 42116  1  0  0  0
 42117  1  0  0  0
 43 44  1  0  0  0
 44118  1  0  0  0
 45 46  2  0  0  0
 45119  1  0  0  0
 46120  1  0  0  0
 47121  1  0  0  0
 47122  1  0  0  0
 48 56  1  0  0  0
 48 65  1  0  0  0
 48123  1  0  0  0
 49 50  1  0  0  0
 49 53  1  0  0  0
 49 64  1  0  0  0
 49124  1  0  0  0
 50 51  1  0  0  0
 50125  1  0  0  0
 50126  1  0  0  0
 51 52  1  0  0  0
 51127  1  0  0  0
 51128  1  0  0  0
 52129  1  0  0  0
 52130  1  0  0  0
 53 54  1  0  0  0
 54 55  2  0  0  0
 54131  1  0  0  0
 55 57  1  0  0  0
 55132  1  0  0  0
 56 69  2  0  0  0
 57 58  2  0  0  0
 57133  1  0  0  0
 58134  1  0  0  0
 59 60  1  0  0  0
 59 61  1  0  0  0
 59 62  1  0  0  0
 60135  1  0  0  0
 60136  1  0  0  0
 60137  1  0  0  0
 61138  1  0  0  0
 61139  1  0  0  0
 61140  1  0  0  0
 62141  1  0  0  0
 62142  1  0  0  0
 62143  1  0  0  0
 63 65  1  0  0  0
 63144  1  0  0  0
 63145  1  0  0  0
 63146  1  0  0  0
 64147  1  0  0  0
 65148  1  0  0  0
 68 84  1  0  0  0
 71 73  2  0  0  0
 71 75  1  0  0  0
 71149  1  0  0  0
 72 74  1  0  0  0
 72 75  2  0  0  0
 72150  1  0  0  0
 73 76  1  0  0  0
 73 77  1  0  0  0
 74 76  2  0  0  0
 74 79  1  0  0  0
 75 86  1  0  0  0
 76 87  1  0  0  0
 77 80  1  0  0  0
 77 88  2  0  0  0
 78 83  1  0  0  0
 78 86  1  0  0  0
 78 89  2  0  0  0
 79151  1  0  0  0
 79152  1  0  0  0
 79153  1  0  0  0
 80154  1  0  0  0
 80155  1  0  0  0
 80156  1  0  0  0
 81157  1  0  0  0
 81158  1  0  0  0
 81159  1  0  0  0
 81 85  1  0  0  0
 82 85  1  0  0  0
 82160  1  0  0  0
 82161  1  0  0  0
 82162  1  0  0  0
 83 85  1  0  0  0
 83163  1  0  0  0
 83164  1  0  0  0
 84 85  1  0  0  0
 84165  1  0  0  0
 84166  1  0  0  0
 86167  1  0  0  0
 87168  1  0  0  0
M  ISO  4   1 100  68 101  84 101  87 100
M  END
> <chiral flag>
0

> <version>
0

> <s_m_source_file>
/data/baiqing/PycharmProjects/Reinvent-master-3.2/result/LINK_invent/BTK/process_docking_weight1_custom_product_contain_oxygen_bond_distance_aromatic_linkinvent_7_9_3/rearranged_h_0145.sdf

> <i_m_source_file_index>
49

> <r_mmod_Potential_Energy-OPLS-2005>
-8.08855247497559

> <r_mmod_Stretch_Energy-OPLS-2005>
45.1896362304688

> <r_mmod_Bend_Energy-OPLS-2005>
136.651412963867

> <r_mmod_Torsional_Energy-OPLS-2005>
274.14892578125

> <r_mmod_Improper_Torsional_Energy-OPLS-2005>
5.05117464065552

> <r_mmod_Van_der_Waal_Energy-OPLS-2005>
157.632705688477

> <r_mmod_Electrostatic_Energy-OPLS-2005>
-412.874786376953

> <r_mmod_Solvation_Energy-OPLS-2005>
-228.729614257812

> <b_mmod_Minimization_Converged-OPLS-2005>
0

> <r_mmod_RMS_Derivative-OPLS-2005>
1.43681693077087

$$$$
49
                    3D
 Structure written by MMmdl.
160169  0  0  1  0            999 V2000
  -30.6571  -14.5658   20.5398 C   0  0  0  0  0  0
  -30.4259  -12.3541   19.4438 C   0  0  0  0  0  0
  -29.4984  -12.5034   18.2182 C   0  0  0  0  0  0
  -28.0198  -12.3552   18.6292 C   0  0  0  0  0  0
  -27.6531  -13.2128   19.8695 C   0  0  2  0  0  0
  -28.6945  -13.0338   20.9954 C   0  0  0  0  0  0
  -25.2548  -13.8180   20.5688 C   0  0  0  0  0  0
  -24.1815  -13.0443   20.9190 C   0  0  0  0  0  0
  -24.6378  -11.6912   20.8739 C   0  0  0  0  0  0
  -23.9053  -10.4290   21.0403 C   0  0  0  0  0  0
  -24.3607   -9.4207   21.9178 C   0  0  0  0  0  0
  -23.6285   -8.2238   22.0746 C   0  0  0  0  0  0
  -22.4268   -8.0276   21.3538 C   0  0  0  0  0  0
  -21.9901   -9.0248   20.4638 C   0  0  0  0  0  0
  -22.7229  -10.2129   20.3050 C   0  0  0  0  0  0
  -21.6851   -6.0731   22.5280 C   0  0  0  0  0  0
  -21.4015   -6.5638   23.8214 C   0  0  0  0  0  0
  -21.3657   -5.6792   24.9176 C   0  0  0  0  0  0
  -21.6044   -4.3055   24.7226 C   0  0  0  0  0  0
  -21.8820   -3.8146   23.4349 C   0  0  0  0  0  0
  -21.9190   -4.6961   22.3405 C   0  0  0  0  0  0
  -22.7836  -13.5229   21.1865 C   0  0  0  0  0  0
  -22.1660   -4.2146   21.0985 F   0  0  0  0  0  0
  -21.5630   -3.4536   25.7740 F   0  0  0  0  0  0
  -30.0131  -13.3640   20.4364 N   0  0  0  0  0  0
  -26.2976  -12.9352   20.3352 N   0  0  0  0  0  0
  -25.9307  -11.6509   20.5774 N   0  0  0  0  0  0
  -22.0489  -12.8202   22.0420 N   0  0  0  0  0  0
  -25.4268  -15.1898   20.4093 N   0  0  0  0  0  0
  -31.8030  -14.7183   20.1008 O   0  0  0  0  0  0
  -21.6635   -6.8872   21.4240 O   0  0  0  0  0  0
  -22.3515  -14.5539   20.6732 O   0  0  0  0  0  0
  -24.6202  -31.8629   23.2047 C   0  0  0  0  0  0
  -25.9070  -32.4793   23.8362 C   0  0  1  0  0  0
  -27.2307  -27.3679   20.1016 C   0  0  0  0  0  0
  -25.5902  -33.8593   24.2290 N   0  0  0  0  0  0
  -23.4107  -30.4863   21.5461 C   0  0  2  0  0  0
  -24.8552  -28.9409   20.1141 C   0  0  0  0  0  0
  -22.7437  -29.4641   22.4956 C   0  0  0  0  0  0
  -18.0280  -28.1384   22.8490 C   0  0  0  0  0  0
  -24.1485  -36.7303   23.2641 C   0  0  0  0  0  0
  -25.9455  -30.8081   21.3663 C   0  0  0  0  0  0
  -26.0193  -29.4375   20.7114 C   0  0  0  0  0  0
  -27.2066  -28.6600   20.6968 C   0  0  0  0  0  0
  -26.0385  -26.8961   19.5062 C   0  0  0  0  0  0
  -24.8631  -27.6731   19.5082 C   0  0  0  0  0  0
  -23.6219  -29.8171   20.1619 C   0  0  0  0  0  0
  -25.4109  -36.3090   24.0332 C   0  0  1  0  0  0
  -20.5873  -28.3678   23.1303 C   0  0  2  0  0  0
  -20.6760  -26.9406   22.5421 C   0  0  0  0  0  0
  -19.5744  -26.6389   21.5213 C   0  0  0  0  0  0
  -18.1923  -26.7933   22.1618 C   0  0  0  0  0  0
  -19.1531  -28.8846   23.2896 C   0  0  0  0  0  0
  -18.9457  -30.1449   23.8913 C   0  0  0  0  0  0
  -17.6458  -30.6586   24.0572 C   0  0  0  0  0  0
  -25.9043  -34.9460   23.5113 C   0  0  0  0  0  0
  -16.5349  -29.9089   23.6327 C   0  0  0  0  0  0
  -16.7268  -28.6506   23.0348 C   0  0  0  0  0  0
  -26.4478  -31.6594   25.0716 C   0  0  0  0  0  0
  -25.3734  -31.3722   26.1459 C   0  0  0  0  0  0
  -27.0313  -30.3025   24.6139 C   0  0  0  0  0  0
  -27.6042  -32.4326   25.7483 C   0  0  0  0  0  0
  -27.5582  -37.1801   24.8461 C   0  0  0  0  0  0
  -21.4159  -29.3040   22.3701 N   0  0  0  0  0  0
  -26.4289  -37.3783   23.9413 N   0  0  0  0  0  0
  -24.6774  -31.0685   22.0967 N   0  0  0  0  0  0
  -23.4187  -28.8183   23.3019 O   0  0  0  0  0  0
  -28.4066  -26.6223   20.1292 O   0  0  0  0  0  0
  -26.5615  -34.8921   22.4680 O   0  0  0  0  0  0
  -23.5380  -32.1403   23.7410 O   0  0  0  0  0  0
  -29.0401  -19.9135   22.8709 C   0  0  0  0  0  0
  -29.2549  -19.4152   20.4942 C   0  0  0  0  0  0
  -29.3197  -18.5687   23.2293 C   0  0  0  0  0  0
  -29.5179  -18.0574   20.8552 C   0  0  0  0  0  0
  -29.5405  -17.6414   22.1780 C   0  0  0  0  0  0
  -29.0016  -20.3700   21.5295 C   0  0  0  0  0  0
  -29.3029  -18.2264   24.6848 C   0  0  0  0  0  0
  -28.6190  -22.6460   20.3496 C   0  0  0  0  0  0
  -29.7821  -16.8493   19.9630 C   0  0  0  0  0  0
  -29.7800  -16.1369   22.2425 C   0  0  0  0  0  0
  -30.1305  -17.0449   25.1723 C   0  0  0  0  0  0
  -28.2099  -24.1181   20.7053 C   0  0  0  0  0  0
  -28.4857  -25.2441   19.6455 C   0  0  0  0  0  0
  -29.8815  -15.6509   20.8499 N   0  0  0  0  0  0
  -28.6811  -21.7764   21.3893 N   0  0  0  0  0  0
  -28.6914  -18.8961   25.5227 O   0  0  0  0  0  0
  -28.8578  -22.3216   19.1840 O   0  0  0  0  0  0
  -31.4691  -12.4638   19.1424 H   0  0  0  0  0  0
  -30.3442  -11.3523   19.8690 H   0  0  0  0  0  0
  -29.7499  -11.7614   17.4588 H   0  0  0  0  0  0
  -29.6543  -13.4790   17.7552 H   0  0  0  0  0  0
  -27.8425  -11.3014   18.8458 H   0  0  0  0  0  0
  -27.3688  -12.6064   17.7914 H   0  0  0  0  0  0
  -27.6821  -14.2548   19.5502 H   0  0  0  0  0  0
  -28.6910  -12.0054   21.3609 H   0  0  0  0  0  0
  -28.4414  -13.6513   21.8560 H   0  0  0  0  0  0
  -25.2757   -9.5688   22.4748 H   0  0  0  0  0  0
  -23.9993   -7.4630   22.7467 H   0  0  0  0  0  0
  -21.0830   -8.8775   19.8938 H   0  0  0  0  0  0
  -22.3689  -10.9670   19.6157 H   0  0  0  0  0  0
  -21.2013   -7.6145   23.9719 H   0  0  0  0  0  0
  -21.1475   -6.0522   25.9080 H   0  0  0  0  0  0
  -22.0598   -2.7605   23.2858 H   0  0  0  0  0  0
  -22.4108  -11.9855   22.4789 H   0  0  0  0  0  0
  -21.1111  -13.1220   22.2644 H   0  0  0  0  0  0
  -24.6615  -15.8472   20.5159 H   0  0  0  0  0  0
  -26.2868  -15.6301   20.1076 H   0  0  0  0  0  0
  -26.7137  -32.5483   23.1115 H   0  0  0  0  0  0
  -25.0024  -33.9744   25.0416 H   0  0  0  0  0  0
  -22.7024  -31.3051   21.4040 H   0  0  0  0  0  0
  -23.3745  -35.9639   23.3298 H   0  0  0  0  0  0
  -24.3576  -36.8932   22.2057 H   0  0  0  0  0  0
  -23.7240  -37.6505   23.6665 H   0  0  0  0  0  0
  -26.0690  -31.5721   20.5974 H   0  0  0  0  0  0
  -26.8295  -30.8589   21.9909 H   0  0  0  0  0  0
  -28.1061  -29.0427   21.1590 H   0  0  0  0  0  0
  -25.9815  -25.9235   19.0431 H   0  0  0  0  0  0
  -23.9654  -27.2834   19.0482 H   0  0  0  0  0  0
  -23.7392  -30.5913   19.4030 H   0  0  0  0  0  0
  -22.7430  -29.2436   19.8618 H   0  0  0  0  0  0
  -25.1287  -36.1945   25.0826 H   0  0  0  0  0  0
  -20.9972  -28.3250   24.1421 H   0  0  0  0  0  0
  -20.5649  -26.2290   23.3617 H   0  0  0  0  0  0
  -21.6634  -26.7427   22.1230 H   0  0  0  0  0  0
  -19.6901  -25.6303   21.1236 H   0  0  0  0  0  0
  -19.6688  -27.3205   20.6750 H   0  0  0  0  0  0
  -17.4197  -26.6696   21.4014 H   0  0  0  0  0  0
  -18.0312  -26.0069   22.9005 H   0  0  0  0  0  0
  -19.7931  -30.7261   24.2298 H   0  0  0  0  0  0
  -17.5010  -31.6267   24.5175 H   0  0  0  0  0  0
  -15.5349  -30.3000   23.7635 H   0  0  0  0  0  0
  -15.8668  -28.0830   22.7053 H   0  0  0  0  0  0
  -24.5888  -30.7093   25.7790 H   0  0  0  0  0  0
  -24.8953  -32.2891   26.4916 H   0  0  0  0  0  0
  -25.8076  -30.8873   27.0212 H   0  0  0  0  0  0
  -26.2869  -29.6782   24.1181 H   0  0  0  0  0  0
  -27.4042  -29.7274   25.4626 H   0  0  0  0  0  0
  -27.8725  -30.4321   23.9324 H   0  0  0  0  0  0
  -27.2642  -33.3606   26.2089 H   0  0  0  0  0  0
  -28.3831  -32.6919   25.0301 H   0  0  0  0  0  0
  -28.0731  -31.8438   26.5378 H   0  0  0  0  0  0
  -28.2590  -38.0108   24.7518 H   0  0  0  0  0  0
  -28.1087  -36.2640   24.6264 H   0  0  0  0  0  0
  -27.2310  -37.1429   25.8866 H   0  0  0  0  0  0
  -20.9324  -29.8773   21.6928 H   0  0  0  0  0  0
  -26.0171  -38.2857   24.1424 H   0  0  0  0  0  0
  -28.8508  -20.6264   23.6630 H   0  0  0  0  0  0
  -29.2336  -19.7040   19.4528 H   0  0  0  0  0  0
  -30.6984  -17.0042   19.3901 H   0  0  0  0  0  0
  -28.9602  -16.7174   19.2585 H   0  0  0  0  0  0
  -28.9520  -15.6506   22.7576 H   0  0  0  0  0  0
  -30.7039  -15.9177   22.7788 H   0  0  0  0  0  0
  -31.1016  -17.0329   24.6792 H   0  0  0  0  0  0
  -29.6110  -16.1064   24.9823 H   0  0  0  0  0  0
  -30.3018  -17.1269   26.2453 H   0  0  0  0  0  0
  -28.7435  -24.3856   21.6177 H   0  0  0  0  0  0
  -27.1510  -24.1223   20.9645 H   0  0  0  0  0  0
  -27.8929  -25.0873   18.7457 H   0  0  0  0  0  0
  -29.5149  -25.1223   19.3058 H   0  0  0  0  0  0
  -28.4652  -22.2265   22.2683 H   0  0  0  0  0  0
  1 25  1  0  0  0
  1 30  2  0  0  0
  1 84  1  0  0  0
  2  3  1  0  0  0
  2 25  1  0  0  0
  2 88  1  0  0  0
  2 89  1  0  0  0
  3  4  1  0  0  0
  3 90  1  0  0  0
  3 91  1  0  0  0
  4  5  1  0  0  0
  4 92  1  0  0  0
  4 93  1  0  0  0
  5  6  1  0  0  0
  5 26  1  0  0  0
  5 94  1  0  0  0
  6 25  1  0  0  0
  6 95  1  0  0  0
  6 96  1  0  0  0
  7  8  2  0  0  0
  7 26  1  0  0  0
  7 29  1  0  0  0
  8  9  1  0  0  0
  8 22  1  0  0  0
  9 10  1  0  0  0
  9 27  2  0  0  0
 10 11  2  0  0  0
 10 15  1  0  0  0
 11 12  1  0  0  0
 11 97  1  0  0  0
 12 13  2  0  0  0
 12 98  1  0  0  0
 13 14  1  0  0  0
 13 31  1  0  0  0
 14 15  2  0  0  0
 14 99  1  0  0  0
 15100  1  0  0  0
 16 17  2  0  0  0
 16 21  1  0  0  0
 16 31  1  0  0  0
 17 18  1  0  0  0
 17101  1  0  0  0
 18 19  2  0  0  0
 18102  1  0  0  0
 19 20  1  0  0  0
 19 24  1  0  0  0
 20 21  2  0  0  0
 20103  1  0  0  0
 21 23  1  0  0  0
 22 28  1  0  0  0
 22 32  2  0  0  0
 26 27  1  0  0  0
 28104  1  0  0  0
 28105  1  0  0  0
 29106  1  0  0  0
 29107  1  0  0  0
 33 34  1  0  0  0
 33 66  1  0  0  0
 33 70  2  0  0  0
 34 36  1  0  0  0
 34 59  1  0  0  0
 34108  1  0  0  0
 35 44  2  0  0  0
 35 45  1  0  0  0
 35 68  1  0  0  0
 36 56  1  0  0  0
 36109  1  0  0  0
 37 39  1  0  0  0
 37 47  1  0  0  0
 37 66  1  0  0  0
 37110  1  0  0  0
 38 43  2  0  0  0
 38 46  1  0  0  0
 38 47  1  0  0  0
 39 64  1  0  0  0
 39 67  2  0  0  0
 40 52  1  0  0  0
 40 53  2  0  0  0
 40 58  1  0  0  0
 41111  1  0  0  0
 41112  1  0  0  0
 41113  1  0  0  0
 41 48  1  0  0  0
 42 43  1  0  0  0
 42 66  1  0  0  0
 42114  1  0  0  0
 42115  1  0  0  0
 43 44  1  0  0  0
 44116  1  0  0  0
 45 46  2  0  0  0
 45117  1  0  0  0
 46118  1  0  0  0
 47119  1  0  0  0
 47120  1  0  0  0
 48 56  1  0  0  0
 48 65  1  0  0  0
 48121  1  0  0  0
 49 50  1  0  0  0
 49 53  1  0  0  0
 49 64  1  0  0  0
 49122  1  0  0  0
 50 51  1  0  0  0
 50123  1  0  0  0
 50124  1  0  0  0
 51 52  1  0  0  0
 51125  1  0  0  0
 51126  1  0  0  0
 52127  1  0  0  0
 52128  1  0  0  0
 53 54  1  0  0  0
 54 55  2  0  0  0
 54129  1  0  0  0
 55 57  1  0  0  0
 55130  1  0  0  0
 56 69  2  0  0  0
 57 58  2  0  0  0
 57131  1  0  0  0
 58132  1  0  0  0
 59 60  1  0  0  0
 59 61  1  0  0  0
 59 62  1  0  0  0
 60133  1  0  0  0
 60134  1  0  0  0
 60135  1  0  0  0
 61136  1  0  0  0
 61137  1  0  0  0
 61138  1  0  0  0
 62139  1  0  0  0
 62140  1  0  0  0
 62141  1  0  0  0
 63 65  1  0  0  0
 63142  1  0  0  0
 63143  1  0  0  0
 63144  1  0  0  0
 64145  1  0  0  0
 65146  1  0  0  0
 68 83  1  0  0  0
 71 73  2  0  0  0
 71 76  1  0  0  0
 71147  1  0  0  0
 72 74  1  0  0  0
 72 76  2  0  0  0
 72148  1  0  0  0
 73 75  1  0  0  0
 73 77  1  0  0  0
 74 75  2  0  0  0
 74 79  1  0  0  0
 75 80  1  0  0  0
 76 85  1  0  0  0
 77 81  1  0  0  0
 77 86  2  0  0  0
 78 82  1  0  0  0
 78 85  1  0  0  0
 78 87  2  0  0  0
 79 84  1  0  0  0
 79149  1  0  0  0
 79150  1  0  0  0
 80 84  1  0  0  0
 80151  1  0  0  0
 80152  1  0  0  0
 81153  1  0  0  0
 81154  1  0  0  0
 81155  1  0  0  0
 82 83  1  0  0  0
 82156  1  0  0  0
 82157  1  0  0  0
 83158  1  0  0  0
 83159  1  0  0  0
 85160  1  0  0  0
M  ISO  4   1 100  68 101  83 101  84 100
M  END
> <chiral flag>
0

> <version>
0

> <s_m_source_file>
/data/baiqing/PycharmProjects/Reinvent-master-3.2/result/LINK_invent/BTK/process_docking_weight1_custom_product_contain_oxygen_bond_distance_aromatic_linkinvent_7_9_3/rearranged_h_0145.sdf

> <i_m_source_file_index>
50

> <r_mmod_Potential_Energy-OPLS-2005>
86.7714767456055

> <r_mmod_Stretch_Energy-OPLS-2005>
59.947078704834

> <r_mmod_Bend_Energy-OPLS-2005>
188.933059692383

> <r_mmod_Torsional_Energy-OPLS-2005>
283.441925048828

> <r_mmod_Improper_Torsional_Energy-OPLS-2005>
11.2496471405029

> <r_mmod_Van_der_Waal_Energy-OPLS-2005>
140.969512939453

> <r_mmod_Electrostatic_Energy-OPLS-2005>
-390.812164306641

> <r_mmod_Solvation_Energy-OPLS-2005>
-233.237716674805

> <b_mmod_Minimization_Converged-OPLS-2005>
0

> <r_mmod_RMS_Derivative-OPLS-2005>
0.939223647117615

$$$$
50
                    3D
 Structure written by MMmdl.
163171  0  0  1  0            999 V2000
  -30.6764  -14.4961   20.5237 C   0  0  0  0  0  0
  -30.4268  -12.3065   19.4330 C   0  0  0  0  0  0
  -29.5011  -12.5009   18.2126 C   0  0  0  0  0  0
  -28.0191  -12.3603   18.6202 C   0  0  0  0  0  0
  -27.6604  -13.2062   19.8718 C   0  0  2  0  0  0
  -28.7023  -13.0003   20.9967 C   0  0  0  0  0  0
  -25.2566  -13.8154   20.5677 C   0  0  0  0  0  0
  -24.1820  -13.0427   20.9181 C   0  0  0  0  0  0
  -24.6386  -11.6900   20.8717 C   0  0  0  0  0  0
  -23.9059  -10.4284   21.0402 C   0  0  0  0  0  0
  -24.3610   -9.4191   21.9179 C   0  0  0  0  0  0
  -23.6285   -8.2225   22.0749 C   0  0  0  0  0  0
  -22.4259   -8.0272   21.3539 C   0  0  0  0  0  0
  -21.9894   -9.0256   20.4647 C   0  0  0  0  0  0
  -22.7234  -10.2127   20.3053 C   0  0  0  0  0  0
  -21.6851   -6.0730   22.5280 C   0  0  0  0  0  0
  -21.4024   -6.5641   23.8219 C   0  0  0  0  0  0
  -21.3662   -5.6784   24.9174 C   0  0  0  0  0  0
  -21.6044   -4.3052   24.7216 C   0  0  0  0  0  0
  -21.8820   -3.8142   23.4334 C   0  0  0  0  0  0
  -21.9188   -4.6962   22.3395 C   0  0  0  0  0  0
  -22.7846  -13.5229   21.1843 C   0  0  0  0  0  0
  -22.1652   -4.2153   21.0968 F   0  0  0  0  0  0
  -21.5626   -3.4537   25.7728 F   0  0  0  0  0  0
  -30.0338  -13.2981   20.4443 N   0  0  0  0  0  0
  -26.3009  -12.9334   20.3339 N   0  0  0  0  0  0
  -25.9307  -11.6494   20.5724 N   0  0  0  0  0  0
  -22.0473  -12.8238   22.0399 N   0  0  0  0  0  0
  -25.4251  -15.1875   20.4090 N   0  0  0  0  0  0
  -31.8271  -14.6713   20.1156 O   0  0  0  0  0  0
  -21.6619   -6.8873   21.4240 O   0  0  0  0  0  0
  -22.3537  -14.5541   20.6690 O   0  0  0  0  0  0
  -24.6186  -31.8677   23.2115 C   0  0  0  0  0  0
  -25.9068  -32.4819   23.8400 C   0  0  1  0  0  0
  -27.2098  -27.3871   20.0876 C   0  0  0  0  0  0
  -25.5908  -33.8618   24.2320 N   0  0  0  0  0  0
  -23.4068  -30.5005   21.5523 C   0  0  2  0  0  0
  -24.8467  -28.9771   20.1041 C   0  0  0  0  0  0
  -22.7421  -29.4685   22.4933 C   0  0  0  0  0  0
  -18.0281  -28.1381   22.8481 C   0  0  0  0  0  0
  -24.1482  -36.7306   23.2646 C   0  0  0  0  0  0
  -25.9449  -30.8186   21.3762 C   0  0  0  0  0  0
  -26.0136  -29.4560   20.7101 C   0  0  0  0  0  0
  -27.1974  -28.6701   20.6998 C   0  0  0  0  0  0
  -26.0149  -26.9537   19.4615 C   0  0  0  0  0  0
  -24.8466  -27.7287   19.4708 C   0  0  0  0  0  0
  -23.6129  -29.8492   20.1617 C   0  0  0  0  0  0
  -25.4105  -36.3111   24.0341 C   0  0  1  0  0  0
  -20.5874  -28.3691   23.1273 C   0  0  2  0  0  0
  -20.6765  -26.9412   22.5407 C   0  0  0  0  0  0
  -19.5750  -26.6386   21.5199 C   0  0  0  0  0  0
  -18.1930  -26.7920   22.1613 C   0  0  0  0  0  0
  -19.1534  -28.8845   23.2876 C   0  0  0  0  0  0
  -18.9457  -30.1442   23.8908 C   0  0  0  0  0  0
  -17.6464  -30.6580   24.0569 C   0  0  0  0  0  0
  -25.9041  -34.9478   23.5126 C   0  0  0  0  0  0
  -16.5350  -29.9093   23.6317 C   0  0  0  0  0  0
  -16.7273  -28.6502   23.0343 C   0  0  0  0  0  0
  -26.4485  -31.6596   25.0737 C   0  0  0  0  0  0
  -25.3748  -31.3712   26.1489 C   0  0  0  0  0  0
  -27.0329  -30.3030   24.6156 C   0  0  0  0  0  0
  -27.6064  -32.4329   25.7486 C   0  0  0  0  0  0
  -27.5571  -37.1810   24.8464 C   0  0  0  0  0  0
  -21.4146  -29.3061   22.3672 N   0  0  0  0  0  0
  -26.4289  -37.3800   23.9402 N   0  0  0  0  0  0
  -24.6755  -31.0758   22.1038 N   0  0  0  0  0  0
  -23.4171  -28.8179   23.2956 O   0  0  0  0  0  0
  -28.3522  -26.5851   20.1314 O   0  0  0  0  0  0
  -26.5607  -34.8924   22.4698 O   0  0  0  0  0  0
  -23.5359  -32.1440   23.7470 O   0  0  0  0  0  0
  -30.7554  -19.4708   23.0597 C   0  0  0  0  0  0
  -30.1581  -19.2365   21.8482 C   0  0  0  0  0  0
  -30.4944  -17.8590   21.5948 C   0  0  0  0  0  0
  -28.7648  -22.7179   20.6371 C   0  0  0  0  0  0
  -28.3509  -24.9117   18.3447 C   0  0  0  0  0  0
  -31.1587  -21.9779   21.2284 C   0  0  0  0  0  0
  -30.1300  -21.3891   19.0256 C   0  0  0  0  0  0
  -29.2483  -20.1980   21.0723 C   0  0  0  0  0  0
  -30.1010  -16.9453   20.4506 C   0  0  0  0  0  0
  -29.1699  -24.2235   20.6560 C   0  0  0  0  0  0
  -28.2018  -25.1581   19.8603 C   0  0  1  0  0  0
  -29.8359  -21.5743   20.5304 C   0  0  0  0  0  0
  -31.2671  -17.3645   22.5549 N   0  0  0  0  0  0
  -29.8785  -15.5340   20.8248 N   0  0  0  0  0  0
  -27.5652  -22.4222   20.6493 O   0  0  0  0  0  0
  -31.4336  -18.3815   23.4959 O   0  0  0  0  0  0
  -31.4744  -12.4038   19.1425 H   0  0  0  0  0  0
  -30.3214  -11.2984   19.8389 H   0  0  0  0  0  0
  -29.7490  -11.7767   17.4352 H   0  0  0  0  0  0
  -29.6646  -13.4855   17.7730 H   0  0  0  0  0  0
  -27.8294  -11.3053   18.8199 H   0  0  0  0  0  0
  -27.3716  -12.6318   17.7850 H   0  0  0  0  0  0
  -27.6978  -14.2497   19.5592 H   0  0  0  0  0  0
  -28.6716  -11.9673   21.3499 H   0  0  0  0  0  0
  -28.4744  -13.6154   21.8681 H   0  0  0  0  0  0
  -25.2761   -9.5682   22.4738 H   0  0  0  0  0  0
  -24.0012   -7.4625   22.7469 H   0  0  0  0  0  0
  -21.0824   -8.8782   19.8954 H   0  0  0  0  0  0
  -22.3703  -10.9663   19.6159 H   0  0  0  0  0  0
  -21.2023   -7.6152   23.9735 H   0  0  0  0  0  0
  -21.1489   -6.0501   25.9082 H   0  0  0  0  0  0
  -22.0592   -2.7609   23.2820 H   0  0  0  0  0  0
  -22.4083  -11.9917   22.4817 H   0  0  0  0  0  0
  -21.1099  -13.1285   22.2605 H   0  0  0  0  0  0
  -24.6540  -15.8356   20.5279 H   0  0  0  0  0  0
  -26.2666  -15.6310   20.0659 H   0  0  0  0  0  0
  -26.7124  -32.5516   23.1146 H   0  0  0  0  0  0
  -25.0029  -33.9776   25.0437 H   0  0  0  0  0  0
  -22.6974  -31.3211   21.4227 H   0  0  0  0  0  0
  -23.3749  -35.9637   23.3334 H   0  0  0  0  0  0
  -24.3556  -36.8904   22.2052 H   0  0  0  0  0  0
  -23.7238  -37.6518   23.6650 H   0  0  0  0  0  0
  -26.0758  -31.5910   20.6173 H   0  0  0  0  0  0
  -26.8259  -30.8541   22.0058 H   0  0  0  0  0  0
  -28.0918  -29.0323   21.1845 H   0  0  0  0  0  0
  -25.9363  -26.0078   18.9502 H   0  0  0  0  0  0
  -23.9536  -27.3622   18.9839 H   0  0  0  0  0  0
  -23.7204  -30.6334   19.4109 H   0  0  0  0  0  0
  -22.7333  -29.2768   19.8607 H   0  0  0  0  0  0
  -25.1281  -36.1983   25.0838 H   0  0  0  0  0  0
  -20.9987  -28.3291   24.1385 H   0  0  0  0  0  0
  -20.5644  -26.2310   23.3611 H   0  0  0  0  0  0
  -21.6643  -26.7438   22.1228 H   0  0  0  0  0  0
  -19.6925  -25.6307   21.1215 H   0  0  0  0  0  0
  -19.6686  -27.3210   20.6735 H   0  0  0  0  0  0
  -17.4192  -26.6660   21.4024 H   0  0  0  0  0  0
  -18.0348  -26.0060   22.9011 H   0  0  0  0  0  0
  -19.7940  -30.7241   24.2289 H   0  0  0  0  0  0
  -17.5028  -31.6260   24.5184 H   0  0  0  0  0  0
  -15.5357  -30.2998   23.7637 H   0  0  0  0  0  0
  -15.8669  -28.0828   22.7052 H   0  0  0  0  0  0
  -24.5890  -30.7107   25.7809 H   0  0  0  0  0  0
  -24.8989  -32.2876   26.4985 H   0  0  0  0  0  0
  -25.8090  -30.8820   27.0217 H   0  0  0  0  0  0
  -26.2871  -29.6761   24.1261 H   0  0  0  0  0  0
  -27.4133  -29.7312   25.4628 H   0  0  0  0  0  0
  -27.8695  -30.4329   23.9295 H   0  0  0  0  0  0
  -27.2686  -33.3631   26.2062 H   0  0  0  0  0  0
  -28.3856  -32.6896   25.0299 H   0  0  0  0  0  0
  -28.0752  -31.8468   26.5398 H   0  0  0  0  0  0
  -28.2612  -38.0085   24.7488 H   0  0  0  0  0  0
  -28.1043  -36.2614   24.6323 H   0  0  0  0  0  0
  -27.2278  -37.1501   25.8867 H   0  0  0  0  0  0
  -20.9289  -29.8826   21.6945 H   0  0  0  0  0  0
  -26.0178  -38.2879   24.1416 H   0  0  0  0  0  0
  -30.7845  -20.3265   23.7191 H   0  0  0  0  0  0
  -28.0858  -23.8854   18.0850 H   0  0  0  0  0  0
  -29.3756  -25.0795   18.0154 H   0  0  0  0  0  0
  -27.7149  -25.5629   17.7492 H   0  0  0  0  0  0
  -31.6188  -22.8535   20.7710 H   0  0  0  0  0  0
  -31.9078  -21.1887   21.1542 H   0  0  0  0  0  0
  -31.0145  -22.2071   22.2839 H   0  0  0  0  0  0
  -30.6519  -22.2480   18.6007 H   0  0  0  0  0  0
  -29.2108  -21.2561   18.4493 H   0  0  0  0  0  0
  -30.7464  -20.5069   18.8530 H   0  0  0  0  0  0
  -28.4121  -20.4119   21.7383 H   0  0  0  0  0  0
  -28.7681  -19.6723   20.2449 H   0  0  0  0  0  0
  -30.8451  -17.0161   19.6562 H   0  0  0  0  0  0
  -29.1730  -17.3026   20.0032 H   0  0  0  0  0  0
  -30.1845  -24.3531   20.2861 H   0  0  0  0  0  0
  -29.1748  -24.5256   21.7028 H   0  0  0  0  0  0
  -27.2060  -24.8550   20.1815 H   0  0  0  0  0  0
  -28.9552  -15.3060   21.1536 H   0  0  0  0  0  0
  1 25  1  0  0  0
  1 30  2  0  0  0
  1 84  1  0  0  0
  2  3  1  0  0  0
  2 25  1  0  0  0
  2 87  1  0  0  0
  2 88  1  0  0  0
  3  4  1  0  0  0
  3 89  1  0  0  0
  3 90  1  0  0  0
  4  5  1  0  0  0
  4 91  1  0  0  0
  4 92  1  0  0  0
  5  6  1  0  0  0
  5 26  1  0  0  0
  5 93  1  0  0  0
  6 25  1  0  0  0
  6 94  1  0  0  0
  6 95  1  0  0  0
  7  8  2  0  0  0
  7 26  1  0  0  0
  7 29  1  0  0  0
  8  9  1  0  0  0
  8 22  1  0  0  0
  9 10  1  0  0  0
  9 27  2  0  0  0
 10 11  2  0  0  0
 10 15  1  0  0  0
 11 12  1  0  0  0
 11 96  1  0  0  0
 12 13  2  0  0  0
 12 97  1  0  0  0
 13 14  1  0  0  0
 13 31  1  0  0  0
 14 15  2  0  0  0
 14 98  1  0  0  0
 15 99  1  0  0  0
 16 17  2  0  0  0
 16 21  1  0  0  0
 16 31  1  0  0  0
 17 18  1  0  0  0
 17100  1  0  0  0
 18 19  2  0  0  0
 18101  1  0  0  0
 19 20  1  0  0  0
 19 24  1  0  0  0
 20 21  2  0  0  0
 20102  1  0  0  0
 21 23  1  0  0  0
 22 28  1  0  0  0
 22 32  2  0  0  0
 26 27  1  0  0  0
 28103  1  0  0  0
 28104  1  0  0  0
 29105  1  0  0  0
 29106  1  0  0  0
 33 34  1  0  0  0
 33 66  1  0  0  0
 33 70  2  0  0  0
 34 36  1  0  0  0
 34 59  1  0  0  0
 34107  1  0  0  0
 35 44  2  0  0  0
 35 45  1  0  0  0
 35 68  1  0  0  0
 36 56  1  0  0  0
 36108  1  0  0  0
 37 39  1  0  0  0
 37 47  1  0  0  0
 37 66  1  0  0  0
 37109  1  0  0  0
 38 43  2  0  0  0
 38 46  1  0  0  0
 38 47  1  0  0  0
 39 64  1  0  0  0
 39 67  2  0  0  0
 40 52  1  0  0  0
 40 53  2  0  0  0
 40 58  1  0  0  0
 41110  1  0  0  0
 41111  1  0  0  0
 41112  1  0  0  0
 41 48  1  0  0  0
 42 43  1  0  0  0
 42 66  1  0  0  0
 42113  1  0  0  0
 42114  1  0  0  0
 43 44  1  0  0  0
 44115  1  0  0  0
 45 46  2  0  0  0
 45116  1  0  0  0
 46117  1  0  0  0
 47118  1  0  0  0
 47119  1  0  0  0
 48 56  1  0  0  0
 48 65  1  0  0  0
 48120  1  0  0  0
 49 50  1  0  0  0
 49 53  1  0  0  0
 49 64  1  0  0  0
 49121  1  0  0  0
 50 51  1  0  0  0
 50122  1  0  0  0
 50123  1  0  0  0
 51 52  1  0  0  0
 51124  1  0  0  0
 51125  1  0  0  0
 52126  1  0  0  0
 52127  1  0  0  0
 53 54  1  0  0  0
 54 55  2  0  0  0
 54128  1  0  0  0
 55 57  1  0  0  0
 55129  1  0  0  0
 56 69  2  0  0  0
 57 58  2  0  0  0
 57130  1  0  0  0
 58131  1  0  0  0
 59 60  1  0  0  0
 59 61  1  0  0  0
 59 62  1  0  0  0
 60132  1  0  0  0
 60133  1  0  0  0
 60134  1  0  0  0
 61135  1  0  0  0
 61136  1  0  0  0
 61137  1  0  0  0
 62138  1  0  0  0
 62139  1  0  0  0
 62140  1  0  0  0
 63 65  1  0  0  0
 63141  1  0  0  0
 63142  1  0  0  0
 63143  1  0  0  0
 64144  1  0  0  0
 65145  1  0  0  0
 68 81  1  0  0  0
 71 72  2  0  0  0
 71 86  1  0  0  0
 71146  1  0  0  0
 72 73  1  0  0  0
 72 78  1  0  0  0
 73 79  1  0  0  0
 73 83  2  0  0  0
 74 80  1  0  0  0
 74 82  1  0  0  0
 74 85  2  0  0  0
 75147  1  0  0  0
 75148  1  0  0  0
 75149  1  0  0  0
 75 81  1  0  0  0
 76150  1  0  0  0
 76151  1  0  0  0
 76152  1  0  0  0
 76 82  1  0  0  0
 77 82  1  0  0  0
 77153  1  0  0  0
 77154  1  0  0  0
 77155  1  0  0  0
 78 82  1  0  0  0
 78156  1  0  0  0
 78157  1  0  0  0
 79 84  1  0  0  0
 79158  1  0  0  0
 79159  1  0  0  0
 80 81  1  0  0  0
 80160  1  0  0  0
 80161  1  0  0  0
 81162  1  0  0  0
 83 86  1  0  0  0
 84163  1  0  0  0
M  ISO  4   1 100  68 101  81 101  84 100
M  END
> <chiral flag>
0

> <version>
0

> <s_m_source_file>
/data/baiqing/PycharmProjects/Reinvent-master-3.2/result/LINK_invent/BTK/process_docking_weight1_custom_product_contain_oxygen_bond_distance_aromatic_linkinvent_7_9_3/rearranged_h_0145.sdf

> <i_m_source_file_index>
51

> <r_mmod_Potential_Energy-OPLS-2005>
-142.578125

> <r_mmod_Stretch_Energy-OPLS-2005>
51.6515731811523

> <r_mmod_Bend_Energy-OPLS-2005>
112.935554504395

> <r_mmod_Torsional_Energy-OPLS-2005>
206.606872558594

> <r_mmod_Improper_Torsional_Energy-OPLS-2005>
7.75894498825073

> <r_mmod_Van_der_Waal_Energy-OPLS-2005>
150.555374145508

> <r_mmod_Electrostatic_Energy-OPLS-2005>
-454.899169921875

> <r_mmod_Solvation_Energy-OPLS-2005>
-238.943222045898

> <b_mmod_Minimization_Converged-OPLS-2005>
0

> <r_mmod_RMS_Derivative-OPLS-2005>
3.02158999443054

$$$$
51
                    3D
 Structure written by MMmdl.
168176  0  0  1  0            999 V2000
  -30.7073  -14.4420   20.6630 C   0  0  0  0  0  0
  -30.4285  -12.3180   19.4114 C   0  0  0  0  0  0
  -29.4950  -12.5332   18.2032 C   0  0  0  0  0  0
  -28.0163  -12.3830   18.6128 C   0  0  0  0  0  0
  -27.6659  -13.2016   19.8837 C   0  0  2  0  0  0
  -28.7033  -12.9424   20.9988 C   0  0  0  0  0  0
  -25.2556  -13.8079   20.5561 C   0  0  0  0  0  0
  -24.1832  -13.0385   20.9159 C   0  0  0  0  0  0
  -24.6405  -11.6862   20.8752 C   0  0  0  0  0  0
  -23.9069  -10.4257   21.0420 C   0  0  0  0  0  0
  -24.3615   -9.4175   21.9203 C   0  0  0  0  0  0
  -23.6281   -8.2219   22.0762 C   0  0  0  0  0  0
  -22.4268   -8.0267   21.3548 C   0  0  0  0  0  0
  -21.9905   -9.0247   20.4653 C   0  0  0  0  0  0
  -22.7242  -10.2119   20.3062 C   0  0  0  0  0  0
  -21.6844   -6.0725   22.5281 C   0  0  0  0  0  0
  -21.4008   -6.5631   23.8213 C   0  0  0  0  0  0
  -21.3658   -5.6789   24.9177 C   0  0  0  0  0  0
  -21.6044   -4.3050   24.7232 C   0  0  0  0  0  0
  -21.8820   -3.8139   23.4354 C   0  0  0  0  0  0
  -21.9190   -4.6953   22.3407 C   0  0  0  0  0  0
  -22.7862  -13.5204   21.1834 C   0  0  0  0  0  0
  -22.1660   -4.2138   21.0984 F   0  0  0  0  0  0
  -21.5629   -3.4535   25.7744 F   0  0  0  0  0  0
  -30.0392  -13.2710   20.4646 N   0  0  0  0  0  0
  -26.3039  -12.9276   20.3373 N   0  0  0  0  0  0
  -25.9340  -11.6444   20.5807 N   0  0  0  0  0  0
  -22.0506  -12.8211   22.0401 N   0  0  0  0  0  0
  -25.4193  -15.1740   20.3737 N   0  0  0  0  0  0
  -31.7827  -14.6932   20.1084 O   0  0  0  0  0  0
  -21.6630   -6.8872   21.4244 O   0  0  0  0  0  0
  -22.3556  -14.5527   20.6700 O   0  0  0  0  0  0
  -24.6123  -31.8674   23.2094 C   0  0  0  0  0  0
  -25.9023  -32.4818   23.8381 C   0  0  1  0  0  0
  -27.2322  -27.4382   20.1054 C   0  0  0  0  0  0
  -25.5887  -33.8613   24.2309 N   0  0  0  0  0  0
  -23.4003  -30.4921   21.5485 C   0  0  2  0  0  0
  -24.8480  -28.9580   20.1130 C   0  0  0  0  0  0
  -22.7407  -29.4663   22.4980 C   0  0  0  0  0  0
  -18.0266  -28.1359   22.8487 C   0  0  0  0  0  0
  -24.1493  -36.7308   23.2645 C   0  0  0  0  0  0
  -25.9283  -30.8353   21.3624 C   0  0  0  0  0  0
  -26.0070  -29.4717   20.7082 C   0  0  0  0  0  0
  -27.2044  -28.7218   20.6941 C   0  0  0  0  0  0
  -26.0579  -26.9370   19.5016 C   0  0  0  0  0  0
  -24.8692  -27.6909   19.5050 C   0  0  0  0  0  0
  -23.6088  -29.8237   20.1630 C   0  0  0  0  0  0
  -25.4115  -36.3101   24.0337 C   0  0  1  0  0  0
  -20.5865  -28.3655   23.1305 C   0  0  2  0  0  0
  -20.6765  -26.9388   22.5415 C   0  0  0  0  0  0
  -19.5752  -26.6374   21.5209 C   0  0  0  0  0  0
  -18.1922  -26.7913   22.1614 C   0  0  0  0  0  0
  -19.1518  -28.8819   23.2893 C   0  0  0  0  0  0
  -18.9462  -30.1433   23.8899 C   0  0  0  0  0  0
  -17.6470  -30.6574   24.0566 C   0  0  0  0  0  0
  -25.9031  -34.9470   23.5119 C   0  0  0  0  0  0
  -16.5355  -29.9088   23.6327 C   0  0  0  0  0  0
  -16.7258  -28.6502   23.0344 C   0  0  0  0  0  0
  -26.4454  -31.6604   25.0715 C   0  0  0  0  0  0
  -25.3713  -31.3736   26.1467 C   0  0  0  0  0  0
  -27.0295  -30.3044   24.6090 C   0  0  0  0  0  0
  -27.6029  -32.4326   25.7476 C   0  0  0  0  0  0
  -27.5586  -37.1812   24.8464 C   0  0  0  0  0  0
  -21.4136  -29.3027   22.3719 N   0  0  0  0  0  0
  -26.4300  -37.3793   23.9403 N   0  0  0  0  0  0
  -24.6653  -31.0802   22.0991 N   0  0  0  0  0  0
  -23.4193  -28.8200   23.3002 O   0  0  0  0  0  0
  -28.4005  -26.7103   20.0972 O   0  0  0  0  0  0
  -26.5602  -34.8931   22.4689 O   0  0  0  0  0  0
  -23.5326  -32.1422   23.7498 O   0  0  0  0  0  0
  -31.8687  -18.5814   22.1288 C   0  0  0  0  0  0
  -31.6348  -17.2398   21.7529 C   0  0  0  0  0  0
  -29.5118  -18.8562   22.6080 C   0  0  0  0  0  0
  -30.8064  -19.3988   22.5659 C   0  0  0  0  0  0
  -29.2584  -17.5179   22.2296 C   0  0  0  0  0  0
  -30.3291  -16.6867   21.7898 C   0  0  0  0  0  0
  -29.5417  -24.5571   20.1719 C   0  0  0  0  0  0
  -30.1818  -22.9363   22.0428 C   0  0  0  0  0  0
  -26.8224  -17.8891   21.5655 C   0  0  0  0  0  0
  -31.9804  -23.9483   20.5094 C   0  0  0  0  0  0
  -30.8213  -25.3829   22.2015 C   0  0  0  0  0  0
  -27.8188  -17.0238   22.3535 C   0  0  0  0  0  0
  -31.0467  -20.8171   23.0761 C   0  0  0  0  0  0
  -28.3012  -25.3645   20.5964 C   0  0  0  0  0  0
  -30.6249  -24.1906   21.2298 C   0  0  0  0  0  0
  -30.0640  -15.3153   21.4685 N   0  0  0  0  0  0
  -31.0003  -21.8652   22.0539 N   0  0  0  0  0  0
  -29.6699  -24.2260   18.9862 O   0  0  0  0  0  0
  -29.1568  -22.9717   22.7293 O   0  0  0  0  0  0
  -31.4709  -12.4341   19.1094 H   0  0  0  0  0  0
  -30.3402  -11.2957   19.7822 H   0  0  0  0  0  0
  -29.7355  -11.8265   17.4079 H   0  0  0  0  0  0
  -29.6602  -13.5283   17.7877 H   0  0  0  0  0  0
  -27.8239  -11.3243   18.7904 H   0  0  0  0  0  0
  -27.3660  -12.6752   17.7876 H   0  0  0  0  0  0
  -27.7199  -14.2569   19.6142 H   0  0  0  0  0  0
  -28.6813  -11.8925   21.2944 H   0  0  0  0  0  0
  -28.4440  -13.4915   21.9045 H   0  0  0  0  0  0
  -25.2763   -9.5642   22.4778 H   0  0  0  0  0  0
  -23.9984   -7.4603   22.7473 H   0  0  0  0  0  0
  -21.0838   -8.8776   19.8953 H   0  0  0  0  0  0
  -22.3721  -10.9664   19.6166 H   0  0  0  0  0  0
  -21.1999   -7.6137   23.9714 H   0  0  0  0  0  0
  -21.1478   -6.0519   25.9082 H   0  0  0  0  0  0
  -22.0602   -2.7598   23.2862 H   0  0  0  0  0  0
  -22.4106  -11.9859   22.4778 H   0  0  0  0  0  0
  -21.1136  -13.1262   22.2625 H   0  0  0  0  0  0
  -24.6421  -15.8198   20.4530 H   0  0  0  0  0  0
  -26.2634  -15.6094   20.0261 H   0  0  0  0  0  0
  -26.7095  -32.5526   23.1141 H   0  0  0  0  0  0
  -25.0027  -33.9775   25.0446 H   0  0  0  0  0  0
  -22.6885  -31.3083   21.4081 H   0  0  0  0  0  0
  -23.3757  -35.9644   23.3307 H   0  0  0  0  0  0
  -24.3589  -36.8915   22.2062 H   0  0  0  0  0  0
  -23.7252  -37.6519   23.6654 H   0  0  0  0  0  0
  -26.0433  -31.6050   20.5989 H   0  0  0  0  0  0
  -26.8150  -30.8826   21.9831 H   0  0  0  0  0  0
  -28.1018  -29.1185   21.1477 H   0  0  0  0  0  0
  -26.0535  -25.9721   19.0146 H   0  0  0  0  0  0
  -23.9791  -27.2944   19.0362 H   0  0  0  0  0  0
  -23.7142  -30.5975   19.4023 H   0  0  0  0  0  0
  -22.7335  -29.2420   19.8676 H   0  0  0  0  0  0
  -25.1289  -36.1977   25.0834 H   0  0  0  0  0  0
  -20.9941  -28.3214   24.1433 H   0  0  0  0  0  0
  -20.5656  -26.2260   23.3596 H   0  0  0  0  0  0
  -21.6633  -26.7420   22.1211 H   0  0  0  0  0  0
  -19.6922  -25.6295   21.1215 H   0  0  0  0  0  0
  -19.6701  -27.3204   20.6758 H   0  0  0  0  0  0
  -17.4199  -26.6658   21.4008 H   0  0  0  0  0  0
  -18.0311  -26.0035   22.8992 H   0  0  0  0  0  0
  -19.7946  -30.7233   24.2266 H   0  0  0  0  0  0
  -17.5043  -31.6259   24.5167 H   0  0  0  0  0  0
  -15.5365  -30.3006   23.7664 H   0  0  0  0  0  0
  -15.8648  -28.0846   22.7053 H   0  0  0  0  0  0
  -24.5865  -30.7097   25.7822 H   0  0  0  0  0  0
  -24.8924  -32.2906   26.4909 H   0  0  0  0  0  0
  -25.8052  -30.8913   27.0232 H   0  0  0  0  0  0
  -26.2846  -29.6808   24.1125 H   0  0  0  0  0  0
  -27.4063  -29.7282   25.4554 H   0  0  0  0  0  0
  -27.8676  -30.4365   23.9235 H   0  0  0  0  0  0
  -27.2639  -33.3635   26.2037 H   0  0  0  0  0  0
  -28.3846  -32.6875   25.0303 H   0  0  0  0  0  0
  -28.0670  -31.8450   26.5405 H   0  0  0  0  0  0
  -28.2604  -38.0113   24.7505 H   0  0  0  0  0  0
  -28.1077  -36.2642   24.6282 H   0  0  0  0  0  0
  -27.2290  -37.1437   25.8865 H   0  0  0  0  0  0
  -20.9291  -29.8775   21.6964 H   0  0  0  0  0  0
  -26.0187  -38.2872   24.1418 H   0  0  0  0  0  0
  -32.8770  -18.9698   22.1150 H   0  0  0  0  0  0
  -32.4841  -16.6375   21.4650 H   0  0  0  0  0  0
  -28.7039  -19.4775   22.9689 H   0  0  0  0  0  0
  -25.8060  -17.5176   21.6909 H   0  0  0  0  0  0
  -27.0529  -17.8817   20.5008 H   0  0  0  0  0  0
  -26.8177  -18.9260   21.8983 H   0  0  0  0  0  0
  -31.9395  -23.0967   19.8287 H   0  0  0  0  0  0
  -32.7877  -23.7685   21.2218 H   0  0  0  0  0  0
  -32.2701  -24.8190   19.9192 H   0  0  0  0  0  0
  -30.0022  -25.4856   22.9138 H   0  0  0  0  0  0
  -30.9000  -26.3305   21.6667 H   0  0  0  0  0  0
  -31.7296  -25.2700   22.7928 H   0  0  0  0  0  0
  -27.5481  -17.0389   23.4107 H   0  0  0  0  0  0
  -27.7084  -15.9877   22.0379 H   0  0  0  0  0  0
  -32.0322  -20.8524   23.5423 H   0  0  0  0  0  0
  -30.3439  -21.0225   23.8857 H   0  0  0  0  0  0
  -28.1885  -25.3734   21.6800 H   0  0  0  0  0  0
  -27.4275  -24.8519   20.1969 H   0  0  0  0  0  0
  -29.1790  -14.9641   21.7985 H   0  0  0  0  0  0
  -31.7961  -21.9074   21.4320 H   0  0  0  0  0  0
  1 25  1  0  0  0
  1 30  2  0  0  0
  1 86  1  0  0  0
  2  3  1  0  0  0
  2 25  1  0  0  0
  2 90  1  0  0  0
  2 91  1  0  0  0
  3  4  1  0  0  0
  3 92  1  0  0  0
  3 93  1  0  0  0
  4  5  1  0  0  0
  4 94  1  0  0  0
  4 95  1  0  0  0
  5  6  1  0  0  0
  5 26  1  0  0  0
  5 96  1  0  0  0
  6 25  1  0  0  0
  6 97  1  0  0  0
  6 98  1  0  0  0
  7  8  2  0  0  0
  7 26  1  0  0  0
  7 29  1  0  0  0
  8  9  1  0  0  0
  8 22  1  0  0  0
  9 10  1  0  0  0
  9 27  2  0  0  0
 10 11  2  0  0  0
 10 15  1  0  0  0
 11 12  1  0  0  0
 11 99  1  0  0  0
 12 13  2  0  0  0
 12100  1  0  0  0
 13 14  1  0  0  0
 13 31  1  0  0  0
 14 15  2  0  0  0
 14101  1  0  0  0
 15102  1  0  0  0
 16 17  2  0  0  0
 16 21  1  0  0  0
 16 31  1  0  0  0
 17 18  1  0  0  0
 17103  1  0  0  0
 18 19  2  0  0  0
 18104  1  0  0  0
 19 20  1  0  0  0
 19 24  1  0  0  0
 20 21  2  0  0  0
 20105  1  0  0  0
 21 23  1  0  0  0
 22 28  1  0  0  0
 22 32  2  0  0  0
 26 27  1  0  0  0
 28106  1  0  0  0
 28107  1  0  0  0
 29108  1  0  0  0
 29109  1  0  0  0
 33 34  1  0  0  0
 33 66  1  0  0  0
 33 70  2  0  0  0
 34 36  1  0  0  0
 34 59  1  0  0  0
 34110  1  0  0  0
 35 44  2  0  0  0
 35 45  1  0  0  0
 35 68  1  0  0  0
 36 56  1  0  0  0
 36111  1  0  0  0
 37 39  1  0  0  0
 37 47  1  0  0  0
 37 66  1  0  0  0
 37112  1  0  0  0
 38 43  2  0  0  0
 38 46  1  0  0  0
 38 47  1  0  0  0
 39 64  1  0  0  0
 39 67  2  0  0  0
 40 52  1  0  0  0
 40 53  2  0  0  0
 40 58  1  0  0  0
 41113  1  0  0  0
 41114  1  0  0  0
 41115  1  0  0  0
 41 48  1  0  0  0
 42 43  1  0  0  0
 42 66  1  0  0  0
 42116  1  0  0  0
 42117  1  0  0  0
 43 44  1  0  0  0
 44118  1  0  0  0
 45 46  2  0  0  0
 45119  1  0  0  0
 46120  1  0  0  0
 47121  1  0  0  0
 47122  1  0  0  0
 48 56  1  0  0  0
 48 65  1  0  0  0
 48123  1  0  0  0
 49 50  1  0  0  0
 49 53  1  0  0  0
 49 64  1  0  0  0
 49124  1  0  0  0
 50 51  1  0  0  0
 50125  1  0  0  0
 50126  1  0  0  0
 51 52  1  0  0  0
 51127  1  0  0  0
 51128  1  0  0  0
 52129  1  0  0  0
 52130  1  0  0  0
 53 54  1  0  0  0
 54 55  2  0  0  0
 54131  1  0  0  0
 55 57  1  0  0  0
 55132  1  0  0  0
 56 69  2  0  0  0
 57 58  2  0  0  0
 57133  1  0  0  0
 58134  1  0  0  0
 59 60  1  0  0  0
 59 61  1  0  0  0
 59 62  1  0  0  0
 60135  1  0  0  0
 60136  1  0  0  0
 60137  1  0  0  0
 61138  1  0  0  0
 61139  1  0  0  0
 61140  1  0  0  0
 62141  1  0  0  0
 62142  1  0  0  0
 62143  1  0  0  0
 63 65  1  0  0  0
 63144  1  0  0  0
 63145  1  0  0  0
 63146  1  0  0  0
 64147  1  0  0  0
 65148  1  0  0  0
 68 84  1  0  0  0
 71 72  2  0  0  0
 71 74  1  0  0  0
 71149  1  0  0  0
 72 76  1  0  0  0
 72150  1  0  0  0
 73 74  2  0  0  0
 73 75  1  0  0  0
 73151  1  0  0  0
 74 83  1  0  0  0
 75 76  2  0  0  0
 75 82  1  0  0  0
 76 86  1  0  0  0
 77 84  1  0  0  0
 77 85  1  0  0  0
 77 88  2  0  0  0
 78 85  1  0  0  0
 78 87  1  0  0  0
 78 89  2  0  0  0
 79 82  1  0  0  0
 79152  1  0  0  0
 79153  1  0  0  0
 79154  1  0  0  0
 80155  1  0  0  0
 80156  1  0  0  0
 80157  1  0  0  0
 80 85  1  0  0  0
 81 85  1  0  0  0
 81158  1  0  0  0
 81159  1  0  0  0
 81160  1  0  0  0
 82161  1  0  0  0
 82162  1  0  0  0
 83 87  1  0  0  0
 83163  1  0  0  0
 83164  1  0  0  0
 84165  1  0  0  0
 84166  1  0  0  0
 86167  1  0  0  0
 87168  1  0  0  0
M  ISO  4   1 100  68 101  84 101  86 100
M  END
> <chiral flag>
0

> <version>
0

> <s_m_source_file>
/data/baiqing/PycharmProjects/Reinvent-master-3.2/result/LINK_invent/BTK/process_docking_weight1_custom_product_contain_oxygen_bond_distance_aromatic_linkinvent_7_9_3/rearranged_h_0145.sdf

> <i_m_source_file_index>
52

> <r_mmod_Potential_Energy-OPLS-2005>
-72.5016174316406

> <r_mmod_Stretch_Energy-OPLS-2005>
42.3188781738281

> <r_mmod_Bend_Energy-OPLS-2005>
103.402336120605

> <r_mmod_Torsional_Energy-OPLS-2005>
266.454376220703

> <r_mmod_Improper_Torsional_Energy-OPLS-2005>
4.12390518188477

> <r_mmod_Van_der_Waal_Energy-OPLS-2005>
163.23991394043

> <r_mmod_Electrostatic_Energy-OPLS-2005>
-435.746429443359

> <r_mmod_Solvation_Energy-OPLS-2005>
-226.368698120117

> <b_mmod_Minimization_Converged-OPLS-2005>
0

> <r_mmod_RMS_Derivative-OPLS-2005>
2.21865797042847

$$$$
52
                    3D
 Structure written by MMmdl.
151159  0  0  1  0            999 V2000
  -30.6981  -14.4640   20.5725 C   0  0  0  0  0  0
  -30.4244  -12.2998   19.4237 C   0  0  0  0  0  0
  -29.4964  -12.5057   18.2082 C   0  0  0  0  0  0
  -28.0170  -12.3661   18.6193 C   0  0  0  0  0  0
  -27.6639  -13.2042   19.8770 C   0  0  2  0  0  0
  -28.7038  -12.9758   20.9977 C   0  0  0  0  0  0
  -25.2599  -13.8158   20.5677 C   0  0  0  0  0  0
  -24.1845  -13.0439   20.9173 C   0  0  0  0  0  0
  -24.6391  -11.6903   20.8730 C   0  0  0  0  0  0
  -23.9054  -10.4294   21.0405 C   0  0  0  0  0  0
  -24.3610   -9.4208   21.9181 C   0  0  0  0  0  0
  -23.6289   -8.2242   22.0750 C   0  0  0  0  0  0
  -22.4270   -8.0281   21.3546 C   0  0  0  0  0  0
  -21.9901   -9.0255   20.4650 C   0  0  0  0  0  0
  -22.7226  -10.2136   20.3057 C   0  0  0  0  0  0
  -21.6852   -6.0736   22.5281 C   0  0  0  0  0  0
  -21.4014   -6.5639   23.8214 C   0  0  0  0  0  0
  -21.3659   -5.6792   24.9177 C   0  0  0  0  0  0
  -21.6043   -4.3055   24.7226 C   0  0  0  0  0  0
  -21.8820   -3.8147   23.4347 C   0  0  0  0  0  0
  -21.9192   -4.6965   22.3404 C   0  0  0  0  0  0
  -22.7869  -13.5243   21.1840 C   0  0  0  0  0  0
  -22.1661   -4.2150   21.0982 F   0  0  0  0  0  0
  -21.5629   -3.4539   25.7737 F   0  0  0  0  0  0
  -30.0381  -13.2799   20.4509 N   0  0  0  0  0  0
  -26.3034  -12.9323   20.3369 N   0  0  0  0  0  0
  -25.9317  -11.6484   20.5758 N   0  0  0  0  0  0
  -22.0507  -12.8247   22.0405 N   0  0  0  0  0  0
  -25.4339  -15.1875   20.4092 N   0  0  0  0  0  0
  -31.8227  -14.6472   20.0963 O   0  0  0  0  0  0
  -21.6635   -6.8877   21.4240 O   0  0  0  0  0  0
  -22.3557  -14.5551   20.6688 O   0  0  0  0  0  0
  -24.6136  -31.8683   23.2106 C   0  0  0  0  0  0
  -25.9027  -32.4828   23.8406 C   0  0  1  0  0  0
  -27.2330  -27.4416   20.1022 C   0  0  0  0  0  0
  -25.5882  -33.8626   24.2332 N   0  0  0  0  0  0
  -23.4026  -30.4916   21.5502 C   0  0  2  0  0  0
  -24.8511  -28.9595   20.1133 C   0  0  0  0  0  0
  -22.7410  -29.4654   22.4984 C   0  0  0  0  0  0
  -18.0272  -28.1381   22.8491 C   0  0  0  0  0  0
  -24.1485  -36.7324   23.2640 C   0  0  0  0  0  0
  -25.9311  -30.8370   21.3636 C   0  0  0  0  0  0
  -26.0107  -29.4726   20.7096 C   0  0  0  0  0  0
  -27.2089  -28.7219   20.6986 C   0  0  0  0  0  0
  -26.0620  -26.9440   19.4930 C   0  0  0  0  0  0
  -24.8712  -27.6942   19.5006 C   0  0  0  0  0  0
  -23.6118  -29.8245   20.1644 C   0  0  0  0  0  0
  -25.4105  -36.3118   24.0340 C   0  0  1  0  0  0
  -20.5862  -28.3663   23.1322 C   0  0  2  0  0  0
  -20.6758  -26.9398   22.5426 C   0  0  0  0  0  0
  -19.5740  -26.6387   21.5217 C   0  0  0  0  0  0
  -18.1919  -26.7926   22.1625 C   0  0  0  0  0  0
  -19.1522  -28.8838   23.2905 C   0  0  0  0  0  0
  -18.9448  -30.1443   23.8917 C   0  0  0  0  0  0
  -17.6451  -30.6584   24.0570 C   0  0  0  0  0  0
  -25.9027  -34.9479   23.5135 C   0  0  0  0  0  0
  -16.5342  -29.9090   23.6325 C   0  0  0  0  0  0
  -16.7262  -28.6508   23.0342 C   0  0  0  0  0  0
  -26.4453  -31.6610   25.0735 C   0  0  0  0  0  0
  -25.3723  -31.3741   26.1497 C   0  0  0  0  0  0
  -27.0268  -30.3043   24.6118 C   0  0  0  0  0  0
  -27.6047  -32.4322   25.7477 C   0  0  0  0  0  0
  -27.5585  -37.1813   24.8462 C   0  0  0  0  0  0
  -21.4138  -29.3031   22.3727 N   0  0  0  0  0  0
  -26.4296  -37.3797   23.9406 N   0  0  0  0  0  0
  -24.6672  -31.0795   22.0999 N   0  0  0  0  0  0
  -23.4184  -28.8194   23.3023 O   0  0  0  0  0  0
  -28.3744  -26.6725   20.1158 O   0  0  0  0  0  0
  -26.5595  -34.8924   22.4700 O   0  0  0  0  0  0
  -23.5327  -32.1427   23.7500 O   0  0  0  0  0  0
  -30.9656  -18.9515   20.4862 C   0  0  0  0  0  0
  -31.1800  -17.5393   20.4741 C   0  0  0  0  0  0
  -29.7702  -19.3336   21.0486 C   0  0  0  0  0  0
  -30.1509  -16.8066   21.0221 C   0  0  0  0  0  0
  -29.6433  -21.7654   20.7440 C   0  0  0  0  0  0
  -28.8592  -23.0048   21.2144 C   0  0  0  0  0  0
  -29.0451  -24.2865   20.3557 C   0  0  0  0  0  0
  -28.2598  -25.4888   20.9232 C   0  0  0  0  0  0
  -29.2386  -20.5768   21.2393 N   0  0  0  0  0  0
  -29.9885  -15.4555   21.1499 N   0  0  0  0  0  0
  -30.5832  -21.8945   19.9558 O   0  0  0  0  0  0
  -28.9086  -17.9051   21.5892 S   0  0  0  0  0  0
  -31.4692  -12.3970   19.1231 H   0  0  0  0  0  0
  -30.3224  -11.2868   19.8161 H   0  0  0  0  0  0
  -29.7362  -11.7856   17.4247 H   0  0  0  0  0  0
  -29.6664  -13.4936   17.7772 H   0  0  0  0  0  0
  -27.8273  -11.3100   18.8145 H   0  0  0  0  0  0
  -27.3669  -12.6414   17.7878 H   0  0  0  0  0  0
  -27.7115  -14.2531   19.5831 H   0  0  0  0  0  0
  -28.6766  -11.9374   21.3311 H   0  0  0  0  0  0
  -28.4632  -13.5671   21.8820 H   0  0  0  0  0  0
  -25.2758   -9.5684   22.4747 H   0  0  0  0  0  0
  -24.0004   -7.4633   22.7464 H   0  0  0  0  0  0
  -21.0832   -8.8775   19.8960 H   0  0  0  0  0  0
  -22.3684  -10.9674   19.6167 H   0  0  0  0  0  0
  -21.2005   -7.6146   23.9717 H   0  0  0  0  0  0
  -21.1481   -6.0521   25.9079 H   0  0  0  0  0  0
  -22.0598   -2.7609   23.2847 H   0  0  0  0  0  0
  -22.4117  -11.9908   22.4800 H   0  0  0  0  0  0
  -21.1129  -13.1287   22.2611 H   0  0  0  0  0  0
  -24.6688  -15.8448   20.5154 H   0  0  0  0  0  0
  -26.2894  -15.6249   20.0904 H   0  0  0  0  0  0
  -26.7102  -32.5543   23.1179 H   0  0  0  0  0  0
  -25.0017  -33.9790   25.0466 H   0  0  0  0  0  0
  -22.6912  -31.3083   21.4113 H   0  0  0  0  0  0
  -23.3735  -35.9672   23.3325 H   0  0  0  0  0  0
  -24.3579  -36.8912   22.2049 H   0  0  0  0  0  0
  -23.7252  -37.6545   23.6634 H   0  0  0  0  0  0
  -26.0447  -31.6046   20.5967 H   0  0  0  0  0  0
  -26.8181  -30.8889   21.9836 H   0  0  0  0  0  0
  -28.1044  -29.1109   21.1627 H   0  0  0  0  0  0
  -26.0711  -25.9714   19.0210 H   0  0  0  0  0  0
  -23.9805  -27.2941   19.0360 H   0  0  0  0  0  0
  -23.7191  -30.5999   19.4050 H   0  0  0  0  0  0
  -22.7366  -29.2433   19.8690 H   0  0  0  0  0  0
  -25.1281  -36.1991   25.0835 H   0  0  0  0  0  0
  -20.9959  -28.3228   24.1441 H   0  0  0  0  0  0
  -20.5650  -26.2270   23.3613 H   0  0  0  0  0  0
  -21.6629  -26.7433   22.1229 H   0  0  0  0  0  0
  -19.6899  -25.6300   21.1239 H   0  0  0  0  0  0
  -19.6685  -27.3205   20.6753 H   0  0  0  0  0  0
  -17.4190  -26.6679   21.4024 H   0  0  0  0  0  0
  -18.0316  -26.0068   22.9021 H   0  0  0  0  0  0
  -19.7924  -30.7253   24.2297 H   0  0  0  0  0  0
  -17.5008  -31.6265   24.5172 H   0  0  0  0  0  0
  -15.5343  -30.2998   23.7638 H   0  0  0  0  0  0
  -15.8663  -28.0839   22.7037 H   0  0  0  0  0  0
  -24.5869  -30.7110   25.7849 H   0  0  0  0  0  0
  -24.8941  -32.2908   26.4957 H   0  0  0  0  0  0
  -25.8073  -30.8902   27.0250 H   0  0  0  0  0  0
  -26.2812  -29.6827   24.1144 H   0  0  0  0  0  0
  -27.3991  -29.7262   25.4587 H   0  0  0  0  0  0
  -27.8673  -30.4351   23.9298 H   0  0  0  0  0  0
  -27.2682  -33.3605   26.2106 H   0  0  0  0  0  0
  -28.3816  -32.6911   25.0271 H   0  0  0  0  0  0
  -28.0763  -31.8417   26.5341 H   0  0  0  0  0  0
  -28.2621  -38.0092   24.7487 H   0  0  0  0  0  0
  -28.1058  -36.2623   24.6303 H   0  0  0  0  0  0
  -27.2308  -37.1495   25.8868 H   0  0  0  0  0  0
  -20.9291  -29.8764   21.6965 H   0  0  0  0  0  0
  -26.0191  -38.2881   24.1393 H   0  0  0  0  0  0
  -31.7060  -19.6262   20.0810 H   0  0  0  0  0  0
  -32.0853  -17.1277   20.0513 H   0  0  0  0  0  0
  -29.1606  -23.2127   22.2417 H   0  0  0  0  0  0
  -27.7993  -22.7503   21.2513 H   0  0  0  0  0  0
  -28.7151  -24.0887   19.3353 H   0  0  0  0  0  0
  -30.1026  -24.5456   20.2946 H   0  0  0  0  0  0
  -28.6340  -25.7295   21.9190 H   0  0  0  0  0  0
  -27.2200  -25.1875   21.0644 H   0  0  0  0  0  0
  -28.4188  -20.6137   21.8308 H   0  0  0  0  0  0
  -29.1155  -15.1567   21.5583 H   0  0  0  0  0  0
  1 25  1  0  0  0
  1 30  2  0  0  0
  1 80  1  0  0  0
  2  3  1  0  0  0
  2 25  1  0  0  0
  2 83  1  0  0  0
  2 84  1  0  0  0
  3  4  1  0  0  0
  3 85  1  0  0  0
  3 86  1  0  0  0
  4  5  1  0  0  0
  4 87  1  0  0  0
  4 88  1  0  0  0
  5  6  1  0  0  0
  5 26  1  0  0  0
  5 89  1  0  0  0
  6 25  1  0  0  0
  6 90  1  0  0  0
  6 91  1  0  0  0
  7  8  2  0  0  0
  7 26  1  0  0  0
  7 29  1  0  0  0
  8  9  1  0  0  0
  8 22  1  0  0  0
  9 10  1  0  0  0
  9 27  2  0  0  0
 10 11  2  0  0  0
 10 15  1  0  0  0
 11 12  1  0  0  0
 11 92  1  0  0  0
 12 13  2  0  0  0
 12 93  1  0  0  0
 13 14  1  0  0  0
 13 31  1  0  0  0
 14 15  2  0  0  0
 14 94  1  0  0  0
 15 95  1  0  0  0
 16 17  2  0  0  0
 16 21  1  0  0  0
 16 31  1  0  0  0
 17 18  1  0  0  0
 17 96  1  0  0  0
 18 19  2  0  0  0
 18 97  1  0  0  0
 19 20  1  0  0  0
 19 24  1  0  0  0
 20 21  2  0  0  0
 20 98  1  0  0  0
 21 23  1  0  0  0
 22 28  1  0  0  0
 22 32  2  0  0  0
 26 27  1  0  0  0
 28 99  1  0  0  0
 28100  1  0  0  0
 29101  1  0  0  0
 29102  1  0  0  0
 33 34  1  0  0  0
 33 66  1  0  0  0
 33 70  2  0  0  0
 34 36  1  0  0  0
 34 59  1  0  0  0
 34103  1  0  0  0
 35 44  2  0  0  0
 35 45  1  0  0  0
 35 68  1  0  0  0
 36 56  1  0  0  0
 36104  1  0  0  0
 37 39  1  0  0  0
 37 47  1  0  0  0
 37 66  1  0  0  0
 37105  1  0  0  0
 38 43  2  0  0  0
 38 46  1  0  0  0
 38 47  1  0  0  0
 39 64  1  0  0  0
 39 67  2  0  0  0
 40 52  1  0  0  0
 40 53  2  0  0  0
 40 58  1  0  0  0
 41106  1  0  0  0
 41107  1  0  0  0
 41108  1  0  0  0
 41 48  1  0  0  0
 42 43  1  0  0  0
 42 66  1  0  0  0
 42109  1  0  0  0
 42110  1  0  0  0
 43 44  1  0  0  0
 44111  1  0  0  0
 45 46  2  0  0  0
 45112  1  0  0  0
 46113  1  0  0  0
 47114  1  0  0  0
 47115  1  0  0  0
 48 56  1  0  0  0
 48 65  1  0  0  0
 48116  1  0  0  0
 49 50  1  0  0  0
 49 53  1  0  0  0
 49 64  1  0  0  0
 49117  1  0  0  0
 50 51  1  0  0  0
 50118  1  0  0  0
 50119  1  0  0  0
 51 52  1  0  0  0
 51120  1  0  0  0
 51121  1  0  0  0
 52122  1  0  0  0
 52123  1  0  0  0
 53 54  1  0  0  0
 54 55  2  0  0  0
 54124  1  0  0  0
 55 57  1  0  0  0
 55125  1  0  0  0
 56 69  2  0  0  0
 57 58  2  0  0  0
 57126  1  0  0  0
 58127  1  0  0  0
 59 60  1  0  0  0
 59 61  1  0  0  0
 59 62  1  0  0  0
 60128  1  0  0  0
 60129  1  0  0  0
 60130  1  0  0  0
 61131  1  0  0  0
 61132  1  0  0  0
 61133  1  0  0  0
 62134  1  0  0  0
 62135  1  0  0  0
 62136  1  0  0  0
 63 65  1  0  0  0
 63137  1  0  0  0
 63138  1  0  0  0
 63139  1  0  0  0
 64140  1  0  0  0
 65141  1  0  0  0
 68 78  1  0  0  0
 71 72  1  0  0  0
 71 73  2  0  0  0
 71142  1  0  0  0
 72 74  2  0  0  0
 72143  1  0  0  0
 73 79  1  0  0  0
 73 82  1  0  0  0
 74 80  1  0  0  0
 74 82  1  0  0  0
 75 76  1  0  0  0
 75 79  1  0  0  0
 75 81  2  0  0  0
 76 77  1  0  0  0
 76144  1  0  0  0
 76145  1  0  0  0
 77 78  1  0  0  0
 77146  1  0  0  0
 77147  1  0  0  0
 78148  1  0  0  0
 78149  1  0  0  0
 79150  1  0  0  0
 80151  1  0  0  0
M  ISO  4   1 100  68 101  78 101  80 100
M  END
> <chiral flag>
0

> <version>
0

> <s_m_source_file>
/data/baiqing/PycharmProjects/Reinvent-master-3.2/result/LINK_invent/BTK/process_docking_weight1_custom_product_contain_oxygen_bond_distance_aromatic_linkinvent_7_9_3/rearranged_h_0145.sdf

> <i_m_source_file_index>
53

> <r_mmod_Potential_Energy-OPLS-2005>
-128.622650146484

> <r_mmod_Stretch_Energy-OPLS-2005>
34.6965484619141

> <r_mmod_Bend_Energy-OPLS-2005>
102.030227661133

> <r_mmod_Torsional_Energy-OPLS-2005>
236.178344726562

> <r_mmod_Improper_Torsional_Energy-OPLS-2005>
3.33467268943787

> <r_mmod_Van_der_Waal_Energy-OPLS-2005>
136.293426513672

> <r_mmod_Electrostatic_Energy-OPLS-2005>
-425.963653564453

> <r_mmod_Solvation_Energy-OPLS-2005>
-227.439437866211

> <b_mmod_Minimization_Converged-OPLS-2005>
0

> <r_mmod_RMS_Derivative-OPLS-2005>
0.517617881298065

$$$$
53
                    3D
 Structure written by MMmdl.
163172  0  0  1  0            999 V2000
  -30.6614  -14.5467   20.5360 C   0  0  0  0  0  0
  -30.4324  -12.3410   19.4373 C   0  0  0  0  0  0
  -29.5023  -12.5025   18.2155 C   0  0  0  0  0  0
  -28.0238  -12.3530   18.6271 C   0  0  0  0  0  0
  -27.6595  -13.2085   19.8698 C   0  0  2  0  0  0
  -28.7018  -13.0187   20.9956 C   0  0  0  0  0  0
  -25.2586  -13.8157   20.5681 C   0  0  0  0  0  0
  -24.1840  -13.0435   20.9183 C   0  0  0  0  0  0
  -24.6390  -11.6904   20.8728 C   0  0  0  0  0  0
  -23.9052  -10.4290   21.0395 C   0  0  0  0  0  0
  -24.3607   -9.4208   21.9173 C   0  0  0  0  0  0
  -23.6288   -8.2241   22.0747 C   0  0  0  0  0  0
  -22.4269   -8.0276   21.3541 C   0  0  0  0  0  0
  -21.9901   -9.0249   20.4644 C   0  0  0  0  0  0
  -22.7222  -10.2132   20.3048 C   0  0  0  0  0  0
  -21.6853   -6.0727   22.5274 C   0  0  0  0  0  0
  -21.4014   -6.5630   23.8208 C   0  0  0  0  0  0
  -21.3660   -5.6787   24.9172 C   0  0  0  0  0  0
  -21.6045   -4.3048   24.7221 C   0  0  0  0  0  0
  -21.8820   -3.8142   23.4344 C   0  0  0  0  0  0
  -21.9194   -4.6958   22.3399 C   0  0  0  0  0  0
  -22.7864  -13.5235   21.1847 C   0  0  0  0  0  0
  -22.1664   -4.2144   21.0978 F   0  0  0  0  0  0
  -21.5630   -3.4534   25.7735 F   0  0  0  0  0  0
  -30.0282  -13.3408   20.4420 N   0  0  0  0  0  0
  -26.3016  -12.9330   20.3335 N   0  0  0  0  0  0
  -25.9318  -11.6487   20.5747 N   0  0  0  0  0  0
  -22.0507  -12.8237   22.0411 N   0  0  0  0  0  0
  -25.4307  -15.1876   20.4093 N   0  0  0  0  0  0
  -31.8066  -14.7136   20.1084 O   0  0  0  0  0  0
  -21.6637   -6.8873   21.4237 O   0  0  0  0  0  0
  -22.3553  -14.5542   20.6691 O   0  0  0  0  0  0
  -24.6198  -31.8641   23.2069 C   0  0  0  0  0  0
  -25.9076  -32.4798   23.8371 C   0  0  1  0  0  0
  -27.2299  -27.3838   20.0981 C   0  0  0  0  0  0
  -25.5922  -33.8598   24.2305 N   0  0  0  0  0  0
  -23.4091  -30.4887   21.5487 C   0  0  2  0  0  0
  -24.8534  -28.9499   20.1126 C   0  0  0  0  0  0
  -22.7437  -29.4643   22.4971 C   0  0  0  0  0  0
  -18.0276  -28.1382   22.8490 C   0  0  0  0  0  0
  -24.1491  -36.7299   23.2636 C   0  0  0  0  0  0
  -25.9432  -30.8148   21.3667 C   0  0  0  0  0  0
  -26.0176  -29.4462   20.7112 C   0  0  0  0  0  0
  -27.2063  -28.6719   20.6980 C   0  0  0  0  0  0
  -26.0389  -26.9156   19.4937 C   0  0  0  0  0  0
  -24.8619  -27.6871   19.4997 C   0  0  0  0  0  0
  -23.6188  -29.8228   20.1630 C   0  0  0  0  0  0
  -25.4110  -36.3094   24.0335 C   0  0  1  0  0  0
  -20.5870  -28.3673   23.1310 C   0  0  2  0  0  0
  -20.6767  -26.9409   22.5416 C   0  0  0  0  0  0
  -19.5745  -26.6388   21.5216 C   0  0  0  0  0  0
  -18.1924  -26.7929   22.1626 C   0  0  0  0  0  0
  -19.1526  -28.8845   23.2895 C   0  0  0  0  0  0
  -18.9451  -30.1451   23.8903 C   0  0  0  0  0  0
  -17.6454  -30.6588   24.0560 C   0  0  0  0  0  0
  -25.9043  -34.9463   23.5115 C   0  0  0  0  0  0
  -16.5344  -29.9088   23.6329 C   0  0  0  0  0  0
  -16.7262  -28.6503   23.0349 C   0  0  0  0  0  0
  -26.4483  -31.6588   25.0715 C   0  0  0  0  0  0
  -25.3748  -31.3732   26.1473 C   0  0  0  0  0  0
  -27.0291  -30.3014   24.6120 C   0  0  0  0  0  0
  -27.6074  -32.4298   25.7462 C   0  0  0  0  0  0
  -27.5587  -37.1788   24.8458 C   0  0  0  0  0  0
  -21.4159  -29.3036   22.3713 N   0  0  0  0  0  0
  -26.4288  -37.3789   23.9422 N   0  0  0  0  0  0
  -24.6760  -31.0712   22.0984 N   0  0  0  0  0  0
  -23.4189  -28.8181   23.3027 O   0  0  0  0  0  0
  -28.3934  -26.6214   20.1308 O   0  0  0  0  0  0
  -26.5603  -34.8924   22.4676 O   0  0  0  0  0  0
  -23.5380  -32.1410   23.7445 O   0  0  0  0  0  0
  -31.1772  -19.0906   20.2509 C   0  0  0  0  0  0
  -28.8662  -19.2109   20.9412 C   0  0  0  0  0  0
  -31.1661  -17.6815   20.4081 C   0  0  0  0  0  0
  -28.8543  -17.7987   21.1013 C   0  0  0  0  0  0
  -30.0318  -19.8847   20.5083 C   0  0  0  0  0  0
  -29.9964  -17.0012   20.8291 C   0  0  0  0  0  0
  -29.4601  -21.9292   18.9994 C   0  0  0  0  0  0
  -29.5216  -22.3173   21.4185 C   0  0  0  0  0  0
  -29.9116  -23.3798   18.6918 C   0  0  0  0  0  0
  -29.9409  -23.8089   21.2326 C   0  0  0  0  0  0
  -30.1004  -21.4231   20.3016 C   0  0  1  0  0  0
  -29.7247  -24.4587   19.8199 C   0  0  1  0  0  0
  -30.8424  -25.5068   19.6021 C   0  0  0  0  0  0
  -28.3568  -25.2333   19.6905 C   0  0  0  0  0  0
  -29.8913  -15.5669   20.9987 N   0  0  0  0  0  0
  -31.4755  -12.4517   19.1349 H   0  0  0  0  0  0
  -30.3495  -11.3357   19.8532 H   0  0  0  0  0  0
  -29.7530  -11.7652   17.4515 H   0  0  0  0  0  0
  -29.6595  -13.4811   17.7589 H   0  0  0  0  0  0
  -27.8472  -11.2982   18.8420 H   0  0  0  0  0  0
  -27.3711  -12.6056   17.7907 H   0  0  0  0  0  0
  -27.6938  -14.2508   19.5522 H   0  0  0  0  0  0
  -28.6926  -11.9883   21.3536 H   0  0  0  0  0  0
  -28.4547  -13.6310   21.8642 H   0  0  0  0  0  0
  -25.2755   -9.5685   22.4742 H   0  0  0  0  0  0
  -23.9999   -7.4632   22.7464 H   0  0  0  0  0  0
  -21.0833   -8.8761   19.8956 H   0  0  0  0  0  0
  -22.3670  -10.9666   19.6155 H   0  0  0  0  0  0
  -21.2005   -7.6136   23.9705 H   0  0  0  0  0  0
  -21.1482   -6.0517   25.9073 H   0  0  0  0  0  0
  -22.0602   -2.7606   23.2842 H   0  0  0  0  0  0
  -22.4119  -11.9893   22.4796 H   0  0  0  0  0  0
  -21.1126  -13.1264   22.2614 H   0  0  0  0  0  0
  -24.6615  -15.8406   20.5111 H   0  0  0  0  0  0
  -26.2761  -15.6237   20.0644 H   0  0  0  0  0  0
  -26.7137  -32.5488   23.1120 H   0  0  0  0  0  0
  -25.0094  -33.9753   25.0464 H   0  0  0  0  0  0
  -22.7001  -31.3074   21.4098 H   0  0  0  0  0  0
  -23.3764  -35.9617   23.3267 H   0  0  0  0  0  0
  -24.3597  -36.8946   22.2057 H   0  0  0  0  0  0
  -23.7224  -37.6488   23.6664 H   0  0  0  0  0  0
  -26.0650  -31.5806   20.5993 H   0  0  0  0  0  0
  -26.8279  -30.8647   21.9896 H   0  0  0  0  0  0
  -28.1040  -29.0521   21.1651 H   0  0  0  0  0  0
  -25.9873  -25.9490   19.0153 H   0  0  0  0  0  0
  -23.9664  -27.2996   19.0337 H   0  0  0  0  0  0
  -23.7315  -30.5977   19.4039 H   0  0  0  0  0  0
  -22.7409  -29.2467   19.8657 H   0  0  0  0  0  0
  -25.1285  -36.1944   25.0827 H   0  0  0  0  0  0
  -20.9963  -28.3238   24.1430 H   0  0  0  0  0  0
  -20.5684  -26.2279   23.3602 H   0  0  0  0  0  0
  -21.6635  -26.7461   22.1198 H   0  0  0  0  0  0
  -19.6907  -25.6302   21.1237 H   0  0  0  0  0  0
  -19.6687  -27.3203   20.6748 H   0  0  0  0  0  0
  -17.4199  -26.6681   21.4022 H   0  0  0  0  0  0
  -18.0323  -26.0073   22.9026 H   0  0  0  0  0  0
  -19.7929  -30.7268   24.2279 H   0  0  0  0  0  0
  -17.5010  -31.6271   24.5160 H   0  0  0  0  0  0
  -15.5344  -30.2990   23.7654 H   0  0  0  0  0  0
  -15.8661  -28.0827   22.7061 H   0  0  0  0  0  0
  -24.5875  -30.7135   25.7808 H   0  0  0  0  0  0
  -24.9003  -32.2913   26.4949 H   0  0  0  0  0  0
  -25.8095  -30.8857   27.0209 H   0  0  0  0  0  0
  -26.2820  -29.6785   24.1188 H   0  0  0  0  0  0
  -27.4048  -29.7256   25.4587 H   0  0  0  0  0  0
  -27.8673  -30.4300   23.9270 H   0  0  0  0  0  0
  -27.2720  -33.3621   26.2018 H   0  0  0  0  0  0
  -28.3885  -32.6813   25.0276 H   0  0  0  0  0  0
  -28.0727  -31.8426   26.5389 H   0  0  0  0  0  0
  -28.2575  -38.0114   24.7553 H   0  0  0  0  0  0
  -28.1110  -36.2648   24.6211 H   0  0  0  0  0  0
  -27.2320  -37.1364   25.8864 H   0  0  0  0  0  0
  -20.9326  -29.8754   21.6930 H   0  0  0  0  0  0
  -26.0170  -38.2859   24.1453 H   0  0  0  0  0  0
  -32.0917  -19.5643   19.9211 H   0  0  0  0  0  0
  -27.9677  -19.7738   21.1514 H   0  0  0  0  0  0
  -32.0777  -17.1429   20.1961 H   0  0  0  0  0  0
  -27.9383  -17.3290   21.4321 H   0  0  0  0  0  0
  -29.7617  -21.2869   18.1709 H   0  0  0  0  0  0
  -28.3725  -21.8642   19.0541 H   0  0  0  0  0  0
  -28.4351  -22.2323   21.4503 H   0  0  0  0  0  0
  -29.8819  -21.9703   22.3874 H   0  0  0  0  0  0
  -29.4465  -23.7139   17.7641 H   0  0  0  0  0  0
  -30.9723  -23.3078   18.4462 H   0  0  0  0  0  0
  -31.0037  -23.8531   21.4744 H   0  0  0  0  0  0
  -29.4582  -24.4226   21.9946 H   0  0  0  0  0  0
  -31.1674  -21.6481   20.2476 H   0  0  0  0  0  0
  -31.8353  -25.0556   19.6063 H   0  0  0  0  0  0
  -30.8441  -26.2655   20.3855 H   0  0  0  0  0  0
  -30.7239  -26.0216   18.6476 H   0  0  0  0  0  0
  -27.5775  -24.6858   20.2230 H   0  0  0  0  0  0
  -28.0663  -25.2452   18.6396 H   0  0  0  0  0  0
  -29.0042  -15.2477   21.3555 H   0  0  0  0  0  0
  1 25  1  0  0  0
  1 30  2  0  0  0
  1 85  1  0  0  0
  2  3  1  0  0  0
  2 25  1  0  0  0
  2 86  1  0  0  0
  2 87  1  0  0  0
  3  4  1  0  0  0
  3 88  1  0  0  0
  3 89  1  0  0  0
  4  5  1  0  0  0
  4 90  1  0  0  0
  4 91  1  0  0  0
  5  6  1  0  0  0
  5 26  1  0  0  0
  5 92  1  0  0  0
  6 25  1  0  0  0
  6 93  1  0  0  0
  6 94  1  0  0  0
  7  8  2  0  0  0
  7 26  1  0  0  0
  7 29  1  0  0  0
  8  9  1  0  0  0
  8 22  1  0  0  0
  9 10  1  0  0  0
  9 27  2  0  0  0
 10 11  2  0  0  0
 10 15  1  0  0  0
 11 12  1  0  0  0
 11 95  1  0  0  0
 12 13  2  0  0  0
 12 96  1  0  0  0
 13 14  1  0  0  0
 13 31  1  0  0  0
 14 15  2  0  0  0
 14 97  1  0  0  0
 15 98  1  0  0  0
 16 17  2  0  0  0
 16 21  1  0  0  0
 16 31  1  0  0  0
 17 18  1  0  0  0
 17 99  1  0  0  0
 18 19  2  0  0  0
 18100  1  0  0  0
 19 20  1  0  0  0
 19 24  1  0  0  0
 20 21  2  0  0  0
 20101  1  0  0  0
 21 23  1  0  0  0
 22 28  1  0  0  0
 22 32  2  0  0  0
 26 27  1  0  0  0
 28102  1  0  0  0
 28103  1  0  0  0
 29104  1  0  0  0
 29105  1  0  0  0
 33 34  1  0  0  0
 33 66  1  0  0  0
 33 70  2  0  0  0
 34 36  1  0  0  0
 34 59  1  0  0  0
 34106  1  0  0  0
 35 44  2  0  0  0
 35 45  1  0  0  0
 35 68  1  0  0  0
 36 56  1  0  0  0
 36107  1  0  0  0
 37 39  1  0  0  0
 37 47  1  0  0  0
 37 66  1  0  0  0
 37108  1  0  0  0
 38 43  2  0  0  0
 38 46  1  0  0  0
 38 47  1  0  0  0
 39 64  1  0  0  0
 39 67  2  0  0  0
 40 52  1  0  0  0
 40 53  2  0  0  0
 40 58  1  0  0  0
 41109  1  0  0  0
 41110  1  0  0  0
 41111  1  0  0  0
 41 48  1  0  0  0
 42 43  1  0  0  0
 42 66  1  0  0  0
 42112  1  0  0  0
 42113  1  0  0  0
 43 44  1  0  0  0
 44114  1  0  0  0
 45 46  2  0  0  0
 45115  1  0  0  0
 46116  1  0  0  0
 47117  1  0  0  0
 47118  1  0  0  0
 48 56  1  0  0  0
 48 65  1  0  0  0
 48119  1  0  0  0
 49 50  1  0  0  0
 49 53  1  0  0  0
 49 64  1  0  0  0
 49120  1  0  0  0
 50 51  1  0  0  0
 50121  1  0  0  0
 50122  1  0  0  0
 51 52  1  0  0  0
 51123  1  0  0  0
 51124  1  0  0  0
 52125  1  0  0  0
 52126  1  0  0  0
 53 54  1  0  0  0
 54 55  2  0  0  0
 54127  1  0  0  0
 55 57  1  0  0  0
 55128  1  0  0  0
 56 69  2  0  0  0
 57 58  2  0  0  0
 57129  1  0  0  0
 58130  1  0  0  0
 59 60  1  0  0  0
 59 61  1  0  0  0
 59 62  1  0  0  0
 60131  1  0  0  0
 60132  1  0  0  0
 60133  1  0  0  0
 61134  1  0  0  0
 61135  1  0  0  0
 61136  1  0  0  0
 62137  1  0  0  0
 62138  1  0  0  0
 62139  1  0  0  0
 63 65  1  0  0  0
 63140  1  0  0  0
 63141  1  0  0  0
 63142  1  0  0  0
 64143  1  0  0  0
 65144  1  0  0  0
 68 84  1  0  0  0
 71 73  2  0  0  0
 71 75  1  0  0  0
 71145  1  0  0  0
 72 74  1  0  0  0
 72 75  2  0  0  0
 72146  1  0  0  0
 73 76  1  0  0  0
 73147  1  0  0  0
 74 76  2  0  0  0
 74148  1  0  0  0
 75 81  1  0  0  0
 76 85  1  0  0  0
 77 79  1  0  0  0
 77 81  1  0  0  0
 77149  1  0  0  0
 77150  1  0  0  0
 78 80  1  0  0  0
 78 81  1  0  0  0
 78151  1  0  0  0
 78152  1  0  0  0
 79 82  1  0  0  0
 79153  1  0  0  0
 79154  1  0  0  0
 80 82  1  0  0  0
 80155  1  0  0  0
 80156  1  0  0  0
 81157  1  0  0  0
 82 83  1  0  0  0
 82 84  1  0  0  0
 83158  1  0  0  0
 83159  1  0  0  0
 83160  1  0  0  0
 84161  1  0  0  0
 84162  1  0  0  0
 85163  1  0  0  0
M  ISO  4   1 100  68 101  84 101  85 100
M  END
> <chiral flag>
0

> <version>
0

> <s_m_source_file>
/data/baiqing/PycharmProjects/Reinvent-master-3.2/result/LINK_invent/BTK/process_docking_weight1_custom_product_contain_oxygen_bond_distance_aromatic_linkinvent_7_9_3/rearranged_h_0145.sdf

> <i_m_source_file_index>
54

> <r_mmod_Potential_Energy-OPLS-2005>
51.8412132263184

> <r_mmod_Stretch_Energy-OPLS-2005>
54.9733390808105

> <r_mmod_Bend_Energy-OPLS-2005>
131.037536621094

> <r_mmod_Torsional_Energy-OPLS-2005>
250.293045043945

> <r_mmod_Improper_Torsional_Energy-OPLS-2005>
3.81530904769897

> <r_mmod_Van_der_Waal_Energy-OPLS-2005>
159.207565307617

> <r_mmod_Electrostatic_Energy-OPLS-2005>
-376.835296630859

> <r_mmod_Solvation_Energy-OPLS-2005>
-193.861846923828

> <b_mmod_Minimization_Converged-OPLS-2005>
0

> <r_mmod_RMS_Derivative-OPLS-2005>
0.838282346725464

$$$$
54
                    3D
 Structure written by MMmdl.
166175  0  0  1  0            999 V2000
  -30.7497  -14.5283   20.5727 C   0  0  0  0  0  0
  -30.4139  -12.3447   19.4502 C   0  0  0  0  0  0
  -29.4964  -12.5068   18.2223 C   0  0  0  0  0  0
  -28.0213  -12.3579   18.6352 C   0  0  0  0  0  0
  -27.6572  -13.2243   19.8711 C   0  0  2  0  0  0
  -28.7025  -13.0805   21.0031 C   0  0  0  0  0  0
  -25.2563  -13.8199   20.5707 C   0  0  0  0  0  0
  -24.1833  -13.0451   20.9195 C   0  0  0  0  0  0
  -24.6413  -11.6925   20.8747 C   0  0  0  0  0  0
  -23.9084  -10.4301   21.0405 C   0  0  0  0  0  0
  -24.3628   -9.4213   21.9185 C   0  0  0  0  0  0
  -23.6300   -8.2249   22.0756 C   0  0  0  0  0  0
  -22.4282   -8.0288   21.3545 C   0  0  0  0  0  0
  -21.9922   -9.0263   20.4646 C   0  0  0  0  0  0
  -22.7253  -10.2142   20.3056 C   0  0  0  0  0  0
  -21.6855   -6.0743   22.5280 C   0  0  0  0  0  0
  -21.4014   -6.5644   23.8215 C   0  0  0  0  0  0
  -21.3658   -5.6794   24.9175 C   0  0  0  0  0  0
  -21.6043   -4.3058   24.7223 C   0  0  0  0  0  0
  -21.8819   -3.8153   23.4343 C   0  0  0  0  0  0
  -21.9194   -4.6971   22.3401 C   0  0  0  0  0  0
  -22.7850  -13.5235   21.1851 C   0  0  0  0  0  0
  -22.1662   -4.2158   21.0979 F   0  0  0  0  0  0
  -21.5628   -3.4542   25.7735 F   0  0  0  0  0  0
  -30.0300  -13.3724   20.4399 N   0  0  0  0  0  0
  -26.3018  -12.9402   20.3381 N   0  0  0  0  0  0
  -25.9352  -11.6545   20.5794 N   0  0  0  0  0  0
  -22.0491  -12.8221   22.0402 N   0  0  0  0  0  0
  -25.4267  -15.1919   20.4112 N   0  0  0  0  0  0
  -31.8707  -14.6322   20.0713 O   0  0  0  0  0  0
  -21.6642   -6.8887   21.4243 O   0  0  0  0  0  0
  -22.3533  -14.5543   20.6703 O   0  0  0  0  0  0
  -24.6262  -31.8669   23.2177 C   0  0  0  0  0  0
  -25.9136  -32.4810   23.8453 C   0  0  1  0  0  0
  -27.1882  -27.3260   20.0824 C   0  0  0  0  0  0
  -25.5974  -33.8615   24.2362 N   0  0  0  0  0  0
  -23.4156  -30.5039   21.5613 C   0  0  2  0  0  0
  -24.8554  -28.9930   20.1061 C   0  0  0  0  0  0
  -22.7469  -29.4670   22.4957 C   0  0  0  0  0  0
  -18.0287  -28.1383   22.8487 C   0  0  0  0  0  0
  -24.1495  -36.7300   23.2631 C   0  0  0  0  0  0
  -25.9653  -30.7886   21.4068 C   0  0  0  0  0  0
  -26.0272  -29.4248   20.7400 C   0  0  0  0  0  0
  -27.1898  -28.5919   20.7490 C   0  0  0  0  0  0
  -26.0246  -27.0427   19.3275 C   0  0  0  0  0  0
  -24.8545  -27.7982   19.3944 C   0  0  0  0  0  0
  -23.6273  -29.8695   20.1679 C   0  0  0  0  0  0
  -25.4116  -36.3100   24.0333 C   0  0  1  0  0  0
  -20.5888  -28.3690   23.1272 C   0  0  2  0  0  0
  -20.6782  -26.9417   22.5394 C   0  0  0  0  0  0
  -19.5751  -26.6385   21.5205 C   0  0  0  0  0  0
  -18.1932  -26.7927   22.1621 C   0  0  0  0  0  0
  -19.1540  -28.8853   23.2878 C   0  0  0  0  0  0
  -18.9463  -30.1454   23.8898 C   0  0  0  0  0  0
  -17.6463  -30.6586   24.0563 C   0  0  0  0  0  0
  -25.9055  -34.9464   23.5132 C   0  0  0  0  0  0
  -16.5353  -29.9083   23.6333 C   0  0  0  0  0  0
  -16.7273  -28.6499   23.0359 C   0  0  0  0  0  0
  -26.4519  -31.6600   25.0807 C   0  0  0  0  0  0
  -25.3752  -31.3730   26.1528 C   0  0  0  0  0  0
  -27.0363  -30.3013   24.6288 C   0  0  0  0  0  0
  -27.6085  -32.4329   25.7564 C   0  0  0  0  0  0
  -27.5585  -37.1807   24.8462 C   0  0  0  0  0  0
  -21.4188  -29.3059   22.3682 N   0  0  0  0  0  0
  -26.4296  -37.3791   23.9410 N   0  0  0  0  0  0
  -24.6872  -31.0687   22.1159 N   0  0  0  0  0  0
  -23.4205  -28.8164   23.2991 O   0  0  0  0  0  0
  -28.2420  -26.3856   20.1879 O   0  0  0  0  0  0
  -26.5591  -34.8908   22.4679 O   0  0  0  0  0  0
  -23.5430  -32.1484   23.7497 O   0  0  0  0  0  0
  -32.6543  -18.3720   21.8455 C   0  0  0  0  0  0
  -31.8341  -19.5145   21.8927 C   0  0  0  0  0  0
  -32.1045  -17.0993   21.6003 C   0  0  0  0  0  0
  -29.8978  -18.1015   21.4217 C   0  0  0  0  0  0
  -30.4441  -19.4022   21.6863 C   0  0  0  0  0  0
  -30.7157  -16.9286   21.3676 C   0  0  0  0  0  0
  -29.5723  -20.5985   21.8763 C   0  0  0  0  0  0
  -30.5329  -23.7851   20.0799 C   0  0  0  0  0  0
  -30.9411  -22.3683   20.6034 C   0  0  0  0  0  0
  -28.8623  -23.0247   21.5713 C   0  0  0  0  0  0
  -29.0075  -23.7739   20.2226 C   0  0  1  0  0  0
  -28.1668  -24.9772   18.2152 C   0  0  0  0  0  0
  -26.6591  -24.3644   20.2688 C   0  0  0  0  0  0
  -28.0280  -24.9606   19.7656 C   0  0  0  0  0  0
  -29.8029  -21.8793   21.4274 N   0  0  0  0  0  0
  -30.1443  -15.6085   21.1413 N   0  0  0  0  0  0
  -28.4605  -20.3943   22.5793 N   0  3  0  0  0  0
  -31.4603  -12.4139   19.1479 H   0  0  0  0  0  0
  -30.3013  -11.3495   19.8830 H   0  0  0  0  0  0
  -29.7476  -11.7662   17.4621 H   0  0  0  0  0  0
  -29.6565  -13.4843   17.7645 H   0  0  0  0  0  0
  -27.8473  -11.3043   18.8570 H   0  0  0  0  0  0
  -27.3676  -12.6028   17.7973 H   0  0  0  0  0  0
  -27.6797  -14.2616   19.5363 H   0  0  0  0  0  0
  -28.6893  -12.0688   21.4110 H   0  0  0  0  0  0
  -28.4596  -13.7404   21.8370 H   0  0  0  0  0  0
  -25.2773   -9.5687   22.4762 H   0  0  0  0  0  0
  -24.0010   -7.4640   22.7474 H   0  0  0  0  0  0
  -21.0855   -8.8781   19.8949 H   0  0  0  0  0  0
  -22.3713  -10.9681   19.6164 H   0  0  0  0  0  0
  -21.2004   -7.6151   23.9721 H   0  0  0  0  0  0
  -21.1480   -6.0523   25.9078 H   0  0  0  0  0  0
  -22.0599   -2.7615   23.2840 H   0  0  0  0  0  0
  -22.4105  -11.9877   22.4782 H   0  0  0  0  0  0
  -21.1109  -13.1245   22.2610 H   0  0  0  0  0  0
  -24.6582  -15.8459   20.5136 H   0  0  0  0  0  0
  -26.2763  -15.6297   20.0778 H   0  0  0  0  0  0
  -26.7197  -32.5473   23.1192 H   0  0  0  0  0  0
  -25.0162  -33.9785   25.0532 H   0  0  0  0  0  0
  -22.7085  -31.3264   21.4348 H   0  0  0  0  0  0
  -23.3762  -35.9627   23.3287 H   0  0  0  0  0  0
  -24.3593  -36.8921   22.2047 H   0  0  0  0  0  0
  -23.7237  -37.6498   23.6648 H   0  0  0  0  0  0
  -26.1149  -31.5565   20.6466 H   0  0  0  0  0  0
  -26.8406  -30.8191   22.0433 H   0  0  0  0  0  0
  -28.0685  -28.8991   21.2987 H   0  0  0  0  0  0
  -25.9456  -26.2202   18.6443 H   0  0  0  0  0  0
  -23.9795  -27.4877   18.8402 H   0  0  0  0  0  0
  -23.7479  -30.6604   19.4268 H   0  0  0  0  0  0
  -22.7459  -29.3061   19.8560 H   0  0  0  0  0  0
  -25.1290  -36.1965   25.0825 H   0  0  0  0  0  0
  -20.9979  -28.3259   24.1392 H   0  0  0  0  0  0
  -20.5695  -26.2301   23.3592 H   0  0  0  0  0  0
  -21.6649  -26.7456   22.1178 H   0  0  0  0  0  0
  -19.6913  -25.6297   21.1235 H   0  0  0  0  0  0
  -19.6684  -27.3195   20.6735 H   0  0  0  0  0  0
  -17.4199  -26.6673   21.4026 H   0  0  0  0  0  0
  -18.0336  -26.0068   22.9017 H   0  0  0  0  0  0
  -19.7938  -30.7270   24.2266 H   0  0  0  0  0  0
  -17.5016  -31.6266   24.5166 H   0  0  0  0  0  0
  -15.5355  -30.2986   23.7659 H   0  0  0  0  0  0
  -15.8671  -28.0814   22.7085 H   0  0  0  0  0  0
  -24.5948  -30.7052   25.7861 H   0  0  0  0  0  0
  -24.8922  -32.2890   26.4940 H   0  0  0  0  0  0
  -25.8085  -30.8927   27.0310 H   0  0  0  0  0  0
  -26.2952  -29.6765   24.1290 H   0  0  0  0  0  0
  -27.4009  -29.7271   25.4816 H   0  0  0  0  0  0
  -27.8856  -30.4279   23.9571 H   0  0  0  0  0  0
  -27.2707  -33.3633   26.2138 H   0  0  0  0  0  0
  -28.3894  -32.6877   25.0388 H   0  0  0  0  0  0
  -28.0752  -31.8456   26.5483 H   0  0  0  0  0  0
  -28.2590  -38.0118   24.7535 H   0  0  0  0  0  0
  -28.1097  -36.2652   24.6260 H   0  0  0  0  0  0
  -27.2303  -37.1416   25.8864 H   0  0  0  0  0  0
  -20.9352  -29.8823   21.6936 H   0  0  0  0  0  0
  -26.0181  -38.2864   24.1424 H   0  0  0  0  0  0
  -33.7158  -18.4649   22.0273 H   0  0  0  0  0  0
  -32.2789  -20.4674   22.1386 H   0  0  0  0  0  0
  -32.7800  -16.2573   21.6162 H   0  0  0  0  0  0
  -28.8312  -18.0038   21.2734 H   0  0  0  0  0  0
  -30.8539  -23.9306   19.0487 H   0  0  0  0  0  0
  -30.9803  -24.5737   20.6860 H   0  0  0  0  0  0
  -31.8675  -22.4206   21.1760 H   0  0  0  0  0  0
  -31.1043  -21.6878   19.7654 H   0  0  0  0  0  0
  -27.8458  -22.6804   21.7537 H   0  0  0  0  0  0
  -29.1505  -23.6587   22.4116 H   0  0  0  0  0  0
  -28.7254  -22.9899   19.5143 H   0  0  0  0  0  0
  -27.7640  -24.0703   17.7631 H   0  0  0  0  0  0
  -29.2136  -25.0441   17.9223 H   0  0  0  0  0  0
  -27.7004  -25.8186   17.7114 H   0  0  0  0  0  0
  -26.6021  -23.2879   20.1062 H   0  0  0  0  0  0
  -25.7346  -24.6684   19.7994 H   0  0  0  0  0  0
  -26.5316  -24.5435   21.3370 H   0  0  0  0  0  0
  -29.1754  -15.4825   21.3903 H   0  0  0  0  0  0
  -28.3037  -19.4848   22.9855 H   0  0  0  0  0  0
  -27.8349  -21.1418   22.8219 H   0  0  0  0  0  0
  1 25  1  0  0  0
  1 30  2  0  0  0
  1 86  1  0  0  0
  2  3  1  0  0  0
  2 25  1  0  0  0
  2 88  1  0  0  0
  2 89  1  0  0  0
  3  4  1  0  0  0
  3 90  1  0  0  0
  3 91  1  0  0  0
  4  5  1  0  0  0
  4 92  1  0  0  0
  4 93  1  0  0  0
  5  6  1  0  0  0
  5 26  1  0  0  0
  5 94  1  0  0  0
  6 25  1  0  0  0
  6 95  1  0  0  0
  6 96  1  0  0  0
  7  8  2  0  0  0
  7 26  1  0  0  0
  7 29  1  0  0  0
  8  9  1  0  0  0
  8 22  1  0  0  0
  9 10  1  0  0  0
  9 27  2  0  0  0
 10 11  2  0  0  0
 10 15  1  0  0  0
 11 12  1  0  0  0
 11 97  1  0  0  0
 12 13  2  0  0  0
 12 98  1  0  0  0
 13 14  1  0  0  0
 13 31  1  0  0  0
 14 15  2  0  0  0
 14 99  1  0  0  0
 15100  1  0  0  0
 16 17  2  0  0  0
 16 21  1  0  0  0
 16 31  1  0  0  0
 17 18  1  0  0  0
 17101  1  0  0  0
 18 19  2  0  0  0
 18102  1  0  0  0
 19 20  1  0  0  0
 19 24  1  0  0  0
 20 21  2  0  0  0
 20103  1  0  0  0
 21 23  1  0  0  0
 22 28  1  0  0  0
 22 32  2  0  0  0
 26 27  1  0  0  0
 28104  1  0  0  0
 28105  1  0  0  0
 29106  1  0  0  0
 29107  1  0  0  0
 33 34  1  0  0  0
 33 66  1  0  0  0
 33 70  2  0  0  0
 34 36  1  0  0  0
 34 59  1  0  0  0
 34108  1  0  0  0
 35 44  2  0  0  0
 35 45  1  0  0  0
 35 68  1  0  0  0
 36 56  1  0  0  0
 36109  1  0  0  0
 37 39  1  0  0  0
 37 47  1  0  0  0
 37 66  1  0  0  0
 37110  1  0  0  0
 38 43  2  0  0  0
 38 46  1  0  0  0
 38 47  1  0  0  0
 39 64  1  0  0  0
 39 67  2  0  0  0
 40 52  1  0  0  0
 40 53  2  0  0  0
 40 58  1  0  0  0
 41111  1  0  0  0
 41112  1  0  0  0
 41113  1  0  0  0
 41 48  1  0  0  0
 42 43  1  0  0  0
 42 66  1  0  0  0
 42114  1  0  0  0
 42115  1  0  0  0
 43 44  1  0  0  0
 44116  1  0  0  0
 45 46  2  0  0  0
 45117  1  0  0  0
 46118  1  0  0  0
 47119  1  0  0  0
 47120  1  0  0  0
 48 56  1  0  0  0
 48 65  1  0  0  0
 48121  1  0  0  0
 49 50  1  0  0  0
 49 53  1  0  0  0
 49 64  1  0  0  0
 49122  1  0  0  0
 50 51  1  0  0  0
 50123  1  0  0  0
 50124  1  0  0  0
 51 52  1  0  0  0
 51125  1  0  0  0
 51126  1  0  0  0
 52127  1  0  0  0
 52128  1  0  0  0
 53 54  1  0  0  0
 54 55  2  0  0  0
 54129  1  0  0  0
 55 57  1  0  0  0
 55130  1  0  0  0
 56 69  2  0  0  0
 57 58  2  0  0  0
 57131  1  0  0  0
 58132  1  0  0  0
 59 60  1  0  0  0
 59 61  1  0  0  0
 59 62  1  0  0  0
 60133  1  0  0  0
 60134  1  0  0  0
 60135  1  0  0  0
 61136  1  0  0  0
 61137  1  0  0  0
 61138  1  0  0  0
 62139  1  0  0  0
 62140  1  0  0  0
 62141  1  0  0  0
 63 65  1  0  0  0
 63142  1  0  0  0
 63143  1  0  0  0
 63144  1  0  0  0
 64145  1  0  0  0
 65146  1  0  0  0
 68 84  1  0  0  0
 71 72  2  0  0  0
 71 73  1  0  0  0
 71147  1  0  0  0
 72 75  1  0  0  0
 72148  1  0  0  0
 73 76  2  0  0  0
 73149  1  0  0  0
 74 75  2  0  0  0
 74 76  1  0  0  0
 74150  1  0  0  0
 75 77  1  0  0  0
 76 86  1  0  0  0
 77 85  1  0  0  0
 77 87  2  0  0  0
 78 79  1  0  0  0
 78151  1  0  0  0
 78152  1  0  0  0
 78 81  1  0  0  0
 79 85  1  0  0  0
 79153  1  0  0  0
 79154  1  0  0  0
 80 81  1  0  0  0
 80 85  1  0  0  0
 80155  1  0  0  0
 80156  1  0  0  0
 81 84  1  0  0  0
 81157  1  0  0  0
 82158  1  0  0  0
 82159  1  0  0  0
 82160  1  0  0  0
 82 84  1  0  0  0
 83 84  1  0  0  0
 83161  1  0  0  0
 83162  1  0  0  0
 83163  1  0  0  0
 86164  1  0  0  0
 87165  1  0  0  0
 87166  1  0  0  0
M  CHG  1  87   1
M  ISO  4   1 100  68 101  84 101  86 100
M  END
> <chiral flag>
0

> <version>
0

> <s_m_source_file>
/data/baiqing/PycharmProjects/Reinvent-master-3.2/result/LINK_invent/BTK/process_docking_weight1_custom_product_contain_oxygen_bond_distance_aromatic_linkinvent_7_9_3/rearranged_h_0145.sdf

> <i_m_source_file_index>
55

> <r_mmod_Potential_Energy-OPLS-2005>
55.5207710266113

> <r_mmod_Stretch_Energy-OPLS-2005>
80.048469543457

> <r_mmod_Bend_Energy-OPLS-2005>
232.753616333008

> <r_mmod_Torsional_Energy-OPLS-2005>
277.439270019531

> <r_mmod_Improper_Torsional_Energy-OPLS-2005>
3.9473443031311

> <r_mmod_Van_der_Waal_Energy-OPLS-2005>
203.276336669922

> <r_mmod_Electrostatic_Energy-OPLS-2005>
-392.030670166016

> <r_mmod_Solvation_Energy-OPLS-2005>
-401.258178710938

> <b_mmod_Minimization_Converged-OPLS-2005>
0

> <r_mmod_RMS_Derivative-OPLS-2005>
0.440405279397964

$$$$
55
                    3D
 Structure written by MMmdl.
155164  0  0  1  0            999 V2000
  -30.6070  -14.6186   20.5383 C   0  0  0  0  0  0
  -30.4548  -12.3917   19.4372 C   0  0  0  0  0  0
  -29.5103  -12.5193   18.2194 C   0  0  0  0  0  0
  -28.0327  -12.3520   18.6326 C   0  0  0  0  0  0
  -27.6617  -13.2065   19.8725 C   0  0  2  0  0  0
  -28.7080  -13.0141   20.9946 C   0  0  0  0  0  0
  -25.2605  -13.8155   20.5660 C   0  0  0  0  0  0
  -24.1855  -13.0436   20.9180 C   0  0  0  0  0  0
  -24.6416  -11.6907   20.8756 C   0  0  0  0  0  0
  -23.9086  -10.4289   21.0428 C   0  0  0  0  0  0
  -24.3632   -9.4201   21.9205 C   0  0  0  0  0  0
  -23.6296   -8.2242   22.0769 C   0  0  0  0  0  0
  -22.4279   -8.0291   21.3553 C   0  0  0  0  0  0
  -21.9922   -9.0274   20.4660 C   0  0  0  0  0  0
  -22.7264  -10.2146   20.3073 C   0  0  0  0  0  0
  -21.6846   -6.0750   22.5286 C   0  0  0  0  0  0
  -21.4008   -6.5649   23.8222 C   0  0  0  0  0  0
  -21.3658   -5.6796   24.9180 C   0  0  0  0  0  0
  -21.6042   -4.3059   24.7221 C   0  0  0  0  0  0
  -21.8821   -3.8159   23.4341 C   0  0  0  0  0  0
  -21.9191   -4.6978   22.3401 C   0  0  0  0  0  0
  -22.7879  -13.5252   21.1835 C   0  0  0  0  0  0
  -22.1658   -4.2170   21.0977 F   0  0  0  0  0  0
  -21.5628   -3.4540   25.7731 F   0  0  0  0  0  0
  -30.0281  -13.3799   20.4444 N   0  0  0  0  0  0
  -26.3035  -12.9315   20.3351 N   0  0  0  0  0  0
  -25.9344  -11.6483   20.5788 N   0  0  0  0  0  0
  -22.0500  -12.8256   22.0387 N   0  0  0  0  0  0
  -25.4330  -15.1869   20.4009 N   0  0  0  0  0  0
  -31.7400  -14.8526   20.1047 O   0  0  0  0  0  0
  -21.6635   -6.8896   21.4249 O   0  0  0  0  0  0
  -22.3577  -14.5563   20.6687 O   0  0  0  0  0  0
  -24.6257  -31.8588   23.2015 C   0  0  0  0  0  0
  -25.9097  -32.4781   23.8344 C   0  0  1  0  0  0
  -27.2320  -27.3352   20.1161 C   0  0  0  0  0  0
  -25.5905  -33.8578   24.2282 N   0  0  0  0  0  0
  -23.4177  -30.4827   21.5441 C   0  0  2  0  0  0
  -24.8660  -28.9350   20.1114 C   0  0  0  0  0  0
  -22.7464  -29.4626   22.4939 C   0  0  0  0  0  0
  -18.0280  -28.1383   22.8485 C   0  0  0  0  0  0
  -24.1490  -36.7298   23.2636 C   0  0  0  0  0  0
  -25.9552  -30.7951   21.3665 C   0  0  0  0  0  0
  -26.0327  -29.4199   20.7179 C   0  0  0  0  0  0
  -27.2187  -28.6290   20.7163 C   0  0  0  0  0  0
  -26.0476  -26.9009   19.4800 C   0  0  0  0  0  0
  -24.8738  -27.6790   19.4845 C   0  0  0  0  0  0
  -23.6309  -29.8121   20.1607 C   0  0  0  0  0  0
  -25.4103  -36.3087   24.0349 C   0  0  1  0  0  0
  -20.5880  -28.3682   23.1281 C   0  0  2  0  0  0
  -20.6770  -26.9407   22.5396 C   0  0  0  0  0  0
  -19.5756  -26.6387   21.5196 C   0  0  0  0  0  0
  -18.1934  -26.7930   22.1612 C   0  0  0  0  0  0
  -19.1536  -28.8852   23.2884 C   0  0  0  0  0  0
  -18.9463  -30.1450   23.8911 C   0  0  0  0  0  0
  -17.6468  -30.6589   24.0568 C   0  0  0  0  0  0
  -25.9035  -34.9457   23.5117 C   0  0  0  0  0  0
  -16.5355  -29.9093   23.6324 C   0  0  0  0  0  0
  -16.7268  -28.6505   23.0349 C   0  0  0  0  0  0
  -26.4484  -31.6572   25.0697 C   0  0  0  0  0  0
  -25.3719  -31.3681   26.1422 C   0  0  0  0  0  0
  -27.0302  -30.3010   24.6080 C   0  0  0  0  0  0
  -27.6066  -32.4270   25.7460 C   0  0  0  0  0  0
  -27.5585  -37.1794   24.8472 C   0  0  0  0  0  0
  -21.4179  -29.3053   22.3692 N   0  0  0  0  0  0
  -26.4284  -37.3777   23.9424 N   0  0  0  0  0  0
  -24.6855  -31.0607   22.0960 N   0  0  0  0  0  0
  -23.4189  -28.8155   23.3004 O   0  0  0  0  0  0
  -28.3525  -26.4952   20.1285 O   0  0  0  0  0  0
  -26.5608  -34.8937   22.4685 O   0  0  0  0  0  0
  -23.5422  -32.1371   23.7355 O   0  0  0  0  0  0
  -30.4697  -18.0047   20.5296 C   0  0  0  0  0  0
  -29.9382  -19.3520   20.7860 C   0  0  0  0  0  0
  -29.6778  -16.9553   21.0054 C   0  0  0  0  0  0
  -28.7332  -19.2721   21.4236 C   0  0  0  0  0  0
  -29.0715  -24.1114   20.1747 C   0  0  0  0  0  0
  -28.1716  -25.1228   20.3936 C   0  0  0  0  0  0
  -30.6903  -20.6311   20.4936 C   0  0  0  0  0  0
  -30.4583  -24.3024   19.6309 C   0  0  0  0  0  0
  -28.8974  -22.5965   20.4846 C   0  0  0  0  0  0
  -31.2217  -23.0159   19.9896 C   0  0  0  0  0  0
  -30.2450  -21.9501   20.3338 N   0  0  0  0  0  0
  -29.7734  -15.5734   21.0418 N   0  0  0  0  0  0
  -32.0214  -20.4388   20.3941 N   0  3  0  0  0  0
  -27.9913  -20.3195   21.8474 F   0  0  0  0  0  0
  -28.2220  -17.6356   21.7208 S   0  0  0  0  0  0
  -31.4896  -12.5480   19.1281 H   0  0  0  0  0  0
  -30.4159  -11.3850   19.8555 H   0  0  0  0  0  0
  -29.7710  -11.7809   17.4600 H   0  0  0  0  0  0
  -29.6480  -13.4963   17.7528 H   0  0  0  0  0  0
  -27.8675  -11.2964   18.8520 H   0  0  0  0  0  0
  -27.3766  -12.5930   17.7952 H   0  0  0  0  0  0
  -27.6937  -14.2487   19.5544 H   0  0  0  0  0  0
  -28.7200  -11.9756   21.3288 H   0  0  0  0  0  0
  -28.4465  -13.5947   21.8803 H   0  0  0  0  0  0
  -25.2780   -9.5666   22.4778 H   0  0  0  0  0  0
  -24.0001   -7.4630   22.7488 H   0  0  0  0  0  0
  -21.0855   -8.8816   19.8959 H   0  0  0  0  0  0
  -22.3751  -10.9694   19.6179 H   0  0  0  0  0  0
  -21.2000   -7.6157   23.9737 H   0  0  0  0  0  0
  -21.1472   -6.0519   25.9085 H   0  0  0  0  0  0
  -22.0600   -2.7622   23.2836 H   0  0  0  0  0  0
  -22.4071  -11.9888   22.4751 H   0  0  0  0  0  0
  -21.1134  -13.1325   22.2601 H   0  0  0  0  0  0
  -24.6613  -15.8395   20.4878 H   0  0  0  0  0  0
  -26.2738  -15.6172   20.0381 H   0  0  0  0  0  0
  -26.7165  -32.5475   23.1096 H   0  0  0  0  0  0
  -25.0070  -33.9698   25.0444 H   0  0  0  0  0  0
  -22.7135  -31.3048   21.4007 H   0  0  0  0  0  0
  -23.3764  -35.9621   23.3291 H   0  0  0  0  0  0
  -24.3575  -36.8899   22.2045 H   0  0  0  0  0  0
  -23.7240  -37.6503   23.6647 H   0  0  0  0  0  0
  -26.0697  -31.5497   20.5865 H   0  0  0  0  0  0
  -26.8432  -30.8560   21.9839 H   0  0  0  0  0  0
  -28.1154  -28.9918   21.1994 H   0  0  0  0  0  0
  -26.0202  -25.9402   18.9863 H   0  0  0  0  0  0
  -23.9832  -27.3020   19.0000 H   0  0  0  0  0  0
  -23.7456  -30.5865   19.4025 H   0  0  0  0  0  0
  -22.7517  -29.2377   19.8612 H   0  0  0  0  0  0
  -25.1282  -36.1936   25.0844 H   0  0  0  0  0  0
  -20.9976  -28.3240   24.1399 H   0  0  0  0  0  0
  -20.5649  -26.2287   23.3584 H   0  0  0  0  0  0
  -21.6646  -26.7428   22.1210 H   0  0  0  0  0  0
  -19.6919  -25.6300   21.1218 H   0  0  0  0  0  0
  -19.6709  -27.3207   20.6739 H   0  0  0  0  0  0
  -17.4199  -26.6681   21.4016 H   0  0  0  0  0  0
  -18.0358  -26.0059   22.9004 H   0  0  0  0  0  0
  -19.7940  -30.7258   24.2300 H   0  0  0  0  0  0
  -17.5022  -31.6273   24.5161 H   0  0  0  0  0  0
  -15.5360  -30.3007   23.7644 H   0  0  0  0  0  0
  -15.8663  -28.0830   22.7067 H   0  0  0  0  0  0
  -24.5967  -30.6936   25.7765 H   0  0  0  0  0  0
  -24.8827  -32.2823   26.4790 H   0  0  0  0  0  0
  -25.8051  -30.8934   27.0233 H   0  0  0  0  0  0
  -26.2839  -29.6770   24.1145 H   0  0  0  0  0  0
  -27.4097  -29.7236   25.4516 H   0  0  0  0  0  0
  -27.8672  -30.4347   23.9222 H   0  0  0  0  0  0
  -27.2743  -33.3624   26.1978 H   0  0  0  0  0  0
  -28.3918  -32.6697   25.0288 H   0  0  0  0  0  0
  -28.0686  -31.8405   26.5410 H   0  0  0  0  0  0
  -28.2594  -38.0097   24.7525 H   0  0  0  0  0  0
  -28.1090  -36.2624   24.6298 H   0  0  0  0  0  0
  -27.2302  -37.1452   25.8874 H   0  0  0  0  0  0
  -20.9342  -29.8775   21.6918 H   0  0  0  0  0  0
  -26.0179  -38.2860   24.1414 H   0  0  0  0  0  0
  -31.4202  -17.8504   20.0400 H   0  0  0  0  0  0
  -27.2030  -24.9175   20.8296 H   0  0  0  0  0  0
  -30.9244  -25.1925   20.0540 H   0  0  0  0  0  0
  -30.4138  -24.4277   18.5483 H   0  0  0  0  0  0
  -28.1797  -22.1391   19.8031 H   0  0  0  0  0  0
  -28.5332  -22.4982   21.5049 H   0  0  0  0  0  0
  -31.8517  -23.1965   20.8615 H   0  0  0  0  0  0
  -31.8681  -22.7118   19.1656 H   0  0  0  0  0  0
  -28.9480  -15.1371   21.4235 H   0  0  0  0  0  0
  -32.4155  -19.5287   20.5762 H   0  0  0  0  0  0
  -32.6622  -21.1931   20.2038 H   0  0  0  0  0  0
  1 25  1  0  0  0
  1 30  2  0  0  0
  1 82  1  0  0  0
  2  3  1  0  0  0
  2 25  1  0  0  0
  2 86  1  0  0  0
  2 87  1  0  0  0
  3  4  1  0  0  0
  3 88  1  0  0  0
  3 89  1  0  0  0
  4  5  1  0  0  0
  4 90  1  0  0  0
  4 91  1  0  0  0
  5  6  1  0  0  0
  5 26  1  0  0  0
  5 92  1  0  0  0
  6 25  1  0  0  0
  6 93  1  0  0  0
  6 94  1  0  0  0
  7  8  2  0  0  0
  7 26  1  0  0  0
  7 29  1  0  0  0
  8  9  1  0  0  0
  8 22  1  0  0  0
  9 10  1  0  0  0
  9 27  2  0  0  0
 10 11  2  0  0  0
 10 15  1  0  0  0
 11 12  1  0  0  0
 11 95  1  0  0  0
 12 13  2  0  0  0
 12 96  1  0  0  0
 13 14  1  0  0  0
 13 31  1  0  0  0
 14 15  2  0  0  0
 14 97  1  0  0  0
 15 98  1  0  0  0
 16 17  2  0  0  0
 16 21  1  0  0  0
 16 31  1  0  0  0
 17 18  1  0  0  0
 17 99  1  0  0  0
 18 19  2  0  0  0
 18100  1  0  0  0
 19 20  1  0  0  0
 19 24  1  0  0  0
 20 21  2  0  0  0
 20101  1  0  0  0
 21 23  1  0  0  0
 22 28  1  0  0  0
 22 32  2  0  0  0
 26 27  1  0  0  0
 28102  1  0  0  0
 28103  1  0  0  0
 29104  1  0  0  0
 29105  1  0  0  0
 33 34  1  0  0  0
 33 66  1  0  0  0
 33 70  2  0  0  0
 34 36  1  0  0  0
 34 59  1  0  0  0
 34106  1  0  0  0
 35 44  2  0  0  0
 35 45  1  0  0  0
 35 68  1  0  0  0
 36 56  1  0  0  0
 36107  1  0  0  0
 37 39  1  0  0  0
 37 47  1  0  0  0
 37 66  1  0  0  0
 37108  1  0  0  0
 38 43  2  0  0  0
 38 46  1  0  0  0
 38 47  1  0  0  0
 39 64  1  0  0  0
 39 67  2  0  0  0
 40 52  1  0  0  0
 40 53  2  0  0  0
 40 58  1  0  0  0
 41109  1  0  0  0
 41110  1  0  0  0
 41111  1  0  0  0
 41 48  1  0  0  0
 42 43  1  0  0  0
 42 66  1  0  0  0
 42112  1  0  0  0
 42113  1  0  0  0
 43 44  1  0  0  0
 44114  1  0  0  0
 45 46  2  0  0  0
 45115  1  0  0  0
 46116  1  0  0  0
 47117  1  0  0  0
 47118  1  0  0  0
 48 56  1  0  0  0
 48 65  1  0  0  0
 48119  1  0  0  0
 49 50  1  0  0  0
 49 53  1  0  0  0
 49 64  1  0  0  0
 49120  1  0  0  0
 50 51  1  0  0  0
 50121  1  0  0  0
 50122  1  0  0  0
 51 52  1  0  0  0
 51123  1  0  0  0
 51124  1  0  0  0
 52125  1  0  0  0
 52126  1  0  0  0
 53 54  1  0  0  0
 54 55  2  0  0  0
 54127  1  0  0  0
 55 57  1  0  0  0
 55128  1  0  0  0
 56 69  2  0  0  0
 57 58  2  0  0  0
 57129  1  0  0  0
 58130  1  0  0  0
 59 60  1  0  0  0
 59 61  1  0  0  0
 59 62  1  0  0  0
 60131  1  0  0  0
 60132  1  0  0  0
 60133  1  0  0  0
 61134  1  0  0  0
 61135  1  0  0  0
 61136  1  0  0  0
 62137  1  0  0  0
 62138  1  0  0  0
 62139  1  0  0  0
 63 65  1  0  0  0
 63140  1  0  0  0
 63141  1  0  0  0
 63142  1  0  0  0
 64143  1  0  0  0
 65144  1  0  0  0
 68 76  1  0  0  0
 71 72  1  0  0  0
 71 73  2  0  0  0
 71145  1  0  0  0
 72 74  2  0  0  0
 72 77  1  0  0  0
 73 82  1  0  0  0
 73 85  1  0  0  0
 74 84  1  0  0  0
 74 85  1  0  0  0
 75 76  2  0  0  0
 75 78  1  0  0  0
 75 79  1  0  0  0
 76146  1  0  0  0
 77 81  1  0  0  0
 77 83  2  0  0  0
 78 80  1  0  0  0
 78147  1  0  0  0
 78148  1  0  0  0
 79 81  1  0  0  0
 79149  1  0  0  0
 79150  1  0  0  0
 80 81  1  0  0  0
 80151  1  0  0  0
 80152  1  0  0  0
 82153  1  0  0  0
 83154  1  0  0  0
 83155  1  0  0  0
M  CHG  1  83   1
M  ISO  4   1 100  68 101  76 101  82 100
M  END
> <chiral flag>
0

> <version>
0

> <s_m_source_file>
/data/baiqing/PycharmProjects/Reinvent-master-3.2/result/LINK_invent/BTK/process_docking_weight1_custom_product_contain_oxygen_bond_distance_aromatic_linkinvent_7_9_3/rearranged_h_0145.sdf

> <i_m_source_file_index>
56

> <r_mmod_Potential_Energy-OPLS-2005>
-24.3287506103516

> <r_mmod_Stretch_Energy-OPLS-2005>
72.4696502685547

> <r_mmod_Bend_Energy-OPLS-2005>
190.290283203125

> <r_mmod_Torsional_Energy-OPLS-2005>
228.864334106445

> <r_mmod_Improper_Torsional_Energy-OPLS-2005>
3.93998885154724

> <r_mmod_Van_der_Waal_Energy-OPLS-2005>
130.981323242188

> <r_mmod_Electrostatic_Energy-OPLS-2005>
-247.756896972656

> <r_mmod_Solvation_Energy-OPLS-2005>
-444.866241455078

> <b_mmod_Minimization_Converged-OPLS-2005>
0

> <r_mmod_RMS_Derivative-OPLS-2005>
1.75842142105103

$$$$
56
                    3D
 Structure written by MMmdl.
165174  0  0  1  0            999 V2000
  -30.6106  -14.7000   20.4894 C   0  0  0  0  0  0
  -30.4453  -12.4326   19.4611 C   0  0  0  0  0  0
  -29.5246  -12.5420   18.2256 C   0  0  0  0  0  0
  -28.0447  -12.3668   18.6307 C   0  0  0  0  0  0
  -27.6542  -13.2333   19.8573 C   0  0  2  0  0  0
  -28.6951  -13.1081   20.9925 C   0  0  0  0  0  0
  -25.2538  -13.8217   20.5627 C   0  0  0  0  0  0
  -24.1831  -13.0462   20.9144 C   0  0  0  0  0  0
  -24.6431  -11.6942   20.8709 C   0  0  0  0  0  0
  -23.9124  -10.4307   21.0396 C   0  0  0  0  0  0
  -24.3652   -9.4223   21.9179 C   0  0  0  0  0  0
  -23.6298   -8.2269   22.0785 C   0  0  0  0  0  0
  -22.4256   -8.0314   21.3591 C   0  0  0  0  0  0
  -21.9901   -9.0301   20.4688 C   0  0  0  0  0  0
  -22.7287  -10.2148   20.3058 C   0  0  0  0  0  0
  -21.6843   -6.0750   22.5282 C   0  0  0  0  0  0
  -21.4053   -6.5657   23.8233 C   0  0  0  0  0  0
  -21.3634   -5.6800   24.9184 C   0  0  0  0  0  0
  -21.6013   -4.3059   24.7229 C   0  0  0  0  0  0
  -21.8826   -3.8170   23.4355 C   0  0  0  0  0  0
  -21.9200   -4.6990   22.3409 C   0  0  0  0  0  0
  -22.7848  -13.5224   21.1809 C   0  0  0  0  0  0
  -22.1669   -4.2198   21.0986 F   0  0  0  0  0  0
  -21.5599   -3.4534   25.7735 F   0  0  0  0  0  0
  -30.0104  -13.4629   20.4326 N   0  0  0  0  0  0
  -26.2997  -12.9436   20.3233 N   0  0  0  0  0  0
  -25.9358  -11.6573   20.5673 N   0  0  0  0  0  0
  -22.0476  -12.8248   22.0377 N   0  0  0  0  0  0
  -25.4165  -15.1942   20.4067 N   0  0  0  0  0  0
  -31.7758  -14.8436   20.1026 O   0  0  0  0  0  0
  -21.6631   -6.8896   21.4245 O   0  0  0  0  0  0
  -22.3540  -14.5523   20.6636 O   0  0  0  0  0  0
  -24.6306  -31.8594   23.1996 C   0  0  0  0  0  0
  -25.9144  -32.4774   23.8325 C   0  0  1  0  0  0
  -27.2192  -27.2857   20.1044 C   0  0  0  0  0  0
  -25.5953  -33.8566   24.2267 N   0  0  0  0  0  0
  -23.4202  -30.4849   21.5443 C   0  0  2  0  0  0
  -24.8660  -28.9350   20.1092 C   0  0  0  0  0  0
  -22.7479  -29.4646   22.4935 C   0  0  0  0  0  0
  -18.0284  -28.1403   22.8473 C   0  0  0  0  0  0
  -24.1489  -36.7272   23.2633 C   0  0  0  0  0  0
  -25.9648  -30.7780   21.3751 C   0  0  0  0  0  0
  -26.0338  -29.4004   20.7211 C   0  0  0  0  0  0
  -27.2056  -28.5800   20.7240 C   0  0  0  0  0  0
  -26.0276  -26.8906   19.4650 C   0  0  0  0  0  0
  -24.8633  -27.6824   19.4772 C   0  0  0  0  0  0
  -23.6354  -29.8184   20.1587 C   0  0  0  0  0  0
  -25.4110  -36.3075   24.0327 C   0  0  1  0  0  0
  -20.5890  -28.3703   23.1299 C   0  0  2  0  0  0
  -20.6777  -26.9423   22.5421 C   0  0  0  0  0  0
  -19.5754  -26.6413   21.5214 C   0  0  0  0  0  0
  -18.1930  -26.7947   22.1621 C   0  0  0  0  0  0
  -19.1548  -28.8867   23.2880 C   0  0  0  0  0  0
  -18.9470  -30.1454   23.8922 C   0  0  0  0  0  0
  -17.6476  -30.6591   24.0581 C   0  0  0  0  0  0
  -25.9058  -34.9451   23.5101 C   0  0  0  0  0  0
  -16.5360  -29.9094   23.6333 C   0  0  0  0  0  0
  -16.7281  -28.6511   23.0351 C   0  0  0  0  0  0
  -26.4532  -31.6564   25.0684 C   0  0  0  0  0  0
  -25.3754  -31.3711   26.1401 C   0  0  0  0  0  0
  -27.0339  -30.2983   24.6118 C   0  0  0  0  0  0
  -27.6082  -32.4287   25.7469 C   0  0  0  0  0  0
  -27.5578  -37.1787   24.8460 C   0  0  0  0  0  0
  -21.4214  -29.3052   22.3683 N   0  0  0  0  0  0
  -26.4290  -37.3775   23.9427 N   0  0  0  0  0  0
  -24.6898  -31.0586   22.0963 N   0  0  0  0  0  0
  -23.4212  -28.8199   23.3030 O   0  0  0  0  0  0
  -28.3359  -26.4232   20.1933 O   0  0  0  0  0  0
  -26.5622  -34.8925   22.4672 O   0  0  0  0  0  0
  -23.5470  -32.1415   23.7323 O   0  0  0  0  0  0
  -31.0074  -19.3665   19.9641 C   0  0  0  0  0  0
  -28.7759  -19.4831   20.8015 C   0  0  0  0  0  0
  -31.0187  -17.9437   20.1435 C   0  0  0  0  0  0
  -28.7862  -18.0617   20.9825 C   0  0  0  0  0  0
  -29.8783  -20.1985   20.2582 C   0  0  0  0  0  0
  -29.8970  -17.2329   20.6469 C   0  0  0  0  0  0
  -29.8157  -22.5802   17.7251 C   0  0  0  0  0  0
  -28.3594  -22.9168   18.1245 C   0  0  0  0  0  0
  -30.6937  -22.1647   18.9172 C   0  0  0  0  0  0
  -28.9664  -22.7114   20.5496 C   0  0  0  0  0  0
  -28.2162  -23.6820   19.4797 C   0  0  2  0  0  0
  -26.7168  -23.6181   19.8204 C   0  0  0  0  0  0
  -28.5274  -25.8239   17.8531 C   0  0  0  0  0  0
  -28.6563  -25.2671   19.2980 C   0  0  1  0  0  0
  -29.8697  -21.6297   19.9990 N   0  0  0  0  0  0
  -29.8109  -15.7665   20.8476 N   0  0  0  0  0  0
  -31.4906  -12.5563   19.1712 H   0  0  0  0  0  0
  -30.3768  -11.4382   19.9023 H   0  0  0  0  0  0
  -29.8017  -11.8054   17.4674 H   0  0  0  0  0  0
  -29.6646  -13.5183   17.7598 H   0  0  0  0  0  0
  -27.8708  -11.3126   18.8494 H   0  0  0  0  0  0
  -27.3979  -12.6129   17.7893 H   0  0  0  0  0  0
  -27.6666  -14.2677   19.5108 H   0  0  0  0  0  0
  -28.7099  -12.0896   21.3856 H   0  0  0  0  0  0
  -28.4320  -13.7463   21.8378 H   0  0  0  0  0  0
  -25.2809   -9.5690   22.4740 H   0  0  0  0  0  0
  -24.0031   -7.4635   22.7451 H   0  0  0  0  0  0
  -21.0852   -8.8855   19.8952 H   0  0  0  0  0  0
  -22.3807  -10.9692   19.6143 H   0  0  0  0  0  0
  -21.2092   -7.6176   23.9782 H   0  0  0  0  0  0
  -21.1411   -6.0499   25.9084 H   0  0  0  0  0  0
  -22.0612   -2.7631   23.2840 H   0  0  0  0  0  0
  -22.4064  -11.9943   22.4835 H   0  0  0  0  0  0
  -21.1107  -13.1327   22.2528 H   0  0  0  0  0  0
  -24.6316  -15.8318   20.4915 H   0  0  0  0  0  0
  -26.2512  -15.6419   20.0478 H   0  0  0  0  0  0
  -26.7188  -32.5441   23.1035 H   0  0  0  0  0  0
  -25.0059  -33.9669   25.0390 H   0  0  0  0  0  0
  -22.7110  -31.3036   21.4022 H   0  0  0  0  0  0
  -23.3758  -35.9594   23.3273 H   0  0  0  0  0  0
  -24.3571  -36.8923   22.2048 H   0  0  0  0  0  0
  -23.7221  -37.6465   23.6658 H   0  0  0  0  0  0
  -26.0926  -31.5359   20.6009 H   0  0  0  0  0  0
  -26.8456  -30.8353   22.0014 H   0  0  0  0  0  0
  -28.0964  -28.9309   21.2256 H   0  0  0  0  0  0
  -25.9580  -25.9442   18.9671 H   0  0  0  0  0  0
  -23.9664  -27.3202   18.9979 H   0  0  0  0  0  0
  -23.7509  -30.5926   19.4003 H   0  0  0  0  0  0
  -22.7551  -29.2493   19.8563 H   0  0  0  0  0  0
  -25.1284  -36.1920   25.0815 H   0  0  0  0  0  0
  -20.9952  -28.3285   24.1438 H   0  0  0  0  0  0
  -20.5701  -26.2302   23.3612 H   0  0  0  0  0  0
  -21.6645  -26.7453   22.1217 H   0  0  0  0  0  0
  -19.6907  -25.6335   21.1218 H   0  0  0  0  0  0
  -19.6688  -27.3238   20.6752 H   0  0  0  0  0  0
  -17.4191  -26.6685   21.4024 H   0  0  0  0  0  0
  -18.0325  -26.0098   22.9032 H   0  0  0  0  0  0
  -19.7957  -30.7265   24.2299 H   0  0  0  0  0  0
  -17.5035  -31.6271   24.5191 H   0  0  0  0  0  0
  -15.5368  -30.3010   23.7652 H   0  0  0  0  0  0
  -15.8670  -28.0841   22.7067 H   0  0  0  0  0  0
  -24.5955  -30.7020   25.7753 H   0  0  0  0  0  0
  -24.8898  -32.2867   26.4787 H   0  0  0  0  0  0
  -25.8090  -30.8942   27.0195 H   0  0  0  0  0  0
  -26.2872  -29.6753   24.1179 H   0  0  0  0  0  0
  -27.4077  -29.7246   25.4610 H   0  0  0  0  0  0
  -27.8748  -30.4252   23.9288 H   0  0  0  0  0  0
  -27.2680  -33.3601   26.2019 H   0  0  0  0  0  0
  -28.3916  -32.6826   25.0304 H   0  0  0  0  0  0
  -28.0706  -31.8404   26.5411 H   0  0  0  0  0  0
  -28.2594  -38.0096   24.7535 H   0  0  0  0  0  0
  -28.1084  -36.2625   24.6245 H   0  0  0  0  0  0
  -27.2295  -37.1390   25.8867 H   0  0  0  0  0  0
  -20.9400  -29.8770   21.6877 H   0  0  0  0  0  0
  -26.0172  -38.2860   24.1439 H   0  0  0  0  0  0
  -31.9250  -19.8043   19.6024 H   0  0  0  0  0  0
  -27.8823  -20.0236   21.0747 H   0  0  0  0  0  0
  -31.9145  -17.4036   19.8751 H   0  0  0  0  0  0
  -27.8952  -17.6059   21.3937 H   0  0  0  0  0  0
  -30.2891  -23.4167   17.2120 H   0  0  0  0  0  0
  -29.7918  -21.7707   16.9935 H   0  0  0  0  0  0
  -27.8418  -21.9594   18.2230 H   0  0  0  0  0  0
  -27.8398  -23.4070   17.3031 H   0  0  0  0  0  0
  -31.2064  -23.0478   19.3033 H   0  0  0  0  0  0
  -31.4796  -21.4977   18.5743 H   0  0  0  0  0  0
  -28.2300  -22.2286   21.1922 H   0  0  0  0  0  0
  -29.5533  -23.3274   21.2319 H   0  0  0  0  0  0
  -26.3976  -22.6028   20.0545 H   0  0  0  0  0  0
  -26.1001  -23.9123   18.9740 H   0  0  0  0  0  0
  -26.4716  -24.2471   20.6759 H   0  0  0  0  0  0
  -29.1734  -25.3066   17.1475 H   0  0  0  0  0  0
  -28.8293  -26.8704   17.8093 H   0  0  0  0  0  0
  -27.5133  -25.7638   17.4645 H   0  0  0  0  0  0
  -29.7358  -25.2106   19.4410 H   0  0  0  0  0  0
  -28.9259  -15.4574   21.2201 H   0  0  0  0  0  0
  1 25  1  0  0  0
  1 30  2  0  0  0
  1 86  1  0  0  0
  2  3  1  0  0  0
  2 25  1  0  0  0
  2 87  1  0  0  0
  2 88  1  0  0  0
  3  4  1  0  0  0
  3 89  1  0  0  0
  3 90  1  0  0  0
  4  5  1  0  0  0
  4 91  1  0  0  0
  4 92  1  0  0  0
  5  6  1  0  0  0
  5 26  1  0  0  0
  5 93  1  0  0  0
  6 25  1  0  0  0
  6 94  1  0  0  0
  6 95  1  0  0  0
  7  8  2  0  0  0
  7 26  1  0  0  0
  7 29  1  0  0  0
  8  9  1  0  0  0
  8 22  1  0  0  0
  9 10  1  0  0  0
  9 27  2  0  0  0
 10 11  2  0  0  0
 10 15  1  0  0  0
 11 12  1  0  0  0
 11 96  1  0  0  0
 12 13  2  0  0  0
 12 97  1  0  0  0
 13 14  1  0  0  0
 13 31  1  0  0  0
 14 15  2  0  0  0
 14 98  1  0  0  0
 15 99  1  0  0  0
 16 17  2  0  0  0
 16 21  1  0  0  0
 16 31  1  0  0  0
 17 18  1  0  0  0
 17100  1  0  0  0
 18 19  2  0  0  0
 18101  1  0  0  0
 19 20  1  0  0  0
 19 24  1  0  0  0
 20 21  2  0  0  0
 20102  1  0  0  0
 21 23  1  0  0  0
 22 28  1  0  0  0
 22 32  2  0  0  0
 26 27  1  0  0  0
 28103  1  0  0  0
 28104  1  0  0  0
 29105  1  0  0  0
 29106  1  0  0  0
 33 34  1  0  0  0
 33 66  1  0  0  0
 33 70  2  0  0  0
 34 36  1  0  0  0
 34 59  1  0  0  0
 34107  1  0  0  0
 35 44  2  0  0  0
 35 45  1  0  0  0
 35 68  1  0  0  0
 36 56  1  0  0  0
 36108  1  0  0  0
 37 39  1  0  0  0
 37 47  1  0  0  0
 37 66  1  0  0  0
 37109  1  0  0  0
 38 43  2  0  0  0
 38 46  1  0  0  0
 38 47  1  0  0  0
 39 64  1  0  0  0
 39 67  2  0  0  0
 40 52  1  0  0  0
 40 53  2  0  0  0
 40 58  1  0  0  0
 41110  1  0  0  0
 41111  1  0  0  0
 41112  1  0  0  0
 41 48  1  0  0  0
 42 43  1  0  0  0
 42 66  1  0  0  0
 42113  1  0  0  0
 42114  1  0  0  0
 43 44  1  0  0  0
 44115  1  0  0  0
 45 46  2  0  0  0
 45116  1  0  0  0
 46117  1  0  0  0
 47118  1  0  0  0
 47119  1  0  0  0
 48 56  1  0  0  0
 48 65  1  0  0  0
 48120  1  0  0  0
 49 50  1  0  0  0
 49 53  1  0  0  0
 49 64  1  0  0  0
 49121  1  0  0  0
 50 51  1  0  0  0
 50122  1  0  0  0
 50123  1  0  0  0
 51 52  1  0  0  0
 51124  1  0  0  0
 51125  1  0  0  0
 52126  1  0  0  0
 52127  1  0  0  0
 53 54  1  0  0  0
 54 55  2  0  0  0
 54128  1  0  0  0
 55 57  1  0  0  0
 55129  1  0  0  0
 56 69  2  0  0  0
 57 58  2  0  0  0
 57130  1  0  0  0
 58131  1  0  0  0
 59 60  1  0  0  0
 59 61  1  0  0  0
 59 62  1  0  0  0
 60132  1  0  0  0
 60133  1  0  0  0
 60134  1  0  0  0
 61135  1  0  0  0
 61136  1  0  0  0
 61137  1  0  0  0
 62138  1  0  0  0
 62139  1  0  0  0
 62140  1  0  0  0
 63 65  1  0  0  0
 63141  1  0  0  0
 63142  1  0  0  0
 63143  1  0  0  0
 64144  1  0  0  0
 65145  1  0  0  0
 68 84  1  0  0  0
 71 73  2  0  0  0
 71 75  1  0  0  0
 71146  1  0  0  0
 72 74  1  0  0  0
 72 75  2  0  0  0
 72147  1  0  0  0
 73 76  1  0  0  0
 73148  1  0  0  0
 74 76  2  0  0  0
 74149  1  0  0  0
 75 85  1  0  0  0
 76 86  1  0  0  0
 77 78  1  0  0  0
 77 79  1  0  0  0
 77150  1  0  0  0
 77151  1  0  0  0
 78 81  1  0  0  0
 78152  1  0  0  0
 78153  1  0  0  0
 79 85  1  0  0  0
 79154  1  0  0  0
 79155  1  0  0  0
 80 81  1  0  0  0
 80 85  1  0  0  0
 80156  1  0  0  0
 80157  1  0  0  0
 81 82  1  0  0  0
 81 84  1  0  0  0
 82158  1  0  0  0
 82159  1  0  0  0
 82160  1  0  0  0
 83161  1  0  0  0
 83162  1  0  0  0
 83163  1  0  0  0
 83 84  1  0  0  0
 84164  1  0  0  0
 86165  1  0  0  0
M  ISO  4   1 100  68 101  84 101  86 100
M  END
> <chiral flag>
0

> <version>
0

> <s_m_source_file>
/data/baiqing/PycharmProjects/Reinvent-master-3.2/result/LINK_invent/BTK/process_docking_weight1_custom_product_contain_oxygen_bond_distance_aromatic_linkinvent_7_9_3/rearranged_h_0145.sdf

> <i_m_source_file_index>
57

> <r_mmod_Potential_Energy-OPLS-2005>
257.885620117188

> <r_mmod_Stretch_Energy-OPLS-2005>
121.41316986084

> <r_mmod_Bend_Energy-OPLS-2005>
239.476547241211

> <r_mmod_Torsional_Energy-OPLS-2005>
281.836303710938

> <r_mmod_Improper_Torsional_Energy-OPLS-2005>
4.25406217575073

> <r_mmod_Van_der_Waal_Energy-OPLS-2005>
165.971481323242

> <r_mmod_Electrostatic_Energy-OPLS-2005>
-406.964263916016

> <r_mmod_Solvation_Energy-OPLS-2005>
-214.659957885742

> <b_mmod_Minimization_Converged-OPLS-2005>
0

> <r_mmod_RMS_Derivative-OPLS-2005>
4.80484533309937

$$$$
57
                    3D
 Structure written by MMmdl.
160169  0  0  1  0            999 V2000
  -30.6049  -14.7220   20.4606 C   0  0  0  0  0  0
  -30.4363  -12.4375   19.4696 C   0  0  0  0  0  0
  -29.5093  -12.5001   18.2340 C   0  0  0  0  0  0
  -28.0359  -12.3253   18.6495 C   0  0  0  0  0  0
  -27.6436  -13.2253   19.8517 C   0  0  2  0  0  0
  -28.6890  -13.1391   20.9874 C   0  0  0  0  0  0
  -25.2532  -13.8185   20.5727 C   0  0  0  0  0  0
  -24.1808  -13.0435   20.9207 C   0  0  0  0  0  0
  -24.6378  -11.6909   20.8732 C   0  0  0  0  0  0
  -23.9044  -10.4283   21.0391 C   0  0  0  0  0  0
  -24.3595   -9.4201   21.9169 C   0  0  0  0  0  0
  -23.6272   -8.2239   22.0752 C   0  0  0  0  0  0
  -22.4259   -8.0273   21.3539 C   0  0  0  0  0  0
  -21.9884   -9.0248   20.4643 C   0  0  0  0  0  0
  -22.7213  -10.2127   20.3046 C   0  0  0  0  0  0
  -21.6858   -6.0716   22.5265 C   0  0  0  0  0  0
  -21.4016   -6.5622   23.8201 C   0  0  0  0  0  0
  -21.3663   -5.6775   24.9167 C   0  0  0  0  0  0
  -21.6048   -4.3037   24.7218 C   0  0  0  0  0  0
  -21.8824   -3.8125   23.4340 C   0  0  0  0  0  0
  -21.9196   -4.6940   22.3390 C   0  0  0  0  0  0
  -22.7834  -13.5233   21.1863 C   0  0  0  0  0  0
  -22.1672   -4.2118   21.0966 F   0  0  0  0  0  0
  -21.5627   -3.4525   25.7730 F   0  0  0  0  0  0
  -29.9953  -13.4895   20.4136 N   0  0  0  0  0  0
  -26.2944  -12.9377   20.3282 N   0  0  0  0  0  0
  -25.9309  -11.6522   20.5736 N   0  0  0  0  0  0
  -22.0486  -12.8224   22.0418 N   0  0  0  0  0  0
  -25.4239  -15.1918   20.4198 N   0  0  0  0  0  0
  -31.7852  -14.8339   20.1179 O   0  0  0  0  0  0
  -21.6647   -6.8860   21.4227 O   0  0  0  0  0  0
  -22.3519  -14.5536   20.6701 O   0  0  0  0  0  0
  -24.6290  -31.8571   23.2008 C   0  0  0  0  0  0
  -25.9120  -32.4770   23.8346 C   0  0  1  0  0  0
  -27.2143  -27.2830   20.1316 C   0  0  0  0  0  0
  -25.5928  -33.8572   24.2265 N   0  0  0  0  0  0
  -23.4242  -30.4795   21.5445 C   0  0  2  0  0  0
  -24.8694  -28.9278   20.1152 C   0  0  0  0  0  0
  -22.7493  -29.4596   22.4928 C   0  0  0  0  0  0
  -18.0289  -28.1395   22.8485 C   0  0  0  0  0  0
  -24.1488  -36.7283   23.2636 C   0  0  0  0  0  0
  -25.9688  -30.7780   21.3760 C   0  0  0  0  0  0
  -26.0413  -29.4013   20.7196 C   0  0  0  0  0  0
  -27.2196  -28.5919   20.7131 C   0  0  0  0  0  0
  -26.0248  -26.8728   19.4925 C   0  0  0  0  0  0
  -24.8635  -27.6694   19.4930 C   0  0  0  0  0  0
  -23.6415  -29.8148   20.1604 C   0  0  0  0  0  0
  -25.4116  -36.3077   24.0327 C   0  0  1  0  0  0
  -20.5890  -28.3686   23.1284 C   0  0  2  0  0  0
  -20.6774  -26.9405   22.5412 C   0  0  0  0  0  0
  -19.5749  -26.6384   21.5217 C   0  0  0  0  0  0
  -18.1931  -26.7936   22.1631 C   0  0  0  0  0  0
  -19.1543  -28.8862   23.2877 C   0  0  0  0  0  0
  -18.9466  -30.1466   23.8889 C   0  0  0  0  0  0
  -17.6464  -30.6589   24.0567 C   0  0  0  0  0  0
  -25.9059  -34.9448   23.5098 C   0  0  0  0  0  0
  -16.5353  -29.9088   23.6335 C   0  0  0  0  0  0
  -16.7276  -28.6514   23.0341 C   0  0  0  0  0  0
  -26.4493  -31.6594   25.0727 C   0  0  0  0  0  0
  -25.3726  -31.3745   26.1458 C   0  0  0  0  0  0
  -27.0322  -30.3011   24.6197 C   0  0  0  0  0  0
  -27.6062  -32.4325   25.7486 C   0  0  0  0  0  0
  -27.5583  -37.1793   24.8465 C   0  0  0  0  0  0
  -21.4202  -29.3029   22.3676 N   0  0  0  0  0  0
  -26.4291  -37.3777   23.9416 N   0  0  0  0  0  0
  -24.6932  -31.0558   22.0970 N   0  0  0  0  0  0
  -23.4208  -28.8133   23.3012 O   0  0  0  0  0  0
  -28.3146  -26.4064   20.1549 O   0  0  0  0  0  0
  -26.5630  -34.8919   22.4667 O   0  0  0  0  0  0
  -23.5447  -32.1374   23.7325 O   0  0  0  0  0  0
  -29.0368  -18.2374   20.7946 C   0  0  0  0  0  0
  -29.4953  -19.5777   20.4388 C   0  0  0  0  0  0
  -30.8046  -19.5457   19.8770 C   0  0  0  0  0  0
  -29.9673  -17.2004   20.5216 C   0  0  0  0  0  0
  -30.5691  -20.7766   19.0712 C   0  0  0  0  0  0
  -29.1120  -20.9254   19.7235 C   0  0  1  0  0  0
  -27.9149  -20.6001   18.8227 C   0  0  0  0  0  0
  -30.4647  -24.2447   20.2079 C   0  0  0  0  0  0
  -28.7673  -23.8258   18.4201 C   0  0  0  0  0  0
  -28.7851  -22.2889   20.5519 C   0  0  0  0  0  0
  -28.0945  -24.9786   20.5593 C   0  0  0  0  0  0
  -29.0106  -23.8013   19.9403 C   0  0  0  0  0  0
  -29.8021  -15.8210   20.7351 N   0  0  0  0  0  0
  -31.3587  -17.9038   19.6352 S   0  0  0  0  0  0
  -31.4774  -12.5617   19.1670 H   0  0  0  0  0  0
  -30.3807  -11.4573   19.9446 H   0  0  0  0  0  0
  -29.7850  -11.7270   17.5150 H   0  0  0  0  0  0
  -29.6371  -13.4541   17.7199 H   0  0  0  0  0  0
  -27.8944  -11.2779   18.9175 H   0  0  0  0  0  0
  -27.3772  -12.5137   17.8003 H   0  0  0  0  0  0
  -27.6396  -14.2471   19.4728 H   0  0  0  0  0  0
  -28.7186  -12.1338   21.4094 H   0  0  0  0  0  0
  -28.4269  -13.8038   21.8122 H   0  0  0  0  0  0
  -25.2748   -9.5676   22.4726 H   0  0  0  0  0  0
  -23.9983   -7.4638   22.7480 H   0  0  0  0  0  0
  -21.0808   -8.8759   19.8960 H   0  0  0  0  0  0
  -22.3665  -10.9660   19.6142 H   0  0  0  0  0  0
  -21.2018   -7.6132   23.9687 H   0  0  0  0  0  0
  -21.1488   -6.0514   25.9061 H   0  0  0  0  0  0
  -22.0603   -2.7579   23.2853 H   0  0  0  0  0  0
  -22.4134  -11.9898   22.4803 H   0  0  0  0  0  0
  -21.1105  -13.1245   22.2634 H   0  0  0  0  0  0
  -24.6578  -15.8461   20.5408 H   0  0  0  0  0  0
  -26.2640  -15.6269   20.0598 H   0  0  0  0  0  0
  -26.7187  -32.5427   23.1092 H   0  0  0  0  0  0
  -25.0056  -33.9719   25.0396 H   0  0  0  0  0  0
  -22.7186  -31.3003   21.4008 H   0  0  0  0  0  0
  -23.3763  -35.9601   23.3287 H   0  0  0  0  0  0
  -24.3573  -36.8919   22.2051 H   0  0  0  0  0  0
  -23.7231  -37.6476   23.6664 H   0  0  0  0  0  0
  -26.1042  -31.5391   20.6064 H   0  0  0  0  0  0
  -26.8490  -30.8274   22.0060 H   0  0  0  0  0  0
  -28.1217  -28.9490   21.1901 H   0  0  0  0  0  0
  -25.9788  -25.9163   18.9921 H   0  0  0  0  0  0
  -23.9658  -27.3025   19.0144 H   0  0  0  0  0  0
  -23.7701  -30.5931   19.4076 H   0  0  0  0  0  0
  -22.7604  -29.2498   19.8516 H   0  0  0  0  0  0
  -25.1297  -36.1920   25.0821 H   0  0  0  0  0  0
  -20.9975  -28.3258   24.1407 H   0  0  0  0  0  0
  -20.5673  -26.2286   23.3607 H   0  0  0  0  0  0
  -21.6643  -26.7427   22.1206 H   0  0  0  0  0  0
  -19.6899  -25.6295   21.1243 H   0  0  0  0  0  0
  -19.6694  -27.3198   20.6752 H   0  0  0  0  0  0
  -17.4191  -26.6675   21.4043 H   0  0  0  0  0  0
  -18.0336  -26.0089   22.9042 H   0  0  0  0  0  0
  -19.7939  -30.7293   24.2248 H   0  0  0  0  0  0
  -17.5013  -31.6266   24.5175 H   0  0  0  0  0  0
  -15.5353  -30.2984   23.7670 H   0  0  0  0  0  0
  -15.8679  -28.0841   22.7039 H   0  0  0  0  0  0
  -24.5894  -30.7099   25.7792 H   0  0  0  0  0  0
  -24.8921  -32.2914   26.4886 H   0  0  0  0  0  0
  -25.8049  -30.8920   27.0233 H   0  0  0  0  0  0
  -26.2886  -29.6772   24.1224 H   0  0  0  0  0  0
  -27.4007  -29.7269   25.4708 H   0  0  0  0  0  0
  -27.8767  -30.4290   23.9423 H   0  0  0  0  0  0
  -27.2695  -33.3645   26.2043 H   0  0  0  0  0  0
  -28.3878  -32.6859   25.0308 H   0  0  0  0  0  0
  -28.0719  -31.8457   26.5417 H   0  0  0  0  0  0
  -28.2600  -38.0091   24.7527 H   0  0  0  0  0  0
  -28.1084  -36.2628   24.6275 H   0  0  0  0  0  0
  -27.2301  -37.1420   25.8867 H   0  0  0  0  0  0
  -20.9382  -29.8752   21.6886 H   0  0  0  0  0  0
  -26.0170  -38.2845   24.1446 H   0  0  0  0  0  0
  -28.0264  -18.0632   21.1355 H   0  0  0  0  0  0
  -30.5561  -20.5886   17.9972 H   0  0  0  0  0  0
  -31.2762  -21.5592   19.3273 H   0  0  0  0  0  0
  -28.1417  -19.7770   18.1440 H   0  0  0  0  0  0
  -27.6026  -21.4349   18.2021 H   0  0  0  0  0  0
  -27.0495  -20.2945   19.4118 H   0  0  0  0  0  0
  -31.2008  -23.6328   19.6958 H   0  0  0  0  0  0
  -30.6962  -24.2260   21.2733 H   0  0  0  0  0  0
  -30.6317  -25.2674   19.8664 H   0  0  0  0  0  0
  -29.3665  -23.0835   17.8940 H   0  0  0  0  0  0
  -29.0225  -24.7980   17.9966 H   0  0  0  0  0  0
  -27.7172  -23.6508   18.1851 H   0  0  0  0  0  0
  -29.3424  -22.2460   21.4882 H   0  0  0  0  0  0
  -27.7475  -22.2320   20.8839 H   0  0  0  0  0  0
  -28.2239  -24.9641   21.6419 H   0  0  0  0  0  0
  -27.0545  -24.6864   20.4236 H   0  0  0  0  0  0
  -28.8858  -15.5566   21.0623 H   0  0  0  0  0  0
  1 25  1  0  0  0
  1 30  2  0  0  0
  1 83  1  0  0  0
  2  3  1  0  0  0
  2 25  1  0  0  0
  2 85  1  0  0  0
  2 86  1  0  0  0
  3  4  1  0  0  0
  3 87  1  0  0  0
  3 88  1  0  0  0
  4  5  1  0  0  0
  4 89  1  0  0  0
  4 90  1  0  0  0
  5  6  1  0  0  0
  5 26  1  0  0  0
  5 91  1  0  0  0
  6 25  1  0  0  0
  6 92  1  0  0  0
  6 93  1  0  0  0
  7  8  2  0  0  0
  7 26  1  0  0  0
  7 29  1  0  0  0
  8  9  1  0  0  0
  8 22  1  0  0  0
  9 10  1  0  0  0
  9 27  2  0  0  0
 10 11  2  0  0  0
 10 15  1  0  0  0
 11 12  1  0  0  0
 11 94  1  0  0  0
 12 13  2  0  0  0
 12 95  1  0  0  0
 13 14  1  0  0  0
 13 31  1  0  0  0
 14 15  2  0  0  0
 14 96  1  0  0  0
 15 97  1  0  0  0
 16 17  2  0  0  0
 16 21  1  0  0  0
 16 31  1  0  0  0
 17 18  1  0  0  0
 17 98  1  0  0  0
 18 19  2  0  0  0
 18 99  1  0  0  0
 19 20  1  0  0  0
 19 24  1  0  0  0
 20 21  2  0  0  0
 20100  1  0  0  0
 21 23  1  0  0  0
 22 28  1  0  0  0
 22 32  2  0  0  0
 26 27  1  0  0  0
 28101  1  0  0  0
 28102  1  0  0  0
 29103  1  0  0  0
 29104  1  0  0  0
 33 34  1  0  0  0
 33 66  1  0  0  0
 33 70  2  0  0  0
 34 36  1  0  0  0
 34 59  1  0  0  0
 34105  1  0  0  0
 35 44  2  0  0  0
 35 45  1  0  0  0
 35 68  1  0  0  0
 36 56  1  0  0  0
 36106  1  0  0  0
 37 39  1  0  0  0
 37 47  1  0  0  0
 37 66  1  0  0  0
 37107  1  0  0  0
 38 43  2  0  0  0
 38 46  1  0  0  0
 38 47  1  0  0  0
 39 64  1  0  0  0
 39 67  2  0  0  0
 40 52  1  0  0  0
 40 53  2  0  0  0
 40 58  1  0  0  0
 41108  1  0  0  0
 41109  1  0  0  0
 41110  1  0  0  0
 41 48  1  0  0  0
 42 43  1  0  0  0
 42 66  1  0  0  0
 42111  1  0  0  0
 42112  1  0  0  0
 43 44  1  0  0  0
 44113  1  0  0  0
 45 46  2  0  0  0
 45114  1  0  0  0
 46115  1  0  0  0
 47116  1  0  0  0
 47117  1  0  0  0
 48 56  1  0  0  0
 48 65  1  0  0  0
 48118  1  0  0  0
 49 50  1  0  0  0
 49 53  1  0  0  0
 49 64  1  0  0  0
 49119  1  0  0  0
 50 51  1  0  0  0
 50120  1  0  0  0
 50121  1  0  0  0
 51 52  1  0  0  0
 51122  1  0  0  0
 51123  1  0  0  0
 52124  1  0  0  0
 52125  1  0  0  0
 53 54  1  0  0  0
 54 55  2  0  0  0
 54126  1  0  0  0
 55 57  1  0  0  0
 55127  1  0  0  0
 56 69  2  0  0  0
 57 58  2  0  0  0
 57128  1  0  0  0
 58129  1  0  0  0
 59 60  1  0  0  0
 59 61  1  0  0  0
 59 62  1  0  0  0
 60130  1  0  0  0
 60131  1  0  0  0
 60132  1  0  0  0
 61133  1  0  0  0
 61134  1  0  0  0
 61135  1  0  0  0
 62136  1  0  0  0
 62137  1  0  0  0
 62138  1  0  0  0
 63 65  1  0  0  0
 63139  1  0  0  0
 63140  1  0  0  0
 63141  1  0  0  0
 64142  1  0  0  0
 65143  1  0  0  0
 68 81  1  0  0  0
 71 72  1  0  0  0
 71 74  2  0  0  0
 71144  1  0  0  0
 72 73  2  0  0  0
 72 76  1  0  0  0
 73 75  1  0  0  0
 73 84  1  0  0  0
 74 83  1  0  0  0
 74 84  1  0  0  0
 75 76  1  0  0  0
 75145  1  0  0  0
 75146  1  0  0  0
 76 77  1  0  0  0
 76 80  1  0  0  0
 77147  1  0  0  0
 77148  1  0  0  0
 77149  1  0  0  0
 78150  1  0  0  0
 78151  1  0  0  0
 78152  1  0  0  0
 78 82  1  0  0  0
 79 82  1  0  0  0
 79153  1  0  0  0
 79154  1  0  0  0
 79155  1  0  0  0
 80 82  1  0  0  0
 80156  1  0  0  0
 80157  1  0  0  0
 81 82  1  0  0  0
 81158  1  0  0  0
 81159  1  0  0  0
 83160  1  0  0  0
M  ISO  4   1 100  68 101  81 101  83 100
M  END
> <chiral flag>
0

> <version>
0

> <s_m_source_file>
/data/baiqing/PycharmProjects/Reinvent-master-3.2/result/LINK_invent/BTK/process_docking_weight1_custom_product_contain_oxygen_bond_distance_aromatic_linkinvent_7_9_3/rearranged_h_0145.sdf

> <i_m_source_file_index>
58

> <r_mmod_Potential_Energy-OPLS-2005>
602.440551757812

> <r_mmod_Stretch_Energy-OPLS-2005>
133.747741699219

> <r_mmod_Bend_Energy-OPLS-2005>
513.6201171875

> <r_mmod_Torsional_Energy-OPLS-2005>
293.463165283203

> <r_mmod_Improper_Torsional_Energy-OPLS-2005>
44.3191947937012

> <r_mmod_Van_der_Waal_Energy-OPLS-2005>
119.301086425781

> <r_mmod_Electrostatic_Energy-OPLS-2005>
-371.417175292969

> <r_mmod_Solvation_Energy-OPLS-2005>
-203.777770996094

> <b_mmod_Minimization_Converged-OPLS-2005>
0

> <r_mmod_RMS_Derivative-OPLS-2005>
1.78116369247437

$$$$
58
                    3D
 Structure written by MMmdl.
168178  0  0  1  0            999 V2000
  -30.6585  -14.6028   20.5366 C   0  0  0  0  0  0
  -30.4286  -12.3823   19.4483 C   0  0  0  0  0  0
  -29.4996  -12.5146   18.2213 C   0  0  0  0  0  0
  -28.0222  -12.3495   18.6326 C   0  0  0  0  0  0
  -27.6517  -13.2068   19.8723 C   0  0  2  0  0  0
  -28.6993  -13.0190   20.9936 C   0  0  0  0  0  0
  -25.2531  -13.8138   20.5655 C   0  0  0  0  0  0
  -24.1809  -13.0412   20.9194 C   0  0  0  0  0  0
  -24.6381  -11.6892   20.8758 C   0  0  0  0  0  0
  -23.9046  -10.4275   21.0410 C   0  0  0  0  0  0
  -24.3602   -9.4185   21.9183 C   0  0  0  0  0  0
  -23.6282   -8.2221   22.0746 C   0  0  0  0  0  0
  -22.4262   -8.0266   21.3539 C   0  0  0  0  0  0
  -21.9901   -9.0239   20.4636 C   0  0  0  0  0  0
  -22.7224  -10.2124   20.3051 C   0  0  0  0  0  0
  -21.6835   -6.0731   22.5277 C   0  0  0  0  0  0
  -21.4002   -6.5638   23.8209 C   0  0  0  0  0  0
  -21.3662   -5.6796   24.9177 C   0  0  0  0  0  0
  -21.6041   -4.3054   24.7227 C   0  0  0  0  0  0
  -21.8818   -3.8147   23.4345 C   0  0  0  0  0  0
  -21.9186   -4.6962   22.3404 C   0  0  0  0  0  0
  -22.7836  -13.5216   21.1852 C   0  0  0  0  0  0
  -22.1655   -4.2152   21.0979 F   0  0  0  0  0  0
  -21.5637   -3.4537   25.7738 F   0  0  0  0  0  0
  -30.0010  -13.4005   20.4323 N   0  0  0  0  0  0
  -26.2967  -12.9315   20.3363 N   0  0  0  0  0  0
  -25.9304  -11.6472   20.5790 N   0  0  0  0  0  0
  -22.0489  -12.8222   22.0416 N   0  0  0  0  0  0
  -25.4165  -15.1851   20.3959 N   0  0  0  0  0  0
  -31.8292  -14.6943   20.1473 O   0  0  0  0  0  0
  -21.6625   -6.8868   21.4232 O   0  0  0  0  0  0
  -22.3517  -14.5515   20.6687 O   0  0  0  0  0  0
  -24.6184  -31.8629   23.2037 C   0  0  0  0  0  0
  -25.9054  -32.4793   23.8346 C   0  0  1  0  0  0
  -27.2410  -27.3869   20.0939 C   0  0  0  0  0  0
  -25.5905  -33.8596   24.2271 N   0  0  0  0  0  0
  -23.4091  -30.4854   21.5446 C   0  0  2  0  0  0
  -24.8521  -28.9373   20.1155 C   0  0  0  0  0  0
  -22.7433  -29.4643   22.4951 C   0  0  0  0  0  0
  -18.0278  -28.1388   22.8474 C   0  0  0  0  0  0
  -24.1484  -36.7288   23.2635 C   0  0  0  0  0  0
  -25.9401  -30.8159   21.3576 C   0  0  0  0  0  0
  -26.0149  -29.4456   20.7038 C   0  0  0  0  0  0
  -27.2058  -28.6799   20.6824 C   0  0  0  0  0  0
  -26.0475  -26.8935   19.5194 C   0  0  0  0  0  0
  -24.8640  -27.6608   19.5244 C   0  0  0  0  0  0
  -23.6179  -29.8113   20.1618 C   0  0  0  0  0  0
  -25.4110  -36.3090   24.0324 C   0  0  1  0  0  0
  -20.5874  -28.3688   23.1294 C   0  0  2  0  0  0
  -20.6773  -26.9418   22.5410 C   0  0  0  0  0  0
  -19.5763  -26.6386   21.5203 C   0  0  0  0  0  0
  -18.1936  -26.7935   22.1605 C   0  0  0  0  0  0
  -19.1531  -28.8856   23.2880 C   0  0  0  0  0  0
  -18.9467  -30.1457   23.8901 C   0  0  0  0  0  0
  -17.6473  -30.6595   24.0573 C   0  0  0  0  0  0
  -25.9052  -34.9464   23.5103 C   0  0  0  0  0  0
  -16.5358  -29.9110   23.6316 C   0  0  0  0  0  0
  -16.7265  -28.6524   23.0332 C   0  0  0  0  0  0
  -26.4464  -31.6606   25.0707 C   0  0  0  0  0  0
  -25.3706  -31.3762   26.1452 C   0  0  0  0  0  0
  -27.0290  -30.3039   24.6121 C   0  0  0  0  0  0
  -27.6061  -32.4323   25.7459 C   0  0  0  0  0  0
  -27.5580  -37.1790   24.8462 C   0  0  0  0  0  0
  -21.4155  -29.3052   22.3696 N   0  0  0  0  0  0
  -26.4283  -37.3789   23.9425 N   0  0  0  0  0  0
  -24.6754  -31.0702   22.0943 N   0  0  0  0  0  0
  -23.4189  -28.8179   23.3005 O   0  0  0  0  0  0
  -28.4423  -26.6869   20.1400 O   0  0  0  0  0  0
  -26.5619  -34.8936   22.4667 O   0  0  0  0  0  0
  -23.5363  -32.1400   23.7399 O   0  0  0  0  0  0
  -29.4156  -19.5605   20.4708 C   0  0  0  0  0  0
  -27.5835  -19.6892   22.0881 C   0  0  0  0  0  0
  -29.4708  -18.1551   20.7172 C   0  0  0  0  0  0
  -27.6423  -18.2922   22.3145 C   0  0  0  0  0  0
  -28.6148  -17.5517   21.6170 C   0  0  0  0  0  0
  -28.4493  -20.3491   21.1760 C   0  0  0  0  0  0
  -28.5105  -22.6761   20.0987 C   0  0  0  0  0  0
  -30.3686  -17.0759   20.1187 C   0  0  0  0  0  0
  -28.8632  -16.0572   21.6763 C   0  0  0  0  0  0
  -26.2222  -18.2392   24.5416 C   0  0  0  0  0  0
  -27.1595  -17.0547   24.5602 C   0  0  0  0  0  0
  -26.6802  -17.6131   23.2433 C   0  0  0  0  0  0
  -28.5198  -25.3674   18.0592 C   0  0  0  0  0  0
  -30.2447  -25.3152   19.8575 C   0  0  0  0  0  0
  -28.0324  -24.1548   20.3455 C   0  0  0  0  0  0
  -28.7270  -25.3626   19.5909 C   0  0  0  0  0  0
  -29.9247  -15.7617   20.6860 N   0  0  0  0  0  0
  -28.2802  -21.7836   21.0920 N   0  0  0  0  0  0
  -29.0450  -22.3525   19.0356 O   0  0  0  0  0  0
  -31.4700  -12.5001   19.1449 H   0  0  0  0  0  0
  -30.3657  -11.3812   19.8785 H   0  0  0  0  0  0
  -29.7633  -11.7775   17.4630 H   0  0  0  0  0  0
  -29.6427  -13.4917   17.7567 H   0  0  0  0  0  0
  -27.8594  -11.2945   18.8556 H   0  0  0  0  0  0
  -27.3639  -12.5871   17.7969 H   0  0  0  0  0  0
  -27.6785  -14.2452   19.5426 H   0  0  0  0  0  0
  -28.7230  -11.9750   21.3084 H   0  0  0  0  0  0
  -28.4535  -13.5560   21.9056 H   0  0  0  0  0  0
  -25.2738   -9.5658   22.4776 H   0  0  0  0  0  0
  -23.9981   -7.4604   22.7465 H   0  0  0  0  0  0
  -21.0834   -8.8748   19.8945 H   0  0  0  0  0  0
  -22.3661  -10.9670   19.6170 H   0  0  0  0  0  0
  -21.1983   -7.6147   23.9715 H   0  0  0  0  0  0
  -21.1483   -6.0524   25.9084 H   0  0  0  0  0  0
  -22.0596   -2.7608   23.2836 H   0  0  0  0  0  0
  -22.4102  -11.9863   22.4774 H   0  0  0  0  0  0
  -21.1103  -13.1237   22.2640 H   0  0  0  0  0  0
  -24.6343  -15.8247   20.4737 H   0  0  0  0  0  0
  -26.2545  -15.6273   20.0414 H   0  0  0  0  0  0
  -26.7114  -32.5462   23.1089 H   0  0  0  0  0  0
  -25.0081  -33.9766   25.0439 H   0  0  0  0  0  0
  -22.7009  -31.3039   21.3990 H   0  0  0  0  0  0
  -23.3774  -35.9593   23.3269 H   0  0  0  0  0  0
  -24.3589  -36.8929   22.2058 H   0  0  0  0  0  0
  -23.7194  -37.6465   23.6669 H   0  0  0  0  0  0
  -26.0549  -31.5817   20.5887 H   0  0  0  0  0  0
  -26.8270  -30.8683   21.9784 H   0  0  0  0  0  0
  -28.1083  -29.0758   21.1285 H   0  0  0  0  0  0
  -25.9975  -25.9118   19.0795 H   0  0  0  0  0  0
  -23.9623  -27.2545   19.0872 H   0  0  0  0  0  0
  -23.7324  -30.5825   19.3992 H   0  0  0  0  0  0
  -22.7399  -29.2354   19.8632 H   0  0  0  0  0  0
  -25.1294  -36.1927   25.0815 H   0  0  0  0  0  0
  -20.9967  -28.3250   24.1413 H   0  0  0  0  0  0
  -20.5671  -26.2302   23.3604 H   0  0  0  0  0  0
  -21.6649  -26.7463   22.1212 H   0  0  0  0  0  0
  -19.6952  -25.6299   21.1233 H   0  0  0  0  0  0
  -19.6716  -27.3199   20.6740 H   0  0  0  0  0  0
  -17.4217  -26.6675   21.3993 H   0  0  0  0  0  0
  -18.0343  -26.0060   22.8989 H   0  0  0  0  0  0
  -19.7953  -30.7259   24.2273 H   0  0  0  0  0  0
  -17.5043  -31.6274   24.5188 H   0  0  0  0  0  0
  -15.5368  -30.3040   23.7640 H   0  0  0  0  0  0
  -15.8651  -28.0865   22.7050 H   0  0  0  0  0  0
  -24.5875  -30.7108   25.7796 H   0  0  0  0  0  0
  -24.8899  -32.2934   26.4874 H   0  0  0  0  0  0
  -25.8023  -30.8951   27.0236 H   0  0  0  0  0  0
  -26.2845  -29.6804   24.1157 H   0  0  0  0  0  0
  -27.4026  -29.7285   25.4601 H   0  0  0  0  0  0
  -27.8691  -30.4360   23.9296 H   0  0  0  0  0  0
  -27.2731  -33.3657   26.2024 H   0  0  0  0  0  0
  -28.3880  -32.6823   25.0269 H   0  0  0  0  0  0
  -28.0715  -31.8433   26.5377 H   0  0  0  0  0  0
  -28.2587  -38.0110   24.7551 H   0  0  0  0  0  0
  -28.1086  -36.2636   24.6223 H   0  0  0  0  0  0
  -27.2304  -37.1356   25.8870 H   0  0  0  0  0  0
  -20.9321  -29.8764   21.6902 H   0  0  0  0  0  0
  -26.0154  -38.2846   24.1498 H   0  0  0  0  0  0
  -30.0994  -20.0193   19.7708 H   0  0  0  0  0  0
  -26.8422  -20.2667   22.6227 H   0  0  0  0  0  0
  -31.4097  -17.2821   20.3753 H   0  0  0  0  0  0
  -30.2778  -17.0706   19.0318 H   0  0  0  0  0  0
  -27.9249  -15.5707   21.4288 H   0  0  0  0  0  0
  -29.1681  -15.7589   22.6811 H   0  0  0  0  0  0
  -26.6325  -19.2045   24.8333 H   0  0  0  0  0  0
  -25.1949  -18.0569   24.8529 H   0  0  0  0  0  0
  -26.7490  -16.0995   24.8807 H   0  0  0  0  0  0
  -28.1932  -17.2425   24.8460 H   0  0  0  0  0  0
  -25.9527  -17.0269   22.6836 H   0  0  0  0  0  0
  -29.0896  -24.5725   17.5766 H   0  0  0  0  0  0
  -28.8608  -26.3082   17.6231 H   0  0  0  0  0  0
  -27.4838  -25.2249   17.7606 H   0  0  0  0  0  0
  -30.7090  -24.4146   19.4550 H   0  0  0  0  0  0
  -30.4616  -25.3449   20.9270 H   0  0  0  0  0  0
  -30.7522  -26.1637   19.3977 H   0  0  0  0  0  0
  -28.1223  -24.3435   21.4162 H   0  0  0  0  0  0
  -26.9640  -24.1706   20.1366 H   0  0  0  0  0  0
  -27.7923  -22.1876   21.8809 H   0  0  0  0  0  0
  1 25  1  0  0  0
  1 30  2  0  0  0
  1 87  1  0  0  0
  2  3  1  0  0  0
  2 25  1  0  0  0
  2 90  1  0  0  0
  2 91  1  0  0  0
  3  4  1  0  0  0
  3 92  1  0  0  0
  3 93  1  0  0  0
  4  5  1  0  0  0
  4 94  1  0  0  0
  4 95  1  0  0  0
  5  6  1  0  0  0
  5 26  1  0  0  0
  5 96  1  0  0  0
  6 25  1  0  0  0
  6 97  1  0  0  0
  6 98  1  0  0  0
  7  8  2  0  0  0
  7 26  1  0  0  0
  7 29  1  0  0  0
  8  9  1  0  0  0
  8 22  1  0  0  0
  9 10  1  0  0  0
  9 27  2  0  0  0
 10 11  2  0  0  0
 10 15  1  0  0  0
 11 12  1  0  0  0
 11 99  1  0  0  0
 12 13  2  0  0  0
 12100  1  0  0  0
 13 14  1  0  0  0
 13 31  1  0  0  0
 14 15  2  0  0  0
 14101  1  0  0  0
 15102  1  0  0  0
 16 17  2  0  0  0
 16 21  1  0  0  0
 16 31  1  0  0  0
 17 18  1  0  0  0
 17103  1  0  0  0
 18 19  2  0  0  0
 18104  1  0  0  0
 19 20  1  0  0  0
 19 24  1  0  0  0
 20 21  2  0  0  0
 20105  1  0  0  0
 21 23  1  0  0  0
 22 28  1  0  0  0
 22 32  2  0  0  0
 26 27  1  0  0  0
 28106  1  0  0  0
 28107  1  0  0  0
 29108  1  0  0  0
 29109  1  0  0  0
 33 34  1  0  0  0
 33 66  1  0  0  0
 33 70  2  0  0  0
 34 36  1  0  0  0
 34 59  1  0  0  0
 34110  1  0  0  0
 35 44  2  0  0  0
 35 45  1  0  0  0
 35 68  1  0  0  0
 36 56  1  0  0  0
 36111  1  0  0  0
 37 39  1  0  0  0
 37 47  1  0  0  0
 37 66  1  0  0  0
 37112  1  0  0  0
 38 43  2  0  0  0
 38 46  1  0  0  0
 38 47  1  0  0  0
 39 64  1  0  0  0
 39 67  2  0  0  0
 40 52  1  0  0  0
 40 53  2  0  0  0
 40 58  1  0  0  0
 41113  1  0  0  0
 41114  1  0  0  0
 41115  1  0  0  0
 41 48  1  0  0  0
 42 43  1  0  0  0
 42 66  1  0  0  0
 42116  1  0  0  0
 42117  1  0  0  0
 43 44  1  0  0  0
 44118  1  0  0  0
 45 46  2  0  0  0
 45119  1  0  0  0
 46120  1  0  0  0
 47121  1  0  0  0
 47122  1  0  0  0
 48 56  1  0  0  0
 48 65  1  0  0  0
 48123  1  0  0  0
 49 50  1  0  0  0
 49 53  1  0  0  0
 49 64  1  0  0  0
 49124  1  0  0  0
 50 51  1  0  0  0
 50125  1  0  0  0
 50126  1  0  0  0
 51 52  1  0  0  0
 51127  1  0  0  0
 51128  1  0  0  0
 52129  1  0  0  0
 52130  1  0  0  0
 53 54  1  0  0  0
 54 55  2  0  0  0
 54131  1  0  0  0
 55 57  1  0  0  0
 55132  1  0  0  0
 56 69  2  0  0  0
 57 58  2  0  0  0
 57133  1  0  0  0
 58134  1  0  0  0
 59 60  1  0  0  0
 59 61  1  0  0  0
 59 62  1  0  0  0
 60135  1  0  0  0
 60136  1  0  0  0
 60137  1  0  0  0
 61138  1  0  0  0
 61139  1  0  0  0
 61140  1  0  0  0
 62141  1  0  0  0
 62142  1  0  0  0
 62143  1  0  0  0
 63 65  1  0  0  0
 63144  1  0  0  0
 63145  1  0  0  0
 63146  1  0  0  0
 64147  1  0  0  0
 65148  1  0  0  0
 68 86  1  0  0  0
 71 73  2  0  0  0
 71 76  1  0  0  0
 71149  1  0  0  0
 72 74  1  0  0  0
 72 76  2  0  0  0
 72150  1  0  0  0
 73 75  1  0  0  0
 73 78  1  0  0  0
 74 75  2  0  0  0
 74 82  1  0  0  0
 75 79  1  0  0  0
 76 88  1  0  0  0
 77 85  1  0  0  0
 77 88  1  0  0  0
 77 89  2  0  0  0
 78 87  1  0  0  0
 78151  1  0  0  0
 78152  1  0  0  0
 79 87  1  0  0  0
 79153  1  0  0  0
 79154  1  0  0  0
 80 81  1  0  0  0
 80 82  1  0  0  0
 80155  1  0  0  0
 80156  1  0  0  0
 81 82  1  0  0  0
 81157  1  0  0  0
 81158  1  0  0  0
 82159  1  0  0  0
 83160  1  0  0  0
 83161  1  0  0  0
 83162  1  0  0  0
 83 86  1  0  0  0
 84 86  1  0  0  0
 84163  1  0  0  0
 84164  1  0  0  0
 84165  1  0  0  0
 85 86  1  0  0  0
 85166  1  0  0  0
 85167  1  0  0  0
 88168  1  0  0  0
M  ISO  4   1 100  68 101  86 101  87 100
M  END
> <chiral flag>
0

> <version>
0

> <s_m_source_file>
/data/baiqing/PycharmProjects/Reinvent-master-3.2/result/LINK_invent/BTK/process_docking_weight1_custom_product_contain_oxygen_bond_distance_aromatic_linkinvent_7_9_3/rearranged_h_0145.sdf

> <i_m_source_file_index>
59

> <r_mmod_Potential_Energy-OPLS-2005>
130.831161499023

> <r_mmod_Stretch_Energy-OPLS-2005>
64.2678985595703

> <r_mmod_Bend_Energy-OPLS-2005>
214.576232910156

> <r_mmod_Torsional_Energy-OPLS-2005>
256.013885498047

> <r_mmod_Improper_Torsional_Energy-OPLS-2005>
12.4623203277588

> <r_mmod_Van_der_Waal_Energy-OPLS-2005>
135.276458740234

> <r_mmod_Electrostatic_Energy-OPLS-2005>
-366.192687988281

> <r_mmod_Solvation_Energy-OPLS-2005>
-214.681640625

> <b_mmod_Minimization_Converged-OPLS-2005>
0

> <r_mmod_RMS_Derivative-OPLS-2005>
2.3237361907959

$$$$
59
                    3D
 Structure written by MMmdl.
157166  0  0  1  0            999 V2000
  -30.5743  -14.6469   20.5387 C   0  0  0  0  0  0
  -30.4473  -12.4030   19.4507 C   0  0  0  0  0  0
  -29.5113  -12.5281   18.2259 C   0  0  0  0  0  0
  -28.0333  -12.3507   18.6313 C   0  0  0  0  0  0
  -27.6542  -13.2048   19.8682 C   0  0  2  0  0  0
  -28.6942  -13.0231   20.9967 C   0  0  0  0  0  0
  -25.2560  -13.8148   20.5669 C   0  0  0  0  0  0
  -24.1813  -13.0423   20.9165 C   0  0  0  0  0  0
  -24.6369  -11.6890   20.8713 C   0  0  0  0  0  0
  -23.9034  -10.4284   21.0395 C   0  0  0  0  0  0
  -24.3599   -9.4206   21.9175 C   0  0  0  0  0  0
  -23.6283   -8.2239   22.0753 C   0  0  0  0  0  0
  -22.4269   -8.0272   21.3537 C   0  0  0  0  0  0
  -21.9892   -9.0239   20.4641 C   0  0  0  0  0  0
  -22.7208  -10.2119   20.3044 C   0  0  0  0  0  0
  -21.6854   -6.0730   22.5276 C   0  0  0  0  0  0
  -21.4022   -6.5640   23.8208 C   0  0  0  0  0  0
  -21.3665   -5.6789   24.9169 C   0  0  0  0  0  0
  -21.6037   -4.3051   24.7220 C   0  0  0  0  0  0
  -21.8816   -3.8143   23.4342 C   0  0  0  0  0  0
  -21.9195   -4.6963   22.3395 C   0  0  0  0  0  0
  -22.7846  -13.5228   21.1838 C   0  0  0  0  0  0
  -22.1656   -4.2149   21.0975 F   0  0  0  0  0  0
  -21.5635   -3.4534   25.7733 F   0  0  0  0  0  0
  -30.0134  -13.3972   20.4507 N   0  0  0  0  0  0
  -26.2969  -12.9295   20.3294 N   0  0  0  0  0  0
  -25.9293  -11.6464   20.5720 N   0  0  0  0  0  0
  -22.0488  -12.8224   22.0405 N   0  0  0  0  0  0
  -25.4309  -15.1876   20.4164 N   0  0  0  0  0  0
  -31.7069  -14.8861   20.1032 O   0  0  0  0  0  0
  -21.6638   -6.8870   21.4235 O   0  0  0  0  0  0
  -22.3522  -14.5537   20.6703 O   0  0  0  0  0  0
  -24.6268  -31.8608   23.2041 C   0  0  0  0  0  0
  -25.9134  -32.4779   23.8354 C   0  0  1  0  0  0
  -27.2247  -27.3278   20.1141 C   0  0  0  0  0  0
  -25.5972  -33.8579   24.2303 N   0  0  0  0  0  0
  -23.4185  -30.4848   21.5481 C   0  0  2  0  0  0
  -24.8641  -28.9380   20.1172 C   0  0  0  0  0  0
  -22.7476  -29.4626   22.4957 C   0  0  0  0  0  0
  -18.0283  -28.1374   22.8495 C   0  0  0  0  0  0
  -24.1487  -36.7259   23.2640 C   0  0  0  0  0  0
  -25.9596  -30.7929   21.3730 C   0  0  0  0  0  0
  -26.0344  -29.4195   20.7196 C   0  0  0  0  0  0
  -27.2200  -28.6259   20.7100 C   0  0  0  0  0  0
  -26.0351  -26.9016   19.4893 C   0  0  0  0  0  0
  -24.8657  -27.6815   19.4941 C   0  0  0  0  0  0
  -23.6315  -29.8174   20.1647 C   0  0  0  0  0  0
  -25.4113  -36.3074   24.0337 C   0  0  1  0  0  0
  -20.5887  -28.3669   23.1299 C   0  0  2  0  0  0
  -20.6756  -26.9394   22.5415 C   0  0  0  0  0  0
  -19.5729  -26.6384   21.5215 C   0  0  0  0  0  0
  -18.1915  -26.7917   22.1638 C   0  0  0  0  0  0
  -19.1538  -28.8839   23.2887 C   0  0  0  0  0  0
  -18.9462  -30.1445   23.8889 C   0  0  0  0  0  0
  -17.6459  -30.6574   24.0568 C   0  0  0  0  0  0
  -25.9062  -34.9450   23.5109 C   0  0  0  0  0  0
  -16.5351  -29.9074   23.6337 C   0  0  0  0  0  0
  -16.7270  -28.6501   23.0347 C   0  0  0  0  0  0
  -26.4527  -31.6573   25.0709 C   0  0  0  0  0  0
  -25.3791  -31.3665   26.1455 C   0  0  0  0  0  0
  -27.0382  -30.3020   24.6122 C   0  0  0  0  0  0
  -27.6109  -32.4279   25.7476 C   0  0  0  0  0  0
  -27.5567  -37.1781   24.8474 C   0  0  0  0  0  0
  -21.4193  -29.3027   22.3714 N   0  0  0  0  0  0
  -26.4278  -37.3783   23.9428 N   0  0  0  0  0  0
  -24.6876  -31.0627   22.0986 N   0  0  0  0  0  0
  -23.4211  -28.8162   23.3026 O   0  0  0  0  0  0
  -28.3388  -26.4793   20.0991 O   0  0  0  0  0  0
  -26.5607  -34.8925   22.4660 O   0  0  0  0  0  0
  -23.5437  -32.1402   23.7376 O   0  0  0  0  0  0
  -30.1191  -18.0890   20.2300 C   0  0  0  0  0  0
  -28.8512  -17.5800   22.1223 C   0  0  0  0  0  0
  -29.6316  -17.0492   21.1257 C   0  0  0  0  0  0
  -29.7144  -19.3909   20.5776 C   0  0  0  0  0  0
  -30.0572  -20.7024   19.9530 C   0  0  0  0  0  0
  -29.8375  -23.2449   19.6467 C   0  0  0  0  0  0
  -28.3098  -22.4339   20.8322 C   0  0  0  0  0  0
  -28.4089  -23.7709   19.9926 C   0  0  0  0  0  0
  -27.4464  -23.8056   18.8013 C   0  0  0  0  0  0
  -28.2142  -25.1602   20.7614 C   0  0  0  0  0  0
  -29.4033  -21.8977   20.0310 N   0  0  0  0  0  0
  -29.7316  -15.5923   21.0608 N   0  0  0  0  0  0
  -31.1636  -20.7190   19.1973 N   0  3  0  0  0  0
  -28.7374  -19.3257   22.0268 S   0  0  0  0  0  0
  -31.4865  -12.5544   19.1551 H   0  0  0  0  0  0
  -30.3978  -11.3979   19.8739 H   0  0  0  0  0  0
  -29.7832  -11.7950   17.4654 H   0  0  0  0  0  0
  -29.6419  -13.5081   17.7667 H   0  0  0  0  0  0
  -27.8709  -11.2948   18.8489 H   0  0  0  0  0  0
  -27.3794  -12.5893   17.7924 H   0  0  0  0  0  0
  -27.6808  -14.2439   19.5422 H   0  0  0  0  0  0
  -28.7095  -11.9866   21.3376 H   0  0  0  0  0  0
  -28.4180  -13.6064   21.8762 H   0  0  0  0  0  0
  -25.2749   -9.5698   22.4726 H   0  0  0  0  0  0
  -24.0006   -7.4638   22.7471 H   0  0  0  0  0  0
  -21.0827   -8.8743   19.8946 H   0  0  0  0  0  0
  -22.3666  -10.9652   19.6144 H   0  0  0  0  0  0
  -21.2019   -7.6150   23.9710 H   0  0  0  0  0  0
  -21.1491   -6.0525   25.9072 H   0  0  0  0  0  0
  -22.0594   -2.7608   23.2837 H   0  0  0  0  0  0
  -22.4124  -11.9900   22.4798 H   0  0  0  0  0  0
  -21.1098  -13.1233   22.2597 H   0  0  0  0  0  0
  -24.6698  -15.8460   20.5473 H   0  0  0  0  0  0
  -26.2925  -15.6325   20.1229 H   0  0  0  0  0  0
  -26.7197  -32.5445   23.1092 H   0  0  0  0  0  0
  -25.0192  -33.9732   25.0496 H   0  0  0  0  0  0
  -22.7113  -31.3038   21.4056 H   0  0  0  0  0  0
  -23.3761  -35.9575   23.3318 H   0  0  0  0  0  0
  -24.3573  -36.8856   22.2049 H   0  0  0  0  0  0
  -23.7236  -37.6466   23.6641 H   0  0  0  0  0  0
  -26.0895  -31.5525   20.6007 H   0  0  0  0  0  0
  -26.8425  -30.8436   21.9980 H   0  0  0  0  0  0
  -28.1177  -28.9960   21.1840 H   0  0  0  0  0  0
  -25.9917  -25.9563   18.9800 H   0  0  0  0  0  0
  -23.9730  -27.3063   19.0136 H   0  0  0  0  0  0
  -23.7481  -30.5922   19.4073 H   0  0  0  0  0  0
  -22.7518  -29.2442   19.8660 H   0  0  0  0  0  0
  -25.1288  -36.1912   25.0826 H   0  0  0  0  0  0
  -20.9964  -28.3205   24.1427 H   0  0  0  0  0  0
  -20.5645  -26.2264   23.3600 H   0  0  0  0  0  0
  -21.6620  -26.7400   22.1221 H   0  0  0  0  0  0
  -19.6885  -25.6304   21.1212 H   0  0  0  0  0  0
  -19.6668  -27.3225   20.6770 H   0  0  0  0  0  0
  -17.4188  -26.6682   21.4039 H   0  0  0  0  0  0
  -18.0305  -26.0052   22.9030 H   0  0  0  0  0  0
  -19.7939  -30.7268   24.2248 H   0  0  0  0  0  0
  -17.5017  -31.6255   24.5158 H   0  0  0  0  0  0
  -15.5347  -30.2967   23.7671 H   0  0  0  0  0  0
  -15.8676  -28.0823   22.7036 H   0  0  0  0  0  0
  -24.5995  -30.6975   25.7796 H   0  0  0  0  0  0
  -24.8947  -32.2798   26.4909 H   0  0  0  0  0  0
  -25.8170  -30.8852   27.0214 H   0  0  0  0  0  0
  -26.2944  -29.6744   24.1203 H   0  0  0  0  0  0
  -27.4193  -29.7287   25.4582 H   0  0  0  0  0  0
  -27.8760  -30.4348   23.9275 H   0  0  0  0  0  0
  -27.2764  -33.3584   26.2074 H   0  0  0  0  0  0
  -28.3921  -32.6823   25.0300 H   0  0  0  0  0  0
  -28.0781  -31.8382   26.5374 H   0  0  0  0  0  0
  -28.2600  -38.0064   24.7517 H   0  0  0  0  0  0
  -28.1052  -36.2601   24.6303 H   0  0  0  0  0  0
  -27.2280  -37.1416   25.8877 H   0  0  0  0  0  0
  -20.9366  -29.8773   21.6957 H   0  0  0  0  0  0
  -26.0146  -38.2853   24.1452 H   0  0  0  0  0  0
  -30.7249  -17.8532   19.3687 H   0  0  0  0  0  0
  -28.3251  -17.0659   22.9183 H   0  0  0  0  0  0
  -30.6227  -23.6181   20.3044 H   0  0  0  0  0  0
  -30.0997  -23.3524   18.5946 H   0  0  0  0  0  0
  -27.3657  -21.9015   20.7176 H   0  0  0  0  0  0
  -28.5967  -22.5417   21.8800 H   0  0  0  0  0  0
  -27.5170  -22.9030   18.1938 H   0  0  0  0  0  0
  -27.6486  -24.6513   18.1429 H   0  0  0  0  0  0
  -26.4095  -23.8624   19.1307 H   0  0  0  0  0  0
  -27.2578  -25.1258   21.2858 H   0  0  0  0  0  0
  -28.9421  -25.1922   21.5730 H   0  0  0  0  0  0
  -28.9414  -15.1305   21.4842 H   0  0  0  0  0  0
  -31.7434  -19.8984   19.1176 H   0  0  0  0  0  0
  -31.4410  -21.5416   18.6883 H   0  0  0  0  0  0
  1 25  1  0  0  0
  1 30  2  0  0  0
  1 82  1  0  0  0
  2  3  1  0  0  0
  2 25  1  0  0  0
  2 85  1  0  0  0
  2 86  1  0  0  0
  3  4  1  0  0  0
  3 87  1  0  0  0
  3 88  1  0  0  0
  4  5  1  0  0  0
  4 89  1  0  0  0
  4 90  1  0  0  0
  5  6  1  0  0  0
  5 26  1  0  0  0
  5 91  1  0  0  0
  6 25  1  0  0  0
  6 92  1  0  0  0
  6 93  1  0  0  0
  7  8  2  0  0  0
  7 26  1  0  0  0
  7 29  1  0  0  0
  8  9  1  0  0  0
  8 22  1  0  0  0
  9 10  1  0  0  0
  9 27  2  0  0  0
 10 11  2  0  0  0
 10 15  1  0  0  0
 11 12  1  0  0  0
 11 94  1  0  0  0
 12 13  2  0  0  0
 12 95  1  0  0  0
 13 14  1  0  0  0
 13 31  1  0  0  0
 14 15  2  0  0  0
 14 96  1  0  0  0
 15 97  1  0  0  0
 16 17  2  0  0  0
 16 21  1  0  0  0
 16 31  1  0  0  0
 17 18  1  0  0  0
 17 98  1  0  0  0
 18 19  2  0  0  0
 18 99  1  0  0  0
 19 20  1  0  0  0
 19 24  1  0  0  0
 20 21  2  0  0  0
 20100  1  0  0  0
 21 23  1  0  0  0
 22 28  1  0  0  0
 22 32  2  0  0  0
 26 27  1  0  0  0
 28101  1  0  0  0
 28102  1  0  0  0
 29103  1  0  0  0
 29104  1  0  0  0
 33 34  1  0  0  0
 33 66  1  0  0  0
 33 70  2  0  0  0
 34 36  1  0  0  0
 34 59  1  0  0  0
 34105  1  0  0  0
 35 44  2  0  0  0
 35 45  1  0  0  0
 35 68  1  0  0  0
 36 56  1  0  0  0
 36106  1  0  0  0
 37 39  1  0  0  0
 37 47  1  0  0  0
 37 66  1  0  0  0
 37107  1  0  0  0
 38 43  2  0  0  0
 38 46  1  0  0  0
 38 47  1  0  0  0
 39 64  1  0  0  0
 39 67  2  0  0  0
 40 52  1  0  0  0
 40 53  2  0  0  0
 40 58  1  0  0  0
 41108  1  0  0  0
 41109  1  0  0  0
 41110  1  0  0  0
 41 48  1  0  0  0
 42 43  1  0  0  0
 42 66  1  0  0  0
 42111  1  0  0  0
 42112  1  0  0  0
 43 44  1  0  0  0
 44113  1  0  0  0
 45 46  2  0  0  0
 45114  1  0  0  0
 46115  1  0  0  0
 47116  1  0  0  0
 47117  1  0  0  0
 48 56  1  0  0  0
 48 65  1  0  0  0
 48118  1  0  0  0
 49 50  1  0  0  0
 49 53  1  0  0  0
 49 64  1  0  0  0
 49119  1  0  0  0
 50 51  1  0  0  0
 50120  1  0  0  0
 50121  1  0  0  0
 51 52  1  0  0  0
 51122  1  0  0  0
 51123  1  0  0  0
 52124  1  0  0  0
 52125  1  0  0  0
 53 54  1  0  0  0
 54 55  2  0  0  0
 54126  1  0  0  0
 55 57  1  0  0  0
 55127  1  0  0  0
 56 69  2  0  0  0
 57 58  2  0  0  0
 57128  1  0  0  0
 58129  1  0  0  0
 59 60  1  0  0  0
 59 61  1  0  0  0
 59 62  1  0  0  0
 60130  1  0  0  0
 60131  1  0  0  0
 60132  1  0  0  0
 61133  1  0  0  0
 61134  1  0  0  0
 61135  1  0  0  0
 62136  1  0  0  0
 62137  1  0  0  0
 62138  1  0  0  0
 63 65  1  0  0  0
 63139  1  0  0  0
 63140  1  0  0  0
 63141  1  0  0  0
 64142  1  0  0  0
 65143  1  0  0  0
 68 80  1  0  0  0
 71 73  1  0  0  0
 71 74  2  0  0  0
 71144  1  0  0  0
 72 73  2  0  0  0
 72 84  1  0  0  0
 72145  1  0  0  0
 73 82  1  0  0  0
 74 75  1  0  0  0
 74 84  1  0  0  0
 75 81  1  0  0  0
 75 83  2  0  0  0
 76 78  1  0  0  0
 76 81  1  0  0  0
 76146  1  0  0  0
 76147  1  0  0  0
 77 78  1  0  0  0
 77 81  1  0  0  0
 77148  1  0  0  0
 77149  1  0  0  0
 78 79  1  0  0  0
 78 80  1  0  0  0
 79150  1  0  0  0
 79151  1  0  0  0
 79152  1  0  0  0
 80153  1  0  0  0
 80154  1  0  0  0
 82155  1  0  0  0
 83156  1  0  0  0
 83157  1  0  0  0
M  CHG  1  83   1
M  ISO  4   1 100  68 101  80 101  82 100
M  END
> <chiral flag>
0

> <version>
0

> <s_m_source_file>
/data/baiqing/PycharmProjects/Reinvent-master-3.2/result/LINK_invent/BTK/process_docking_weight1_custom_product_contain_oxygen_bond_distance_aromatic_linkinvent_7_9_3/rearranged_h_0145.sdf

> <i_m_source_file_index>
60

> <r_mmod_Potential_Energy-OPLS-2005>
34.3228416442871

> <r_mmod_Stretch_Energy-OPLS-2005>
77.6493225097656

> <r_mmod_Bend_Energy-OPLS-2005>
219.363388061523

> <r_mmod_Torsional_Energy-OPLS-2005>
268.782745361328

> <r_mmod_Improper_Torsional_Energy-OPLS-2005>
4.48864126205444

> <r_mmod_Van_der_Waal_Energy-OPLS-2005>
122.944641113281

> <r_mmod_Electrostatic_Energy-OPLS-2005>
-268.473388671875

> <r_mmod_Solvation_Energy-OPLS-2005>
-438.928619384766

> <b_mmod_Minimization_Converged-OPLS-2005>
0

> <r_mmod_RMS_Derivative-OPLS-2005>
2.3729076385498

$$$$
60
                    3D
 Structure written by MMmdl.
158167  0  0  1  0            999 V2000
  -30.6391  -14.6652   20.5161 C   0  0  0  0  0  0
  -30.4312  -12.4159   19.4537 C   0  0  0  0  0  0
  -29.5067  -12.5106   18.2208 C   0  0  0  0  0  0
  -28.0303  -12.3466   18.6326 C   0  0  0  0  0  0
  -27.6475  -13.2258   19.8535 C   0  0  2  0  0  0
  -28.6903  -13.1106   20.9849 C   0  0  0  0  0  0
  -25.2536  -13.8187   20.5667 C   0  0  0  0  0  0
  -24.1810  -13.0442   20.9175 C   0  0  0  0  0  0
  -24.6392  -11.6917   20.8723 C   0  0  0  0  0  0
  -23.9061  -10.4296   21.0396 C   0  0  0  0  0  0
  -24.3616   -9.4218   21.9176 C   0  0  0  0  0  0
  -23.6300   -8.2245   22.0744 C   0  0  0  0  0  0
  -22.4282   -8.0283   21.3537 C   0  0  0  0  0  0
  -21.9917   -9.0253   20.4642 C   0  0  0  0  0  0
  -22.7234  -10.2134   20.3051 C   0  0  0  0  0  0
  -21.6858   -6.0738   22.5278 C   0  0  0  0  0  0
  -21.4011   -6.5638   23.8212 C   0  0  0  0  0  0
  -21.3661   -5.6783   24.9174 C   0  0  0  0  0  0
  -21.6051   -4.3050   24.7223 C   0  0  0  0  0  0
  -21.8817   -3.8146   23.4338 C   0  0  0  0  0  0
  -21.9188   -4.6959   22.3401 C   0  0  0  0  0  0
  -22.7834  -13.5233   21.1851 C   0  0  0  0  0  0
  -22.1664   -4.2152   21.0979 F   0  0  0  0  0  0
  -21.5636   -3.4542   25.7735 F   0  0  0  0  0  0
  -29.9988  -13.4549   20.4120 N   0  0  0  0  0  0
  -26.2958  -12.9386   20.3259 N   0  0  0  0  0  0
  -25.9317  -11.6528   20.5707 N   0  0  0  0  0  0
  -22.0466  -12.8238   22.0405 N   0  0  0  0  0  0
  -25.4257  -15.1907   20.4127 N   0  0  0  0  0  0
  -31.8132  -14.7871   20.1511 O   0  0  0  0  0  0
  -21.6637   -6.8885   21.4243 O   0  0  0  0  0  0
  -22.3531  -14.5545   20.6707 O   0  0  0  0  0  0
  -24.6277  -31.8580   23.2004 C   0  0  0  0  0  0
  -25.9115  -32.4774   23.8341 C   0  0  1  0  0  0
  -27.2229  -27.2978   20.1325 C   0  0  0  0  0  0
  -25.5919  -33.8575   24.2263 N   0  0  0  0  0  0
  -23.4225  -30.4818   21.5419 C   0  0  2  0  0  0
  -24.8710  -28.9303   20.1132 C   0  0  0  0  0  0
  -22.7486  -29.4615   22.4907 C   0  0  0  0  0  0
  -18.0289  -28.1382   22.8481 C   0  0  0  0  0  0
  -24.1490  -36.7296   23.2637 C   0  0  0  0  0  0
  -25.9654  -30.7834   21.3746 C   0  0  0  0  0  0
  -26.0399  -29.4073   20.7198 C   0  0  0  0  0  0
  -27.2208  -28.6047   20.7156 C   0  0  0  0  0  0
  -26.0367  -26.8811   19.4912 C   0  0  0  0  0  0
  -24.8725  -27.6737   19.4872 C   0  0  0  0  0  0
  -23.6408  -29.8145   20.1582 C   0  0  0  0  0  0
  -25.4115  -36.3081   24.0326 C   0  0  1  0  0  0
  -20.5889  -28.3693   23.1278 C   0  0  2  0  0  0
  -20.6778  -26.9415   22.5409 C   0  0  0  0  0  0
  -19.5756  -26.6381   21.5211 C   0  0  0  0  0  0
  -18.1935  -26.7925   22.1621 C   0  0  0  0  0  0
  -19.1542  -28.8852   23.2876 C   0  0  0  0  0  0
  -18.9461  -30.1452   23.8898 C   0  0  0  0  0  0
  -17.6466  -30.6583   24.0559 C   0  0  0  0  0  0
  -25.9048  -34.9450   23.5093 C   0  0  0  0  0  0
  -16.5356  -29.9085   23.6329 C   0  0  0  0  0  0
  -16.7275  -28.6500   23.0348 C   0  0  0  0  0  0
  -26.4488  -31.6594   25.0722 C   0  0  0  0  0  0
  -25.3718  -31.3751   26.1451 C   0  0  0  0  0  0
  -27.0325  -30.3009   24.6193 C   0  0  0  0  0  0
  -27.6035  -32.4337   25.7503 C   0  0  0  0  0  0
  -27.5581  -37.1807   24.8460 C   0  0  0  0  0  0
  -21.4195  -29.3045   22.3663 N   0  0  0  0  0  0
  -26.4292  -37.3780   23.9409 N   0  0  0  0  0  0
  -24.6902  -31.0585   22.0955 N   0  0  0  0  0  0
  -23.4207  -28.8152   23.2990 O   0  0  0  0  0  0
  -28.3352  -26.4393   20.1512 O   0  0  0  0  0  0
  -26.5620  -34.8920   22.4661 O   0  0  0  0  0  0
  -23.5436  -32.1378   23.7330 O   0  0  0  0  0  0
  -29.7556  -19.2510   21.3351 C   0  0  0  0  0  0
  -29.1340  -18.9574   18.9593 C   0  0  0  0  0  0
  -29.8855  -17.8310   21.3472 C   0  0  0  0  0  0
  -29.6356  -16.9714   20.2300 C   0  0  0  0  0  0
  -29.3578  -19.8461   20.0813 C   0  0  0  0  0  0
  -29.2574  -17.5233   19.0014 C   0  0  0  0  0  0
  -29.0372  -22.4092   20.6061 C   0  0  0  0  0  0
  -30.2527  -16.6041   22.1718 C   0  0  0  0  0  0
  -28.8760  -23.7929   18.4365 C   0  0  0  0  0  0
  -30.5636  -24.3765   20.2095 C   0  0  0  0  0  0
  -28.1420  -25.0107   20.5529 C   0  0  0  0  0  0
  -29.1242  -23.8811   19.9594 C   0  0  0  0  0  0
  -29.9148  -15.7503   20.9582 N   0  0  0  0  0  0
  -29.2368  -21.2959   19.8203 N   0  0  0  0  0  0
  -28.8230  -22.3032   21.8150 O   0  0  0  0  0  0
  -29.0206  -16.7449   17.9186 F   0  0  0  0  0  0
  -31.4742  -12.5357   19.1553 H   0  0  0  0  0  0
  -30.3623  -11.4271   19.9089 H   0  0  0  0  0  0
  -29.7781  -11.7528   17.4844 H   0  0  0  0  0  0
  -29.6463  -13.4758   17.7303 H   0  0  0  0  0  0
  -27.8697  -11.2945   18.8711 H   0  0  0  0  0  0
  -27.3775  -12.5681   17.7877 H   0  0  0  0  0  0
  -27.6622  -14.2584   19.5037 H   0  0  0  0  0  0
  -28.7076  -12.0996   21.3947 H   0  0  0  0  0  0
  -28.4295  -13.7691   21.8142 H   0  0  0  0  0  0
  -25.2766   -9.5711   22.4739 H   0  0  0  0  0  0
  -24.0023   -7.4638   22.7456 H   0  0  0  0  0  0
  -21.0850   -8.8770   19.8944 H   0  0  0  0  0  0
  -22.3695  -10.9669   19.6157 H   0  0  0  0  0  0
  -21.2001   -7.6147   23.9725 H   0  0  0  0  0  0
  -21.1492   -6.0511   25.9081 H   0  0  0  0  0  0
  -22.0594   -2.7609   23.2834 H   0  0  0  0  0  0
  -22.4101  -11.9922   22.4833 H   0  0  0  0  0  0
  -21.1071  -13.1252   22.2568 H   0  0  0  0  0  0
  -24.6652  -15.8503   20.5329 H   0  0  0  0  0  0
  -26.2894  -15.6279   20.1178 H   0  0  0  0  0  0
  -26.7177  -32.5437   23.1088 H   0  0  0  0  0  0
  -25.0071  -33.9717   25.0409 H   0  0  0  0  0  0
  -22.7176  -31.3027   21.3961 H   0  0  0  0  0  0
  -23.3748  -35.9633   23.3300 H   0  0  0  0  0  0
  -24.3580  -36.8920   22.2052 H   0  0  0  0  0  0
  -23.7247  -37.6500   23.6660 H   0  0  0  0  0  0
  -26.0986  -31.5448   20.6044 H   0  0  0  0  0  0
  -26.8448  -30.8333   22.0056 H   0  0  0  0  0  0
  -28.1186  -28.9684   21.1950 H   0  0  0  0  0  0
  -25.9995  -25.9262   18.9869 H   0  0  0  0  0  0
  -23.9798  -27.3079   18.9981 H   0  0  0  0  0  0
  -23.7668  -30.5894   19.4013 H   0  0  0  0  0  0
  -22.7601  -29.2472   19.8522 H   0  0  0  0  0  0
  -25.1295  -36.1927   25.0819 H   0  0  0  0  0  0
  -20.9990  -28.3270   24.1398 H   0  0  0  0  0  0
  -20.5677  -26.2308   23.3613 H   0  0  0  0  0  0
  -21.6647  -26.7441   22.1207 H   0  0  0  0  0  0
  -19.6920  -25.6289   21.1249 H   0  0  0  0  0  0
  -19.6692  -27.3188   20.6739 H   0  0  0  0  0  0
  -17.4208  -26.6673   21.4018 H   0  0  0  0  0  0
  -18.0331  -26.0064   22.9016 H   0  0  0  0  0  0
  -19.7939  -30.7257   24.2278 H   0  0  0  0  0  0
  -17.5022  -31.6270   24.5158 H   0  0  0  0  0  0
  -15.5354  -30.2986   23.7647 H   0  0  0  0  0  0
  -15.8677  -28.0819   22.7062 H   0  0  0  0  0  0
  -24.5873  -30.7118   25.7792 H   0  0  0  0  0  0
  -24.8931  -32.2928   26.4878 H   0  0  0  0  0  0
  -25.8038  -30.8927   27.0228 H   0  0  0  0  0  0
  -26.2899  -29.6773   24.1197 H   0  0  0  0  0  0
  -27.3984  -29.7256   25.4709 H   0  0  0  0  0  0
  -27.8790  -30.4279   23.9441 H   0  0  0  0  0  0
  -27.2618  -33.3628   26.2083 H   0  0  0  0  0  0
  -28.3848  -32.6920   25.0342 H   0  0  0  0  0  0
  -28.0700  -31.8466   26.5427 H   0  0  0  0  0  0
  -28.2592  -38.0112   24.7506 H   0  0  0  0  0  0
  -28.1078  -36.2636   24.6273 H   0  0  0  0  0  0
  -27.2298  -37.1452   25.8864 H   0  0  0  0  0  0
  -20.9374  -29.8781   21.6879 H   0  0  0  0  0  0
  -26.0164  -38.2855   24.1406 H   0  0  0  0  0  0
  -29.9660  -19.8443   22.2133 H   0  0  0  0  0  0
  -28.8481  -19.3885   18.0108 H   0  0  0  0  0  0
  -29.5934  -16.4513   23.0273 H   0  0  0  0  0  0
  -31.3052  -16.5879   22.4612 H   0  0  0  0  0  0
  -29.6406  -23.2053   17.9266 H   0  0  0  0  0  0
  -28.8851  -24.7841   17.9809 H   0  0  0  0  0  0
  -27.9052  -23.3461   18.2177 H   0  0  0  0  0  0
  -31.3080  -23.6467   19.8880 H   0  0  0  0  0  0
  -30.7338  -24.5729   21.2695 H   0  0  0  0  0  0
  -30.7629  -25.3040   19.6718 H   0  0  0  0  0  0
  -28.2389  -25.0008   21.6398 H   0  0  0  0  0  0
  -27.1187  -24.6827   20.3760 H   0  0  0  0  0  0
  -29.3005  -21.5431   18.8427 H   0  0  0  0  0  0
  1 25  1  0  0  0
  1 30  2  0  0  0
  1 83  1  0  0  0
  2  3  1  0  0  0
  2 25  1  0  0  0
  2 87  1  0  0  0
  2 88  1  0  0  0
  3  4  1  0  0  0
  3 89  1  0  0  0
  3 90  1  0  0  0
  4  5  1  0  0  0
  4 91  1  0  0  0
  4 92  1  0  0  0
  5  6  1  0  0  0
  5 26  1  0  0  0
  5 93  1  0  0  0
  6 25  1  0  0  0
  6 94  1  0  0  0
  6 95  1  0  0  0
  7  8  2  0  0  0
  7 26  1  0  0  0
  7 29  1  0  0  0
  8  9  1  0  0  0
  8 22  1  0  0  0
  9 10  1  0  0  0
  9 27  2  0  0  0
 10 11  2  0  0  0
 10 15  1  0  0  0
 11 12  1  0  0  0
 11 96  1  0  0  0
 12 13  2  0  0  0
 12 97  1  0  0  0
 13 14  1  0  0  0
 13 31  1  0  0  0
 14 15  2  0  0  0
 14 98  1  0  0  0
 15 99  1  0  0  0
 16 17  2  0  0  0
 16 21  1  0  0  0
 16 31  1  0  0  0
 17 18  1  0  0  0
 17100  1  0  0  0
 18 19  2  0  0  0
 18101  1  0  0  0
 19 20  1  0  0  0
 19 24  1  0  0  0
 20 21  2  0  0  0
 20102  1  0  0  0
 21 23  1  0  0  0
 22 28  1  0  0  0
 22 32  2  0  0  0
 26 27  1  0  0  0
 28103  1  0  0  0
 28104  1  0  0  0
 29105  1  0  0  0
 29106  1  0  0  0
 33 34  1  0  0  0
 33 66  1  0  0  0
 33 70  2  0  0  0
 34 36  1  0  0  0
 34 59  1  0  0  0
 34107  1  0  0  0
 35 44  2  0  0  0
 35 45  1  0  0  0
 35 68  1  0  0  0
 36 56  1  0  0  0
 36108  1  0  0  0
 37 39  1  0  0  0
 37 47  1  0  0  0
 37 66  1  0  0  0
 37109  1  0  0  0
 38 43  2  0  0  0
 38 46  1  0  0  0
 38 47  1  0  0  0
 39 64  1  0  0  0
 39 67  2  0  0  0
 40 52  1  0  0  0
 40 53  2  0  0  0
 40 58  1  0  0  0
 41110  1  0  0  0
 41111  1  0  0  0
 41112  1  0  0  0
 41 48  1  0  0  0
 42 43  1  0  0  0
 42 66  1  0  0  0
 42113  1  0  0  0
 42114  1  0  0  0
 43 44  1  0  0  0
 44115  1  0  0  0
 45 46  2  0  0  0
 45116  1  0  0  0
 46117  1  0  0  0
 47118  1  0  0  0
 47119  1  0  0  0
 48 56  1  0  0  0
 48 65  1  0  0  0
 48120  1  0  0  0
 49 50  1  0  0  0
 49 53  1  0  0  0
 49 64  1  0  0  0
 49121  1  0  0  0
 50 51  1  0  0  0
 50122  1  0  0  0
 50123  1  0  0  0
 51 52  1  0  0  0
 51124  1  0  0  0
 51125  1  0  0  0
 52126  1  0  0  0
 52127  1  0  0  0
 53 54  1  0  0  0
 54 55  2  0  0  0
 54128  1  0  0  0
 55 57  1  0  0  0
 55129  1  0  0  0
 56 69  2  0  0  0
 57 58  2  0  0  0
 57130  1  0  0  0
 58131  1  0  0  0
 59 60  1  0  0  0
 59 61  1  0  0  0
 59 62  1  0  0  0
 60132  1  0  0  0
 60133  1  0  0  0
 60134  1  0  0  0
 61135  1  0  0  0
 61136  1  0  0  0
 61137  1  0  0  0
 62138  1  0  0  0
 62139  1  0  0  0
 62140  1  0  0  0
 63 65  1  0  0  0
 63141  1  0  0  0
 63142  1  0  0  0
 63143  1  0  0  0
 64144  1  0  0  0
 65145  1  0  0  0
 68 81  1  0  0  0
 71 73  2  0  0  0
 71 75  1  0  0  0
 71146  1  0  0  0
 72 75  2  0  0  0
 72 76  1  0  0  0
 72147  1  0  0  0
 73 74  1  0  0  0
 73 78  1  0  0  0
 74 76  2  0  0  0
 74 83  1  0  0  0
 75 84  1  0  0  0
 76 86  1  0  0  0
 77 82  1  0  0  0
 77 84  1  0  0  0
 77 85  2  0  0  0
 78 83  1  0  0  0
 78148  1  0  0  0
 78149  1  0  0  0
 79150  1  0  0  0
 79151  1  0  0  0
 79152  1  0  0  0
 79 82  1  0  0  0
 80 82  1  0  0  0
 80153  1  0  0  0
 80154  1  0  0  0
 80155  1  0  0  0
 81 82  1  0  0  0
 81156  1  0  0  0
 81157  1  0  0  0
 84158  1  0  0  0
M  ISO  4   1 100  68 101  81 101  83 100
M  END
> <chiral flag>
0

> <version>
0

> <s_m_source_file>
/data/baiqing/PycharmProjects/Reinvent-master-3.2/result/LINK_invent/BTK/process_docking_weight1_custom_product_contain_oxygen_bond_distance_aromatic_linkinvent_7_9_3/rearranged_h_0145.sdf

> <i_m_source_file_index>
61

> <r_mmod_Potential_Energy-OPLS-2005>
569.303527832031

> <r_mmod_Stretch_Energy-OPLS-2005>
112.611785888672

> <r_mmod_Bend_Energy-OPLS-2005>
560.777709960938

> <r_mmod_Torsional_Energy-OPLS-2005>
305.589050292969

> <r_mmod_Improper_Torsional_Energy-OPLS-2005>
8.55176639556885

> <r_mmod_Van_der_Waal_Energy-OPLS-2005>
131.078918457031

> <r_mmod_Electrostatic_Energy-OPLS-2005>
-395.842987060547

> <r_mmod_Solvation_Energy-OPLS-2005>
-210.406509399414

> <b_mmod_Minimization_Converged-OPLS-2005>
0

> <r_mmod_RMS_Derivative-OPLS-2005>
1.59504389762878

$$$$
61
                    3D
 Structure written by MMmdl.
157166  0  0  1  0            999 V2000
  -30.6589  -14.5622   20.5198 C   0  0  0  0  0  0
  -30.4310  -12.3466   19.4414 C   0  0  0  0  0  0
  -29.5031  -12.5027   18.2174 C   0  0  0  0  0  0
  -28.0242  -12.3541   18.6277 C   0  0  0  0  0  0
  -27.6579  -13.2121   19.8686 C   0  0  2  0  0  0
  -28.7015  -13.0350   20.9956 C   0  0  0  0  0  0
  -25.2574  -13.8167   20.5678 C   0  0  0  0  0  0
  -24.1835  -13.0438   20.9182 C   0  0  0  0  0  0
  -24.6396  -11.6907   20.8737 C   0  0  0  0  0  0
  -23.9064  -10.4291   21.0406 C   0  0  0  0  0  0
  -24.3617   -9.4207   21.9184 C   0  0  0  0  0  0
  -23.6293   -8.2244   22.0751 C   0  0  0  0  0  0
  -22.4274   -8.0283   21.3545 C   0  0  0  0  0  0
  -21.9910   -9.0257   20.4646 C   0  0  0  0  0  0
  -22.7238  -10.2134   20.3053 C   0  0  0  0  0  0
  -21.6854   -6.0734   22.5279 C   0  0  0  0  0  0
  -21.4011   -6.5637   23.8214 C   0  0  0  0  0  0
  -21.3655   -5.6788   24.9177 C   0  0  0  0  0  0
  -21.6043   -4.3053   24.7227 C   0  0  0  0  0  0
  -21.8820   -3.8146   23.4349 C   0  0  0  0  0  0
  -21.9194   -4.6963   22.3405 C   0  0  0  0  0  0
  -22.7856  -13.5233   21.1850 C   0  0  0  0  0  0
  -22.1661   -4.2151   21.0983 F   0  0  0  0  0  0
  -21.5631   -3.4537   25.7740 F   0  0  0  0  0  0
  -30.0252  -13.3551   20.4368 N   0  0  0  0  0  0
  -26.3010  -12.9342   20.3337 N   0  0  0  0  0  0
  -25.9323  -11.6498   20.5759 N   0  0  0  0  0  0
  -22.0491  -12.8227   22.0404 N   0  0  0  0  0  0
  -25.4292  -15.1889   20.4084 N   0  0  0  0  0  0
  -31.8139  -14.7192   20.1123 O   0  0  0  0  0  0
  -21.6638   -6.8880   21.4242 O   0  0  0  0  0  0
  -22.3542  -14.5541   20.6702 O   0  0  0  0  0  0
  -24.6204  -31.8641   23.2065 C   0  0  0  0  0  0
  -25.9079  -32.4798   23.8373 C   0  0  1  0  0  0
  -27.2277  -27.3843   20.1094 C   0  0  0  0  0  0
  -25.5922  -33.8598   24.2311 N   0  0  0  0  0  0
  -23.4113  -30.4875   21.5474 C   0  0  2  0  0  0
  -24.8597  -28.9499   20.1102 C   0  0  0  0  0  0
  -22.7446  -29.4637   22.4960 C   0  0  0  0  0  0
  -18.0281  -28.1375   22.8483 C   0  0  0  0  0  0
  -24.1486  -36.7289   23.2629 C   0  0  0  0  0  0
  -25.9459  -30.8151   21.3677 C   0  0  0  0  0  0
  -26.0240  -29.4469   20.7116 C   0  0  0  0  0  0
  -27.2152  -28.6735   20.7049 C   0  0  0  0  0  0
  -26.0497  -26.9198   19.4892 C   0  0  0  0  0  0
  -24.8703  -27.6881   19.4917 C   0  0  0  0  0  0
  -23.6234  -29.8220   20.1617 C   0  0  0  0  0  0
  -25.4101  -36.3090   24.0337 C   0  0  1  0  0  0
  -20.5878  -28.3670   23.1299 C   0  0  2  0  0  0
  -20.6767  -26.9398   22.5414 C   0  0  0  0  0  0
  -19.5750  -26.6384   21.5205 C   0  0  0  0  0  0
  -18.1928  -26.7924   22.1614 C   0  0  0  0  0  0
  -19.1533  -28.8839   23.2888 C   0  0  0  0  0  0
  -18.9458  -30.1444   23.8898 C   0  0  0  0  0  0
  -17.6461  -30.6581   24.0561 C   0  0  0  0  0  0
  -25.9043  -34.9462   23.5120 C   0  0  0  0  0  0
  -16.5351  -29.9080   23.6328 C   0  0  0  0  0  0
  -16.7270  -28.6498   23.0345 C   0  0  0  0  0  0
  -26.4488  -31.6579   25.0713 C   0  0  0  0  0  0
  -25.3745  -31.3699   26.1458 C   0  0  0  0  0  0
  -27.0312  -30.3010   24.6112 C   0  0  0  0  0  0
  -27.6066  -32.4291   25.7479 C   0  0  0  0  0  0
  -27.5594  -37.1766   24.8442 C   0  0  0  0  0  0
  -21.4167  -29.3030   22.3697 N   0  0  0  0  0  0
  -26.4265  -37.3798   23.9449 N   0  0  0  0  0  0
  -24.6774  -31.0706   22.0983 N   0  0  0  0  0  0
  -23.4196  -28.8180   23.3020 O   0  0  0  0  0  0
  -28.3378  -26.5523   20.1320 O   0  0  0  0  0  0
  -26.5608  -34.8926   22.4684 O   0  0  0  0  0  0
  -23.5382  -32.1412   23.7433 O   0  0  0  0  0  0
  -30.9100  -19.1109   20.2162 C   0  0  0  0  0  0
  -31.1233  -17.6899   20.2800 C   0  0  0  0  0  0
  -29.6676  -19.5178   20.6378 C   0  0  0  0  0  0
  -30.0475  -16.9624   20.7464 C   0  0  0  0  0  0
  -29.0221  -21.7457   19.4170 C   0  0  0  0  0  0
  -29.8143  -21.8320   21.7769 C   0  0  0  0  0  0
  -28.3383  -23.1436   19.5803 C   0  0  0  0  0  0
  -29.1199  -23.2088   21.9618 C   0  0  0  0  0  0
  -29.0994  -20.9397   20.7404 C   0  0  2  0  0  0
  -28.9772  -24.0574   20.6659 C   0  0  2  0  0  0
  -28.1655  -25.3765   20.9726 C   0  0  0  0  0  0
  -29.8832  -15.6047   20.9245 N   0  0  0  0  0  0
  -28.7453  -18.0950   21.1202 S   0  0  0  0  0  0
  -31.4747  -12.4545   19.1405 H   0  0  0  0  0  0
  -30.3451  -11.3447   19.8646 H   0  0  0  0  0  0
  -29.7556  -11.7635   17.4559 H   0  0  0  0  0  0
  -29.6605  -13.4798   17.7581 H   0  0  0  0  0  0
  -27.8473  -11.2998   18.8432 H   0  0  0  0  0  0
  -27.3738  -12.6071   17.7895 H   0  0  0  0  0  0
  -27.6879  -14.2526   19.5456 H   0  0  0  0  0  0
  -28.6941  -12.0080   21.3639 H   0  0  0  0  0  0
  -28.4567  -13.6579   21.8574 H   0  0  0  0  0  0
  -25.2765   -9.5683   22.4755 H   0  0  0  0  0  0
  -24.0006   -7.4632   22.7465 H   0  0  0  0  0  0
  -21.0846   -8.8780   19.8949 H   0  0  0  0  0  0
  -22.3705  -10.9673   19.6161 H   0  0  0  0  0  0
  -21.1998   -7.6140   23.9714 H   0  0  0  0  0  0
  -21.1475   -6.0520   25.9080 H   0  0  0  0  0  0
  -22.0601   -2.7609   23.2852 H   0  0  0  0  0  0
  -22.4093  -11.9882   22.4793 H   0  0  0  0  0  0
  -21.1112  -13.1264   22.2602 H   0  0  0  0  0  0
  -24.6624  -15.8444   20.5141 H   0  0  0  0  0  0
  -26.2787  -15.6271   20.0756 H   0  0  0  0  0  0
  -26.7148  -32.5502   23.1130 H   0  0  0  0  0  0
  -25.0094  -33.9751   25.0471 H   0  0  0  0  0  0
  -22.7017  -31.3057   21.4075 H   0  0  0  0  0  0
  -23.3775  -35.9590   23.3235 H   0  0  0  0  0  0
  -24.3607  -36.8964   22.2058 H   0  0  0  0  0  0
  -23.7194  -37.6457   23.6682 H   0  0  0  0  0  0
  -26.0679  -31.5809   20.6004 H   0  0  0  0  0  0
  -26.8296  -30.8655   21.9919 H   0  0  0  0  0  0
  -28.1108  -29.0477   21.1806 H   0  0  0  0  0  0
  -26.0408  -25.9463   19.0185 H   0  0  0  0  0  0
  -23.9776  -27.3002   19.0207 H   0  0  0  0  0  0
  -23.7363  -30.5985   19.4042 H   0  0  0  0  0  0
  -22.7456  -29.2460   19.8629 H   0  0  0  0  0  0
  -25.1259  -36.1930   25.0823 H   0  0  0  0  0  0
  -20.9971  -28.3240   24.1420 H   0  0  0  0  0  0
  -20.5661  -26.2276   23.3605 H   0  0  0  0  0  0
  -21.6640  -26.7433   22.1215 H   0  0  0  0  0  0
  -19.6913  -25.6299   21.1228 H   0  0  0  0  0  0
  -19.6690  -27.3199   20.6737 H   0  0  0  0  0  0
  -17.4200  -26.6676   21.4011 H   0  0  0  0  0  0
  -18.0323  -26.0060   22.9005 H   0  0  0  0  0  0
  -19.7939  -30.7257   24.2266 H   0  0  0  0  0  0
  -17.5019  -31.6259   24.5168 H   0  0  0  0  0  0
  -15.5349  -30.2980   23.7652 H   0  0  0  0  0  0
  -15.8672  -28.0818   22.7056 H   0  0  0  0  0  0
  -24.5933  -30.7024   25.7803 H   0  0  0  0  0  0
  -24.8923  -32.2858   26.4882 H   0  0  0  0  0  0
  -25.8100  -30.8894   27.0228 H   0  0  0  0  0  0
  -26.2855  -29.6775   24.1166 H   0  0  0  0  0  0
  -27.4064  -29.7243   25.4575 H   0  0  0  0  0  0
  -27.8704  -30.4310   23.9276 H   0  0  0  0  0  0
  -27.2695  -33.3586   26.2076 H   0  0  0  0  0  0
  -28.3868  -32.6848   25.0296 H   0  0  0  0  0  0
  -28.0742  -31.8398   26.5377 H   0  0  0  0  0  0
  -28.2513  -38.0160   24.7647 H   0  0  0  0  0  0
  -28.1184  -36.2707   24.6047 H   0  0  0  0  0  0
  -27.2354  -37.1158   25.8846 H   0  0  0  0  0  0
  -20.9334  -29.8745   21.6909 H   0  0  0  0  0  0
  -26.0141  -38.2846   24.1555 H   0  0  0  0  0  0
  -31.6834  -19.7826   19.8696 H   0  0  0  0  0  0
  -32.0687  -17.2633   19.9754 H   0  0  0  0  0  0
  -30.0270  -21.8810   19.0147 H   0  0  0  0  0  0
  -28.4744  -21.1660   18.6727 H   0  0  0  0  0  0
  -29.8439  -21.3176   22.7383 H   0  0  0  0  0  0
  -30.8533  -21.9829   21.4805 H   0  0  0  0  0  0
  -27.2870  -22.9839   19.8245 H   0  0  0  0  0  0
  -28.3428  -23.6653   18.6225 H   0  0  0  0  0  0
  -29.6686  -23.7814   22.7107 H   0  0  0  0  0  0
  -28.1291  -23.0404   22.3870 H   0  0  0  0  0  0
  -28.0703  -20.8301   21.0866 H   0  0  0  0  0  0
  -29.9802  -24.3391   20.3415 H   0  0  0  0  0  0
  -28.4487  -25.7186   21.9690 H   0  0  0  0  0  0
  -27.1129  -25.1039   21.0696 H   0  0  0  0  0  0
  -28.9785  -15.3237   21.2707 H   0  0  0  0  0  0
  1 25  1  0  0  0
  1 30  2  0  0  0
  1 82  1  0  0  0
  2  3  1  0  0  0
  2 25  1  0  0  0
  2 84  1  0  0  0
  2 85  1  0  0  0
  3  4  1  0  0  0
  3 86  1  0  0  0
  3 87  1  0  0  0
  4  5  1  0  0  0
  4 88  1  0  0  0
  4 89  1  0  0  0
  5  6  1  0  0  0
  5 26  1  0  0  0
  5 90  1  0  0  0
  6 25  1  0  0  0
  6 91  1  0  0  0
  6 92  1  0  0  0
  7  8  2  0  0  0
  7 26  1  0  0  0
  7 29  1  0  0  0
  8  9  1  0  0  0
  8 22  1  0  0  0
  9 10  1  0  0  0
  9 27  2  0  0  0
 10 11  2  0  0  0
 10 15  1  0  0  0
 11 12  1  0  0  0
 11 93  1  0  0  0
 12 13  2  0  0  0
 12 94  1  0  0  0
 13 14  1  0  0  0
 13 31  1  0  0  0
 14 15  2  0  0  0
 14 95  1  0  0  0
 15 96  1  0  0  0
 16 17  2  0  0  0
 16 21  1  0  0  0
 16 31  1  0  0  0
 17 18  1  0  0  0
 17 97  1  0  0  0
 18 19  2  0  0  0
 18 98  1  0  0  0
 19 20  1  0  0  0
 19 24  1  0  0  0
 20 21  2  0  0  0
 20 99  1  0  0  0
 21 23  1  0  0  0
 22 28  1  0  0  0
 22 32  2  0  0  0
 26 27  1  0  0  0
 28100  1  0  0  0
 28101  1  0  0  0
 29102  1  0  0  0
 29103  1  0  0  0
 33 34  1  0  0  0
 33 66  1  0  0  0
 33 70  2  0  0  0
 34 36  1  0  0  0
 34 59  1  0  0  0
 34104  1  0  0  0
 35 44  2  0  0  0
 35 45  1  0  0  0
 35 68  1  0  0  0
 36 56  1  0  0  0
 36105  1  0  0  0
 37 39  1  0  0  0
 37 47  1  0  0  0
 37 66  1  0  0  0
 37106  1  0  0  0
 38 43  2  0  0  0
 38 46  1  0  0  0
 38 47  1  0  0  0
 39 64  1  0  0  0
 39 67  2  0  0  0
 40 52  1  0  0  0
 40 53  2  0  0  0
 40 58  1  0  0  0
 41107  1  0  0  0
 41108  1  0  0  0
 41109  1  0  0  0
 41 48  1  0  0  0
 42 43  1  0  0  0
 42 66  1  0  0  0
 42110  1  0  0  0
 42111  1  0  0  0
 43 44  1  0  0  0
 44112  1  0  0  0
 45 46  2  0  0  0
 45113  1  0  0  0
 46114  1  0  0  0
 47115  1  0  0  0
 47116  1  0  0  0
 48 56  1  0  0  0
 48 65  1  0  0  0
 48117  1  0  0  0
 49 50  1  0  0  0
 49 53  1  0  0  0
 49 64  1  0  0  0
 49118  1  0  0  0
 50 51  1  0  0  0
 50119  1  0  0  0
 50120  1  0  0  0
 51 52  1  0  0  0
 51121  1  0  0  0
 51122  1  0  0  0
 52123  1  0  0  0
 52124  1  0  0  0
 53 54  1  0  0  0
 54 55  2  0  0  0
 54125  1  0  0  0
 55 57  1  0  0  0
 55126  1  0  0  0
 56 69  2  0  0  0
 57 58  2  0  0  0
 57127  1  0  0  0
 58128  1  0  0  0
 59 60  1  0  0  0
 59 61  1  0  0  0
 59 62  1  0  0  0
 60129  1  0  0  0
 60130  1  0  0  0
 60131  1  0  0  0
 61132  1  0  0  0
 61133  1  0  0  0
 61134  1  0  0  0
 62135  1  0  0  0
 62136  1  0  0  0
 62137  1  0  0  0
 63 65  1  0  0  0
 63138  1  0  0  0
 63139  1  0  0  0
 63140  1  0  0  0
 64141  1  0  0  0
 65142  1  0  0  0
 68 81  1  0  0  0
 71 72  1  0  0  0
 71 73  2  0  0  0
 71143  1  0  0  0
 72 74  2  0  0  0
 72144  1  0  0  0
 73 83  1  0  0  0
 73 79  1  0  0  0
 74 82  1  0  0  0
 74 83  1  0  0  0
 75 77  1  0  0  0
 75 79  1  0  0  0
 75145  1  0  0  0
 75146  1  0  0  0
 76 78  1  0  0  0
 76 79  1  0  0  0
 76147  1  0  0  0
 76148  1  0  0  0
 77 80  1  0  0  0
 77149  1  0  0  0
 77150  1  0  0  0
 78 80  1  0  0  0
 78151  1  0  0  0
 78152  1  0  0  0
 79153  1  0  0  0
 80 81  1  0  0  0
 80154  1  0  0  0
 81155  1  0  0  0
 81156  1  0  0  0
 82157  1  0  0  0
M  ISO  4   1 100  68 101  81 101  82 100
M  END
> <chiral flag>
0

> <version>
0

> <s_m_source_file>
/data/baiqing/PycharmProjects/Reinvent-master-3.2/result/LINK_invent/BTK/process_docking_weight1_custom_product_contain_oxygen_bond_distance_aromatic_linkinvent_7_9_3/rearranged_h_0145.sdf

> <i_m_source_file_index>
62

> <r_mmod_Potential_Energy-OPLS-2005>
3.99548578262329

> <r_mmod_Stretch_Energy-OPLS-2005>
50.0277442932129

> <r_mmod_Bend_Energy-OPLS-2005>
119.157989501953

> <r_mmod_Torsional_Energy-OPLS-2005>
240.266784667969

> <r_mmod_Improper_Torsional_Energy-OPLS-2005>
4.00247144699097

> <r_mmod_Van_der_Waal_Energy-OPLS-2005>
124.379364013672

> <r_mmod_Electrostatic_Energy-OPLS-2005>
-367.953308105469

> <r_mmod_Solvation_Energy-OPLS-2005>
-193.469833374023

> <b_mmod_Minimization_Converged-OPLS-2005>
0

> <r_mmod_RMS_Derivative-OPLS-2005>
0.728913307189941

$$$$
62
                    3D
 Structure written by MMmdl.
169178  0  0  1  0            999 V2000
  -30.7163  -14.5104   20.5594 C   0  0  0  0  0  0
  -30.4153  -12.3260   19.4377 C   0  0  0  0  0  0
  -29.4936  -12.4994   18.2135 C   0  0  0  0  0  0
  -28.0162  -12.3588   18.6261 C   0  0  0  0  0  0
  -27.6567  -13.2155   19.8706 C   0  0  2  0  0  0
  -28.7006  -13.0396   20.9979 C   0  0  0  0  0  0
  -25.2562  -13.8178   20.5687 C   0  0  0  0  0  0
  -24.1826  -13.0442   20.9186 C   0  0  0  0  0  0
  -24.6389  -11.6911   20.8735 C   0  0  0  0  0  0
  -23.9057  -10.4294   21.0399 C   0  0  0  0  0  0
  -24.3609   -9.4212   21.9177 C   0  0  0  0  0  0
  -23.6285   -8.2247   22.0752 C   0  0  0  0  0  0
  -22.4270   -8.0278   21.3541 C   0  0  0  0  0  0
  -21.9903   -9.0251   20.4641 C   0  0  0  0  0  0
  -22.7231  -10.2131   20.3049 C   0  0  0  0  0  0
  -21.6851   -6.0726   22.5273 C   0  0  0  0  0  0
  -21.4015   -6.5632   23.8204 C   0  0  0  0  0  0
  -21.3658   -5.6789   24.9168 C   0  0  0  0  0  0
  -21.6047   -4.3051   24.7223 C   0  0  0  0  0  0
  -21.8821   -3.8140   23.4345 C   0  0  0  0  0  0
  -21.9195   -4.6955   22.3400 C   0  0  0  0  0  0
  -22.7849  -13.5233   21.1847 C   0  0  0  0  0  0
  -22.1663   -4.2141   21.0977 F   0  0  0  0  0  0
  -21.5631   -3.4536   25.7737 F   0  0  0  0  0  0
  -30.0263  -13.3393   20.4359 N   0  0  0  0  0  0
  -26.3001  -12.9362   20.3357 N   0  0  0  0  0  0
  -25.9320  -11.6515   20.5772 N   0  0  0  0  0  0
  -22.0492  -12.8219   22.0399 N   0  0  0  0  0  0
  -25.4275  -15.1896   20.4085 N   0  0  0  0  0  0
  -31.8477  -14.6374   20.0856 O   0  0  0  0  0  0
  -21.6638   -6.8871   21.4235 O   0  0  0  0  0  0
  -22.3538  -14.5542   20.6699 O   0  0  0  0  0  0
  -24.6172  -31.8660   23.2075 C   0  0  0  0  0  0
  -25.9061  -32.4808   23.8378 C   0  0  1  0  0  0
  -27.2262  -27.4048   20.1001 C   0  0  0  0  0  0
  -25.5915  -33.8605   24.2314 N   0  0  0  0  0  0
  -23.4074  -30.4902   21.5482 C   0  0  2  0  0  0
  -24.8550  -28.9546   20.1126 C   0  0  0  0  0  0
  -22.7429  -29.4655   22.4970 C   0  0  0  0  0  0
  -18.0279  -28.1385   22.8496 C   0  0  0  0  0  0
  -24.1483  -36.7297   23.2643 C   0  0  0  0  0  0
  -25.9397  -30.8219   21.3671 C   0  0  0  0  0  0
  -26.0182  -29.4547   20.7131 C   0  0  0  0  0  0
  -27.2106  -28.6868   20.7057 C   0  0  0  0  0  0
  -26.0499  -26.9321   19.4847 C   0  0  0  0  0  0
  -24.8667  -27.6926   19.4947 C   0  0  0  0  0  0
  -23.6179  -29.8245   20.1625 C   0  0  0  0  0  0
  -25.4111  -36.3098   24.0334 C   0  0  1  0  0  0
  -20.5871  -28.3674   23.1307 C   0  0  2  0  0  0
  -20.6772  -26.9410   22.5412 C   0  0  0  0  0  0
  -19.5748  -26.6387   21.5215 C   0  0  0  0  0  0
  -18.1923  -26.7931   22.1625 C   0  0  0  0  0  0
  -19.1531  -28.8847   23.2893 C   0  0  0  0  0  0
  -18.9463  -30.1453   23.8906 C   0  0  0  0  0  0
  -17.6467  -30.6590   24.0571 C   0  0  0  0  0  0
  -25.9046  -34.9466   23.5124 C   0  0  0  0  0  0
  -16.5356  -29.9094   23.6336 C   0  0  0  0  0  0
  -16.7268  -28.6509   23.0356 C   0  0  0  0  0  0
  -26.4479  -31.6595   25.0715 C   0  0  0  0  0  0
  -25.3738  -31.3696   26.1455 C   0  0  0  0  0  0
  -27.0331  -30.3042   24.6106 C   0  0  0  0  0  0
  -27.6038  -32.4329   25.7486 C   0  0  0  0  0  0
  -27.5574  -37.1799   24.8473 C   0  0  0  0  0  0
  -21.4155  -29.3034   22.3708 N   0  0  0  0  0  0
  -26.4293  -37.3785   23.9410 N   0  0  0  0  0  0
  -24.6727  -31.0743   22.0989 N   0  0  0  0  0  0
  -23.4184  -28.8202   23.3030 O   0  0  0  0  0  0
  -28.3461  -26.5932   20.1095 O   0  0  0  0  0  0
  -26.5605  -34.8924   22.4682 O   0  0  0  0  0  0
  -23.5361  -32.1431   23.7455 O   0  0  0  0  0  0
  -32.3084  -18.5539   21.6577 C   0  0  0  0  0  0
  -31.3774  -19.6040   21.7445 C   0  0  0  0  0  0
  -31.8798  -17.2354   21.4225 C   0  0  0  0  0  0
  -29.5754  -18.0152   21.3211 C   0  0  0  0  0  0
  -29.9996  -19.3600   21.5631 C   0  0  0  0  0  0
  -30.5046  -16.9331   21.2504 C   0  0  0  0  0  0
  -29.0266  -20.4582   21.8204 C   0  0  0  0  0  0
  -29.9468  -23.7208   20.1936 C   0  0  0  0  0  0
  -30.0907  -22.1893   20.3272 C   0  0  0  0  0  0
  -28.5081  -24.0361   20.6330 C   0  0  2  0  0  0
  -28.3325  -22.9711   21.7944 C   0  0  0  0  0  0
  -27.5646  -23.7312   19.4420 C   0  0  0  0  0  0
  -26.8262  -22.7104   22.0689 C   0  0  0  0  0  0
  -28.9811  -23.4537   23.1158 C   0  0  0  0  0  0
  -28.3023  -25.5355   21.1006 C   0  0  0  0  0  0
  -29.0862  -21.7483   21.3278 N   0  0  0  0  0  0
  -30.0414  -15.5712   21.0746 N   0  0  0  0  0  0
  -28.0536  -20.1432   22.6688 N   0  3  0  0  0  0
  -31.4615  -12.4049   19.1372 H   0  0  0  0  0  0
  -30.3063  -11.3248   19.8588 H   0  0  0  0  0  0
  -29.7382  -11.7601   17.4494 H   0  0  0  0  0  0
  -29.6595  -13.4774   17.7582 H   0  0  0  0  0  0
  -27.8330  -11.3046   18.8375 H   0  0  0  0  0  0
  -27.3644  -12.6165   17.7904 H   0  0  0  0  0  0
  -27.6877  -14.2571   19.5502 H   0  0  0  0  0  0
  -28.6846  -12.0157   21.3743 H   0  0  0  0  0  0
  -28.4617  -13.6719   21.8537 H   0  0  0  0  0  0
  -25.2750   -9.5690   22.4751 H   0  0  0  0  0  0
  -23.9993   -7.4642   22.7475 H   0  0  0  0  0  0
  -21.0834   -8.8761   19.8948 H   0  0  0  0  0  0
  -22.3680  -10.9665   19.6155 H   0  0  0  0  0  0
  -21.2003   -7.6140   23.9703 H   0  0  0  0  0  0
  -21.1480   -6.0518   25.9070 H   0  0  0  0  0  0
  -22.0602   -2.7603   23.2846 H   0  0  0  0  0  0
  -22.4110  -11.9874   22.4775 H   0  0  0  0  0  0
  -21.1108  -13.1237   22.2607 H   0  0  0  0  0  0
  -24.6569  -15.8416   20.5073 H   0  0  0  0  0  0
  -26.2710  -15.6257   20.0585 H   0  0  0  0  0  0
  -26.7130  -32.5515   23.1135 H   0  0  0  0  0  0
  -25.0056  -33.9755   25.0457 H   0  0  0  0  0  0
  -22.6974  -31.3079   21.4084 H   0  0  0  0  0  0
  -23.3743  -35.9631   23.3324 H   0  0  0  0  0  0
  -24.3576  -36.8901   22.2055 H   0  0  0  0  0  0
  -23.7232  -37.6503   23.6657 H   0  0  0  0  0  0
  -26.0578  -31.5879   20.5992 H   0  0  0  0  0  0
  -26.8244  -30.8727   21.9900 H   0  0  0  0  0  0
  -28.1065  -29.0622   21.1796 H   0  0  0  0  0  0
  -26.0403  -25.9700   18.9968 H   0  0  0  0  0  0
  -23.9745  -27.3033   19.0237 H   0  0  0  0  0  0
  -23.7284  -30.6005   19.4040 H   0  0  0  0  0  0
  -22.7408  -29.2467   19.8661 H   0  0  0  0  0  0
  -25.1281  -36.1957   25.0823 H   0  0  0  0  0  0
  -20.9963  -28.3253   24.1430 H   0  0  0  0  0  0
  -20.5706  -26.2281   23.3600 H   0  0  0  0  0  0
  -21.6637  -26.7470   22.1188 H   0  0  0  0  0  0
  -19.6916  -25.6302   21.1237 H   0  0  0  0  0  0
  -19.6690  -27.3208   20.6752 H   0  0  0  0  0  0
  -17.4195  -26.6692   21.4022 H   0  0  0  0  0  0
  -18.0317  -26.0068   22.9018 H   0  0  0  0  0  0
  -19.7944  -30.7258   24.2283 H   0  0  0  0  0  0
  -17.5029  -31.6276   24.5163 H   0  0  0  0  0  0
  -15.5359  -30.2997   23.7665 H   0  0  0  0  0  0
  -15.8666  -28.0834   22.7069 H   0  0  0  0  0  0
  -24.5912  -30.7053   25.7777 H   0  0  0  0  0  0
  -24.8927  -32.2849   26.4918 H   0  0  0  0  0  0
  -25.8075  -30.8847   27.0210 H   0  0  0  0  0  0
  -26.2884  -29.6773   24.1192 H   0  0  0  0  0  0
  -27.4143  -29.7307   25.4564 H   0  0  0  0  0  0
  -27.8693  -30.4367   23.9235 H   0  0  0  0  0  0
  -27.2654  -33.3631   26.2063 H   0  0  0  0  0  0
  -28.3846  -32.6894   25.0314 H   0  0  0  0  0  0
  -28.0710  -31.8463   26.5408 H   0  0  0  0  0  0
  -28.2590  -38.0095   24.7518 H   0  0  0  0  0  0
  -28.1062  -36.2624   24.6300 H   0  0  0  0  0  0
  -27.2287  -37.1448   25.8874 H   0  0  0  0  0  0
  -20.9330  -29.8744   21.6911 H   0  0  0  0  0  0
  -26.0178  -38.2857   24.1423 H   0  0  0  0  0  0
  -33.3597  -18.7519   21.8128 H   0  0  0  0  0  0
  -31.7343  -20.5864   22.0173 H   0  0  0  0  0  0
  -32.6365  -16.4660   21.4148 H   0  0  0  0  0  0
  -28.5181  -17.8107   21.2210 H   0  0  0  0  0  0
  -30.1447  -24.0566   19.1753 H   0  0  0  0  0  0
  -30.6774  -24.2175   20.8321 H   0  0  0  0  0  0
  -31.1183  -21.9485   20.5882 H   0  0  0  0  0  0
  -29.8768  -21.7041   19.3734 H   0  0  0  0  0  0
  -27.6418  -22.6961   19.1082 H   0  0  0  0  0  0
  -27.7933  -24.3640   18.5845 H   0  0  0  0  0  0
  -26.5194  -23.9024   19.6951 H   0  0  0  0  0  0
  -26.2416  -23.6273   21.9982 H   0  0  0  0  0  0
  -26.6456  -22.3298   23.0737 H   0  0  0  0  0  0
  -26.3955  -22.0060   21.3564 H   0  0  0  0  0  0
  -28.4559  -24.3122   23.5348 H   0  0  0  0  0  0
  -30.0261  -23.7367   22.9917 H   0  0  0  0  0  0
  -28.9543  -22.6777   23.8806 H   0  0  0  0  0  0
  -29.0747  -25.7969   21.8239 H   0  0  0  0  0  0
  -27.3676  -25.5936   21.6618 H   0  0  0  0  0  0
  -29.0792  -15.3879   21.3119 H   0  0  0  0  0  0
  -28.0519  -19.2366   23.1097 H   0  0  0  0  0  0
  -27.3277  -20.8013   22.8901 H   0  0  0  0  0  0
  1 25  1  0  0  0
  1 30  2  0  0  0
  1 87  1  0  0  0
  2  3  1  0  0  0
  2 25  1  0  0  0
  2 89  1  0  0  0
  2 90  1  0  0  0
  3  4  1  0  0  0
  3 91  1  0  0  0
  3 92  1  0  0  0
  4  5  1  0  0  0
  4 93  1  0  0  0
  4 94  1  0  0  0
  5  6  1  0  0  0
  5 26  1  0  0  0
  5 95  1  0  0  0
  6 25  1  0  0  0
  6 96  1  0  0  0
  6 97  1  0  0  0
  7  8  2  0  0  0
  7 26  1  0  0  0
  7 29  1  0  0  0
  8  9  1  0  0  0
  8 22  1  0  0  0
  9 10  1  0  0  0
  9 27  2  0  0  0
 10 11  2  0  0  0
 10 15  1  0  0  0
 11 12  1  0  0  0
 11 98  1  0  0  0
 12 13  2  0  0  0
 12 99  1  0  0  0
 13 14  1  0  0  0
 13 31  1  0  0  0
 14 15  2  0  0  0
 14100  1  0  0  0
 15101  1  0  0  0
 16 17  2  0  0  0
 16 21  1  0  0  0
 16 31  1  0  0  0
 17 18  1  0  0  0
 17102  1  0  0  0
 18 19  2  0  0  0
 18103  1  0  0  0
 19 20  1  0  0  0
 19 24  1  0  0  0
 20 21  2  0  0  0
 20104  1  0  0  0
 21 23  1  0  0  0
 22 28  1  0  0  0
 22 32  2  0  0  0
 26 27  1  0  0  0
 28105  1  0  0  0
 28106  1  0  0  0
 29107  1  0  0  0
 29108  1  0  0  0
 33 34  1  0  0  0
 33 66  1  0  0  0
 33 70  2  0  0  0
 34 36  1  0  0  0
 34 59  1  0  0  0
 34109  1  0  0  0
 35 44  2  0  0  0
 35 45  1  0  0  0
 35 68  1  0  0  0
 36 56  1  0  0  0
 36110  1  0  0  0
 37 39  1  0  0  0
 37 47  1  0  0  0
 37 66  1  0  0  0
 37111  1  0  0  0
 38 43  2  0  0  0
 38 46  1  0  0  0
 38 47  1  0  0  0
 39 64  1  0  0  0
 39 67  2  0  0  0
 40 52  1  0  0  0
 40 53  2  0  0  0
 40 58  1  0  0  0
 41112  1  0  0  0
 41113  1  0  0  0
 41114  1  0  0  0
 41 48  1  0  0  0
 42 43  1  0  0  0
 42 66  1  0  0  0
 42115  1  0  0  0
 42116  1  0  0  0
 43 44  1  0  0  0
 44117  1  0  0  0
 45 46  2  0  0  0
 45118  1  0  0  0
 46119  1  0  0  0
 47120  1  0  0  0
 47121  1  0  0  0
 48 56  1  0  0  0
 48 65  1  0  0  0
 48122  1  0  0  0
 49 50  1  0  0  0
 49 53  1  0  0  0
 49 64  1  0  0  0
 49123  1  0  0  0
 50 51  1  0  0  0
 50124  1  0  0  0
 50125  1  0  0  0
 51 52  1  0  0  0
 51126  1  0  0  0
 51127  1  0  0  0
 52128  1  0  0  0
 52129  1  0  0  0
 53 54  1  0  0  0
 54 55  2  0  0  0
 54130  1  0  0  0
 55 57  1  0  0  0
 55131  1  0  0  0
 56 69  2  0  0  0
 57 58  2  0  0  0
 57132  1  0  0  0
 58133  1  0  0  0
 59 60  1  0  0  0
 59 61  1  0  0  0
 59 62  1  0  0  0
 60134  1  0  0  0
 60135  1  0  0  0
 60136  1  0  0  0
 61137  1  0  0  0
 61138  1  0  0  0
 61139  1  0  0  0
 62140  1  0  0  0
 62141  1  0  0  0
 62142  1  0  0  0
 63 65  1  0  0  0
 63143  1  0  0  0
 63144  1  0  0  0
 63145  1  0  0  0
 64146  1  0  0  0
 65147  1  0  0  0
 68 85  1  0  0  0
 71 72  2  0  0  0
 71 73  1  0  0  0
 71148  1  0  0  0
 72 75  1  0  0  0
 72149  1  0  0  0
 73 76  2  0  0  0
 73150  1  0  0  0
 74 75  2  0  0  0
 74 76  1  0  0  0
 74151  1  0  0  0
 75 77  1  0  0  0
 76 87  1  0  0  0
 77 86  1  0  0  0
 77 88  2  0  0  0
 78 79  1  0  0  0
 78 80  1  0  0  0
 78152  1  0  0  0
 78153  1  0  0  0
 79 86  1  0  0  0
 79154  1  0  0  0
 79155  1  0  0  0
 80 81  1  0  0  0
 80 82  1  0  0  0
 80 85  1  0  0  0
 81 83  1  0  0  0
 81 84  1  0  0  0
 81 86  1  0  0  0
 82156  1  0  0  0
 82157  1  0  0  0
 82158  1  0  0  0
 83159  1  0  0  0
 83160  1  0  0  0
 83161  1  0  0  0
 84162  1  0  0  0
 84163  1  0  0  0
 84164  1  0  0  0
 85165  1  0  0  0
 85166  1  0  0  0
 87167  1  0  0  0
 88168  1  0  0  0
 88169  1  0  0  0
M  CHG  1  88   1
M  ISO  4   1 100  68 101  85 101  87 100
M  END
> <chiral flag>
0

> <version>
0

> <s_m_source_file>
/data/baiqing/PycharmProjects/Reinvent-master-3.2/result/LINK_invent/BTK/process_docking_weight1_custom_product_contain_oxygen_bond_distance_aromatic_linkinvent_7_9_3/rearranged_h_0145.sdf

> <i_m_source_file_index>
63

> <r_mmod_Potential_Energy-OPLS-2005>
-40.9075355529785

> <r_mmod_Stretch_Energy-OPLS-2005>
60.3880729675293

> <r_mmod_Bend_Energy-OPLS-2005>
149.470779418945

> <r_mmod_Torsional_Energy-OPLS-2005>
344.723815917969

> <r_mmod_Improper_Torsional_Energy-OPLS-2005>
5.13742399215698

> <r_mmod_Van_der_Waal_Energy-OPLS-2005>
172.452423095703

> <r_mmod_Electrostatic_Energy-OPLS-2005>
-408.117034912109

> <r_mmod_Solvation_Energy-OPLS-2005>
-384.743865966797

> <b_mmod_Minimization_Converged-OPLS-2005>
0

> <r_mmod_RMS_Derivative-OPLS-2005>
0.996918261051178

$$$$
63
                    3D
 Structure written by MMmdl.
181191  0  0  1  0            999 V2000
  -30.7092  -14.5180   20.5470 C   0  0  0  0  0  0
  -30.4223  -12.3300   19.4404 C   0  0  0  0  0  0
  -29.4972  -12.4997   18.2189 C   0  0  0  0  0  0
  -28.0209  -12.3540   18.6333 C   0  0  0  0  0  0
  -27.6571  -13.2180   19.8704 C   0  0  2  0  0  0
  -28.7004  -13.0478   20.9996 C   0  0  0  0  0  0
  -25.2557  -13.8184   20.5701 C   0  0  0  0  0  0
  -24.1833  -13.0457   20.9205 C   0  0  0  0  0  0
  -24.6413  -11.6921   20.8780 C   0  0  0  0  0  0
  -23.9097  -10.4306   21.0445 C   0  0  0  0  0  0
  -24.3649   -9.4204   21.9203 C   0  0  0  0  0  0
  -23.6322   -8.2247   22.0764 C   0  0  0  0  0  0
  -22.4297   -8.0300   21.3558 C   0  0  0  0  0  0
  -21.9951   -9.0278   20.4651 C   0  0  0  0  0  0
  -22.7290  -10.2150   20.3069 C   0  0  0  0  0  0
  -21.6847   -6.0752   22.5289 C   0  0  0  0  0  0
  -21.4009   -6.5654   23.8225 C   0  0  0  0  0  0
  -21.3659   -5.6803   24.9190 C   0  0  0  0  0  0
  -21.6053   -4.3070   24.7230 C   0  0  0  0  0  0
  -21.8813   -3.8159   23.4350 C   0  0  0  0  0  0
  -21.9188   -4.6981   22.3406 C   0  0  0  0  0  0
  -22.7847  -13.5222   21.1879 C   0  0  0  0  0  0
  -22.1653   -4.2175   21.0986 F   0  0  0  0  0  0
  -21.5631   -3.4544   25.7739 F   0  0  0  0  0  0
  -30.0300  -13.3404   20.4408 N   0  0  0  0  0  0
  -26.3012  -12.9388   20.3378 N   0  0  0  0  0  0
  -25.9337  -11.6544   20.5800 N   0  0  0  0  0  0
  -22.0485  -12.8204   22.0414 N   0  0  0  0  0  0
  -25.4270  -15.1917   20.4065 N   0  0  0  0  0  0
  -31.8507  -14.6448   20.1006 O   0  0  0  0  0  0
  -21.6644   -6.8910   21.4256 O   0  0  0  0  0  0
  -22.3527  -14.5548   20.6746 O   0  0  0  0  0  0
  -24.6163  -31.8653   23.2116 C   0  0  0  0  0  0
  -25.9070  -32.4797   23.8380 C   0  0  1  0  0  0
  -27.2078  -27.3897   20.1182 C   0  0  0  0  0  0
  -25.5933  -33.8594   24.2305 N   0  0  0  0  0  0
  -23.4048  -30.4935   21.5533 C   0  0  2  0  0  0
  -24.8457  -28.9678   20.1044 C   0  0  0  0  0  0
  -22.7410  -29.4636   22.4978 C   0  0  0  0  0  0
  -18.0265  -28.1345   22.8465 C   0  0  0  0  0  0
  -24.1509  -36.7308   23.2643 C   0  0  0  0  0  0
  -25.9367  -30.8271   21.3651 C   0  0  0  0  0  0
  -26.0108  -29.4612   20.7062 C   0  0  0  0  0  0
  -27.1974  -28.6828   20.7016 C   0  0  0  0  0  0
  -26.0257  -26.9355   19.4873 C   0  0  0  0  0  0
  -24.8519  -27.7096   19.4836 C   0  0  0  0  0  0
  -23.6105  -29.8376   20.1639 C   0  0  0  0  0  0
  -25.4125  -36.3086   24.0322 C   0  0  1  0  0  0
  -20.5852  -28.3637   23.1282 C   0  0  2  0  0  0
  -20.6749  -26.9362   22.5401 C   0  0  0  0  0  0
  -19.5742  -26.6359   21.5181 C   0  0  0  0  0  0
  -18.1917  -26.7905   22.1587 C   0  0  0  0  0  0
  -19.1513  -28.8806   23.2864 C   0  0  0  0  0  0
  -18.9461  -30.1417   23.8869 C   0  0  0  0  0  0
  -17.6472  -30.6566   24.0546 C   0  0  0  0  0  0
  -25.9054  -34.9446   23.5088 C   0  0  0  0  0  0
  -16.5343  -29.9058   23.6353 C   0  0  0  0  0  0
  -16.7257  -28.6472   23.0347 C   0  0  0  0  0  0
  -26.4502  -31.6585   25.0707 C   0  0  0  0  0  0
  -25.3755  -31.3688   26.1441 C   0  0  0  0  0  0
  -27.0346  -30.3037   24.6085 C   0  0  0  0  0  0
  -27.6066  -32.4311   25.7471 C   0  0  0  0  0  0
  -27.5582  -37.1803   24.8459 C   0  0  0  0  0  0
  -21.4136  -29.3007   22.3698 N   0  0  0  0  0  0
  -26.4304  -37.3768   23.9400 N   0  0  0  0  0  0
  -24.6716  -31.0740   22.1021 N   0  0  0  0  0  0
  -23.4156  -28.8143   23.3020 O   0  0  0  0  0  0
  -28.3302  -26.5757   20.2071 O   0  0  0  0  0  0
  -26.5609  -34.8894   22.4649 O   0  0  0  0  0  0
  -23.5355  -32.1396   23.7525 O   0  0  0  0  0  0
  -31.0679  -19.7307   20.6813 C   0  0  0  0  0  0
  -31.7003  -17.4151   21.1236 C   0  0  0  0  0  0
  -29.3856  -17.9690   20.6594 C   0  0  0  0  0  0
  -32.0605  -18.7773   21.0218 C   0  0  0  0  0  0
  -29.7203  -19.3472   20.4716 C   0  0  0  0  0  0
  -30.3716  -16.9807   20.9241 C   0  0  0  0  0  0
  -33.4903  -19.1547   21.2580 C   0  0  0  0  0  0
  -29.1344  -21.8956   20.0679 C   0  0  0  0  0  0
  -28.2176  -23.7758   23.1513 C   0  0  0  0  0  0
  -25.9922  -20.4683   17.4319 C   0  0  0  0  0  0
  -26.5845  -19.0783   17.2024 C   0  0  0  0  0  0
  -29.3202  -24.5998   22.4706 C   0  0  0  0  0  0
  -28.0735  -22.5191   22.2727 C   0  0  0  0  0  0
  -27.0029  -21.1890   18.3487 C   0  0  0  0  0  0
  -27.4462  -18.8628   18.4430 C   0  0  0  0  0  0
  -29.1603  -24.2720   20.9808 C   0  0  2  0  0  0
  -33.8614  -20.6349   21.2805 C   0  0  0  0  0  0
  -28.0649  -25.1461   20.2871 C   0  0  0  0  0  0
  -28.6612  -20.4261   20.0859 C   0  0  1  0  0  0
  -28.7923  -22.8224   21.0170 N   0  0  0  0  0  0
  -30.0057  -15.5865   21.0079 N   0  0  0  0  0  0
  -29.9450  -22.2913   19.0607 N   0  3  0  0  0  0
  -28.0350  -20.1888   18.7391 N   0  3  0  0  0  0
  -34.3840  -18.3243   21.4515 O   0  0  0  0  0  0
  -31.4638  -12.4237   19.1308 H   0  0  0  0  0  0
  -30.3292  -11.3272   19.8610 H   0  0  0  0  0  0
  -29.7424  -11.7625   17.4538 H   0  0  0  0  0  0
  -29.6581  -13.4787   17.7668 H   0  0  0  0  0  0
  -27.8460  -11.3002   18.8550 H   0  0  0  0  0  0
  -27.3686  -12.6026   17.7958 H   0  0  0  0  0  0
  -27.6887  -14.2593   19.5461 H   0  0  0  0  0  0
  -28.6788  -12.0313   21.3972 H   0  0  0  0  0  0
  -28.4619  -13.6991   21.8421 H   0  0  0  0  0  0
  -25.2792   -9.5655   22.4778 H   0  0  0  0  0  0
  -24.0018   -7.4624   22.7471 H   0  0  0  0  0  0
  -21.0889   -8.8817   19.8933 H   0  0  0  0  0  0
  -22.3784  -10.9703   19.6173 H   0  0  0  0  0  0
  -21.1997   -7.6165   23.9742 H   0  0  0  0  0  0
  -21.1488   -6.0532   25.9099 H   0  0  0  0  0  0
  -22.0591   -2.7624   23.2845 H   0  0  0  0  0  0
  -22.4091  -11.9838   22.4767 H   0  0  0  0  0  0
  -21.1098  -13.1213   22.2632 H   0  0  0  0  0  0
  -24.6578  -15.8449   20.5058 H   0  0  0  0  0  0
  -26.2759  -15.6236   20.0698 H   0  0  0  0  0  0
  -26.7123  -32.5533   23.1118 H   0  0  0  0  0  0
  -25.0096  -33.9736   25.0457 H   0  0  0  0  0  0
  -22.6959  -31.3132   21.4200 H   0  0  0  0  0  0
  -23.3754  -35.9669   23.3310 H   0  0  0  0  0  0
  -24.3612  -36.8925   22.2067 H   0  0  0  0  0  0
  -23.7273  -37.6511   23.6663 H   0  0  0  0  0  0
  -26.0433  -31.5992   20.6015 H   0  0  0  0  0  0
  -26.8256  -30.8732   21.9830 H   0  0  0  0  0  0
  -28.0926  -29.0487   21.1857 H   0  0  0  0  0  0
  -25.9808  -25.9710   19.0017 H   0  0  0  0  0  0
  -23.9578  -27.3326   19.0042 H   0  0  0  0  0  0
  -23.7142  -30.6174   19.4079 H   0  0  0  0  0  0
  -22.7320  -29.2587   19.8727 H   0  0  0  0  0  0
  -25.1294  -36.1950   25.0811 H   0  0  0  0  0  0
  -20.9934  -28.3231   24.1398 H   0  0  0  0  0  0
  -20.5666  -26.2218   23.3584 H   0  0  0  0  0  0
  -21.6625  -26.7414   22.1182 H   0  0  0  0  0  0
  -19.6931  -25.6274   21.1204 H   0  0  0  0  0  0
  -19.6737  -27.3176   20.6726 H   0  0  0  0  0  0
  -17.4193  -26.6641   21.3993 H   0  0  0  0  0  0
  -18.0316  -26.0054   22.8980 H   0  0  0  0  0  0
  -19.7938  -30.7197   24.2260 H   0  0  0  0  0  0
  -17.5030  -31.6275   24.5088 H   0  0  0  0  0  0
  -15.5328  -30.2925   23.7727 H   0  0  0  0  0  0
  -15.8649  -28.0783   22.7079 H   0  0  0  0  0  0
  -24.5934  -30.7031   25.7768 H   0  0  0  0  0  0
  -24.8940  -32.2837   26.4895 H   0  0  0  0  0  0
  -25.8091  -30.8852   27.0194 H   0  0  0  0  0  0
  -26.2885  -29.6766   24.1200 H   0  0  0  0  0  0
  -27.4162  -29.7310   25.4542 H   0  0  0  0  0  0
  -27.8687  -30.4347   23.9195 H   0  0  0  0  0  0
  -27.2686  -33.3608   26.2049 H   0  0  0  0  0  0
  -28.3887  -32.6869   25.0314 H   0  0  0  0  0  0
  -28.0720  -31.8436   26.5391 H   0  0  0  0  0  0
  -28.2568  -38.0135   24.7491 H   0  0  0  0  0  0
  -28.1090  -36.2629   24.6282 H   0  0  0  0  0  0
  -27.2276  -37.1445   25.8859 H   0  0  0  0  0  0
  -20.9285  -29.8738   21.6933 H   0  0  0  0  0  0
  -26.0190  -38.2832   24.1435 H   0  0  0  0  0  0
  -31.3442  -20.7720   20.5986 H   0  0  0  0  0  0
  -32.4653  -16.6948   21.3733 H   0  0  0  0  0  0
  -28.3626  -17.6383   20.5682 H   0  0  0  0  0  0
  -27.2798  -24.3334   23.1756 H   0  0  0  0  0  0
  -28.4771  -23.5347   24.1838 H   0  0  0  0  0  0
  -25.0272  -20.3800   17.9370 H   0  0  0  0  0  0
  -25.8210  -21.0041   16.4961 H   0  0  0  0  0  0
  -27.2124  -19.0745   16.3089 H   0  0  0  0  0  0
  -25.8300  -18.3006   17.0777 H   0  0  0  0  0  0
  -30.3034  -24.2710   22.8122 H   0  0  0  0  0  0
  -29.2468  -25.6657   22.6890 H   0  0  0  0  0  0
  -27.0258  -22.2635   22.0989 H   0  0  0  0  0  0
  -28.5542  -21.6742   22.7694 H   0  0  0  0  0  0
  -26.4792  -21.5775   19.2243 H   0  0  0  0  0  0
  -27.4544  -22.0427   17.8397 H   0  0  0  0  0  0
  -28.1939  -18.0877   18.2680 H   0  0  0  0  0  0
  -26.8047  -18.5555   19.2698 H   0  0  0  0  0  0
  -30.1160  -24.4246   20.4776 H   0  0  0  0  0  0
  -33.6025  -21.1127   20.3381 H   0  0  0  0  0  0
  -34.9357  -20.7424   21.4271 H   0  0  0  0  0  0
  -33.3606  -21.1533   22.0968 H   0  0  0  0  0  0
  -27.1227  -24.9675   20.8093 H   0  0  0  0  0  0
  -27.9210  -24.7716   19.2737 H   0  0  0  0  0  0
  -27.8631  -20.3293   20.8229 H   0  0  0  0  0  0
  -29.0546  -15.3832   21.2728 H   0  0  0  0  0  0
  -30.2437  -23.2523   18.9947 H   0  0  0  0  0  0
  -30.4518  -21.6449   18.4745 H   0  0  0  0  0  0
  -28.7757  -20.2996   18.0645 H   0  0  0  0  0  0
  1 25  1  0  0  0
  1 30  2  0  0  0
  1 91  1  0  0  0
  2  3  1  0  0  0
  2 25  1  0  0  0
  2 95  1  0  0  0
  2 96  1  0  0  0
  3  4  1  0  0  0
  3 97  1  0  0  0
  3 98  1  0  0  0
  4  5  1  0  0  0
  4 99  1  0  0  0
  4100  1  0  0  0
  5  6  1  0  0  0
  5 26  1  0  0  0
  5101  1  0  0  0
  6 25  1  0  0  0
  6102  1  0  0  0
  6103  1  0  0  0
  7  8  2  0  0  0
  7 26  1  0  0  0
  7 29  1  0  0  0
  8  9  1  0  0  0
  8 22  1  0  0  0
  9 10  1  0  0  0
  9 27  2  0  0  0
 10 11  2  0  0  0
 10 15  1  0  0  0
 11 12  1  0  0  0
 11104  1  0  0  0
 12 13  2  0  0  0
 12105  1  0  0  0
 13 14  1  0  0  0
 13 31  1  0  0  0
 14 15  2  0  0  0
 14106  1  0  0  0
 15107  1  0  0  0
 16 17  2  0  0  0
 16 21  1  0  0  0
 16 31  1  0  0  0
 17 18  1  0  0  0
 17108  1  0  0  0
 18 19  2  0  0  0
 18109  1  0  0  0
 19 20  1  0  0  0
 19 24  1  0  0  0
 20 21  2  0  0  0
 20110  1  0  0  0
 21 23  1  0  0  0
 22 28  1  0  0  0
 22 32  2  0  0  0
 26 27  1  0  0  0
 28111  1  0  0  0
 28112  1  0  0  0
 29113  1  0  0  0
 29114  1  0  0  0
 33 34  1  0  0  0
 33 66  1  0  0  0
 33 70  2  0  0  0
 34 36  1  0  0  0
 34 59  1  0  0  0
 34115  1  0  0  0
 35 44  2  0  0  0
 35 45  1  0  0  0
 35 68  1  0  0  0
 36 56  1  0  0  0
 36116  1  0  0  0
 37 39  1  0  0  0
 37 47  1  0  0  0
 37 66  1  0  0  0
 37117  1  0  0  0
 38 43  2  0  0  0
 38 46  1  0  0  0
 38 47  1  0  0  0
 39 64  1  0  0  0
 39 67  2  0  0  0
 40 52  1  0  0  0
 40 53  2  0  0  0
 40 58  1  0  0  0
 41118  1  0  0  0
 41119  1  0  0  0
 41120  1  0  0  0
 41 48  1  0  0  0
 42 43  1  0  0  0
 42 66  1  0  0  0
 42121  1  0  0  0
 42122  1  0  0  0
 43 44  1  0  0  0
 44123  1  0  0  0
 45 46  2  0  0  0
 45124  1  0  0  0
 46125  1  0  0  0
 47126  1  0  0  0
 47127  1  0  0  0
 48 56  1  0  0  0
 48 65  1  0  0  0
 48128  1  0  0  0
 49 50  1  0  0  0
 49 53  1  0  0  0
 49 64  1  0  0  0
 49129  1  0  0  0
 50 51  1  0  0  0
 50130  1  0  0  0
 50131  1  0  0  0
 51 52  1  0  0  0
 51132  1  0  0  0
 51133  1  0  0  0
 52134  1  0  0  0
 52135  1  0  0  0
 53 54  1  0  0  0
 54 55  2  0  0  0
 54136  1  0  0  0
 55 57  1  0  0  0
 55137  1  0  0  0
 56 69  2  0  0  0
 57 58  2  0  0  0
 57138  1  0  0  0
 58139  1  0  0  0
 59 60  1  0  0  0
 59 61  1  0  0  0
 59 62  1  0  0  0
 60140  1  0  0  0
 60141  1  0  0  0
 60142  1  0  0  0
 61143  1  0  0  0
 61144  1  0  0  0
 61145  1  0  0  0
 62146  1  0  0  0
 62147  1  0  0  0
 62148  1  0  0  0
 63 65  1  0  0  0
 63149  1  0  0  0
 63150  1  0  0  0
 63151  1  0  0  0
 64152  1  0  0  0
 65153  1  0  0  0
 68 88  1  0  0  0
 71 74  2  0  0  0
 71 75  1  0  0  0
 71154  1  0  0  0
 72 74  1  0  0  0
 72 76  2  0  0  0
 72155  1  0  0  0
 73 75  2  0  0  0
 73 76  1  0  0  0
 73156  1  0  0  0
 74 77  1  0  0  0
 75 89  1  0  0  0
 76 91  1  0  0  0
 77 87  1  0  0  0
 77 94  2  0  0  0
 78 90  1  0  0  0
 78 92  2  0  0  0
 78 89  1  0  0  0
 79 82  1  0  0  0
 79 83  1  0  0  0
 79157  1  0  0  0
 79158  1  0  0  0
 80 81  1  0  0  0
 80 84  1  0  0  0
 80159  1  0  0  0
 80160  1  0  0  0
 81 85  1  0  0  0
 81161  1  0  0  0
 81162  1  0  0  0
 82 86  1  0  0  0
 82163  1  0  0  0
 82164  1  0  0  0
 83 90  1  0  0  0
 83165  1  0  0  0
 83166  1  0  0  0
 84167  1  0  0  0
 84168  1  0  0  0
 84 93  1  0  0  0
 85 93  1  0  0  0
 85169  1  0  0  0
 85170  1  0  0  0
 86 88  1  0  0  0
 86 90  1  0  0  0
 86171  1  0  0  0
 87172  1  0  0  0
 87173  1  0  0  0
 87174  1  0  0  0
 88175  1  0  0  0
 88176  1  0  0  0
 89 93  1  0  0  0
 89177  1  0  0  0
 91178  1  0  0  0
 92179  1  0  0  0
 92180  1  0  0  0
 93181  1  0  0  0
M  CHG  2  92   1  93   1
M  ISO  4   1 100  68 101  88 101  91 100
M  END
> <chiral flag>
0

> <version>
0

> <s_m_source_file>
/data/baiqing/PycharmProjects/Reinvent-master-3.2/result/LINK_invent/BTK/process_docking_weight1_custom_product_contain_oxygen_bond_distance_aromatic_linkinvent_7_9_3/rearranged_h_0145.sdf

> <i_m_source_file_index>
64

> <r_mmod_Potential_Energy-OPLS-2005>
-88.7077407836914

> <r_mmod_Stretch_Energy-OPLS-2005>
58.9010848999023

> <r_mmod_Bend_Energy-OPLS-2005>
165.859649658203

> <r_mmod_Torsional_Energy-OPLS-2005>
385.180725097656

> <r_mmod_Improper_Torsional_Energy-OPLS-2005>
4.84881639480591

> <r_mmod_Van_der_Waal_Energy-OPLS-2005>
154.087005615234

> <r_mmod_Electrostatic_Energy-OPLS-2005>
171.079727172852

> <r_mmod_Solvation_Energy-OPLS-2005>
-1053.79296875

> <b_mmod_Minimization_Converged-OPLS-2005>
0

> <r_mmod_RMS_Derivative-OPLS-2005>
3.66680455207825

$$$$
64
                    3D
 Structure written by MMmdl.
150158  0  0  1  0            999 V2000
  -30.6903  -14.4896   20.5481 C   0  0  0  0  0  0
  -30.4247  -12.3085   19.4289 C   0  0  0  0  0  0
  -29.4967  -12.4963   18.2105 C   0  0  0  0  0  0
  -28.0178  -12.3584   18.6228 C   0  0  0  0  0  0
  -27.6613  -13.2064   19.8731 C   0  0  2  0  0  0
  -28.7034  -12.9976   20.9958 C   0  0  0  0  0  0
  -25.2587  -13.8160   20.5680 C   0  0  0  0  0  0
  -24.1835  -13.0440   20.9180 C   0  0  0  0  0  0
  -24.6388  -11.6907   20.8737 C   0  0  0  0  0  0
  -23.9052  -10.4295   21.0405 C   0  0  0  0  0  0
  -24.3607   -9.4210   21.9182 C   0  0  0  0  0  0
  -23.6286   -8.2242   22.0750 C   0  0  0  0  0  0
  -22.4265   -8.0281   21.3544 C   0  0  0  0  0  0
  -21.9903   -9.0251   20.4645 C   0  0  0  0  0  0
  -22.7226  -10.2134   20.3054 C   0  0  0  0  0  0
  -21.6853   -6.0732   22.5279 C   0  0  0  0  0  0
  -21.4011   -6.5634   23.8212 C   0  0  0  0  0  0
  -21.3660   -5.6789   24.9175 C   0  0  0  0  0  0
  -21.6045   -4.3054   24.7225 C   0  0  0  0  0  0
  -21.8820   -3.8145   23.4347 C   0  0  0  0  0  0
  -21.9191   -4.6960   22.3404 C   0  0  0  0  0  0
  -22.7859  -13.5242   21.1847 C   0  0  0  0  0  0
  -22.1661   -4.2145   21.0984 F   0  0  0  0  0  0
  -21.5632   -3.4538   25.7737 F   0  0  0  0  0  0
  -30.0340  -13.3010   20.4429 N   0  0  0  0  0  0
  -26.3022  -12.9331   20.3360 N   0  0  0  0  0  0
  -25.9316  -11.6491   20.5764 N   0  0  0  0  0  0
  -22.0498  -12.8235   22.0403 N   0  0  0  0  0  0
  -25.4322  -15.1879   20.4091 N   0  0  0  0  0  0
  -31.8300  -14.6542   20.1032 O   0  0  0  0  0  0
  -21.6639   -6.8874   21.4240 O   0  0  0  0  0  0
  -22.3549  -14.5551   20.6701 O   0  0  0  0  0  0
  -24.6146  -31.8677   23.2092 C   0  0  0  0  0  0
  -25.9034  -32.4824   23.8401 C   0  0  1  0  0  0
  -27.2336  -27.4280   20.1035 C   0  0  0  0  0  0
  -25.5890  -33.8619   24.2335 N   0  0  0  0  0  0
  -23.4044  -30.4909   21.5492 C   0  0  2  0  0  0
  -24.8535  -28.9578   20.1122 C   0  0  0  0  0  0
  -22.7417  -29.4656   22.4978 C   0  0  0  0  0  0
  -18.0276  -28.1379   22.8492 C   0  0  0  0  0  0
  -24.1486  -36.7311   23.2640 C   0  0  0  0  0  0
  -25.9345  -30.8324   21.3640 C   0  0  0  0  0  0
  -26.0146  -29.4668   20.7100 C   0  0  0  0  0  0
  -27.2112  -28.7102   20.7005 C   0  0  0  0  0  0
  -26.0603  -26.9408   19.4884 C   0  0  0  0  0  0
  -24.8718  -27.6944   19.4963 C   0  0  0  0  0  0
  -23.6144  -29.8237   20.1633 C   0  0  0  0  0  0
  -25.4105  -36.3110   24.0344 C   0  0  1  0  0  0
  -20.5868  -28.3662   23.1313 C   0  0  2  0  0  0
  -20.6763  -26.9395   22.5417 C   0  0  0  0  0  0
  -19.5742  -26.6387   21.5211 C   0  0  0  0  0  0
  -18.1923  -26.7925   22.1626 C   0  0  0  0  0  0
  -19.1526  -28.8836   23.2901 C   0  0  0  0  0  0
  -18.9453  -30.1445   23.8909 C   0  0  0  0  0  0
  -17.6456  -30.6583   24.0565 C   0  0  0  0  0  0
  -25.9030  -34.9476   23.5138 C   0  0  0  0  0  0
  -16.5348  -29.9084   23.6330 C   0  0  0  0  0  0
  -16.7266  -28.6502   23.0349 C   0  0  0  0  0  0
  -26.4464  -31.6594   25.0721 C   0  0  0  0  0  0
  -25.3734  -31.3696   26.1474 C   0  0  0  0  0  0
  -27.0295  -30.3038   24.6087 C   0  0  0  0  0  0
  -27.6055  -32.4300   25.7474 C   0  0  0  0  0  0
  -27.5583  -37.1810   24.8468 C   0  0  0  0  0  0
  -21.4144  -29.3035   22.3722 N   0  0  0  0  0  0
  -26.4295  -37.3788   23.9409 N   0  0  0  0  0  0
  -24.6696  -31.0776   22.0998 N   0  0  0  0  0  0
  -23.4186  -28.8205   23.3027 O   0  0  0  0  0  0
  -28.3683  -26.6435   20.1211 O   0  0  0  0  0  0
  -26.5593  -34.8925   22.4701 O   0  0  0  0  0  0
  -23.5333  -32.1432   23.7477 O   0  0  0  0  0  0
  -31.0316  -18.9835   20.3654 C   0  0  0  0  0  0
  -31.2264  -17.5671   20.4148 C   0  0  0  0  0  0
  -29.7954  -19.4008   20.8021 C   0  0  0  0  0  0
  -30.1423  -16.8593   20.8847 C   0  0  0  0  0  0
  -28.8916  -22.9708   20.8234 C   0  0  0  0  0  0
  -29.1336  -24.2716   20.5058 C   0  0  0  0  0  0
  -29.7577  -21.8412   20.4732 C   0  0  0  0  0  0
  -28.2214  -25.4390   20.9055 C   0  0  0  0  0  0
  -29.2637  -20.6582   20.9042 N   0  0  0  0  0  0
  -29.9554  -15.5112   21.0428 N   0  0  0  0  0  0
  -30.8204  -21.9503   19.8537 O   0  0  0  0  0  0
  -30.1971  -24.7066   19.8069 O   0  0  0  0  0  0
  -28.8669  -17.9935   21.2957 S   0  0  0  0  0  0
  -31.4694  -12.4043   19.1275 H   0  0  0  0  0  0
  -30.3253  -11.3004   19.8349 H   0  0  0  0  0  0
  -29.7381  -11.7641   17.4389 H   0  0  0  0  0  0
  -29.6656  -13.4778   17.7641 H   0  0  0  0  0  0
  -27.8317  -11.3036   18.8283 H   0  0  0  0  0  0
  -27.3666  -12.6236   17.7893 H   0  0  0  0  0  0
  -27.7020  -14.2521   19.5668 H   0  0  0  0  0  0
  -28.6808  -11.9642   21.3454 H   0  0  0  0  0  0
  -28.4651  -13.6048   21.8700 H   0  0  0  0  0  0
  -25.2754   -9.5685   22.4754 H   0  0  0  0  0  0
  -23.9999   -7.4633   22.7468 H   0  0  0  0  0  0
  -21.0836   -8.8766   19.8954 H   0  0  0  0  0  0
  -22.3684  -10.9669   19.6159 H   0  0  0  0  0  0
  -21.2002   -7.6141   23.9712 H   0  0  0  0  0  0
  -21.1483   -6.0521   25.9077 H   0  0  0  0  0  0
  -22.0598   -2.7605   23.2849 H   0  0  0  0  0  0
  -22.4111  -11.9893   22.4788 H   0  0  0  0  0  0
  -21.1118  -13.1265   22.2613 H   0  0  0  0  0  0
  -24.6659  -15.8436   20.5144 H   0  0  0  0  0  0
  -26.2838  -15.6245   20.0799 H   0  0  0  0  0  0
  -26.7111  -32.5536   23.1172 H   0  0  0  0  0  0
  -25.0041  -33.9784   25.0482 H   0  0  0  0  0  0
  -22.6934  -31.3077   21.4089 H   0  0  0  0  0  0
  -23.3746  -35.9647   23.3313 H   0  0  0  0  0  0
  -24.3580  -36.8904   22.2051 H   0  0  0  0  0  0
  -23.7244  -37.6525   23.6641 H   0  0  0  0  0  0
  -26.0486  -31.5996   20.5971 H   0  0  0  0  0  0
  -26.8223  -30.8859   21.9822 H   0  0  0  0  0  0
  -28.1062  -29.0943   21.1703 H   0  0  0  0  0  0
  -26.0644  -25.9707   19.0103 H   0  0  0  0  0  0
  -23.9809  -27.2985   19.0275 H   0  0  0  0  0  0
  -23.7219  -30.5996   19.4044 H   0  0  0  0  0  0
  -22.7388  -29.2429   19.8676 H   0  0  0  0  0  0
  -25.1281  -36.1980   25.0837 H   0  0  0  0  0  0
  -20.9973  -28.3231   24.1429 H   0  0  0  0  0  0
  -20.5665  -26.2266   23.3604 H   0  0  0  0  0  0
  -21.6632  -26.7434   22.1210 H   0  0  0  0  0  0
  -19.6895  -25.6304   21.1228 H   0  0  0  0  0  0
  -19.6682  -27.3212   20.6752 H   0  0  0  0  0  0
  -17.4192  -26.6677   21.4027 H   0  0  0  0  0  0
  -18.0318  -26.0068   22.9021 H   0  0  0  0  0  0
  -19.7929  -30.7256   24.2283 H   0  0  0  0  0  0
  -17.5012  -31.6264   24.5165 H   0  0  0  0  0  0
  -15.5351  -30.2990   23.7643 H   0  0  0  0  0  0
  -15.8666  -28.0829   22.7051 H   0  0  0  0  0  0
  -24.5899  -30.7050   25.7812 H   0  0  0  0  0  0
  -24.8930  -32.2846   26.4946 H   0  0  0  0  0  0
  -25.8089  -30.8848   27.0219 H   0  0  0  0  0  0
  -26.2841  -29.6795   24.1148 H   0  0  0  0  0  0
  -27.4084  -29.7269   25.4533 H   0  0  0  0  0  0
  -27.8664  -30.4365   23.9227 H   0  0  0  0  0  0
  -27.2704  -33.3593   26.2089 H   0  0  0  0  0  0
  -28.3846  -32.6865   25.0285 H   0  0  0  0  0  0
  -28.0748  -31.8395   26.5351 H   0  0  0  0  0  0
  -28.2614  -38.0096   24.7505 H   0  0  0  0  0  0
  -28.1064  -36.2626   24.6306 H   0  0  0  0  0  0
  -27.2298  -37.1479   25.8871 H   0  0  0  0  0  0
  -20.9300  -29.8765   21.6955 H   0  0  0  0  0  0
  -26.0185  -38.2867   24.1403 H   0  0  0  0  0  0
  -31.8176  -19.6347   20.0112 H   0  0  0  0  0  0
  -32.1622  -17.1338   20.0931 H   0  0  0  0  0  0
  -27.9918  -22.7641   21.3864 H   0  0  0  0  0  0
  -28.4360  -25.6881   21.9456 H   0  0  0  0  0  0
  -27.1960  -25.0661   20.8965 H   0  0  0  0  0  0
  -28.3647  -20.7127   21.3631 H   0  0  0  0  0  0
  -29.0579  -15.2342   21.4110 H   0  0  0  0  0  0
  -30.7297  -23.9449   19.5960 H   0  0  0  0  0  0
  1 25  1  0  0  0
  1 30  2  0  0  0
  1 80  1  0  0  0
  2  3  1  0  0  0
  2 25  1  0  0  0
  2 84  1  0  0  0
  2 85  1  0  0  0
  3  4  1  0  0  0
  3 86  1  0  0  0
  3 87  1  0  0  0
  4  5  1  0  0  0
  4 88  1  0  0  0
  4 89  1  0  0  0
  5  6  1  0  0  0
  5 26  1  0  0  0
  5 90  1  0  0  0
  6 25  1  0  0  0
  6 91  1  0  0  0
  6 92  1  0  0  0
  7  8  2  0  0  0
  7 26  1  0  0  0
  7 29  1  0  0  0
  8  9  1  0  0  0
  8 22  1  0  0  0
  9 10  1  0  0  0
  9 27  2  0  0  0
 10 11  2  0  0  0
 10 15  1  0  0  0
 11 12  1  0  0  0
 11 93  1  0  0  0
 12 13  2  0  0  0
 12 94  1  0  0  0
 13 14  1  0  0  0
 13 31  1  0  0  0
 14 15  2  0  0  0
 14 95  1  0  0  0
 15 96  1  0  0  0
 16 17  2  0  0  0
 16 21  1  0  0  0
 16 31  1  0  0  0
 17 18  1  0  0  0
 17 97  1  0  0  0
 18 19  2  0  0  0
 18 98  1  0  0  0
 19 20  1  0  0  0
 19 24  1  0  0  0
 20 21  2  0  0  0
 20 99  1  0  0  0
 21 23  1  0  0  0
 22 28  1  0  0  0
 22 32  2  0  0  0
 26 27  1  0  0  0
 28100  1  0  0  0
 28101  1  0  0  0
 29102  1  0  0  0
 29103  1  0  0  0
 33 34  1  0  0  0
 33 66  1  0  0  0
 33 70  2  0  0  0
 34 36  1  0  0  0
 34 59  1  0  0  0
 34104  1  0  0  0
 35 44  2  0  0  0
 35 45  1  0  0  0
 35 68  1  0  0  0
 36 56  1  0  0  0
 36105  1  0  0  0
 37 39  1  0  0  0
 37 47  1  0  0  0
 37 66  1  0  0  0
 37106  1  0  0  0
 38 43  2  0  0  0
 38 46  1  0  0  0
 38 47  1  0  0  0
 39 64  1  0  0  0
 39 67  2  0  0  0
 40 52  1  0  0  0
 40 53  2  0  0  0
 40 58  1  0  0  0
 41107  1  0  0  0
 41108  1  0  0  0
 41109  1  0  0  0
 41 48  1  0  0  0
 42 43  1  0  0  0
 42 66  1  0  0  0
 42110  1  0  0  0
 42111  1  0  0  0
 43 44  1  0  0  0
 44112  1  0  0  0
 45 46  2  0  0  0
 45113  1  0  0  0
 46114  1  0  0  0
 47115  1  0  0  0
 47116  1  0  0  0
 48 56  1  0  0  0
 48 65  1  0  0  0
 48117  1  0  0  0
 49 50  1  0  0  0
 49 53  1  0  0  0
 49 64  1  0  0  0
 49118  1  0  0  0
 50 51  1  0  0  0
 50119  1  0  0  0
 50120  1  0  0  0
 51 52  1  0  0  0
 51121  1  0  0  0
 51122  1  0  0  0
 52123  1  0  0  0
 52124  1  0  0  0
 53 54  1  0  0  0
 54 55  2  0  0  0
 54125  1  0  0  0
 55 57  1  0  0  0
 55126  1  0  0  0
 56 69  2  0  0  0
 57 58  2  0  0  0
 57127  1  0  0  0
 58128  1  0  0  0
 59 60  1  0  0  0
 59 61  1  0  0  0
 59 62  1  0  0  0
 60129  1  0  0  0
 60130  1  0  0  0
 60131  1  0  0  0
 61132  1  0  0  0
 61133  1  0  0  0
 61134  1  0  0  0
 62135  1  0  0  0
 62136  1  0  0  0
 62137  1  0  0  0
 63 65  1  0  0  0
 63138  1  0  0  0
 63139  1  0  0  0
 63140  1  0  0  0
 64141  1  0  0  0
 65142  1  0  0  0
 68 78  1  0  0  0
 71 72  1  0  0  0
 71 73  2  0  0  0
 71143  1  0  0  0
 72 74  2  0  0  0
 72144  1  0  0  0
 73 79  1  0  0  0
 73 83  1  0  0  0
 74 80  1  0  0  0
 74 83  1  0  0  0
 75 76  2  0  0  0
 75 77  1  0  0  0
 75145  1  0  0  0
 76 78  1  0  0  0
 76 82  1  0  0  0
 77 79  1  0  0  0
 77 81  2  0  0  0
 78146  1  0  0  0
 78147  1  0  0  0
 79148  1  0  0  0
 80149  1  0  0  0
 82150  1  0  0  0
M  ISO  4   1 100  68 101  78 101  80 100
M  END
> <chiral flag>
0

> <version>
0

> <s_m_source_file>
/data/baiqing/PycharmProjects/Reinvent-master-3.2/result/LINK_invent/BTK/process_docking_weight1_custom_product_contain_oxygen_bond_distance_aromatic_linkinvent_7_9_3/rearranged_h_0145.sdf

> <i_m_source_file_index>
65

> <r_mmod_Potential_Energy-OPLS-2005>
-86.7134017944336

> <r_mmod_Stretch_Energy-OPLS-2005>
38.6178703308105

> <r_mmod_Bend_Energy-OPLS-2005>
108.510467529297

> <r_mmod_Torsional_Energy-OPLS-2005>
223.41276550293

> <r_mmod_Improper_Torsional_Energy-OPLS-2005>
3.73283290863037

> <r_mmod_Van_der_Waal_Energy-OPLS-2005>
141.299591064453

> <r_mmod_Electrostatic_Energy-OPLS-2005>
-384.455932617188

> <r_mmod_Solvation_Energy-OPLS-2005>
-233.229705810547

> <b_mmod_Minimization_Converged-OPLS-2005>
0

> <r_mmod_RMS_Derivative-OPLS-2005>
0.879473567008972

$$$$
65
                    3D
 Structure written by MMmdl.
190200  0  0  1  0            999 V2000
  -30.6224  -14.7309   20.4339 C   0  0  0  0  0  0
  -30.4336  -12.4405   19.4643 C   0  0  0  0  0  0
  -29.5085  -12.5005   18.2288 C   0  0  0  0  0  0
  -28.0355  -12.3313   18.6480 C   0  0  0  0  0  0
  -27.6468  -13.2306   19.8519 C   0  0  2  0  0  0
  -28.6962  -13.1613   20.9849 C   0  0  0  0  0  0
  -25.2544  -13.8192   20.5708 C   0  0  0  0  0  0
  -24.1838  -13.0450   20.9211 C   0  0  0  0  0  0
  -24.6421  -11.6917   20.8761 C   0  0  0  0  0  0
  -23.9086  -10.4296   21.0411 C   0  0  0  0  0  0
  -24.3631   -9.4209   21.9186 C   0  0  0  0  0  0
  -23.6297   -8.2251   22.0758 C   0  0  0  0  0  0
  -22.4283   -8.0290   21.3548 C   0  0  0  0  0  0
  -21.9923   -9.0266   20.4649 C   0  0  0  0  0  0
  -22.7259  -10.2142   20.3057 C   0  0  0  0  0  0
  -21.6856   -6.0739   22.5270 C   0  0  0  0  0  0
  -21.4017   -6.5640   23.8203 C   0  0  0  0  0  0
  -21.3655   -5.6795   24.9166 C   0  0  0  0  0  0
  -21.6043   -4.3056   24.7222 C   0  0  0  0  0  0
  -21.8819   -3.8148   23.4342 C   0  0  0  0  0  0
  -21.9198   -4.6964   22.3397 C   0  0  0  0  0  0
  -22.7854  -13.5228   21.1866 C   0  0  0  0  0  0
  -22.1666   -4.2152   21.0976 F   0  0  0  0  0  0
  -21.5628   -3.4537   25.7733 F   0  0  0  0  0  0
  -29.9992  -13.5038   20.3993 N   0  0  0  0  0  0
  -26.2983  -12.9407   20.3302 N   0  0  0  0  0  0
  -25.9356  -11.6548   20.5770 N   0  0  0  0  0  0
  -22.0492  -12.8221   22.0402 N   0  0  0  0  0  0
  -25.4202  -15.1924   20.4122 N   0  0  0  0  0  0
  -31.8105  -14.8202   20.1130 O   0  0  0  0  0  0
  -21.6642   -6.8889   21.4238 O   0  0  0  0  0  0
  -22.3541  -14.5539   20.6701 O   0  0  0  0  0  0
  -24.6314  -31.8536   23.1991 C   0  0  0  0  0  0
  -25.9154  -32.4738   23.8332 C   0  0  1  0  0  0
  -27.2444  -27.2769   20.1148 C   0  0  0  0  0  0
  -25.5973  -33.8530   24.2266 N   0  0  0  0  0  0
  -23.4307  -30.4725   21.5404 C   0  0  2  0  0  0
  -24.8839  -28.9142   20.1211 C   0  0  0  0  0  0
  -22.7517  -29.4570   22.4913 C   0  0  0  0  0  0
  -18.0288  -28.1394   22.8459 C   0  0  0  0  0  0
  -24.1490  -36.7258   23.2644 C   0  0  0  0  0  0
  -25.9749  -30.7667   21.3807 C   0  0  0  0  0  0
  -26.0538  -29.3868   20.7295 C   0  0  0  0  0  0
  -27.2386  -28.5810   20.7159 C   0  0  0  0  0  0
  -26.0471  -26.8602   19.5026 C   0  0  0  0  0  0
  -24.8844  -27.6557   19.4987 C   0  0  0  0  0  0
  -23.6552  -29.8022   20.1586 C   0  0  0  0  0  0
  -25.4113  -36.3046   24.0352 C   0  0  1  0  0  0
  -20.5889  -28.3682   23.1281 C   0  0  2  0  0  0
  -20.6772  -26.9399   22.5413 C   0  0  0  0  0  0
  -19.5750  -26.6377   21.5209 C   0  0  0  0  0  0
  -18.1919  -26.7932   22.1609 C   0  0  0  0  0  0
  -19.1544  -28.8860   23.2851 C   0  0  0  0  0  0
  -18.9470  -30.1458   23.8876 C   0  0  0  0  0  0
  -17.6474  -30.6592   24.0552 C   0  0  0  0  0  0
  -25.9065  -34.9416   23.5094 C   0  0  0  0  0  0
  -16.5359  -29.9089   23.6332 C   0  0  0  0  0  0
  -16.7279  -28.6512   23.0337 C   0  0  0  0  0  0
  -26.4533  -31.6565   25.0713 C   0  0  0  0  0  0
  -25.3759  -31.3716   26.1438 C   0  0  0  0  0  0
  -27.0385  -30.2989   24.6170 C   0  0  0  0  0  0
  -27.6079  -32.4313   25.7493 C   0  0  0  0  0  0
  -27.5566  -37.1773   24.8463 C   0  0  0  0  0  0
  -21.4223  -29.3026   22.3676 N   0  0  0  0  0  0
  -26.4268  -37.3760   23.9435 N   0  0  0  0  0  0
  -24.6969  -31.0498   22.0964 N   0  0  0  0  0  0
  -23.4221  -28.8115   23.3003 O   0  0  0  0  0  0
  -28.3712  -26.4311   20.0305 O   0  0  0  0  0  0
  -26.5598  -34.8901   22.4636 O   0  0  0  0  0  0
  -23.5471  -32.1362   23.7297 O   0  0  0  0  0  0
  -31.1177  -19.2679   19.6454 C   0  0  0  0  0  0
  -31.1917  -17.8324   19.8224 C   0  0  0  0  0  0
  -29.9671  -19.8936   20.0801 C   0  0  0  0  0  0
  -30.0871  -17.2254   20.3871 C   0  0  0  0  0  0
  -29.6219  -23.5216   18.8091 C   0  0  0  0  0  0
  -28.2325  -20.8200   25.4342 C   0  0  0  0  0  0
  -30.0382  -22.0208   18.7020 C   0  0  0  0  0  0
  -29.2670  -21.6612   24.6717 C   0  0  0  0  0  0
  -27.6977  -20.8996   23.1217 C   0  0  0  0  0  0
  -28.9163  -22.2962   20.8009 C   0  0  2  0  0  0
  -28.5542  -23.6251   19.9212 C   0  0  2  0  0  0
  -27.4832  -20.0227   24.3655 C   0  0  0  0  0  0
  -27.2053  -23.3541   19.2148 C   0  0  0  0  0  0
  -28.1127  -18.6235   24.1855 C   0  0  0  0  0  0
  -25.9934  -19.8505   24.7086 C   0  0  0  0  0  0
  -31.2947  -23.8506   23.6423 C   0  0  0  0  0  0
  -31.9529  -21.6246   22.6075 C   0  0  0  0  0  0
  -31.7197  -23.6498   21.2699 C   0  0  0  0  0  0
  -28.3757  -25.0775   20.6700 C   0  0  0  0  0  0
  -29.5093  -22.5137   22.2726 C   0  0  2  0  0  0
  -31.0684  -22.8852   22.4435 C   0  0  0  0  0  0
  -29.6797  -21.3259   19.9418 N   0  0  0  0  0  0
  -29.8427  -15.8613   20.6445 N   0  0  0  0  0  0
  -29.0917  -21.4052   23.2141 N   0  3  1  0  0  0
  -28.9290  -18.5726   20.7108 S   0  0  0  0  0  0
  -31.4749  -12.5539   19.1584 H   0  0  0  0  0  0
  -30.3685  -11.4633   19.9443 H   0  0  0  0  0  0
  -29.7832  -11.7258   17.5114 H   0  0  0  0  0  0
  -29.6371  -13.4522   17.7123 H   0  0  0  0  0  0
  -27.8915  -11.2827   18.9115 H   0  0  0  0  0  0
  -27.3749  -12.5230   17.8015 H   0  0  0  0  0  0
  -27.6428  -14.2524   19.4722 H   0  0  0  0  0  0
  -28.7307  -12.1650   21.4271 H   0  0  0  0  0  0
  -28.4412  -13.8468   21.7944 H   0  0  0  0  0  0
  -25.2775   -9.5688   22.4761 H   0  0  0  0  0  0
  -23.9996   -7.4655   22.7493 H   0  0  0  0  0  0
  -21.0847   -8.8800   19.8966 H   0  0  0  0  0  0
  -22.3719  -10.9687   19.6169 H   0  0  0  0  0  0
  -21.2006   -7.6148   23.9708 H   0  0  0  0  0  0
  -21.1475   -6.0522   25.9069 H   0  0  0  0  0  0
  -22.0602   -2.7611   23.2838 H   0  0  0  0  0  0
  -22.4104  -11.9877   22.4791 H   0  0  0  0  0  0
  -21.1110  -13.1249   22.2608 H   0  0  0  0  0  0
  -24.6444  -15.8353   20.5256 H   0  0  0  0  0  0
  -26.2511  -15.6371   20.0460 H   0  0  0  0  0  0
  -26.7210  -32.5420   23.1074 H   0  0  0  0  0  0
  -25.0189  -33.9656   25.0455 H   0  0  0  0  0  0
  -22.7253  -31.2920   21.3894 H   0  0  0  0  0  0
  -23.3765  -35.9571   23.3284 H   0  0  0  0  0  0
  -24.3579  -36.8894   22.2053 H   0  0  0  0  0  0
  -23.7226  -37.6452   23.6683 H   0  0  0  0  0  0
  -26.1073  -31.5253   20.6082 H   0  0  0  0  0  0
  -26.8531  -30.8229   22.0123 H   0  0  0  0  0  0
  -28.1423  -28.9415   21.1878 H   0  0  0  0  0  0
  -26.0048  -25.9067   19.0056 H   0  0  0  0  0  0
  -23.9939  -27.2878   19.0092 H   0  0  0  0  0  0
  -23.7878  -30.5764   19.4010 H   0  0  0  0  0  0
  -22.7758  -29.2355   19.8484 H   0  0  0  0  0  0
  -25.1277  -36.1879   25.0850 H   0  0  0  0  0  0
  -20.9946  -28.3255   24.1417 H   0  0  0  0  0  0
  -20.5688  -26.2271   23.3610 H   0  0  0  0  0  0
  -21.6629  -26.7432   22.1190 H   0  0  0  0  0  0
  -19.6910  -25.6290   21.1244 H   0  0  0  0  0  0
  -19.6725  -27.3165   20.6728 H   0  0  0  0  0  0
  -17.4194  -26.6690   21.4004 H   0  0  0  0  0  0
  -18.0306  -26.0086   22.9026 H   0  0  0  0  0  0
  -19.7951  -30.7253   24.2250 H   0  0  0  0  0  0
  -17.5038  -31.6285   24.5142 H   0  0  0  0  0  0
  -15.5354  -30.2973   23.7705 H   0  0  0  0  0  0
  -15.8673  -28.0844   22.7053 H   0  0  0  0  0  0
  -24.5958  -30.7043   25.7771 H   0  0  0  0  0  0
  -24.8929  -32.2878   26.4836 H   0  0  0  0  0  0
  -25.8085  -30.8926   27.0225 H   0  0  0  0  0  0
  -26.2949  -29.6726   24.1228 H   0  0  0  0  0  0
  -27.4126  -29.7269   25.4666 H   0  0  0  0  0  0
  -27.8815  -30.4282   23.9376 H   0  0  0  0  0  0
  -27.2685  -33.3631   26.2033 H   0  0  0  0  0  0
  -28.3917  -32.6837   25.0338 H   0  0  0  0  0  0
  -28.0719  -31.8458   26.5438 H   0  0  0  0  0  0
  -28.2548  -38.0093   24.7514 H   0  0  0  0  0  0
  -28.1095  -36.2624   24.6281 H   0  0  0  0  0  0
  -27.2285  -37.1390   25.8859 H   0  0  0  0  0  0
  -20.9432  -29.8789   21.6903 H   0  0  0  0  0  0
  -26.0147  -38.2831   24.1467 H   0  0  0  0  0  0
  -31.9464  -19.7920   19.1926 H   0  0  0  0  0  0
  -32.0751  -17.2988   19.4998 H   0  0  0  0  0  0
  -29.2492  -23.8807   17.8474 H   0  0  0  0  0  0
  -30.4761  -24.1619   19.0102 H   0  0  0  0  0  0
  -27.5557  -21.4876   25.9705 H   0  0  0  0  0  0
  -28.6972  -20.1772   26.1834 H   0  0  0  0  0  0
  -31.1069  -21.9329   18.5016 H   0  0  0  0  0  0
  -29.5212  -21.5373   17.8715 H   0  0  0  0  0  0
  -30.2691  -21.4185   25.0220 H   0  0  0  0  0  0
  -29.0754  -22.7098   24.8987 H   0  0  0  0  0  0
  -27.0176  -21.7539   23.1395 H   0  0  0  0  0  0
  -27.4782  -20.3341   22.2202 H   0  0  0  0  0  0
  -27.9410  -21.8383   20.9079 H   0  0  0  0  0  0
  -27.1999  -22.3958   18.6924 H   0  0  0  0  0  0
  -26.9980  -24.1137   18.4627 H   0  0  0  0  0  0
  -26.3735  -23.3468   19.9180 H   0  0  0  0  0  0
  -29.1740  -18.6690   23.9376 H   0  0  0  0  0  0
  -27.6152  -18.0628   23.3934 H   0  0  0  0  0  0
  -28.0210  -18.0325   25.0975 H   0  0  0  0  0  0
  -25.4870  -20.8095   24.8224 H   0  0  0  0  0  0
  -25.8708  -19.3008   25.6430 H   0  0  0  0  0  0
  -25.4712  -19.2907   23.9309 H   0  0  0  0  0  0
  -32.3164  -24.2317   23.6611 H   0  0  0  0  0  0
  -31.1589  -23.4076   24.6233 H   0  0  0  0  0  0
  -30.6423  -24.7239   23.5845 H   0  0  0  0  0  0
  -31.8356  -20.9549   21.7591 H   0  0  0  0  0  0
  -31.7547  -21.0487   23.5067 H   0  0  0  0  0  0
  -33.0119  -21.8824   22.6504 H   0  0  0  0  0  0
  -32.7701  -23.8738   21.4692 H   0  0  0  0  0  0
  -31.2473  -24.6077   21.0698 H   0  0  0  0  0  0
  -31.7485  -23.0558   20.3648 H   0  0  0  0  0  0
  -29.1864  -25.1702   21.3855 H   0  0  0  0  0  0
  -27.4835  -25.0146   21.2947 H   0  0  0  0  0  0
  -28.9451  -23.3633   22.6546 H   0  0  0  0  0  0
  -28.9043  -15.6442   20.9475 H   0  0  0  0  0  0
  -29.6844  -20.6229   22.9791 H   0  0  0  0  0  0
  1 25  1  0  0  0
  1 30  2  0  0  0
  1 93  1  0  0  0
  2  3  1  0  0  0
  2 25  1  0  0  0
  2 96  1  0  0  0
  2 97  1  0  0  0
  3  4  1  0  0  0
  3 98  1  0  0  0
  3 99  1  0  0  0
  4  5  1  0  0  0
  4100  1  0  0  0
  4101  1  0  0  0
  5  6  1  0  0  0
  5 26  1  0  0  0
  5102  1  0  0  0
  6 25  1  0  0  0
  6103  1  0  0  0
  6104  1  0  0  0
  7  8  2  0  0  0
  7 26  1  0  0  0
  7 29  1  0  0  0
  8  9  1  0  0  0
  8 22  1  0  0  0
  9 10  1  0  0  0
  9 27  2  0  0  0
 10 11  2  0  0  0
 10 15  1  0  0  0
 11 12  1  0  0  0
 11105  1  0  0  0
 12 13  2  0  0  0
 12106  1  0  0  0
 13 14  1  0  0  0
 13 31  1  0  0  0
 14 15  2  0  0  0
 14107  1  0  0  0
 15108  1  0  0  0
 16 17  2  0  0  0
 16 21  1  0  0  0
 16 31  1  0  0  0
 17 18  1  0  0  0
 17109  1  0  0  0
 18 19  2  0  0  0
 18110  1  0  0  0
 19 20  1  0  0  0
 19 24  1  0  0  0
 20 21  2  0  0  0
 20111  1  0  0  0
 21 23  1  0  0  0
 22 28  1  0  0  0
 22 32  2  0  0  0
 26 27  1  0  0  0
 28112  1  0  0  0
 28113  1  0  0  0
 29114  1  0  0  0
 29115  1  0  0  0
 33 34  1  0  0  0
 33 66  1  0  0  0
 33 70  2  0  0  0
 34 36  1  0  0  0
 34 59  1  0  0  0
 34116  1  0  0  0
 35 44  2  0  0  0
 35 45  1  0  0  0
 35 68  1  0  0  0
 36 56  1  0  0  0
 36117  1  0  0  0
 37 39  1  0  0  0
 37 47  1  0  0  0
 37 66  1  0  0  0
 37118  1  0  0  0
 38 43  2  0  0  0
 38 46  1  0  0  0
 38 47  1  0  0  0
 39 64  1  0  0  0
 39 67  2  0  0  0
 40 52  1  0  0  0
 40 53  2  0  0  0
 40 58  1  0  0  0
 41119  1  0  0  0
 41120  1  0  0  0
 41121  1  0  0  0
 41 48  1  0  0  0
 42 43  1  0  0  0
 42 66  1  0  0  0
 42122  1  0  0  0
 42123  1  0  0  0
 43 44  1  0  0  0
 44124  1  0  0  0
 45 46  2  0  0  0
 45125  1  0  0  0
 46126  1  0  0  0
 47127  1  0  0  0
 47128  1  0  0  0
 48 56  1  0  0  0
 48 65  1  0  0  0
 48129  1  0  0  0
 49 50  1  0  0  0
 49 53  1  0  0  0
 49 64  1  0  0  0
 49130  1  0  0  0
 50 51  1  0  0  0
 50131  1  0  0  0
 50132  1  0  0  0
 51 52  1  0  0  0
 51133  1  0  0  0
 51134  1  0  0  0
 52135  1  0  0  0
 52136  1  0  0  0
 53 54  1  0  0  0
 54 55  2  0  0  0
 54137  1  0  0  0
 55 57  1  0  0  0
 55138  1  0  0  0
 56 69  2  0  0  0
 57 58  2  0  0  0
 57139  1  0  0  0
 58140  1  0  0  0
 59 60  1  0  0  0
 59 61  1  0  0  0
 59 62  1  0  0  0
 60141  1  0  0  0
 60142  1  0  0  0
 60143  1  0  0  0
 61144  1  0  0  0
 61145  1  0  0  0
 61146  1  0  0  0
 62147  1  0  0  0
 62148  1  0  0  0
 62149  1  0  0  0
 63 65  1  0  0  0
 63150  1  0  0  0
 63151  1  0  0  0
 63152  1  0  0  0
 64153  1  0  0  0
 65154  1  0  0  0
 68 89  1  0  0  0
 71 72  1  0  0  0
 71 73  2  0  0  0
 71155  1  0  0  0
 72 74  2  0  0  0
 72156  1  0  0  0
 73 92  1  0  0  0
 73 95  1  0  0  0
 74 93  1  0  0  0
 74 95  1  0  0  0
 75 77  1  0  0  0
 75 81  1  0  0  0
 75157  1  0  0  0
 75158  1  0  0  0
 76 78  1  0  0  0
 76 82  1  0  0  0
 76159  1  0  0  0
 76160  1  0  0  0
 77 92  1  0  0  0
 77161  1  0  0  0
 77162  1  0  0  0
 78163  1  0  0  0
 78164  1  0  0  0
 78 94  1  0  0  0
 79 82  1  0  0  0
 79 94  1  0  0  0
 79165  1  0  0  0
 79166  1  0  0  0
 80 81  1  0  0  0
 80 90  1  0  0  0
 80 92  1  0  0  0
 80167  1  0  0  0
 81 83  1  0  0  0
 81 89  1  0  0  0
 82 84  1  0  0  0
 82 85  1  0  0  0
 83168  1  0  0  0
 83169  1  0  0  0
 83170  1  0  0  0
 84171  1  0  0  0
 84172  1  0  0  0
 84173  1  0  0  0
 85174  1  0  0  0
 85175  1  0  0  0
 85176  1  0  0  0
 86177  1  0  0  0
 86178  1  0  0  0
 86179  1  0  0  0
 86 91  1  0  0  0
 87 91  1  0  0  0
 87180  1  0  0  0
 87181  1  0  0  0
 87182  1  0  0  0
 88 91  1  0  0  0
 88183  1  0  0  0
 88184  1  0  0  0
 88185  1  0  0  0
 89186  1  0  0  0
 89187  1  0  0  0
 90 91  1  0  0  0
 90 94  1  0  0  0
 90188  1  0  0  0
 93189  1  0  0  0
 94190  1  0  0  0
M  CHG  1  94   1
M  ISO  4   1 100  68 101  89 101  93 100
M  END
> <chiral flag>
0

> <version>
0

> <s_m_source_file>
/data/baiqing/PycharmProjects/Reinvent-master-3.2/result/LINK_invent/BTK/process_docking_weight1_custom_product_contain_oxygen_bond_distance_aromatic_linkinvent_7_9_3/rearranged_h_0145.sdf

> <i_m_source_file_index>
66

> <r_mmod_Potential_Energy-OPLS-2005>
494.83154296875

> <r_mmod_Stretch_Energy-OPLS-2005>
140.382034301758

> <r_mmod_Bend_Energy-OPLS-2005>
298.503143310547

> <r_mmod_Torsional_Energy-OPLS-2005>
481.026489257812

> <r_mmod_Improper_Torsional_Energy-OPLS-2005>
4.79716873168945

> <r_mmod_Van_der_Waal_Energy-OPLS-2005>
124.003044128418

> <r_mmod_Electrostatic_Energy-OPLS-2005>
-237.249572753906

> <r_mmod_Solvation_Energy-OPLS-2005>
-389.994140625

> <b_mmod_Minimization_Converged-OPLS-2005>
0

> <r_mmod_RMS_Derivative-OPLS-2005>
2.95892882347107

$$$$
66
                    3D
 Structure written by MMmdl.
154162  0  0  1  0            999 V2000
  -30.6614  -14.5832   20.5085 C   0  0  0  0  0  0
  -30.4214  -12.3599   19.4616 C   0  0  0  0  0  0
  -29.5044  -12.4859   18.2267 C   0  0  0  0  0  0
  -28.0244  -12.3296   18.6343 C   0  0  0  0  0  0
  -27.6437  -13.2117   19.8561 C   0  0  2  0  0  0
  -28.6811  -13.0769   20.9915 C   0  0  0  0  0  0
  -25.2496  -13.8156   20.5659 C   0  0  0  0  0  0
  -24.1772  -13.0433   20.9205 C   0  0  0  0  0  0
  -24.6334  -11.6913   20.8750 C   0  0  0  0  0  0
  -23.9010  -10.4292   21.0395 C   0  0  0  0  0  0
  -24.3579   -9.4216   21.9172 C   0  0  0  0  0  0
  -23.6266   -8.2244   22.0762 C   0  0  0  0  0  0
  -22.4248   -8.0272   21.3545 C   0  0  0  0  0  0
  -21.9865   -9.0237   20.4648 C   0  0  0  0  0  0
  -22.7183  -10.2118   20.3045 C   0  0  0  0  0  0
  -21.6847   -6.0711   22.5282 C   0  0  0  0  0  0
  -21.4016   -6.5619   23.8219 C   0  0  0  0  0  0
  -21.3661   -5.6773   24.9178 C   0  0  0  0  0  0
  -21.6051   -4.3041   24.7230 C   0  0  0  0  0  0
  -21.8818   -3.8129   23.4353 C   0  0  0  0  0  0
  -21.9194   -4.6939   22.3404 C   0  0  0  0  0  0
  -22.7786  -13.5247   21.1858 C   0  0  0  0  0  0
  -22.1658   -4.2122   21.0979 F   0  0  0  0  0  0
  -21.5627   -3.4530   25.7742 F   0  0  0  0  0  0
  -29.9933  -13.3964   20.4205 N   0  0  0  0  0  0
  -26.2903  -12.9332   20.3246 N   0  0  0  0  0  0
  -25.9257  -11.6489   20.5723 N   0  0  0  0  0  0
  -22.0424  -12.8254   22.0434 N   0  0  0  0  0  0
  -25.4153  -15.1869   20.4014 N   0  0  0  0  0  0
  -31.8501  -14.6704   20.2014 O   0  0  0  0  0  0
  -21.6638   -6.8851   21.4238 O   0  0  0  0  0  0
  -22.3477  -14.5540   20.6690 O   0  0  0  0  0  0
  -24.6172  -31.8618   23.2040 C   0  0  0  0  0  0
  -25.9054  -32.4792   23.8369 C   0  0  1  0  0  0
  -27.2287  -27.3759   20.1305 C   0  0  0  0  0  0
  -25.5904  -33.8591   24.2302 N   0  0  0  0  0  0
  -23.4104  -30.4804   21.5447 C   0  0  2  0  0  0
  -24.8629  -28.9366   20.1185 C   0  0  0  0  0  0
  -22.7451  -29.4599   22.4944 C   0  0  0  0  0  0
  -18.0275  -28.1340   22.8477 C   0  0  0  0  0  0
  -24.1487  -36.7303   23.2628 C   0  0  0  0  0  0
  -25.9418  -30.8154   21.3633 C   0  0  0  0  0  0
  -26.0223  -29.4432   20.7178 C   0  0  0  0  0  0
  -27.2137  -28.6716   20.7148 C   0  0  0  0  0  0
  -26.0558  -26.8974   19.5173 C   0  0  0  0  0  0
  -24.8767  -27.6672   19.5132 C   0  0  0  0  0  0
  -23.6275  -29.8080   20.1609 C   0  0  0  0  0  0
  -25.4109  -36.3095   24.0330 C   0  0  1  0  0  0
  -20.5877  -28.3610   23.1284 C   0  0  2  0  0  0
  -20.6769  -26.9328   22.5374 C   0  0  0  0  0  0
  -19.5739  -26.6335   21.5182 C   0  0  0  0  0  0
  -18.1914  -26.7885   22.1591 C   0  0  0  0  0  0
  -19.1523  -28.8798   23.2876 C   0  0  0  0  0  0
  -18.9464  -30.1407   23.8901 C   0  0  0  0  0  0
  -17.6475  -30.6548   24.0563 C   0  0  0  0  0  0
  -25.9026  -34.9463   23.5112 C   0  0  0  0  0  0
  -16.5358  -29.9046   23.6325 C   0  0  0  0  0  0
  -16.7268  -28.6464   23.0338 C   0  0  0  0  0  0
  -26.4487  -31.6581   25.0698 C   0  0  0  0  0  0
  -25.3723  -31.3754   26.1422 C   0  0  0  0  0  0
  -27.0338  -30.3026   24.6097 C   0  0  0  0  0  0
  -27.6060  -32.4317   25.7474 C   0  0  0  0  0  0
  -27.5585  -37.1800   24.8460 C   0  0  0  0  0  0
  -21.4157  -29.3008   22.3728 N   0  0  0  0  0  0
  -26.4290  -37.3777   23.9401 N   0  0  0  0  0  0
  -24.6746  -31.0680   22.0965 N   0  0  0  0  0  0
  -23.4216  -28.8112   23.2969 O   0  0  0  0  0  0
  -28.3743  -26.5953   20.1272 O   0  0  0  0  0  0
  -26.5570  -34.8915   22.4659 O   0  0  0  0  0  0
  -23.5355  -32.1388   23.7408 O   0  0  0  0  0  0
  -28.6493  -18.8711   20.2985 C   0  0  0  0  0  0
  -29.0765  -19.9155   22.2345 C   0  0  0  0  0  0
  -28.7011  -20.1574   20.9420 C   0  0  0  0  0  0
  -28.9731  -17.9218   21.2522 C   0  0  0  0  0  0
  -28.7180  -22.6845   20.8170 C   0  0  0  0  0  0
  -27.6554  -25.4536   22.2368 C   0  0  0  0  0  0
  -29.0122  -16.3866   21.3290 C   0  0  0  0  0  0
  -28.1539  -23.9799   20.1273 C   0  0  0  0  0  0
  -28.4126  -25.3444   20.8919 C   0  0  1  0  0  0
  -28.3565  -21.4466   20.3696 N   0  0  0  0  0  0
  -29.9341  -15.7243   20.3876 N   0  0  0  0  0  0
  -29.5192  -22.8119   21.7460 O   0  0  0  0  0  0
  -29.2417  -18.5697   22.4310 O   0  0  0  0  0  0
  -31.4653  -12.4706   19.1628 H   0  0  0  0  0  0
  -30.3402  -11.3681   19.9101 H   0  0  0  0  0  0
  -29.7763  -11.7382   17.4809 H   0  0  0  0  0  0
  -29.6550  -13.4602   17.7563 H   0  0  0  0  0  0
  -27.8666  -11.2772   18.8754 H   0  0  0  0  0  0
  -27.3744  -12.5466   17.7866 H   0  0  0  0  0  0
  -27.6625  -14.2419   19.5077 H   0  0  0  0  0  0
  -28.6782  -12.0626   21.3914 H   0  0  0  0  0  0
  -28.4349  -13.7277   21.8293 H   0  0  0  0  0  0
  -25.2721   -9.5703   22.4757 H   0  0  0  0  0  0
  -23.9984   -7.4633   22.7480 H   0  0  0  0  0  0
  -21.0805   -8.8726   19.8963 H   0  0  0  0  0  0
  -22.3617  -10.9645   19.6162 H   0  0  0  0  0  0
  -21.2012   -7.6125   23.9700 H   0  0  0  0  0  0
  -21.1485   -6.0510   25.9070 H   0  0  0  0  0  0
  -22.0599   -2.7592   23.2861 H   0  0  0  0  0  0
  -22.4011  -11.9933   22.4863 H   0  0  0  0  0  0
  -21.1029  -13.1286   22.2605 H   0  0  0  0  0  0
  -24.6405  -15.8344   20.5037 H   0  0  0  0  0  0
  -26.2428  -15.6233   20.0212 H   0  0  0  0  0  0
  -26.7131  -32.5516   23.1137 H   0  0  0  0  0  0
  -25.0130  -33.9752   25.0514 H   0  0  0  0  0  0
  -22.6983  -31.2944   21.3970 H   0  0  0  0  0  0
  -23.3737  -35.9643   23.3290 H   0  0  0  0  0  0
  -24.3585  -36.8909   22.2041 H   0  0  0  0  0  0
  -23.7247  -37.6513   23.6645 H   0  0  0  0  0  0
  -26.0472  -31.5736   20.5866 H   0  0  0  0  0  0
  -26.8312  -30.8815   21.9797 H   0  0  0  0  0  0
  -28.1107  -29.0524   21.1836 H   0  0  0  0  0  0
  -26.0550  -25.9251   19.0449 H   0  0  0  0  0  0
  -23.9843  -27.2698   19.0518 H   0  0  0  0  0  0
  -23.7498  -30.5785   19.3981 H   0  0  0  0  0  0
  -22.7525  -29.2283   19.8585 H   0  0  0  0  0  0
  -25.1286  -36.1959   25.0824 H   0  0  0  0  0  0
  -20.9956  -28.3145   24.1413 H   0  0  0  0  0  0
  -20.5678  -26.2190   23.3559 H   0  0  0  0  0  0
  -21.6629  -26.7360   22.1151 H   0  0  0  0  0  0
  -19.6862  -25.6251   21.1198 H   0  0  0  0  0  0
  -19.6707  -27.3156   20.6735 H   0  0  0  0  0  0
  -17.4190  -26.6657   21.3980 H   0  0  0  0  0  0
  -18.0289  -26.0030   22.8996 H   0  0  0  0  0  0
  -19.7952  -30.7200   24.2290 H   0  0  0  0  0  0
  -17.5035  -31.6226   24.5142 H   0  0  0  0  0  0
  -15.5353  -30.2940   23.7650 H   0  0  0  0  0  0
  -15.8681  -28.0764   22.7062 H   0  0  0  0  0  0
  -24.5868  -30.7135   25.7750 H   0  0  0  0  0  0
  -24.8932  -32.2939   26.4834 H   0  0  0  0  0  0
  -25.7998  -30.8932   27.0211 H   0  0  0  0  0  0
  -26.2907  -29.6774   24.1111 H   0  0  0  0  0  0
  -27.4076  -29.7281   25.4587 H   0  0  0  0  0  0
  -27.8755  -30.4351   23.9282 H   0  0  0  0  0  0
  -27.2677  -33.3603   26.2086 H   0  0  0  0  0  0
  -28.3850  -32.6895   25.0289 H   0  0  0  0  0  0
  -28.0736  -31.8409   26.5349 H   0  0  0  0  0  0
  -28.2591  -38.0113   24.7499 H   0  0  0  0  0  0
  -28.1085  -36.2632   24.6289 H   0  0  0  0  0  0
  -27.2288  -37.1456   25.8859 H   0  0  0  0  0  0
  -20.9286  -29.8792   21.7031 H   0  0  0  0  0  0
  -26.0177  -38.2842   24.1437 H   0  0  0  0  0  0
  -28.3764  -18.6571   19.2735 H   0  0  0  0  0  0
  -29.2280  -20.5395   23.1056 H   0  0  0  0  0  0
  -27.8418  -24.5848   22.8688 H   0  0  0  0  0  0
  -26.5751  -25.5242   22.1040 H   0  0  0  0  0  0
  -27.9868  -26.3301   22.7940 H   0  0  0  0  0  0
  -28.0067  -16.0112   21.1450 H   0  0  0  0  0  0
  -29.2595  -16.0768   22.3452 H   0  0  0  0  0  0
  -27.0871  -23.8576   19.9387 H   0  0  0  0  0  0
  -28.6252  -24.0435   19.1460 H   0  0  0  0  0  0
  -29.4677  -25.3082   21.1652 H   0  0  0  0  0  0
  -27.7610  -21.4236   19.5506 H   0  0  0  0  0  0
  -30.4742  -16.4205   19.8956 H   0  0  0  0  0  0
  1 25  1  0  0  0
  1 30  2  0  0  0
  1 81  1  0  0  0
  2  3  1  0  0  0
  2 25  1  0  0  0
  2 84  1  0  0  0
  2 85  1  0  0  0
  3  4  1  0  0  0
  3 86  1  0  0  0
  3 87  1  0  0  0
  4  5  1  0  0  0
  4 88  1  0  0  0
  4 89  1  0  0  0
  5  6  1  0  0  0
  5 26  1  0  0  0
  5 90  1  0  0  0
  6 25  1  0  0  0
  6 91  1  0  0  0
  6 92  1  0  0  0
  7  8  2  0  0  0
  7 26  1  0  0  0
  7 29  1  0  0  0
  8  9  1  0  0  0
  8 22  1  0  0  0
  9 10  1  0  0  0
  9 27  2  0  0  0
 10 11  2  0  0  0
 10 15  1  0  0  0
 11 12  1  0  0  0
 11 93  1  0  0  0
 12 13  2  0  0  0
 12 94  1  0  0  0
 13 14  1  0  0  0
 13 31  1  0  0  0
 14 15  2  0  0  0
 14 95  1  0  0  0
 15 96  1  0  0  0
 16 17  2  0  0  0
 16 21  1  0  0  0
 16 31  1  0  0  0
 17 18  1  0  0  0
 17 97  1  0  0  0
 18 19  2  0  0  0
 18 98  1  0  0  0
 19 20  1  0  0  0
 19 24  1  0  0  0
 20 21  2  0  0  0
 20 99  1  0  0  0
 21 23  1  0  0  0
 22 28  1  0  0  0
 22 32  2  0  0  0
 26 27  1  0  0  0
 28100  1  0  0  0
 28101  1  0  0  0
 29102  1  0  0  0
 29103  1  0  0  0
 33 34  1  0  0  0
 33 66  1  0  0  0
 33 70  2  0  0  0
 34 36  1  0  0  0
 34 59  1  0  0  0
 34104  1  0  0  0
 35 44  2  0  0  0
 35 45  1  0  0  0
 35 68  1  0  0  0
 36 56  1  0  0  0
 36105  1  0  0  0
 37 39  1  0  0  0
 37 47  1  0  0  0
 37 66  1  0  0  0
 37106  1  0  0  0
 38 43  2  0  0  0
 38 46  1  0  0  0
 38 47  1  0  0  0
 39 64  1  0  0  0
 39 67  2  0  0  0
 40 52  1  0  0  0
 40 53  2  0  0  0
 40 58  1  0  0  0
 41107  1  0  0  0
 41108  1  0  0  0
 41109  1  0  0  0
 41 48  1  0  0  0
 42 43  1  0  0  0
 42 66  1  0  0  0
 42110  1  0  0  0
 42111  1  0  0  0
 43 44  1  0  0  0
 44112  1  0  0  0
 45 46  2  0  0  0
 45113  1  0  0  0
 46114  1  0  0  0
 47115  1  0  0  0
 47116  1  0  0  0
 48 56  1  0  0  0
 48 65  1  0  0  0
 48117  1  0  0  0
 49 50  1  0  0  0
 49 53  1  0  0  0
 49 64  1  0  0  0
 49118  1  0  0  0
 50 51  1  0  0  0
 50119  1  0  0  0
 50120  1  0  0  0
 51 52  1  0  0  0
 51121  1  0  0  0
 51122  1  0  0  0
 52123  1  0  0  0
 52124  1  0  0  0
 53 54  1  0  0  0
 54 55  2  0  0  0
 54125  1  0  0  0
 55 57  1  0  0  0
 55126  1  0  0  0
 56 69  2  0  0  0
 57 58  2  0  0  0
 57127  1  0  0  0
 58128  1  0  0  0
 59 60  1  0  0  0
 59 61  1  0  0  0
 59 62  1  0  0  0
 60129  1  0  0  0
 60130  1  0  0  0
 60131  1  0  0  0
 61132  1  0  0  0
 61133  1  0  0  0
 61134  1  0  0  0
 62135  1  0  0  0
 62136  1  0  0  0
 62137  1  0  0  0
 63 65  1  0  0  0
 63138  1  0  0  0
 63139  1  0  0  0
 63140  1  0  0  0
 64141  1  0  0  0
 65142  1  0  0  0
 68 79  1  0  0  0
 71 73  1  0  0  0
 71 74  2  0  0  0
 71143  1  0  0  0
 72 73  2  0  0  0
 72 83  1  0  0  0
 72144  1  0  0  0
 73 80  1  0  0  0
 74 77  1  0  0  0
 74 83  1  0  0  0
 75 78  1  0  0  0
 75 80  1  0  0  0
 75 82  2  0  0  0
 76145  1  0  0  0
 76146  1  0  0  0
 76147  1  0  0  0
 76 79  1  0  0  0
 77 81  1  0  0  0
 77148  1  0  0  0
 77149  1  0  0  0
 78 79  1  0  0  0
 78150  1  0  0  0
 78151  1  0  0  0
 79152  1  0  0  0
 80153  1  0  0  0
 81154  1  0  0  0
M  ISO  4   1 100  68 101  79 101  81 100
M  END
> <chiral flag>
0

> <version>
0

> <s_m_source_file>
/data/baiqing/PycharmProjects/Reinvent-master-3.2/result/LINK_invent/BTK/process_docking_weight1_custom_product_contain_oxygen_bond_distance_aromatic_linkinvent_7_9_3/rearranged_h_0145.sdf

> <i_m_source_file_index>
67

> <r_mmod_Potential_Energy-OPLS-2005>
-38.3403663635254

> <r_mmod_Stretch_Energy-OPLS-2005>
55.461067199707

> <r_mmod_Bend_Energy-OPLS-2005>
143.563461303711

> <r_mmod_Torsional_Energy-OPLS-2005>
274.435760498047

> <r_mmod_Improper_Torsional_Energy-OPLS-2005>
22.0239353179932

> <r_mmod_Van_der_Waal_Energy-OPLS-2005>
118.336959838867

> <r_mmod_Electrostatic_Energy-OPLS-2005>
-456.107055664062

> <r_mmod_Solvation_Energy-OPLS-2005>
-229.110641479492

> <b_mmod_Minimization_Converged-OPLS-2005>
0

> <r_mmod_RMS_Derivative-OPLS-2005>
3.42749571800232

$$$$
67
                    3D
 Structure written by MMmdl.
166175  0  0  1  0            999 V2000
  -30.7037  -14.4842   20.5258 C   0  0  0  0  0  0
  -30.4270  -12.2994   19.4310 C   0  0  0  0  0  0
  -29.4981  -12.4821   18.2114 C   0  0  0  0  0  0
  -28.0191  -12.3440   18.6257 C   0  0  0  0  0  0
  -27.6612  -13.2033   19.8684 C   0  0  2  0  0  0
  -28.7059  -13.0078   20.9925 C   0  0  0  0  0  0
  -25.2600  -13.8163   20.5684 C   0  0  0  0  0  0
  -24.1849  -13.0454   20.9198 C   0  0  0  0  0  0
  -24.6391  -11.6917   20.8746 C   0  0  0  0  0  0
  -23.9053  -10.4309   21.0403 C   0  0  0  0  0  0
  -24.3611   -9.4227   21.9183 C   0  0  0  0  0  0
  -23.6296   -8.2251   22.0744 C   0  0  0  0  0  0
  -22.4275   -8.0284   21.3543 C   0  0  0  0  0  0
  -21.9913   -9.0252   20.4634 C   0  0  0  0  0  0
  -22.7228  -10.2142   20.3047 C   0  0  0  0  0  0
  -21.6856   -6.0740   22.5277 C   0  0  0  0  0  0
  -21.3999   -6.5637   23.8214 C   0  0  0  0  0  0
  -21.3662   -5.6788   24.9178 C   0  0  0  0  0  0
  -21.6048   -4.3049   24.7223 C   0  0  0  0  0  0
  -21.8821   -3.8146   23.4345 C   0  0  0  0  0  0
  -21.9194   -4.6967   22.3402 C   0  0  0  0  0  0
  -22.7871  -13.5254   21.1870 C   0  0  0  0  0  0
  -22.1664   -4.2153   21.0980 F   0  0  0  0  0  0
  -21.5643   -3.4527   25.7736 F   0  0  0  0  0  0
  -30.0396  -13.2991   20.4376 N   0  0  0  0  0  0
  -26.3022  -12.9321   20.3351 N   0  0  0  0  0  0
  -25.9316  -11.6487   20.5772 N   0  0  0  0  0  0
  -22.0495  -12.8223   22.0396 N   0  0  0  0  0  0
  -25.4353  -15.1876   20.4082 N   0  0  0  0  0  0
  -31.8519  -14.6300   20.1023 O   0  0  0  0  0  0
  -21.6641   -6.8882   21.4240 O   0  0  0  0  0  0
  -22.3564  -14.5571   20.6739 O   0  0  0  0  0  0
  -24.6141  -31.8693   23.2106 C   0  0  0  0  0  0
  -25.9038  -32.4832   23.8389 C   0  0  1  0  0  0
  -27.2353  -27.4464   20.1062 C   0  0  0  0  0  0
  -25.5880  -33.8628   24.2324 N   0  0  0  0  0  0
  -23.4009  -30.4954   21.5499 C   0  0  2  0  0  0
  -24.8499  -28.9644   20.1083 C   0  0  0  0  0  0
  -22.7396  -29.4685   22.4985 C   0  0  0  0  0  0
  -18.0281  -28.1394   22.8534 C   0  0  0  0  0  0
  -24.1477  -36.7302   23.2641 C   0  0  0  0  0  0
  -25.9291  -30.8436   21.3573 C   0  0  0  0  0  0
  -26.0103  -29.4789   20.7049 C   0  0  0  0  0  0
  -27.2082  -28.7276   20.7006 C   0  0  0  0  0  0
  -26.0659  -26.9531   19.4866 C   0  0  0  0  0  0
  -24.8736  -27.7015   19.4921 C   0  0  0  0  0  0
  -23.6073  -29.8280   20.1630 C   0  0  0  0  0  0
  -25.4104  -36.3111   24.0342 C   0  0  1  0  0  0
  -20.5877  -28.3665   23.1344 C   0  0  2  0  0  0
  -20.6782  -26.9406   22.5437 C   0  0  0  0  0  0
  -19.5754  -26.6418   21.5238 C   0  0  0  0  0  0
  -18.1924  -26.7962   22.1637 C   0  0  0  0  0  0
  -19.1532  -28.8845   23.2940 C   0  0  0  0  0  0
  -18.9467  -30.1462   23.8922 C   0  0  0  0  0  0
  -17.6467  -30.6605   24.0596 C   0  0  0  0  0  0
  -25.9030  -34.9483   23.5141 C   0  0  0  0  0  0
  -16.5354  -29.9122   23.6348 C   0  0  0  0  0  0
  -16.7266  -28.6545   23.0357 C   0  0  0  0  0  0
  -26.4471  -31.6588   25.0698 C   0  0  0  0  0  0
  -25.3746  -31.3710   26.1441 C   0  0  0  0  0  0
  -27.0279  -30.3036   24.6037 C   0  0  0  0  0  0
  -27.6032  -32.4306   25.7467 C   0  0  0  0  0  0
  -27.5574  -37.1818   24.8474 C   0  0  0  0  0  0
  -21.4125  -29.3046   22.3724 N   0  0  0  0  0  0
  -26.4287  -37.3787   23.9407 N   0  0  0  0  0  0
  -24.6665  -31.0827   22.0988 N   0  0  0  0  0  0
  -23.4186  -28.8227   23.3002 O   0  0  0  0  0  0
  -28.3561  -26.6480   20.1681 O   0  0  0  0  0  0
  -26.5595  -34.8944   22.4700 O   0  0  0  0  0  0
  -23.5348  -32.1424   23.7530 O   0  0  0  0  0  0
  -28.8842  -19.0817   20.5654 C   0  0  0  0  0  0
  -31.1085  -18.8892   19.6174 C   0  0  0  0  0  0
  -28.9229  -17.7183   20.9365 C   0  0  0  0  0  0
  -31.1438  -17.5230   19.9808 C   0  0  0  0  0  0
  -29.9752  -19.6860   19.9011 C   0  0  0  0  0  0
  -30.0414  -16.9084   20.6329 C   0  0  0  0  0  0
  -29.8917  -21.0795   19.4075 C   0  0  0  0  0  0
  -28.8216  -23.3485   22.1103 C   0  0  0  0  0  0
  -29.4927  -22.0544   21.6572 C   0  0  0  0  0  0
  -29.1435  -23.5309   19.7658 C   0  0  1  0  0  0
  -29.2086  -24.3994   21.0549 C   0  0  2  0  0  0
  -29.9074  -24.1497   18.5718 C   0  0  0  0  0  0
  -30.6320  -24.9199   21.3647 C   0  0  0  0  0  0
  -28.1749  -25.5632   21.0968 C   0  0  0  0  0  0
  -29.5814  -22.1568   20.1856 N   0  0  0  0  0  0
  -29.9650  -15.5167   20.9790 N   0  0  0  0  0  0
  -30.1183  -21.2630   18.1114 N   0  3  0  0  0  0
  -31.4715  -12.3909   19.1267 H   0  0  0  0  0  0
  -30.3280  -11.2959   19.8484 H   0  0  0  0  0  0
  -29.7417  -11.7462   17.4432 H   0  0  0  0  0  0
  -29.6619  -13.4615   17.7602 H   0  0  0  0  0  0
  -27.8349  -11.2906   18.8396 H   0  0  0  0  0  0
  -27.3679  -12.5984   17.7890 H   0  0  0  0  0  0
  -27.6994  -14.2452   19.5502 H   0  0  0  0  0  0
  -28.6825  -11.9799   21.3570 H   0  0  0  0  0  0
  -28.4709  -13.6292   21.8580 H   0  0  0  0  0  0
  -25.2758   -9.5705   22.4752 H   0  0  0  0  0  0
  -24.0016   -7.4635   22.7450 H   0  0  0  0  0  0
  -21.0859   -8.8762   19.8926 H   0  0  0  0  0  0
  -22.3693  -10.9675   19.6148 H   0  0  0  0  0  0
  -21.1966   -7.6140   23.9719 H   0  0  0  0  0  0
  -21.1487   -6.0513   25.9086 H   0  0  0  0  0  0
  -22.0595   -2.7606   23.2837 H   0  0  0  0  0  0
  -22.4089  -11.9872   22.4768 H   0  0  0  0  0  0
  -21.1108  -13.1240   22.2589 H   0  0  0  0  0  0
  -24.6678  -15.8432   20.5074 H   0  0  0  0  0  0
  -26.2762  -15.6176   20.0441 H   0  0  0  0  0  0
  -26.7117  -32.5546   23.1153 H   0  0  0  0  0  0
  -25.0010  -33.9774   25.0464 H   0  0  0  0  0  0
  -22.6929  -31.3161   21.4140 H   0  0  0  0  0  0
  -23.3729  -35.9645   23.3330 H   0  0  0  0  0  0
  -24.3573  -36.8873   22.2047 H   0  0  0  0  0  0
  -23.7262  -37.6537   23.6625 H   0  0  0  0  0  0
  -26.0389  -31.6103   20.5888 H   0  0  0  0  0  0
  -26.8201  -30.9010   21.9706 H   0  0  0  0  0  0
  -28.0982  -29.1157   21.1771 H   0  0  0  0  0  0
  -26.0748  -25.9795   19.0182 H   0  0  0  0  0  0
  -23.9822  -27.3032   19.0253 H   0  0  0  0  0  0
  -23.7109  -30.6057   19.4057 H   0  0  0  0  0  0
  -22.7316  -29.2463   19.8660 H   0  0  0  0  0  0
  -25.1302  -36.1949   25.0841 H   0  0  0  0  0  0
  -20.9998  -28.3224   24.1451 H   0  0  0  0  0  0
  -20.5726  -26.2257   23.3616 H   0  0  0  0  0  0
  -21.6640  -26.7498   22.1176 H   0  0  0  0  0  0
  -19.6909  -25.6343   21.1232 H   0  0  0  0  0  0
  -19.6685  -27.3276   20.6795 H   0  0  0  0  0  0
  -17.4206  -26.6744   21.4008 H   0  0  0  0  0  0
  -18.0282  -26.0112   22.9030 H   0  0  0  0  0  0
  -19.7931  -30.7306   24.2260 H   0  0  0  0  0  0
  -17.5022  -31.6283   24.5203 H   0  0  0  0  0  0
  -15.5358  -30.3036   23.7675 H   0  0  0  0  0  0
  -15.8662  -28.0899   22.7012 H   0  0  0  0  0  0
  -24.5901  -30.7069   25.7791 H   0  0  0  0  0  0
  -24.8955  -32.2880   26.4887 H   0  0  0  0  0  0
  -25.8112  -30.8887   27.0191 H   0  0  0  0  0  0
  -26.2808  -29.6812   24.1104 H   0  0  0  0  0  0
  -27.4077  -29.7252   25.4467 H   0  0  0  0  0  0
  -27.8626  -30.4361   23.9154 H   0  0  0  0  0  0
  -27.2623  -33.3600   26.2046 H   0  0  0  0  0  0
  -28.3840  -32.6872   25.0293 H   0  0  0  0  0  0
  -28.0681  -31.8423   26.5386 H   0  0  0  0  0  0
  -28.2625  -38.0083   24.7480 H   0  0  0  0  0  0
  -28.1038  -36.2619   24.6345 H   0  0  0  0  0  0
  -27.2289  -37.1507   25.8879 H   0  0  0  0  0  0
  -20.9246  -29.8743   21.6945 H   0  0  0  0  0  0
  -26.0172  -38.2867   24.1386 H   0  0  0  0  0  0
  -27.9903  -19.6573   20.7653 H   0  0  0  0  0  0
  -31.9555  -19.3207   19.1007 H   0  0  0  0  0  0
  -28.0619  -17.2951   21.4348 H   0  0  0  0  0  0
  -32.0321  -16.9655   19.7256 H   0  0  0  0  0  0
  -29.1363  -23.6367   23.1137 H   0  0  0  0  0  0
  -27.7412  -23.1896   22.1434 H   0  0  0  0  0  0
  -28.9330  -21.1938   22.0184 H   0  0  0  0  0  0
  -30.5005  -21.9881   22.0717 H   0  0  0  0  0  0
  -28.0953  -23.4472   19.4715 H   0  0  0  0  0  0
  -30.9668  -23.8897   18.5767 H   0  0  0  0  0  0
  -29.8466  -25.2390   18.5890 H   0  0  0  0  0  0
  -29.4717  -23.8369   17.6234 H   0  0  0  0  0  0
  -31.3795  -24.1267   21.3035 H   0  0  0  0  0  0
  -30.6896  -25.3431   22.3685 H   0  0  0  0  0  0
  -30.9355  -25.7033   20.6709 H   0  0  0  0  0  0
  -28.1722  -25.9960   22.0983 H   0  0  0  0  0  0
  -27.1836  -25.1259   20.9733 H   0  0  0  0  0  0
  -29.0906  -15.2275   21.3863 H   0  0  0  0  0  0
  -30.3121  -20.4677   17.5238 H   0  0  0  0  0  0
  -30.1943  -22.1899   17.7267 H   0  0  0  0  0  0
  1 25  1  0  0  0
  1 30  2  0  0  0
  1 86  1  0  0  0
  2  3  1  0  0  0
  2 25  1  0  0  0
  2 88  1  0  0  0
  2 89  1  0  0  0
  3  4  1  0  0  0
  3 90  1  0  0  0
  3 91  1  0  0  0
  4  5  1  0  0  0
  4 92  1  0  0  0
  4 93  1  0  0  0
  5  6  1  0  0  0
  5 26  1  0  0  0
  5 94  1  0  0  0
  6 25  1  0  0  0
  6 95  1  0  0  0
  6 96  1  0  0  0
  7  8  2  0  0  0
  7 26  1  0  0  0
  7 29  1  0  0  0
  8  9  1  0  0  0
  8 22  1  0  0  0
  9 10  1  0  0  0
  9 27  2  0  0  0
 10 11  2  0  0  0
 10 15  1  0  0  0
 11 12  1  0  0  0
 11 97  1  0  0  0
 12 13  2  0  0  0
 12 98  1  0  0  0
 13 14  1  0  0  0
 13 31  1  0  0  0
 14 15  2  0  0  0
 14 99  1  0  0  0
 15100  1  0  0  0
 16 17  2  0  0  0
 16 21  1  0  0  0
 16 31  1  0  0  0
 17 18  1  0  0  0
 17101  1  0  0  0
 18 19  2  0  0  0
 18102  1  0  0  0
 19 20  1  0  0  0
 19 24  1  0  0  0
 20 21  2  0  0  0
 20103  1  0  0  0
 21 23  1  0  0  0
 22 28  1  0  0  0
 22 32  2  0  0  0
 26 27  1  0  0  0
 28104  1  0  0  0
 28105  1  0  0  0
 29106  1  0  0  0
 29107  1  0  0  0
 33 34  1  0  0  0
 33 66  1  0  0  0
 33 70  2  0  0  0
 34 36  1  0  0  0
 34 59  1  0  0  0
 34108  1  0  0  0
 35 44  2  0  0  0
 35 45  1  0  0  0
 35 68  1  0  0  0
 36 56  1  0  0  0
 36109  1  0  0  0
 37 39  1  0  0  0
 37 47  1  0  0  0
 37 66  1  0  0  0
 37110  1  0  0  0
 38 43  2  0  0  0
 38 46  1  0  0  0
 38 47  1  0  0  0
 39 64  1  0  0  0
 39 67  2  0  0  0
 40 52  1  0  0  0
 40 53  2  0  0  0
 40 58  1  0  0  0
 41111  1  0  0  0
 41112  1  0  0  0
 41113  1  0  0  0
 41 48  1  0  0  0
 42 43  1  0  0  0
 42 66  1  0  0  0
 42114  1  0  0  0
 42115  1  0  0  0
 43 44  1  0  0  0
 44116  1  0  0  0
 45 46  2  0  0  0
 45117  1  0  0  0
 46118  1  0  0  0
 47119  1  0  0  0
 47120  1  0  0  0
 48 56  1  0  0  0
 48 65  1  0  0  0
 48121  1  0  0  0
 49 50  1  0  0  0
 49 53  1  0  0  0
 49 64  1  0  0  0
 49122  1  0  0  0
 50 51  1  0  0  0
 50123  1  0  0  0
 50124  1  0  0  0
 51 52  1  0  0  0
 51125  1  0  0  0
 51126  1  0  0  0
 52127  1  0  0  0
 52128  1  0  0  0
 53 54  1  0  0  0
 54 55  2  0  0  0
 54129  1  0  0  0
 55 57  1  0  0  0
 55130  1  0  0  0
 56 69  2  0  0  0
 57 58  2  0  0  0
 57131  1  0  0  0
 58132  1  0  0  0
 59 60  1  0  0  0
 59 61  1  0  0  0
 59 62  1  0  0  0
 60133  1  0  0  0
 60134  1  0  0  0
 60135  1  0  0  0
 61136  1  0  0  0
 61137  1  0  0  0
 61138  1  0  0  0
 62139  1  0  0  0
 62140  1  0  0  0
 62141  1  0  0  0
 63 65  1  0  0  0
 63142  1  0  0  0
 63143  1  0  0  0
 63144  1  0  0  0
 64145  1  0  0  0
 65146  1  0  0  0
 68 84  1  0  0  0
 71 73  2  0  0  0
 71 75  1  0  0  0
 71147  1  0  0  0
 72 74  1  0  0  0
 72 75  2  0  0  0
 72148  1  0  0  0
 73 76  1  0  0  0
 73149  1  0  0  0
 74 76  2  0  0  0
 74150  1  0  0  0
 75 77  1  0  0  0
 76 86  1  0  0  0
 77 85  1  0  0  0
 77 87  2  0  0  0
 78 79  1  0  0  0
 78 81  1  0  0  0
 78151  1  0  0  0
 78152  1  0  0  0
 79 85  1  0  0  0
 79153  1  0  0  0
 79154  1  0  0  0
 80 81  1  0  0  0
 80 82  1  0  0  0
 80 85  1  0  0  0
 80155  1  0  0  0
 81 83  1  0  0  0
 81 84  1  0  0  0
 82156  1  0  0  0
 82157  1  0  0  0
 82158  1  0  0  0
 83159  1  0  0  0
 83160  1  0  0  0
 83161  1  0  0  0
 84162  1  0  0  0
 84163  1  0  0  0
 86164  1  0  0  0
 87165  1  0  0  0
 87166  1  0  0  0
M  CHG  1  87   1
M  ISO  4   1 100  68 101  84 101  86 100
M  END
> <chiral flag>
0

> <version>
0

> <s_m_source_file>
/data/baiqing/PycharmProjects/Reinvent-master-3.2/result/LINK_invent/BTK/process_docking_weight1_custom_product_contain_oxygen_bond_distance_aromatic_linkinvent_7_9_3/rearranged_h_0145.sdf

> <i_m_source_file_index>
68

> <r_mmod_Potential_Energy-OPLS-2005>
-59.1487312316895

> <r_mmod_Stretch_Energy-OPLS-2005>
43.1447334289551

> <r_mmod_Bend_Energy-OPLS-2005>
141.441818237305

> <r_mmod_Torsional_Energy-OPLS-2005>
336.423461914062

> <r_mmod_Improper_Torsional_Energy-OPLS-2005>
5.09784746170044

> <r_mmod_Van_der_Waal_Energy-OPLS-2005>
164.780364990234

> <r_mmod_Electrostatic_Energy-OPLS-2005>
-382.607971191406

> <r_mmod_Solvation_Energy-OPLS-2005>
-384.286895751953

> <b_mmod_Minimization_Converged-OPLS-2005>
0

> <r_mmod_RMS_Derivative-OPLS-2005>
3.11256766319275

$$$$
68
                    3D
 Structure written by MMmdl.
164172  0  0  1  0            999 V2000
  -30.7092  -14.5104   20.5945 C   0  0  0  0  0  0
  -30.4221  -12.3392   19.4356 C   0  0  0  0  0  0
  -29.4960  -12.5356   18.2134 C   0  0  0  0  0  0
  -28.0134  -12.3973   18.6139 C   0  0  0  0  0  0
  -27.6636  -13.2074   19.8901 C   0  0  2  0  0  0
  -28.7034  -12.9344   20.9954 C   0  0  0  0  0  0
  -25.2594  -13.8155   20.5715 C   0  0  0  0  0  0
  -24.1833  -13.0432   20.9166 C   0  0  0  0  0  0
  -24.6388  -11.6897   20.8725 C   0  0  0  0  0  0
  -23.9054  -10.4288   21.0397 C   0  0  0  0  0  0
  -24.3608   -9.4211   21.9178 C   0  0  0  0  0  0
  -23.6292   -8.2239   22.0748 C   0  0  0  0  0  0
  -22.4276   -8.0269   21.3534 C   0  0  0  0  0  0
  -21.9904   -9.0246   20.4641 C   0  0  0  0  0  0
  -22.7225  -10.2133   20.3052 C   0  0  0  0  0  0
  -21.6854   -6.0731   22.5279 C   0  0  0  0  0  0
  -21.4016   -6.5638   23.8210 C   0  0  0  0  0  0
  -21.3663   -5.6792   24.9174 C   0  0  0  0  0  0
  -21.6044   -4.3055   24.7221 C   0  0  0  0  0  0
  -21.8822   -3.8147   23.4346 C   0  0  0  0  0  0
  -21.9200   -4.6961   22.3406 C   0  0  0  0  0  0
  -22.7855  -13.5222   21.1840 C   0  0  0  0  0  0
  -22.1662   -4.2145   21.0982 F   0  0  0  0  0  0
  -21.5632   -3.4542   25.7740 F   0  0  0  0  0  0
  -30.0278  -13.3199   20.4729 N   0  0  0  0  0  0
  -26.3033  -12.9327   20.3438 N   0  0  0  0  0  0
  -25.9321  -11.6479   20.5770 N   0  0  0  0  0  0
  -22.0523  -12.8200   22.0402 N   0  0  0  0  0  0
  -25.4342  -15.1877   20.4154 N   0  0  0  0  0  0
  -31.7919  -14.6602   20.0195 O   0  0  0  0  0  0
  -21.6633   -6.8875   21.4243 O   0  0  0  0  0  0
  -22.3527  -14.5542   20.6721 O   0  0  0  0  0  0
  -24.6166  -31.8644   23.2088 C   0  0  0  0  0  0
  -25.9052  -32.4795   23.8385 C   0  0  1  0  0  0
  -27.2380  -27.4101   20.0764 C   0  0  0  0  0  0
  -25.5909  -33.8596   24.2315 N   0  0  0  0  0  0
  -23.4064  -30.4886   21.5506 C   0  0  2  0  0  0
  -24.8500  -28.9539   20.1156 C   0  0  0  0  0  0
  -22.7429  -29.4629   22.4986 C   0  0  0  0  0  0
  -18.0271  -28.1369   22.8487 C   0  0  0  0  0  0
  -24.1485  -36.7297   23.2639 C   0  0  0  0  0  0
  -25.9398  -30.8209   21.3676 C   0  0  0  0  0  0
  -26.0138  -29.4554   20.7094 C   0  0  0  0  0  0
  -27.2071  -28.6922   20.6830 C   0  0  0  0  0  0
  -26.0461  -26.9326   19.4797 C   0  0  0  0  0  0
  -24.8626  -27.6923   19.4999 C   0  0  0  0  0  0
  -23.6138  -29.8215   20.1658 C   0  0  0  0  0  0
  -25.4111  -36.3092   24.0332 C   0  0  1  0  0  0
  -20.5864  -28.3651   23.1301 C   0  0  2  0  0  0
  -20.6753  -26.9380   22.5414 C   0  0  0  0  0  0
  -19.5742  -26.6374   21.5200 C   0  0  0  0  0  0
  -18.1917  -26.7919   22.1608 C   0  0  0  0  0  0
  -19.1525  -28.8829   23.2886 C   0  0  0  0  0  0
  -18.9457  -30.1432   23.8899 C   0  0  0  0  0  0
  -17.6459  -30.6570   24.0563 C   0  0  0  0  0  0
  -25.9042  -34.9456   23.5123 C   0  0  0  0  0  0
  -16.5350  -29.9071   23.6324 C   0  0  0  0  0  0
  -16.7263  -28.6492   23.0345 C   0  0  0  0  0  0
  -26.4486  -31.6585   25.0724 C   0  0  0  0  0  0
  -25.3762  -31.3691   26.1481 C   0  0  0  0  0  0
  -27.0326  -30.3028   24.6103 C   0  0  0  0  0  0
  -27.6051  -32.4322   25.7485 C   0  0  0  0  0  0
  -27.5587  -37.1794   24.8466 C   0  0  0  0  0  0
  -21.4157  -29.3016   22.3723 N   0  0  0  0  0  0
  -26.4291  -37.3785   23.9418 N   0  0  0  0  0  0
  -24.6728  -31.0726   22.0997 N   0  0  0  0  0  0
  -23.4199  -28.8156   23.3019 O   0  0  0  0  0  0
  -28.4316  -26.6967   20.0713 O   0  0  0  0  0  0
  -26.5599  -34.8912   22.4679 O   0  0  0  0  0  0
  -23.5346  -32.1409   23.7463 O   0  0  0  0  0  0
  -29.7325  -18.2325   21.0636 C   0  0  0  0  0  0
  -32.0076  -17.3931   21.0071 C   0  0  0  0  0  0
  -31.5850  -19.7886   20.7789 C   0  0  0  0  0  0
  -30.6226  -17.1142   21.1131 C   0  0  0  0  0  0
  -30.1938  -19.5721   20.9015 C   0  0  0  0  0  0
  -32.4811  -18.7065   20.8317 C   0  0  0  0  0  0
  -30.1011  -15.7157   21.3966 C   0  0  0  0  0  0
  -29.3832  -21.9548   20.5784 C   0  0  0  0  0  0
  -27.7723  -24.6141   23.7947 C   0  0  0  0  0  0
  -30.1103  -24.7450   21.7839 C   0  0  0  0  0  0
  -28.3343  -22.9456   21.1475 C   0  0  0  0  0  0
  -27.6711  -25.1055   22.3399 C   0  0  0  0  0  0
  -28.4490  -25.2497   19.9443 C   0  0  0  0  0  0
  -28.6600  -24.4911   21.2996 C   0  0  1  0  0  0
  -29.1955  -15.6138   22.2764 N   0  0  0  0  0  0
  -29.2589  -20.6631   20.9774 N   0  0  0  0  0  0
  -30.2284  -22.3345   19.7646 O   0  0  0  0  0  0
  -33.8136  -18.9321   20.7492 F   0  0  0  0  0  0
  -31.4668  -12.4281   19.1343 H   0  0  0  0  0  0
  -30.3301  -11.3223   19.8192 H   0  0  0  0  0  0
  -29.7403  -11.8148   17.4312 H   0  0  0  0  0  0
  -29.6632  -13.5233   17.7799 H   0  0  0  0  0  0
  -27.8091  -11.3390   18.7784 H   0  0  0  0  0  0
  -27.3698  -12.7067   17.7896 H   0  0  0  0  0  0
  -27.7213  -14.2655   19.6329 H   0  0  0  0  0  0
  -28.7053  -11.8693   21.2314 H   0  0  0  0  0  0
  -28.4246  -13.3875   21.9399 H   0  0  0  0  0  0
  -25.2764   -9.5676   22.4740 H   0  0  0  0  0  0
  -24.0015   -7.4626   22.7457 H   0  0  0  0  0  0
  -21.0840   -8.8757   19.8936 H   0  0  0  0  0  0
  -22.3690  -10.9668   19.6147 H   0  0  0  0  0  0
  -21.2000   -7.6144   23.9707 H   0  0  0  0  0  0
  -21.1482   -6.0523   25.9072 H   0  0  0  0  0  0
  -22.0603   -2.7607   23.2849 H   0  0  0  0  0  0
  -22.4166  -11.9847   22.4742 H   0  0  0  0  0  0
  -21.1137  -13.1192   22.2659 H   0  0  0  0  0  0
  -24.6813  -15.8538   20.5536 H   0  0  0  0  0  0
  -26.3120  -15.6261   20.1673 H   0  0  0  0  0  0
  -26.7126  -32.5507   23.1145 H   0  0  0  0  0  0
  -25.0095  -33.9743   25.0487 H   0  0  0  0  0  0
  -22.6965  -31.3070   21.4091 H   0  0  0  0  0  0
  -23.3744  -35.9632   23.3306 H   0  0  0  0  0  0
  -24.3602  -36.8913   22.2060 H   0  0  0  0  0  0
  -23.7227  -37.6493   23.6663 H   0  0  0  0  0  0
  -26.0623  -31.5886   20.6030 H   0  0  0  0  0  0
  -26.8235  -30.8662   21.9926 H   0  0  0  0  0  0
  -28.1090  -29.0796   21.1354 H   0  0  0  0  0  0
  -25.9925  -25.9870   18.9664 H   0  0  0  0  0  0
  -23.9697  -27.3030   19.0303 H   0  0  0  0  0  0
  -23.7225  -30.5955   19.4050 H   0  0  0  0  0  0
  -22.7385  -29.2396   19.8721 H   0  0  0  0  0  0
  -25.1278  -36.1962   25.0823 H   0  0  0  0  0  0
  -20.9944  -28.3218   24.1429 H   0  0  0  0  0  0
  -20.5630  -26.2262   23.3608 H   0  0  0  0  0  0
  -21.6624  -26.7402   22.1221 H   0  0  0  0  0  0
  -19.6899  -25.6287   21.1220 H   0  0  0  0  0  0
  -19.6688  -27.3194   20.6741 H   0  0  0  0  0  0
  -17.4184  -26.6673   21.4008 H   0  0  0  0  0  0
  -18.0305  -26.0047   22.8994 H   0  0  0  0  0  0
  -19.7936  -30.7235   24.2279 H   0  0  0  0  0  0
  -17.5016  -31.6255   24.5157 H   0  0  0  0  0  0
  -15.5350  -30.2970   23.7644 H   0  0  0  0  0  0
  -15.8669  -28.0814   22.7051 H   0  0  0  0  0  0
  -24.5928  -30.7040   25.7831 H   0  0  0  0  0  0
  -24.8958  -32.2841   26.4949 H   0  0  0  0  0  0
  -25.8113  -30.8860   27.0237 H   0  0  0  0  0  0
  -26.2869  -29.6780   24.1170 H   0  0  0  0  0  0
  -27.4119  -29.7268   25.4551 H   0  0  0  0  0  0
  -27.8694  -30.4348   23.9241 H   0  0  0  0  0  0
  -27.2659  -33.3613   26.2077 H   0  0  0  0  0  0
  -28.3842  -32.6903   25.0303 H   0  0  0  0  0  0
  -28.0747  -31.8460   26.5392 H   0  0  0  0  0  0
  -28.2572  -38.0118   24.7528 H   0  0  0  0  0  0
  -28.1098  -36.2645   24.6251 H   0  0  0  0  0  0
  -27.2316  -37.1397   25.8868 H   0  0  0  0  0  0
  -20.9322  -29.8790   21.6989 H   0  0  0  0  0  0
  -26.0176  -38.2851   24.1450 H   0  0  0  0  0  0
  -28.6703  -18.0617   21.1770 H   0  0  0  0  0  0
  -32.7429  -16.6067   21.0865 H   0  0  0  0  0  0
  -31.9930  -20.7841   20.6864 H   0  0  0  0  0  0
  -27.0717  -25.1684   24.4196 H   0  0  0  0  0  0
  -28.7661  -24.7782   24.2134 H   0  0  0  0  0  0
  -27.5207  -23.5619   23.9080 H   0  0  0  0  0  0
  -30.3841  -24.0955   22.6148 H   0  0  0  0  0  0
  -30.2510  -25.7768   22.1104 H   0  0  0  0  0  0
  -30.8390  -24.5757   20.9903 H   0  0  0  0  0  0
  -28.0918  -22.5384   22.1252 H   0  0  0  0  0  0
  -27.4177  -22.8237   20.5710 H   0  0  0  0  0  0
  -27.8221  -26.1833   22.3913 H   0  0  0  0  0  0
  -26.6471  -24.9673   21.9912 H   0  0  0  0  0  0
  -29.2646  -25.0054   19.2620 H   0  0  0  0  0  0
  -27.5757  -24.8463   19.4441 H   0  0  0  0  0  0
  -28.9725  -16.5147   22.6807 H   0  0  0  0  0  0
  -28.3994  -20.4599   21.4711 H   0  0  0  0  0  0
  1 25  1  0  0  0
  1 30  2  0  0  0
  1 77  1  0  0  0
  2  3  1  0  0  0
  2 25  1  0  0  0
  2 89  1  0  0  0
  2 90  1  0  0  0
  3  4  1  0  0  0
  3 91  1  0  0  0
  3 92  1  0  0  0
  4  5  1  0  0  0
  4 93  1  0  0  0
  4 94  1  0  0  0
  5  6  1  0  0  0
  5 26  1  0  0  0
  5 95  1  0  0  0
  6 25  1  0  0  0
  6 96  1  0  0  0
  6 97  1  0  0  0
  7  8  2  0  0  0
  7 26  1  0  0  0
  7 29  1  0  0  0
  8  9  1  0  0  0
  8 22  1  0  0  0
  9 10  1  0  0  0
  9 27  2  0  0  0
 10 11  2  0  0  0
 10 15  1  0  0  0
 11 12  1  0  0  0
 11 98  1  0  0  0
 12 13  2  0  0  0
 12 99  1  0  0  0
 13 14  1  0  0  0
 13 31  1  0  0  0
 14 15  2  0  0  0
 14100  1  0  0  0
 15101  1  0  0  0
 16 17  2  0  0  0
 16 21  1  0  0  0
 16 31  1  0  0  0
 17 18  1  0  0  0
 17102  1  0  0  0
 18 19  2  0  0  0
 18103  1  0  0  0
 19 20  1  0  0  0
 19 24  1  0  0  0
 20 21  2  0  0  0
 20104  1  0  0  0
 21 23  1  0  0  0
 22 28  1  0  0  0
 22 32  2  0  0  0
 26 27  1  0  0  0
 28105  1  0  0  0
 28106  1  0  0  0
 29107  1  0  0  0
 29108  1  0  0  0
 33 34  1  0  0  0
 33 66  1  0  0  0
 33 70  2  0  0  0
 34 36  1  0  0  0
 34 59  1  0  0  0
 34109  1  0  0  0
 35 44  2  0  0  0
 35 45  1  0  0  0
 35 68  1  0  0  0
 36 56  1  0  0  0
 36110  1  0  0  0
 37 39  1  0  0  0
 37 47  1  0  0  0
 37 66  1  0  0  0
 37111  1  0  0  0
 38 43  2  0  0  0
 38 46  1  0  0  0
 38 47  1  0  0  0
 39 64  1  0  0  0
 39 67  2  0  0  0
 40 52  1  0  0  0
 40 53  2  0  0  0
 40 58  1  0  0  0
 41112  1  0  0  0
 41113  1  0  0  0
 41114  1  0  0  0
 41 48  1  0  0  0
 42 43  1  0  0  0
 42 66  1  0  0  0
 42115  1  0  0  0
 42116  1  0  0  0
 43 44  1  0  0  0
 44117  1  0  0  0
 45 46  2  0  0  0
 45118  1  0  0  0
 46119  1  0  0  0
 47120  1  0  0  0
 47121  1  0  0  0
 48 56  1  0  0  0
 48 65  1  0  0  0
 48122  1  0  0  0
 49 50  1  0  0  0
 49 53  1  0  0  0
 49 64  1  0  0  0
 49123  1  0  0  0
 50 51  1  0  0  0
 50124  1  0  0  0
 50125  1  0  0  0
 51 52  1  0  0  0
 51126  1  0  0  0
 51127  1  0  0  0
 52128  1  0  0  0
 52129  1  0  0  0
 53 54  1  0  0  0
 54 55  2  0  0  0
 54130  1  0  0  0
 55 57  1  0  0  0
 55131  1  0  0  0
 56 69  2  0  0  0
 57 58  2  0  0  0
 57132  1  0  0  0
 58133  1  0  0  0
 59 60  1  0  0  0
 59 61  1  0  0  0
 59 62  1  0  0  0
 60134  1  0  0  0
 60135  1  0  0  0
 60136  1  0  0  0
 61137  1  0  0  0
 61138  1  0  0  0
 61139  1  0  0  0
 62140  1  0  0  0
 62141  1  0  0  0
 62142  1  0  0  0
 63 65  1  0  0  0
 63143  1  0  0  0
 63144  1  0  0  0
 63145  1  0  0  0
 64146  1  0  0  0
 65147  1  0  0  0
 68 83  1  0  0  0
 71 74  2  0  0  0
 71 75  1  0  0  0
 71148  1  0  0  0
 72 74  1  0  0  0
 72 76  2  0  0  0
 72149  1  0  0  0
 73 75  2  0  0  0
 73 76  1  0  0  0
 73150  1  0  0  0
 74 77  1  0  0  0
 75 86  1  0  0  0
 76 88  1  0  0  0
 77 85  2  0  0  0
 78 81  1  0  0  0
 78 86  1  0  0  0
 78 87  2  0  0  0
 79 82  1  0  0  0
 79151  1  0  0  0
 79152  1  0  0  0
 79153  1  0  0  0
 80154  1  0  0  0
 80155  1  0  0  0
 80156  1  0  0  0
 80 84  1  0  0  0
 81 84  1  0  0  0
 81157  1  0  0  0
 81158  1  0  0  0
 82 84  1  0  0  0
 82159  1  0  0  0
 82160  1  0  0  0
 83 84  1  0  0  0
 83161  1  0  0  0
 83162  1  0  0  0
 85163  1  0  0  0
 86164  1  0  0  0
M  ISO  4   1 100  68 101  77 100  83 101
M  END
> <chiral flag>
0

> <version>
0

> <s_m_source_file>
/data/baiqing/PycharmProjects/Reinvent-master-3.2/result/LINK_invent/BTK/process_docking_weight1_custom_product_contain_oxygen_bond_distance_aromatic_linkinvent_7_9_3/rearranged_h_0145.sdf

> <i_m_source_file_index>
69

> <r_mmod_Potential_Energy-OPLS-2005>
116.550582885742

> <r_mmod_Stretch_Energy-OPLS-2005>
64.1367874145508

> <r_mmod_Bend_Energy-OPLS-2005>
151.854949951172

> <r_mmod_Torsional_Energy-OPLS-2005>
199.398376464844

> <r_mmod_Improper_Torsional_Energy-OPLS-2005>
3.12856888771057

> <r_mmod_Van_der_Waal_Energy-OPLS-2005>
175.479019165039

> <r_mmod_Electrostatic_Energy-OPLS-2005>
-280.529418945312

> <r_mmod_Solvation_Energy-OPLS-2005>
-211.97346496582

> <b_mmod_Minimization_Converged-OPLS-2005>
0

> <r_mmod_RMS_Derivative-OPLS-2005>
2.29213929176331

$$$$
69
                    3D
 Structure written by MMmdl.
158167  0  0  1  0            999 V2000
  -30.6321  -14.5467   20.5523 C   0  0  0  0  0  0
  -30.4402  -12.3443   19.4313 C   0  0  0  0  0  0
  -29.5036  -12.5106   18.2138 C   0  0  0  0  0  0
  -28.0237  -12.3608   18.6236 C   0  0  0  0  0  0
  -27.6629  -13.2030   19.8758 C   0  0  2  0  0  0
  -28.7040  -12.9808   20.9964 C   0  0  0  0  0  0
  -25.2602  -13.8146   20.5681 C   0  0  0  0  0  0
  -24.1845  -13.0432   20.9169 C   0  0  0  0  0  0
  -24.6389  -11.6896   20.8722 C   0  0  0  0  0  0
  -23.9049  -10.4285   21.0394 C   0  0  0  0  0  0
  -24.3604   -9.4205   21.9177 C   0  0  0  0  0  0
  -23.6281   -8.2241   22.0749 C   0  0  0  0  0  0
  -22.4265   -8.0274   21.3542 C   0  0  0  0  0  0
  -21.9894   -9.0250   20.4649 C   0  0  0  0  0  0
  -22.7217  -10.2128   20.3052 C   0  0  0  0  0  0
  -21.6853   -6.0726   22.5275 C   0  0  0  0  0  0
  -21.4015   -6.5633   23.8206 C   0  0  0  0  0  0
  -21.3658   -5.6786   24.9171 C   0  0  0  0  0  0
  -21.6043   -4.3048   24.7222 C   0  0  0  0  0  0
  -21.8820   -3.8139   23.4346 C   0  0  0  0  0  0
  -21.9197   -4.6955   22.3399 C   0  0  0  0  0  0
  -22.7870  -13.5240   21.1833 C   0  0  0  0  0  0
  -22.1666   -4.2141   21.0979 F   0  0  0  0  0  0
  -21.5628   -3.4534   25.7736 F   0  0  0  0  0  0
  -30.0313  -13.3243   20.4526 N   0  0  0  0  0  0
  -26.3030  -12.9304   20.3358 N   0  0  0  0  0  0
  -25.9316  -11.6467   20.5754 N   0  0  0  0  0  0
  -22.0512  -12.8241   22.0398 N   0  0  0  0  0  0
  -25.4339  -15.1864   20.4106 N   0  0  0  0  0  0
  -31.7530  -14.7736   20.0843 O   0  0  0  0  0  0
  -21.6634   -6.8871   21.4235 O   0  0  0  0  0  0
  -22.3556  -14.5545   20.6676 O   0  0  0  0  0  0
  -24.6193  -31.8635   23.2068 C   0  0  0  0  0  0
  -25.9066  -32.4800   23.8375 C   0  0  1  0  0  0
  -27.2394  -27.3886   20.0858 C   0  0  0  0  0  0
  -25.5901  -33.8598   24.2304 N   0  0  0  0  0  0
  -23.4095  -30.4860   21.5486 C   0  0  2  0  0  0
  -24.8558  -28.9451   20.1135 C   0  0  0  0  0  0
  -22.7432  -29.4633   22.4979 C   0  0  0  0  0  0
  -18.0271  -28.1383   22.8486 C   0  0  0  0  0  0
  -24.1490  -36.7310   23.2641 C   0  0  0  0  0  0
  -25.9437  -30.8121   21.3681 C   0  0  0  0  0  0
  -26.0186  -29.4429   20.7129 C   0  0  0  0  0  0
  -27.2078  -28.6693   20.7007 C   0  0  0  0  0  0
  -26.0457  -26.9096   19.4979 C   0  0  0  0  0  0
  -24.8656  -27.6783   19.5063 C   0  0  0  0  0  0
  -23.6205  -29.8179   20.1640 C   0  0  0  0  0  0
  -25.4112  -36.3100   24.0336 C   0  0  1  0  0  0
  -20.5863  -28.3667   23.1320 C   0  0  2  0  0  0
  -20.6758  -26.9396   22.5432 C   0  0  0  0  0  0
  -19.5747  -26.6384   21.5218 C   0  0  0  0  0  0
  -18.1918  -26.7933   22.1612 C   0  0  0  0  0  0
  -19.1520  -28.8841   23.2897 C   0  0  0  0  0  0
  -18.9445  -30.1447   23.8908 C   0  0  0  0  0  0
  -17.6449  -30.6586   24.0563 C   0  0  0  0  0  0
  -25.9034  -34.9463   23.5119 C   0  0  0  0  0  0
  -16.5339  -29.9086   23.6331 C   0  0  0  0  0  0
  -16.7260  -28.6505   23.0348 C   0  0  0  0  0  0
  -26.4475  -31.6596   25.0726 C   0  0  0  0  0  0
  -25.3734  -31.3743   26.1480 C   0  0  0  0  0  0
  -27.0288  -30.3019   24.6147 C   0  0  0  0  0  0
  -27.6061  -32.4318   25.7472 C   0  0  0  0  0  0
  -27.5575  -37.1817   24.8470 C   0  0  0  0  0  0
  -21.4154  -29.3025   22.3720 N   0  0  0  0  0  0
  -26.4303  -37.3776   23.9391 N   0  0  0  0  0  0
  -24.6761  -31.0696   22.0989 N   0  0  0  0  0  0
  -23.4184  -28.8176   23.3037 O   0  0  0  0  0  0
  -28.4071  -26.6320   20.1188 O   0  0  0  0  0  0
  -26.5596  -34.8921   22.4682 O   0  0  0  0  0  0
  -23.5376  -32.1403   23.7438 O   0  0  0  0  0  0
  -28.4986  -18.9779   21.5212 C   0  0  0  0  0  0
  -30.3490  -19.1270   19.9767 C   0  0  0  0  0  0
  -28.7189  -17.5865   21.6511 C   0  0  0  0  0  0
  -30.5741  -17.7255   20.1075 C   0  0  0  0  0  0
  -29.3069  -19.7822   20.6855 C   0  0  0  0  0  0
  -29.7572  -16.9281   20.9518 C   0  0  0  0  0  0
  -27.8893  -23.1750   19.1692 C   0  0  0  0  0  0
  -28.7275  -24.1348   19.6202 C   0  0  0  0  0  0
  -27.9854  -21.6759   19.4932 C   0  0  0  0  0  0
  -29.8923  -23.7449   20.5302 C   0  0  0  0  0  0
  -30.2525  -22.2281   20.4649 C   0  0  0  0  0  0
  -29.0147  -21.3096   20.5927 C   0  0  2  0  0  0
  -28.6507  -25.6032   19.1253 C   0  0  0  0  0  0
  -29.8608  -15.4989   21.1343 N   0  0  0  0  0  0
  -31.4808  -12.4731   19.1288 H   0  0  0  0  0  0
  -30.3714  -11.3328   19.8345 H   0  0  0  0  0  0
  -29.7531  -11.7792   17.4440 H   0  0  0  0  0  0
  -29.6596  -13.4921   17.7633 H   0  0  0  0  0  0
  -27.8406  -11.3046   18.8246 H   0  0  0  0  0  0
  -27.3729  -12.6278   17.7901 H   0  0  0  0  0  0
  -27.7057  -14.2507   19.5765 H   0  0  0  0  0  0
  -28.6978  -11.9377   21.3165 H   0  0  0  0  0  0
  -28.4486  -13.5526   21.8895 H   0  0  0  0  0  0
  -25.2749   -9.5684   22.4750 H   0  0  0  0  0  0
  -23.9994   -7.4633   22.7467 H   0  0  0  0  0  0
  -21.0824   -8.8762   19.8963 H   0  0  0  0  0  0
  -22.3665  -10.9665   19.6163 H   0  0  0  0  0  0
  -21.2006   -7.6138   23.9706 H   0  0  0  0  0  0
  -21.1481   -6.0517   25.9073 H   0  0  0  0  0  0
  -22.0603   -2.7602   23.2846 H   0  0  0  0  0  0
  -22.4123  -11.9903   22.4790 H   0  0  0  0  0  0
  -21.1139  -13.1284   22.2611 H   0  0  0  0  0  0
  -24.6688  -15.8429   20.5212 H   0  0  0  0  0  0
  -26.2890  -15.6259   20.0931 H   0  0  0  0  0  0
  -26.7131  -32.5495   23.1126 H   0  0  0  0  0  0
  -25.0054  -33.9747   25.0453 H   0  0  0  0  0  0
  -22.7004  -31.3046   21.4079 H   0  0  0  0  0  0
  -23.3723  -35.9678   23.3371 H   0  0  0  0  0  0
  -24.3562  -36.8854   22.2042 H   0  0  0  0  0  0
  -23.7290  -37.6557   23.6611 H   0  0  0  0  0  0
  -26.0659  -31.5771   20.6000 H   0  0  0  0  0  0
  -26.8277  -30.8626   21.9923 H   0  0  0  0  0  0
  -28.1051  -29.0495   21.1685 H   0  0  0  0  0  0
  -25.9959  -25.9272   19.0529 H   0  0  0  0  0  0
  -23.9668  -27.2825   19.0539 H   0  0  0  0  0  0
  -23.7348  -30.5929   19.4053 H   0  0  0  0  0  0
  -22.7427  -29.2420   19.8657 H   0  0  0  0  0  0
  -25.1300  -36.1965   25.0832 H   0  0  0  0  0  0
  -20.9947  -28.3237   24.1445 H   0  0  0  0  0  0
  -20.5653  -26.2269   23.3618 H   0  0  0  0  0  0
  -21.6634  -26.7440   22.1234 H   0  0  0  0  0  0
  -19.6909  -25.6295   21.1245 H   0  0  0  0  0  0
  -19.6704  -27.3197   20.6750 H   0  0  0  0  0  0
  -17.4198  -26.6695   21.4002 H   0  0  0  0  0  0
  -18.0303  -26.0072   22.9004 H   0  0  0  0  0  0
  -19.7919  -30.7260   24.2290 H   0  0  0  0  0  0
  -17.5002  -31.6270   24.5161 H   0  0  0  0  0  0
  -15.5339  -30.2987   23.7656 H   0  0  0  0  0  0
  -15.8658  -28.0830   22.7060 H   0  0  0  0  0  0
  -24.5907  -30.7077   25.7841 H   0  0  0  0  0  0
  -24.8922  -32.2913   26.4893 H   0  0  0  0  0  0
  -25.8083  -30.8951   27.0260 H   0  0  0  0  0  0
  -26.2828  -29.6792   24.1192 H   0  0  0  0  0  0
  -27.4005  -29.7259   25.4631 H   0  0  0  0  0  0
  -27.8698  -30.4301   23.9330 H   0  0  0  0  0  0
  -27.2690  -33.3610   26.2075 H   0  0  0  0  0  0
  -28.3840  -32.6887   25.0271 H   0  0  0  0  0  0
  -28.0761  -31.8428   26.5358 H   0  0  0  0  0  0
  -28.2657  -38.0046   24.7418 H   0  0  0  0  0  0
  -28.0999  -36.2576   24.6411 H   0  0  0  0  0  0
  -27.2287  -37.1622   25.8874 H   0  0  0  0  0  0
  -20.9320  -29.8734   21.6930 H   0  0  0  0  0  0
  -26.0200  -38.2871   24.1330 H   0  0  0  0  0  0
  -27.6882  -19.4302   22.0764 H   0  0  0  0  0  0
  -30.9898  -19.6956   19.3178 H   0  0  0  0  0  0
  -28.0643  -17.0221   22.3010 H   0  0  0  0  0  0
  -31.3768  -17.2747   19.5413 H   0  0  0  0  0  0
  -27.1055  -23.4490   18.4762 H   0  0  0  0  0  0
  -28.2557  -21.1722   18.5641 H   0  0  0  0  0  0
  -26.9985  -21.3025   19.7685 H   0  0  0  0  0  0
  -29.6337  -24.0312   21.5502 H   0  0  0  0  0  0
  -30.7708  -24.3310   20.2575 H   0  0  0  0  0  0
  -30.9707  -21.9945   21.2520 H   0  0  0  0  0  0
  -30.7583  -22.0254   19.5201 H   0  0  0  0  0  0
  -28.5557  -21.5787   21.5460 H   0  0  0  0  0  0
  -27.9746  -25.6754   18.2743 H   0  0  0  0  0  0
  -29.6260  -25.8291   18.6938 H   0  0  0  0  0  0
  -29.0759  -15.0922   21.6194 H   0  0  0  0  0  0
  1 25  1  0  0  0
  1 30  2  0  0  0
  1 84  1  0  0  0
  2  3  1  0  0  0
  2 25  1  0  0  0
  2 85  1  0  0  0
  2 86  1  0  0  0
  3  4  1  0  0  0
  3 87  1  0  0  0
  3 88  1  0  0  0
  4  5  1  0  0  0
  4 89  1  0  0  0
  4 90  1  0  0  0
  5  6  1  0  0  0
  5 26  1  0  0  0
  5 91  1  0  0  0
  6 25  1  0  0  0
  6 92  1  0  0  0
  6 93  1  0  0  0
  7  8  2  0  0  0
  7 26  1  0  0  0
  7 29  1  0  0  0
  8  9  1  0  0  0
  8 22  1  0  0  0
  9 10  1  0  0  0
  9 27  2  0  0  0
 10 11  2  0  0  0
 10 15  1  0  0  0
 11 12  1  0  0  0
 11 94  1  0  0  0
 12 13  2  0  0  0
 12 95  1  0  0  0
 13 14  1  0  0  0
 13 31  1  0  0  0
 14 15  2  0  0  0
 14 96  1  0  0  0
 15 97  1  0  0  0
 16 17  2  0  0  0
 16 21  1  0  0  0
 16 31  1  0  0  0
 17 18  1  0  0  0
 17 98  1  0  0  0
 18 19  2  0  0  0
 18 99  1  0  0  0
 19 20  1  0  0  0
 19 24  1  0  0  0
 20 21  2  0  0  0
 20100  1  0  0  0
 21 23  1  0  0  0
 22 28  1  0  0  0
 22 32  2  0  0  0
 26 27  1  0  0  0
 28101  1  0  0  0
 28102  1  0  0  0
 29103  1  0  0  0
 29104  1  0  0  0
 33 34  1  0  0  0
 33 66  1  0  0  0
 33 70  2  0  0  0
 34 36  1  0  0  0
 34 59  1  0  0  0
 34105  1  0  0  0
 35 44  2  0  0  0
 35 45  1  0  0  0
 35 68  1  0  0  0
 36 56  1  0  0  0
 36106  1  0  0  0
 37 39  1  0  0  0
 37 47  1  0  0  0
 37 66  1  0  0  0
 37107  1  0  0  0
 38 43  2  0  0  0
 38 46  1  0  0  0
 38 47  1  0  0  0
 39 64  1  0  0  0
 39 67  2  0  0  0
 40 52  1  0  0  0
 40 53  2  0  0  0
 40 58  1  0  0  0
 41108  1  0  0  0
 41109  1  0  0  0
 41110  1  0  0  0
 41 48  1  0  0  0
 42 43  1  0  0  0
 42 66  1  0  0  0
 42111  1  0  0  0
 42112  1  0  0  0
 43 44  1  0  0  0
 44113  1  0  0  0
 45 46  2  0  0  0
 45114  1  0  0  0
 46115  1  0  0  0
 47116  1  0  0  0
 47117  1  0  0  0
 48 56  1  0  0  0
 48 65  1  0  0  0
 48118  1  0  0  0
 49 50  1  0  0  0
 49 53  1  0  0  0
 49 64  1  0  0  0
 49119  1  0  0  0
 50 51  1  0  0  0
 50120  1  0  0  0
 50121  1  0  0  0
 51 52  1  0  0  0
 51122  1  0  0  0
 51123  1  0  0  0
 52124  1  0  0  0
 52125  1  0  0  0
 53 54  1  0  0  0
 54 55  2  0  0  0
 54126  1  0  0  0
 55 57  1  0  0  0
 55127  1  0  0  0
 56 69  2  0  0  0
 57 58  2  0  0  0
 57128  1  0  0  0
 58129  1  0  0  0
 59 60  1  0  0  0
 59 61  1  0  0  0
 59 62  1  0  0  0
 60130  1  0  0  0
 60131  1  0  0  0
 60132  1  0  0  0
 61133  1  0  0  0
 61134  1  0  0  0
 61135  1  0  0  0
 62136  1  0  0  0
 62137  1  0  0  0
 62138  1  0  0  0
 63 65  1  0  0  0
 63139  1  0  0  0
 63140  1  0  0  0
 63141  1  0  0  0
 64142  1  0  0  0
 65143  1  0  0  0
 68 83  1  0  0  0
 71 73  2  0  0  0
 71 75  1  0  0  0
 71144  1  0  0  0
 72 74  1  0  0  0
 72 75  2  0  0  0
 72145  1  0  0  0
 73 76  1  0  0  0
 73146  1  0  0  0
 74 76  2  0  0  0
 74147  1  0  0  0
 75 82  1  0  0  0
 76 84  1  0  0  0
 77 78  2  0  0  0
 77 79  1  0  0  0
 77148  1  0  0  0
 78 80  1  0  0  0
 78 83  1  0  0  0
 79 82  1  0  0  0
 79149  1  0  0  0
 79150  1  0  0  0
 80 81  1  0  0  0
 80151  1  0  0  0
 80152  1  0  0  0
 81 82  1  0  0  0
 81153  1  0  0  0
 81154  1  0  0  0
 82155  1  0  0  0
 83156  1  0  0  0
 83157  1  0  0  0
 84158  1  0  0  0
M  ISO  4   1 100  68 101  83 101  84 100
M  END
> <chiral flag>
0

> <version>
0

> <s_m_source_file>
/data/baiqing/PycharmProjects/Reinvent-master-3.2/result/LINK_invent/BTK/process_docking_weight1_custom_product_contain_oxygen_bond_distance_aromatic_linkinvent_7_9_3/rearranged_h_0145.sdf

> <i_m_source_file_index>
70

> <r_mmod_Potential_Energy-OPLS-2005>
10.1751537322998

> <r_mmod_Stretch_Energy-OPLS-2005>
51.7364158630371

> <r_mmod_Bend_Energy-OPLS-2005>
125.566184997559

> <r_mmod_Torsional_Energy-OPLS-2005>
216.76335144043

> <r_mmod_Improper_Torsional_Energy-OPLS-2005>
3.47010898590088

> <r_mmod_Van_der_Waal_Energy-OPLS-2005>
150.856033325195

> <r_mmod_Electrostatic_Energy-OPLS-2005>
-362.088897705078

> <r_mmod_Solvation_Energy-OPLS-2005>
-198.937469482422

> <b_mmod_Minimization_Converged-OPLS-2005>
0

> <r_mmod_RMS_Derivative-OPLS-2005>
0.744621753692627

$$$$
70
                    3D
 Structure written by MMmdl.
165173  0  0  1  0            999 V2000
  -30.7141  -14.3999   20.6590 C   0  0  0  0  0  0
  -30.4159  -12.2880   19.4002 C   0  0  0  0  0  0
  -29.4832  -12.5191   18.1959 C   0  0  0  0  0  0
  -28.0036  -12.3864   18.6060 C   0  0  0  0  0  0
  -27.6656  -13.1950   19.8866 C   0  0  2  0  0  0
  -28.6994  -12.9189   20.9978 C   0  0  0  0  0  0
  -25.2647  -13.8146   20.5664 C   0  0  0  0  0  0
  -24.1888  -13.0485   20.9154 C   0  0  0  0  0  0
  -24.6402  -11.6917   20.8761 C   0  0  0  0  0  0
  -23.9048  -10.4322   21.0444 C   0  0  0  0  0  0
  -24.3601   -9.4232   21.9212 C   0  0  0  0  0  0
  -23.6269   -8.2274   22.0776 C   0  0  0  0  0  0
  -22.4251   -8.0318   21.3554 C   0  0  0  0  0  0
  -21.9893   -9.0305   20.4658 C   0  0  0  0  0  0
  -22.7236  -10.2180   20.3070 C   0  0  0  0  0  0
  -21.6868   -6.0758   22.5276 C   0  0  0  0  0  0
  -21.4046   -6.5652   23.8222 C   0  0  0  0  0  0
  -21.3655   -5.6794   24.9170 C   0  0  0  0  0  0
  -21.6023   -4.3056   24.7214 C   0  0  0  0  0  0
  -21.8814   -3.8162   23.4339 C   0  0  0  0  0  0
  -21.9196   -4.6979   22.3404 C   0  0  0  0  0  0
  -22.7905  -13.5303   21.1771 C   0  0  0  0  0  0
  -22.1659   -4.2174   21.0970 F   0  0  0  0  0  0
  -21.5596   -3.4537   25.7722 F   0  0  0  0  0  0
  -30.0332  -13.2390   20.4546 N   0  0  0  0  0  0
  -26.3063  -12.9289   20.3390 N   0  0  0  0  0  0
  -25.9318  -11.6465   20.5773 N   0  0  0  0  0  0
  -22.0482  -12.8385   22.0314 N   0  0  0  0  0  0
  -25.4435  -15.1870   20.4073 N   0  0  0  0  0  0
  -31.8109  -14.6409   20.1416 O   0  0  0  0  0  0
  -21.6631   -6.8904   21.4245 O   0  0  0  0  0  0
  -22.3633  -14.5607   20.6570 O   0  0  0  0  0  0
  -24.6121  -31.8812   23.2165 C   0  0  0  0  0  0
  -25.9038  -32.4890   23.8493 C   0  0  1  0  0  0
  -27.2264  -27.4641   20.0705 C   0  0  0  0  0  0
  -25.5932  -33.8688   24.2444 N   0  0  0  0  0  0
  -23.3942  -30.5001   21.5577 C   0  0  2  0  0  0
  -24.8445  -28.9760   20.1030 C   0  0  0  0  0  0
  -22.7397  -29.4775   22.5101 C   0  0  0  0  0  0
  -18.0322  -28.1337   22.8494 C   0  0  0  0  0  0
  -24.1476  -36.7299   23.2626 C   0  0  0  0  0  0
  -25.9249  -30.8556   21.3602 C   0  0  0  0  0  0
  -26.0028  -29.4865   20.7084 C   0  0  0  0  0  0
  -27.1979  -28.7287   20.6997 C   0  0  0  0  0  0
  -26.0686  -26.9901   19.4170 C   0  0  0  0  0  0
  -24.8732  -27.7297   19.4512 C   0  0  0  0  0  0
  -23.5970  -29.8302   20.1708 C   0  0  0  0  0  0
  -25.4102  -36.3122   24.0357 C   0  0  1  0  0  0
  -20.5920  -28.3755   23.1478 C   0  0  2  0  0  0
  -20.6824  -26.9483   22.5590 C   0  0  0  0  0  0
  -19.5884  -26.6415   21.5295 C   0  0  0  0  0  0
  -18.2054  -26.7854   22.1647 C   0  0  0  0  0  0
  -19.1549  -28.8873   23.2932 C   0  0  0  0  0  0
  -18.9415  -30.1520   23.8829 C   0  0  0  0  0  0
  -17.6400  -30.6603   24.0423 C   0  0  0  0  0  0
  -25.9054  -34.9484   23.5172 C   0  0  0  0  0  0
  -16.5340  -29.9019   23.6203 C   0  0  0  0  0  0
  -16.7324  -28.6412   23.0293 C   0  0  0  0  0  0
  -26.4503  -31.6584   25.0742 C   0  0  0  0  0  0
  -25.3824  -31.3606   26.1506 C   0  0  0  0  0  0
  -27.0326  -30.3040   24.6025 C   0  0  0  0  0  0
  -27.6120  -32.4295   25.7462 C   0  0  0  0  0  0
  -27.5581  -37.1788   24.8485 C   0  0  0  0  0  0
  -21.4157  -29.3114   22.3850 N   0  0  0  0  0  0
  -26.4293  -37.3798   23.9442 N   0  0  0  0  0  0
  -24.6610  -31.0921   22.1046 N   0  0  0  0  0  0
  -23.4169  -28.8385   23.3206 O   0  0  0  0  0  0
  -28.3513  -26.6790   20.0663 O   0  0  0  0  0  0
  -26.5577  -34.8879   22.4695 O   0  0  0  0  0  0
  -23.5321  -32.1657   23.7523 O   0  0  0  0  0  0
  -31.7213  -16.8240   22.4097 C   0  0  0  0  0  0
  -32.0521  -18.1024   22.9013 C   0  0  0  0  0  0
  -29.5892  -17.6903   21.6092 C   0  0  0  0  0  0
  -30.4772  -16.6077   21.7747 C   0  0  0  0  0  0
  -29.9377  -18.9917   22.0560 C   0  0  0  0  0  0
  -31.1585  -19.1791   22.7382 C   0  0  0  0  0  0
  -27.4315  -21.6185   21.3161 C   0  0  0  0  0  0
  -27.9948  -22.7812   20.9246 C   0  0  0  0  0  0
  -28.0198  -20.3081   21.1431 C   0  0  0  0  0  0
  -26.6718  -25.8511   22.7812 C   0  0  0  0  0  0
  -28.6809  -24.5053   23.1744 C   0  0  0  0  0  0
  -27.2952  -24.1285   21.0249 C   0  0  0  0  0  0
  -28.7905  -26.2073   21.3464 C   0  0  0  0  0  0
  -27.8566  -25.1665   22.0497 C   0  0  0  0  0  0
  -29.1203  -20.1444   21.8970 N   0  0  0  0  0  0
  -30.0478  -15.3100   21.3944 N   0  0  0  0  0  0
  -27.5341  -19.4474   20.4097 O   0  0  0  0  0  0
  -29.2035  -22.9116   20.3560 O   0  0  0  0  0  0
  -31.4582  -20.4011   23.2430 F   0  0  0  0  0  0
  -31.4602  -12.3924   19.1066 H   0  0  0  0  0  0
  -30.3109  -11.2646   19.7645 H   0  0  0  0  0  0
  -29.7079  -11.8115   17.3984 H   0  0  0  0  0  0
  -29.6597  -13.5140   17.7841 H   0  0  0  0  0  0
  -27.7864  -11.3272   18.7589 H   0  0  0  0  0  0
  -27.3620  -12.7088   17.7851 H   0  0  0  0  0  0
  -27.7284  -14.2507   19.6248 H   0  0  0  0  0  0
  -28.6694  -11.8678   21.2854 H   0  0  0  0  0  0
  -28.4511  -13.4640   21.9115 H   0  0  0  0  0  0
  -25.2743   -9.5717   22.4801 H   0  0  0  0  0  0
  -23.9988   -7.4666   22.7503 H   0  0  0  0  0  0
  -21.0826   -8.8855   19.8946 H   0  0  0  0  0  0
  -22.3722  -10.9743   19.6196 H   0  0  0  0  0  0
  -21.2076   -7.6171   23.9743 H   0  0  0  0  0  0
  -21.1449   -6.0512   25.9077 H   0  0  0  0  0  0
  -22.0582   -2.7618   23.2823 H   0  0  0  0  0  0
  -22.4039  -12.0085   22.4834 H   0  0  0  0  0  0
  -21.1091  -13.1498   22.2392 H   0  0  0  0  0  0
  -24.6809  -15.8465   20.5067 H   0  0  0  0  0  0
  -26.2956  -15.6171   20.0716 H   0  0  0  0  0  0
  -26.7152  -32.5638   23.1300 H   0  0  0  0  0  0
  -25.0073  -33.9954   25.0577 H   0  0  0  0  0  0
  -22.6722  -31.3098   21.4181 H   0  0  0  0  0  0
  -23.3738  -35.9631   23.3334 H   0  0  0  0  0  0
  -24.3525  -36.8848   22.2016 H   0  0  0  0  0  0
  -23.7237  -37.6508   23.6635 H   0  0  0  0  0  0
  -26.0378  -31.6299   20.5972 H   0  0  0  0  0  0
  -26.8144  -30.9146   21.9780 H   0  0  0  0  0  0
  -28.1045  -29.1085   21.1530 H   0  0  0  0  0  0
  -26.0821  -26.0508   18.8859 H   0  0  0  0  0  0
  -23.9870  -27.3469   18.9638 H   0  0  0  0  0  0
  -23.6670  -30.5979   19.4012 H   0  0  0  0  0  0
  -22.7240  -29.2393   19.8858 H   0  0  0  0  0  0
  -25.1250  -36.1956   25.0860 H   0  0  0  0  0  0
  -20.9995  -28.3378   24.1619 H   0  0  0  0  0  0
  -20.5614  -26.2427   23.3806 H   0  0  0  0  0  0
  -21.6731  -26.7401   22.1521 H   0  0  0  0  0  0
  -19.7190  -25.6382   21.1263 H   0  0  0  0  0  0
  -19.6777  -27.3244   20.6852 H   0  0  0  0  0  0
  -17.4428  -26.6595   21.3943 H   0  0  0  0  0  0
  -18.0425  -25.9975   22.9033 H   0  0  0  0  0  0
  -19.7890  -30.7371   24.2168 H   0  0  0  0  0  0
  -17.4890  -31.6272   24.4978 H   0  0  0  0  0  0
  -15.5321  -30.2826   23.7545 H   0  0  0  0  0  0
  -15.8761  -28.0632   22.7022 H   0  0  0  0  0  0
  -24.6014  -30.6958   25.7809 H   0  0  0  0  0  0
  -24.8990  -32.2696   26.5060 H   0  0  0  0  0  0
  -25.8198  -30.8684   27.0189 H   0  0  0  0  0  0
  -26.2831  -29.6785   24.1158 H   0  0  0  0  0  0
  -27.4215  -29.7286   25.4427 H   0  0  0  0  0  0
  -27.8638  -30.4372   23.9117 H   0  0  0  0  0  0
  -27.2790  -33.3583   26.2098 H   0  0  0  0  0  0
  -28.3844  -32.6860   25.0214 H   0  0  0  0  0  0
  -28.0905  -31.8389   26.5263 H   0  0  0  0  0  0
  -28.2611  -38.0075   24.7487 H   0  0  0  0  0  0
  -28.1053  -36.2574   24.6346 H   0  0  0  0  0  0
  -27.2312  -37.1484   25.8901 H   0  0  0  0  0  0
  -20.9343  -29.8832   21.7029 H   0  0  0  0  0  0
  -26.0165  -38.2887   24.1388 H   0  0  0  0  0  0
  -32.4044  -16.0031   22.5694 H   0  0  0  0  0  0
  -32.9841  -18.2558   23.4316 H   0  0  0  0  0  0
  -28.6369  -17.4923   21.1415 H   0  0  0  0  0  0
  -26.4566  -21.6513   21.7685 H   0  0  0  0  0  0
  -26.0572  -26.4788   22.1405 H   0  0  0  0  0  0
  -27.0268  -26.4713   23.6030 H   0  0  0  0  0  0
  -25.9915  -25.1238   23.2276 H   0  0  0  0  0  0
  -28.0940  -23.7772   23.7357 H   0  0  0  0  0  0
  -29.0676  -25.2533   23.8696 H   0  0  0  0  0  0
  -29.5565  -23.9941   22.7786 H   0  0  0  0  0  0
  -26.2418  -23.9267   21.2288 H   0  0  0  0  0  0
  -27.2586  -24.5375   20.0204 H   0  0  0  0  0  0
  -28.9965  -27.0299   22.0320 H   0  0  0  0  0  0
  -29.7595  -25.7452   21.1452 H   0  0  0  0  0  0
  -29.4419  -20.9757   22.3763 H   0  0  0  0  0  0
  -29.1026  -15.0590   21.6463 H   0  0  0  0  0  0
  -29.3608  -23.8389   20.2295 H   0  0  0  0  0  0
  1 25  1  0  0  0
  1 30  2  0  0  0
  1 86  1  0  0  0
  2  3  1  0  0  0
  2 25  1  0  0  0
  2 90  1  0  0  0
  2 91  1  0  0  0
  3  4  1  0  0  0
  3 92  1  0  0  0
  3 93  1  0  0  0
  4  5  1  0  0  0
  4 94  1  0  0  0
  4 95  1  0  0  0
  5  6  1  0  0  0
  5 26  1  0  0  0
  5 96  1  0  0  0
  6 25  1  0  0  0
  6 97  1  0  0  0
  6 98  1  0  0  0
  7  8  2  0  0  0
  7 26  1  0  0  0
  7 29  1  0  0  0
  8  9  1  0  0  0
  8 22  1  0  0  0
  9 10  1  0  0  0
  9 27  2  0  0  0
 10 11  2  0  0  0
 10 15  1  0  0  0
 11 12  1  0  0  0
 11 99  1  0  0  0
 12 13  2  0  0  0
 12100  1  0  0  0
 13 14  1  0  0  0
 13 31  1  0  0  0
 14 15  2  0  0  0
 14101  1  0  0  0
 15102  1  0  0  0
 16 17  2  0  0  0
 16 21  1  0  0  0
 16 31  1  0  0  0
 17 18  1  0  0  0
 17103  1  0  0  0
 18 19  2  0  0  0
 18104  1  0  0  0
 19 20  1  0  0  0
 19 24  1  0  0  0
 20 21  2  0  0  0
 20105  1  0  0  0
 21 23  1  0  0  0
 22 28  1  0  0  0
 22 32  2  0  0  0
 26 27  1  0  0  0
 28106  1  0  0  0
 28107  1  0  0  0
 29108  1  0  0  0
 29109  1  0  0  0
 33 34  1  0  0  0
 33 66  1  0  0  0
 33 70  2  0  0  0
 34 36  1  0  0  0
 34 59  1  0  0  0
 34110  1  0  0  0
 35 44  2  0  0  0
 35 45  1  0  0  0
 35 68  1  0  0  0
 36 56  1  0  0  0
 36111  1  0  0  0
 37 39  1  0  0  0
 37 47  1  0  0  0
 37 66  1  0  0  0
 37112  1  0  0  0
 38 43  2  0  0  0
 38 46  1  0  0  0
 38 47  1  0  0  0
 39 64  1  0  0  0
 39 67  2  0  0  0
 40 52  1  0  0  0
 40 53  2  0  0  0
 40 58  1  0  0  0
 41113  1  0  0  0
 41114  1  0  0  0
 41115  1  0  0  0
 41 48  1  0  0  0
 42 43  1  0  0  0
 42 66  1  0  0  0
 42116  1  0  0  0
 42117  1  0  0  0
 43 44  1  0  0  0
 44118  1  0  0  0
 45 46  2  0  0  0
 45119  1  0  0  0
 46120  1  0  0  0
 47121  1  0  0  0
 47122  1  0  0  0
 48 56  1  0  0  0
 48 65  1  0  0  0
 48123  1  0  0  0
 49 50  1  0  0  0
 49 53  1  0  0  0
 49 64  1  0  0  0
 49124  1  0  0  0
 50 51  1  0  0  0
 50125  1  0  0  0
 50126  1  0  0  0
 51 52  1  0  0  0
 51127  1  0  0  0
 51128  1  0  0  0
 52129  1  0  0  0
 52130  1  0  0  0
 53 54  1  0  0  0
 54 55  2  0  0  0
 54131  1  0  0  0
 55 57  1  0  0  0
 55132  1  0  0  0
 56 69  2  0  0  0
 57 58  2  0  0  0
 57133  1  0  0  0
 58134  1  0  0  0
 59 60  1  0  0  0
 59 61  1  0  0  0
 59 62  1  0  0  0
 60135  1  0  0  0
 60136  1  0  0  0
 60137  1  0  0  0
 61138  1  0  0  0
 61139  1  0  0  0
 61140  1  0  0  0
 62141  1  0  0  0
 62142  1  0  0  0
 62143  1  0  0  0
 63 65  1  0  0  0
 63144  1  0  0  0
 63145  1  0  0  0
 63146  1  0  0  0
 64147  1  0  0  0
 65148  1  0  0  0
 68 83  1  0  0  0
 71 72  2  0  0  0
 71 74  1  0  0  0
 71149  1  0  0  0
 72 76  1  0  0  0
 72150  1  0  0  0
 73 74  2  0  0  0
 73 75  1  0  0  0
 73151  1  0  0  0
 74 86  1  0  0  0
 75 76  2  0  0  0
 75 85  1  0  0  0
 76 89  1  0  0  0
 77 78  2  0  0  0
 77 79  1  0  0  0
 77152  1  0  0  0
 78 82  1  0  0  0
 78 88  1  0  0  0
 79 85  1  0  0  0
 79 87  2  0  0  0
 80153  1  0  0  0
 80154  1  0  0  0
 80155  1  0  0  0
 80 84  1  0  0  0
 81 84  1  0  0  0
 81156  1  0  0  0
 81157  1  0  0  0
 81158  1  0  0  0
 82 84  1  0  0  0
 82159  1  0  0  0
 82160  1  0  0  0
 83 84  1  0  0  0
 83161  1  0  0  0
 83162  1  0  0  0
 85163  1  0  0  0
 86164  1  0  0  0
 88165  1  0  0  0
M  ISO  4   1 100  68 101  83 101  86 100
M  END
> <chiral flag>
0

> <version>
0

> <s_m_source_file>
/data/baiqing/PycharmProjects/Reinvent-master-3.2/result/LINK_invent/BTK/process_docking_weight1_custom_product_contain_oxygen_bond_distance_aromatic_linkinvent_7_9_3/rearranged_h_0145.sdf

> <i_m_source_file_index>
71

> <r_mmod_Potential_Energy-OPLS-2005>
-12.5059032440186

> <r_mmod_Stretch_Energy-OPLS-2005>
38.190845489502

> <r_mmod_Bend_Energy-OPLS-2005>
119.063987731934

> <r_mmod_Torsional_Energy-OPLS-2005>
285.788269042969

> <r_mmod_Improper_Torsional_Energy-OPLS-2005>
3.28543901443481

> <r_mmod_Van_der_Waal_Energy-OPLS-2005>
161.313064575195

> <r_mmod_Electrostatic_Energy-OPLS-2005>
-418.565826416016

> <r_mmod_Solvation_Energy-OPLS-2005>
-212.483245849609

> <b_mmod_Minimization_Converged-OPLS-2005>
0

> <r_mmod_RMS_Derivative-OPLS-2005>
7.61236619949341

$$$$
71
                    3D
 Structure written by MMmdl.
173182  0  0  1  0            999 V2000
  -30.6688  -14.5007   20.6074 C   0  0  0  0  0  0
  -30.4421  -12.3431   19.4013 C   0  0  0  0  0  0
  -29.5052  -12.5490   18.1924 C   0  0  0  0  0  0
  -28.0252  -12.3986   18.6053 C   0  0  0  0  0  0
  -27.6715  -13.2028   19.8848 C   0  0  2  0  0  0
  -28.7159  -12.9383   20.9917 C   0  0  0  0  0  0
  -25.2598  -13.8113   20.5609 C   0  0  0  0  0  0
  -24.1844  -13.0418   20.9143 C   0  0  0  0  0  0
  -24.6394  -11.6880   20.8688 C   0  0  0  0  0  0
  -23.9041  -10.4271   21.0404 C   0  0  0  0  0  0
  -24.3595   -9.4201   21.9195 C   0  0  0  0  0  0
  -23.6286   -8.2223   22.0791 C   0  0  0  0  0  0
  -22.4263   -8.0259   21.3594 C   0  0  0  0  0  0
  -21.9894   -9.0219   20.4696 C   0  0  0  0  0  0
  -22.7191  -10.2108   20.3075 C   0  0  0  0  0  0
  -21.6846   -6.0715   22.5275 C   0  0  0  0  0  0
  -21.3972   -6.5628   23.8196 C   0  0  0  0  0  0
  -21.3667   -5.6796   24.9160 C   0  0  0  0  0  0
  -21.6071   -4.3046   24.7215 C   0  0  0  0  0  0
  -21.8800   -3.8143   23.4338 C   0  0  0  0  0  0
  -21.9171   -4.6956   22.3393 C   0  0  0  0  0  0
  -22.7872  -13.5238   21.1807 C   0  0  0  0  0  0
  -22.1647   -4.2150   21.0961 F   0  0  0  0  0  0
  -21.5681   -3.4534   25.7737 F   0  0  0  0  0  0
  -30.0436  -13.2935   20.4535 N   0  0  0  0  0  0
  -26.3077  -12.9293   20.3382 N   0  0  0  0  0  0
  -25.9326  -11.6449   20.5738 N   0  0  0  0  0  0
  -22.0489  -12.8261   22.0363 N   0  0  0  0  0  0
  -25.4270  -15.1819   20.3895 N   0  0  0  0  0  0
  -31.7662  -14.7486   20.1008 O   0  0  0  0  0  0
  -21.6641   -6.8863   21.4248 O   0  0  0  0  0  0
  -22.3548  -14.5558   20.6684 O   0  0  0  0  0  0
  -24.6179  -31.8679   23.2093 C   0  0  0  0  0  0
  -25.9052  -32.4825   23.8422 C   0  0  1  0  0  0
  -27.2553  -27.4220   20.1044 C   0  0  0  0  0  0
  -25.5894  -33.8616   24.2352 N   0  0  0  0  0  0
  -23.4095  -30.4897   21.5489 C   0  0  2  0  0  0
  -24.8637  -28.9542   20.1214 C   0  0  0  0  0  0
  -22.7433  -29.4667   22.4975 C   0  0  0  0  0  0
  -18.0279  -28.1386   22.8480 C   0  0  0  0  0  0
  -24.1479  -36.7310   23.2643 C   0  0  0  0  0  0
  -25.9404  -30.8295   21.3679 C   0  0  0  0  0  0
  -26.0248  -29.4589   20.7222 C   0  0  0  0  0  0
  -27.2253  -28.7035   20.7168 C   0  0  0  0  0  0
  -26.0743  -26.9441   19.4994 C   0  0  0  0  0  0
  -24.8837  -27.6916   19.5072 C   0  0  0  0  0  0
  -23.6241  -29.8196   20.1659 C   0  0  0  0  0  0
  -25.4094  -36.3114   24.0355 C   0  0  1  0  0  0
  -20.5872  -28.3679   23.1301 C   0  0  2  0  0  0
  -20.6761  -26.9407   22.5402 C   0  0  0  0  0  0
  -19.5742  -26.6392   21.5195 C   0  0  0  0  0  0
  -18.1927  -26.7935   22.1611 C   0  0  0  0  0  0
  -19.1529  -28.8847   23.2893 C   0  0  0  0  0  0
  -18.9454  -30.1450   23.8913 C   0  0  0  0  0  0
  -17.6455  -30.6586   24.0558 C   0  0  0  0  0  0
  -25.9018  -34.9482   23.5152 C   0  0  0  0  0  0
  -16.5350  -29.9083   23.6333 C   0  0  0  0  0  0
  -16.7271  -28.6506   23.0353 C   0  0  0  0  0  0
  -26.4468  -31.6594   25.0749 C   0  0  0  0  0  0
  -25.3730  -31.3694   26.1498 C   0  0  0  0  0  0
  -27.0311  -30.3047   24.6115 C   0  0  0  0  0  0
  -27.6050  -32.4313   25.7501 C   0  0  0  0  0  0
  -27.5580  -37.1812   24.8462 C   0  0  0  0  0  0
  -21.4152  -29.3042   22.3708 N   0  0  0  0  0  0
  -26.4277  -37.3800   23.9420 N   0  0  0  0  0  0
  -24.6740  -31.0768   22.1005 N   0  0  0  0  0  0
  -23.4181  -28.8199   23.3033 O   0  0  0  0  0  0
  -28.3370  -26.5595   20.0070 O   0  0  0  0  0  0
  -26.5582  -34.8927   22.4710 O   0  0  0  0  0  0
  -23.5355  -32.1428   23.7467 O   0  0  0  0  0  0
  -28.9101  -17.4529   22.0471 C   0  0  0  0  0  0
  -29.9452  -16.8316   21.3819 C   0  0  0  0  0  0
  -30.5499  -19.0378   21.0318 C   0  0  0  0  0  0
  -30.5217  -21.4821   20.3634 C   0  0  0  0  0  0
  -26.4887  -17.5752   23.1192 C   0  0  0  0  0  0
  -27.4507  -17.1577   24.2123 C   0  0  0  0  0  0
  -27.7504  -16.8184   22.7705 C   0  0  0  0  0  0
  -32.2549  -19.9484   19.4060 C   0  0  0  0  0  0
  -32.4090  -20.5109   21.8537 C   0  0  0  0  0  0
  -31.3097  -25.5725   22.1541 C   0  0  0  0  0  0
  -30.6898  -22.8099   21.1501 C   0  0  0  0  0  0
  -30.0157  -24.0932   20.5376 C   0  0  0  0  0  0
  -29.5257  -26.6876   20.7875 C   0  0  0  0  0  0
  -31.4359  -20.2398   20.6814 C   0  0  0  0  0  0
  -29.9283  -25.3399   21.4951 C   0  0  2  0  0  0
  -30.8889  -17.7371   20.8493 N   0  0  0  0  0  0
  -29.9485  -15.4008   21.3112 N   0  0  0  0  0  0
  -28.9268  -25.0647   22.5534 N   0  3  0  0  0  0
  -29.6756  -21.4147   19.4656 O   0  0  0  0  0  0
  -29.0677  -19.1931   21.9787 S   0  0  0  0  0  0
  -31.4816  -12.4789   19.1024 H   0  0  0  0  0  0
  -30.3691  -11.3172   19.7649 H   0  0  0  0  0  0
  -29.7508  -11.8406   17.3983 H   0  0  0  0  0  0
  -29.6689  -13.5395   17.7643 H   0  0  0  0  0  0
  -27.8253  -11.3390   18.7669 H   0  0  0  0  0  0
  -27.3806  -12.7104   17.7841 H   0  0  0  0  0  0
  -27.7267  -14.2603   19.6246 H   0  0  0  0  0  0
  -28.7079  -11.8833   21.2741 H   0  0  0  0  0  0
  -28.4611  -13.4669   21.9092 H   0  0  0  0  0  0
  -25.2771   -9.5679   22.4730 H   0  0  0  0  0  0
  -24.0044   -7.4624   22.7482 H   0  0  0  0  0  0
  -21.0856   -8.8656   19.9008 H   0  0  0  0  0  0
  -22.3643  -10.9605   19.6147 H   0  0  0  0  0  0
  -21.1913   -7.6141   23.9668 H   0  0  0  0  0  0
  -21.1551   -6.0549   25.9067 H   0  0  0  0  0  0
  -22.0589   -2.7619   23.2804 H   0  0  0  0  0  0
  -22.4110  -11.9975   22.4834 H   0  0  0  0  0  0
  -21.1120  -13.1316   22.2546 H   0  0  0  0  0  0
  -24.6455  -15.8246   20.4539 H   0  0  0  0  0  0
  -26.2502  -15.6081   19.9844 H   0  0  0  0  0  0
  -26.7139  -32.5547   23.1204 H   0  0  0  0  0  0
  -25.0056  -33.9778   25.0510 H   0  0  0  0  0  0
  -22.6989  -31.3064   21.4056 H   0  0  0  0  0  0
  -23.3748  -35.9631   23.3289 H   0  0  0  0  0  0
  -24.3589  -36.8927   22.2060 H   0  0  0  0  0  0
  -23.7208  -37.6506   23.6647 H   0  0  0  0  0  0
  -26.0530  -31.5922   20.5958 H   0  0  0  0  0  0
  -26.8278  -30.8903   21.9864 H   0  0  0  0  0  0
  -28.1095  -29.1221   21.1751 H   0  0  0  0  0  0
  -26.0786  -25.9748   19.0212 H   0  0  0  0  0  0
  -23.9944  -27.2926   19.0392 H   0  0  0  0  0  0
  -23.7306  -30.5924   19.4035 H   0  0  0  0  0  0
  -22.7506  -29.2356   19.8725 H   0  0  0  0  0  0
  -25.1259  -36.1987   25.0847 H   0  0  0  0  0  0
  -20.9976  -28.3246   24.1419 H   0  0  0  0  0  0
  -20.5646  -26.2287   23.3594 H   0  0  0  0  0  0
  -21.6633  -26.7442   22.1215 H   0  0  0  0  0  0
  -19.6894  -25.6299   21.1228 H   0  0  0  0  0  0
  -19.6687  -27.3197   20.6717 H   0  0  0  0  0  0
  -17.4192  -26.6696   21.4015 H   0  0  0  0  0  0
  -18.0328  -26.0079   22.9018 H   0  0  0  0  0  0
  -19.7931  -30.7254   24.2305 H   0  0  0  0  0  0
  -17.5013  -31.6280   24.5148 H   0  0  0  0  0  0
  -15.5342  -30.2981   23.7655 H   0  0  0  0  0  0
  -15.8676  -28.0814   22.7063 H   0  0  0  0  0  0
  -24.5867  -30.7091   25.7817 H   0  0  0  0  0  0
  -24.8961  -32.2850   26.5008 H   0  0  0  0  0  0
  -25.8076  -30.8796   27.0222 H   0  0  0  0  0  0
  -26.2868  -29.6811   24.1149 H   0  0  0  0  0  0
  -27.4076  -29.7275   25.4568 H   0  0  0  0  0  0
  -27.8702  -30.4390   23.9284 H   0  0  0  0  0  0
  -27.2693  -33.3625   26.2073 H   0  0  0  0  0  0
  -28.3852  -32.6849   25.0315 H   0  0  0  0  0  0
  -28.0723  -31.8438   26.5412 H   0  0  0  0  0  0
  -28.2581  -38.0128   24.7534 H   0  0  0  0  0  0
  -28.1088  -36.2660   24.6235 H   0  0  0  0  0  0
  -27.2317  -37.1416   25.8871 H   0  0  0  0  0  0
  -20.9307  -29.8771   21.6936 H   0  0  0  0  0  0
  -26.0172  -38.2879   24.1408 H   0  0  0  0  0  0
  -26.4271  -18.6329   22.8733 H   0  0  0  0  0  0
  -25.5474  -17.0310   23.0553 H   0  0  0  0  0  0
  -27.1344  -16.3526   24.8739 H   0  0  0  0  0  0
  -28.0472  -17.9355   24.6891 H   0  0  0  0  0  0
  -27.6085  -15.7838   22.4685 H   0  0  0  0  0  0
  -31.6140  -19.7535   18.5440 H   0  0  0  0  0  0
  -32.8990  -19.0786   19.5378 H   0  0  0  0  0  0
  -32.9007  -20.7885   19.1526 H   0  0  0  0  0  0
  -31.8771  -20.7369   22.7778 H   0  0  0  0  0  0
  -33.0912  -21.3368   21.6490 H   0  0  0  0  0  0
  -33.0288  -19.6369   22.0499 H   0  0  0  0  0  0
  -32.0893  -25.7099   21.4024 H   0  0  0  0  0  0
  -31.6178  -24.7441   22.7911 H   0  0  0  0  0  0
  -31.3137  -26.4656   22.7809 H   0  0  0  0  0  0
  -31.7542  -23.0064   21.2642 H   0  0  0  0  0  0
  -30.3023  -22.6265   22.1506 H   0  0  0  0  0  0
  -29.0165  -23.8469   20.1748 H   0  0  0  0  0  0
  -30.5771  -24.3713   19.6455 H   0  0  0  0  0  0
  -30.3188  -26.9997   20.1070 H   0  0  0  0  0  0
  -29.4462  -27.4768   21.5355 H   0  0  0  0  0  0
  -29.1344  -14.9823   21.7274 H   0  0  0  0  0  0
  -29.1671  -24.2565   23.1001 H   0  0  0  0  0  0
  -28.0184  -24.9092   22.1476 H   0  0  0  0  0  0
  -28.8483  -25.8450   23.1836 H   0  0  0  0  0  0
  1 25  1  0  0  0
  1 30  2  0  0  0
  1 87  1  0  0  0
  2  3  1  0  0  0
  2 25  1  0  0  0
  2 91  1  0  0  0
  2 92  1  0  0  0
  3  4  1  0  0  0
  3 93  1  0  0  0
  3 94  1  0  0  0
  4  5  1  0  0  0
  4 95  1  0  0  0
  4 96  1  0  0  0
  5  6  1  0  0  0
  5 26  1  0  0  0
  5 97  1  0  0  0
  6 25  1  0  0  0
  6 98  1  0  0  0
  6 99  1  0  0  0
  7  8  2  0  0  0
  7 26  1  0  0  0
  7 29  1  0  0  0
  8  9  1  0  0  0
  8 22  1  0  0  0
  9 10  1  0  0  0
  9 27  2  0  0  0
 10 11  2  0  0  0
 10 15  1  0  0  0
 11 12  1  0  0  0
 11100  1  0  0  0
 12 13  2  0  0  0
 12101  1  0  0  0
 13 14  1  0  0  0
 13 31  1  0  0  0
 14 15  2  0  0  0
 14102  1  0  0  0
 15103  1  0  0  0
 16 17  2  0  0  0
 16 21  1  0  0  0
 16 31  1  0  0  0
 17 18  1  0  0  0
 17104  1  0  0  0
 18 19  2  0  0  0
 18105  1  0  0  0
 19 20  1  0  0  0
 19 24  1  0  0  0
 20 21  2  0  0  0
 20106  1  0  0  0
 21 23  1  0  0  0
 22 28  1  0  0  0
 22 32  2  0  0  0
 26 27  1  0  0  0
 28107  1  0  0  0
 28108  1  0  0  0
 29109  1  0  0  0
 29110  1  0  0  0
 33 34  1  0  0  0
 33 66  1  0  0  0
 33 70  2  0  0  0
 34 36  1  0  0  0
 34 59  1  0  0  0
 34111  1  0  0  0
 35 44  2  0  0  0
 35 45  1  0  0  0
 35 68  1  0  0  0
 36 56  1  0  0  0
 36112  1  0  0  0
 37 39  1  0  0  0
 37 47  1  0  0  0
 37 66  1  0  0  0
 37113  1  0  0  0
 38 43  2  0  0  0
 38 46  1  0  0  0
 38 47  1  0  0  0
 39 64  1  0  0  0
 39 67  2  0  0  0
 40 52  1  0  0  0
 40 53  2  0  0  0
 40 58  1  0  0  0
 41114  1  0  0  0
 41115  1  0  0  0
 41116  1  0  0  0
 41 48  1  0  0  0
 42 43  1  0  0  0
 42 66  1  0  0  0
 42117  1  0  0  0
 42118  1  0  0  0
 43 44  1  0  0  0
 44119  1  0  0  0
 45 46  2  0  0  0
 45120  1  0  0  0
 46121  1  0  0  0
 47122  1  0  0  0
 47123  1  0  0  0
 48 56  1  0  0  0
 48 65  1  0  0  0
 48124  1  0  0  0
 49 50  1  0  0  0
 49 53  1  0  0  0
 49 64  1  0  0  0
 49125  1  0  0  0
 50 51  1  0  0  0
 50126  1  0  0  0
 50127  1  0  0  0
 51 52  1  0  0  0
 51128  1  0  0  0
 51129  1  0  0  0
 52130  1  0  0  0
 52131  1  0  0  0
 53 54  1  0  0  0
 54 55  2  0  0  0
 54132  1  0  0  0
 55 57  1  0  0  0
 55133  1  0  0  0
 56 69  2  0  0  0
 57 58  2  0  0  0
 57134  1  0  0  0
 58135  1  0  0  0
 59 60  1  0  0  0
 59 61  1  0  0  0
 59 62  1  0  0  0
 60136  1  0  0  0
 60137  1  0  0  0
 60138  1  0  0  0
 61139  1  0  0  0
 61140  1  0  0  0
 61141  1  0  0  0
 62142  1  0  0  0
 62143  1  0  0  0
 62144  1  0  0  0
 63 65  1  0  0  0
 63145  1  0  0  0
 63146  1  0  0  0
 63147  1  0  0  0
 64148  1  0  0  0
 65149  1  0  0  0
 68 83  1  0  0  0
 71 72  2  0  0  0
 71 90  1  0  0  0
 71 77  1  0  0  0
 72 86  1  0  0  0
 72 87  1  0  0  0
 73 84  1  0  0  0
 73 86  2  0  0  0
 73 90  1  0  0  0
 74 81  1  0  0  0
 74 84  1  0  0  0
 74 89  2  0  0  0
 75 76  1  0  0  0
 75 77  1  0  0  0
 75150  1  0  0  0
 75151  1  0  0  0
 76 77  1  0  0  0
 76152  1  0  0  0
 76153  1  0  0  0
 77154  1  0  0  0
 78155  1  0  0  0
 78156  1  0  0  0
 78157  1  0  0  0
 78 84  1  0  0  0
 79 84  1  0  0  0
 79158  1  0  0  0
 79159  1  0  0  0
 79160  1  0  0  0
 80161  1  0  0  0
 80162  1  0  0  0
 80163  1  0  0  0
 80 85  1  0  0  0
 81 82  1  0  0  0
 81164  1  0  0  0
 81165  1  0  0  0
 82 85  1  0  0  0
 82166  1  0  0  0
 82167  1  0  0  0
 83 85  1  0  0  0
 83168  1  0  0  0
 83169  1  0  0  0
 85 88  1  0  0  0
 87170  1  0  0  0
 88171  1  0  0  0
 88172  1  0  0  0
 88173  1  0  0  0
M  CHG  1  88   1
M  ISO  4   1 100  68 101  83 101  87 100
M  END
> <chiral flag>
0

> <version>
0

> <s_m_source_file>
/data/baiqing/PycharmProjects/Reinvent-master-3.2/result/LINK_invent/BTK/process_docking_weight1_custom_product_contain_oxygen_bond_distance_aromatic_linkinvent_7_9_3/rearranged_h_0145.sdf

> <i_m_source_file_index>
72

> <r_mmod_Potential_Energy-OPLS-2005>
-201.435211181641

> <r_mmod_Stretch_Energy-OPLS-2005>
52.4323616027832

> <r_mmod_Bend_Energy-OPLS-2005>
148.867980957031

> <r_mmod_Torsional_Energy-OPLS-2005>
216.236557006836

> <r_mmod_Improper_Torsional_Energy-OPLS-2005>
4.18801259994507

> <r_mmod_Van_der_Waal_Energy-OPLS-2005>
124.551467895508

> <r_mmod_Electrostatic_Energy-OPLS-2005>
-283.362457275391

> <r_mmod_Solvation_Energy-OPLS-2005>
-481.172119140625

> <b_mmod_Minimization_Converged-OPLS-2005>
0

> <r_mmod_RMS_Derivative-OPLS-2005>
3.98015165328979

$$$$
72
                    3D
 Structure written by MMmdl.
162171  0  0  1  0            999 V2000
  -30.7157  -14.4204   20.6704 C   0  0  0  0  0  0
  -30.4377  -12.3059   19.3922 C   0  0  0  0  0  0
  -29.4956  -12.5091   18.1874 C   0  0  0  0  0  0
  -28.0187  -12.3575   18.6042 C   0  0  0  0  0  0
  -27.6692  -13.1907   19.8636 C   0  0  2  0  0  0
  -28.7060  -12.9256   20.9770 C   0  0  0  0  0  0
  -25.2646  -13.8139   20.5624 C   0  0  0  0  0  0
  -24.1875  -13.0439   20.9135 C   0  0  0  0  0  0
  -24.6393  -11.6893   20.8684 C   0  0  0  0  0  0
  -23.9046  -10.4291   21.0389 C   0  0  0  0  0  0
  -24.3603   -9.4208   21.9177 C   0  0  0  0  0  0
  -23.6282   -8.2242   22.0756 C   0  0  0  0  0  0
  -22.4261   -8.0277   21.3547 C   0  0  0  0  0  0
  -21.9891   -9.0245   20.4644 C   0  0  0  0  0  0
  -22.7218  -10.2125   20.3043 C   0  0  0  0  0  0
  -21.6844   -6.0728   22.5278 C   0  0  0  0  0  0
  -21.4008   -6.5635   23.8210 C   0  0  0  0  0  0
  -21.3662   -5.6787   24.9179 C   0  0  0  0  0  0
  -21.6040   -4.3050   24.7228 C   0  0  0  0  0  0
  -21.8823   -3.8141   23.4348 C   0  0  0  0  0  0
  -21.9190   -4.6955   22.3403 C   0  0  0  0  0  0
  -22.7898  -13.5253   21.1820 C   0  0  0  0  0  0
  -22.1656   -4.2147   21.0981 F   0  0  0  0  0  0
  -21.5634   -3.4530   25.7737 F   0  0  0  0  0  0
  -30.0547  -13.2477   20.4549 N   0  0  0  0  0  0
  -26.3059  -12.9266   20.3263 N   0  0  0  0  0  0
  -25.9313  -11.6444   20.5689 N   0  0  0  0  0  0
  -22.0514  -12.8259   22.0372 N   0  0  0  0  0  0
  -25.4411  -15.1858   20.4075 N   0  0  0  0  0  0
  -31.7244  -14.7637   20.0447 O   0  0  0  0  0  0
  -21.6632   -6.8871   21.4243 O   0  0  0  0  0  0
  -22.3587  -14.5567   20.6683 O   0  0  0  0  0  0
  -24.6184  -31.8638   23.2055 C   0  0  0  0  0  0
  -25.9052  -32.4792   23.8386 C   0  0  1  0  0  0
  -27.2595  -27.4023   20.1087 C   0  0  0  0  0  0
  -25.5928  -33.8588   24.2342 N   0  0  0  0  0  0
  -23.4116  -30.4856   21.5428 C   0  0  2  0  0  0
  -24.8685  -28.9493   20.1136 C   0  0  0  0  0  0
  -22.7464  -29.4626   22.4914 C   0  0  0  0  0  0
  -18.0292  -28.1395   22.8484 C   0  0  0  0  0  0
  -24.1502  -36.7269   23.2642 C   0  0  0  0  0  0
  -25.9420  -30.8251   21.3583 C   0  0  0  0  0  0
  -26.0285  -29.4536   20.7122 C   0  0  0  0  0  0
  -27.2230  -28.6904   20.7052 C   0  0  0  0  0  0
  -26.0738  -26.9237   19.4991 C   0  0  0  0  0  0
  -24.8899  -27.6855   19.5005 C   0  0  0  0  0  0
  -23.6288  -29.8148   20.1593 C   0  0  0  0  0  0
  -25.4115  -36.3066   24.0348 C   0  0  1  0  0  0
  -20.5889  -28.3679   23.1304 C   0  0  2  0  0  0
  -20.6807  -26.9410   22.5418 C   0  0  0  0  0  0
  -19.5781  -26.6383   21.5223 C   0  0  0  0  0  0
  -18.1946  -26.7934   22.1611 C   0  0  0  0  0  0
  -19.1543  -28.8846   23.2898 C   0  0  0  0  0  0
  -18.9462  -30.1451   23.8900 C   0  0  0  0  0  0
  -17.6464  -30.6593   24.0576 C   0  0  0  0  0  0
  -25.9032  -34.9445   23.5123 C   0  0  0  0  0  0
  -16.5353  -29.9099   23.6328 C   0  0  0  0  0  0
  -16.7276  -28.6527   23.0317 C   0  0  0  0  0  0
  -26.4508  -31.6551   25.0688 C   0  0  0  0  0  0
  -25.3790  -31.3639   26.1439 C   0  0  0  0  0  0
  -27.0343  -30.3022   24.5987 C   0  0  0  0  0  0
  -27.6116  -32.4229   25.7449 C   0  0  0  0  0  0
  -27.5567  -37.1789   24.8480 C   0  0  0  0  0  0
  -21.4170  -29.3029   22.3673 N   0  0  0  0  0  0
  -26.4285  -37.3764   23.9420 N   0  0  0  0  0  0
  -24.6774  -31.0721   22.0957 N   0  0  0  0  0  0
  -23.4226  -28.8135   23.2930 O   0  0  0  0  0  0
  -28.4317  -26.6535   20.1403 O   0  0  0  0  0  0
  -26.5548  -34.8910   22.4654 O   0  0  0  0  0  0
  -23.5350  -32.1346   23.7423 O   0  0  0  0  0  0
  -29.2788  -18.2352   22.9604 C   0  0  0  0  0  0
  -29.2205  -16.8213   22.9483 C   0  0  0  0  0  0
  -30.1135  -18.6251   21.9483 C   0  0  0  0  0  0
  -30.0509  -16.4318   21.9412 C   0  0  0  0  0  0
  -30.5673  -19.9699   21.6057 C   0  0  0  0  0  0
  -29.4504  -22.8623   20.3616 C   0  0  0  0  0  0
  -30.7070  -20.6245   18.0001 C   0  0  0  0  0  0
  -31.0711  -22.0075   18.5702 C   0  0  0  0  0  0
  -30.0964  -19.8197   19.1544 C   0  0  0  0  0  0
  -30.7095  -21.9823   20.0699 C   0  0  2  0  0  0
  -29.6057  -24.4100   20.3822 C   0  0  0  0  0  0
  -28.3244  -25.2134   19.9898 C   0  0  0  0  0  0
  -30.4942  -20.5386   20.3700 N   0  0  0  0  0  0
  -30.2241  -15.1039   21.7106 N   0  0  0  0  0  0
  -31.0315  -20.6887   22.6430 N   0  3  0  0  0  0
  -28.3402  -22.3630   20.5701 O   0  0  0  0  0  0
  -30.6071  -17.5099   21.2822 O   0  0  0  0  0  0
  -31.4785  -12.4311   19.0882 H   0  0  0  0  0  0
  -30.3580  -11.2804   19.7612 H   0  0  0  0  0  0
  -29.7340  -11.7897   17.4020 H   0  0  0  0  0  0
  -29.6590  -13.4973   17.7529 H   0  0  0  0  0  0
  -27.8395  -11.2995   18.8035 H   0  0  0  0  0  0
  -27.3634  -12.6216   17.7731 H   0  0  0  0  0  0
  -27.7277  -14.2425   19.5798 H   0  0  0  0  0  0
  -28.6776  -11.8744   21.2680 H   0  0  0  0  0  0
  -28.4232  -13.4686   21.8778 H   0  0  0  0  0  0
  -25.2750   -9.5686   22.4743 H   0  0  0  0  0  0
  -23.9982   -7.4643   22.7483 H   0  0  0  0  0  0
  -21.0815   -8.8763   19.8961 H   0  0  0  0  0  0
  -22.3677  -10.9658   19.6142 H   0  0  0  0  0  0
  -21.1990   -7.6140   23.9718 H   0  0  0  0  0  0
  -21.1483   -6.0514   25.9083 H   0  0  0  0  0  0
  -22.0597   -2.7604   23.2848 H   0  0  0  0  0  0
  -22.4094  -11.9903   22.4769 H   0  0  0  0  0  0
  -21.1145  -13.1330   22.2564 H   0  0  0  0  0  0
  -24.6815  -15.8474   20.5246 H   0  0  0  0  0  0
  -26.3058  -15.6237   20.1159 H   0  0  0  0  0  0
  -26.7128  -32.5527   23.1164 H   0  0  0  0  0  0
  -25.0222  -33.9766   25.0576 H   0  0  0  0  0  0
  -22.7025  -31.3015   21.3976 H   0  0  0  0  0  0
  -23.3754  -35.9607   23.3300 H   0  0  0  0  0  0
  -24.3618  -36.8843   22.2056 H   0  0  0  0  0  0
  -23.7268  -37.6487   23.6640 H   0  0  0  0  0  0
  -26.0431  -31.5814   20.5783 H   0  0  0  0  0  0
  -26.8348  -30.8958   21.9676 H   0  0  0  0  0  0
  -28.1145  -29.0772   21.1793 H   0  0  0  0  0  0
  -26.0406  -25.9567   19.0215 H   0  0  0  0  0  0
  -23.9992  -27.2920   19.0318 H   0  0  0  0  0  0
  -23.7448  -30.5888   19.4007 H   0  0  0  0  0  0
  -22.7558  -29.2331   19.8578 H   0  0  0  0  0  0
  -25.1294  -36.1907   25.0840 H   0  0  0  0  0  0
  -20.9998  -28.3244   24.1416 H   0  0  0  0  0  0
  -20.5748  -26.2270   23.3597 H   0  0  0  0  0  0
  -21.6671  -26.7473   22.1171 H   0  0  0  0  0  0
  -19.6971  -25.6301   21.1222 H   0  0  0  0  0  0
  -19.6747  -27.3219   20.6777 H   0  0  0  0  0  0
  -17.4241  -26.6676   21.3993 H   0  0  0  0  0  0
  -18.0340  -26.0093   22.9019 H   0  0  0  0  0  0
  -19.7935  -30.7274   24.2263 H   0  0  0  0  0  0
  -17.5024  -31.6267   24.5164 H   0  0  0  0  0  0
  -15.5356  -30.2998   23.7678 H   0  0  0  0  0  0
  -15.8677  -28.0880   22.6982 H   0  0  0  0  0  0
  -24.6027  -30.6912   25.7783 H   0  0  0  0  0  0
  -24.8916  -32.2785   26.4836 H   0  0  0  0  0  0
  -25.8164  -30.8883   27.0223 H   0  0  0  0  0  0
  -26.2872  -29.6761   24.1100 H   0  0  0  0  0  0
  -27.4260  -29.7260   25.4368 H   0  0  0  0  0  0
  -27.8632  -30.4402   23.9040 H   0  0  0  0  0  0
  -27.2814  -33.3569   26.2018 H   0  0  0  0  0  0
  -28.3964  -32.6671   25.0272 H   0  0  0  0  0  0
  -28.0741  -31.8320   26.5372 H   0  0  0  0  0  0
  -28.2575  -38.0091   24.7467 H   0  0  0  0  0  0
  -28.1060  -36.2597   24.6350 H   0  0  0  0  0  0
  -27.2277  -37.1459   25.8887 H   0  0  0  0  0  0
  -20.9323  -29.8760   21.6904 H   0  0  0  0  0  0
  -26.0143  -38.2828   24.1433 H   0  0  0  0  0  0
  -28.7740  -18.9038   23.6424 H   0  0  0  0  0  0
  -28.6537  -16.1777   23.6073 H   0  0  0  0  0  0
  -31.5936  -20.1207   17.6111 H   0  0  0  0  0  0
  -29.9986  -20.7194   17.1751 H   0  0  0  0  0  0
  -30.5321  -22.7862   18.0292 H   0  0  0  0  0  0
  -32.1347  -22.2138   18.4383 H   0  0  0  0  0  0
  -30.4662  -18.7947   19.1409 H   0  0  0  0  0  0
  -29.0081  -19.7880   19.0862 H   0  0  0  0  0  0
  -31.5533  -22.3545   20.6498 H   0  0  0  0  0  0
  -30.4324  -24.6819   19.7274 H   0  0  0  0  0  0
  -29.9000  -24.6924   21.3923 H   0  0  0  0  0  0
  -27.4895  -24.8578   20.5973 H   0  0  0  0  0  0
  -28.0888  -24.9851   18.9503 H   0  0  0  0  0  0
  -29.6151  -14.5205   22.2635 H   0  0  0  0  0  0
  -31.0928  -20.2437   23.5478 H   0  0  0  0  0  0
  -31.4294  -21.6068   22.5513 H   0  0  0  0  0  0
  1 25  1  0  0  0
  1 30  2  0  0  0
  1 84  1  0  0  0
  2  3  1  0  0  0
  2 25  1  0  0  0
  2 88  1  0  0  0
  2 89  1  0  0  0
  3  4  1  0  0  0
  3 90  1  0  0  0
  3 91  1  0  0  0
  4  5  1  0  0  0
  4 92  1  0  0  0
  4 93  1  0  0  0
  5  6  1  0  0  0
  5 26  1  0  0  0
  5 94  1  0  0  0
  6 25  1  0  0  0
  6 95  1  0  0  0
  6 96  1  0  0  0
  7  8  2  0  0  0
  7 26  1  0  0  0
  7 29  1  0  0  0
  8  9  1  0  0  0
  8 22  1  0  0  0
  9 10  1  0  0  0
  9 27  2  0  0  0
 10 11  2  0  0  0
 10 15  1  0  0  0
 11 12  1  0  0  0
 11 97  1  0  0  0
 12 13  2  0  0  0
 12 98  1  0  0  0
 13 14  1  0  0  0
 13 31  1  0  0  0
 14 15  2  0  0  0
 14 99  1  0  0  0
 15100  1  0  0  0
 16 17  2  0  0  0
 16 21  1  0  0  0
 16 31  1  0  0  0
 17 18  1  0  0  0
 17101  1  0  0  0
 18 19  2  0  0  0
 18102  1  0  0  0
 19 20  1  0  0  0
 19 24  1  0  0  0
 20 21  2  0  0  0
 20103  1  0  0  0
 21 23  1  0  0  0
 22 28  1  0  0  0
 22 32  2  0  0  0
 26 27  1  0  0  0
 28104  1  0  0  0
 28105  1  0  0  0
 29106  1  0  0  0
 29107  1  0  0  0
 33 34  1  0  0  0
 33 66  1  0  0  0
 33 70  2  0  0  0
 34 36  1  0  0  0
 34 59  1  0  0  0
 34108  1  0  0  0
 35 44  2  0  0  0
 35 45  1  0  0  0
 35 68  1  0  0  0
 36 56  1  0  0  0
 36109  1  0  0  0
 37 39  1  0  0  0
 37 47  1  0  0  0
 37 66  1  0  0  0
 37110  1  0  0  0
 38 43  2  0  0  0
 38 46  1  0  0  0
 38 47  1  0  0  0
 39 64  1  0  0  0
 39 67  2  0  0  0
 40 52  1  0  0  0
 40 53  2  0  0  0
 40 58  1  0  0  0
 41111  1  0  0  0
 41112  1  0  0  0
 41113  1  0  0  0
 41 48  1  0  0  0
 42 43  1  0  0  0
 42 66  1  0  0  0
 42114  1  0  0  0
 42115  1  0  0  0
 43 44  1  0  0  0
 44116  1  0  0  0
 45 46  2  0  0  0
 45117  1  0  0  0
 46118  1  0  0  0
 47119  1  0  0  0
 47120  1  0  0  0
 48 56  1  0  0  0
 48 65  1  0  0  0
 48121  1  0  0  0
 49 50  1  0  0  0
 49 53  1  0  0  0
 49 64  1  0  0  0
 49122  1  0  0  0
 50 51  1  0  0  0
 50123  1  0  0  0
 50124  1  0  0  0
 51 52  1  0  0  0
 51125  1  0  0  0
 51126  1  0  0  0
 52127  1  0  0  0
 52128  1  0  0  0
 53 54  1  0  0  0
 54 55  2  0  0  0
 54129  1  0  0  0
 55 57  1  0  0  0
 55130  1  0  0  0
 56 69  2  0  0  0
 57 58  2  0  0  0
 57131  1  0  0  0
 58132  1  0  0  0
 59 60  1  0  0  0
 59 61  1  0  0  0
 59 62  1  0  0  0
 60133  1  0  0  0
 60134  1  0  0  0
 60135  1  0  0  0
 61136  1  0  0  0
 61137  1  0  0  0
 61138  1  0  0  0
 62139  1  0  0  0
 62140  1  0  0  0
 62141  1  0  0  0
 63 65  1  0  0  0
 63142  1  0  0  0
 63143  1  0  0  0
 63144  1  0  0  0
 64145  1  0  0  0
 65146  1  0  0  0
 68 82  1  0  0  0
 71 72  1  0  0  0
 71 73  2  0  0  0
 71147  1  0  0  0
 72 74  2  0  0  0
 72148  1  0  0  0
 73 75  1  0  0  0
 73 87  1  0  0  0
 74 84  1  0  0  0
 74 87  1  0  0  0
 75 83  1  0  0  0
 75 85  2  0  0  0
 76 81  1  0  0  0
 76 86  2  0  0  0
 76 80  1  0  0  0
 77 78  1  0  0  0
 77 79  1  0  0  0
 77149  1  0  0  0
 77150  1  0  0  0
 78 80  1  0  0  0
 78151  1  0  0  0
 78152  1  0  0  0
 79 83  1  0  0  0
 79153  1  0  0  0
 79154  1  0  0  0
 80 83  1  0  0  0
 80155  1  0  0  0
 81 82  1  0  0  0
 81156  1  0  0  0
 81157  1  0  0  0
 82158  1  0  0  0
 82159  1  0  0  0
 84160  1  0  0  0
 85161  1  0  0  0
 85162  1  0  0  0
M  CHG  1  85   1
M  ISO  4   1 100  68 101  82 101  84 100
M  END
> <chiral flag>
0

> <version>
0

> <s_m_source_file>
/data/baiqing/PycharmProjects/Reinvent-master-3.2/result/LINK_invent/BTK/process_docking_weight1_custom_product_contain_oxygen_bond_distance_aromatic_linkinvent_7_9_3/rearranged_h_0145.sdf

> <i_m_source_file_index>
73

> <r_mmod_Potential_Energy-OPLS-2005>
-158.176818847656

> <r_mmod_Stretch_Energy-OPLS-2005>
46.1916999816895

> <r_mmod_Bend_Energy-OPLS-2005>
153.879440307617

> <r_mmod_Torsional_Energy-OPLS-2005>
282.872772216797

> <r_mmod_Improper_Torsional_Energy-OPLS-2005>
4.51583385467529

> <r_mmod_Van_der_Waal_Energy-OPLS-2005>
127.002922058105

> <r_mmod_Electrostatic_Energy-OPLS-2005>
-326.35302734375

> <r_mmod_Solvation_Energy-OPLS-2005>
-460.130432128906

> <b_mmod_Minimization_Converged-OPLS-2005>
0

> <r_mmod_RMS_Derivative-OPLS-2005>
3.38152623176575

$$$$
73
                    3D
 Structure written by MMmdl.
159167  0  0  1  0            999 V2000
  -30.6844  -14.4330   20.5488 C   0  0  0  0  0  0
  -30.4099  -12.2779   19.4164 C   0  0  0  0  0  0
  -29.4853  -12.5231   18.2061 C   0  0  0  0  0  0
  -28.0100  -12.3613   18.6209 C   0  0  0  0  0  0
  -27.6542  -13.1865   19.8881 C   0  0  2  0  0  0
  -28.6977  -12.9557   21.0073 C   0  0  0  0  0  0
  -25.2537  -13.8106   20.5682 C   0  0  0  0  0  0
  -24.1765  -13.0401   20.9163 C   0  0  0  0  0  0
  -24.6302  -11.6856   20.8718 C   0  0  0  0  0  0
  -23.8979  -10.4243   21.0388 C   0  0  0  0  0  0
  -24.3550   -9.4173   21.9182 C   0  0  0  0  0  0
  -23.6227   -8.2216   22.0779 C   0  0  0  0  0  0
  -22.4226   -8.0255   21.3548 C   0  0  0  0  0  0
  -21.9830   -9.0221   20.4652 C   0  0  0  0  0  0
  -22.7149  -10.2095   20.3044 C   0  0  0  0  0  0
  -21.6869   -6.0678   22.5253 C   0  0  0  0  0  0
  -21.4018   -6.5604   23.8174 C   0  0  0  0  0  0
  -21.3657   -5.6778   24.9155 C   0  0  0  0  0  0
  -21.6041   -4.3031   24.7224 C   0  0  0  0  0  0
  -21.8822   -3.8109   23.4353 C   0  0  0  0  0  0
  -21.9183   -4.6914   22.3391 C   0  0  0  0  0  0
  -22.7796  -13.5223   21.1823 C   0  0  0  0  0  0
  -22.1652   -4.2085   21.0977 F   0  0  0  0  0  0
  -21.5630   -3.4523   25.7753 F   0  0  0  0  0  0
  -30.0325  -13.2449   20.4543 N   0  0  0  0  0  0
  -26.2945  -12.9195   20.3441 N   0  0  0  0  0  0
  -25.9228  -11.6371   20.5787 N   0  0  0  0  0  0
  -22.0454  -12.8228   22.0407 N   0  0  0  0  0  0
  -25.4266  -15.1815   20.4063 N   0  0  0  0  0  0
  -31.8404  -14.6142   20.1516 O   0  0  0  0  0  0
  -21.6637   -6.8837   21.4235 O   0  0  0  0  0  0
  -22.3486  -14.5542   20.6704 O   0  0  0  0  0  0
  -24.6131  -31.8694   23.2069 C   0  0  0  0  0  0
  -25.9054  -32.4800   23.8355 C   0  0  1  0  0  0
  -27.2294  -27.4487   20.0629 C   0  0  0  0  0  0
  -25.5952  -33.8600   24.2300 N   0  0  0  0  0  0
  -23.3978  -30.4915   21.5522 C   0  0  2  0  0  0
  -24.8353  -28.9546   20.1205 C   0  0  0  0  0  0
  -22.7373  -29.4710   22.5065 C   0  0  0  0  0  0
  -18.0272  -28.1411   22.8502 C   0  0  0  0  0  0
  -24.1485  -36.7267   23.2644 C   0  0  0  0  0  0
  -25.9256  -30.8320   21.3584 C   0  0  0  0  0  0
  -25.9974  -29.4667   20.7076 C   0  0  0  0  0  0
  -27.1943  -28.7190   20.6783 C   0  0  0  0  0  0
  -26.0349  -26.9328   19.5030 C   0  0  0  0  0  0
  -24.8464  -27.6844   19.5246 C   0  0  0  0  0  0
  -23.5966  -29.8162   20.1707 C   0  0  0  0  0  0
  -25.4106  -36.3076   24.0335 C   0  0  1  0  0  0
  -20.5859  -28.3681   23.1360 C   0  0  2  0  0  0
  -20.6786  -26.9447   22.5417 C   0  0  0  0  0  0
  -19.5759  -26.6433   21.5223 C   0  0  0  0  0  0
  -18.1929  -26.7973   22.1618 C   0  0  0  0  0  0
  -19.1527  -28.8858   23.2925 C   0  0  0  0  0  0
  -18.9458  -30.1478   23.8921 C   0  0  0  0  0  0
  -17.6456  -30.6622   24.0581 C   0  0  0  0  0  0
  -25.9041  -34.9452   23.5085 C   0  0  0  0  0  0
  -16.5342  -29.9112   23.6373 C   0  0  0  0  0  0
  -16.7265  -28.6546   23.0368 C   0  0  0  0  0  0
  -26.4491  -31.6586   25.0680 C   0  0  0  0  0  0
  -25.3765  -31.3704   26.1431 C   0  0  0  0  0  0
  -27.0317  -30.3042   24.6033 C   0  0  0  0  0  0
  -27.6048  -32.4321   25.7474 C   0  0  0  0  0  0
  -27.5578  -37.1772   24.8472 C   0  0  0  0  0  0
  -21.4117  -29.3042   22.3762 N   0  0  0  0  0  0
  -26.4283  -37.3762   23.9418 N   0  0  0  0  0  0
  -24.6647  -31.0792   22.0975 N   0  0  0  0  0  0
  -23.4155  -28.8307   23.3146 O   0  0  0  0  0  0
  -28.4375  -26.7846   20.0374 O   0  0  0  0  0  0
  -26.5595  -34.8926   22.4640 O   0  0  0  0  0  0
  -23.5331  -32.1478   23.7454 O   0  0  0  0  0  0
  -29.1600  -16.7737   18.9836 C   0  0  0  0  0  0
  -29.2469  -17.9241   18.1815 C   0  0  0  0  0  0
  -30.7215  -17.7643   20.5834 C   0  0  0  0  0  0
  -29.9223  -16.6729   20.1694 C   0  0  0  0  0  0
  -30.8200  -18.9132   19.7637 C   0  0  0  0  0  0
  -30.0858  -18.9836   18.5600 C   0  0  0  0  0  0
  -31.0908  -22.2295   20.9956 C   0  0  0  0  0  0
  -28.7874  -24.3799   20.0060 C   0  0  0  0  0  0
  -30.0791  -23.0525   21.7938 C   0  0  0  0  0  0
  -29.7758  -24.4373   21.1739 C   0  0  0  0  0  0
  -31.1526  -20.7244   21.2823 C   0  0  0  0  0  0
  -28.6025  -25.6530   19.1772 C   0  0  0  0  0  0
  -29.8997  -15.4607   20.9049 N   0  0  0  0  0  0
  -31.6415  -19.9889   20.1187 N   0  0  0  0  0  0
  -31.8116  -22.7385   20.1295 O   0  0  0  0  0  0
  -28.1681  -23.3463   19.7338 O   0  0  0  0  0  0
  -30.1910  -20.0785   17.7682 F   0  0  0  0  0  0
  -31.4564  -12.3694   19.1251 H   0  0  0  0  0  0
  -30.2937  -11.2565   19.7844 H   0  0  0  0  0  0
  -29.7271  -11.8388   17.3921 H   0  0  0  0  0  0
  -29.6424  -13.5315   17.8157 H   0  0  0  0  0  0
  -27.8313  -11.3026   18.8139 H   0  0  0  0  0  0
  -27.3529  -12.6321   17.7945 H   0  0  0  0  0  0
  -27.6881  -14.2339   19.6040 H   0  0  0  0  0  0
  -28.6651  -11.9183   21.3455 H   0  0  0  0  0  0
  -28.4711  -13.5567   21.8899 H   0  0  0  0  0  0
  -25.2710   -9.5653   22.4743 H   0  0  0  0  0  0
  -23.9930   -7.4615   22.7507 H   0  0  0  0  0  0
  -21.0763   -8.8713   19.8950 H   0  0  0  0  0  0
  -22.3614  -10.9626   19.6129 H   0  0  0  0  0  0
  -21.2042   -7.6116   23.9658 H   0  0  0  0  0  0
  -21.1472   -6.0521   25.9054 H   0  0  0  0  0  0
  -22.0612   -2.7569   23.2878 H   0  0  0  0  0  0
  -22.4085  -11.9882   22.4750 H   0  0  0  0  0  0
  -21.1088  -13.1241   22.2658 H   0  0  0  0  0  0
  -24.6601  -15.8375   20.5153 H   0  0  0  0  0  0
  -26.2849  -15.6229   20.1057 H   0  0  0  0  0  0
  -26.7101  -32.5480   23.1095 H   0  0  0  0  0  0
  -25.0167  -33.9786   25.0489 H   0  0  0  0  0  0
  -22.6872  -31.3069   21.4082 H   0  0  0  0  0  0
  -23.3774  -35.9576   23.3281 H   0  0  0  0  0  0
  -24.3607  -36.8904   22.2072 H   0  0  0  0  0  0
  -23.7196  -37.6450   23.6651 H   0  0  0  0  0  0
  -26.0354  -31.5956   20.5873 H   0  0  0  0  0  0
  -26.8148  -30.8815   21.9732 H   0  0  0  0  0  0
  -28.1000  -29.1208   21.1103 H   0  0  0  0  0  0
  -25.9780  -25.9567   19.0455 H   0  0  0  0  0  0
  -23.9433  -27.2785   19.0906 H   0  0  0  0  0  0
  -23.6943  -30.5805   19.3984 H   0  0  0  0  0  0
  -22.7211  -29.2276   19.8894 H   0  0  0  0  0  0
  -25.1294  -36.1904   25.0830 H   0  0  0  0  0  0
  -20.9916  -28.3206   24.1496 H   0  0  0  0  0  0
  -20.5753  -26.2269   23.3581 H   0  0  0  0  0  0
  -21.6643  -26.7552   22.1149 H   0  0  0  0  0  0
  -19.6924  -25.6344   21.1266 H   0  0  0  0  0  0
  -19.6714  -27.3251   20.6758 H   0  0  0  0  0  0
  -17.4204  -26.6743   21.4020 H   0  0  0  0  0  0
  -18.0326  -26.0124   22.9011 H   0  0  0  0  0  0
  -19.7919  -30.7315   24.2285 H   0  0  0  0  0  0
  -17.5003  -31.6322   24.5157 H   0  0  0  0  0  0
  -15.5339  -30.3006   23.7737 H   0  0  0  0  0  0
  -15.8658  -28.0876   22.7068 H   0  0  0  0  0  0
  -24.5941  -30.7044   25.7790 H   0  0  0  0  0  0
  -24.8969  -32.2870   26.4873 H   0  0  0  0  0  0
  -25.8148  -30.8897   27.0181 H   0  0  0  0  0  0
  -26.2837  -29.6782   24.1150 H   0  0  0  0  0  0
  -27.4213  -29.7283   25.4437 H   0  0  0  0  0  0
  -27.8615  -30.4415   23.9090 H   0  0  0  0  0  0
  -27.2682  -33.3667   26.1973 H   0  0  0  0  0  0
  -28.3933  -32.6795   25.0352 H   0  0  0  0  0  0
  -28.0607  -31.8471   26.5478 H   0  0  0  0  0  0
  -28.2550  -38.0109   24.7543 H   0  0  0  0  0  0
  -28.1124  -36.2637   24.6254 H   0  0  0  0  0  0
  -27.2306  -37.1339   25.8880 H   0  0  0  0  0  0
  -20.9287  -29.8687   21.6913 H   0  0  0  0  0  0
  -26.0170  -38.2830   24.1441 H   0  0  0  0  0  0
  -28.5326  -15.9650   18.6441 H   0  0  0  0  0  0
  -28.6786  -17.9858   17.2648 H   0  0  0  0  0  0
  -31.2958  -17.7055   21.4983 H   0  0  0  0  0  0
  -30.4813  -23.1859   22.7987 H   0  0  0  0  0  0
  -29.1638  -22.4706   21.9060 H   0  0  0  0  0  0
  -29.3483  -25.0850   21.9381 H   0  0  0  0  0  0
  -30.6906  -24.9273   20.8403 H   0  0  0  0  0  0
  -30.1549  -20.3888   21.5665 H   0  0  0  0  0  0
  -31.8055  -20.5440   22.1383 H   0  0  0  0  0  0
  -27.8169  -25.5156   18.4391 H   0  0  0  0  0  0
  -29.5119  -25.8113   18.5971 H   0  0  0  0  0  0
  -28.9886  -15.1487   21.2073 H   0  0  0  0  0  0
  -31.7357  -20.6515   19.3479 H   0  0  0  0  0  0
  1 25  1  0  0  0
  1 30  2  0  0  0
  1 83  1  0  0  0
  2  3  1  0  0  0
  2 25  1  0  0  0
  2 88  1  0  0  0
  2 89  1  0  0  0
  3  4  1  0  0  0
  3 90  1  0  0  0
  3 91  1  0  0  0
  4  5  1  0  0  0
  4 92  1  0  0  0
  4 93  1  0  0  0
  5  6  1  0  0  0
  5 26  1  0  0  0
  5 94  1  0  0  0
  6 25  1  0  0  0
  6 95  1  0  0  0
  6 96  1  0  0  0
  7  8  2  0  0  0
  7 26  1  0  0  0
  7 29  1  0  0  0
  8  9  1  0  0  0
  8 22  1  0  0  0
  9 10  1  0  0  0
  9 27  2  0  0  0
 10 11  2  0  0  0
 10 15  1  0  0  0
 11 12  1  0  0  0
 11 97  1  0  0  0
 12 13  2  0  0  0
 12 98  1  0  0  0
 13 14  1  0  0  0
 13 31  1  0  0  0
 14 15  2  0  0  0
 14 99  1  0  0  0
 15100  1  0  0  0
 16 17  2  0  0  0
 16 21  1  0  0  0
 16 31  1  0  0  0
 17 18  1  0  0  0
 17101  1  0  0  0
 18 19  2  0  0  0
 18102  1  0  0  0
 19 20  1  0  0  0
 19 24  1  0  0  0
 20 21  2  0  0  0
 20103  1  0  0  0
 21 23  1  0  0  0
 22 28  1  0  0  0
 22 32  2  0  0  0
 26 27  1  0  0  0
 28104  1  0  0  0
 28105  1  0  0  0
 29106  1  0  0  0
 29107  1  0  0  0
 33 34  1  0  0  0
 33 66  1  0  0  0
 33 70  2  0  0  0
 34 36  1  0  0  0
 34 59  1  0  0  0
 34108  1  0  0  0
 35 44  2  0  0  0
 35 45  1  0  0  0
 35 68  1  0  0  0
 36 56  1  0  0  0
 36109  1  0  0  0
 37 39  1  0  0  0
 37 47  1  0  0  0
 37 66  1  0  0  0
 37110  1  0  0  0
 38 43  2  0  0  0
 38 46  1  0  0  0
 38 47  1  0  0  0
 39 64  1  0  0  0
 39 67  2  0  0  0
 40 52  1  0  0  0
 40 53  2  0  0  0
 40 58  1  0  0  0
 41111  1  0  0  0
 41112  1  0  0  0
 41113  1  0  0  0
 41 48  1  0  0  0
 42 43  1  0  0  0
 42 66  1  0  0  0
 42114  1  0  0  0
 42115  1  0  0  0
 43 44  1  0  0  0
 44116  1  0  0  0
 45 46  2  0  0  0
 45117  1  0  0  0
 46118  1  0  0  0
 47119  1  0  0  0
 47120  1  0  0  0
 48 56  1  0  0  0
 48 65  1  0  0  0
 48121  1  0  0  0
 49 50  1  0  0  0
 49 53  1  0  0  0
 49 64  1  0  0  0
 49122  1  0  0  0
 50 51  1  0  0  0
 50123  1  0  0  0
 50124  1  0  0  0
 51 52  1  0  0  0
 51125  1  0  0  0
 51126  1  0  0  0
 52127  1  0  0  0
 52128  1  0  0  0
 53 54  1  0  0  0
 54 55  2  0  0  0
 54129  1  0  0  0
 55 57  1  0  0  0
 55130  1  0  0  0
 56 69  2  0  0  0
 57 58  2  0  0  0
 57131  1  0  0  0
 58132  1  0  0  0
 59 60  1  0  0  0
 59 61  1  0  0  0
 59 62  1  0  0  0
 60133  1  0  0  0
 60134  1  0  0  0
 60135  1  0  0  0
 61136  1  0  0  0
 61137  1  0  0  0
 61138  1  0  0  0
 62139  1  0  0  0
 62140  1  0  0  0
 62141  1  0  0  0
 63 65  1  0  0  0
 63142  1  0  0  0
 63143  1  0  0  0
 63144  1  0  0  0
 64145  1  0  0  0
 65146  1  0  0  0
 68 82  1  0  0  0
 71 72  2  0  0  0
 71 74  1  0  0  0
 71147  1  0  0  0
 72 76  1  0  0  0
 72148  1  0  0  0
 73 74  2  0  0  0
 73 75  1  0  0  0
 73149  1  0  0  0
 74 83  1  0  0  0
 75 76  2  0  0  0
 75 84  1  0  0  0
 76 87  1  0  0  0
 77 79  1  0  0  0
 77 81  1  0  0  0
 77 85  2  0  0  0
 78 80  1  0  0  0
 78 82  1  0  0  0
 78 86  2  0  0  0
 79 80  1  0  0  0
 79150  1  0  0  0
 79151  1  0  0  0
 80152  1  0  0  0
 80153  1  0  0  0
 81 84  1  0  0  0
 81154  1  0  0  0
 81155  1  0  0  0
 82156  1  0  0  0
 82157  1  0  0  0
 83158  1  0  0  0
 84159  1  0  0  0
M  ISO  4   1 100  68 101  82 101  83 100
M  END
> <chiral flag>
0

> <version>
0

> <s_m_source_file>
/data/baiqing/PycharmProjects/Reinvent-master-3.2/result/LINK_invent/BTK/process_docking_weight1_custom_product_contain_oxygen_bond_distance_aromatic_linkinvent_7_9_3/rearranged_h_0145.sdf

> <i_m_source_file_index>
74

> <r_mmod_Potential_Energy-OPLS-2005>
-38.3633880615234

> <r_mmod_Stretch_Energy-OPLS-2005>
32.9104766845703

> <r_mmod_Bend_Energy-OPLS-2005>
95.4400787353516

> <r_mmod_Torsional_Energy-OPLS-2005>
263.472259521484

> <r_mmod_Improper_Torsional_Energy-OPLS-2005>
14.602954864502

> <r_mmod_Van_der_Waal_Energy-OPLS-2005>
156.77458190918

> <r_mmod_Electrostatic_Energy-OPLS-2005>
-372.038299560547

> <r_mmod_Solvation_Energy-OPLS-2005>
-242.473220825195

> <b_mmod_Minimization_Converged-OPLS-2005>
0

> <r_mmod_RMS_Derivative-OPLS-2005>
3.66889476776123

$$$$
74
                    3D
 Structure written by MMmdl.
157166  0  0  1  0            999 V2000
  -30.6719  -14.6213   20.5012 C   0  0  0  0  0  0
  -30.4214  -12.3870   19.4478 C   0  0  0  0  0  0
  -29.4975  -12.5031   18.2178 C   0  0  0  0  0  0
  -28.0222  -12.3442   18.6336 C   0  0  0  0  0  0
  -27.6462  -13.2238   19.8558 C   0  0  2  0  0  0
  -28.6936  -13.1109   20.9864 C   0  0  0  0  0  0
  -25.2532  -13.8184   20.5705 C   0  0  0  0  0  0
  -24.1815  -13.0443   20.9213 C   0  0  0  0  0  0
  -24.6392  -11.6916   20.8755 C   0  0  0  0  0  0
  -23.9069  -10.4295   21.0415 C   0  0  0  0  0  0
  -24.3618   -9.4211   21.9193 C   0  0  0  0  0  0
  -23.6301   -8.2245   22.0760 C   0  0  0  0  0  0
  -22.4284   -8.0281   21.3549 C   0  0  0  0  0  0
  -21.9922   -9.0252   20.4649 C   0  0  0  0  0  0
  -22.7244  -10.2138   20.3059 C   0  0  0  0  0  0
  -21.6854   -6.0743   22.5280 C   0  0  0  0  0  0
  -21.4011   -6.5649   23.8213 C   0  0  0  0  0  0
  -21.3662   -5.6803   24.9178 C   0  0  0  0  0  0
  -21.6044   -4.3063   24.7230 C   0  0  0  0  0  0
  -21.8815   -3.8155   23.4352 C   0  0  0  0  0  0
  -21.9192   -4.6971   22.3405 C   0  0  0  0  0  0
  -22.7839  -13.5227   21.1875 C   0  0  0  0  0  0
  -22.1661   -4.2158   21.0983 F   0  0  0  0  0  0
  -21.5630   -3.4546   25.7743 F   0  0  0  0  0  0
  -30.0059  -13.4286   20.4078 N   0  0  0  0  0  0
  -26.2961  -12.9379   20.3313 N   0  0  0  0  0  0
  -25.9318  -11.6531   20.5759 N   0  0  0  0  0  0
  -22.0474  -12.8217   22.0417 N   0  0  0  0  0  0
  -25.4237  -15.1913   20.4133 N   0  0  0  0  0  0
  -31.8548  -14.7085   20.1607 O   0  0  0  0  0  0
  -21.6639   -6.8888   21.4242 O   0  0  0  0  0  0
  -22.3534  -14.5544   20.6733 O   0  0  0  0  0  0
  -24.6207  -31.8608   23.2039 C   0  0  0  0  0  0
  -25.9059  -32.4794   23.8365 C   0  0  1  0  0  0
  -27.2380  -27.3461   20.1120 C   0  0  0  0  0  0
  -25.5879  -33.8596   24.2281 N   0  0  0  0  0  0
  -23.4127  -30.4830   21.5463 C   0  0  2  0  0  0
  -24.8617  -28.9379   20.1140 C   0  0  0  0  0  0
  -22.7426  -29.4627   22.4957 C   0  0  0  0  0  0
  -18.0270  -28.1378   22.8506 C   0  0  0  0  0  0
  -24.1478  -36.7286   23.2643 C   0  0  0  0  0  0
  -25.9503  -30.8011   21.3704 C   0  0  0  0  0  0
  -26.0266  -29.4297   20.7141 C   0  0  0  0  0  0
  -27.2122  -28.6428   20.7064 C   0  0  0  0  0  0
  -26.0386  -26.8857   19.5182 C   0  0  0  0  0  0
  -24.8681  -27.6697   19.5124 C   0  0  0  0  0  0
  -23.6239  -29.8104   20.1638 C   0  0  0  0  0  0
  -25.4107  -36.3094   24.0334 C   0  0  1  0  0  0
  -20.5860  -28.3670   23.1301 C   0  0  2  0  0  0
  -20.6740  -26.9390   22.5425 C   0  0  0  0  0  0
  -19.5724  -26.6382   21.5215 C   0  0  0  0  0  0
  -18.1903  -26.7931   22.1626 C   0  0  0  0  0  0
  -19.1522  -28.8841   23.2903 C   0  0  0  0  0  0
  -18.9451  -30.1448   23.8916 C   0  0  0  0  0  0
  -17.6456  -30.6591   24.0564 C   0  0  0  0  0  0
  -25.9045  -34.9466   23.5114 C   0  0  0  0  0  0
  -16.5345  -29.9087   23.6341 C   0  0  0  0  0  0
  -16.7263  -28.6497   23.0376 C   0  0  0  0  0  0
  -26.4469  -31.6621   25.0741 C   0  0  0  0  0  0
  -25.3711  -31.3727   26.1470 C   0  0  0  0  0  0
  -27.0335  -30.3060   24.6197 C   0  0  0  0  0  0
  -27.6034  -32.4370   25.7490 C   0  0  0  0  0  0
  -27.5593  -37.1774   24.8454 C   0  0  0  0  0  0
  -21.4139  -29.3033   22.3699 N   0  0  0  0  0  0
  -26.4277  -37.3801   23.9443 N   0  0  0  0  0  0
  -24.6796  -31.0640   22.0979 N   0  0  0  0  0  0
  -23.4168  -28.8166   23.3022 O   0  0  0  0  0  0
  -28.4011  -26.5678   20.1702 O   0  0  0  0  0  0
  -26.5631  -34.8924   22.4692 O   0  0  0  0  0  0
  -23.5381  -32.1397   23.7391 O   0  0  0  0  0  0
  -29.5544  -18.3046   20.4850 C   0  0  0  0  0  0
  -31.6004  -17.5013   21.2968 C   0  0  0  0  0  0
  -30.3606  -17.1389   20.8359 C   0  0  0  0  0  0
  -30.2132  -19.5291   20.6288 C   0  0  0  0  0  0
  -30.1641  -22.0937   21.3028 C   0  0  0  0  0  0
  -28.4012  -21.2847   19.7838 C   0  0  0  0  0  0
  -30.0190  -23.5550   20.7545 C   0  0  0  0  0  0
  -28.2387  -22.7336   19.2073 C   0  0  0  0  0  0
  -29.8473  -20.9915   20.2460 C   0  0  2  0  0  0
  -28.6201  -23.9071   20.1654 C   0  0  2  0  0  0
  -28.5582  -25.3154   19.4210 C   0  0  0  0  0  0
  -29.9249  -15.7458   20.7528 N   0  0  0  0  0  0
  -31.8236  -19.2317   21.2593 S   0  0  0  0  0  0
  -31.4646  -12.4868   19.1442 H   0  0  0  0  0  0
  -30.3340  -11.3991   19.9013 H   0  0  0  0  0  0
  -29.7577  -11.7488   17.4738 H   0  0  0  0  0  0
  -29.6415  -13.4718   17.7354 H   0  0  0  0  0  0
  -27.8598  -11.2924   18.8706 H   0  0  0  0  0  0
  -27.3664  -12.5693   17.7916 H   0  0  0  0  0  0
  -27.6548  -14.2545   19.5013 H   0  0  0  0  0  0
  -28.7019  -12.1036   21.4053 H   0  0  0  0  0  0
  -28.4484  -13.7806   21.8132 H   0  0  0  0  0  0
  -25.2755   -9.5690   22.4779 H   0  0  0  0  0  0
  -24.0013   -7.4635   22.7476 H   0  0  0  0  0  0
  -21.0859   -8.8769   19.8948 H   0  0  0  0  0  0
  -22.3699  -10.9683   19.6174 H   0  0  0  0  0  0
  -21.1998   -7.6152   23.9723 H   0  0  0  0  0  0
  -21.1487   -6.0532   25.9085 H   0  0  0  0  0  0
  -22.0589   -2.7617   23.2851 H   0  0  0  0  0  0
  -22.4082  -11.9861   22.4784 H   0  0  0  0  0  0
  -21.1091  -13.1237   22.2616 H   0  0  0  0  0  0
  -24.6556  -15.8446   20.5240 H   0  0  0  0  0  0
  -26.2695  -15.6317   20.0757 H   0  0  0  0  0  0
  -26.7123  -32.5479   23.1112 H   0  0  0  0  0  0
  -24.9977  -33.9740   25.0394 H   0  0  0  0  0  0
  -22.7067  -31.3036   21.4018 H   0  0  0  0  0  0
  -23.3778  -35.9573   23.3253 H   0  0  0  0  0  0
  -24.3583  -36.8978   22.2071 H   0  0  0  0  0  0
  -23.7178  -37.6443   23.6708 H   0  0  0  0  0  0
  -26.0758  -31.5655   20.6026 H   0  0  0  0  0  0
  -26.8311  -30.8520   21.9982 H   0  0  0  0  0  0
  -28.1072  -29.0193   21.1813 H   0  0  0  0  0  0
  -25.9607  -25.9007   19.0855 H   0  0  0  0  0  0
  -23.9674  -27.2773   19.0605 H   0  0  0  0  0  0
  -23.7242  -30.5804   19.3979 H   0  0  0  0  0  0
  -22.7484  -29.2250   19.8757 H   0  0  0  0  0  0
  -25.1282  -36.1941   25.0821 H   0  0  0  0  0  0
  -20.9965  -28.3244   24.1418 H   0  0  0  0  0  0
  -20.5609  -26.2274   23.3618 H   0  0  0  0  0  0
  -21.6612  -26.7392   22.1248 H   0  0  0  0  0  0
  -19.6868  -25.6294   21.1238 H   0  0  0  0  0  0
  -19.6666  -27.3191   20.6744 H   0  0  0  0  0  0
  -17.4164  -26.6700   21.4027 H   0  0  0  0  0  0
  -18.0292  -26.0060   22.9006 H   0  0  0  0  0  0
  -19.7926  -30.7259   24.2296 H   0  0  0  0  0  0
  -17.5009  -31.6280   24.5149 H   0  0  0  0  0  0
  -15.5344  -30.2993   23.7665 H   0  0  0  0  0  0
  -15.8658  -28.0816   22.7110 H   0  0  0  0  0  0
  -24.5878  -30.7092   25.7783 H   0  0  0  0  0  0
  -24.8893  -32.2874   26.4937 H   0  0  0  0  0  0
  -25.8038  -30.8868   27.0225 H   0  0  0  0  0  0
  -26.2918  -29.6792   24.1231 H   0  0  0  0  0  0
  -27.4055  -29.7346   25.4714 H   0  0  0  0  0  0
  -27.8768  -30.4379   23.9414 H   0  0  0  0  0  0
  -27.2669  -33.3693   26.2040 H   0  0  0  0  0  0
  -28.3836  -32.6911   25.0301 H   0  0  0  0  0  0
  -28.0706  -31.8517   26.5419 H   0  0  0  0  0  0
  -28.2546  -38.0136   24.7632 H   0  0  0  0  0  0
  -28.1158  -36.2682   24.6127 H   0  0  0  0  0  0
  -27.2328  -37.1249   25.8855 H   0  0  0  0  0  0
  -20.9292  -29.8773   21.6941 H   0  0  0  0  0  0
  -26.0157  -38.2851   24.1550 H   0  0  0  0  0  0
  -28.5497  -18.2055   20.0984 H   0  0  0  0  0  0
  -32.4110  -16.8710   21.6453 H   0  0  0  0  0  0
  -29.5238  -21.9602   22.1750 H   0  0  0  0  0  0
  -31.1862  -21.9781   21.6638 H   0  0  0  0  0  0
  -28.1183  -20.5680   19.0126 H   0  0  0  0  0  0
  -27.7103  -21.1323   20.6141 H   0  0  0  0  0  0
  -30.7760  -23.6997   19.9820 H   0  0  0  0  0  0
  -30.2657  -24.2675   21.5430 H   0  0  0  0  0  0
  -27.2094  -22.8700   18.8746 H   0  0  0  0  0  0
  -28.8498  -22.8119   18.3062 H   0  0  0  0  0  0
  -30.4843  -21.2161   19.3888 H   0  0  0  0  0  0
  -27.8919  -23.9185   20.9775 H   0  0  0  0  0  0
  -27.8478  -25.2562   18.6004 H   0  0  0  0  0  0
  -29.5041  -25.4310   18.8917 H   0  0  0  0  0  0
  -28.9322  -15.5866   20.8315 H   0  0  0  0  0  0
  1 25  1  0  0  0
  1 30  2  0  0  0
  1 82  1  0  0  0
  2  3  1  0  0  0
  2 25  1  0  0  0
  2 84  1  0  0  0
  2 85  1  0  0  0
  3  4  1  0  0  0
  3 86  1  0  0  0
  3 87  1  0  0  0
  4  5  1  0  0  0
  4 88  1  0  0  0
  4 89  1  0  0  0
  5  6  1  0  0  0
  5 26  1  0  0  0
  5 90  1  0  0  0
  6 25  1  0  0  0
  6 91  1  0  0  0
  6 92  1  0  0  0
  7  8  2  0  0  0
  7 26  1  0  0  0
  7 29  1  0  0  0
  8  9  1  0  0  0
  8 22  1  0  0  0
  9 10  1  0  0  0
  9 27  2  0  0  0
 10 11  2  0  0  0
 10 15  1  0  0  0
 11 12  1  0  0  0
 11 93  1  0  0  0
 12 13  2  0  0  0
 12 94  1  0  0  0
 13 14  1  0  0  0
 13 31  1  0  0  0
 14 15  2  0  0  0
 14 95  1  0  0  0
 15 96  1  0  0  0
 16 17  2  0  0  0
 16 21  1  0  0  0
 16 31  1  0  0  0
 17 18  1  0  0  0
 17 97  1  0  0  0
 18 19  2  0  0  0
 18 98  1  0  0  0
 19 20  1  0  0  0
 19 24  1  0  0  0
 20 21  2  0  0  0
 20 99  1  0  0  0
 21 23  1  0  0  0
 22 28  1  0  0  0
 22 32  2  0  0  0
 26 27  1  0  0  0
 28100  1  0  0  0
 28101  1  0  0  0
 29102  1  0  0  0
 29103  1  0  0  0
 33 34  1  0  0  0
 33 66  1  0  0  0
 33 70  2  0  0  0
 34 36  1  0  0  0
 34 59  1  0  0  0
 34104  1  0  0  0
 35 44  2  0  0  0
 35 45  1  0  0  0
 35 68  1  0  0  0
 36 56  1  0  0  0
 36105  1  0  0  0
 37 39  1  0  0  0
 37 47  1  0  0  0
 37 66  1  0  0  0
 37106  1  0  0  0
 38 43  2  0  0  0
 38 46  1  0  0  0
 38 47  1  0  0  0
 39 64  1  0  0  0
 39 67  2  0  0  0
 40 52  1  0  0  0
 40 53  2  0  0  0
 40 58  1  0  0  0
 41107  1  0  0  0
 41108  1  0  0  0
 41109  1  0  0  0
 41 48  1  0  0  0
 42 43  1  0  0  0
 42 66  1  0  0  0
 42110  1  0  0  0
 42111  1  0  0  0
 43 44  1  0  0  0
 44112  1  0  0  0
 45 46  2  0  0  0
 45113  1  0  0  0
 46114  1  0  0  0
 47115  1  0  0  0
 47116  1  0  0  0
 48 56  1  0  0  0
 48 65  1  0  0  0
 48117  1  0  0  0
 49 50  1  0  0  0
 49 53  1  0  0  0
 49 64  1  0  0  0
 49118  1  0  0  0
 50 51  1  0  0  0
 50119  1  0  0  0
 50120  1  0  0  0
 51 52  1  0  0  0
 51121  1  0  0  0
 51122  1  0  0  0
 52123  1  0  0  0
 52124  1  0  0  0
 53 54  1  0  0  0
 54 55  2  0  0  0
 54125  1  0  0  0
 55 57  1  0  0  0
 55126  1  0  0  0
 56 69  2  0  0  0
 57 58  2  0  0  0
 57127  1  0  0  0
 58128  1  0  0  0
 59 60  1  0  0  0
 59 61  1  0  0  0
 59 62  1  0  0  0
 60129  1  0  0  0
 60130  1  0  0  0
 60131  1  0  0  0
 61132  1  0  0  0
 61133  1  0  0  0
 61134  1  0  0  0
 62135  1  0  0  0
 62136  1  0  0  0
 62137  1  0  0  0
 63 65  1  0  0  0
 63138  1  0  0  0
 63139  1  0  0  0
 63140  1  0  0  0
 64141  1  0  0  0
 65142  1  0  0  0
 68 81  1  0  0  0
 71 73  1  0  0  0
 71 74  2  0  0  0
 71143  1  0  0  0
 72 73  2  0  0  0
 72 83  1  0  0  0
 72144  1  0  0  0
 73 82  1  0  0  0
 74 83  1  0  0  0
 74 79  1  0  0  0
 75 77  1  0  0  0
 75 79  1  0  0  0
 75145  1  0  0  0
 75146  1  0  0  0
 76 78  1  0  0  0
 76 79  1  0  0  0
 76147  1  0  0  0
 76148  1  0  0  0
 77 80  1  0  0  0
 77149  1  0  0  0
 77150  1  0  0  0
 78 80  1  0  0  0
 78151  1  0  0  0
 78152  1  0  0  0
 79153  1  0  0  0
 80 81  1  0  0  0
 80154  1  0  0  0
 81155  1  0  0  0
 81156  1  0  0  0
 82157  1  0  0  0
M  ISO  4   1 100  68 101  81 101  82 100
M  END
> <chiral flag>
0

> <version>
0

> <s_m_source_file>
/data/baiqing/PycharmProjects/Reinvent-master-3.2/result/LINK_invent/BTK/process_docking_weight1_custom_product_contain_oxygen_bond_distance_aromatic_linkinvent_7_9_3/rearranged_h_0145.sdf

> <i_m_source_file_index>
75

> <r_mmod_Potential_Energy-OPLS-2005>
66.9737396240234

> <r_mmod_Stretch_Energy-OPLS-2005>
69.0702285766602

> <r_mmod_Bend_Energy-OPLS-2005>
147.313461303711

> <r_mmod_Torsional_Energy-OPLS-2005>
225.092590332031

> <r_mmod_Improper_Torsional_Energy-OPLS-2005>
5.71179056167603

> <r_mmod_Van_der_Waal_Energy-OPLS-2005>
128.613876342773

> <r_mmod_Electrostatic_Energy-OPLS-2005>
-345.445037841797

> <r_mmod_Solvation_Energy-OPLS-2005>
-204.188323974609

> <b_mmod_Minimization_Converged-OPLS-2005>
0

> <r_mmod_RMS_Derivative-OPLS-2005>
1.58339405059814

$$$$
75
                    3D
 Structure written by MMmdl.
158167  0  0  1  0            999 V2000
  -30.6130  -14.6027   20.5566 C   0  0  0  0  0  0
  -30.4519  -12.3889   19.4276 C   0  0  0  0  0  0
  -29.5072  -12.5417   18.2130 C   0  0  0  0  0  0
  -28.0305  -12.3624   18.6271 C   0  0  0  0  0  0
  -27.6627  -13.2050   19.8766 C   0  0  2  0  0  0
  -28.7130  -13.0028   20.9945 C   0  0  0  0  0  0
  -25.2596  -13.8152   20.5664 C   0  0  0  0  0  0
  -24.1853  -13.0439   20.9201 C   0  0  0  0  0  0
  -24.6395  -11.6904   20.8728 C   0  0  0  0  0  0
  -23.9044  -10.4297   21.0362 C   0  0  0  0  0  0
  -24.3594   -9.4227   21.9150 C   0  0  0  0  0  0
  -23.6306   -8.2248   22.0714 C   0  0  0  0  0  0
  -22.4292   -8.0260   21.3498 C   0  0  0  0  0  0
  -21.9908   -9.0232   20.4603 C   0  0  0  0  0  0
  -22.7204  -10.2133   20.3025 C   0  0  0  0  0  0
  -21.6868   -6.0722   22.5278 C   0  0  0  0  0  0
  -21.4012   -6.5628   23.8206 C   0  0  0  0  0  0
  -21.3682   -5.6779   24.9181 C   0  0  0  0  0  0
  -21.6064   -4.3048   24.7212 C   0  0  0  0  0  0
  -21.8820   -3.8130   23.4337 C   0  0  0  0  0  0
  -21.9184   -4.6954   22.3389 C   0  0  0  0  0  0
  -22.7869  -13.5228   21.1872 C   0  0  0  0  0  0
  -22.1643   -4.2136   21.0973 F   0  0  0  0  0  0
  -21.5645   -3.4531   25.7725 F   0  0  0  0  0  0
  -30.0347  -13.3670   20.4475 N   0  0  0  0  0  0
  -26.3036  -12.9311   20.3361 N   0  0  0  0  0  0
  -25.9323  -11.6480   20.5744 N   0  0  0  0  0  0
  -22.0499  -12.8221   22.0432 N   0  0  0  0  0  0
  -25.4330  -15.1872   20.3998 N   0  0  0  0  0  0
  -31.7431  -14.8439   20.1114 O   0  0  0  0  0  0
  -21.6658   -6.8862   21.4224 O   0  0  0  0  0  0
  -22.3558  -14.5525   20.6726 O   0  0  0  0  0  0
  -24.6249  -31.8604   23.2133 C   0  0  0  0  0  0
  -25.9142  -32.4769   23.8376 C   0  0  1  0  0  0
  -27.2369  -27.3730   20.0965 C   0  0  0  0  0  0
  -25.6003  -33.8579   24.2319 N   0  0  0  0  0  0
  -23.4143  -30.4962   21.5474 C   0  0  2  0  0  0
  -24.8650  -28.9719   20.1019 C   0  0  0  0  0  0
  -22.7434  -29.4657   22.4848 C   0  0  0  0  0  0
  -18.0284  -28.1408   22.8437 C   0  0  0  0  0  0
  -24.1510  -36.7320   23.2633 C   0  0  0  0  0  0
  -25.9486  -30.8214   21.3680 C   0  0  0  0  0  0
  -26.0300  -29.4536   20.7082 C   0  0  0  0  0  0
  -27.2180  -28.6666   20.6979 C   0  0  0  0  0  0
  -26.0445  -26.9527   19.4498 C   0  0  0  0  0  0
  -24.8745  -27.7289   19.4586 C   0  0  0  0  0  0
  -23.6324  -29.8476   20.1548 C   0  0  0  0  0  0
  -25.4124  -36.3076   24.0315 C   0  0  1  0  0  0
  -20.5876  -28.3759   23.1222 C   0  0  2  0  0  0
  -20.6813  -26.9469   22.5402 C   0  0  0  0  0  0
  -19.5811  -26.6411   21.5198 C   0  0  0  0  0  0
  -18.1965  -26.7950   22.1570 C   0  0  0  0  0  0
  -19.1526  -28.8883   23.2846 C   0  0  0  0  0  0
  -18.9458  -30.1465   23.8906 C   0  0  0  0  0  0
  -17.6463  -30.6593   24.0580 C   0  0  0  0  0  0
  -25.9045  -34.9435   23.5084 C   0  0  0  0  0  0
  -16.5356  -29.9113   23.6314 C   0  0  0  0  0  0
  -16.7271  -28.6542   23.0297 C   0  0  0  0  0  0
  -26.4609  -31.6533   25.0686 C   0  0  0  0  0  0
  -25.3908  -31.3628   26.1446 C   0  0  0  0  0  0
  -27.0438  -30.2952   24.6085 C   0  0  0  0  0  0
  -27.6153  -32.4254   25.7501 C   0  0  0  0  0  0
  -27.5565  -37.1811   24.8426 C   0  0  0  0  0  0
  -21.4139  -29.3106   22.3583 N   0  0  0  0  0  0
  -26.4286  -37.3778   23.9368 N   0  0  0  0  0  0
  -24.6809  -31.0700   22.1040 N   0  0  0  0  0  0
  -23.4145  -28.8118   23.2884 O   0  0  0  0  0  0
  -28.3673  -26.5418   20.1503 O   0  0  0  0  0  0
  -26.5523  -34.8893   22.4601 O   0  0  0  0  0  0
  -23.5444  -32.1355   23.7551 O   0  0  0  0  0  0
  -28.5386  -18.9961   21.2608 C   0  0  0  0  0  0
  -28.5107  -17.5695   21.3856 C   0  0  0  0  0  0
  -29.7274  -19.4927   20.7973 C   0  0  0  0  0  0
  -29.6630  -16.9121   21.0111 C   0  0  0  0  0  0
  -30.1755  -20.9237   20.6224 C   0  0  0  0  0  0
  -28.9508  -22.6573   19.3431 C   0  0  0  0  0  0
  -29.4077  -23.2252   21.3063 C   0  0  0  0  0  0
  -29.3011  -24.0337   19.9843 C   0  0  0  0  0  0
  -30.6435  -25.0418   17.9981 C   0  0  0  0  0  0
  -30.6216  -24.6536   19.4880 C   0  0  0  0  0  0
  -28.1619  -25.1191   19.8459 C   0  0  0  0  0  0
  -29.1922  -21.9500   20.6017 N   0  0  0  0  0  0
  -29.7859  -15.5400   21.0914 N   0  0  0  0  0  0
  -31.3738  -21.2089   20.5980 O   0  0  0  0  0  0
  -30.8338  -18.1344   20.4731 S   0  0  0  0  0  0
  -31.4904  -12.5342   19.1228 H   0  0  0  0  0  0
  -30.3929  -11.3757   19.8295 H   0  0  0  0  0  0
  -29.7748  -11.8240   17.4378 H   0  0  0  0  0  0
  -29.6397  -13.5319   17.7713 H   0  0  0  0  0  0
  -27.8656  -11.3035   18.8295 H   0  0  0  0  0  0
  -27.3703  -12.6130   17.7965 H   0  0  0  0  0  0
  -27.6959  -14.2490   19.5667 H   0  0  0  0  0  0
  -28.7253  -11.9613   21.3154 H   0  0  0  0  0  0
  -28.4578  -13.5718   21.8894 H   0  0  0  0  0  0
  -25.2722   -9.5755   22.4747 H   0  0  0  0  0  0
  -24.0037   -7.4646   22.7438 H   0  0  0  0  0  0
  -21.0827   -8.8709   19.8938 H   0  0  0  0  0  0
  -22.3590  -10.9660   19.6161 H   0  0  0  0  0  0
  -21.1999   -7.6140   23.9711 H   0  0  0  0  0  0
  -21.1523   -6.0506   25.9083 H   0  0  0  0  0  0
  -22.0583   -2.7594   23.2826 H   0  0  0  0  0  0
  -22.4088  -11.9910   22.4892 H   0  0  0  0  0  0
  -21.1100  -13.1234   22.2589 H   0  0  0  0  0  0
  -24.6558  -15.8342   20.4670 H   0  0  0  0  0  0
  -26.2653  -15.6108   20.0099 H   0  0  0  0  0  0
  -26.7170  -32.5466   23.1092 H   0  0  0  0  0  0
  -25.0279  -33.9702   25.0552 H   0  0  0  0  0  0
  -22.7126  -31.3224   21.4138 H   0  0  0  0  0  0
  -23.3750  -35.9674   23.3281 H   0  0  0  0  0  0
  -24.3619  -36.8958   22.2049 H   0  0  0  0  0  0
  -23.7306  -37.6538   23.6681 H   0  0  0  0  0  0
  -26.0525  -31.6024   20.6116 H   0  0  0  0  0  0
  -26.8384  -30.8743   21.9821 H   0  0  0  0  0  0
  -28.1098  -29.0510   21.1732 H   0  0  0  0  0  0
  -25.9776  -26.0221   18.9095 H   0  0  0  0  0  0
  -23.9881  -27.3745   18.9489 H   0  0  0  0  0  0
  -23.7560  -30.6354   19.4107 H   0  0  0  0  0  0
  -22.7551  -29.2835   19.8340 H   0  0  0  0  0  0
  -25.1329  -36.1921   25.0818 H   0  0  0  0  0  0
  -21.0003  -28.3434   24.1331 H   0  0  0  0  0  0
  -20.5756  -26.2390   23.3630 H   0  0  0  0  0  0
  -21.6685  -26.7540   22.1186 H   0  0  0  0  0  0
  -19.7015  -25.6329   21.1226 H   0  0  0  0  0  0
  -19.6773  -27.3217   20.6727 H   0  0  0  0  0  0
  -17.4264  -26.6679   21.3943 H   0  0  0  0  0  0
  -18.0359  -26.0084   22.8954 H   0  0  0  0  0  0
  -19.7945  -30.7252   24.2301 H   0  0  0  0  0  0
  -17.5040  -31.6259   24.5214 H   0  0  0  0  0  0
  -15.5366  -30.3031   23.7662 H   0  0  0  0  0  0
  -15.8657  -28.0910   22.6959 H   0  0  0  0  0  0
  -24.6000  -30.7098   25.7748 H   0  0  0  0  0  0
  -24.9261  -32.2805   26.5054 H   0  0  0  0  0  0
  -25.8295  -30.8622   27.0085 H   0  0  0  0  0  0
  -26.2959  -29.6630   24.1287 H   0  0  0  0  0  0
  -27.4317  -29.7270   25.4547 H   0  0  0  0  0  0
  -27.8766  -30.4183   23.9155 H   0  0  0  0  0  0
  -27.2715  -33.3470   26.2217 H   0  0  0  0  0  0
  -28.3976  -32.6938   25.0385 H   0  0  0  0  0  0
  -28.0856  -31.8300   26.5341 H   0  0  0  0  0  0
  -28.2564  -38.0122   24.7473 H   0  0  0  0  0  0
  -28.1067  -36.2638   24.6275 H   0  0  0  0  0  0
  -27.2237  -37.1492   25.8814 H   0  0  0  0  0  0
  -20.9306  -29.8860   21.6810 H   0  0  0  0  0  0
  -26.0146  -38.2823   24.1470 H   0  0  0  0  0  0
  -27.6962  -19.6151   21.5318 H   0  0  0  0  0  0
  -27.6242  -17.0776   21.7620 H   0  0  0  0  0  0
  -29.6027  -22.3615   18.5193 H   0  0  0  0  0  0
  -27.9027  -22.5682   19.0501 H   0  0  0  0  0  0
  -28.5883  -23.4457   21.9903 H   0  0  0  0  0  0
  -30.3641  -23.3187   21.8248 H   0  0  0  0  0  0
  -30.5991  -24.1574   17.3629 H   0  0  0  0  0  0
  -31.5667  -25.5616   17.7476 H   0  0  0  0  0  0
  -29.8261  -25.7082   17.7177 H   0  0  0  0  0  0
  -31.4376  -23.9435   19.6309 H   0  0  0  0  0  0
  -30.8883  -25.5110   20.1055 H   0  0  0  0  0  0
  -27.2970  -24.7722   20.4158 H   0  0  0  0  0  0
  -27.8477  -25.0756   18.8055 H   0  0  0  0  0  0
  -28.9569  -15.0886   21.4475 H   0  0  0  0  0  0
  1 25  1  0  0  0
  1 30  2  0  0  0
  1 83  1  0  0  0
  2  3  1  0  0  0
  2 25  1  0  0  0
  2 86  1  0  0  0
  2 87  1  0  0  0
  3  4  1  0  0  0
  3 88  1  0  0  0
  3 89  1  0  0  0
  4  5  1  0  0  0
  4 90  1  0  0  0
  4 91  1  0  0  0
  5  6  1  0  0  0
  5 26  1  0  0  0
  5 92  1  0  0  0
  6 25  1  0  0  0
  6 93  1  0  0  0
  6 94  1  0  0  0
  7  8  2  0  0  0
  7 26  1  0  0  0
  7 29  1  0  0  0
  8  9  1  0  0  0
  8 22  1  0  0  0
  9 10  1  0  0  0
  9 27  2  0  0  0
 10 11  2  0  0  0
 10 15  1  0  0  0
 11 12  1  0  0  0
 11 95  1  0  0  0
 12 13  2  0  0  0
 12 96  1  0  0  0
 13 14  1  0  0  0
 13 31  1  0  0  0
 14 15  2  0  0  0
 14 97  1  0  0  0
 15 98  1  0  0  0
 16 17  2  0  0  0
 16 21  1  0  0  0
 16 31  1  0  0  0
 17 18  1  0  0  0
 17 99  1  0  0  0
 18 19  2  0  0  0
 18100  1  0  0  0
 19 20  1  0  0  0
 19 24  1  0  0  0
 20 21  2  0  0  0
 20101  1  0  0  0
 21 23  1  0  0  0
 22 28  1  0  0  0
 22 32  2  0  0  0
 26 27  1  0  0  0
 28102  1  0  0  0
 28103  1  0  0  0
 29104  1  0  0  0
 29105  1  0  0  0
 33 34  1  0  0  0
 33 66  1  0  0  0
 33 70  2  0  0  0
 34 36  1  0  0  0
 34 59  1  0  0  0
 34106  1  0  0  0
 35 44  2  0  0  0
 35 45  1  0  0  0
 35 68  1  0  0  0
 36 56  1  0  0  0
 36107  1  0  0  0
 37 39  1  0  0  0
 37 47  1  0  0  0
 37 66  1  0  0  0
 37108  1  0  0  0
 38 43  2  0  0  0
 38 46  1  0  0  0
 38 47  1  0  0  0
 39 64  1  0  0  0
 39 67  2  0  0  0
 40 52  1  0  0  0
 40 53  2  0  0  0
 40 58  1  0  0  0
 41109  1  0  0  0
 41110  1  0  0  0
 41111  1  0  0  0
 41 48  1  0  0  0
 42 43  1  0  0  0
 42 66  1  0  0  0
 42112  1  0  0  0
 42113  1  0  0  0
 43 44  1  0  0  0
 44114  1  0  0  0
 45 46  2  0  0  0
 45115  1  0  0  0
 46116  1  0  0  0
 47117  1  0  0  0
 47118  1  0  0  0
 48 56  1  0  0  0
 48 65  1  0  0  0
 48119  1  0  0  0
 49 50  1  0  0  0
 49 53  1  0  0  0
 49 64  1  0  0  0
 49120  1  0  0  0
 50 51  1  0  0  0
 50121  1  0  0  0
 50122  1  0  0  0
 51 52  1  0  0  0
 51123  1  0  0  0
 51124  1  0  0  0
 52125  1  0  0  0
 52126  1  0  0  0
 53 54  1  0  0  0
 54 55  2  0  0  0
 54127  1  0  0  0
 55 57  1  0  0  0
 55128  1  0  0  0
 56 69  2  0  0  0
 57 58  2  0  0  0
 57129  1  0  0  0
 58130  1  0  0  0
 59 60  1  0  0  0
 59 61  1  0  0  0
 59 62  1  0  0  0
 60131  1  0  0  0
 60132  1  0  0  0
 60133  1  0  0  0
 61134  1  0  0  0
 61135  1  0  0  0
 61136  1  0  0  0
 62137  1  0  0  0
 62138  1  0  0  0
 62139  1  0  0  0
 63 65  1  0  0  0
 63140  1  0  0  0
 63141  1  0  0  0
 63142  1  0  0  0
 64143  1  0  0  0
 65144  1  0  0  0
 68 81  1  0  0  0
 71 72  1  0  0  0
 71 73  2  0  0  0
 71145  1  0  0  0
 72 74  2  0  0  0
 72146  1  0  0  0
 73 75  1  0  0  0
 73 85  1  0  0  0
 74 83  1  0  0  0
 74 85  1  0  0  0
 75 82  1  0  0  0
 75 84  2  0  0  0
 76 78  1  0  0  0
 76 82  1  0  0  0
 76147  1  0  0  0
 76148  1  0  0  0
 77 78  1  0  0  0
 77 82  1  0  0  0
 77149  1  0  0  0
 77150  1  0  0  0
 78 80  1  0  0  0
 78 81  1  0  0  0
 79 80  1  0  0  0
 79151  1  0  0  0
 79152  1  0  0  0
 79153  1  0  0  0
 80154  1  0  0  0
 80155  1  0  0  0
 81156  1  0  0  0
 81157  1  0  0  0
 83158  1  0  0  0
M  ISO  4   1 100  68 101  81 101  83 100
M  END
> <chiral flag>
0

> <version>
0

> <s_m_source_file>
/data/baiqing/PycharmProjects/Reinvent-master-3.2/result/LINK_invent/BTK/process_docking_weight1_custom_product_contain_oxygen_bond_distance_aromatic_linkinvent_7_9_3/rearranged_h_0145.sdf

> <i_m_source_file_index>
76

> <r_mmod_Potential_Energy-OPLS-2005>
76.3208999633789

> <r_mmod_Stretch_Energy-OPLS-2005>
60.6010322570801

> <r_mmod_Bend_Energy-OPLS-2005>
165.441558837891

> <r_mmod_Torsional_Energy-OPLS-2005>
283.543701171875

> <r_mmod_Improper_Torsional_Energy-OPLS-2005>
12.2643823623657

> <r_mmod_Van_der_Waal_Energy-OPLS-2005>
129.462432861328

> <r_mmod_Electrostatic_Energy-OPLS-2005>
-374.103759765625

> <r_mmod_Solvation_Energy-OPLS-2005>
-236.127685546875

> <b_mmod_Minimization_Converged-OPLS-2005>
0

> <r_mmod_RMS_Derivative-OPLS-2005>
5.02968311309814

$$$$
76
                    3D
 Structure written by MMmdl.
175183  0  0  1  0            999 V2000
  -30.6513  -14.5089   20.6110 C   0  0  0  0  0  0
  -30.4400  -12.3436   19.4155 C   0  0  0  0  0  0
  -29.4992  -12.5298   18.2051 C   0  0  0  0  0  0
  -28.0209  -12.3772   18.6152 C   0  0  0  0  0  0
  -27.6664  -13.2036   19.8800 C   0  0  2  0  0  0
  -28.7051  -12.9512   20.9949 C   0  0  0  0  0  0
  -25.2599  -13.8152   20.5655 C   0  0  0  0  0  0
  -24.1839  -13.0446   20.9154 C   0  0  0  0  0  0
  -24.6382  -11.6910   20.8718 C   0  0  0  0  0  0
  -23.9039  -10.4303   21.0399 C   0  0  0  0  0  0
  -24.3596   -9.4223   21.9183 C   0  0  0  0  0  0
  -23.6275   -8.2256   22.0762 C   0  0  0  0  0  0
  -22.4261   -8.0289   21.3546 C   0  0  0  0  0  0
  -21.9882   -9.0262   20.4653 C   0  0  0  0  0  0
  -22.7208  -10.2142   20.3054 C   0  0  0  0  0  0
  -21.6854   -6.0725   22.5272 C   0  0  0  0  0  0
  -21.4023   -6.5628   23.8202 C   0  0  0  0  0  0
  -21.3656   -5.6786   24.9165 C   0  0  0  0  0  0
  -21.6046   -4.3049   24.7222 C   0  0  0  0  0  0
  -21.8819   -3.8137   23.4345 C   0  0  0  0  0  0
  -21.9194   -4.6952   22.3398 C   0  0  0  0  0  0
  -22.7865  -13.5267   21.1819 C   0  0  0  0  0  0
  -22.1663   -4.2135   21.0974 F   0  0  0  0  0  0
  -21.5622   -3.4532   25.7736 F   0  0  0  0  0  0
  -30.0399  -13.2974   20.4648 N   0  0  0  0  0  0
  -26.3042  -12.9317   20.3359 N   0  0  0  0  0  0
  -25.9313  -11.6481   20.5746 N   0  0  0  0  0  0
  -22.0481  -12.8289   22.0380 N   0  0  0  0  0  0
  -25.4349  -15.1860   20.4064 N   0  0  0  0  0  0
  -31.7022  -14.8064   20.0316 O   0  0  0  0  0  0
  -21.6643   -6.8876   21.4235 O   0  0  0  0  0  0
  -22.3567  -14.5575   20.6661 O   0  0  0  0  0  0
  -24.6169  -31.8642   23.2050 C   0  0  0  0  0  0
  -25.9044  -32.4811   23.8362 C   0  0  1  0  0  0
  -27.2429  -27.3950   20.1242 C   0  0  0  0  0  0
  -25.5887  -33.8612   24.2294 N   0  0  0  0  0  0
  -23.4068  -30.4836   21.5466 C   0  0  2  0  0  0
  -24.8535  -28.9316   20.1251 C   0  0  0  0  0  0
  -22.7408  -29.4646   22.4999 C   0  0  0  0  0  0
  -18.0269  -28.1375   22.8496 C   0  0  0  0  0  0
  -24.1478  -36.7326   23.2632 C   0  0  0  0  0  0
  -25.9356  -30.8191   21.3599 C   0  0  0  0  0  0
  -26.0135  -29.4477   20.7141 C   0  0  0  0  0  0
  -27.2118  -28.6960   20.6898 C   0  0  0  0  0  0
  -26.0670  -26.9017   19.5236 C   0  0  0  0  0  0
  -24.8771  -27.6595   19.5229 C   0  0  0  0  0  0
  -23.6171  -29.8030   20.1663 C   0  0  0  0  0  0
  -25.4102  -36.3123   24.0325 C   0  0  1  0  0  0
  -20.5852  -28.3672   23.1316 C   0  0  2  0  0  0
  -20.6756  -26.9410   22.5417 C   0  0  0  0  0  0
  -19.5739  -26.6383   21.5210 C   0  0  0  0  0  0
  -18.1918  -26.7924   22.1626 C   0  0  0  0  0  0
  -19.1516  -28.8840   23.2900 C   0  0  0  0  0  0
  -18.9453  -30.1449   23.8907 C   0  0  0  0  0  0
  -17.6457  -30.6584   24.0576 C   0  0  0  0  0  0
  -25.9032  -34.9481   23.5117 C   0  0  0  0  0  0
  -16.5346  -29.9089   23.6332 C   0  0  0  0  0  0
  -16.7258  -28.6503   23.0354 C   0  0  0  0  0  0
  -26.4458  -31.6606   25.0711 C   0  0  0  0  0  0
  -25.3712  -31.3727   26.1462 C   0  0  0  0  0  0
  -27.0299  -30.3044   24.6125 C   0  0  0  0  0  0
  -27.6043  -32.4318   25.7465 C   0  0  0  0  0  0
  -27.5580  -37.1816   24.8455 C   0  0  0  0  0  0
  -21.4134  -29.3044   22.3730 N   0  0  0  0  0  0
  -26.4293  -37.3808   23.9405 N   0  0  0  0  0  0
  -24.6714  -31.0714   22.0958 N   0  0  0  0  0  0
  -23.4158  -28.8198   23.3063 O   0  0  0  0  0  0
  -28.4208  -26.6652   20.0364 O   0  0  0  0  0  0
  -26.5618  -34.8939   22.4695 O   0  0  0  0  0  0
  -23.5360  -32.1415   23.7430 O   0  0  0  0  0  0
  -29.1392  -18.9189   20.8648 C   0  0  0  0  0  0
  -29.9764  -17.7367   20.6846 C   0  0  0  0  0  0
  -28.0369  -18.6043   21.6418 C   0  0  0  0  0  0
  -29.5448  -16.5969   21.3432 C   0  0  0  0  0  0
  -30.3672  -25.6181   20.9395 C   0  0  0  0  0  0
  -26.8700  -19.4326   22.0831 C   0  0  0  0  0  0
  -32.5270  -24.3820   21.5781 C   0  0  0  0  0  0
  -29.0054  -27.2403   23.1242 C   0  0  0  0  0  0
  -29.3011  -23.0527   18.6359 C   0  0  0  0  0  0
  -29.4709  -20.3042   20.2562 C   0  0  0  0  0  0
  -31.1611  -24.9125   22.0517 C   0  0  0  0  0  0
  -28.3357  -26.0271   22.4456 C   0  0  0  0  0  0
  -28.5966  -21.5641   20.6246 C   0  0  0  0  0  0
  -28.2065  -24.1923   20.6469 C   0  0  0  0  0  0
  -29.1078  -22.9775   20.1581 C   0  0  2  0  0  0
  -28.8113  -25.6312   21.0043 C   0  0  1  0  0  0
  -31.1396  -17.7797   19.9103 N   0  0  0  0  0  0
  -30.0378  -15.3285   21.4882 N   0  0  0  0  0  0
  -30.9712  -26.1587   20.0056 O   0  0  0  0  0  0
  -28.0679  -16.9480   22.1803 S   0  0  0  0  0  0
  -31.4797  -12.4795   19.1123 H   0  0  0  0  0  0
  -30.3736  -11.3240   19.7966 H   0  0  0  0  0  0
  -29.7436  -11.8075   17.4253 H   0  0  0  0  0  0
  -29.6568  -13.5175   17.7678 H   0  0  0  0  0  0
  -27.8329  -11.3183   18.7993 H   0  0  0  0  0  0
  -27.3712  -12.6613   17.7868 H   0  0  0  0  0  0
  -27.7189  -14.2570   19.6022 H   0  0  0  0  0  0
  -28.6927  -11.8998   21.2840 H   0  0  0  0  0  0
  -28.4344  -13.4951   21.9014 H   0  0  0  0  0  0
  -25.2737   -9.5699   22.4764 H   0  0  0  0  0  0
  -23.9978   -7.4648   22.7484 H   0  0  0  0  0  0
  -21.0809   -8.8779   19.8964 H   0  0  0  0  0  0
  -22.3662  -10.9679   19.6166 H   0  0  0  0  0  0
  -21.2025   -7.6141   23.9703 H   0  0  0  0  0  0
  -21.1477   -6.0518   25.9067 H   0  0  0  0  0  0
  -22.0601   -2.7598   23.2852 H   0  0  0  0  0  0
  -22.4066  -11.9948   22.4793 H   0  0  0  0  0  0
  -21.1109  -13.1358   22.2570 H   0  0  0  0  0  0
  -24.6783  -15.8507   20.5257 H   0  0  0  0  0  0
  -26.3035  -15.6186   20.1180 H   0  0  0  0  0  0
  -26.7115  -32.5503   23.1123 H   0  0  0  0  0  0
  -25.0003  -33.9770   25.0421 H   0  0  0  0  0  0
  -22.6976  -31.3009   21.3995 H   0  0  0  0  0  0
  -23.3739  -35.9663   23.3311 H   0  0  0  0  0  0
  -24.3558  -36.8941   22.2045 H   0  0  0  0  0  0
  -23.7247  -37.6534   23.6655 H   0  0  0  0  0  0
  -26.0485  -31.5789   20.5858 H   0  0  0  0  0  0
  -26.8223  -30.8753   21.9801 H   0  0  0  0  0  0
  -28.1121  -29.1284   21.0976 H   0  0  0  0  0  0
  -26.0728  -25.9364   19.0381 H   0  0  0  0  0  0
  -23.9881  -27.2572   19.0573 H   0  0  0  0  0  0
  -23.7309  -30.5715   19.4009 H   0  0  0  0  0  0
  -22.7397  -29.2224   19.8733 H   0  0  0  0  0  0
  -25.1282  -36.1992   25.0819 H   0  0  0  0  0  0
  -20.9935  -28.3251   24.1440 H   0  0  0  0  0  0
  -20.5648  -26.2291   23.3609 H   0  0  0  0  0  0
  -21.6633  -26.7447   22.1222 H   0  0  0  0  0  0
  -19.6901  -25.6293   21.1240 H   0  0  0  0  0  0
  -19.6676  -27.3189   20.6738 H   0  0  0  0  0  0
  -17.4188  -26.6682   21.4027 H   0  0  0  0  0  0
  -18.0314  -26.0052   22.9007 H   0  0  0  0  0  0
  -19.7933  -30.7266   24.2264 H   0  0  0  0  0  0
  -17.5019  -31.6266   24.5180 H   0  0  0  0  0  0
  -15.5352  -30.3006   23.7638 H   0  0  0  0  0  0
  -15.8657  -28.0835   22.7056 H   0  0  0  0  0  0
  -24.5854  -30.7115   25.7789 H   0  0  0  0  0  0
  -24.8930  -32.2882   26.4951 H   0  0  0  0  0  0
  -25.8035  -30.8850   27.0209 H   0  0  0  0  0  0
  -26.2868  -29.6799   24.1145 H   0  0  0  0  0  0
  -27.4015  -29.7300   25.4625 H   0  0  0  0  0  0
  -27.8725  -30.4350   23.9328 H   0  0  0  0  0  0
  -27.2675  -33.3601   26.2096 H   0  0  0  0  0  0
  -28.3817  -32.6904   25.0261 H   0  0  0  0  0  0
  -28.0753  -31.8406   26.5332 H   0  0  0  0  0  0
  -28.2611  -38.0102   24.7514 H   0  0  0  0  0  0
  -28.1070  -36.2641   24.6272 H   0  0  0  0  0  0
  -27.2304  -37.1461   25.8860 H   0  0  0  0  0  0
  -20.9299  -29.8773   21.6955 H   0  0  0  0  0  0
  -26.0188  -38.2894   24.1405 H   0  0  0  0  0  0
  -27.1767  -20.2412   22.7444 H   0  0  0  0  0  0
  -26.1544  -18.8312   22.6462 H   0  0  0  0  0  0
  -26.3290  -19.8463   21.2330 H   0  0  0  0  0  0
  -33.0542  -23.8888   22.3941 H   0  0  0  0  0  0
  -33.1646  -25.1922   21.2217 H   0  0  0  0  0  0
  -32.4214  -23.6612   20.7665 H   0  0  0  0  0  0
  -28.3192  -27.7098   23.8285 H   0  0  0  0  0  0
  -29.3301  -27.9950   22.4120 H   0  0  0  0  0  0
  -29.8843  -26.9452   23.6959 H   0  0  0  0  0  0
  -30.0446  -22.3356   18.2898 H   0  0  0  0  0  0
  -29.6482  -24.0418   18.3351 H   0  0  0  0  0  0
  -28.3712  -22.8542   18.1030 H   0  0  0  0  0  0
  -29.4689  -20.2023   19.1717 H   0  0  0  0  0  0
  -30.5036  -20.5434   20.5132 H   0  0  0  0  0  0
  -30.5645  -24.1037   22.4720 H   0  0  0  0  0  0
  -31.3301  -25.6225   22.8575 H   0  0  0  0  0  0
  -27.2582  -26.1907   22.4326 H   0  0  0  0  0  0
  -28.4619  -25.1783   23.1193 H   0  0  0  0  0  0
  -28.5403  -21.6131   21.7109 H   0  0  0  0  0  0
  -27.5802  -21.4238   20.2612 H   0  0  0  0  0  0
  -27.6711  -23.8326   21.5245 H   0  0  0  0  0  0
  -27.4052  -24.3281   19.9223 H   0  0  0  0  0  0
  -30.0956  -23.0402   20.5994 H   0  0  0  0  0  0
  -31.1689  -18.4436   19.1450 H   0  0  0  0  0  0
  -31.5392  -16.8744   19.6682 H   0  0  0  0  0  0
  -29.4535  -14.7787   22.0985 H   0  0  0  0  0  0
  1 25  1  0  0  0
  1 30  2  0  0  0
  1 88  1  0  0  0
  2  3  1  0  0  0
  2 25  1  0  0  0
  2 91  1  0  0  0
  2 92  1  0  0  0
  3  4  1  0  0  0
  3 93  1  0  0  0
  3 94  1  0  0  0
  4  5  1  0  0  0
  4 95  1  0  0  0
  4 96  1  0  0  0
  5  6  1  0  0  0
  5 26  1  0  0  0
  5 97  1  0  0  0
  6 25  1  0  0  0
  6 98  1  0  0  0
  6 99  1  0  0  0
  7  8  2  0  0  0
  7 26  1  0  0  0
  7 29  1  0  0  0
  8  9  1  0  0  0
  8 22  1  0  0  0
  9 10  1  0  0  0
  9 27  2  0  0  0
 10 11  2  0  0  0
 10 15  1  0  0  0
 11 12  1  0  0  0
 11100  1  0  0  0
 12 13  2  0  0  0
 12101  1  0  0  0
 13 14  1  0  0  0
 13 31  1  0  0  0
 14 15  2  0  0  0
 14102  1  0  0  0
 15103  1  0  0  0
 16 17  2  0  0  0
 16 21  1  0  0  0
 16 31  1  0  0  0
 17 18  1  0  0  0
 17104  1  0  0  0
 18 19  2  0  0  0
 18105  1  0  0  0
 19 20  1  0  0  0
 19 24  1  0  0  0
 20 21  2  0  0  0
 20106  1  0  0  0
 21 23  1  0  0  0
 22 28  1  0  0  0
 22 32  2  0  0  0
 26 27  1  0  0  0
 28107  1  0  0  0
 28108  1  0  0  0
 29109  1  0  0  0
 29110  1  0  0  0
 33 34  1  0  0  0
 33 66  1  0  0  0
 33 70  2  0  0  0
 34 36  1  0  0  0
 34 59  1  0  0  0
 34111  1  0  0  0
 35 44  2  0  0  0
 35 45  1  0  0  0
 35 68  1  0  0  0
 36 56  1  0  0  0
 36112  1  0  0  0
 37 39  1  0  0  0
 37 47  1  0  0  0
 37 66  1  0  0  0
 37113  1  0  0  0
 38 43  2  0  0  0
 38 46  1  0  0  0
 38 47  1  0  0  0
 39 64  1  0  0  0
 39 67  2  0  0  0
 40 52  1  0  0  0
 40 53  2  0  0  0
 40 58  1  0  0  0
 41114  1  0  0  0
 41115  1  0  0  0
 41116  1  0  0  0
 41 48  1  0  0  0
 42 43  1  0  0  0
 42 66  1  0  0  0
 42117  1  0  0  0
 42118  1  0  0  0
 43 44  1  0  0  0
 44119  1  0  0  0
 45 46  2  0  0  0
 45120  1  0  0  0
 46121  1  0  0  0
 47122  1  0  0  0
 47123  1  0  0  0
 48 56  1  0  0  0
 48 65  1  0  0  0
 48124  1  0  0  0
 49 50  1  0  0  0
 49 53  1  0  0  0
 49 64  1  0  0  0
 49125  1  0  0  0
 50 51  1  0  0  0
 50126  1  0  0  0
 50127  1  0  0  0
 51 52  1  0  0  0
 51128  1  0  0  0
 51129  1  0  0  0
 52130  1  0  0  0
 52131  1  0  0  0
 53 54  1  0  0  0
 54 55  2  0  0  0
 54132  1  0  0  0
 55 57  1  0  0  0
 55133  1  0  0  0
 56 69  2  0  0  0
 57 58  2  0  0  0
 57134  1  0  0  0
 58135  1  0  0  0
 59 60  1  0  0  0
 59 61  1  0  0  0
 59 62  1  0  0  0
 60136  1  0  0  0
 60137  1  0  0  0
 60138  1  0  0  0
 61139  1  0  0  0
 61140  1  0  0  0
 61141  1  0  0  0
 62142  1  0  0  0
 62143  1  0  0  0
 62144  1  0  0  0
 63 65  1  0  0  0
 63145  1  0  0  0
 63146  1  0  0  0
 63147  1  0  0  0
 64148  1  0  0  0
 65149  1  0  0  0
 68 86  1  0  0  0
 71 72  1  0  0  0
 71 73  2  0  0  0
 71 80  1  0  0  0
 72 74  2  0  0  0
 72 87  1  0  0  0
 73 76  1  0  0  0
 73 90  1  0  0  0
 74 88  1  0  0  0
 74 90  1  0  0  0
 75 81  1  0  0  0
 75 89  2  0  0  0
 75 86  1  0  0  0
 76150  1  0  0  0
 76151  1  0  0  0
 76152  1  0  0  0
 77 81  1  0  0  0
 77153  1  0  0  0
 77154  1  0  0  0
 77155  1  0  0  0
 78 82  1  0  0  0
 78156  1  0  0  0
 78157  1  0  0  0
 78158  1  0  0  0
 79159  1  0  0  0
 79160  1  0  0  0
 79161  1  0  0  0
 79 85  1  0  0  0
 80 83  1  0  0  0
 80162  1  0  0  0
 80163  1  0  0  0
 81164  1  0  0  0
 81165  1  0  0  0
 82166  1  0  0  0
 82167  1  0  0  0
 82 86  1  0  0  0
 83 85  1  0  0  0
 83168  1  0  0  0
 83169  1  0  0  0
 84 85  1  0  0  0
 84 86  1  0  0  0
 84170  1  0  0  0
 84171  1  0  0  0
 85172  1  0  0  0
 87173  1  0  0  0
 87174  1  0  0  0
 88175  1  0  0  0
M  ISO  4   1 100  68 101  86 101  88 100
M  END
> <chiral flag>
0

> <version>
0

> <s_m_source_file>
/data/baiqing/PycharmProjects/Reinvent-master-3.2/result/LINK_invent/BTK/process_docking_weight1_custom_product_contain_oxygen_bond_distance_aromatic_linkinvent_7_9_3/rearranged_h_0145.sdf

> <i_m_source_file_index>
77

> <r_mmod_Potential_Energy-OPLS-2005>
12.2698030471802

> <r_mmod_Stretch_Energy-OPLS-2005>
64.6967315673828

> <r_mmod_Bend_Energy-OPLS-2005>
164.018249511719

> <r_mmod_Torsional_Energy-OPLS-2005>
274.609405517578

> <r_mmod_Improper_Torsional_Energy-OPLS-2005>
9.43267440795898

> <r_mmod_Van_der_Waal_Energy-OPLS-2005>
127.94702911377

> <r_mmod_Electrostatic_Energy-OPLS-2005>
-433.342254638672

> <r_mmod_Solvation_Energy-OPLS-2005>
-212.875915527344

> <b_mmod_Minimization_Converged-OPLS-2005>
0

> <r_mmod_RMS_Derivative-OPLS-2005>
1.93921494483948

$$$$
77
                    3D
 Structure written by MMmdl.
165174  0  0  1  0            999 V2000
  -30.6408  -14.7436   20.4534 C   0  0  0  0  0  0
  -30.4227  -12.4532   19.4826 C   0  0  0  0  0  0
  -29.5050  -12.4977   18.2419 C   0  0  0  0  0  0
  -28.0326  -12.3260   18.6580 C   0  0  0  0  0  0
  -27.6378  -13.2379   19.8503 C   0  0  2  0  0  0
  -28.6838  -13.1929   20.9867 C   0  0  0  0  0  0
  -25.2474  -13.8220   20.5702 C   0  0  0  0  0  0
  -24.1772  -13.0445   20.9214 C   0  0  0  0  0  0
  -24.6376  -11.6931   20.8759 C   0  0  0  0  0  0
  -23.9064  -10.4298   21.0410 C   0  0  0  0  0  0
  -24.3610   -9.4211   21.9190 C   0  0  0  0  0  0
  -23.6280   -8.2241   22.0760 C   0  0  0  0  0  0
  -22.4269   -8.0272   21.3543 C   0  0  0  0  0  0
  -21.9905   -9.0256   20.4648 C   0  0  0  0  0  0
  -22.7232  -10.2135   20.3061 C   0  0  0  0  0  0
  -21.6852   -6.0721   22.5276 C   0  0  0  0  0  0
  -21.4013   -6.5631   23.8211 C   0  0  0  0  0  0
  -21.3659   -5.6786   24.9169 C   0  0  0  0  0  0
  -21.6048   -4.3045   24.7225 C   0  0  0  0  0  0
  -21.8816   -3.8136   23.4349 C   0  0  0  0  0  0
  -21.9189   -4.6950   22.3400 C   0  0  0  0  0  0
  -22.7792  -13.5219   21.1869 C   0  0  0  0  0  0
  -22.1655   -4.2132   21.0976 F   0  0  0  0  0  0
  -21.5634   -3.4537   25.7741 F   0  0  0  0  0  0
  -29.9844  -13.5327   20.3984 N   0  0  0  0  0  0
  -26.2909  -12.9441   20.3302 N   0  0  0  0  0  0
  -25.9313  -11.6577   20.5787 N   0  0  0  0  0  0
  -22.0446  -12.8210   22.0428 N   0  0  0  0  0  0
  -25.4164  -15.1941   20.4089 N   0  0  0  0  0  0
  -31.8331  -14.7740   20.1446 O   0  0  0  0  0  0
  -21.6632   -6.8865   21.4235 O   0  0  0  0  0  0
  -22.3479  -14.5528   20.6717 O   0  0  0  0  0  0
  -24.6303  -31.8535   23.1923 C   0  0  0  0  0  0
  -25.9116  -32.4742   23.8297 C   0  0  1  0  0  0
  -27.2336  -27.2653   20.1341 C   0  0  0  0  0  0
  -25.5905  -33.8542   24.2230 N   0  0  0  0  0  0
  -23.4276  -30.4696   21.5359 C   0  0  2  0  0  0
  -24.8769  -28.9099   20.1025 C   0  0  0  0  0  0
  -22.7509  -29.4556   22.4900 C   0  0  0  0  0  0
  -18.0289  -28.1395   22.8455 C   0  0  0  0  0  0
  -24.1496  -36.7287   23.2641 C   0  0  0  0  0  0
  -25.9687  -30.7668   21.3678 C   0  0  0  0  0  0
  -26.0421  -29.3855   20.7162 C   0  0  0  0  0  0
  -27.2151  -28.5719   20.7262 C   0  0  0  0  0  0
  -26.0497  -26.8476   19.4876 C   0  0  0  0  0  0
  -24.8859  -27.6494   19.4770 C   0  0  0  0  0  0
  -23.6441  -29.7936   20.1532 C   0  0  0  0  0  0
  -25.4123  -36.3065   24.0329 C   0  0  1  0  0  0
  -20.5892  -28.3686   23.1266 C   0  0  2  0  0  0
  -20.6771  -26.9408   22.5409 C   0  0  0  0  0  0
  -19.5752  -26.6381   21.5201 C   0  0  0  0  0  0
  -18.1926  -26.7929   22.1608 C   0  0  0  0  0  0
  -19.1548  -28.8861   23.2839 C   0  0  0  0  0  0
  -18.9474  -30.1454   23.8860 C   0  0  0  0  0  0
  -17.6476  -30.6575   24.0559 C   0  0  0  0  0  0
  -25.9063  -34.9434   23.5089 C   0  0  0  0  0  0
  -16.5362  -29.9076   23.6336 C   0  0  0  0  0  0
  -16.7279  -28.6509   23.0332 C   0  0  0  0  0  0
  -26.4488  -31.6581   25.0693 C   0  0  0  0  0  0
  -25.3724  -31.3709   26.1432 C   0  0  0  0  0  0
  -27.0341  -30.3013   24.6142 C   0  0  0  0  0  0
  -27.6051  -32.4328   25.7462 C   0  0  0  0  0  0
  -27.5589  -37.1784   24.8468 C   0  0  0  0  0  0
  -21.4217  -29.3016   22.3659 N   0  0  0  0  0  0
  -26.4296  -37.3772   23.9417 N   0  0  0  0  0  0
  -24.6948  -31.0501   22.0887 N   0  0  0  0  0  0
  -23.4215  -28.8103   23.3003 O   0  0  0  0  0  0
  -28.3523  -26.4165   20.2646 O   0  0  0  0  0  0
  -26.5662  -34.8909   22.4674 O   0  0  0  0  0  0
  -23.5456  -32.1356   23.7221 O   0  0  0  0  0  0
  -31.1652  -20.1158   20.3727 C   0  0  0  0  0  0
  -31.6719  -17.7207   20.5278 C   0  0  0  0  0  0
  -29.3702  -18.4912   20.5157 C   0  0  0  0  0  0
  -32.0971  -19.0612   20.4246 C   0  0  0  0  0  0
  -29.7696  -19.8981   20.4276 C   0  0  0  0  0  0
  -30.3014  -17.3627   20.5526 C   0  0  0  0  0  0
  -27.2263  -23.4962   21.0160 C   0  0  0  0  0  0
  -28.3223  -23.6913   20.2605 C   0  0  0  0  0  0
  -26.8937  -22.1765   21.5831 C   0  0  0  0  0  0
  -27.9250  -21.0283   21.5434 C   0  0  0  0  0  0
  -29.2917  -22.4563   19.9573 C   0  0  2  0  0  0
  -29.6440  -22.3918   18.4605 C   0  0  0  0  0  0
  -34.0748  -20.1208   21.6226 C   0  0  0  0  0  0
  -33.5839  -19.3810   20.3706 C   0  0  0  0  0  0
  -28.5550  -25.1097   19.5623 C   0  0  0  0  0  0
  -28.8825  -21.0643   20.4302 N   0  0  0  0  0  0
  -29.9056  -15.9170   20.6351 N   0  0  0  0  0  0
  -25.7987  -21.9631   22.1095 O   0  0  0  0  0  0
  -31.4659  -12.5583   19.1819 H   0  0  0  0  0  0
  -30.3559  -11.4868   19.9817 H   0  0  0  0  0  0
  -29.7883  -11.7159   17.5351 H   0  0  0  0  0  0
  -29.6335  -13.4472   17.7183 H   0  0  0  0  0  0
  -27.8938  -11.2810   18.9345 H   0  0  0  0  0  0
  -27.3742  -12.5058   17.8076 H   0  0  0  0  0  0
  -27.6258  -14.2545   19.4566 H   0  0  0  0  0  0
  -28.7189  -12.2033   21.4432 H   0  0  0  0  0  0
  -28.4214  -13.8905   21.7837 H   0  0  0  0  0  0
  -25.2752   -9.5677   22.4773 H   0  0  0  0  0  0
  -23.9981   -7.4633   22.7484 H   0  0  0  0  0  0
  -21.0838   -8.8769   19.8956 H   0  0  0  0  0  0
  -22.3688  -10.9669   19.6174 H   0  0  0  0  0  0
  -21.2007   -7.6138   23.9703 H   0  0  0  0  0  0
  -21.1488   -6.0520   25.9073 H   0  0  0  0  0  0
  -22.0598   -2.7598   23.2855 H   0  0  0  0  0  0
  -22.4051  -11.9856   22.4802 H   0  0  0  0  0  0
  -21.1075  -13.1250   22.2658 H   0  0  0  0  0  0
  -24.6500  -15.8499   20.5122 H   0  0  0  0  0  0
  -26.2591  -15.6280   20.0565 H   0  0  0  0  0  0
  -26.7166  -32.5400   23.1031 H   0  0  0  0  0  0
  -25.0031  -33.9680   25.0360 H   0  0  0  0  0  0
  -22.7220  -31.2886   21.3843 H   0  0  0  0  0  0
  -23.3753  -35.9624   23.3310 H   0  0  0  0  0  0
  -24.3567  -36.8924   22.2052 H   0  0  0  0  0  0
  -23.7253  -37.6486   23.6672 H   0  0  0  0  0  0
  -26.1002  -31.5220   20.5913 H   0  0  0  0  0  0
  -26.8481  -30.8240   21.9974 H   0  0  0  0  0  0
  -28.1049  -28.9248   21.2307 H   0  0  0  0  0  0
  -25.9956  -25.8732   19.0243 H   0  0  0  0  0  0
  -23.9928  -27.2758   18.9933 H   0  0  0  0  0  0
  -23.7637  -30.5648   19.3917 H   0  0  0  0  0  0
  -22.7642  -29.2207   19.8535 H   0  0  0  0  0  0
  -25.1293  -36.1917   25.0824 H   0  0  0  0  0  0
  -20.9954  -28.3275   24.1397 H   0  0  0  0  0  0
  -20.5673  -26.2301   23.3615 H   0  0  0  0  0  0
  -21.6640  -26.7442   22.1206 H   0  0  0  0  0  0
  -19.6945  -25.6288   21.1239 H   0  0  0  0  0  0
  -19.6712  -27.3185   20.6731 H   0  0  0  0  0  0
  -17.4211  -26.6667   21.3999 H   0  0  0  0  0  0
  -18.0318  -26.0077   22.9013 H   0  0  0  0  0  0
  -19.7965  -30.7251   24.2221 H   0  0  0  0  0  0
  -17.5052  -31.6252   24.5165 H   0  0  0  0  0  0
  -15.5369  -30.2972   23.7672 H   0  0  0  0  0  0
  -15.8684  -28.0822   22.7051 H   0  0  0  0  0  0
  -24.5913  -30.7039   25.7765 H   0  0  0  0  0  0
  -24.8882  -32.2861   26.4855 H   0  0  0  0  0  0
  -25.8054  -30.8905   27.0219 H   0  0  0  0  0  0
  -26.2909  -29.6741   24.1207 H   0  0  0  0  0  0
  -27.4106  -29.7283   25.4621 H   0  0  0  0  0  0
  -27.8745  -30.4315   23.9321 H   0  0  0  0  0  0
  -27.2679  -33.3661   26.1983 H   0  0  0  0  0  0
  -28.3872  -32.6847   25.0286 H   0  0  0  0  0  0
  -28.0701  -31.8493   26.5414 H   0  0  0  0  0  0
  -28.2590  -38.0098   24.7521 H   0  0  0  0  0  0
  -28.1091  -36.2618   24.6281 H   0  0  0  0  0  0
  -27.2295  -37.1436   25.8869 H   0  0  0  0  0  0
  -20.9424  -29.8762   21.6871 H   0  0  0  0  0  0
  -26.0180  -38.2848   24.1420 H   0  0  0  0  0  0
  -31.5640  -21.1155   20.3150 H   0  0  0  0  0  0
  -32.4478  -16.9752   20.5925 H   0  0  0  0  0  0
  -28.3138  -18.2677   20.5399 H   0  0  0  0  0  0
  -26.5341  -24.3050   21.1944 H   0  0  0  0  0  0
  -27.3677  -20.0928   21.5147 H   0  0  0  0  0  0
  -28.4689  -21.0354   22.4880 H   0  0  0  0  0  0
  -30.2025  -22.7245   20.4938 H   0  0  0  0  0  0
  -28.7493  -22.2680   17.8505 H   0  0  0  0  0  0
  -30.3132  -21.5632   18.2266 H   0  0  0  0  0  0
  -30.1514  -23.2957   18.1257 H   0  0  0  0  0  0
  -35.1461  -20.3125   21.5666 H   0  0  0  0  0  0
  -33.8880  -19.5359   22.5242 H   0  0  0  0  0  0
  -33.5762  -21.0835   21.7364 H   0  0  0  0  0  0
  -33.7809  -19.9835   19.4823 H   0  0  0  0  0  0
  -34.1628  -18.4655   20.2425 H   0  0  0  0  0  0
  -28.0678  -25.1107   18.5882 H   0  0  0  0  0  0
  -29.6207  -25.1385   19.3346 H   0  0  0  0  0  0
  -28.9239  -15.7529   20.7914 H   0  0  0  0  0  0
  1 25  1  0  0  0
  1 30  2  0  0  0
  1 87  1  0  0  0
  2  3  1  0  0  0
  2 25  1  0  0  0
  2 89  1  0  0  0
  2 90  1  0  0  0
  3  4  1  0  0  0
  3 91  1  0  0  0
  3 92  1  0  0  0
  4  5  1  0  0  0
  4 93  1  0  0  0
  4 94  1  0  0  0
  5  6  1  0  0  0
  5 26  1  0  0  0
  5 95  1  0  0  0
  6 25  1  0  0  0
  6 96  1  0  0  0
  6 97  1  0  0  0
  7  8  2  0  0  0
  7 26  1  0  0  0
  7 29  1  0  0  0
  8  9  1  0  0  0
  8 22  1  0  0  0
  9 10  1  0  0  0
  9 27  2  0  0  0
 10 11  2  0  0  0
 10 15  1  0  0  0
 11 12  1  0  0  0
 11 98  1  0  0  0
 12 13  2  0  0  0
 12 99  1  0  0  0
 13 14  1  0  0  0
 13 31  1  0  0  0
 14 15  2  0  0  0
 14100  1  0  0  0
 15101  1  0  0  0
 16 17  2  0  0  0
 16 21  1  0  0  0
 16 31  1  0  0  0
 17 18  1  0  0  0
 17102  1  0  0  0
 18 19  2  0  0  0
 18103  1  0  0  0
 19 20  1  0  0  0
 19 24  1  0  0  0
 20 21  2  0  0  0
 20104  1  0  0  0
 21 23  1  0  0  0
 22 28  1  0  0  0
 22 32  2  0  0  0
 26 27  1  0  0  0
 28105  1  0  0  0
 28106  1  0  0  0
 29107  1  0  0  0
 29108  1  0  0  0
 33 34  1  0  0  0
 33 66  1  0  0  0
 33 70  2  0  0  0
 34 36  1  0  0  0
 34 59  1  0  0  0
 34109  1  0  0  0
 35 44  2  0  0  0
 35 45  1  0  0  0
 35 68  1  0  0  0
 36 56  1  0  0  0
 36110  1  0  0  0
 37 39  1  0  0  0
 37 47  1  0  0  0
 37 66  1  0  0  0
 37111  1  0  0  0
 38 43  2  0  0  0
 38 46  1  0  0  0
 38 47  1  0  0  0
 39 64  1  0  0  0
 39 67  2  0  0  0
 40 52  1  0  0  0
 40 53  2  0  0  0
 40 58  1  0  0  0
 41112  1  0  0  0
 41113  1  0  0  0
 41114  1  0  0  0
 41 48  1  0  0  0
 42 43  1  0  0  0
 42 66  1  0  0  0
 42115  1  0  0  0
 42116  1  0  0  0
 43 44  1  0  0  0
 44117  1  0  0  0
 45 46  2  0  0  0
 45118  1  0  0  0
 46119  1  0  0  0
 47120  1  0  0  0
 47121  1  0  0  0
 48 56  1  0  0  0
 48 65  1  0  0  0
 48122  1  0  0  0
 49 50  1  0  0  0
 49 53  1  0  0  0
 49 64  1  0  0  0
 49123  1  0  0  0
 50 51  1  0  0  0
 50124  1  0  0  0
 50125  1  0  0  0
 51 52  1  0  0  0
 51126  1  0  0  0
 51127  1  0  0  0
 52128  1  0  0  0
 52129  1  0  0  0
 53 54  1  0  0  0
 54 55  2  0  0  0
 54130  1  0  0  0
 55 57  1  0  0  0
 55131  1  0  0  0
 56 69  2  0  0  0
 57 58  2  0  0  0
 57132  1  0  0  0
 58133  1  0  0  0
 59 60  1  0  0  0
 59 61  1  0  0  0
 59 62  1  0  0  0
 60134  1  0  0  0
 60135  1  0  0  0
 60136  1  0  0  0
 61137  1  0  0  0
 61138  1  0  0  0
 61139  1  0  0  0
 62140  1  0  0  0
 62141  1  0  0  0
 62142  1  0  0  0
 63 65  1  0  0  0
 63143  1  0  0  0
 63144  1  0  0  0
 63145  1  0  0  0
 64146  1  0  0  0
 65147  1  0  0  0
 68 85  1  0  0  0
 71 74  2  0  0  0
 71 75  1  0  0  0
 71148  1  0  0  0
 72 74  1  0  0  0
 72 76  2  0  0  0
 72149  1  0  0  0
 73 75  2  0  0  0
 73 76  1  0  0  0
 73150  1  0  0  0
 74 84  1  0  0  0
 75 86  1  0  0  0
 76 87  1  0  0  0
 77 78  2  0  0  0
 77 79  1  0  0  0
 77151  1  0  0  0
 78 81  1  0  0  0
 78 85  1  0  0  0
 79 80  1  0  0  0
 79 88  2  0  0  0
 80 86  1  0  0  0
 80152  1  0  0  0
 80153  1  0  0  0
 81 82  1  0  0  0
 81 86  1  0  0  0
 81154  1  0  0  0
 82155  1  0  0  0
 82156  1  0  0  0
 82157  1  0  0  0
 83 84  1  0  0  0
 83158  1  0  0  0
 83159  1  0  0  0
 83160  1  0  0  0
 84161  1  0  0  0
 84162  1  0  0  0
 85163  1  0  0  0
 85164  1  0  0  0
 87165  1  0  0  0
M  ISO  4   1 100  68 101  85 101  87 100
M  END
> <chiral flag>
0

> <version>
0

> <s_m_source_file>
/data/baiqing/PycharmProjects/Reinvent-master-3.2/result/LINK_invent/BTK/process_docking_weight1_custom_product_contain_oxygen_bond_distance_aromatic_linkinvent_7_9_3/rearranged_h_0145.sdf

> <i_m_source_file_index>
78

> <r_mmod_Potential_Energy-OPLS-2005>
202.750030517578

> <r_mmod_Stretch_Energy-OPLS-2005>
134.571426391602

> <r_mmod_Bend_Energy-OPLS-2005>
188.598510742188

> <r_mmod_Torsional_Energy-OPLS-2005>
212.06852722168

> <r_mmod_Improper_Torsional_Energy-OPLS-2005>
7.67891407012939

> <r_mmod_Van_der_Waal_Energy-OPLS-2005>
149.837707519531

> <r_mmod_Electrostatic_Energy-OPLS-2005>
-350.191711425781

> <r_mmod_Solvation_Energy-OPLS-2005>
-225.399154663086

> <b_mmod_Minimization_Converged-OPLS-2005>
0

> <r_mmod_RMS_Derivative-OPLS-2005>
2.39441967010498

$$$$
78
                    3D
 Structure written by MMmdl.
163171  0  0  1  0            999 V2000
  -30.7356  -14.4369   20.5948 C   0  0  0  0  0  0
  -30.4121  -12.2940   19.4233 C   0  0  0  0  0  0
  -29.4891  -12.5072   18.2070 C   0  0  0  0  0  0
  -28.0112  -12.3706   18.6189 C   0  0  0  0  0  0
  -27.6615  -13.2100   19.8773 C   0  0  2  0  0  0
  -28.7019  -12.9933   21.0004 C   0  0  0  0  0  0
  -25.2586  -13.8175   20.5693 C   0  0  0  0  0  0
  -24.1841  -13.0445   20.9175 C   0  0  0  0  0  0
  -24.6403  -11.6913   20.8746 C   0  0  0  0  0  0
  -23.9076  -10.4295   21.0414 C   0  0  0  0  0  0
  -24.3626   -9.4206   21.9192 C   0  0  0  0  0  0
  -23.6299   -8.2242   22.0763 C   0  0  0  0  0  0
  -22.4280   -8.0285   21.3553 C   0  0  0  0  0  0
  -21.9919   -9.0260   20.4651 C   0  0  0  0  0  0
  -22.7251  -10.2138   20.3062 C   0  0  0  0  0  0
  -21.6849   -6.0749   22.5286 C   0  0  0  0  0  0
  -21.4011   -6.5649   23.8222 C   0  0  0  0  0  0
  -21.3660   -5.6800   24.9183 C   0  0  0  0  0  0
  -21.6041   -4.3065   24.7229 C   0  0  0  0  0  0
  -21.8817   -3.8161   23.4349 C   0  0  0  0  0  0
  -21.9190   -4.6978   22.3407 C   0  0  0  0  0  0
  -22.7864  -13.5240   21.1839 C   0  0  0  0  0  0
  -22.1659   -4.2167   21.0984 F   0  0  0  0  0  0
  -21.5626   -3.4545   25.7742 F   0  0  0  0  0  0
  -30.0361  -13.2808   20.4482 N   0  0  0  0  0  0
  -26.3027  -12.9352   20.3388 N   0  0  0  0  0  0
  -25.9330  -11.6506   20.5781 N   0  0  0  0  0  0
  -22.0505  -12.8230   22.0390 N   0  0  0  0  0  0
  -25.4302  -15.1895   20.4110 N   0  0  0  0  0  0
  -31.8411  -14.6189   20.0784 O   0  0  0  0  0  0
  -21.6636   -6.8892   21.4250 O   0  0  0  0  0  0
  -22.3554  -14.5555   20.6701 O   0  0  0  0  0  0
  -24.6157  -31.8684   23.2110 C   0  0  0  0  0  0
  -25.9054  -32.4818   23.8404 C   0  0  1  0  0  0
  -27.2300  -27.4247   20.0850 C   0  0  0  0  0  0
  -25.5916  -33.8619   24.2334 N   0  0  0  0  0  0
  -23.4009  -30.4945   21.5524 C   0  0  2  0  0  0
  -24.8430  -28.9617   20.1128 C   0  0  0  0  0  0
  -22.7397  -29.4681   22.5001 C   0  0  0  0  0  0
  -18.0267  -28.1384   22.8501 C   0  0  0  0  0  0
  -24.1484  -36.7308   23.2637 C   0  0  0  0  0  0
  -25.9315  -30.8303   21.3647 C   0  0  0  0  0  0
  -26.0036  -29.4640   20.7117 C   0  0  0  0  0  0
  -27.1940  -28.7010   20.6989 C   0  0  0  0  0  0
  -26.0447  -26.9458   19.4799 C   0  0  0  0  0  0
  -24.8588  -27.7007   19.4964 C   0  0  0  0  0  0
  -23.6058  -29.8284   20.1659 C   0  0  0  0  0  0
  -25.4107  -36.3114   24.0341 C   0  0  1  0  0  0
  -20.5854  -28.3674   23.1314 C   0  0  2  0  0  0
  -20.6757  -26.9410   22.5417 C   0  0  0  0  0  0
  -19.5735  -26.6392   21.5213 C   0  0  0  0  0  0
  -18.1912  -26.7933   22.1623 C   0  0  0  0  0  0
  -19.1517  -28.8845   23.2910 C   0  0  0  0  0  0
  -18.9446  -30.1445   23.8933 C   0  0  0  0  0  0
  -17.6450  -30.6590   24.0573 C   0  0  0  0  0  0
  -25.9041  -34.9476   23.5133 C   0  0  0  0  0  0
  -16.5342  -29.9091   23.6331 C   0  0  0  0  0  0
  -16.7258  -28.6504   23.0363 C   0  0  0  0  0  0
  -26.4475  -31.6597   25.0730 C   0  0  0  0  0  0
  -25.3743  -31.3697   26.1478 C   0  0  0  0  0  0
  -27.0303  -30.3044   24.6102 C   0  0  0  0  0  0
  -27.6067  -32.4305   25.7479 C   0  0  0  0  0  0
  -27.5579  -37.1807   24.8467 C   0  0  0  0  0  0
  -21.4128  -29.3049   22.3731 N   0  0  0  0  0  0
  -26.4290  -37.3800   23.9418 N   0  0  0  0  0  0
  -24.6678  -31.0784   22.1011 N   0  0  0  0  0  0
  -23.4164  -28.8219   23.3045 O   0  0  0  0  0  0
  -28.4212  -26.7161   20.1261 O   0  0  0  0  0  0
  -26.5596  -34.8923   22.4690 O   0  0  0  0  0  0
  -23.5353  -32.1440   23.7511 O   0  0  0  0  0  0
  -29.6219  -19.1386   21.5220 C   0  0  0  0  0  0
  -29.8216  -17.8135   22.0395 C   0  0  0  0  0  0
  -29.2156  -17.6455   23.2641 C   0  0  0  0  0  0
  -28.8925  -19.9749   22.3392 C   0  0  0  0  0  0
  -28.8889  -22.1899   21.2751 C   0  0  0  0  0  0
  -30.5566  -16.3138   24.9462 C   0  0  0  0  0  0
  -28.5402  -25.4414   18.0107 C   0  0  0  0  0  0
  -30.6752  -16.7896   21.3269 C   0  0  0  0  0  0
  -29.2365  -16.4593   24.1812 C   0  0  0  0  0  0
  -28.3500  -23.6201   21.4738 C   0  0  0  0  0  0
  -27.7414  -24.2652   20.2002 C   0  0  0  0  0  0
  -28.5852  -25.4028   19.5509 C   0  0  2  0  0  0
  -28.5360  -21.2842   22.2081 N   0  0  0  0  0  0
  -30.1146  -15.4372   21.2397 N   0  0  0  0  0  0
  -29.6036  -21.9337   20.3032 O   0  0  0  0  0  0
  -28.4072  -19.1067   23.7711 S   0  0  0  0  0  0
  -31.4591  -12.3734   19.1256 H   0  0  0  0  0  0
  -30.2954  -11.2844   19.8200 H   0  0  0  0  0  0
  -29.7267  -11.7882   17.4218 H   0  0  0  0  0  0
  -29.6613  -13.4967   17.7798 H   0  0  0  0  0  0
  -27.8182  -11.3146   18.8121 H   0  0  0  0  0  0
  -27.3615  -12.6496   17.7885 H   0  0  0  0  0  0
  -27.7061  -14.2580   19.5809 H   0  0  0  0  0  0
  -28.6699  -11.9613   21.3518 H   0  0  0  0  0  0
  -28.4658  -13.6043   21.8721 H   0  0  0  0  0  0
  -25.2771   -9.5680   22.4765 H   0  0  0  0  0  0
  -24.0011   -7.4634   22.7480 H   0  0  0  0  0  0
  -21.0852   -8.8779   19.8956 H   0  0  0  0  0  0
  -22.3715  -10.9679   19.6170 H   0  0  0  0  0  0
  -21.2001   -7.6155   23.9735 H   0  0  0  0  0  0
  -21.1482   -6.0528   25.9088 H   0  0  0  0  0  0
  -22.0595   -2.7625   23.2844 H   0  0  0  0  0  0
  -22.4118  -11.9881   22.4758 H   0  0  0  0  0  0
  -21.1126  -13.1258   22.2602 H   0  0  0  0  0  0
  -24.6654  -15.8458   20.5250 H   0  0  0  0  0  0
  -26.2883  -15.6318   20.1061 H   0  0  0  0  0  0
  -26.7125  -32.5517   23.1170 H   0  0  0  0  0  0
  -25.0104  -33.9787   25.0505 H   0  0  0  0  0  0
  -22.6916  -31.3136   21.4156 H   0  0  0  0  0  0
  -23.3751  -35.9633   23.3308 H   0  0  0  0  0  0
  -24.3577  -36.8917   22.2049 H   0  0  0  0  0  0
  -23.7227  -37.6511   23.6645 H   0  0  0  0  0  0
  -26.0456  -31.5937   20.5934 H   0  0  0  0  0  0
  -26.8200  -30.8844   21.9819 H   0  0  0  0  0  0
  -28.0888  -29.0862   21.1673 H   0  0  0  0  0  0
  -25.9958  -25.9865   18.9931 H   0  0  0  0  0  0
  -23.9669  -27.3040   19.0320 H   0  0  0  0  0  0
  -23.7105  -30.6037   19.4063 H   0  0  0  0  0  0
  -22.7289  -29.2481   19.8720 H   0  0  0  0  0  0
  -25.1286  -36.1985   25.0834 H   0  0  0  0  0  0
  -20.9960  -28.3242   24.1427 H   0  0  0  0  0  0
  -20.5659  -26.2293   23.3613 H   0  0  0  0  0  0
  -21.6627  -26.7452   22.1211 H   0  0  0  0  0  0
  -19.6899  -25.6308   21.1228 H   0  0  0  0  0  0
  -19.6663  -27.3214   20.6751 H   0  0  0  0  0  0
  -17.4185  -26.6706   21.4017 H   0  0  0  0  0  0
  -18.0303  -26.0059   22.9000 H   0  0  0  0  0  0
  -19.7920  -30.7253   24.2322 H   0  0  0  0  0  0
  -17.5001  -31.6274   24.5166 H   0  0  0  0  0  0
  -15.5343  -30.3010   23.7628 H   0  0  0  0  0  0
  -15.8655  -28.0822   22.7082 H   0  0  0  0  0  0
  -24.5930  -30.7030   25.7811 H   0  0  0  0  0  0
  -24.8911  -32.2841   26.4928 H   0  0  0  0  0  0
  -25.8094  -30.8866   27.0234 H   0  0  0  0  0  0
  -26.2836  -29.6805   24.1174 H   0  0  0  0  0  0
  -27.4100  -29.7290   25.4556 H   0  0  0  0  0  0
  -27.8663  -30.4376   23.9232 H   0  0  0  0  0  0
  -27.2720  -33.3621   26.2056 H   0  0  0  0  0  0
  -28.3865  -32.6834   25.0280 H   0  0  0  0  0  0
  -28.0745  -31.8419   26.5385 H   0  0  0  0  0  0
  -28.2606  -38.0094   24.7518 H   0  0  0  0  0  0
  -28.1065  -36.2631   24.6287 H   0  0  0  0  0  0
  -27.2306  -37.1460   25.8871 H   0  0  0  0  0  0
  -20.9292  -29.8772   21.6951 H   0  0  0  0  0  0
  -26.0183  -38.2881   24.1411 H   0  0  0  0  0  0
  -30.0472  -19.4319   20.5727 H   0  0  0  0  0  0
  -30.5232  -15.4547   25.6174 H   0  0  0  0  0  0
  -30.7617  -17.1985   25.5491 H   0  0  0  0  0  0
  -31.3972  -16.1680   24.2677 H   0  0  0  0  0  0
  -28.8448  -24.4827   17.5898 H   0  0  0  0  0  0
  -29.2329  -26.1911   17.6284 H   0  0  0  0  0  0
  -27.5596  -25.6690   17.6016 H   0  0  0  0  0  0
  -31.6448  -16.7264   21.8237 H   0  0  0  0  0  0
  -30.8913  -17.1341   20.3137 H   0  0  0  0  0  0
  -29.0241  -15.5444   23.6308 H   0  0  0  0  0  0
  -28.4266  -16.5481   24.9072 H   0  0  0  0  0  0
  -29.1524  -24.2407   21.8732 H   0  0  0  0  0  0
  -27.5857  -23.6023   22.2525 H   0  0  0  0  0  0
  -26.7423  -24.6098   20.4529 H   0  0  0  0  0  0
  -27.5762  -23.4861   19.4543 H   0  0  0  0  0  0
  -29.6248  -25.1541   19.7675 H   0  0  0  0  0  0
  -27.9478  -21.6447   22.9478 H   0  0  0  0  0  0
  -29.1941  -15.2732   21.6156 H   0  0  0  0  0  0
  1 25  1  0  0  0
  1 30  2  0  0  0
  1 84  1  0  0  0
  2  3  1  0  0  0
  2 25  1  0  0  0
  2 87  1  0  0  0
  2 88  1  0  0  0
  3  4  1  0  0  0
  3 89  1  0  0  0
  3 90  1  0  0  0
  4  5  1  0  0  0
  4 91  1  0  0  0
  4 92  1  0  0  0
  5  6  1  0  0  0
  5 26  1  0  0  0
  5 93  1  0  0  0
  6 25  1  0  0  0
  6 94  1  0  0  0
  6 95  1  0  0  0
  7  8  2  0  0  0
  7 26  1  0  0  0
  7 29  1  0  0  0
  8  9  1  0  0  0
  8 22  1  0  0  0
  9 10  1  0  0  0
  9 27  2  0  0  0
 10 11  2  0  0  0
 10 15  1  0  0  0
 11 12  1  0  0  0
 11 96  1  0  0  0
 12 13  2  0  0  0
 12 97  1  0  0  0
 13 14  1  0  0  0
 13 31  1  0  0  0
 14 15  2  0  0  0
 14 98  1  0  0  0
 15 99  1  0  0  0
 16 17  2  0  0  0
 16 21  1  0  0  0
 16 31  1  0  0  0
 17 18  1  0  0  0
 17100  1  0  0  0
 18 19  2  0  0  0
 18101  1  0  0  0
 19 20  1  0  0  0
 19 24  1  0  0  0
 20 21  2  0  0  0
 20102  1  0  0  0
 21 23  1  0  0  0
 22 28  1  0  0  0
 22 32  2  0  0  0
 26 27  1  0  0  0
 28103  1  0  0  0
 28104  1  0  0  0
 29105  1  0  0  0
 29106  1  0  0  0
 33 34  1  0  0  0
 33 66  1  0  0  0
 33 70  2  0  0  0
 34 36  1  0  0  0
 34 59  1  0  0  0
 34107  1  0  0  0
 35 44  2  0  0  0
 35 45  1  0  0  0
 35 68  1  0  0  0
 36 56  1  0  0  0
 36108  1  0  0  0
 37 39  1  0  0  0
 37 47  1  0  0  0
 37 66  1  0  0  0
 37109  1  0  0  0
 38 43  2  0  0  0
 38 46  1  0  0  0
 38 47  1  0  0  0
 39 64  1  0  0  0
 39 67  2  0  0  0
 40 52  1  0  0  0
 40 53  2  0  0  0
 40 58  1  0  0  0
 41110  1  0  0  0
 41111  1  0  0  0
 41112  1  0  0  0
 41 48  1  0  0  0
 42 43  1  0  0  0
 42 66  1  0  0  0
 42113  1  0  0  0
 42114  1  0  0  0
 43 44  1  0  0  0
 44115  1  0  0  0
 45 46  2  0  0  0
 45116  1  0  0  0
 46117  1  0  0  0
 47118  1  0  0  0
 47119  1  0  0  0
 48 56  1  0  0  0
 48 65  1  0  0  0
 48120  1  0  0  0
 49 50  1  0  0  0
 49 53  1  0  0  0
 49 64  1  0  0  0
 49121  1  0  0  0
 50 51  1  0  0  0
 50122  1  0  0  0
 50123  1  0  0  0
 51 52  1  0  0  0
 51124  1  0  0  0
 51125  1  0  0  0
 52126  1  0  0  0
 52127  1  0  0  0
 53 54  1  0  0  0
 54 55  2  0  0  0
 54128  1  0  0  0
 55 57  1  0  0  0
 55129  1  0  0  0
 56 69  2  0  0  0
 57 58  2  0  0  0
 57130  1  0  0  0
 58131  1  0  0  0
 59 60  1  0  0  0
 59 61  1  0  0  0
 59 62  1  0  0  0
 60132  1  0  0  0
 60133  1  0  0  0
 60134  1  0  0  0
 61135  1  0  0  0
 61136  1  0  0  0
 61137  1  0  0  0
 62138  1  0  0  0
 62139  1  0  0  0
 62140  1  0  0  0
 63 65  1  0  0  0
 63141  1  0  0  0
 63142  1  0  0  0
 63143  1  0  0  0
 64144  1  0  0  0
 65145  1  0  0  0
 68 82  1  0  0  0
 71 72  1  0  0  0
 71 74  2  0  0  0
 71146  1  0  0  0
 72 73  2  0  0  0
 72 78  1  0  0  0
 73 79  1  0  0  0
 73 86  1  0  0  0
 74 83  1  0  0  0
 74 86  1  0  0  0
 75 80  1  0  0  0
 75 83  1  0  0  0
 75 85  2  0  0  0
 76 79  1  0  0  0
 76147  1  0  0  0
 76148  1  0  0  0
 76149  1  0  0  0
 77150  1  0  0  0
 77151  1  0  0  0
 77152  1  0  0  0
 77 82  1  0  0  0
 78 84  1  0  0  0
 78153  1  0  0  0
 78154  1  0  0  0
 79155  1  0  0  0
 79156  1  0  0  0
 80 81  1  0  0  0
 80157  1  0  0  0
 80158  1  0  0  0
 81 82  1  0  0  0
 81159  1  0  0  0
 81160  1  0  0  0
 82161  1  0  0  0
 83162  1  0  0  0
 84163  1  0  0  0
M  ISO  4   1 100  68 101  82 101  84 100
M  END
> <chiral flag>
0

> <version>
0

> <s_m_source_file>
/data/baiqing/PycharmProjects/Reinvent-master-3.2/result/LINK_invent/BTK/process_docking_weight1_custom_product_contain_oxygen_bond_distance_aromatic_linkinvent_7_9_3/rearranged_h_0145.sdf

> <i_m_source_file_index>
79

> <r_mmod_Potential_Energy-OPLS-2005>
-222.931686401367

> <r_mmod_Stretch_Energy-OPLS-2005>
36.2471923828125

> <r_mmod_Bend_Energy-OPLS-2005>
129.422546386719

> <r_mmod_Torsional_Energy-OPLS-2005>
188.961639404297

> <r_mmod_Improper_Torsional_Energy-OPLS-2005>
2.9183349609375

> <r_mmod_Van_der_Waal_Energy-OPLS-2005>
133.931686401367

> <r_mmod_Electrostatic_Energy-OPLS-2005>
-510.556213378906

> <r_mmod_Solvation_Energy-OPLS-2005>
-215.872406005859

> <b_mmod_Minimization_Converged-OPLS-2005>
0

> <r_mmod_RMS_Derivative-OPLS-2005>
1.07921040058136

$$$$
79
                    3D
 Structure written by MMmdl.
161170  0  0  1  0            999 V2000
  -30.5747  -14.7663   20.5418 C   0  0  0  0  0  0
  -30.4520  -12.4858   19.4704 C   0  0  0  0  0  0
  -29.5199  -12.5414   18.2369 C   0  0  0  0  0  0
  -28.0450  -12.3478   18.6437 C   0  0  0  0  0  0
  -27.6523  -13.2226   19.8628 C   0  0  2  0  0  0
  -28.6933  -13.0891   20.9926 C   0  0  0  0  0  0
  -25.2556  -13.8173   20.5678 C   0  0  0  0  0  0
  -24.1827  -13.0430   20.9167 C   0  0  0  0  0  0
  -24.6412  -11.6903   20.8727 C   0  0  0  0  0  0
  -23.9088  -10.4286   21.0406 C   0  0  0  0  0  0
  -24.3633   -9.4199   21.9185 C   0  0  0  0  0  0
  -23.6294   -8.2244   22.0758 C   0  0  0  0  0  0
  -22.4275   -8.0291   21.3549 C   0  0  0  0  0  0
  -21.9919   -9.0268   20.4650 C   0  0  0  0  0  0
  -22.7261  -10.2137   20.3054 C   0  0  0  0  0  0
  -21.6853   -6.0744   22.5281 C   0  0  0  0  0  0
  -21.4020   -6.5645   23.8218 C   0  0  0  0  0  0
  -21.3653   -5.6794   24.9177 C   0  0  0  0  0  0
  -21.6039   -4.3058   24.7221 C   0  0  0  0  0  0
  -21.8823   -3.8154   23.4342 C   0  0  0  0  0  0
  -21.9191   -4.6972   22.3402 C   0  0  0  0  0  0
  -22.7848  -13.5225   21.1831 C   0  0  0  0  0  0
  -22.1656   -4.2163   21.0976 F   0  0  0  0  0  0
  -21.5622   -3.4537   25.7730 F   0  0  0  0  0  0
  -29.9964  -13.5091   20.4452 N   0  0  0  0  0  0
  -26.2987  -12.9360   20.3300 N   0  0  0  0  0  0
  -25.9343  -11.6508   20.5739 N   0  0  0  0  0  0
  -22.0493  -12.8222   22.0391 N   0  0  0  0  0  0
  -25.4276  -15.1894   20.4128 N   0  0  0  0  0  0
  -31.6842  -14.9507   20.0311 O   0  0  0  0  0  0
  -21.6637   -6.8888   21.4243 O   0  0  0  0  0  0
  -22.3532  -14.5531   20.6679 O   0  0  0  0  0  0
  -24.6322  -31.8541   23.1966 C   0  0  0  0  0  0
  -25.9137  -32.4753   23.8325 C   0  0  1  0  0  0
  -27.2245  -27.2483   20.1442 C   0  0  0  0  0  0
  -25.5928  -33.8556   24.2251 N   0  0  0  0  0  0
  -23.4314  -30.4750   21.5387 C   0  0  2  0  0  0
  -24.8818  -28.9136   20.1145 C   0  0  0  0  0  0
  -22.7505  -29.4601   22.4892 C   0  0  0  0  0  0
  -18.0296  -28.1394   22.8492 C   0  0  0  0  0  0
  -24.1482  -36.7282   23.2646 C   0  0  0  0  0  0
  -25.9777  -30.7612   21.3805 C   0  0  0  0  0  0
  -26.0521  -29.3801   20.7287 C   0  0  0  0  0  0
  -27.2279  -28.5601   20.7313 C   0  0  0  0  0  0
  -26.0398  -26.8575   19.4875 C   0  0  0  0  0  0
  -24.8803  -27.6594   19.4834 C   0  0  0  0  0  0
  -23.6545  -29.8046   20.1568 C   0  0  0  0  0  0
  -25.4110  -36.3072   24.0332 C   0  0  1  0  0  0
  -20.5902  -28.3712   23.1260 C   0  0  2  0  0  0
  -20.6776  -26.9425   22.5405 C   0  0  0  0  0  0
  -19.5747  -26.6388   21.5212 C   0  0  0  0  0  0
  -18.1930  -26.7938   22.1627 C   0  0  0  0  0  0
  -19.1552  -28.8867   23.2874 C   0  0  0  0  0  0
  -18.9478  -30.1465   23.8894 C   0  0  0  0  0  0
  -17.6478  -30.6597   24.0570 C   0  0  0  0  0  0
  -25.9051  -34.9443   23.5093 C   0  0  0  0  0  0
  -16.5369  -29.9097   23.6332 C   0  0  0  0  0  0
  -16.7284  -28.6512   23.0361 C   0  0  0  0  0  0
  -26.4504  -31.6587   25.0720 C   0  0  0  0  0  0
  -25.3734  -31.3741   26.1444 C   0  0  0  0  0  0
  -27.0359  -30.3004   24.6220 C   0  0  0  0  0  0
  -27.6045  -32.4338   25.7503 C   0  0  0  0  0  0
  -27.5567  -37.1800   24.8469 C   0  0  0  0  0  0
  -21.4209  -29.3064   22.3646 N   0  0  0  0  0  0
  -26.4280  -37.3774   23.9411 N   0  0  0  0  0  0
  -24.6992  -31.0488   22.0951 N   0  0  0  0  0  0
  -23.4188  -28.8148   23.3010 O   0  0  0  0  0  0
  -28.3215  -26.3503   20.1322 O   0  0  0  0  0  0
  -26.5627  -34.8919   22.4666 O   0  0  0  0  0  0
  -23.5465  -32.1375   23.7241 O   0  0  0  0  0  0
  -29.1906  -19.7997   21.2367 C   0  0  0  0  0  0
  -29.5945  -18.5435   20.5728 C   0  0  0  0  0  0
  -29.9423  -18.8059   19.2647 C   0  0  0  0  0  0
  -29.2005  -20.9858   20.4832 C   0  0  0  0  0  0
  -29.5365  -17.1831   21.3260 C   0  0  0  0  0  0
  -29.8381  -15.8121   21.3462 C   0  0  0  0  0  0
  -31.4005  -18.1901   17.1621 C   0  0  0  0  0  0
  -29.9522  -17.9933   16.7666 C   0  0  0  0  0  0
  -30.3721  -17.8328   18.2081 C   0  0  0  0  0  0
  -29.3911  -25.2662   21.9130 C   0  0  0  0  0  0
  -26.9749  -24.7462   21.5691 C   0  0  0  0  0  0
  -28.7402  -23.6257   20.0585 C   0  0  0  0  0  0
  -28.3164  -25.0068   20.8436 C   0  0  0  0  0  0
  -28.8345  -22.3442   20.8837 N   0  0  0  0  0  0
  -29.7665  -20.5448   18.8845 S   0  0  0  0  0  0
  -31.4880  -12.6422   19.1649 H   0  0  0  0  0  0
  -30.4282  -11.4935   19.9245 H   0  0  0  0  0  0
  -29.8123  -11.7844   17.5077 H   0  0  0  0  0  0
  -29.6356  -13.5056   17.7397 H   0  0  0  0  0  0
  -27.9037  -11.2934   18.8856 H   0  0  0  0  0  0
  -27.3882  -12.5571   17.7985 H   0  0  0  0  0  0
  -27.6669  -14.2585   19.5218 H   0  0  0  0  0  0
  -28.7450  -12.0559   21.3401 H   0  0  0  0  0  0
  -28.3810  -13.6606   21.8636 H   0  0  0  0  0  0
  -25.2780   -9.5669   22.4758 H   0  0  0  0  0  0
  -23.9997   -7.4637   22.7482 H   0  0  0  0  0  0
  -21.0851   -8.8805   19.8953 H   0  0  0  0  0  0
  -22.3738  -10.9681   19.6163 H   0  0  0  0  0  0
  -21.2027   -7.6155   23.9727 H   0  0  0  0  0  0
  -21.1463   -6.0521   25.9081 H   0  0  0  0  0  0
  -22.0607   -2.7615   23.2839 H   0  0  0  0  0  0
  -22.4107  -11.9878   22.4767 H   0  0  0  0  0  0
  -21.1126  -13.1268   22.2619 H   0  0  0  0  0  0
  -24.6689  -15.8505   20.5409 H   0  0  0  0  0  0
  -26.2932  -15.6292   20.1249 H   0  0  0  0  0  0
  -26.7207  -32.5406   23.1068 H   0  0  0  0  0  0
  -25.0072  -33.9689   25.0396 H   0  0  0  0  0  0
  -22.7300  -31.2982   21.3874 H   0  0  0  0  0  0
  -23.3742  -35.9616   23.3312 H   0  0  0  0  0  0
  -24.3573  -36.8897   22.2058 H   0  0  0  0  0  0
  -23.7233  -37.6485   23.6667 H   0  0  0  0  0  0
  -26.1171  -31.5164   20.6061 H   0  0  0  0  0  0
  -26.8548  -30.8146   22.0137 H   0  0  0  0  0  0
  -28.1267  -28.9143   21.2162 H   0  0  0  0  0  0
  -26.0057  -25.8990   18.9897 H   0  0  0  0  0  0
  -23.9875  -27.2985   18.9915 H   0  0  0  0  0  0
  -23.7872  -30.5792   19.4005 H   0  0  0  0  0  0
  -22.7727  -29.2413   19.8466 H   0  0  0  0  0  0
  -25.1291  -36.1918   25.0824 H   0  0  0  0  0  0
  -21.0003  -28.3292   24.1376 H   0  0  0  0  0  0
  -20.5659  -26.2327   23.3619 H   0  0  0  0  0  0
  -21.6645  -26.7430   22.1209 H   0  0  0  0  0  0
  -19.6900  -25.6291   21.1251 H   0  0  0  0  0  0
  -19.6678  -27.3190   20.6737 H   0  0  0  0  0  0
  -17.4198  -26.6704   21.4030 H   0  0  0  0  0  0
  -18.0324  -26.0075   22.9016 H   0  0  0  0  0  0
  -19.7957  -30.7284   24.2253 H   0  0  0  0  0  0
  -17.5041  -31.6274   24.5179 H   0  0  0  0  0  0
  -15.5371  -30.3009   23.7651 H   0  0  0  0  0  0
  -15.8685  -28.0831   22.7080 H   0  0  0  0  0  0
  -24.5911  -30.7081   25.7784 H   0  0  0  0  0  0
  -24.8924  -32.2913   26.4854 H   0  0  0  0  0  0
  -25.8063  -30.8941   27.0229 H   0  0  0  0  0  0
  -26.2952  -29.6742   24.1235 H   0  0  0  0  0  0
  -27.4026  -29.7272   25.4744 H   0  0  0  0  0  0
  -27.8833  -30.4273   23.9478 H   0  0  0  0  0  0
  -27.2641  -33.3642   26.2059 H   0  0  0  0  0  0
  -28.3876  -32.6891   25.0353 H   0  0  0  0  0  0
  -28.0695  -31.8483   26.5443 H   0  0  0  0  0  0
  -28.2600  -38.0083   24.7496 H   0  0  0  0  0  0
  -28.1047  -36.2613   24.6319 H   0  0  0  0  0  0
  -27.2286  -37.1478   25.8874 H   0  0  0  0  0  0
  -20.9385  -29.8818   21.6882 H   0  0  0  0  0  0
  -26.0154  -38.2844   24.1415 H   0  0  0  0  0  0
  -28.8805  -19.7799   22.2720 H   0  0  0  0  0  0
  -28.9941  -17.3876   22.2387 H   0  0  0  0  0  0
  -29.4658  -15.3806   22.2616 H   0  0  0  0  0  0
  -31.7906  -19.2060   17.1485 H   0  0  0  0  0  0
  -32.1096  -17.4179   16.8708 H   0  0  0  0  0  0
  -29.6992  -17.0895   16.2154 H   0  0  0  0  0  0
  -29.3823  -18.8779   16.4893 H   0  0  0  0  0  0
  -30.3870  -16.8157   18.5865 H   0  0  0  0  0  0
  -29.5010  -24.4243   22.5961 H   0  0  0  0  0  0
  -29.1526  -26.1452   22.5134 H   0  0  0  0  0  0
  -30.3636  -25.4387   21.4513 H   0  0  0  0  0  0
  -27.0460  -23.8980   22.2496 H   0  0  0  0  0  0
  -26.1765  -24.5125   20.8661 H   0  0  0  0  0  0
  -26.6598  -25.5988   22.1712 H   0  0  0  0  0  0
  -29.7021  -23.7824   19.5683 H   0  0  0  0  0  0
  -28.0277  -23.4537   19.2506 H   0  0  0  0  0  0
  -28.5433  -22.4753   21.8484 H   0  0  0  0  0  0
  1 25  1  0  0  0
  1 30  2  0  0  0
  1 76  1  0  0  0
  2  3  1  0  0  0
  2 25  1  0  0  0
  2 86  1  0  0  0
  2 87  1  0  0  0
  3  4  1  0  0  0
  3 88  1  0  0  0
  3 89  1  0  0  0
  4  5  1  0  0  0
  4 90  1  0  0  0
  4 91  1  0  0  0
  5  6  1  0  0  0
  5 26  1  0  0  0
  5 92  1  0  0  0
  6 25  1  0  0  0
  6 93  1  0  0  0
  6 94  1  0  0  0
  7  8  2  0  0  0
  7 26  1  0  0  0
  7 29  1  0  0  0
  8  9  1  0  0  0
  8 22  1  0  0  0
  9 10  1  0  0  0
  9 27  2  0  0  0
 10 11  2  0  0  0
 10 15  1  0  0  0
 11 12  1  0  0  0
 11 95  1  0  0  0
 12 13  2  0  0  0
 12 96  1  0  0  0
 13 14  1  0  0  0
 13 31  1  0  0  0
 14 15  2  0  0  0
 14 97  1  0  0  0
 15 98  1  0  0  0
 16 17  2  0  0  0
 16 21  1  0  0  0
 16 31  1  0  0  0
 17 18  1  0  0  0
 17 99  1  0  0  0
 18 19  2  0  0  0
 18100  1  0  0  0
 19 20  1  0  0  0
 19 24  1  0  0  0
 20 21  2  0  0  0
 20101  1  0  0  0
 21 23  1  0  0  0
 22 28  1  0  0  0
 22 32  2  0  0  0
 26 27  1  0  0  0
 28102  1  0  0  0
 28103  1  0  0  0
 29104  1  0  0  0
 29105  1  0  0  0
 33 34  1  0  0  0
 33 66  1  0  0  0
 33 70  2  0  0  0
 34 36  1  0  0  0
 34 59  1  0  0  0
 34106  1  0  0  0
 35 44  2  0  0  0
 35 45  1  0  0  0
 35 68  1  0  0  0
 36 56  1  0  0  0
 36107  1  0  0  0
 37 39  1  0  0  0
 37 47  1  0  0  0
 37 66  1  0  0  0
 37108  1  0  0  0
 38 43  2  0  0  0
 38 46  1  0  0  0
 38 47  1  0  0  0
 39 64  1  0  0  0
 39 67  2  0  0  0
 40 52  1  0  0  0
 40 53  2  0  0  0
 40 58  1  0  0  0
 41109  1  0  0  0
 41110  1  0  0  0
 41111  1  0  0  0
 41 48  1  0  0  0
 42 43  1  0  0  0
 42 66  1  0  0  0
 42112  1  0  0  0
 42113  1  0  0  0
 43 44  1  0  0  0
 44114  1  0  0  0
 45 46  2  0  0  0
 45115  1  0  0  0
 46116  1  0  0  0
 47117  1  0  0  0
 47118  1  0  0  0
 48 56  1  0  0  0
 48 65  1  0  0  0
 48119  1  0  0  0
 49 50  1  0  0  0
 49 53  1  0  0  0
 49 64  1  0  0  0
 49120  1  0  0  0
 50 51  1  0  0  0
 50121  1  0  0  0
 50122  1  0  0  0
 51 52  1  0  0  0
 51123  1  0  0  0
 51124  1  0  0  0
 52125  1  0  0  0
 52126  1  0  0  0
 53 54  1  0  0  0
 54 55  2  0  0  0
 54127  1  0  0  0
 55 57  1  0  0  0
 55128  1  0  0  0
 56 69  2  0  0  0
 57 58  2  0  0  0
 57129  1  0  0  0
 58130  1  0  0  0
 59 60  1  0  0  0
 59 61  1  0  0  0
 59 62  1  0  0  0
 60131  1  0  0  0
 60132  1  0  0  0
 60133  1  0  0  0
 61134  1  0  0  0
 61135  1  0  0  0
 61136  1  0  0  0
 62137  1  0  0  0
 62138  1  0  0  0
 62139  1  0  0  0
 63 65  1  0  0  0
 63140  1  0  0  0
 63141  1  0  0  0
 63142  1  0  0  0
 64143  1  0  0  0
 65144  1  0  0  0
 68 83  1  0  0  0
 71 72  1  0  0  0
 71 74  2  0  0  0
 71145  1  0  0  0
 72 73  2  0  0  0
 72 75  1  0  0  0
 73 85  1  0  0  0
 73 79  1  0  0  0
 74 84  1  0  0  0
 74 85  1  0  0  0
 75 76  2  0  0  0
 75146  1  0  0  0
 76147  1  0  0  0
 77 78  1  0  0  0
 77 79  1  0  0  0
 77148  1  0  0  0
 77149  1  0  0  0
 78 79  1  0  0  0
 78150  1  0  0  0
 78151  1  0  0  0
 79152  1  0  0  0
 80153  1  0  0  0
 80154  1  0  0  0
 80155  1  0  0  0
 80 83  1  0  0  0
 81 83  1  0  0  0
 81156  1  0  0  0
 81157  1  0  0  0
 81158  1  0  0  0
 82 83  1  0  0  0
 82 84  1  0  0  0
 82159  1  0  0  0
 82160  1  0  0  0
 84161  1  0  0  0
M  ISO  4   1 100  68 101  76 100  83 101
M  END
> <chiral flag>
0

> <version>
0

> <s_m_source_file>
/data/baiqing/PycharmProjects/Reinvent-master-3.2/result/LINK_invent/BTK/process_docking_weight1_custom_product_contain_oxygen_bond_distance_aromatic_linkinvent_7_9_3/rearranged_h_0145.sdf

> <i_m_source_file_index>
80

> <r_mmod_Potential_Energy-OPLS-2005>
284.495849609375

> <r_mmod_Stretch_Energy-OPLS-2005>
137.608993530273

> <r_mmod_Bend_Energy-OPLS-2005>
289.29150390625

> <r_mmod_Torsional_Energy-OPLS-2005>
210.111175537109

> <r_mmod_Improper_Torsional_Energy-OPLS-2005>
2.79660797119141

> <r_mmod_Van_der_Waal_Energy-OPLS-2005>
117.235122680664

> <r_mmod_Electrostatic_Energy-OPLS-2005>
-363.437866210938

> <r_mmod_Solvation_Energy-OPLS-2005>
-199.157165527344

> <b_mmod_Minimization_Converged-OPLS-2005>
0

> <r_mmod_RMS_Derivative-OPLS-2005>
0.93668407201767

$$$$
80
                    3D
 Structure written by MMmdl.
166174  0  0  1  0            999 V2000
  -30.7449  -14.5312   20.5652 C   0  0  0  0  0  0
  -30.4167  -12.3583   19.4284 C   0  0  0  0  0  0
  -29.4851  -12.4738   18.2081 C   0  0  0  0  0  0
  -28.0091  -12.3438   18.6295 C   0  0  0  0  0  0
  -27.6475  -13.2234   19.8564 C   0  0  2  0  0  0
  -28.6961  -13.0901   20.9803 C   0  0  0  0  0  0
  -25.2556  -13.8199   20.5722 C   0  0  0  0  0  0
  -24.1857  -13.0459   20.9310 C   0  0  0  0  0  0
  -24.6394  -11.6909   20.8776 C   0  0  0  0  0  0
  -23.9082  -10.4280   21.0384 C   0  0  0  0  0  0
  -24.3626   -9.4216   21.9178 C   0  0  0  0  0  0
  -23.6347   -8.2233   22.0711 C   0  0  0  0  0  0
  -22.4322   -8.0266   21.3498 C   0  0  0  0  0  0
  -21.9936   -9.0249   20.4602 C   0  0  0  0  0  0
  -22.7239  -10.2157   20.3021 C   0  0  0  0  0  0
  -21.6887   -6.0778   22.5330 C   0  0  0  0  0  0
  -21.4037   -6.5688   23.8263 C   0  0  0  0  0  0
  -21.3621   -5.6824   24.9209 C   0  0  0  0  0  0
  -21.6032   -4.3086   24.7237 C   0  0  0  0  0  0
  -21.8818   -3.8183   23.4354 C   0  0  0  0  0  0
  -21.9210   -4.7007   22.3421 C   0  0  0  0  0  0
  -22.7863  -13.5224   21.1952 C   0  0  0  0  0  0
  -22.1659   -4.2220   21.0984 F   0  0  0  0  0  0
  -21.5590   -3.4527   25.7718 F   0  0  0  0  0  0
  -30.0105  -13.3930   20.3996 N   0  0  0  0  0  0
  -26.2971  -12.9415   20.3319 N   0  0  0  0  0  0
  -25.9344  -11.6559   20.5788 N   0  0  0  0  0  0
  -22.0470  -12.8198   22.0450 N   0  0  0  0  0  0
  -25.4251  -15.1900   20.3997 N   0  0  0  0  0  0
  -31.9134  -14.5696   20.1683 O   0  0  0  0  0  0
  -21.6651   -6.8911   21.4261 O   0  0  0  0  0  0
  -22.3578  -14.5539   20.6801 O   0  0  0  0  0  0
  -24.6097  -31.8687   23.2127 C   0  0  0  0  0  0
  -25.8996  -32.4827   23.8408 C   0  0  1  0  0  0
  -27.2349  -27.4083   20.1390 C   0  0  0  0  0  0
  -25.5866  -33.8618   24.2352 N   0  0  0  0  0  0
  -23.3988  -30.4977   21.5442 C   0  0  2  0  0  0
  -24.8564  -28.9675   20.1062 C   0  0  0  0  0  0
  -22.7400  -29.4660   22.4894 C   0  0  0  0  0  0
  -18.0298  -28.1370   22.8480 C   0  0  0  0  0  0
  -24.1494  -36.7329   23.2632 C   0  0  0  0  0  0
  -25.9273  -30.8299   21.3728 C   0  0  0  0  0  0
  -26.0062  -29.4560   20.7377 C   0  0  0  0  0  0
  -27.1883  -28.6775   20.7745 C   0  0  0  0  0  0
  -26.0753  -26.9587   19.4703 C   0  0  0  0  0  0
  -24.8882  -27.7190   19.4624 C   0  0  0  0  0  0
  -23.6164  -29.8362   20.1539 C   0  0  0  0  0  0
  -25.4103  -36.3107   24.0348 C   0  0  1  0  0  0
  -20.5883  -28.3638   23.1291 C   0  0  2  0  0  0
  -20.6762  -26.9360   22.5410 C   0  0  0  0  0  0
  -19.5749  -26.6373   21.5187 C   0  0  0  0  0  0
  -18.1927  -26.7927   22.1587 C   0  0  0  0  0  0
  -19.1541  -28.8819   23.2900 C   0  0  0  0  0  0
  -18.9468  -30.1424   23.8929 C   0  0  0  0  0  0
  -17.6462  -30.6563   24.0560 C   0  0  0  0  0  0
  -25.9010  -34.9477   23.5144 C   0  0  0  0  0  0
  -16.5358  -29.9068   23.6308 C   0  0  0  0  0  0
  -16.7282  -28.6488   23.0325 C   0  0  0  0  0  0
  -26.4470  -31.6573   25.0700 C   0  0  0  0  0  0
  -25.3745  -31.3684   26.1458 C   0  0  0  0  0  0
  -27.0274  -30.3004   24.6045 C   0  0  0  0  0  0
  -27.6072  -32.4267   25.7445 C   0  0  0  0  0  0
  -27.5596  -37.1804   24.8444 C   0  0  0  0  0  0
  -21.4132  -29.3018   22.3673 N   0  0  0  0  0  0
  -26.4291  -37.3791   23.9419 N   0  0  0  0  0  0
  -24.6624  -31.0818   22.1014 N   0  0  0  0  0  0
  -23.4215  -28.8179   23.2883 O   0  0  0  0  0  0
  -28.3420  -26.5700   20.0876 O   0  0  0  0  0  0
  -26.5561  -34.8903   22.4686 O   0  0  0  0  0  0
  -23.5290  -32.1407   23.7540 O   0  0  0  0  0  0
  -30.3989  -19.3938   20.6097 C   0  0  0  0  0  0
  -29.9251  -18.1443   21.1311 C   0  0  0  0  0  0
  -28.6673  -18.4072   21.6274 C   0  0  0  0  0  0
  -29.4105  -20.3067   20.8393 C   0  0  0  0  0  0
  -30.6885  -16.8556   21.2313 C   0  0  0  0  0  0
  -27.6323  -17.6109   22.3555 C   0  0  0  0  0  0
  -30.3359  -27.3785   21.1488 C   0  0  0  0  0  0
  -27.9563  -24.2082   23.0304 C   0  0  0  0  0  0
  -30.1496  -23.0445   23.0091 C   0  0  0  0  0  0
  -29.7667  -24.9058   21.3082 C   0  0  0  0  0  0
  -28.4779  -22.6179   21.1465 C   0  0  0  0  0  0
  -29.1707  -26.3710   21.2499 C   0  0  2  0  0  0
  -29.0840  -23.7151   22.0937 C   0  0  0  0  0  0
  -29.4515  -21.6840   20.5515 N   0  0  0  0  0  0
  -30.0938  -15.6576   20.9730 N   0  0  0  0  0  0
  -31.8868  -16.9567   21.5214 O   0  0  0  0  0  0
  -28.3366  -19.7291   21.4313 O   0  0  0  0  0  0
  -31.4526  -12.4593   19.0979 H   0  0  0  0  0  0
  -30.3428  -11.3678   19.8777 H   0  0  0  0  0  0
  -29.7278  -11.6963   17.4800 H   0  0  0  0  0  0
  -29.6435  -13.4273   17.7012 H   0  0  0  0  0  0
  -27.8250  -11.2935   18.8532 H   0  0  0  0  0  0
  -27.3545  -12.5855   17.7944 H   0  0  0  0  0  0
  -27.6617  -14.2576   19.5175 H   0  0  0  0  0  0
  -28.6931  -12.0749   21.3774 H   0  0  0  0  0  0
  -28.4575  -13.7474   21.8191 H   0  0  0  0  0  0
  -25.2733   -9.5793   22.4801 H   0  0  0  0  0  0
  -24.0118   -7.4619   22.7391 H   0  0  0  0  0  0
  -21.0883   -8.8755   19.8886 H   0  0  0  0  0  0
  -22.3643  -10.9722   19.6172 H   0  0  0  0  0  0
  -21.2026   -7.6204   23.9814 H   0  0  0  0  0  0
  -21.1438   -6.0514   25.9137 H   0  0  0  0  0  0
  -22.0614   -2.7645   23.2839 H   0  0  0  0  0  0
  -22.4057  -11.9891   22.4921 H   0  0  0  0  0  0
  -21.1002  -13.1171   22.2458 H   0  0  0  0  0  0
  -24.6669  -15.8477   20.5391 H   0  0  0  0  0  0
  -26.2410  -15.6013   19.9648 H   0  0  0  0  0  0
  -26.7048  -32.5575   23.1150 H   0  0  0  0  0  0
  -25.0008  -33.9797   25.0500 H   0  0  0  0  0  0
  -22.6807  -31.3112   21.4065 H   0  0  0  0  0  0
  -23.3754  -35.9661   23.3265 H   0  0  0  0  0  0
  -24.3587  -36.8974   22.2049 H   0  0  0  0  0  0
  -23.7259  -37.6530   23.6664 H   0  0  0  0  0  0
  -26.0275  -31.5873   20.5945 H   0  0  0  0  0  0
  -26.8192  -30.9019   21.9837 H   0  0  0  0  0  0
  -28.0444  -29.0657   21.3005 H   0  0  0  0  0  0
  -26.0826  -26.0065   18.9585 H   0  0  0  0  0  0
  -24.0127  -27.3586   18.9406 H   0  0  0  0  0  0
  -23.7184  -30.6151   19.3964 H   0  0  0  0  0  0
  -22.7447  -29.2536   19.8526 H   0  0  0  0  0  0
  -25.1282  -36.1972   25.0849 H   0  0  0  0  0  0
  -21.0017  -28.3225   24.1390 H   0  0  0  0  0  0
  -20.5577  -26.2249   23.3599 H   0  0  0  0  0  0
  -21.6631  -26.7324   22.1247 H   0  0  0  0  0  0
  -19.6863  -25.6282   21.1210 H   0  0  0  0  0  0
  -19.6730  -27.3184   20.6721 H   0  0  0  0  0  0
  -17.4198  -26.6713   21.3994 H   0  0  0  0  0  0
  -18.0309  -26.0071   22.8976 H   0  0  0  0  0  0
  -19.7941  -30.7226   24.2341 H   0  0  0  0  0  0
  -17.5007  -31.6246   24.5148 H   0  0  0  0  0  0
  -15.5353  -30.2946   23.7622 H   0  0  0  0  0  0
  -15.8697  -28.0798   22.6998 H   0  0  0  0  0  0
  -24.5916  -30.7030   25.7795 H   0  0  0  0  0  0
  -24.8929  -32.2844   26.4899 H   0  0  0  0  0  0
  -25.8093  -30.8851   27.0218 H   0  0  0  0  0  0
  -26.2782  -29.6767   24.1139 H   0  0  0  0  0  0
  -27.4086  -29.7239   25.4490 H   0  0  0  0  0  0
  -27.8624  -30.4304   23.9145 H   0  0  0  0  0  0
  -27.2710  -33.3542   26.2092 H   0  0  0  0  0  0
  -28.3847  -32.6857   25.0244 H   0  0  0  0  0  0
  -28.0770  -31.8327   26.5295 H   0  0  0  0  0  0
  -28.2575  -38.0136   24.7501 H   0  0  0  0  0  0
  -28.1131  -36.2656   24.6246 H   0  0  0  0  0  0
  -27.2309  -37.1437   25.8845 H   0  0  0  0  0  0
  -20.9245  -29.8781   21.6958 H   0  0  0  0  0  0
  -26.0186  -38.2867   24.1445 H   0  0  0  0  0  0
  -31.3647  -19.5837   20.1633 H   0  0  0  0  0  0
  -27.0870  -16.9583   21.6747 H   0  0  0  0  0  0
  -26.9014  -18.2643   22.8398 H   0  0  0  0  0  0
  -28.0838  -16.9967   23.1334 H   0  0  0  0  0  0
  -30.9572  -27.3711   22.0480 H   0  0  0  0  0  0
  -29.9961  -28.4022   21.0185 H   0  0  0  0  0  0
  -30.9818  -27.1454   20.3006 H   0  0  0  0  0  0
  -28.3338  -24.9032   23.7807 H   0  0  0  0  0  0
  -27.5017  -23.3790   23.5782 H   0  0  0  0  0  0
  -27.1578  -24.7101   22.4846 H   0  0  0  0  0  0
  -30.5066  -23.7222   23.7878 H   0  0  0  0  0  0
  -31.0303  -22.7301   22.4493 H   0  0  0  0  0  0
  -29.7623  -22.1558   23.5106 H   0  0  0  0  0  0
  -30.7453  -25.0270   21.7761 H   0  0  0  0  0  0
  -30.0150  -24.5719   20.2981 H   0  0  0  0  0  0
  -27.8872  -23.0846   20.3559 H   0  0  0  0  0  0
  -27.7612  -22.0244   21.7149 H   0  0  0  0  0  0
  -28.6166  -26.5908   22.1627 H   0  0  0  0  0  0
  -30.2814  -22.0943   20.1327 H   0  0  0  0  0  0
  -29.0900  -15.6277   20.9614 H   0  0  0  0  0  0
  1 25  1  0  0  0
  1 30  2  0  0  0
  1 85  1  0  0  0
  2  3  1  0  0  0
  2 25  1  0  0  0
  2 88  1  0  0  0
  2 89  1  0  0  0
  3  4  1  0  0  0
  3 90  1  0  0  0
  3 91  1  0  0  0
  4  5  1  0  0  0
  4 92  1  0  0  0
  4 93  1  0  0  0
  5  6  1  0  0  0
  5 26  1  0  0  0
  5 94  1  0  0  0
  6 25  1  0  0  0
  6 95  1  0  0  0
  6 96  1  0  0  0
  7  8  2  0  0  0
  7 26  1  0  0  0
  7 29  1  0  0  0
  8  9  1  0  0  0
  8 22  1  0  0  0
  9 10  1  0  0  0
  9 27  2  0  0  0
 10 11  2  0  0  0
 10 15  1  0  0  0
 11 12  1  0  0  0
 11 97  1  0  0  0
 12 13  2  0  0  0
 12 98  1  0  0  0
 13 14  1  0  0  0
 13 31  1  0  0  0
 14 15  2  0  0  0
 14 99  1  0  0  0
 15100  1  0  0  0
 16 17  2  0  0  0
 16 21  1  0  0  0
 16 31  1  0  0  0
 17 18  1  0  0  0
 17101  1  0  0  0
 18 19  2  0  0  0
 18102  1  0  0  0
 19 20  1  0  0  0
 19 24  1  0  0  0
 20 21  2  0  0  0
 20103  1  0  0  0
 21 23  1  0  0  0
 22 28  1  0  0  0
 22 32  2  0  0  0
 26 27  1  0  0  0
 28104  1  0  0  0
 28105  1  0  0  0
 29106  1  0  0  0
 29107  1  0  0  0
 33 34  1  0  0  0
 33 66  1  0  0  0
 33 70  2  0  0  0
 34 36  1  0  0  0
 34 59  1  0  0  0
 34108  1  0  0  0
 35 44  2  0  0  0
 35 45  1  0  0  0
 35 68  1  0  0  0
 36 56  1  0  0  0
 36109  1  0  0  0
 37 39  1  0  0  0
 37 47  1  0  0  0
 37 66  1  0  0  0
 37110  1  0  0  0
 38 43  2  0  0  0
 38 46  1  0  0  0
 38 47  1  0  0  0
 39 64  1  0  0  0
 39 67  2  0  0  0
 40 52  1  0  0  0
 40 53  2  0  0  0
 40 58  1  0  0  0
 41111  1  0  0  0
 41112  1  0  0  0
 41113  1  0  0  0
 41 48  1  0  0  0
 42 43  1  0  0  0
 42 66  1  0  0  0
 42114  1  0  0  0
 42115  1  0  0  0
 43 44  1  0  0  0
 44116  1  0  0  0
 45 46  2  0  0  0
 45117  1  0  0  0
 46118  1  0  0  0
 47119  1  0  0  0
 47120  1  0  0  0
 48 56  1  0  0  0
 48 65  1  0  0  0
 48121  1  0  0  0
 49 50  1  0  0  0
 49 53  1  0  0  0
 49 64  1  0  0  0
 49122  1  0  0  0
 50 51  1  0  0  0
 50123  1  0  0  0
 50124  1  0  0  0
 51 52  1  0  0  0
 51125  1  0  0  0
 51126  1  0  0  0
 52127  1  0  0  0
 52128  1  0  0  0
 53 54  1  0  0  0
 54 55  2  0  0  0
 54129  1  0  0  0
 55 57  1  0  0  0
 55130  1  0  0  0
 56 69  2  0  0  0
 57 58  2  0  0  0
 57131  1  0  0  0
 58132  1  0  0  0
 59 60  1  0  0  0
 59 61  1  0  0  0
 59 62  1  0  0  0
 60133  1  0  0  0
 60134  1  0  0  0
 60135  1  0  0  0
 61136  1  0  0  0
 61137  1  0  0  0
 61138  1  0  0  0
 62139  1  0  0  0
 62140  1  0  0  0
 62141  1  0  0  0
 63 65  1  0  0  0
 63142  1  0  0  0
 63143  1  0  0  0
 63144  1  0  0  0
 64145  1  0  0  0
 65146  1  0  0  0
 68 82  1  0  0  0
 71 72  1  0  0  0
 71 74  2  0  0  0
 71147  1  0  0  0
 72 73  2  0  0  0
 72 75  1  0  0  0
 73 76  1  0  0  0
 73 87  1  0  0  0
 74 84  1  0  0  0
 74 87  1  0  0  0
 75 85  1  0  0  0
 75 86  2  0  0  0
 76148  1  0  0  0
 76149  1  0  0  0
 76150  1  0  0  0
 77151  1  0  0  0
 77152  1  0  0  0
 77153  1  0  0  0
 77 82  1  0  0  0
 78154  1  0  0  0
 78155  1  0  0  0
 78156  1  0  0  0
 78 83  1  0  0  0
 79 83  1  0  0  0
 79157  1  0  0  0
 79158  1  0  0  0
 79159  1  0  0  0
 80 82  1  0  0  0
 80 83  1  0  0  0
 80160  1  0  0  0
 80161  1  0  0  0
 81 83  1  0  0  0
 81 84  1  0  0  0
 81162  1  0  0  0
 81163  1  0  0  0
 82164  1  0  0  0
 84165  1  0  0  0
 85166  1  0  0  0
M  ISO  4   1 100  68 101  82 101  85 100
M  END
> <chiral flag>
0

> <version>
0

> <s_m_source_file>
/data/baiqing/PycharmProjects/Reinvent-master-3.2/result/LINK_invent/BTK/process_docking_weight1_custom_product_contain_oxygen_bond_distance_aromatic_linkinvent_7_9_3/rearranged_h_0145.sdf

> <i_m_source_file_index>
81

> <r_mmod_Potential_Energy-OPLS-2005>
-122.506057739258

> <r_mmod_Stretch_Energy-OPLS-2005>
50.5735893249512

> <r_mmod_Bend_Energy-OPLS-2005>
145.120132446289

> <r_mmod_Torsional_Energy-OPLS-2005>
266.873931884766

> <r_mmod_Improper_Torsional_Energy-OPLS-2005>
6.08779859542847

> <r_mmod_Van_der_Waal_Energy-OPLS-2005>
137.460357666016

> <r_mmod_Electrostatic_Energy-OPLS-2005>
-534.363098144531

> <r_mmod_Solvation_Energy-OPLS-2005>
-222.279663085938

> <b_mmod_Minimization_Converged-OPLS-2005>
0

> <r_mmod_RMS_Derivative-OPLS-2005>
6.21324682235718

$$$$
81
                    3D
 Structure written by MMmdl.
162171  0  0  1  0            999 V2000
  -30.5973  -14.7573   20.4458 C   0  0  0  0  0  0
  -30.4351  -12.4598   19.4729 C   0  0  0  0  0  0
  -29.5167  -12.5178   18.2339 C   0  0  0  0  0  0
  -28.0425  -12.3345   18.6449 C   0  0  0  0  0  0
  -27.6428  -13.2316   19.8478 C   0  0  2  0  0  0
  -28.6868  -13.1658   20.9840 C   0  0  0  0  0  0
  -25.2506  -13.8190   20.5667 C   0  0  0  0  0  0
  -24.1807  -13.0440   20.9203 C   0  0  0  0  0  0
  -24.6398  -11.6918   20.8740 C   0  0  0  0  0  0
  -23.9078  -10.4300   21.0411 C   0  0  0  0  0  0
  -24.3625   -9.4210   21.9184 C   0  0  0  0  0  0
  -23.6300   -8.2247   22.0756 C   0  0  0  0  0  0
  -22.4274   -8.0292   21.3559 C   0  0  0  0  0  0
  -21.9922   -9.0262   20.4655 C   0  0  0  0  0  0
  -22.7254  -10.2140   20.3055 C   0  0  0  0  0  0
  -21.6853   -6.0741   22.5289 C   0  0  0  0  0  0
  -21.4016   -6.5640   23.8227 C   0  0  0  0  0  0
  -21.3651   -5.6792   24.9188 C   0  0  0  0  0  0
  -21.6037   -4.3056   24.7232 C   0  0  0  0  0  0
  -21.8815   -3.8149   23.4356 C   0  0  0  0  0  0
  -21.9195   -4.6970   22.3412 C   0  0  0  0  0  0
  -22.7830  -13.5230   21.1858 C   0  0  0  0  0  0
  -22.1658   -4.2159   21.0990 F   0  0  0  0  0  0
  -21.5627   -3.4536   25.7744 F   0  0  0  0  0  0
  -29.9862  -13.5224   20.4013 N   0  0  0  0  0  0
  -26.2946  -12.9398   20.3255 N   0  0  0  0  0  0
  -25.9328  -11.6545   20.5713 N   0  0  0  0  0  0
  -22.0452  -12.8243   22.0419 N   0  0  0  0  0  0
  -25.4173  -15.1907   20.4037 N   0  0  0  0  0  0
  -31.7916  -14.8511   20.1435 O   0  0  0  0  0  0
  -21.6641   -6.8882   21.4252 O   0  0  0  0  0  0
  -22.3520  -14.5531   20.6686 O   0  0  0  0  0  0
  -24.6309  -31.8548   23.1979 C   0  0  0  0  0  0
  -25.9134  -32.4748   23.8322 C   0  0  1  0  0  0
  -27.2277  -27.2838   20.1286 C   0  0  0  0  0  0
  -25.5942  -33.8550   24.2241 N   0  0  0  0  0  0
  -23.4262  -30.4776   21.5422 C   0  0  2  0  0  0
  -24.8731  -28.9196   20.1175 C   0  0  0  0  0  0
  -22.7497  -29.4601   22.4927 C   0  0  0  0  0  0
  -18.0291  -28.1393   22.8475 C   0  0  0  0  0  0
  -24.1478  -36.7257   23.2637 C   0  0  0  0  0  0
  -25.9693  -30.7777   21.3708 C   0  0  0  0  0  0
  -26.0459  -29.3996   20.7143 C   0  0  0  0  0  0
  -27.2299  -28.5989   20.6987 C   0  0  0  0  0  0
  -26.0298  -26.8541   19.5211 C   0  0  0  0  0  0
  -24.8676  -27.6522   19.5118 C   0  0  0  0  0  0
  -23.6445  -29.8073   20.1598 C   0  0  0  0  0  0
  -25.4096  -36.3054   24.0330 C   0  0  1  0  0  0
  -20.5893  -28.3691   23.1275 C   0  0  2  0  0  0
  -20.6760  -26.9409   22.5420 C   0  0  0  0  0  0
  -19.5745  -26.6391   21.5213 C   0  0  0  0  0  0
  -18.1922  -26.7940   22.1611 C   0  0  0  0  0  0
  -19.1546  -28.8858   23.2864 C   0  0  0  0  0  0
  -18.9465  -30.1464   23.8871 C   0  0  0  0  0  0
  -17.6466  -30.6578   24.0578 C   0  0  0  0  0  0
  -25.9052  -34.9432   23.5075 C   0  0  0  0  0  0
  -16.5357  -29.9075   23.6356 C   0  0  0  0  0  0
  -16.7280  -28.6510   23.0343 C   0  0  0  0  0  0
  -26.4495  -31.6578   25.0714 C   0  0  0  0  0  0
  -25.3722  -31.3770   26.1455 C   0  0  0  0  0  0
  -27.0338  -30.2991   24.6205 C   0  0  0  0  0  0
  -27.6052  -32.4323   25.7486 C   0  0  0  0  0  0
  -27.5571  -37.1765   24.8456 C   0  0  0  0  0  0
  -21.4210  -29.3034   22.3662 N   0  0  0  0  0  0
  -26.4262  -37.3762   23.9437 N   0  0  0  0  0  0
  -24.6953  -31.0541   22.0940 N   0  0  0  0  0  0
  -23.4203  -28.8150   23.3022 O   0  0  0  0  0  0
  -28.3399  -26.4189   20.1173 O   0  0  0  0  0  0
  -26.5638  -34.8908   22.4655 O   0  0  0  0  0  0
  -23.5463  -32.1357   23.7288 O   0  0  0  0  0  0
  -31.2776  -17.9135   20.4350 C   0  0  0  0  0  0
  -31.2560  -19.3606   20.3167 C   0  0  0  0  0  0
  -29.9951  -19.9431   20.2244 C   0  0  0  0  0  0
  -30.0634  -17.2647   20.4884 C   0  0  0  0  0  0
  -30.1208  -23.6819   19.4457 C   0  0  0  0  0  0
  -30.4606  -22.2148   19.0956 C   0  0  0  0  0  0
  -28.5883  -22.2282   20.5604 C   0  0  2  0  0  0
  -28.6403  -23.6899   19.8503 C   0  0  2  0  0  0
  -32.5571  -20.1105   20.3199 C   0  0  0  0  0  0
  -28.7341  -22.3040   22.0859 C   0  0  0  0  0  0
  -27.7529  -23.6445   18.5883 C   0  0  0  0  0  0
  -28.1985  -25.0305   20.6642 C   0  0  0  0  0  0
  -29.6730  -21.3593   19.9880 N   0  0  0  0  0  0
  -29.7962  -15.8827   20.6140 N   0  0  0  0  0  0
  -28.8313  -18.5846   20.4024 S   0  0  0  0  0  0
  -31.4775  -12.5851   19.1723 H   0  0  0  0  0  0
  -30.3753  -11.4817   19.9512 H   0  0  0  0  0  0
  -29.8055  -11.7553   17.5096 H   0  0  0  0  0  0
  -29.6439  -13.4780   17.7308 H   0  0  0  0  0  0
  -27.9013  -11.2854   18.9054 H   0  0  0  0  0  0
  -27.3889  -12.5291   17.7937 H   0  0  0  0  0  0
  -27.6379  -14.2530   19.4669 H   0  0  0  0  0  0
  -28.7235  -12.1683   21.4242 H   0  0  0  0  0  0
  -28.4181  -13.8471   21.7934 H   0  0  0  0  0  0
  -25.2774   -9.5680   22.4758 H   0  0  0  0  0  0
  -24.0017   -7.4631   22.7466 H   0  0  0  0  0  0
  -21.0863   -8.8780   19.8954 H   0  0  0  0  0  0
  -22.3721  -10.9670   19.6152 H   0  0  0  0  0  0
  -21.2006   -7.6143   23.9727 H   0  0  0  0  0  0
  -21.1468   -6.0522   25.9090 H   0  0  0  0  0  0
  -22.0595   -2.7613   23.2855 H   0  0  0  0  0  0
  -22.4057  -11.9911   22.4832 H   0  0  0  0  0  0
  -21.1058  -13.1267   22.2566 H   0  0  0  0  0  0
  -24.6391  -15.8350   20.4903 H   0  0  0  0  0  0
  -26.2508  -15.6326   20.0379 H   0  0  0  0  0  0
  -26.7216  -32.5391   23.1076 H   0  0  0  0  0  0
  -25.0134  -33.9687   25.0421 H   0  0  0  0  0  0
  -22.7223  -31.2994   21.3954 H   0  0  0  0  0  0
  -23.3757  -35.9573   23.3268 H   0  0  0  0  0  0
  -24.3567  -36.8915   22.2058 H   0  0  0  0  0  0
  -23.7204  -37.6434   23.6681 H   0  0  0  0  0  0
  -26.1055  -31.5406   20.6027 H   0  0  0  0  0  0
  -26.8471  -30.8263   22.0032 H   0  0  0  0  0  0
  -28.1350  -28.9731   21.1570 H   0  0  0  0  0  0
  -25.9860  -25.8789   19.0594 H   0  0  0  0  0  0
  -23.9680  -27.2744   19.0452 H   0  0  0  0  0  0
  -23.7733  -30.5802   19.4020 H   0  0  0  0  0  0
  -22.7610  -29.2431   19.8560 H   0  0  0  0  0  0
  -25.1269  -36.1889   25.0825 H   0  0  0  0  0  0
  -20.9987  -28.3261   24.1393 H   0  0  0  0  0  0
  -20.5642  -26.2294   23.3618 H   0  0  0  0  0  0
  -21.6633  -26.7419   22.1233 H   0  0  0  0  0  0
  -19.6896  -25.6297   21.1252 H   0  0  0  0  0  0
  -19.6691  -27.3190   20.6732 H   0  0  0  0  0  0
  -17.4205  -26.6723   21.3994 H   0  0  0  0  0  0
  -18.0284  -26.0074   22.8995 H   0  0  0  0  0  0
  -19.7941  -30.7307   24.2199 H   0  0  0  0  0  0
  -17.5020  -31.6255   24.5195 H   0  0  0  0  0  0
  -15.5347  -30.2964   23.7695 H   0  0  0  0  0  0
  -15.8685  -28.0840   22.7036 H   0  0  0  0  0  0
  -24.5874  -30.7130   25.7811 H   0  0  0  0  0  0
  -24.8942  -32.2970   26.4841 H   0  0  0  0  0  0
  -25.8042  -30.8983   27.0256 H   0  0  0  0  0  0
  -26.2927  -29.6737   24.1226 H   0  0  0  0  0  0
  -27.4017  -29.7255   25.4720 H   0  0  0  0  0  0
  -27.8797  -30.4254   23.9447 H   0  0  0  0  0  0
  -27.2665  -33.3627   26.2056 H   0  0  0  0  0  0
  -28.3864  -32.6884   25.0320 H   0  0  0  0  0  0
  -28.0724  -31.8470   26.5416 H   0  0  0  0  0  0
  -28.2565  -38.0087   24.7556 H   0  0  0  0  0  0
  -28.1089  -36.2623   24.6192 H   0  0  0  0  0  0
  -27.2321  -37.1343   25.8869 H   0  0  0  0  0  0
  -20.9389  -29.8745   21.6866 H   0  0  0  0  0  0
  -26.0126  -38.2822   24.1492 H   0  0  0  0  0  0
  -32.2245  -17.3951   20.4914 H   0  0  0  0  0  0
  -30.3438  -24.3656   18.6263 H   0  0  0  0  0  0
  -30.7275  -23.9980   20.2956 H   0  0  0  0  0  0
  -31.5342  -22.0726   19.1624 H   0  0  0  0  0  0
  -30.1800  -21.9985   18.0629 H   0  0  0  0  0  0
  -27.6242  -21.7642   20.3479 H   0  0  0  0  0  0
  -33.3547  -19.5300   20.7844 H   0  0  0  0  0  0
  -32.4820  -21.0400   20.8850 H   0  0  0  0  0  0
  -32.8873  -20.3435   19.3077 H   0  0  0  0  0  0
  -29.6861  -22.7515   22.3766 H   0  0  0  0  0  0
  -28.6782  -21.3138   22.5401 H   0  0  0  0  0  0
  -27.9337  -22.8990   22.5251 H   0  0  0  0  0  0
  -27.9910  -22.7992   17.9439 H   0  0  0  0  0  0
  -27.8666  -24.5515   17.9927 H   0  0  0  0  0  0
  -26.6987  -23.5547   18.8550 H   0  0  0  0  0  0
  -28.7788  -25.0524   21.5870 H   0  0  0  0  0  0
  -27.1709  -24.8893   21.0028 H   0  0  0  0  0  0
  -28.8288  -15.6544   20.7860 H   0  0  0  0  0  0
  1 25  1  0  0  0
  1 30  2  0  0  0
  1 84  1  0  0  0
  2  3  1  0  0  0
  2 25  1  0  0  0
  2 86  1  0  0  0
  2 87  1  0  0  0
  3  4  1  0  0  0
  3 88  1  0  0  0
  3 89  1  0  0  0
  4  5  1  0  0  0
  4 90  1  0  0  0
  4 91  1  0  0  0
  5  6  1  0  0  0
  5 26  1  0  0  0
  5 92  1  0  0  0
  6 25  1  0  0  0
  6 93  1  0  0  0
  6 94  1  0  0  0
  7  8  2  0  0  0
  7 26  1  0  0  0
  7 29  1  0  0  0
  8  9  1  0  0  0
  8 22  1  0  0  0
  9 10  1  0  0  0
  9 27  2  0  0  0
 10 11  2  0  0  0
 10 15  1  0  0  0
 11 12  1  0  0  0
 11 95  1  0  0  0
 12 13  2  0  0  0
 12 96  1  0  0  0
 13 14  1  0  0  0
 13 31  1  0  0  0
 14 15  2  0  0  0
 14 97  1  0  0  0
 15 98  1  0  0  0
 16 17  2  0  0  0
 16 21  1  0  0  0
 16 31  1  0  0  0
 17 18  1  0  0  0
 17 99  1  0  0  0
 18 19  2  0  0  0
 18100  1  0  0  0
 19 20  1  0  0  0
 19 24  1  0  0  0
 20 21  2  0  0  0
 20101  1  0  0  0
 21 23  1  0  0  0
 22 28  1  0  0  0
 22 32  2  0  0  0
 26 27  1  0  0  0
 28102  1  0  0  0
 28103  1  0  0  0
 29104  1  0  0  0
 29105  1  0  0  0
 33 34  1  0  0  0
 33 66  1  0  0  0
 33 70  2  0  0  0
 34 36  1  0  0  0
 34 59  1  0  0  0
 34106  1  0  0  0
 35 44  2  0  0  0
 35 45  1  0  0  0
 35 68  1  0  0  0
 36 56  1  0  0  0
 36107  1  0  0  0
 37 39  1  0  0  0
 37 47  1  0  0  0
 37 66  1  0  0  0
 37108  1  0  0  0
 38 43  2  0  0  0
 38 46  1  0  0  0
 38 47  1  0  0  0
 39 64  1  0  0  0
 39 67  2  0  0  0
 40 52  1  0  0  0
 40 53  2  0  0  0
 40 58  1  0  0  0
 41109  1  0  0  0
 41110  1  0  0  0
 41111  1  0  0  0
 41 48  1  0  0  0
 42 43  1  0  0  0
 42 66  1  0  0  0
 42112  1  0  0  0
 42113  1  0  0  0
 43 44  1  0  0  0
 44114  1  0  0  0
 45 46  2  0  0  0
 45115  1  0  0  0
 46116  1  0  0  0
 47117  1  0  0  0
 47118  1  0  0  0
 48 56  1  0  0  0
 48 65  1  0  0  0
 48119  1  0  0  0
 49 50  1  0  0  0
 49 53  1  0  0  0
 49 64  1  0  0  0
 49120  1  0  0  0
 50 51  1  0  0  0
 50121  1  0  0  0
 50122  1  0  0  0
 51 52  1  0  0  0
 51123  1  0  0  0
 51124  1  0  0  0
 52125  1  0  0  0
 52126  1  0  0  0
 53 54  1  0  0  0
 54 55  2  0  0  0
 54127  1  0  0  0
 55 57  1  0  0  0
 55128  1  0  0  0
 56 69  2  0  0  0
 57 58  2  0  0  0
 57129  1  0  0  0
 58130  1  0  0  0
 59 60  1  0  0  0
 59 61  1  0  0  0
 59 62  1  0  0  0
 60131  1  0  0  0
 60132  1  0  0  0
 60133  1  0  0  0
 61134  1  0  0  0
 61135  1  0  0  0
 61136  1  0  0  0
 62137  1  0  0  0
 62138  1  0  0  0
 62139  1  0  0  0
 63 65  1  0  0  0
 63140  1  0  0  0
 63141  1  0  0  0
 63142  1  0  0  0
 64143  1  0  0  0
 65144  1  0  0  0
 68 82  1  0  0  0
 71 72  1  0  0  0
 71 74  2  0  0  0
 71145  1  0  0  0
 72 73  2  0  0  0
 72 79  1  0  0  0
 73 83  1  0  0  0
 73 85  1  0  0  0
 74 84  1  0  0  0
 74 85  1  0  0  0
 75 76  1  0  0  0
 75 78  1  0  0  0
 75146  1  0  0  0
 75147  1  0  0  0
 76 83  1  0  0  0
 76148  1  0  0  0
 76149  1  0  0  0
 77 78  1  0  0  0
 77 80  1  0  0  0
 77 83  1  0  0  0
 77150  1  0  0  0
 78 81  1  0  0  0
 78 82  1  0  0  0
 79151  1  0  0  0
 79152  1  0  0  0
 79153  1  0  0  0
 80154  1  0  0  0
 80155  1  0  0  0
 80156  1  0  0  0
 81157  1  0  0  0
 81158  1  0  0  0
 81159  1  0  0  0
 82160  1  0  0  0
 82161  1  0  0  0
 84162  1  0  0  0
M  ISO  4   1 100  68 101  82 101  84 100
M  END
> <chiral flag>
0

> <version>
0

> <s_m_source_file>
/data/baiqing/PycharmProjects/Reinvent-master-3.2/result/LINK_invent/BTK/process_docking_weight1_custom_product_contain_oxygen_bond_distance_aromatic_linkinvent_7_9_3/rearranged_h_0145.sdf

> <i_m_source_file_index>
82

> <r_mmod_Potential_Energy-OPLS-2005>
266.573150634766

> <r_mmod_Stretch_Energy-OPLS-2005>
117.618698120117

> <r_mmod_Bend_Energy-OPLS-2005>
217.177780151367

> <r_mmod_Torsional_Energy-OPLS-2005>
321.754791259766

> <r_mmod_Improper_Torsional_Energy-OPLS-2005>
5.19704866409302

> <r_mmod_Van_der_Waal_Energy-OPLS-2005>
113.31665802002

> <r_mmod_Electrostatic_Energy-OPLS-2005>
-382.836669921875

> <r_mmod_Solvation_Energy-OPLS-2005>
-205.877685546875

> <b_mmod_Minimization_Converged-OPLS-2005>
0

> <r_mmod_RMS_Derivative-OPLS-2005>
2.55180644989014

$$$$
82
                    3D
 Structure written by MMmdl.
168177  0  0  1  0            999 V2000
  -30.6467  -14.6442   20.4379 C   0  0  0  0  0  0
  -30.4219  -12.3857   19.4584 C   0  0  0  0  0  0
  -29.5019  -12.4817   18.2238 C   0  0  0  0  0  0
  -28.0251  -12.3306   18.6389 C   0  0  0  0  0  0
  -27.6413  -13.2268   19.8488 C   0  0  2  0  0  0
  -28.6887  -13.1414   20.9788 C   0  0  0  0  0  0
  -25.2516  -13.8212   20.5727 C   0  0  0  0  0  0
  -24.1790  -13.0451   20.9213 C   0  0  0  0  0  0
  -24.6377  -11.6931   20.8753 C   0  0  0  0  0  0
  -23.9057  -10.4295   21.0408 C   0  0  0  0  0  0
  -24.3604   -9.4204   21.9187 C   0  0  0  0  0  0
  -23.6282   -8.2236   22.0754 C   0  0  0  0  0  0
  -22.4265   -8.0275   21.3540 C   0  0  0  0  0  0
  -21.9900   -9.0250   20.4649 C   0  0  0  0  0  0
  -22.7232  -10.2132   20.3062 C   0  0  0  0  0  0
  -21.6846   -6.0728   22.5276 C   0  0  0  0  0  0
  -21.4011   -6.5635   23.8210 C   0  0  0  0  0  0
  -21.3669   -5.6787   24.9177 C   0  0  0  0  0  0
  -21.6047   -4.3047   24.7225 C   0  0  0  0  0  0
  -21.8818   -3.8139   23.4345 C   0  0  0  0  0  0
  -21.9185   -4.6955   22.3401 C   0  0  0  0  0  0
  -22.7812  -13.5239   21.1863 C   0  0  0  0  0  0
  -22.1654   -4.2138   21.0979 F   0  0  0  0  0  0
  -21.5630   -3.4538   25.7740 F   0  0  0  0  0  0
  -29.9908  -13.4478   20.3835 N   0  0  0  0  0  0
  -26.2936  -12.9403   20.3312 N   0  0  0  0  0  0
  -25.9301  -11.6551   20.5754 N   0  0  0  0  0  0
  -22.0439  -12.8244   22.0422 N   0  0  0  0  0  0
  -25.4225  -15.1935   20.4201 N   0  0  0  0  0  0
  -31.8658  -14.7017   20.2650 O   0  0  0  0  0  0
  -21.6630   -6.8871   21.4241 O   0  0  0  0  0  0
  -22.3500  -14.5531   20.6692 O   0  0  0  0  0  0
  -24.6247  -31.8604   23.2023 C   0  0  0  0  0  0
  -25.9109  -32.4777   23.8352 C   0  0  1  0  0  0
  -27.2190  -27.3391   20.1362 C   0  0  0  0  0  0
  -25.5926  -33.8575   24.2286 N   0  0  0  0  0  0
  -23.4169  -30.4837   21.5424 C   0  0  2  0  0  0
  -24.8617  -28.9312   20.1171 C   0  0  0  0  0  0
  -22.7465  -29.4638   22.4939 C   0  0  0  0  0  0
  -18.0293  -28.1395   22.8487 C   0  0  0  0  0  0
  -24.1478  -36.7302   23.2636 C   0  0  0  0  0  0
  -25.9530  -30.7994   21.3663 C   0  0  0  0  0  0
  -26.0269  -29.4230   20.7216 C   0  0  0  0  0  0
  -27.2132  -28.6373   20.7217 C   0  0  0  0  0  0
  -26.0384  -26.8810   19.5211 C   0  0  0  0  0  0
  -24.8663  -27.6637   19.5097 C   0  0  0  0  0  0
  -23.6304  -29.8131   20.1586 C   0  0  0  0  0  0
  -25.4100  -36.3084   24.0331 C   0  0  1  0  0  0
  -20.5886  -28.3693   23.1295 C   0  0  2  0  0  0
  -20.6785  -26.9426   22.5407 C   0  0  0  0  0  0
  -19.5757  -26.6403   21.5211 C   0  0  0  0  0  0
  -18.1937  -26.7942   22.1624 C   0  0  0  0  0  0
  -19.1542  -28.8861   23.2889 C   0  0  0  0  0  0
  -18.9466  -30.1464   23.8905 C   0  0  0  0  0  0
  -17.6465  -30.6594   24.0574 C   0  0  0  0  0  0
  -25.9038  -34.9452   23.5116 C   0  0  0  0  0  0
  -16.5357  -29.9099   23.6327 C   0  0  0  0  0  0
  -16.7281  -28.6519   23.0348 C   0  0  0  0  0  0
  -26.4510  -31.6572   25.0704 C   0  0  0  0  0  0
  -25.3771  -31.3706   26.1455 C   0  0  0  0  0  0
  -27.0334  -30.2996   24.6128 C   0  0  0  0  0  0
  -27.6070  -32.4304   25.7487 C   0  0  0  0  0  0
  -27.5577  -37.1805   24.8468 C   0  0  0  0  0  0
  -21.4182  -29.3047   22.3684 N   0  0  0  0  0  0
  -26.4281  -37.3778   23.9418 N   0  0  0  0  0  0
  -24.6839  -31.0649   22.0947 N   0  0  0  0  0  0
  -23.4195  -28.8192   23.3026 O   0  0  0  0  0  0
  -28.3429  -26.5214   20.1024 O   0  0  0  0  0  0
  -26.5611  -34.8932   22.4684 O   0  0  0  0  0  0
  -23.5425  -32.1388   23.7378 O   0  0  0  0  0  0
  -29.4885  -18.1299   20.4262 C   0  0  0  0  0  0
  -28.6611  -18.8303   21.3780 C   0  0  0  0  0  0
  -28.0890  -17.8412   22.1641 C   0  0  0  0  0  0
  -29.3966  -16.7820   20.7435 C   0  0  0  0  0  0
  -28.3397  -23.9333   20.3732 C   0  0  0  0  0  0
  -27.2787  -21.5947   22.9684 C   0  0  0  0  0  0
  -26.9563  -20.8149   21.6938 C   0  0  0  0  0  0
  -28.5760  -20.7970   23.0473 C   0  0  0  0  0  0
  -28.4419  -20.3994   21.5522 C   0  0  0  0  0  0
  -27.1219  -17.7715   23.3094 C   0  0  0  0  0  0
  -30.4817  -23.1814   19.4255 C   0  0  0  0  0  0
  -30.3191  -23.2259   21.8808 C   0  0  0  0  0  0
  -28.3721  -25.3776   21.0226 C   0  0  0  0  0  0
  -29.2042  -21.2956   20.4765 C   0  0  0  0  0  0
  -29.5163  -22.8896   20.6013 C   0  0  0  0  0  0
  -29.9426  -15.7405   20.0284 N   0  0  0  0  0  0
  -27.3979  -23.6258   19.6378 O   0  0  0  0  0  0
  -28.5482  -16.5998   21.7859 O   0  0  0  0  0  0
  -31.4663  -12.4934   19.1599 H   0  0  0  0  0  0
  -30.3423  -11.4071   19.9341 H   0  0  0  0  0  0
  -29.7658  -11.7135   17.4965 H   0  0  0  0  0  0
  -29.6495  -13.4409   17.7247 H   0  0  0  0  0  0
  -27.8636  -11.2824   18.8924 H   0  0  0  0  0  0
  -27.3730  -12.5400   17.7909 H   0  0  0  0  0  0
  -27.6405  -14.2522   19.4780 H   0  0  0  0  0  0
  -28.6995  -12.1479   21.4299 H   0  0  0  0  0  0
  -28.4559  -13.8481   21.7769 H   0  0  0  0  0  0
  -25.2740   -9.5682   22.4779 H   0  0  0  0  0  0
  -23.9982   -7.4628   22.7480 H   0  0  0  0  0  0
  -21.0828   -8.8779   19.8960 H   0  0  0  0  0  0
  -22.3683  -10.9675   19.6179 H   0  0  0  0  0  0
  -21.2005   -7.6140   23.9718 H   0  0  0  0  0  0
  -21.1499   -6.0514   25.9080 H   0  0  0  0  0  0
  -22.0588   -2.7600   23.2848 H   0  0  0  0  0  0
  -22.4016  -11.9920   22.4863 H   0  0  0  0  0  0
  -21.1057  -13.1296   22.2593 H   0  0  0  0  0  0
  -24.6668  -15.8551   20.5595 H   0  0  0  0  0  0
  -26.2999  -15.6363   20.1763 H   0  0  0  0  0  0
  -26.7180  -32.5462   23.1108 H   0  0  0  0  0  0
  -25.0061  -33.9710   25.0428 H   0  0  0  0  0  0
  -22.7093  -31.3027   21.3985 H   0  0  0  0  0  0
  -23.3732  -35.9644   23.3296 H   0  0  0  0  0  0
  -24.3562  -36.8919   22.2049 H   0  0  0  0  0  0
  -23.7248  -37.6515   23.6655 H   0  0  0  0  0  0
  -26.0752  -31.5558   20.5889 H   0  0  0  0  0  0
  -26.8396  -30.8568   21.9872 H   0  0  0  0  0  0
  -28.1138  -29.0141   21.1860 H   0  0  0  0  0  0
  -26.0219  -25.9066   19.0520 H   0  0  0  0  0  0
  -23.9730  -27.2788   19.0358 H   0  0  0  0  0  0
  -23.7534  -30.5868   19.3991 H   0  0  0  0  0  0
  -22.7506  -29.2409   19.8578 H   0  0  0  0  0  0
  -25.1283  -36.1926   25.0823 H   0  0  0  0  0  0
  -20.9985  -28.3270   24.1415 H   0  0  0  0  0  0
  -20.5687  -26.2310   23.3603 H   0  0  0  0  0  0
  -21.6658  -26.7465   22.1203 H   0  0  0  0  0  0
  -19.6920  -25.6318   21.1238 H   0  0  0  0  0  0
  -19.6697  -27.3222   20.6746 H   0  0  0  0  0  0
  -17.4210  -26.6694   21.4022 H   0  0  0  0  0  0
  -18.0336  -26.0085   22.9023 H   0  0  0  0  0  0
  -19.7939  -30.7286   24.2272 H   0  0  0  0  0  0
  -17.5021  -31.6268   24.5188 H   0  0  0  0  0  0
  -15.5359  -30.3013   23.7640 H   0  0  0  0  0  0
  -15.8681  -28.0847   22.7053 H   0  0  0  0  0  0
  -24.5948  -30.7032   25.7828 H   0  0  0  0  0  0
  -24.8960  -32.2863   26.4897 H   0  0  0  0  0  0
  -25.8137  -30.8904   27.0219 H   0  0  0  0  0  0
  -26.2875  -29.6748   24.1196 H   0  0  0  0  0  0
  -27.4082  -29.7253   25.4612 H   0  0  0  0  0  0
  -27.8733  -30.4283   23.9295 H   0  0  0  0  0  0
  -27.2669  -33.3594   26.2083 H   0  0  0  0  0  0
  -28.3889  -32.6875   25.0325 H   0  0  0  0  0  0
  -28.0731  -31.8410   26.5396 H   0  0  0  0  0  0
  -28.2610  -38.0087   24.7508 H   0  0  0  0  0  0
  -28.1054  -36.2626   24.6295 H   0  0  0  0  0  0
  -27.2296  -37.1465   25.8870 H   0  0  0  0  0  0
  -20.9357  -29.8752   21.6883 H   0  0  0  0  0  0
  -26.0159  -38.2851   24.1418 H   0  0  0  0  0  0
  -30.0753  -18.5543   19.6230 H   0  0  0  0  0  0
  -26.5894  -21.4193   23.7944 H   0  0  0  0  0  0
  -27.4351  -22.6589   22.7997 H   0  0  0  0  0  0
  -26.5802  -21.4403   20.8850 H   0  0  0  0  0  0
  -26.2685  -19.9868   21.8566 H   0  0  0  0  0  0
  -28.4973  -19.9674   23.7442 H   0  0  0  0  0  0
  -29.4618  -21.3507   23.3296 H   0  0  0  0  0  0
  -27.6069  -17.3507   24.1904 H   0  0  0  0  0  0
  -26.2779  -17.1272   23.0628 H   0  0  0  0  0  0
  -26.7092  -18.7367   23.5953 H   0  0  0  0  0  0
  -30.7656  -24.2339   19.3733 H   0  0  0  0  0  0
  -30.0304  -22.9260   18.4652 H   0  0  0  0  0  0
  -31.4082  -22.6128   19.5126 H   0  0  0  0  0  0
  -30.9228  -24.1261   21.7608 H   0  0  0  0  0  0
  -31.0212  -22.4279   22.1246 H   0  0  0  0  0  0
  -29.6825  -23.4026   22.7458 H   0  0  0  0  0  0
  -29.2624  -25.4984   21.6356 H   0  0  0  0  0  0
  -27.5318  -25.4478   21.7150 H   0  0  0  0  0  0
  -28.7129  -21.1359   19.5159 H   0  0  0  0  0  0
  -30.1814  -20.8326   20.3441 H   0  0  0  0  0  0
  -30.4237  -16.1078   19.2217 H   0  0  0  0  0  0
  1 25  1  0  0  0
  1 30  2  0  0  0
  1 86  1  0  0  0
  2  3  1  0  0  0
  2 25  1  0  0  0
  2 89  1  0  0  0
  2 90  1  0  0  0
  3  4  1  0  0  0
  3 91  1  0  0  0
  3 92  1  0  0  0
  4  5  1  0  0  0
  4 93  1  0  0  0
  4 94  1  0  0  0
  5  6  1  0  0  0
  5 26  1  0  0  0
  5 95  1  0  0  0
  6 25  1  0  0  0
  6 96  1  0  0  0
  6 97  1  0  0  0
  7  8  2  0  0  0
  7 26  1  0  0  0
  7 29  1  0  0  0
  8  9  1  0  0  0
  8 22  1  0  0  0
  9 10  1  0  0  0
  9 27  2  0  0  0
 10 11  2  0  0  0
 10 15  1  0  0  0
 11 12  1  0  0  0
 11 98  1  0  0  0
 12 13  2  0  0  0
 12 99  1  0  0  0
 13 14  1  0  0  0
 13 31  1  0  0  0
 14 15  2  0  0  0
 14100  1  0  0  0
 15101  1  0  0  0
 16 17  2  0  0  0
 16 21  1  0  0  0
 16 31  1  0  0  0
 17 18  1  0  0  0
 17102  1  0  0  0
 18 19  2  0  0  0
 18103  1  0  0  0
 19 20  1  0  0  0
 19 24  1  0  0  0
 20 21  2  0  0  0
 20104  1  0  0  0
 21 23  1  0  0  0
 22 28  1  0  0  0
 22 32  2  0  0  0
 26 27  1  0  0  0
 28105  1  0  0  0
 28106  1  0  0  0
 29107  1  0  0  0
 29108  1  0  0  0
 33 34  1  0  0  0
 33 66  1  0  0  0
 33 70  2  0  0  0
 34 36  1  0  0  0
 34 59  1  0  0  0
 34109  1  0  0  0
 35 44  2  0  0  0
 35 45  1  0  0  0
 35 68  1  0  0  0
 36 56  1  0  0  0
 36110  1  0  0  0
 37 39  1  0  0  0
 37 47  1  0  0  0
 37 66  1  0  0  0
 37111  1  0  0  0
 38 43  2  0  0  0
 38 46  1  0  0  0
 38 47  1  0  0  0
 39 64  1  0  0  0
 39 67  2  0  0  0
 40 52  1  0  0  0
 40 53  2  0  0  0
 40 58  1  0  0  0
 41112  1  0  0  0
 41113  1  0  0  0
 41114  1  0  0  0
 41 48  1  0  0  0
 42 43  1  0  0  0
 42 66  1  0  0  0
 42115  1  0  0  0
 42116  1  0  0  0
 43 44  1  0  0  0
 44117  1  0  0  0
 45 46  2  0  0  0
 45118  1  0  0  0
 46119  1  0  0  0
 47120  1  0  0  0
 47121  1  0  0  0
 48 56  1  0  0  0
 48 65  1  0  0  0
 48122  1  0  0  0
 49 50  1  0  0  0
 49 53  1  0  0  0
 49 64  1  0  0  0
 49123  1  0  0  0
 50 51  1  0  0  0
 50124  1  0  0  0
 50125  1  0  0  0
 51 52  1  0  0  0
 51126  1  0  0  0
 51127  1  0  0  0
 52128  1  0  0  0
 52129  1  0  0  0
 53 54  1  0  0  0
 54 55  2  0  0  0
 54130  1  0  0  0
 55 57  1  0  0  0
 55131  1  0  0  0
 56 69  2  0  0  0
 57 58  2  0  0  0
 57132  1  0  0  0
 58133  1  0  0  0
 59 60  1  0  0  0
 59 61  1  0  0  0
 59 62  1  0  0  0
 60134  1  0  0  0
 60135  1  0  0  0
 60136  1  0  0  0
 61137  1  0  0  0
 61138  1  0  0  0
 61139  1  0  0  0
 62140  1  0  0  0
 62141  1  0  0  0
 62142  1  0  0  0
 63 65  1  0  0  0
 63143  1  0  0  0
 63144  1  0  0  0
 63145  1  0  0  0
 64146  1  0  0  0
 65147  1  0  0  0
 68 83  1  0  0  0
 71 72  1  0  0  0
 71 74  2  0  0  0
 71148  1  0  0  0
 72 73  2  0  0  0
 72 79  1  0  0  0
 73 80  1  0  0  0
 73 88  1  0  0  0
 74 86  1  0  0  0
 74 88  1  0  0  0
 75 83  1  0  0  0
 75 85  1  0  0  0
 75 87  2  0  0  0
 76 77  1  0  0  0
 76 78  1  0  0  0
 76149  1  0  0  0
 76150  1  0  0  0
 77 79  1  0  0  0
 77151  1  0  0  0
 77152  1  0  0  0
 78 79  1  0  0  0
 78153  1  0  0  0
 78154  1  0  0  0
 79 84  1  0  0  0
 80155  1  0  0  0
 80156  1  0  0  0
 80157  1  0  0  0
 81158  1  0  0  0
 81159  1  0  0  0
 81160  1  0  0  0
 81 85  1  0  0  0
 82 85  1  0  0  0
 82161  1  0  0  0
 82162  1  0  0  0
 82163  1  0  0  0
 83164  1  0  0  0
 83165  1  0  0  0
 84 85  1  0  0  0
 84166  1  0  0  0
 84167  1  0  0  0
 86168  1  0  0  0
M  ISO  4   1 100  68 101  83 101  86 100
M  END
> <chiral flag>
0

> <version>
0

> <s_m_source_file>
/data/baiqing/PycharmProjects/Reinvent-master-3.2/result/LINK_invent/BTK/process_docking_weight1_custom_product_contain_oxygen_bond_distance_aromatic_linkinvent_7_9_3/rearranged_h_0145.sdf

> <i_m_source_file_index>
83

> <r_mmod_Potential_Energy-OPLS-2005>
254.491836547852

> <r_mmod_Stretch_Energy-OPLS-2005>
85.2141571044922

> <r_mmod_Bend_Energy-OPLS-2005>
217.287048339844

> <r_mmod_Torsional_Energy-OPLS-2005>
336.511047363281

> <r_mmod_Improper_Torsional_Energy-OPLS-2005>
28.1252002716064

> <r_mmod_Van_der_Waal_Energy-OPLS-2005>
117.06681060791

> <r_mmod_Electrostatic_Energy-OPLS-2005>
-385.494689941406

> <r_mmod_Solvation_Energy-OPLS-2005>
-196.983306884766

> <b_mmod_Minimization_Converged-OPLS-2005>
0

> <r_mmod_RMS_Derivative-OPLS-2005>
1.8014794588089

$$$$
83
                    3D
 Structure written by MMmdl.
163172  0  0  1  0            999 V2000
  -30.6694  -14.5830   20.5364 C   0  0  0  0  0  0
  -30.4252  -12.3714   19.4336 C   0  0  0  0  0  0
  -29.4944  -12.4988   18.2101 C   0  0  0  0  0  0
  -28.0187  -12.3440   18.6275 C   0  0  0  0  0  0
  -27.6491  -13.2150   19.8585 C   0  0  2  0  0  0
  -28.6951  -13.0684   20.9842 C   0  0  0  0  0  0
  -25.2543  -13.8174   20.5681 C   0  0  0  0  0  0
  -24.1815  -13.0441   20.9203 C   0  0  0  0  0  0
  -24.6385  -11.6914   20.8756 C   0  0  0  0  0  0
  -23.9060  -10.4297   21.0415 C   0  0  0  0  0  0
  -24.3617   -9.4206   21.9187 C   0  0  0  0  0  0
  -23.6291   -8.2240   22.0754 C   0  0  0  0  0  0
  -22.4271   -8.0282   21.3546 C   0  0  0  0  0  0
  -21.9911   -9.0254   20.4648 C   0  0  0  0  0  0
  -22.7239  -10.2135   20.3058 C   0  0  0  0  0  0
  -21.6850   -6.0741   22.5280 C   0  0  0  0  0  0
  -21.4011   -6.5644   23.8216 C   0  0  0  0  0  0
  -21.3657   -5.6794   24.9174 C   0  0  0  0  0  0
  -21.6043   -4.3057   24.7223 C   0  0  0  0  0  0
  -21.8818   -3.8153   23.4345 C   0  0  0  0  0  0
  -21.9193   -4.6971   22.3403 C   0  0  0  0  0  0
  -22.7836  -13.5230   21.1857 C   0  0  0  0  0  0
  -22.1660   -4.2160   21.0979 F   0  0  0  0  0  0
  -21.5629   -3.4539   25.7735 F   0  0  0  0  0  0
  -30.0058  -13.3950   20.4083 N   0  0  0  0  0  0
  -26.2964  -12.9352   20.3306 N   0  0  0  0  0  0
  -25.9308  -11.6509   20.5763 N   0  0  0  0  0  0
  -22.0478  -12.8221   22.0413 N   0  0  0  0  0  0
  -25.4251  -15.1893   20.4068 N   0  0  0  0  0  0
  -31.8415  -14.7061   20.1700 O   0  0  0  0  0  0
  -21.6634   -6.8883   21.4241 O   0  0  0  0  0  0
  -22.3524  -14.5539   20.6711 O   0  0  0  0  0  0
  -24.6223  -31.8629   23.2068 C   0  0  0  0  0  0
  -25.9086  -32.4799   23.8374 C   0  0  1  0  0  0
  -27.2231  -27.3562   20.1229 C   0  0  0  0  0  0
  -25.5919  -33.8596   24.2296 N   0  0  0  0  0  0
  -23.4144  -30.4862   21.5476 C   0  0  2  0  0  0
  -24.8616  -28.9407   20.1194 C   0  0  0  0  0  0
  -22.7459  -29.4645   22.4971 C   0  0  0  0  0  0
  -18.0287  -28.1384   22.8484 C   0  0  0  0  0  0
  -24.1494  -36.7306   23.2644 C   0  0  0  0  0  0
  -25.9502  -30.8042   21.3724 C   0  0  0  0  0  0
  -26.0266  -29.4297   20.7264 C   0  0  0  0  0  0
  -27.2129  -28.6447   20.7273 C   0  0  0  0  0  0
  -26.0463  -26.9102   19.4919 C   0  0  0  0  0  0
  -24.8693  -27.6814   19.4981 C   0  0  0  0  0  0
  -23.6283  -29.8185   20.1634 C   0  0  0  0  0  0
  -25.4118  -36.3095   24.0337 C   0  0  1  0  0  0
  -20.5884  -28.3673   23.1304 C   0  0  2  0  0  0
  -20.6780  -26.9405   22.5419 C   0  0  0  0  0  0
  -19.5746  -26.6383   21.5219 C   0  0  0  0  0  0
  -18.1925  -26.7929   22.1629 C   0  0  0  0  0  0
  -19.1539  -28.8845   23.2886 C   0  0  0  0  0  0
  -18.9465  -30.1453   23.8893 C   0  0  0  0  0  0
  -17.6465  -30.6580   24.0562 C   0  0  0  0  0  0
  -25.9051  -34.9459   23.5110 C   0  0  0  0  0  0
  -16.5352  -29.9076   23.6338 C   0  0  0  0  0  0
  -16.7278  -28.6506   23.0344 C   0  0  0  0  0  0
  -26.4485  -31.6603   25.0732 C   0  0  0  0  0  0
  -25.3734  -31.3740   26.1474 C   0  0  0  0  0  0
  -27.0334  -30.3039   24.6163 C   0  0  0  0  0  0
  -27.6052  -32.4338   25.7501 C   0  0  0  0  0  0
  -27.5584  -37.1806   24.8464 C   0  0  0  0  0  0
  -21.4178  -29.3038   22.3709 N   0  0  0  0  0  0
  -26.4296  -37.3788   23.9413 N   0  0  0  0  0  0
  -24.6807  -31.0679   22.0997 N   0  0  0  0  0  0
  -23.4196  -28.8190   23.3041 O   0  0  0  0  0  0
  -28.3462  -26.5408   20.0577 O   0  0  0  0  0  0
  -26.5615  -34.8915   22.4670 O   0  0  0  0  0  0
  -23.5397  -32.1417   23.7422 O   0  0  0  0  0  0
  -31.8090  -17.9862   23.1099 C   0  0  0  0  0  0
  -31.4176  -19.2585   22.6685 C   0  0  0  0  0  0
  -31.3185  -16.8370   22.4851 C   0  0  0  0  0  0
  -29.9830  -18.2537   20.9928 C   0  0  0  0  0  0
  -30.5072  -19.4596   21.5944 C   0  0  0  0  0  0
  -30.4102  -16.9360   21.4118 C   0  0  0  0  0  0
  -29.2185  -23.0199   20.8181 C   0  0  0  0  0  0
  -28.2793  -24.0232   20.7564 C   0  0  0  0  0  0
  -30.6753  -23.2195   21.1469 C   0  0  0  0  0  0
  -31.1365  -21.8792   21.7094 C   0  0  0  0  0  0
  -29.0267  -21.4779   20.6680 C   0  0  1  0  0  0
  -26.8271  -23.7058   20.4464 C   0  0  0  0  0  0
  -28.7609  -21.1025   19.2022 C   0  0  0  0  0  0
  -28.5270  -25.5355   21.0998 C   0  0  0  0  0  0
  -30.2587  -20.8271   21.1837 N   0  0  0  0  0  0
  -29.9247  -15.6839   20.8588 N   0  0  0  0  0  0
  -31.4661  -12.4870   19.1265 H   0  0  0  0  0  0
  -30.3520  -11.3757   19.8738 H   0  0  0  0  0  0
  -29.7509  -11.7495   17.4605 H   0  0  0  0  0  0
  -29.6400  -13.4697   17.7341 H   0  0  0  0  0  0
  -27.8502  -11.2914   18.8566 H   0  0  0  0  0  0
  -27.3628  -12.5796   17.7891 H   0  0  0  0  0  0
  -27.6691  -14.2505   19.5186 H   0  0  0  0  0  0
  -28.6999  -12.0485   21.3723 H   0  0  0  0  0  0
  -28.4523  -13.7116   21.8314 H   0  0  0  0  0  0
  -25.2765   -9.5678   22.4760 H   0  0  0  0  0  0
  -24.0006   -7.4626   22.7466 H   0  0  0  0  0  0
  -21.0849   -8.8773   19.8944 H   0  0  0  0  0  0
  -22.3704  -10.9675   19.6169 H   0  0  0  0  0  0
  -21.2000   -7.6152   23.9723 H   0  0  0  0  0  0
  -21.1478   -6.0522   25.9078 H   0  0  0  0  0  0
  -22.0601   -2.7618   23.2838 H   0  0  0  0  0  0
  -22.4095  -11.9884   22.4806 H   0  0  0  0  0  0
  -21.1089  -13.1241   22.2610 H   0  0  0  0  0  0
  -24.6567  -15.8431   20.5119 H   0  0  0  0  0  0
  -26.2667  -15.6265   20.0541 H   0  0  0  0  0  0
  -26.7161  -32.5497   23.1135 H   0  0  0  0  0  0
  -25.0063  -33.9736   25.0440 H   0  0  0  0  0  0
  -22.7076  -31.3057   21.4049 H   0  0  0  0  0  0
  -23.3744  -35.9653   23.3312 H   0  0  0  0  0  0
  -24.3584  -36.8928   22.2060 H   0  0  0  0  0  0
  -23.7247  -37.6512   23.6656 H   0  0  0  0  0  0
  -26.0720  -31.5655   20.5998 H   0  0  0  0  0  0
  -26.8336  -30.8596   21.9962 H   0  0  0  0  0  0
  -28.1128  -29.0190   21.1948 H   0  0  0  0  0  0
  -26.0367  -25.9589   18.9839 H   0  0  0  0  0  0
  -23.9793  -27.3025   19.0157 H   0  0  0  0  0  0
  -23.7451  -30.5926   19.4033 H   0  0  0  0  0  0
  -22.7493  -29.2453   19.8635 H   0  0  0  0  0  0
  -25.1291  -36.1959   25.0832 H   0  0  0  0  0  0
  -20.9967  -28.3231   24.1433 H   0  0  0  0  0  0
  -20.5701  -26.2270   23.3604 H   0  0  0  0  0  0
  -21.6638  -26.7452   22.1195 H   0  0  0  0  0  0
  -19.6910  -25.6297   21.1246 H   0  0  0  0  0  0
  -19.6692  -27.3198   20.6757 H   0  0  0  0  0  0
  -17.4203  -26.6696   21.4020 H   0  0  0  0  0  0
  -18.0300  -26.0073   22.9023 H   0  0  0  0  0  0
  -19.7942  -30.7265   24.2253 H   0  0  0  0  0  0
  -17.5022  -31.6262   24.5150 H   0  0  0  0  0  0
  -15.5351  -30.2963   23.7672 H   0  0  0  0  0  0
  -15.8687  -28.0819   22.7043 H   0  0  0  0  0  0
  -24.5895  -30.7099   25.7812 H   0  0  0  0  0  0
  -24.8932  -32.2908   26.4912 H   0  0  0  0  0  0
  -25.8068  -30.8911   27.0239 H   0  0  0  0  0  0
  -26.2899  -29.6791   24.1197 H   0  0  0  0  0  0
  -27.4063  -29.7303   25.4660 H   0  0  0  0  0  0
  -27.8754  -30.4354   23.9359 H   0  0  0  0  0  0
  -27.2662  -33.3643   26.2066 H   0  0  0  0  0  0
  -28.3856  -32.6895   25.0321 H   0  0  0  0  0  0
  -28.0710  -31.8465   26.5425 H   0  0  0  0  0  0
  -28.2594  -38.0110   24.7502 H   0  0  0  0  0  0
  -28.1076  -36.2633   24.6284 H   0  0  0  0  0  0
  -27.2291  -37.1457   25.8863 H   0  0  0  0  0  0
  -20.9352  -29.8751   21.6918 H   0  0  0  0  0  0
  -26.0182  -38.2868   24.1403 H   0  0  0  0  0  0
  -32.5032  -17.8953   23.9335 H   0  0  0  0  0  0
  -31.8687  -20.0757   23.2082 H   0  0  0  0  0  0
  -31.6443  -15.8732   22.8516 H   0  0  0  0  0  0
  -29.2850  -18.3259   20.1744 H   0  0  0  0  0  0
  -30.8723  -24.0248   21.8534 H   0  0  0  0  0  0
  -31.2083  -23.4394   20.2212 H   0  0  0  0  0  0
  -31.0395  -21.9298   22.7952 H   0  0  0  0  0  0
  -32.1844  -21.6905   21.4694 H   0  0  0  0  0  0
  -28.1831  -21.1701   21.2877 H   0  0  0  0  0  0
  -26.5832  -22.6606   20.6326 H   0  0  0  0  0  0
  -26.6197  -23.9108   19.3975 H   0  0  0  0  0  0
  -26.1590  -24.3087   21.0616 H   0  0  0  0  0  0
  -29.6171  -21.3398   18.5700 H   0  0  0  0  0  0
  -27.9043  -21.6481   18.8062 H   0  0  0  0  0  0
  -28.5350  -20.0458   19.0810 H   0  0  0  0  0  0
  -29.5457  -25.6682   21.4551 H   0  0  0  0  0  0
  -27.9042  -25.7870   21.9599 H   0  0  0  0  0  0
  -28.9260  -15.5480   20.8744 H   0  0  0  0  0  0
  1 25  1  0  0  0
  1 30  2  0  0  0
  1 86  1  0  0  0
  2  3  1  0  0  0
  2 25  1  0  0  0
  2 87  1  0  0  0
  2 88  1  0  0  0
  3  4  1  0  0  0
  3 89  1  0  0  0
  3 90  1  0  0  0
  4  5  1  0  0  0
  4 91  1  0  0  0
  4 92  1  0  0  0
  5  6  1  0  0  0
  5 26  1  0  0  0
  5 93  1  0  0  0
  6 25  1  0  0  0
  6 94  1  0  0  0
  6 95  1  0  0  0
  7  8  2  0  0  0
  7 26  1  0  0  0
  7 29  1  0  0  0
  8  9  1  0  0  0
  8 22  1  0  0  0
  9 10  1  0  0  0
  9 27  2  0  0  0
 10 11  2  0  0  0
 10 15  1  0  0  0
 11 12  1  0  0  0
 11 96  1  0  0  0
 12 13  2  0  0  0
 12 97  1  0  0  0
 13 14  1  0  0  0
 13 31  1  0  0  0
 14 15  2  0  0  0
 14 98  1  0  0  0
 15 99  1  0  0  0
 16 17  2  0  0  0
 16 21  1  0  0  0
 16 31  1  0  0  0
 17 18  1  0  0  0
 17100  1  0  0  0
 18 19  2  0  0  0
 18101  1  0  0  0
 19 20  1  0  0  0
 19 24  1  0  0  0
 20 21  2  0  0  0
 20102  1  0  0  0
 21 23  1  0  0  0
 22 28  1  0  0  0
 22 32  2  0  0  0
 26 27  1  0  0  0
 28103  1  0  0  0
 28104  1  0  0  0
 29105  1  0  0  0
 29106  1  0  0  0
 33 34  1  0  0  0
 33 66  1  0  0  0
 33 70  2  0  0  0
 34 36  1  0  0  0
 34 59  1  0  0  0
 34107  1  0  0  0
 35 44  2  0  0  0
 35 45  1  0  0  0
 35 68  1  0  0  0
 36 56  1  0  0  0
 36108  1  0  0  0
 37 39  1  0  0  0
 37 47  1  0  0  0
 37 66  1  0  0  0
 37109  1  0  0  0
 38 43  2  0  0  0
 38 46  1  0  0  0
 38 47  1  0  0  0
 39 64  1  0  0  0
 39 67  2  0  0  0
 40 52  1  0  0  0
 40 53  2  0  0  0
 40 58  1  0  0  0
 41110  1  0  0  0
 41111  1  0  0  0
 41112  1  0  0  0
 41 48  1  0  0  0
 42 43  1  0  0  0
 42 66  1  0  0  0
 42113  1  0  0  0
 42114  1  0  0  0
 43 44  1  0  0  0
 44115  1  0  0  0
 45 46  2  0  0  0
 45116  1  0  0  0
 46117  1  0  0  0
 47118  1  0  0  0
 47119  1  0  0  0
 48 56  1  0  0  0
 48 65  1  0  0  0
 48120  1  0  0  0
 49 50  1  0  0  0
 49 53  1  0  0  0
 49 64  1  0  0  0
 49121  1  0  0  0
 50 51  1  0  0  0
 50122  1  0  0  0
 50123  1  0  0  0
 51 52  1  0  0  0
 51124  1  0  0  0
 51125  1  0  0  0
 52126  1  0  0  0
 52127  1  0  0  0
 53 54  1  0  0  0
 54 55  2  0  0  0
 54128  1  0  0  0
 55 57  1  0  0  0
 55129  1  0  0  0
 56 69  2  0  0  0
 57 58  2  0  0  0
 57130  1  0  0  0
 58131  1  0  0  0
 59 60  1  0  0  0
 59 61  1  0  0  0
 59 62  1  0  0  0
 60132  1  0  0  0
 60133  1  0  0  0
 60134  1  0  0  0
 61135  1  0  0  0
 61136  1  0  0  0
 61137  1  0  0  0
 62138  1  0  0  0
 62139  1  0  0  0
 62140  1  0  0  0
 63 65  1  0  0  0
 63141  1  0  0  0
 63142  1  0  0  0
 63143  1  0  0  0
 64144  1  0  0  0
 65145  1  0  0  0
 68 84  1  0  0  0
 71 72  2  0  0  0
 71 73  1  0  0  0
 71146  1  0  0  0
 72 75  1  0  0  0
 72147  1  0  0  0
 73 76  2  0  0  0
 73148  1  0  0  0
 74 75  2  0  0  0
 74 76  1  0  0  0
 74149  1  0  0  0
 75 85  1  0  0  0
 76 86  1  0  0  0
 77 78  2  0  0  0
 77 79  1  0  0  0
 77 81  1  0  0  0
 78 82  1  0  0  0
 78 84  1  0  0  0
 79 80  1  0  0  0
 79150  1  0  0  0
 79151  1  0  0  0
 80 85  1  0  0  0
 80152  1  0  0  0
 80153  1  0  0  0
 81 83  1  0  0  0
 81 85  1  0  0  0
 81154  1  0  0  0
 82155  1  0  0  0
 82156  1  0  0  0
 82157  1  0  0  0
 83158  1  0  0  0
 83159  1  0  0  0
 83160  1  0  0  0
 84161  1  0  0  0
 84162  1  0  0  0
 86163  1  0  0  0
M  ISO  4   1 100  68 101  84 101  86 100
M  END
> <chiral flag>
0

> <version>
0

> <s_m_source_file>
/data/baiqing/PycharmProjects/Reinvent-master-3.2/result/LINK_invent/BTK/process_docking_weight1_custom_product_contain_oxygen_bond_distance_aromatic_linkinvent_7_9_3/rearranged_h_0145.sdf

> <i_m_source_file_index>
84

> <r_mmod_Potential_Energy-OPLS-2005>
140.142349243164

> <r_mmod_Stretch_Energy-OPLS-2005>
71.9852905273438

> <r_mmod_Bend_Energy-OPLS-2005>
176.436141967773

> <r_mmod_Torsional_Energy-OPLS-2005>
281.207275390625

> <r_mmod_Improper_Torsional_Energy-OPLS-2005>
7.17077732086182

> <r_mmod_Van_der_Waal_Energy-OPLS-2005>
149.33935546875

> <r_mmod_Electrostatic_Energy-OPLS-2005>
-359.866485595703

> <r_mmod_Solvation_Energy-OPLS-2005>
-218.980514526367

> <b_mmod_Minimization_Converged-OPLS-2005>
0

> <r_mmod_RMS_Derivative-OPLS-2005>
1.35079967975616

$$$$
84
                    3D
 Structure written by MMmdl.
158166  0  0  1  0            999 V2000
  -30.6948  -14.4696   20.5782 C   0  0  0  0  0  0
  -30.4141  -12.3042   19.4181 C   0  0  0  0  0  0
  -29.4851  -12.4619   18.1985 C   0  0  0  0  0  0
  -28.0060  -12.3285   18.6196 C   0  0  0  0  0  0
  -27.6458  -13.1889   19.8599 C   0  0  2  0  0  0
  -28.6885  -13.0040   20.9818 C   0  0  0  0  0  0
  -25.2573  -13.8166   20.5637 C   0  0  0  0  0  0
  -24.1835  -13.0475   20.9193 C   0  0  0  0  0  0
  -24.6345  -11.6937   20.8774 C   0  0  0  0  0  0
  -23.9054  -10.4342   21.0442 C   0  0  0  0  0  0
  -24.3626   -9.4246   21.9194 C   0  0  0  0  0  0
  -23.6318   -8.2264   22.0746 C   0  0  0  0  0  0
  -22.4295   -8.0308   21.3537 C   0  0  0  0  0  0
  -21.9940   -9.0283   20.4641 C   0  0  0  0  0  0
  -22.7251  -10.2170   20.3061 C   0  0  0  0  0  0
  -21.6872   -6.0765   22.5285 C   0  0  0  0  0  0
  -21.4023   -6.5656   23.8218 C   0  0  0  0  0  0
  -21.3653   -5.6798   24.9169 C   0  0  0  0  0  0
  -21.6032   -4.3064   24.7212 C   0  0  0  0  0  0
  -21.8826   -3.8167   23.4333 C   0  0  0  0  0  0
  -21.9210   -4.6989   22.3395 C   0  0  0  0  0  0
  -22.7853  -13.5265   21.1884 C   0  0  0  0  0  0
  -22.1684   -4.2181   21.0970 F   0  0  0  0  0  0
  -21.5612   -3.4547   25.7720 F   0  0  0  0  0  0
  -30.0102  -13.3072   20.4133 N   0  0  0  0  0  0
  -26.2935  -12.9274   20.3282 N   0  0  0  0  0  0
  -25.9242  -11.6481   20.5772 N   0  0  0  0  0  0
  -22.0503  -12.8237   22.0430 N   0  0  0  0  0  0
  -25.4331  -15.1881   20.3987 N   0  0  0  0  0  0
  -31.8459  -14.6336   20.1704 O   0  0  0  0  0  0
  -21.6649   -6.8909   21.4249 O   0  0  0  0  0  0
  -22.3522  -14.5577   20.6755 O   0  0  0  0  0  0
  -24.6090  -31.8686   23.2087 C   0  0  0  0  0  0
  -25.9040  -32.4797   23.8358 C   0  0  1  0  0  0
  -27.2142  -27.4376   20.0997 C   0  0  0  0  0  0
  -25.5921  -33.8603   24.2263 N   0  0  0  0  0  0
  -23.3832  -30.4849   21.5554 C   0  0  2  0  0  0
  -24.8267  -28.9566   20.1161 C   0  0  0  0  0  0
  -22.7324  -29.4570   22.5088 C   0  0  0  0  0  0
  -18.0303  -28.1446   22.8438 C   0  0  0  0  0  0
  -24.1493  -36.7325   23.2618 C   0  0  0  0  0  0
  -25.9066  -30.8346   21.3505 C   0  0  0  0  0  0
  -25.9845  -29.4637   20.7163 C   0  0  0  0  0  0
  -27.1781  -28.7075   20.7172 C   0  0  0  0  0  0
  -26.0386  -26.9494   19.4831 C   0  0  0  0  0  0
  -24.8485  -27.6946   19.4971 C   0  0  0  0  0  0
  -23.5881  -29.8171   20.1706 C   0  0  0  0  0  0
  -25.4107  -36.3059   24.0283 C   0  0  1  0  0  0
  -20.5845  -28.3501   23.1538 C   0  0  2  0  0  0
  -20.6563  -26.9198   22.5803 C   0  0  0  0  0  0
  -19.5924  -26.6509   21.5182 C   0  0  0  0  0  0
  -18.1965  -26.8180   22.1186 C   0  0  0  0  0  0
  -19.1556  -28.8786   23.3039 C   0  0  0  0  0  0
  -18.9543  -30.1365   23.9123 C   0  0  0  0  0  0
  -17.6540  -30.6537   24.0711 C   0  0  0  0  0  0
  -25.9038  -34.9455   23.5033 C   0  0  0  0  0  0
  -16.5390  -29.9128   23.6398 C   0  0  0  0  0  0
  -16.7291  -28.6601   23.0303 C   0  0  0  0  0  0
  -26.4477  -31.6576   25.0656 C   0  0  0  0  0  0
  -25.3764  -31.3720   26.1406 C   0  0  0  0  0  0
  -27.0270  -30.3022   24.5962 C   0  0  0  0  0  0
  -27.6011  -32.4311   25.7481 C   0  0  0  0  0  0
  -27.5565  -37.1785   24.8442 C   0  0  0  0  0  0
  -21.4089  -29.2675   22.3691 N   0  0  0  0  0  0
  -26.4281  -37.3762   23.9372 N   0  0  0  0  0  0
  -24.6510  -31.0774   22.0977 N   0  0  0  0  0  0
  -23.4139  -28.8339   23.3287 O   0  0  0  0  0  0
  -28.3998  -26.7294   20.0978 O   0  0  0  0  0  0
  -26.5640  -34.8923   22.4620 O   0  0  0  0  0  0
  -23.5301  -32.1461   23.7519 O   0  0  0  0  0  0
  -28.5038  -17.4683   20.9806 C   0  0  0  0  0  0
  -27.6979  -18.3313   18.8371 C   0  0  0  0  0  0
  -29.1102  -16.3462   18.9031 C   0  0  0  0  0  0
  -27.7704  -18.4336   20.2435 C   0  0  0  0  0  0
  -29.1913  -16.4170   20.3161 C   0  0  0  0  0  0
  -28.3569  -17.2846   18.1732 C   0  0  0  0  0  0
  -27.0502  -19.5643   20.9043 C   0  0  0  0  0  0
  -27.7057  -24.7074   21.3431 C   0  0  0  0  0  0
  -28.3384  -25.2965   20.0573 C   0  0  0  0  0  0
  -27.9638  -23.1934   21.5261 C   0  0  0  0  0  0
  -27.3547  -20.7616   20.5013 N   0  0  0  0  0  0
  -26.1144  -19.1616   21.8390 N   0  0  0  0  0  0
  -30.0001  -15.5117   21.0781 N   0  0  0  0  0  0
  -25.9618  -22.8028   19.7944 O   0  0  0  0  0  0
  -25.6934  -21.9476   22.1570 O   0  0  0  0  0  0
  -28.2719  -17.1835   16.8262 F   0  0  0  0  0  0
  -26.5479  -22.1612   20.9824 S   0  0  0  0  0  0
  -31.4534  -12.4119   19.1096 H   0  0  0  0  0  0
  -30.3269  -11.3015   19.8347 H   0  0  0  0  0  0
  -29.7227  -11.7072   17.4483 H   0  0  0  0  0  0
  -29.6555  -13.4232   17.7160 H   0  0  0  0  0  0
  -27.8275  -11.2739   18.8390 H   0  0  0  0  0  0
  -27.3544  -12.5743   17.7827 H   0  0  0  0  0  0
  -27.6772  -14.2222   19.5343 H   0  0  0  0  0  0
  -28.6679  -11.9801   21.3581 H   0  0  0  0  0  0
  -28.4477  -13.6407   21.8342 H   0  0  0  0  0  0
  -25.2767   -9.5737   22.4778 H   0  0  0  0  0  0
  -24.0044   -7.4652   22.7465 H   0  0  0  0  0  0
  -21.0875   -8.8816   19.8949 H   0  0  0  0  0  0
  -22.3720  -10.9721   19.6180 H   0  0  0  0  0  0
  -21.2029   -7.6170   23.9728 H   0  0  0  0  0  0
  -21.1448   -6.0521   25.9063 H   0  0  0  0  0  0
  -22.0610   -2.7636   23.2816 H   0  0  0  0  0  0
  -22.4100  -11.9858   22.4765 H   0  0  0  0  0  0
  -21.1113  -13.1269   22.2614 H   0  0  0  0  0  0
  -24.6642  -15.8442   20.4968 H   0  0  0  0  0  0
  -26.2810  -15.6194   20.0557 H   0  0  0  0  0  0
  -26.7106  -32.5525   23.1121 H   0  0  0  0  0  0
  -25.0035  -33.9804   25.0364 H   0  0  0  0  0  0
  -22.6579  -31.2910   21.4167 H   0  0  0  0  0  0
  -23.3714  -35.9709   23.3276 H   0  0  0  0  0  0
  -24.3551  -36.8950   22.2030 H   0  0  0  0  0  0
  -23.7349  -37.6537   23.6705 H   0  0  0  0  0  0
  -25.9978  -31.5827   20.5625 H   0  0  0  0  0  0
  -26.8003  -30.9069   21.9567 H   0  0  0  0  0  0
  -28.0636  -29.0905   21.2045 H   0  0  0  0  0  0
  -26.0166  -26.0075   18.9667 H   0  0  0  0  0  0
  -23.9661  -27.2904   19.0195 H   0  0  0  0  0  0
  -23.6868  -30.5809   19.4001 H   0  0  0  0  0  0
  -22.7116  -29.2307   19.8945 H   0  0  0  0  0  0
  -25.1315  -36.1818   25.0787 H   0  0  0  0  0  0
  -20.9971  -28.3110   24.1669 H   0  0  0  0  0  0
  -20.5038  -26.2137   23.4059 H   0  0  0  0  0  0
  -21.6493  -26.7021   22.1893 H   0  0  0  0  0  0
  -19.7144  -25.6449   21.1181 H   0  0  0  0  0  0
  -19.7320  -27.3436   20.6839 H   0  0  0  0  0  0
  -17.4667  -26.7577   21.3115 H   0  0  0  0  0  0
  -17.9779  -26.0034   22.8077 H   0  0  0  0  0  0
  -19.8059  -30.7077   24.2570 H   0  0  0  0  0  0
  -17.5116  -31.6157   24.5463 H   0  0  0  0  0  0
  -15.5428  -30.3118   23.7732 H   0  0  0  0  0  0
  -15.8642  -28.1098   22.6868 H   0  0  0  0  0  0
  -24.5917  -30.7062   25.7796 H   0  0  0  0  0  0
  -24.9040  -32.2917   26.4877 H   0  0  0  0  0  0
  -25.8160  -30.8910   27.0148 H   0  0  0  0  0  0
  -26.2780  -29.6803   24.1039 H   0  0  0  0  0  0
  -27.4061  -29.7212   25.4372 H   0  0  0  0  0  0
  -27.8643  -30.4292   23.9093 H   0  0  0  0  0  0
  -27.2547  -33.3552   26.2138 H   0  0  0  0  0  0
  -28.3890  -32.6930   25.0415 H   0  0  0  0  0  0
  -28.0643  -31.8401   26.5370 H   0  0  0  0  0  0
  -28.2545  -38.0108   24.7474 H   0  0  0  0  0  0
  -28.1092  -36.2617   24.6294 H   0  0  0  0  0  0
  -27.2293  -37.1486   25.8851 H   0  0  0  0  0  0
  -20.9328  -29.7960   21.6511 H   0  0  0  0  0  0
  -26.0106  -38.2810   24.1399 H   0  0  0  0  0  0
  -28.5564  -17.5594   22.0556 H   0  0  0  0  0  0
  -27.1371  -19.0588   18.2663 H   0  0  0  0  0  0
  -29.6275  -15.5826   18.3420 H   0  0  0  0  0  0
  -26.6312  -24.9124   21.4030 H   0  0  0  0  0  0
  -28.1435  -25.2357   22.1885 H   0  0  0  0  0  0
  -27.8644  -24.9241   19.1465 H   0  0  0  0  0  0
  -29.3753  -24.9583   20.0105 H   0  0  0  0  0  0
  -28.8437  -22.8827   20.9674 H   0  0  0  0  0  0
  -28.1426  -22.9633   22.5774 H   0  0  0  0  0  0
  -25.8409  -18.2029   22.0160 H   0  0  0  0  0  0
  -25.4882  -19.7979   22.3205 H   0  0  0  0  0  0
  -30.4972  -15.9762   21.8217 H   0  0  0  0  0  0
  1 25  1  0  0  0
  1 30  2  0  0  0
  1 83  1  0  0  0
  2  3  1  0  0  0
  2 25  1  0  0  0
  2 88  1  0  0  0
  2 89  1  0  0  0
  3  4  1  0  0  0
  3 90  1  0  0  0
  3 91  1  0  0  0
  4  5  1  0  0  0
  4 92  1  0  0  0
  4 93  1  0  0  0
  5  6  1  0  0  0
  5 26  1  0  0  0
  5 94  1  0  0  0
  6 25  1  0  0  0
  6 95  1  0  0  0
  6 96  1  0  0  0
  7  8  2  0  0  0
  7 26  1  0  0  0
  7 29  1  0  0  0
  8  9  1  0  0  0
  8 22  1  0  0  0
  9 10  1  0  0  0
  9 27  2  0  0  0
 10 11  2  0  0  0
 10 15  1  0  0  0
 11 12  1  0  0  0
 11 97  1  0  0  0
 12 13  2  0  0  0
 12 98  1  0  0  0
 13 14  1  0  0  0
 13 31  1  0  0  0
 14 15  2  0  0  0
 14 99  1  0  0  0
 15100  1  0  0  0
 16 17  2  0  0  0
 16 21  1  0  0  0
 16 31  1  0  0  0
 17 18  1  0  0  0
 17101  1  0  0  0
 18 19  2  0  0  0
 18102  1  0  0  0
 19 20  1  0  0  0
 19 24  1  0  0  0
 20 21  2  0  0  0
 20103  1  0  0  0
 21 23  1  0  0  0
 22 28  1  0  0  0
 22 32  2  0  0  0
 26 27  1  0  0  0
 28104  1  0  0  0
 28105  1  0  0  0
 29106  1  0  0  0
 29107  1  0  0  0
 33 34  1  0  0  0
 33 66  1  0  0  0
 33 70  2  0  0  0
 34 36  1  0  0  0
 34 59  1  0  0  0
 34108  1  0  0  0
 35 44  2  0  0  0
 35 45  1  0  0  0
 35 68  1  0  0  0
 36 56  1  0  0  0
 36109  1  0  0  0
 37 39  1  0  0  0
 37 47  1  0  0  0
 37 66  1  0  0  0
 37110  1  0  0  0
 38 43  2  0  0  0
 38 46  1  0  0  0
 38 47  1  0  0  0
 39 64  1  0  0  0
 39 67  2  0  0  0
 40 52  1  0  0  0
 40 53  2  0  0  0
 40 58  1  0  0  0
 41111  1  0  0  0
 41112  1  0  0  0
 41113  1  0  0  0
 41 48  1  0  0  0
 42 43  1  0  0  0
 42 66  1  0  0  0
 42114  1  0  0  0
 42115  1  0  0  0
 43 44  1  0  0  0
 44116  1  0  0  0
 45 46  2  0  0  0
 45117  1  0  0  0
 46118  1  0  0  0
 47119  1  0  0  0
 47120  1  0  0  0
 48 56  1  0  0  0
 48 65  1  0  0  0
 48121  1  0  0  0
 49 50  1  0  0  0
 49 53  1  0  0  0
 49 64  1  0  0  0
 49122  1  0  0  0
 50 51  1  0  0  0
 50123  1  0  0  0
 50124  1  0  0  0
 51 52  1  0  0  0
 51125  1  0  0  0
 51126  1  0  0  0
 52127  1  0  0  0
 52128  1  0  0  0
 53 54  1  0  0  0
 54 55  2  0  0  0
 54129  1  0  0  0
 55 57  1  0  0  0
 55130  1  0  0  0
 56 69  2  0  0  0
 57 58  2  0  0  0
 57131  1  0  0  0
 58132  1  0  0  0
 59 60  1  0  0  0
 59 61  1  0  0  0
 59 62  1  0  0  0
 60133  1  0  0  0
 60134  1  0  0  0
 60135  1  0  0  0
 61136  1  0  0  0
 61137  1  0  0  0
 61138  1  0  0  0
 62139  1  0  0  0
 62140  1  0  0  0
 62141  1  0  0  0
 63 65  1  0  0  0
 63142  1  0  0  0
 63143  1  0  0  0
 63144  1  0  0  0
 64145  1  0  0  0
 65146  1  0  0  0
 68 79  1  0  0  0
 71 74  2  0  0  0
 71 75  1  0  0  0
 71147  1  0  0  0
 72 74  1  0  0  0
 72 76  2  0  0  0
 72148  1  0  0  0
 73 75  2  0  0  0
 73 76  1  0  0  0
 73149  1  0  0  0
 74 77  1  0  0  0
 75 83  1  0  0  0
 76 86  1  0  0  0
 77 81  2  0  0  0
 77 82  1  0  0  0
 78 79  1  0  0  0
 78 80  1  0  0  0
 78150  1  0  0  0
 78151  1  0  0  0
 79152  1  0  0  0
 79153  1  0  0  0
 80154  1  0  0  0
 80155  1  0  0  0
 80 87  1  0  0  0
 81 87  1  0  0  0
 82156  1  0  0  0
 82157  1  0  0  0
 83158  1  0  0  0
 84 87  2  0  0  0
 85 87  2  0  0  0
M  ISO  4   1 100  68 101  79 101  83 100
M  END
> <chiral flag>
0

> <version>
0

> <s_m_source_file>
/data/baiqing/PycharmProjects/Reinvent-master-3.2/result/LINK_invent/BTK/process_docking_weight1_custom_product_contain_oxygen_bond_distance_aromatic_linkinvent_7_9_3/rearranged_h_0145.sdf

> <i_m_source_file_index>
85

> <r_mmod_Potential_Energy-OPLS-2005>
-215.283325195312

> <r_mmod_Stretch_Energy-OPLS-2005>
36.9540977478027

> <r_mmod_Bend_Energy-OPLS-2005>
115.685882568359

> <r_mmod_Torsional_Energy-OPLS-2005>
270.426635742188

> <r_mmod_Improper_Torsional_Energy-OPLS-2005>
6.85638618469238

> <r_mmod_Van_der_Waal_Energy-OPLS-2005>
145.770660400391

> <r_mmod_Electrostatic_Energy-OPLS-2005>
-569.062255859375

> <r_mmod_Solvation_Energy-OPLS-2005>
-238.982421875

> <b_mmod_Minimization_Converged-OPLS-2005>
0

> <r_mmod_RMS_Derivative-OPLS-2005>
8.15188121795654

$$$$
85
                    3D
 Structure written by MMmdl.
180188  0  0  1  0            999 V2000
  -30.7112  -14.4052   20.6387 C   0  0  0  0  0  0
  -30.4276  -12.2854   19.4066 C   0  0  0  0  0  0
  -29.4918  -12.5248   18.2028 C   0  0  0  0  0  0
  -28.0127  -12.3852   18.6129 C   0  0  0  0  0  0
  -27.6729  -13.1984   19.8876 C   0  0  2  0  0  0
  -28.7091  -12.9195   20.9996 C   0  0  0  0  0  0
  -25.2618  -13.8160   20.5611 C   0  0  0  0  0  0
  -24.1858  -13.0447   20.9140 C   0  0  0  0  0  0
  -24.6405  -11.6913   20.8715 C   0  0  0  0  0  0
  -23.9045  -10.4302   21.0387 C   0  0  0  0  0  0
  -24.3598   -9.4236   21.9182 C   0  0  0  0  0  0
  -23.6312   -8.2250   22.0755 C   0  0  0  0  0  0
  -22.4295   -8.0272   21.3544 C   0  0  0  0  0  0
  -21.9910   -9.0241   20.4651 C   0  0  0  0  0  0
  -22.7209  -10.2136   20.3060 C   0  0  0  0  0  0
  -21.6860   -6.0729   22.5261 C   0  0  0  0  0  0
  -21.4019   -6.5642   23.8191 C   0  0  0  0  0  0
  -21.3657   -5.6798   24.9158 C   0  0  0  0  0  0
  -21.6041   -4.3055   24.7207 C   0  0  0  0  0  0
  -21.8831   -3.8142   23.4331 C   0  0  0  0  0  0
  -21.9205   -4.6957   22.3387 C   0  0  0  0  0  0
  -22.7886  -13.5251   21.1835 C   0  0  0  0  0  0
  -22.1680   -4.2144   21.0962 F   0  0  0  0  0  0
  -21.5633   -3.4546   25.7723 F   0  0  0  0  0  0
  -30.0537  -13.2261   20.4714 N   0  0  0  0  0  0
  -26.3075  -12.9318   20.3405 N   0  0  0  0  0  0
  -25.9332  -11.6484   20.5779 N   0  0  0  0  0  0
  -22.0528  -12.8250   22.0405 N   0  0  0  0  0  0
  -25.4313  -15.1872   20.3962 N   0  0  0  0  0  0
  -31.7609  -14.6923   20.0538 O   0  0  0  0  0  0
  -21.6664   -6.8877   21.4225 O   0  0  0  0  0  0
  -22.3553  -14.5555   20.6693 O   0  0  0  0  0  0
  -24.6132  -31.8682   23.2108 C   0  0  0  0  0  0
  -25.9028  -32.4823   23.8396 C   0  0  1  0  0  0
  -27.2430  -27.4423   20.0805 C   0  0  0  0  0  0
  -25.5896  -33.8621   24.2332 N   0  0  0  0  0  0
  -23.4005  -30.4914   21.5520 C   0  0  2  0  0  0
  -24.8456  -28.9533   20.1168 C   0  0  0  0  0  0
  -22.7398  -29.4656   22.5005 C   0  0  0  0  0  0
  -18.0267  -28.1373   22.8495 C   0  0  0  0  0  0
  -24.1487  -36.7304   23.2641 C   0  0  0  0  0  0
  -25.9286  -30.8317   21.3636 C   0  0  0  0  0  0
  -26.0042  -29.4660   20.7114 C   0  0  0  0  0  0
  -27.2007  -28.7158   20.6933 C   0  0  0  0  0  0
  -26.0593  -26.9348   19.4933 C   0  0  0  0  0  0
  -24.8673  -27.6855   19.5096 C   0  0  0  0  0  0
  -23.6073  -29.8210   20.1672 C   0  0  0  0  0  0
  -25.4110  -36.3115   24.0344 C   0  0  1  0  0  0
  -20.5857  -28.3652   23.1332 C   0  0  2  0  0  0
  -20.6758  -26.9390   22.5428 C   0  0  0  0  0  0
  -19.5747  -26.6376   21.5215 C   0  0  0  0  0  0
  -18.1919  -26.7921   22.1615 C   0  0  0  0  0  0
  -19.1516  -28.8829   23.2911 C   0  0  0  0  0  0
  -18.9445  -30.1437   23.8916 C   0  0  0  0  0  0
  -17.6448  -30.6581   24.0566 C   0  0  0  0  0  0
  -25.9036  -34.9479   23.5136 C   0  0  0  0  0  0
  -16.5338  -29.9082   23.6325 C   0  0  0  0  0  0
  -16.7257  -28.6500   23.0347 C   0  0  0  0  0  0
  -26.4461  -31.6603   25.0720 C   0  0  0  0  0  0
  -25.3734  -31.3703   26.1476 C   0  0  0  0  0  0
  -27.0284  -30.3050   24.6081 C   0  0  0  0  0  0
  -27.6050  -32.4316   25.7467 C   0  0  0  0  0  0
  -27.5584  -37.1807   24.8468 C   0  0  0  0  0  0
  -21.4129  -29.3019   22.3738 N   0  0  0  0  0  0
  -26.4295  -37.3797   23.9416 N   0  0  0  0  0  0
  -24.6659  -31.0784   22.1005 N   0  0  0  0  0  0
  -23.4176  -28.8199   23.3040 O   0  0  0  0  0  0
  -28.4421  -26.7581   20.0813 O   0  0  0  0  0  0
  -26.5594  -34.8929   22.4693 O   0  0  0  0  0  0
  -23.5331  -32.1423   23.7519 O   0  0  0  0  0  0
  -28.2672  -16.7763   21.6461 C   0  0  0  0  0  0
  -27.5890  -17.9503   21.2722 C   0  0  0  0  0  0
  -30.1921  -17.4480   20.3076 C   0  0  0  0  0  0
  -29.5550  -16.4969   21.1433 C   0  0  0  0  0  0
  -29.5080  -18.6293   19.9361 C   0  0  0  0  0  0
  -28.1946  -18.8737   20.3899 C   0  0  0  0  0  0
  -29.9736  -24.9648   19.4836 C   0  0  0  0  0  0
  -26.0658  -21.1008   17.6800 C   0  0  0  0  0  0
  -24.1483  -21.4368   19.2898 C   0  0  0  0  0  0
  -29.9099  -24.4961   16.9754 C   0  0  0  0  0  0
  -32.0354  -24.2031   18.2156 C   0  0  0  0  0  0
  -28.5118  -25.4590   19.4756 C   0  0  0  0  0  0
  -30.1413  -22.5448   18.5560 C   0  0  0  0  0  0
  -31.0918  -20.4219   19.7133 C   0  0  0  0  0  0
  -26.1670  -20.0948   20.0132 C   0  0  0  0  0  0
  -25.6697  -21.2724   19.1563 C   0  0  0  0  0  0
  -30.6026  -21.8791   19.8808 C   0  0  2  0  0  0
  -30.4958  -24.0475   18.3365 C   0  0  0  0  0  0
  -30.1226  -15.2450   21.5013 N   0  0  0  0  0  0
  -30.0829  -19.5763   19.0821 N   0  0  0  0  0  0
  -30.7257  -25.3003   20.4060 O   0  0  0  0  0  0
  -29.5294  -21.8524   20.7974 O   0  0  0  0  0  0
  -27.5854  -20.0277   19.9436 O   0  0  0  0  0  0
  -31.4703  -12.3946   19.1056 H   0  0  0  0  0  0
  -30.3302  -11.2601   19.7679 H   0  0  0  0  0  0
  -29.7215  -11.8229   17.4003 H   0  0  0  0  0  0
  -29.6650  -13.5220   17.7946 H   0  0  0  0  0  0
  -27.8071  -11.3278   18.7832 H   0  0  0  0  0  0
  -27.3663  -12.6912   17.7900 H   0  0  0  0  0  0
  -27.7396  -14.2541   19.6238 H   0  0  0  0  0  0
  -28.6720  -11.8699   21.2955 H   0  0  0  0  0  0
  -28.4552  -13.4712   21.9045 H   0  0  0  0  0  0
  -25.2725   -9.5753   22.4771 H   0  0  0  0  0  0
  -24.0049   -7.4645   22.7466 H   0  0  0  0  0  0
  -21.0849   -8.8736   19.8957 H   0  0  0  0  0  0
  -22.3636  -10.9678   19.6187 H   0  0  0  0  0  0
  -21.2016   -7.6150   23.9683 H   0  0  0  0  0  0
  -21.1473   -6.0534   25.9063 H   0  0  0  0  0  0
  -22.0624   -2.7602   23.2818 H   0  0  0  0  0  0
  -22.4155  -11.9896   22.4752 H   0  0  0  0  0  0
  -21.1138  -13.1260   22.2605 H   0  0  0  0  0  0
  -24.6598  -15.8387   20.4919 H   0  0  0  0  0  0
  -26.2916  -15.6330   20.1035 H   0  0  0  0  0  0
  -26.7090  -32.5536   23.1154 H   0  0  0  0  0  0
  -25.0082  -33.9788   25.0503 H   0  0  0  0  0  0
  -22.6889  -31.3083   21.4148 H   0  0  0  0  0  0
  -23.3758  -35.9627   23.3319 H   0  0  0  0  0  0
  -24.3577  -36.8897   22.2051 H   0  0  0  0  0  0
  -23.7224  -37.6508   23.6639 H   0  0  0  0  0  0
  -26.0424  -31.5977   20.5951 H   0  0  0  0  0  0
  -26.8160  -30.8836   21.9828 H   0  0  0  0  0  0
  -28.0974  -29.1135   21.1477 H   0  0  0  0  0  0
  -26.0336  -25.9661   19.0167 H   0  0  0  0  0  0
  -23.9744  -27.2827   19.0520 H   0  0  0  0  0  0
  -23.7136  -30.5949   19.4062 H   0  0  0  0  0  0
  -22.7302  -29.2410   19.8745 H   0  0  0  0  0  0
  -25.1286  -36.1985   25.0836 H   0  0  0  0  0  0
  -20.9951  -28.3213   24.1453 H   0  0  0  0  0  0
  -20.5656  -26.2257   23.3610 H   0  0  0  0  0  0
  -21.6633  -26.7436   22.1228 H   0  0  0  0  0  0
  -19.6910  -25.6290   21.1235 H   0  0  0  0  0  0
  -19.6697  -27.3193   20.6754 H   0  0  0  0  0  0
  -17.4199  -26.6689   21.4003 H   0  0  0  0  0  0
  -18.0303  -26.0052   22.8998 H   0  0  0  0  0  0
  -19.7921  -30.7245   24.2293 H   0  0  0  0  0  0
  -17.5006  -31.6263   24.5165 H   0  0  0  0  0  0
  -15.5340  -30.2990   23.7642 H   0  0  0  0  0  0
  -15.8657  -28.0827   22.7050 H   0  0  0  0  0  0
  -24.5926  -30.7020   25.7825 H   0  0  0  0  0  0
  -24.8897  -32.2850   26.4913 H   0  0  0  0  0  0
  -25.8100  -30.8896   27.0240 H   0  0  0  0  0  0
  -26.2812  -29.6819   24.1151 H   0  0  0  0  0  0
  -27.4080  -29.7279   25.4522 H   0  0  0  0  0  0
  -27.8640  -30.4378   23.9204 H   0  0  0  0  0  0
  -27.2688  -33.3620   26.2057 H   0  0  0  0  0  0
  -28.3843  -32.6866   25.0272 H   0  0  0  0  0  0
  -28.0732  -31.8428   26.5365 H   0  0  0  0  0  0
  -28.2621  -38.0088   24.7514 H   0  0  0  0  0  0
  -28.1062  -36.2622   24.6299 H   0  0  0  0  0  0
  -27.2306  -37.1467   25.8873 H   0  0  0  0  0  0
  -20.9284  -29.8736   21.6961 H   0  0  0  0  0  0
  -26.0194  -38.2880   24.1413 H   0  0  0  0  0  0
  -27.7684  -16.0735   22.2993 H   0  0  0  0  0  0
  -26.5990  -18.1172   21.6692 H   0  0  0  0  0  0
  -31.1847  -17.2649   19.9214 H   0  0  0  0  0  0
  -25.6926  -21.9229   17.0679 H   0  0  0  0  0  0
  -25.6648  -20.1737   17.2691 H   0  0  0  0  0  0
  -27.1485  -21.0700   17.5585 H   0  0  0  0  0  0
  -23.7884  -22.2888   18.7121 H   0  0  0  0  0  0
  -23.8562  -21.5965   20.3282 H   0  0  0  0  0  0
  -23.6185  -20.5519   18.9351 H   0  0  0  0  0  0
  -30.0036  -25.5735   16.8288 H   0  0  0  0  0  0
  -28.8555  -24.2362   16.8745 H   0  0  0  0  0  0
  -30.4249  -24.0143   16.1432 H   0  0  0  0  0  0
  -32.3114  -25.2335   17.9870 H   0  0  0  0  0  0
  -32.4400  -23.5806   17.4171 H   0  0  0  0  0  0
  -32.5653  -23.9322   19.1286 H   0  0  0  0  0  0
  -27.8997  -24.7500   20.0337 H   0  0  0  0  0  0
  -28.1272  -25.5073   18.4594 H   0  0  0  0  0  0
  -29.0684  -22.3958   18.4250 H   0  0  0  0  0  0
  -30.5902  -21.9917   17.7285 H   0  0  0  0  0  0
  -31.3980  -20.0160   20.6793 H   0  0  0  0  0  0
  -31.9868  -20.4120   19.0893 H   0  0  0  0  0  0
  -25.7229  -19.1664   19.6502 H   0  0  0  0  0  0
  -25.8591  -20.2293   21.0510 H   0  0  0  0  0  0
  -26.1369  -22.1858   19.5291 H   0  0  0  0  0  0
  -31.4113  -22.4487   20.3387 H   0  0  0  0  0  0
  -29.5415  -14.7340   22.1473 H   0  0  0  0  0  0
  -29.3550  -20.1398   18.6515 H   0  0  0  0  0  0
  -28.9793  -21.1104   20.5481 H   0  0  0  0  0  0
  1 25  1  0  0  0
  1 30  2  0  0  0
  1 89  1  0  0  0
  2  3  1  0  0  0
  2 25  1  0  0  0
  2 94  1  0  0  0
  2 95  1  0  0  0
  3  4  1  0  0  0
  3 96  1  0  0  0
  3 97  1  0  0  0
  4  5  1  0  0  0
  4 98  1  0  0  0
  4 99  1  0  0  0
  5  6  1  0  0  0
  5 26  1  0  0  0
  5100  1  0  0  0
  6 25  1  0  0  0
  6101  1  0  0  0
  6102  1  0  0  0
  7  8  2  0  0  0
  7 26  1  0  0  0
  7 29  1  0  0  0
  8  9  1  0  0  0
  8 22  1  0  0  0
  9 10  1  0  0  0
  9 27  2  0  0  0
 10 11  2  0  0  0
 10 15  1  0  0  0
 11 12  1  0  0  0
 11103  1  0  0  0
 12 13  2  0  0  0
 12104  1  0  0  0
 13 14  1  0  0  0
 13 31  1  0  0  0
 14 15  2  0  0  0
 14105  1  0  0  0
 15106  1  0  0  0
 16 17  2  0  0  0
 16 21  1  0  0  0
 16 31  1  0  0  0
 17 18  1  0  0  0
 17107  1  0  0  0
 18 19  2  0  0  0
 18108  1  0  0  0
 19 20  1  0  0  0
 19 24  1  0  0  0
 20 21  2  0  0  0
 20109  1  0  0  0
 21 23  1  0  0  0
 22 28  1  0  0  0
 22 32  2  0  0  0
 26 27  1  0  0  0
 28110  1  0  0  0
 28111  1  0  0  0
 29112  1  0  0  0
 29113  1  0  0  0
 33 34  1  0  0  0
 33 66  1  0  0  0
 33 70  2  0  0  0
 34 36  1  0  0  0
 34 59  1  0  0  0
 34114  1  0  0  0
 35 44  2  0  0  0
 35 45  1  0  0  0
 35 68  1  0  0  0
 36 56  1  0  0  0
 36115  1  0  0  0
 37 39  1  0  0  0
 37 47  1  0  0  0
 37 66  1  0  0  0
 37116  1  0  0  0
 38 43  2  0  0  0
 38 46  1  0  0  0
 38 47  1  0  0  0
 39 64  1  0  0  0
 39 67  2  0  0  0
 40 52  1  0  0  0
 40 53  2  0  0  0
 40 58  1  0  0  0
 41117  1  0  0  0
 41118  1  0  0  0
 41119  1  0  0  0
 41 48  1  0  0  0
 42 43  1  0  0  0
 42 66  1  0  0  0
 42120  1  0  0  0
 42121  1  0  0  0
 43 44  1  0  0  0
 44122  1  0  0  0
 45 46  2  0  0  0
 45123  1  0  0  0
 46124  1  0  0  0
 47125  1  0  0  0
 47126  1  0  0  0
 48 56  1  0  0  0
 48 65  1  0  0  0
 48127  1  0  0  0
 49 50  1  0  0  0
 49 53  1  0  0  0
 49 64  1  0  0  0
 49128  1  0  0  0
 50 51  1  0  0  0
 50129  1  0  0  0
 50130  1  0  0  0
 51 52  1  0  0  0
 51131  1  0  0  0
 51132  1  0  0  0
 52133  1  0  0  0
 52134  1  0  0  0
 53 54  1  0  0  0
 54 55  2  0  0  0
 54135  1  0  0  0
 55 57  1  0  0  0
 55136  1  0  0  0
 56 69  2  0  0  0
 57 58  2  0  0  0
 57137  1  0  0  0
 58138  1  0  0  0
 59 60  1  0  0  0
 59 61  1  0  0  0
 59 62  1  0  0  0
 60139  1  0  0  0
 60140  1  0  0  0
 60141  1  0  0  0
 61142  1  0  0  0
 61143  1  0  0  0
 61144  1  0  0  0
 62145  1  0  0  0
 62146  1  0  0  0
 62147  1  0  0  0
 63 65  1  0  0  0
 63148  1  0  0  0
 63149  1  0  0  0
 63150  1  0  0  0
 64151  1  0  0  0
 65152  1  0  0  0
 68 82  1  0  0  0
 71 72  2  0  0  0
 71 74  1  0  0  0
 71153  1  0  0  0
 72 76  1  0  0  0
 72154  1  0  0  0
 73 74  2  0  0  0
 73 75  1  0  0  0
 73155  1  0  0  0
 74 89  1  0  0  0
 75 76  2  0  0  0
 75 90  1  0  0  0
 76 93  1  0  0  0
 77 82  1  0  0  0
 77 88  1  0  0  0
 77 91  2  0  0  0
 78156  1  0  0  0
 78157  1  0  0  0
 78158  1  0  0  0
 78 86  1  0  0  0
 79 86  1  0  0  0
 79159  1  0  0  0
 79160  1  0  0  0
 79161  1  0  0  0
 80162  1  0  0  0
 80163  1  0  0  0
 80164  1  0  0  0
 80 88  1  0  0  0
 81 88  1  0  0  0
 81165  1  0  0  0
 81166  1  0  0  0
 81167  1  0  0  0
 82168  1  0  0  0
 82169  1  0  0  0
 83 87  1  0  0  0
 83 88  1  0  0  0
 83170  1  0  0  0
 83171  1  0  0  0
 84 87  1  0  0  0
 84 90  1  0  0  0
 84172  1  0  0  0
 84173  1  0  0  0
 85 86  1  0  0  0
 85 93  1  0  0  0
 85174  1  0  0  0
 85175  1  0  0  0
 86176  1  0  0  0
 87 92  1  0  0  0
 87177  1  0  0  0
 89178  1  0  0  0
 90179  1  0  0  0
 92180  1  0  0  0
M  ISO  4   1 100  68 101  82 101  89 100
M  END
> <chiral flag>
0

> <version>
0

> <s_m_source_file>
/data/baiqing/PycharmProjects/Reinvent-master-3.2/result/LINK_invent/BTK/process_docking_weight1_custom_product_contain_oxygen_bond_distance_aromatic_linkinvent_7_9_3/rearranged_h_0145.sdf

> <i_m_source_file_index>
86

> <r_mmod_Potential_Energy-OPLS-2005>
-25.4983730316162

> <r_mmod_Stretch_Energy-OPLS-2005>
40.2111663818359

> <r_mmod_Bend_Energy-OPLS-2005>
118.432334899902

> <r_mmod_Torsional_Energy-OPLS-2005>
294.031402587891

> <r_mmod_Improper_Torsional_Energy-OPLS-2005>
11.3800182342529

> <r_mmod_Van_der_Waal_Energy-OPLS-2005>
154.380996704102

> <r_mmod_Electrostatic_Energy-OPLS-2005>
-409.991882324219

> <r_mmod_Solvation_Energy-OPLS-2005>
-242.723602294922

> <b_mmod_Minimization_Converged-OPLS-2005>
0

> <r_mmod_RMS_Derivative-OPLS-2005>
2.19618320465088

$$$$
86
                    3D
 Structure written by MMmdl.
192200  0  0  1  0            999 V2000
  -30.7210  -14.4692   20.4883 C   0  0  0  0  0  0
  -30.4036  -12.2853   19.4354 C   0  0  0  0  0  0
  -29.4891  -12.4740   18.2091 C   0  0  0  0  0  0
  -28.0125  -12.3446   18.6281 C   0  0  0  0  0  0
  -27.6534  -13.2046   19.8695 C   0  0  2  0  0  0
  -28.6970  -13.0403   20.9978 C   0  0  0  0  0  0
  -25.2588  -13.8137   20.5702 C   0  0  0  0  0  0
  -24.1844  -13.0439   20.9207 C   0  0  0  0  0  0
  -24.6374  -11.6886   20.8719 C   0  0  0  0  0  0
  -23.9023  -10.4295   21.0393 C   0  0  0  0  0  0
  -24.3578   -9.4225   21.9177 C   0  0  0  0  0  0
  -23.6280   -8.2239   22.0751 C   0  0  0  0  0  0
  -22.4263   -8.0268   21.3528 C   0  0  0  0  0  0
  -21.9878   -9.0254   20.4630 C   0  0  0  0  0  0
  -22.7192  -10.2149   20.3040 C   0  0  0  0  0  0
  -21.6874   -6.0696   22.5268 C   0  0  0  0  0  0
  -21.4029   -6.5613   23.8194 C   0  0  0  0  0  0
  -21.3668   -5.6779   24.9172 C   0  0  0  0  0  0
  -21.6036   -4.3032   24.7257 C   0  0  0  0  0  0
  -21.8815   -3.8114   23.4377 C   0  0  0  0  0  0
  -21.9208   -4.6922   22.3422 C   0  0  0  0  0  0
  -22.7880  -13.5258   21.1906 C   0  0  0  0  0  0
  -22.1669   -4.2074   21.1005 F   0  0  0  0  0  0
  -21.5650   -3.4531   25.7783 F   0  0  0  0  0  0
  -30.0178  -13.3060   20.4212 N   0  0  0  0  0  0
  -26.3007  -12.9286   20.3375 N   0  0  0  0  0  0
  -25.9298  -11.6450   20.5776 N   0  0  0  0  0  0
  -22.0528  -12.8208   22.0429 N   0  0  0  0  0  0
  -25.4359  -15.1823   20.4145 N   0  0  0  0  0  0
  -31.9212  -14.5391   20.2343 O   0  0  0  0  0  0
  -21.6652   -6.8844   21.4217 O   0  0  0  0  0  0
  -22.3524  -14.5575   20.6790 O   0  0  0  0  0  0
  -24.6130  -31.8695   23.2124 C   0  0  0  0  0  0
  -25.9041  -32.4836   23.8381 C   0  0  1  0  0  0
  -27.2346  -27.4424   20.1191 C   0  0  0  0  0  0
  -25.5907  -33.8628   24.2335 N   0  0  0  0  0  0
  -23.3994  -30.4916   21.5509 C   0  0  2  0  0  0
  -24.8499  -28.9552   20.1172 C   0  0  0  0  0  0
  -22.7391  -29.4667   22.5008 C   0  0  0  0  0  0
  -18.0280  -28.1368   22.8491 C   0  0  0  0  0  0
  -24.1485  -36.7329   23.2631 C   0  0  0  0  0  0
  -25.9223  -30.8449   21.3518 C   0  0  0  0  0  0
  -26.0056  -29.4711   20.7186 C   0  0  0  0  0  0
  -27.2028  -28.7214   20.7172 C   0  0  0  0  0  0
  -26.0685  -26.9433   19.5007 C   0  0  0  0  0  0
  -24.8770  -27.6911   19.5005 C   0  0  0  0  0  0
  -23.6071  -29.8188   20.1667 C   0  0  0  0  0  0
  -25.4108  -36.3118   24.0323 C   0  0  1  0  0  0
  -20.5868  -28.3662   23.1336 C   0  0  2  0  0  0
  -20.6747  -26.9397   22.5436 C   0  0  0  0  0  0
  -19.5739  -26.6385   21.5206 C   0  0  0  0  0  0
  -18.1916  -26.7920   22.1622 C   0  0  0  0  0  0
  -19.1514  -28.8837   23.2922 C   0  0  0  0  0  0
  -18.9442  -30.1442   23.8937 C   0  0  0  0  0  0
  -17.6435  -30.6576   24.0572 C   0  0  0  0  0  0
  -25.9023  -34.9477   23.5129 C   0  0  0  0  0  0
  -16.5342  -29.9079   23.6311 C   0  0  0  0  0  0
  -16.7263  -28.6502   23.0332 C   0  0  0  0  0  0
  -26.4456  -31.6571   25.0677 C   0  0  0  0  0  0
  -25.3712  -31.3647   26.1415 C   0  0  0  0  0  0
  -27.0248  -30.3031   24.5952 C   0  0  0  0  0  0
  -27.6059  -32.4237   25.7454 C   0  0  0  0  0  0
  -27.5583  -37.1833   24.8462 C   0  0  0  0  0  0
  -21.4126  -29.3043   22.3759 N   0  0  0  0  0  0
  -26.4305  -37.3799   23.9384 N   0  0  0  0  0  0
  -24.6651  -31.0817   22.0994 N   0  0  0  0  0  0
  -23.4176  -28.8183   23.3025 O   0  0  0  0  0  0
  -28.3977  -26.7164   20.0738 O   0  0  0  0  0  0
  -26.5589  -34.8921   22.4689 O   0  0  0  0  0  0
  -23.5355  -32.1432   23.7577 O   0  0  0  0  0  0
  -28.2223  -17.1449   20.2788 C   0  0  0  0  0  0
  -29.0479  -16.3003   20.9672 C   0  0  0  0  0  0
  -27.9535  -17.2363   22.7270 C   0  0  0  0  0  0
  -30.1918  -22.0193   21.1781 C   0  0  0  0  0  0
  -30.7534  -18.3780   24.8131 C   0  0  0  0  0  0
  -26.1051  -17.7553   24.3228 C   0  0  0  0  0  0
  -28.0402  -16.5081   25.1344 C   0  0  0  0  0  0
  -33.8253  -21.6897   23.6812 C   0  0  0  0  0  0
  -32.3185  -22.5203   25.4964 C   0  0  0  0  0  0
  -32.4114  -23.6902   23.3324 C   0  0  0  0  0  0
  -27.5553  -23.6367   19.9814 C   0  0  0  0  0  0
  -29.8357  -24.4862   19.2836 C   0  0  0  0  0  0
  -29.4897  -23.3446   21.5974 C   0  0  0  0  0  0
  -30.1281  -20.8124   24.3023 C   0  0  0  0  0  0
  -28.2863  -19.0067   24.5373 C   0  0  0  0  0  0
  -28.5628  -25.6937   21.0739 C   0  0  0  0  0  0
  -29.7467  -19.3098   24.0925 C   0  0  2  0  0  0
  -31.3342  -21.2781   23.4207 C   0  0  2  0  0  0
  -27.6383  -17.6330   24.1536 C   0  0  0  0  0  0
  -32.4268  -22.2902   23.9713 C   0  0  0  0  0  0
  -28.8686  -24.2746   20.4788 C   0  0  0  0  0  0
  -28.9094  -16.3622   22.3578 N   0  0  0  0  0  0
  -30.0265  -15.5893   20.2430 N   0  0  0  0  0  0
  -31.0424  -21.3355   21.9761 N   0  0  0  0  0  0
  -30.0180  -21.5667   20.0471 O   0  0  0  0  0  0
  -27.1975  -18.0477   21.3497 S   0  0  0  0  0  0
  -31.4491  -12.3553   19.1311 H   0  0  0  0  0  0
  -30.2801  -11.2856   19.8552 H   0  0  0  0  0  0
  -29.7271  -11.7299   17.4476 H   0  0  0  0  0  0
  -29.6614  -13.4474   17.7476 H   0  0  0  0  0  0
  -27.8304  -11.2930   18.8462 H   0  0  0  0  0  0
  -27.3577  -12.5973   17.7958 H   0  0  0  0  0  0
  -27.6752  -14.2414   19.5431 H   0  0  0  0  0  0
  -28.6652  -12.0327   21.4145 H   0  0  0  0  0  0
  -28.4799  -13.7113   21.8276 H   0  0  0  0  0  0
  -25.2735   -9.5735   22.4723 H   0  0  0  0  0  0
  -24.0004   -7.4640   22.7470 H   0  0  0  0  0  0
  -21.0812   -8.8791   19.8928 H   0  0  0  0  0  0
  -22.3671  -10.9692   19.6143 H   0  0  0  0  0  0
  -21.1998   -7.6120   23.9669 H   0  0  0  0  0  0
  -21.1503   -6.0528   25.9066 H   0  0  0  0  0  0
  -22.0578   -2.7555   23.2932 H   0  0  0  0  0  0
  -22.4175  -11.9863   22.4788 H   0  0  0  0  0  0
  -21.1135  -13.1183   22.2609 H   0  0  0  0  0  0
  -24.6788  -15.8438   20.5424 H   0  0  0  0  0  0
  -26.3199  -15.6251   20.1907 H   0  0  0  0  0  0
  -26.7139  -32.5577   23.1172 H   0  0  0  0  0  0
  -25.0071  -33.9766   25.0501 H   0  0  0  0  0  0
  -22.6867  -31.3082   21.4134 H   0  0  0  0  0  0
  -23.3719  -35.9693   23.3305 H   0  0  0  0  0  0
  -24.3612  -36.8942   22.2054 H   0  0  0  0  0  0
  -23.7253  -37.6541   23.6645 H   0  0  0  0  0  0
  -26.0113  -31.6021   20.5706 H   0  0  0  0  0  0
  -26.8213  -30.9245   21.9499 H   0  0  0  0  0  0
  -28.1013  -29.1183   21.1692 H   0  0  0  0  0  0
  -26.0804  -25.9880   18.9987 H   0  0  0  0  0  0
  -23.9952  -27.2958   19.0145 H   0  0  0  0  0  0
  -23.7130  -30.5888   19.4021 H   0  0  0  0  0  0
  -22.7275  -29.2391   19.8783 H   0  0  0  0  0  0
  -25.1298  -36.1978   25.0818 H   0  0  0  0  0  0
  -20.9993  -28.3221   24.1444 H   0  0  0  0  0  0
  -20.5616  -26.2263   23.3612 H   0  0  0  0  0  0
  -21.6613  -26.7411   22.1254 H   0  0  0  0  0  0
  -19.6882  -25.6299   21.1221 H   0  0  0  0  0  0
  -19.6665  -27.3197   20.6727 H   0  0  0  0  0  0
  -17.4180  -26.6677   21.4026 H   0  0  0  0  0  0
  -18.0336  -26.0057   22.9017 H   0  0  0  0  0  0
  -19.7908  -30.7257   24.2307 H   0  0  0  0  0  0
  -17.4981  -31.6248   24.5173 H   0  0  0  0  0  0
  -15.5342  -30.2990   23.7584 H   0  0  0  0  0  0
  -15.8669  -28.0832   22.7008 H   0  0  0  0  0  0
  -24.5931  -30.6946   25.7735 H   0  0  0  0  0  0
  -24.8836  -32.2780   26.4830 H   0  0  0  0  0  0
  -25.8069  -30.8844   27.0174 H   0  0  0  0  0  0
  -26.2745  -29.6831   24.1029 H   0  0  0  0  0  0
  -27.4077  -29.7219   25.4341 H   0  0  0  0  0  0
  -27.8547  -30.4368   23.9008 H   0  0  0  0  0  0
  -27.2719  -33.3531   26.2055 H   0  0  0  0  0  0
  -28.3879  -32.6774   25.0293 H   0  0  0  0  0  0
  -28.0674  -31.8295   26.5345 H   0  0  0  0  0  0
  -28.2625  -38.0109   24.7514 H   0  0  0  0  0  0
  -28.1053  -36.2651   24.6287 H   0  0  0  0  0  0
  -27.2313  -37.1498   25.8869 H   0  0  0  0  0  0
  -20.9256  -29.8792   21.7028 H   0  0  0  0  0  0
  -26.0181  -38.2879   24.1358 H   0  0  0  0  0  0
  -28.1649  -17.3114   19.2119 H   0  0  0  0  0  0
  -31.7667  -18.7739   24.8406 H   0  0  0  0  0  0
  -30.8268  -17.4111   24.3137 H   0  0  0  0  0  0
  -30.4682  -18.2015   25.8513 H   0  0  0  0  0  0
  -25.5982  -16.8312   24.0393 H   0  0  0  0  0  0
  -25.6730  -18.5537   23.7178 H   0  0  0  0  0  0
  -25.8371  -17.9693   25.3590 H   0  0  0  0  0  0
  -27.4776  -15.5972   24.9413 H   0  0  0  0  0  0
  -27.8553  -16.7985   26.1682 H   0  0  0  0  0  0
  -29.0895  -16.2387   25.0554 H   0  0  0  0  0  0
  -34.6328  -22.3799   23.9352 H   0  0  0  0  0  0
  -33.9466  -21.4332   22.6274 H   0  0  0  0  0  0
  -33.9908  -20.7773   24.2580 H   0  0  0  0  0  0
  -33.0518  -23.2504   25.8470 H   0  0  0  0  0  0
  -32.4853  -21.6077   26.0680 H   0  0  0  0  0  0
  -31.3401  -22.9183   25.7703 H   0  0  0  0  0  0
  -33.2588  -24.2867   23.6742 H   0  0  0  0  0  0
  -31.5287  -24.2483   23.6370 H   0  0  0  0  0  0
  -32.4747  -23.6586   22.2448 H   0  0  0  0  0  0
  -27.1896  -24.1136   19.0754 H   0  0  0  0  0  0
  -27.6801  -22.5759   19.7608 H   0  0  0  0  0  0
  -26.7678  -23.7110   20.7313 H   0  0  0  0  0  0
  -29.9960  -23.5842   18.7008 H   0  0  0  0  0  0
  -30.8070  -24.8504   19.6151 H   0  0  0  0  0  0
  -29.4430  -25.2074   18.5674 H   0  0  0  0  0  0
  -30.2217  -23.9487   22.1062 H   0  0  0  0  0  0
  -28.7331  -23.1025   22.3466 H   0  0  0  0  0  0
  -30.3402  -20.9160   25.3655 H   0  0  0  0  0  0
  -29.2767  -21.4671   24.1171 H   0  0  0  0  0  0
  -27.6656  -19.7784   24.0804 H   0  0  0  0  0  0
  -28.1929  -19.1736   25.6116 H   0  0  0  0  0  0
  -29.4066  -26.0326   21.6813 H   0  0  0  0  0  0
  -27.7094  -25.6421   21.7535 H   0  0  0  0  0  0
  -29.8113  -19.1146   23.0226 H   0  0  0  0  0  0
  -31.9086  -20.3541   23.3927 H   0  0  0  0  0  0
  -30.5765  -16.2032   19.6625 H   0  0  0  0  0  0
  -31.4930  -20.5819   21.4796 H   0  0  0  0  0  0
  1 25  1  0  0  0
  1 30  2  0  0  0
  1 93  1  0  0  0
  2  3  1  0  0  0
  2 25  1  0  0  0
  2 97  1  0  0  0
  2 98  1  0  0  0
  3  4  1  0  0  0
  3 99  1  0  0  0
  3100  1  0  0  0
  4  5  1  0  0  0
  4101  1  0  0  0
  4102  1  0  0  0
  5  6  1  0  0  0
  5 26  1  0  0  0
  5103  1  0  0  0
  6 25  1  0  0  0
  6104  1  0  0  0
  6105  1  0  0  0
  7  8  2  0  0  0
  7 26  1  0  0  0
  7 29  1  0  0  0
  8  9  1  0  0  0
  8 22  1  0  0  0
  9 10  1  0  0  0
  9 27  2  0  0  0
 10 11  2  0  0  0
 10 15  1  0  0  0
 11 12  1  0  0  0
 11106  1  0  0  0
 12 13  2  0  0  0
 12107  1  0  0  0
 13 14  1  0  0  0
 13 31  1  0  0  0
 14 15  2  0  0  0
 14108  1  0  0  0
 15109  1  0  0  0
 16 17  2  0  0  0
 16 21  1  0  0  0
 16 31  1  0  0  0
 17 18  1  0  0  0
 17110  1  0  0  0
 18 19  2  0  0  0
 18111  1  0  0  0
 19 20  1  0  0  0
 19 24  1  0  0  0
 20 21  2  0  0  0
 20112  1  0  0  0
 21 23  1  0  0  0
 22 28  1  0  0  0
 22 32  2  0  0  0
 26 27  1  0  0  0
 28113  1  0  0  0
 28114  1  0  0  0
 29115  1  0  0  0
 29116  1  0  0  0
 33 34  1  0  0  0
 33 66  1  0  0  0
 33 70  2  0  0  0
 34 36  1  0  0  0
 34 59  1  0  0  0
 34117  1  0  0  0
 35 44  2  0  0  0
 35 45  1  0  0  0
 35 68  1  0  0  0
 36 56  1  0  0  0
 36118  1  0  0  0
 37 39  1  0  0  0
 37 47  1  0  0  0
 37 66  1  0  0  0
 37119  1  0  0  0
 38 43  2  0  0  0
 38 46  1  0  0  0
 38 47  1  0  0  0
 39 64  1  0  0  0
 39 67  2  0  0  0
 40 52  1  0  0  0
 40 53  2  0  0  0
 40 58  1  0  0  0
 41120  1  0  0  0
 41121  1  0  0  0
 41122  1  0  0  0
 41 48  1  0  0  0
 42 43  1  0  0  0
 42 66  1  0  0  0
 42123  1  0  0  0
 42124  1  0  0  0
 43 44  1  0  0  0
 44125  1  0  0  0
 45 46  2  0  0  0
 45126  1  0  0  0
 46127  1  0  0  0
 47128  1  0  0  0
 47129  1  0  0  0
 48 56  1  0  0  0
 48 65  1  0  0  0
 48130  1  0  0  0
 49 50  1  0  0  0
 49 53  1  0  0  0
 49 64  1  0  0  0
 49131  1  0  0  0
 50 51  1  0  0  0
 50132  1  0  0  0
 50133  1  0  0  0
 51 52  1  0  0  0
 51134  1  0  0  0
 51135  1  0  0  0
 52136  1  0  0  0
 52137  1  0  0  0
 53 54  1  0  0  0
 54 55  2  0  0  0
 54138  1  0  0  0
 55 57  1  0  0  0
 55139  1  0  0  0
 56 69  2  0  0  0
 57 58  2  0  0  0
 57140  1  0  0  0
 58141  1  0  0  0
 59 60  1  0  0  0
 59 61  1  0  0  0
 59 62  1  0  0  0
 60142  1  0  0  0
 60143  1  0  0  0
 60144  1  0  0  0
 61145  1  0  0  0
 61146  1  0  0  0
 61147  1  0  0  0
 62148  1  0  0  0
 62149  1  0  0  0
 62150  1  0  0  0
 63 65  1  0  0  0
 63151  1  0  0  0
 63152  1  0  0  0
 63153  1  0  0  0
 64154  1  0  0  0
 65155  1  0  0  0
 68 86  1  0  0  0
 71 72  2  0  0  0
 71 96  1  0  0  0
 71156  1  0  0  0
 72 92  1  0  0  0
 72 93  1  0  0  0
 73 89  1  0  0  0
 73 92  2  0  0  0
 73 96  1  0  0  0
 74 83  1  0  0  0
 74 94  1  0  0  0
 74 95  2  0  0  0
 75157  1  0  0  0
 75158  1  0  0  0
 75159  1  0  0  0
 75 87  1  0  0  0
 76160  1  0  0  0
 76161  1  0  0  0
 76162  1  0  0  0
 76 89  1  0  0  0
 77 89  1  0  0  0
 77163  1  0  0  0
 77164  1  0  0  0
 77165  1  0  0  0
 78166  1  0  0  0
 78167  1  0  0  0
 78168  1  0  0  0
 78 90  1  0  0  0
 79 90  1  0  0  0
 79169  1  0  0  0
 79170  1  0  0  0
 79171  1  0  0  0
 80 90  1  0  0  0
 80172  1  0  0  0
 80173  1  0  0  0
 80174  1  0  0  0
 81175  1  0  0  0
 81176  1  0  0  0
 81177  1  0  0  0
 81 91  1  0  0  0
 82 91  1  0  0  0
 82178  1  0  0  0
 82179  1  0  0  0
 82180  1  0  0  0
 83 91  1  0  0  0
 83181  1  0  0  0
 83182  1  0  0  0
 84 87  1  0  0  0
 84183  1  0  0  0
 84184  1  0  0  0
 84 88  1  0  0  0
 85 87  1  0  0  0
 85 89  1  0  0  0
 85185  1  0  0  0
 85186  1  0  0  0
 86 91  1  0  0  0
 86187  1  0  0  0
 86188  1  0  0  0
 87189  1  0  0  0
 88 90  1  0  0  0
 88 94  1  0  0  0
 88190  1  0  0  0
 93191  1  0  0  0
 94192  1  0  0  0
M  ISO  4   1 100  68 101  86 101  93 100
M  END
> <chiral flag>
0

> <version>
0

> <s_m_source_file>
/data/baiqing/PycharmProjects/Reinvent-master-3.2/result/LINK_invent/BTK/process_docking_weight1_custom_product_contain_oxygen_bond_distance_aromatic_linkinvent_7_9_3/rearranged_h_0145.sdf

> <i_m_source_file_index>
87

> <r_mmod_Potential_Energy-OPLS-2005>
60.9627571105957

> <r_mmod_Stretch_Energy-OPLS-2005>
51.8301086425781

> <r_mmod_Bend_Energy-OPLS-2005>
215.942352294922

> <r_mmod_Torsional_Energy-OPLS-2005>
312.850494384766

> <r_mmod_Improper_Torsional_Energy-OPLS-2005>
23.4937534332275

> <r_mmod_Van_der_Waal_Energy-OPLS-2005>
128.403457641602

> <r_mmod_Electrostatic_Energy-OPLS-2005>
-496.227569580078

> <r_mmod_Solvation_Energy-OPLS-2005>
-196.220397949219

> <b_mmod_Minimization_Converged-OPLS-2005>
0

> <r_mmod_RMS_Derivative-OPLS-2005>
4.7820200920105

$$$$
87
                    3D
 Structure written by MMmdl.
161170  0  0  1  0            999 V2000
  -30.6927  -14.5476   20.5236 C   0  0  0  0  0  0
  -30.4176  -12.3369   19.4561 C   0  0  0  0  0  0
  -29.4989  -12.5068   18.2270 C   0  0  0  0  0  0
  -28.0198  -12.3576   18.6320 C   0  0  0  0  0  0
  -27.6544  -13.2210   19.8699 C   0  0  2  0  0  0
  -28.6961  -13.0608   21.0029 C   0  0  0  0  0  0
  -25.2542  -13.8209   20.5703 C   0  0  0  0  0  0
  -24.1811  -13.0457   20.9183 C   0  0  0  0  0  0
  -24.6388  -11.6931   20.8748 C   0  0  0  0  0  0
  -23.9059  -10.4305   21.0388 C   0  0  0  0  0  0
  -24.3615   -9.4218   21.9176 C   0  0  0  0  0  0
  -23.6290   -8.2254   22.0750 C   0  0  0  0  0  0
  -22.4268   -8.0285   21.3531 C   0  0  0  0  0  0
  -21.9897   -9.0265   20.4645 C   0  0  0  0  0  0
  -22.7219  -10.2150   20.3042 C   0  0  0  0  0  0
  -21.6856   -6.0728   22.5270 C   0  0  0  0  0  0
  -21.4018   -6.5630   23.8210 C   0  0  0  0  0  0
  -21.3666   -5.6781   24.9171 C   0  0  0  0  0  0
  -21.6046   -4.3045   24.7211 C   0  0  0  0  0  0
  -21.8822   -3.8132   23.4331 C   0  0  0  0  0  0
  -21.9197   -4.6953   22.3387 C   0  0  0  0  0  0
  -22.7824  -13.5254   21.1824 C   0  0  0  0  0  0
  -22.1669   -4.2132   21.0959 F   0  0  0  0  0  0
  -21.5620   -3.4530   25.7727 F   0  0  0  0  0  0
  -30.0269  -13.3554   20.4486 N   0  0  0  0  0  0
  -26.2983  -12.9403   20.3358 N   0  0  0  0  0  0
  -25.9322  -11.6547   20.5788 N   0  0  0  0  0  0
  -22.0457  -12.8278   22.0397 N   0  0  0  0  0  0
  -25.4255  -15.1940   20.4158 N   0  0  0  0  0  0
  -31.8364  -14.6760   20.0804 O   0  0  0  0  0  0
  -21.6644   -6.8871   21.4230 O   0  0  0  0  0  0
  -22.3521  -14.5563   20.6664 O   0  0  0  0  0  0
  -24.6177  -31.8643   23.2079 C   0  0  0  0  0  0
  -25.9055  -32.4808   23.8388 C   0  0  1  0  0  0
  -27.2234  -27.3827   20.1138 C   0  0  0  0  0  0
  -25.5906  -33.8610   24.2313 N   0  0  0  0  0  0
  -23.4102  -30.4885   21.5480 C   0  0  2  0  0  0
  -24.8596  -28.9544   20.1091 C   0  0  0  0  0  0
  -22.7445  -29.4631   22.4949 C   0  0  0  0  0  0
  -18.0288  -28.1376   22.8489 C   0  0  0  0  0  0
  -24.1484  -36.7308   23.2628 C   0  0  0  0  0  0
  -25.9454  -30.8127   21.3743 C   0  0  0  0  0  0
  -26.0221  -29.4446   20.7193 C   0  0  0  0  0  0
  -27.2099  -28.6658   20.7216 C   0  0  0  0  0  0
  -26.0573  -26.9433   19.4528 C   0  0  0  0  0  0
  -24.8744  -27.7039   19.4702 C   0  0  0  0  0  0
  -23.6228  -29.8255   20.1612 C   0  0  0  0  0  0
  -25.4098  -36.3102   24.0337 C   0  0  1  0  0  0
  -20.5886  -28.3671   23.1290 C   0  0  2  0  0  0
  -20.6774  -26.9401   22.5399 C   0  0  0  0  0  0
  -19.5746  -26.6377   21.5204 C   0  0  0  0  0  0
  -18.1937  -26.7913   22.1633 C   0  0  0  0  0  0
  -19.1545  -28.8839   23.2883 C   0  0  0  0  0  0
  -18.9467  -30.1455   23.8890 C   0  0  0  0  0  0
  -17.6471  -30.6579   24.0573 C   0  0  0  0  0  0
  -25.9038  -34.9467   23.5131 C   0  0  0  0  0  0
  -16.5360  -29.9088   23.6327 C   0  0  0  0  0  0
  -16.7284  -28.6502   23.0341 C   0  0  0  0  0  0
  -26.4462  -31.6599   25.0734 C   0  0  0  0  0  0
  -25.3720  -31.3769   26.1493 C   0  0  0  0  0  0
  -27.0274  -30.3016   24.6158 C   0  0  0  0  0  0
  -27.6038  -32.4324   25.7487 C   0  0  0  0  0  0
  -27.5602  -37.1782   24.8441 C   0  0  0  0  0  0
  -21.4168  -29.3027   22.3689 N   0  0  0  0  0  0
  -26.4281  -37.3794   23.9438 N   0  0  0  0  0  0
  -24.6758  -31.0696   22.1011 N   0  0  0  0  0  0
  -23.4188  -28.8174   23.3010 O   0  0  0  0  0  0
  -28.3328  -26.5457   20.1348 O   0  0  0  0  0  0
  -26.5606  -34.8919   22.4691 O   0  0  0  0  0  0
  -23.5356  -32.1425   23.7436 O   0  0  0  0  0  0
  -30.4635  -18.7921   19.3724 C   0  0  0  0  0  0
  -30.5565  -17.3650   19.3662 C   0  0  0  0  0  0
  -29.9914  -19.1352   20.6083 C   0  0  0  0  0  0
  -30.1299  -16.9353   20.5991 C   0  0  0  0  0  0
  -28.9651  -24.1140   20.3205 C   0  0  0  0  0  0
  -30.6729  -22.6567   21.6467 C   0  0  0  0  0  0
  -31.0711  -21.1858   21.4055 C   0  0  0  0  0  0
  -29.0007  -21.4391   20.4196 C   0  0  0  0  0  0
  -29.2217  -22.8025   21.1455 C   0  0  2  0  0  0
  -26.9263  -24.9588   21.5547 C   0  0  0  0  0  0
  -29.2021  -25.7990   22.2241 C   0  0  0  0  0  0
  -28.3306  -25.3697   21.0289 C   0  0  0  0  0  0
  -29.8461  -20.4513   21.1134 N   0  0  0  0  0  0
  -29.9959  -15.6183   20.9905 N   0  0  0  0  0  0
  -29.2669  -24.1568   19.1237 O   0  0  0  0  0  0
  -29.7676  -18.0160   21.3849 O   0  0  0  0  0  0
  -31.4640  -12.4167   19.1580 H   0  0  0  0  0  0
  -30.3128  -11.3400   19.8860 H   0  0  0  0  0  0
  -29.7517  -11.7729   17.4604 H   0  0  0  0  0  0
  -29.6571  -13.4875   17.7755 H   0  0  0  0  0  0
  -27.8456  -11.3036   18.8497 H   0  0  0  0  0  0
  -27.3708  -12.6057   17.7902 H   0  0  0  0  0  0
  -27.6780  -14.2589   19.5364 H   0  0  0  0  0  0
  -28.6774  -12.0435   21.3973 H   0  0  0  0  0  0
  -28.4508  -13.7101   21.8443 H   0  0  0  0  0  0
  -25.2762   -9.5688   22.4756 H   0  0  0  0  0  0
  -23.9981   -7.4647   22.7484 H   0  0  0  0  0  0
  -21.0805   -8.8795   19.8970 H   0  0  0  0  0  0
  -22.3671  -10.9694   19.6151 H   0  0  0  0  0  0
  -21.2016   -7.6143   23.9726 H   0  0  0  0  0  0
  -21.1488   -6.0498   25.9081 H   0  0  0  0  0  0
  -22.0592   -2.7586   23.2849 H   0  0  0  0  0  0
  -22.4070  -11.9949   22.4804 H   0  0  0  0  0  0
  -21.1084  -13.1342   22.2608 H   0  0  0  0  0  0
  -24.6585  -15.8488   20.5236 H   0  0  0  0  0  0
  -26.2842  -15.6359   20.1106 H   0  0  0  0  0  0
  -26.7131  -32.5499   23.1148 H   0  0  0  0  0  0
  -25.0056  -33.9768   25.0465 H   0  0  0  0  0  0
  -22.7016  -31.3074   21.4085 H   0  0  0  0  0  0
  -23.3752  -35.9635   23.3250 H   0  0  0  0  0  0
  -24.3600  -36.8950   22.2051 H   0  0  0  0  0  0
  -23.7215  -37.6496   23.6660 H   0  0  0  0  0  0
  -26.0729  -31.5791   20.6081 H   0  0  0  0  0  0
  -26.8274  -30.8602   22.0015 H   0  0  0  0  0  0
  -28.1039  -29.0313   21.2065 H   0  0  0  0  0  0
  -26.0537  -25.9899   18.9446 H   0  0  0  0  0  0
  -23.9856  -27.3281   18.9831 H   0  0  0  0  0  0
  -23.7370  -30.6043   19.4053 H   0  0  0  0  0  0
  -22.7436  -29.2515   19.8601 H   0  0  0  0  0  0
  -25.1254  -36.1964   25.0828 H   0  0  0  0  0  0
  -20.9993  -28.3245   24.1403 H   0  0  0  0  0  0
  -20.5670  -26.2286   23.3594 H   0  0  0  0  0  0
  -21.6645  -26.7434   22.1198 H   0  0  0  0  0  0
  -19.6911  -25.6290   21.1228 H   0  0  0  0  0  0
  -19.6672  -27.3191   20.6735 H   0  0  0  0  0  0
  -17.4193  -26.6652   21.4055 H   0  0  0  0  0  0
  -18.0367  -26.0062   22.9039 H   0  0  0  0  0  0
  -19.7943  -30.7284   24.2241 H   0  0  0  0  0  0
  -17.5018  -31.6242   24.5196 H   0  0  0  0  0  0
  -15.5367  -30.2992   23.7630 H   0  0  0  0  0  0
  -15.8683  -28.0830   22.7041 H   0  0  0  0  0  0
  -24.5854  -30.7152   25.7849 H   0  0  0  0  0  0
  -24.8964  -32.2959   26.4928 H   0  0  0  0  0  0
  -25.8049  -30.8939   27.0261 H   0  0  0  0  0  0
  -26.2836  -29.6806   24.1150 H   0  0  0  0  0  0
  -27.3940  -29.7228   25.4643 H   0  0  0  0  0  0
  -27.8722  -30.4292   23.9388 H   0  0  0  0  0  0
  -27.2662  -33.3619   26.2082 H   0  0  0  0  0  0
  -28.3836  -32.6895   25.0308 H   0  0  0  0  0  0
  -28.0722  -31.8444   26.5386 H   0  0  0  0  0  0
  -28.2539  -38.0160   24.7612 H   0  0  0  0  0  0
  -28.1186  -36.2703   24.6101 H   0  0  0  0  0  0
  -27.2356  -37.1217   25.8846 H   0  0  0  0  0  0
  -20.9349  -29.8768   21.6917 H   0  0  0  0  0  0
  -26.0163  -38.2858   24.1510 H   0  0  0  0  0  0
  -30.7261  -19.4758   18.5790 H   0  0  0  0  0  0
  -30.8915  -16.7388   18.5512 H   0  0  0  0  0  0
  -31.3669  -23.3274   21.1371 H   0  0  0  0  0  0
  -30.7256  -22.8946   22.7101 H   0  0  0  0  0  0
  -31.5966  -20.7644   22.2646 H   0  0  0  0  0  0
  -31.7523  -21.1224   20.5532 H   0  0  0  0  0  0
  -29.2875  -21.5029   19.3679 H   0  0  0  0  0  0
  -27.9514  -21.1442   20.4583 H   0  0  0  0  0  0
  -28.5791  -22.8114   22.0240 H   0  0  0  0  0  0
  -26.9837  -24.1799   22.3138 H   0  0  0  0  0  0
  -26.2910  -24.5721   20.7576 H   0  0  0  0  0  0
  -26.4072  -25.7915   22.0303 H   0  0  0  0  0  0
  -29.2171  -25.0395   23.0074 H   0  0  0  0  0  0
  -28.8239  -26.7175   22.6745 H   0  0  0  0  0  0
  -30.2336  -25.9827   21.9206 H   0  0  0  0  0  0
  -29.1796  -15.4037   21.5438 H   0  0  0  0  0  0
  1 25  1  0  0  0
  1 30  2  0  0  0
  1 84  1  0  0  0
  2  3  1  0  0  0
  2 25  1  0  0  0
  2 87  1  0  0  0
  2 88  1  0  0  0
  3  4  1  0  0  0
  3 89  1  0  0  0
  3 90  1  0  0  0
  4  5  1  0  0  0
  4 91  1  0  0  0
  4 92  1  0  0  0
  5  6  1  0  0  0
  5 26  1  0  0  0
  5 93  1  0  0  0
  6 25  1  0  0  0
  6 94  1  0  0  0
  6 95  1  0  0  0
  7  8  2  0  0  0
  7 26  1  0  0  0
  7 29  1  0  0  0
  8  9  1  0  0  0
  8 22  1  0  0  0
  9 10  1  0  0  0
  9 27  2  0  0  0
 10 11  2  0  0  0
 10 15  1  0  0  0
 11 12  1  0  0  0
 11 96  1  0  0  0
 12 13  2  0  0  0
 12 97  1  0  0  0
 13 14  1  0  0  0
 13 31  1  0  0  0
 14 15  2  0  0  0
 14 98  1  0  0  0
 15 99  1  0  0  0
 16 17  2  0  0  0
 16 21  1  0  0  0
 16 31  1  0  0  0
 17 18  1  0  0  0
 17100  1  0  0  0
 18 19  2  0  0  0
 18101  1  0  0  0
 19 20  1  0  0  0
 19 24  1  0  0  0
 20 21  2  0  0  0
 20102  1  0  0  0
 21 23  1  0  0  0
 22 28  1  0  0  0
 22 32  2  0  0  0
 26 27  1  0  0  0
 28103  1  0  0  0
 28104  1  0  0  0
 29105  1  0  0  0
 29106  1  0  0  0
 33 34  1  0  0  0
 33 66  1  0  0  0
 33 70  2  0  0  0
 34 36  1  0  0  0
 34 59  1  0  0  0
 34107  1  0  0  0
 35 44  2  0  0  0
 35 45  1  0  0  0
 35 68  1  0  0  0
 36 56  1  0  0  0
 36108  1  0  0  0
 37 39  1  0  0  0
 37 47  1  0  0  0
 37 66  1  0  0  0
 37109  1  0  0  0
 38 43  2  0  0  0
 38 46  1  0  0  0
 38 47  1  0  0  0
 39 64  1  0  0  0
 39 67  2  0  0  0
 40 52  1  0  0  0
 40 53  2  0  0  0
 40 58  1  0  0  0
 41110  1  0  0  0
 41111  1  0  0  0
 41112  1  0  0  0
 41 48  1  0  0  0
 42 43  1  0  0  0
 42 66  1  0  0  0
 42113  1  0  0  0
 42114  1  0  0  0
 43 44  1  0  0  0
 44115  1  0  0  0
 45 46  2  0  0  0
 45116  1  0  0  0
 46117  1  0  0  0
 47118  1  0  0  0
 47119  1  0  0  0
 48 56  1  0  0  0
 48 65  1  0  0  0
 48120  1  0  0  0
 49 50  1  0  0  0
 49 53  1  0  0  0
 49 64  1  0  0  0
 49121  1  0  0  0
 50 51  1  0  0  0
 50122  1  0  0  0
 50123  1  0  0  0
 51 52  1  0  0  0
 51124  1  0  0  0
 51125  1  0  0  0
 52126  1  0  0  0
 52127  1  0  0  0
 53 54  1  0  0  0
 54 55  2  0  0  0
 54128  1  0  0  0
 55 57  1  0  0  0
 55129  1  0  0  0
 56 69  2  0  0  0
 57 58  2  0  0  0
 57130  1  0  0  0
 58131  1  0  0  0
 59 60  1  0  0  0
 59 61  1  0  0  0
 59 62  1  0  0  0
 60132  1  0  0  0
 60133  1  0  0  0
 60134  1  0  0  0
 61135  1  0  0  0
 61136  1  0  0  0
 61137  1  0  0  0
 62138  1  0  0  0
 62139  1  0  0  0
 62140  1  0  0  0
 63 65  1  0  0  0
 63141  1  0  0  0
 63142  1  0  0  0
 63143  1  0  0  0
 64144  1  0  0  0
 65145  1  0  0  0
 68 82  1  0  0  0
 71 72  1  0  0  0
 71 73  2  0  0  0
 71146  1  0  0  0
 72 74  2  0  0  0
 72147  1  0  0  0
 73 83  1  0  0  0
 73 86  1  0  0  0
 74 84  1  0  0  0
 74 86  1  0  0  0
 75 82  1  0  0  0
 75 85  2  0  0  0
 75 79  1  0  0  0
 76 77  1  0  0  0
 76 79  1  0  0  0
 76148  1  0  0  0
 76149  1  0  0  0
 77 83  1  0  0  0
 77150  1  0  0  0
 77151  1  0  0  0
 78 79  1  0  0  0
 78 83  1  0  0  0
 78152  1  0  0  0
 78153  1  0  0  0
 79154  1  0  0  0
 80155  1  0  0  0
 80156  1  0  0  0
 80157  1  0  0  0
 80 82  1  0  0  0
 81 82  1  0  0  0
 81158  1  0  0  0
 81159  1  0  0  0
 81160  1  0  0  0
 84161  1  0  0  0
M  ISO  4   1 100  68 101  82 101  84 100
M  END
> <chiral flag>
0

> <version>
0

> <s_m_source_file>
/data/baiqing/PycharmProjects/Reinvent-master-3.2/result/LINK_invent/BTK/process_docking_weight1_custom_product_contain_oxygen_bond_distance_aromatic_linkinvent_7_9_3/rearranged_h_0145.sdf

> <i_m_source_file_index>
88

> <r_mmod_Potential_Energy-OPLS-2005>
123.888282775879

> <r_mmod_Stretch_Energy-OPLS-2005>
56.5548248291016

> <r_mmod_Bend_Energy-OPLS-2005>
146.327285766602

> <r_mmod_Torsional_Energy-OPLS-2005>
349.359069824219

> <r_mmod_Improper_Torsional_Energy-OPLS-2005>
8.98131942749023

> <r_mmod_Van_der_Waal_Energy-OPLS-2005>
127.821754455566

> <r_mmod_Electrostatic_Energy-OPLS-2005>
-350.392303466797

> <r_mmod_Solvation_Energy-OPLS-2005>
-242.141632080078

> <b_mmod_Minimization_Converged-OPLS-2005>
0

> <r_mmod_RMS_Derivative-OPLS-2005>
2.89950251579285

$$$$
88
                    3D
 Structure written by MMmdl.
155164  0  0  1  0            999 V2000
  -30.6689  -14.6552   20.4928 C   0  0  0  0  0  0
  -30.4343  -12.3866   19.4800 C   0  0  0  0  0  0
  -29.5229  -12.4846   18.2404 C   0  0  0  0  0  0
  -28.0438  -12.3347   18.6581 C   0  0  0  0  0  0
  -27.6577  -13.2261   19.8697 C   0  0  2  0  0  0
  -28.7051  -13.1127   20.9998 C   0  0  0  0  0  0
  -25.2579  -13.8189   20.5710 C   0  0  0  0  0  0
  -24.1854  -13.0404   20.9184 C   0  0  0  0  0  0
  -24.6425  -11.6888   20.8729 C   0  0  0  0  0  0
  -23.9076  -10.4283   21.0406 C   0  0  0  0  0  0
  -24.3592   -9.4210   21.9204 C   0  0  0  0  0  0
  -23.6260   -8.2247   22.0794 C   0  0  0  0  0  0
  -22.4261   -8.0265   21.3558 C   0  0  0  0  0  0
  -21.9895   -9.0259   20.4690 C   0  0  0  0  0  0
  -22.7231  -10.2132   20.3095 C   0  0  0  0  0  0
  -21.6855   -6.0712   22.5288 C   0  0  0  0  0  0
  -21.4014   -6.5625   23.8220 C   0  0  0  0  0  0
  -21.3666   -5.6791   24.9184 C   0  0  0  0  0  0
  -21.6058   -4.3057   24.7242 C   0  0  0  0  0  0
  -21.8814   -3.8128   23.4364 C   0  0  0  0  0  0
  -21.9189   -4.6939   22.3407 C   0  0  0  0  0  0
  -22.7895  -13.5236   21.1833 C   0  0  0  0  0  0
  -22.1652   -4.2123   21.0981 F   0  0  0  0  0  0
  -21.5633   -3.4543   25.7749 F   0  0  0  0  0  0
  -30.0116  -13.4488   20.4193 N   0  0  0  0  0  0
  -26.3031  -12.9396   20.3394 N   0  0  0  0  0  0
  -25.9372  -11.6531   20.5787 N   0  0  0  0  0  0
  -22.0507  -12.8283   22.0416 N   0  0  0  0  0  0
  -25.4157  -15.1900   20.4003 N   0  0  0  0  0  0
  -31.8248  -14.7533   20.0713 O   0  0  0  0  0  0
  -21.6640   -6.8838   21.4235 O   0  0  0  0  0  0
  -22.3613  -14.5553   20.6699 O   0  0  0  0  0  0
  -24.6313  -31.8548   23.1997 C   0  0  0  0  0  0
  -25.9165  -32.4739   23.8286 C   0  0  1  0  0  0
  -27.2272  -27.3024   20.1241 C   0  0  0  0  0  0
  -25.5988  -33.8538   24.2254 N   0  0  0  0  0  0
  -23.4199  -30.4854   21.5425 C   0  0  2  0  0  0
  -24.8610  -28.9299   20.1104 C   0  0  0  0  0  0
  -22.7427  -29.4692   22.4941 C   0  0  0  0  0  0
  -18.0301  -28.1420   22.8514 C   0  0  0  0  0  0
  -24.1505  -36.7289   23.2631 C   0  0  0  0  0  0
  -25.9568  -30.7881   21.3590 C   0  0  0  0  0  0
  -26.0288  -29.4082   20.7154 C   0  0  0  0  0  0
  -27.2053  -28.6026   20.7216 C   0  0  0  0  0  0
  -26.0352  -26.8838   19.4859 C   0  0  0  0  0  0
  -24.8667  -27.6729   19.4886 C   0  0  0  0  0  0
  -23.6299  -29.8130   20.1583 C   0  0  0  0  0  0
  -25.4112  -36.3061   24.0332 C   0  0  1  0  0  0
  -20.5891  -28.3731   23.1282 C   0  0  2  0  0  0
  -20.6787  -26.9453   22.5400 C   0  0  0  0  0  0
  -19.5751  -26.6441   21.5204 C   0  0  0  0  0  0
  -18.1936  -26.7982   22.1623 C   0  0  0  0  0  0
  -19.1545  -28.8879   23.2930 C   0  0  0  0  0  0
  -18.9462  -30.1479   23.8952 C   0  0  0  0  0  0
  -17.6457  -30.6616   24.0586 C   0  0  0  0  0  0
  -25.9072  -34.9437   23.5105 C   0  0  0  0  0  0
  -16.5359  -29.9117   23.6339 C   0  0  0  0  0  0
  -16.7287  -28.6539   23.0370 C   0  0  0  0  0  0
  -26.4526  -31.6534   25.0639 C   0  0  0  0  0  0
  -25.3772  -31.3689   26.1378 C   0  0  0  0  0  0
  -27.0311  -30.2961   24.6012 C   0  0  0  0  0  0
  -27.6098  -32.4200   25.7462 C   0  0  0  0  0  0
  -27.5573  -37.1792   24.8470 C   0  0  0  0  0  0
  -21.4141  -29.3072   22.3624 N   0  0  0  0  0  0
  -26.4281  -37.3745   23.9438 N   0  0  0  0  0  0
  -24.6905  -31.0560   22.0940 N   0  0  0  0  0  0
  -23.4139  -28.8264   23.3061 O   0  0  0  0  0  0
  -28.3693  -26.4850   20.2257 O   0  0  0  0  0  0
  -26.5562  -34.8921   22.4631 O   0  0  0  0  0  0
  -23.5487  -32.1371   23.7345 O   0  0  0  0  0  0
  -28.8767  -17.6586   19.4328 C   0  0  0  0  0  0
  -28.7491  -19.0979   19.5384 C   0  0  0  0  0  0
  -30.0834  -19.2164   21.6156 C   0  0  0  0  0  0
  -30.2121  -17.8093   21.4858 C   0  0  0  0  0  0
  -29.6401  -17.0194   20.4370 C   0  0  0  0  0  0
  -29.3235  -19.8980   20.5974 C   0  0  0  0  0  0
  -29.2993  -22.4544   20.0637 C   0  0  0  0  0  0
  -30.7028  -16.5436   22.1661 C   0  0  0  0  0  0
  -29.6104  -25.3938   18.5617 C   0  0  0  0  0  0
  -28.8448  -23.9005   20.5907 C   0  0  0  0  0  0
  -28.5085  -25.1374   19.6079 C   0  0  1  0  0  0
  -30.0368  -15.7502   21.0486 N   0  0  0  0  0  0
  -28.9701  -21.3204   20.7810 N   0  0  0  0  0  0
  -30.0079  -22.3714   19.0539 O   0  0  0  0  0  0
  -31.4894  -12.4554   19.2079 H   0  0  0  0  0  0
  -30.3260  -11.4039   19.9407 H   0  0  0  0  0  0
  -29.7810  -11.6959   17.5323 H   0  0  0  0  0  0
  -29.6952  -13.4309   17.7257 H   0  0  0  0  0  0
  -27.9008  -11.2832   18.9187 H   0  0  0  0  0  0
  -27.3877  -12.5348   17.8095 H   0  0  0  0  0  0
  -27.6653  -14.2554   19.5123 H   0  0  0  0  0  0
  -28.7242  -12.1075   21.4272 H   0  0  0  0  0  0
  -28.4597  -13.7812   21.8225 H   0  0  0  0  0  0
  -25.2717   -9.5702   22.4794 H   0  0  0  0  0  0
  -23.9956   -7.4677   22.7572 H   0  0  0  0  0  0
  -21.0812   -8.8807   19.9028 H   0  0  0  0  0  0
  -22.3690  -10.9666   19.6226 H   0  0  0  0  0  0
  -21.2006   -7.6139   23.9709 H   0  0  0  0  0  0
  -21.1502   -6.0524   25.9089 H   0  0  0  0  0  0
  -22.0576   -2.7584   23.2888 H   0  0  0  0  0  0
  -22.3987  -11.9870   22.4761 H   0  0  0  0  0  0
  -21.1202  -13.1490   22.2648 H   0  0  0  0  0  0
  -24.6344  -15.8302   20.4999 H   0  0  0  0  0  0
  -26.2560  -15.6491   20.0646 H   0  0  0  0  0  0
  -26.7211  -32.5418   23.1006 H   0  0  0  0  0  0
  -25.0137  -33.9617   25.0406 H   0  0  0  0  0  0
  -22.7199  -31.3110   21.3934 H   0  0  0  0  0  0
  -23.3748  -35.9646   23.3287 H   0  0  0  0  0  0
  -24.3621  -36.8901   22.2049 H   0  0  0  0  0  0
  -23.7289  -37.6505   23.6652 H   0  0  0  0  0  0
  -26.0585  -31.5406   20.5764 H   0  0  0  0  0  0
  -26.8474  -30.8599   21.9702 H   0  0  0  0  0  0
  -28.0961  -28.9662   21.2152 H   0  0  0  0  0  0
  -25.9473  -25.9285   18.9989 H   0  0  0  0  0  0
  -23.9652  -27.2958   19.0212 H   0  0  0  0  0  0
  -23.7431  -30.5821   19.3916 H   0  0  0  0  0  0
  -22.7488  -29.2354   19.8715 H   0  0  0  0  0  0
  -25.1310  -36.1867   25.0813 H   0  0  0  0  0  0
  -21.0024  -28.3346   24.1395 H   0  0  0  0  0  0
  -20.5670  -26.2352   23.3611 H   0  0  0  0  0  0
  -21.6669  -26.7490   22.1197 H   0  0  0  0  0  0
  -19.6923  -25.6355   21.1232 H   0  0  0  0  0  0
  -19.6722  -27.3244   20.6732 H   0  0  0  0  0  0
  -17.4208  -26.6751   21.4028 H   0  0  0  0  0  0
  -18.0369  -26.0110   22.9006 H   0  0  0  0  0  0
  -19.7934  -30.7289   24.2355 H   0  0  0  0  0  0
  -17.5023  -31.6309   24.5160 H   0  0  0  0  0  0
  -15.5360  -30.3031   23.7666 H   0  0  0  0  0  0
  -15.8701  -28.0873   22.7077 H   0  0  0  0  0  0
  -24.6001  -30.6930   25.7776 H   0  0  0  0  0  0
  -24.8873  -32.2845   26.4698 H   0  0  0  0  0  0
  -25.8125  -30.8989   27.0201 H   0  0  0  0  0  0
  -26.2843  -29.6785   24.0965 H   0  0  0  0  0  0
  -27.3974  -29.7139   25.4479 H   0  0  0  0  0  0
  -27.8769  -30.4277   23.9247 H   0  0  0  0  0  0
  -27.2734  -33.3514   26.2033 H   0  0  0  0  0  0
  -28.3971  -32.6666   25.0333 H   0  0  0  0  0  0
  -28.0665  -31.8243   26.5370 H   0  0  0  0  0  0
  -28.2584  -38.0076   24.7486 H   0  0  0  0  0  0
  -28.1057  -36.2609   24.6343 H   0  0  0  0  0  0
  -27.2297  -37.1530   25.8862 H   0  0  0  0  0  0
  -20.9297  -29.8757   21.6812 H   0  0  0  0  0  0
  -26.0160  -38.2831   24.1389 H   0  0  0  0  0  0
  -28.3545  -17.1115   18.6615 H   0  0  0  0  0  0
  -28.1355  -19.5974   18.8010 H   0  0  0  0  0  0
  -30.4917  -19.7358   22.4755 H   0  0  0  0  0  0
  -30.2612  -16.3779   23.1509 H   0  0  0  0  0  0
  -31.7944  -16.4920   22.2059 H   0  0  0  0  0  0
  -29.5021  -26.3725   18.0861 H   0  0  0  0  0  0
  -30.5982  -25.3726   19.0240 H   0  0  0  0  0  0
  -29.5895  -24.6524   17.7622 H   0  0  0  0  0  0
  -29.6362  -24.2341   21.2617 H   0  0  0  0  0  0
  -27.9811  -23.7610   21.2359 H   0  0  0  0  0  0
  -27.6234  -24.8361   19.0568 H   0  0  0  0  0  0
  -28.4067  -21.5100   21.6046 H   0  0  0  0  0  0
  1 25  1  0  0  0
  1 30  2  0  0  0
  1 82  1  0  0  0
  2  3  1  0  0  0
  2 25  1  0  0  0
  2 85  1  0  0  0
  2 86  1  0  0  0
  3  4  1  0  0  0
  3 87  1  0  0  0
  3 88  1  0  0  0
  4  5  1  0  0  0
  4 89  1  0  0  0
  4 90  1  0  0  0
  5  6  1  0  0  0
  5 26  1  0  0  0
  5 91  1  0  0  0
  6 25  1  0  0  0
  6 92  1  0  0  0
  6 93  1  0  0  0
  7  8  2  0  0  0
  7 26  1  0  0  0
  7 29  1  0  0  0
  8  9  1  0  0  0
  8 22  1  0  0  0
  9 10  1  0  0  0
  9 27  2  0  0  0
 10 11  2  0  0  0
 10 15  1  0  0  0
 11 12  1  0  0  0
 11 94  1  0  0  0
 12 13  2  0  0  0
 12 95  1  0  0  0
 13 14  1  0  0  0
 13 31  1  0  0  0
 14 15  2  0  0  0
 14 96  1  0  0  0
 15 97  1  0  0  0
 16 17  2  0  0  0
 16 21  1  0  0  0
 16 31  1  0  0  0
 17 18  1  0  0  0
 17 98  1  0  0  0
 18 19  2  0  0  0
 18 99  1  0  0  0
 19 20  1  0  0  0
 19 24  1  0  0  0
 20 21  2  0  0  0
 20100  1  0  0  0
 21 23  1  0  0  0
 22 28  1  0  0  0
 22 32  2  0  0  0
 26 27  1  0  0  0
 28101  1  0  0  0
 28102  1  0  0  0
 29103  1  0  0  0
 29104  1  0  0  0
 33 34  1  0  0  0
 33 66  1  0  0  0
 33 70  2  0  0  0
 34 36  1  0  0  0
 34 59  1  0  0  0
 34105  1  0  0  0
 35 44  2  0  0  0
 35 45  1  0  0  0
 35 68  1  0  0  0
 36 56  1  0  0  0
 36106  1  0  0  0
 37 39  1  0  0  0
 37 47  1  0  0  0
 37 66  1  0  0  0
 37107  1  0  0  0
 38 43  2  0  0  0
 38 46  1  0  0  0
 38 47  1  0  0  0
 39 64  1  0  0  0
 39 67  2  0  0  0
 40 52  1  0  0  0
 40 53  2  0  0  0
 40 58  1  0  0  0
 41108  1  0  0  0
 41109  1  0  0  0
 41110  1  0  0  0
 41 48  1  0  0  0
 42 43  1  0  0  0
 42 66  1  0  0  0
 42111  1  0  0  0
 42112  1  0  0  0
 43 44  1  0  0  0
 44113  1  0  0  0
 45 46  2  0  0  0
 45114  1  0  0  0
 46115  1  0  0  0
 47116  1  0  0  0
 47117  1  0  0  0
 48 56  1  0  0  0
 48 65  1  0  0  0
 48118  1  0  0  0
 49 50  1  0  0  0
 49 53  1  0  0  0
 49 64  1  0  0  0
 49119  1  0  0  0
 50 51  1  0  0  0
 50120  1  0  0  0
 50121  1  0  0  0
 51 52  1  0  0  0
 51122  1  0  0  0
 51123  1  0  0  0
 52124  1  0  0  0
 52125  1  0  0  0
 53 54  1  0  0  0
 54 55  2  0  0  0
 54126  1  0  0  0
 55 57  1  0  0  0
 55127  1  0  0  0
 56 69  2  0  0  0
 57 58  2  0  0  0
 57128  1  0  0  0
 58129  1  0  0  0
 59 60  1  0  0  0
 59 61  1  0  0  0
 59 62  1  0  0  0
 60130  1  0  0  0
 60131  1  0  0  0
 60132  1  0  0  0
 61133  1  0  0  0
 61134  1  0  0  0
 61135  1  0  0  0
 62136  1  0  0  0
 62137  1  0  0  0
 62138  1  0  0  0
 63 65  1  0  0  0
 63139  1  0  0  0
 63140  1  0  0  0
 63141  1  0  0  0
 64142  1  0  0  0
 65143  1  0  0  0
 68 81  1  0  0  0
 71 72  2  0  0  0
 71 75  1  0  0  0
 71144  1  0  0  0
 72 76  1  0  0  0
 72145  1  0  0  0
 73 74  1  0  0  0
 73 76  2  0  0  0
 73146  1  0  0  0
 74 75  2  0  0  0
 74 78  1  0  0  0
 75 82  1  0  0  0
 76 83  1  0  0  0
 77 80  1  0  0  0
 77 83  1  0  0  0
 77 84  2  0  0  0
 78 82  1  0  0  0
 78147  1  0  0  0
 78148  1  0  0  0
 79149  1  0  0  0
 79150  1  0  0  0
 79151  1  0  0  0
 79 81  1  0  0  0
 80 81  1  0  0  0
 80152  1  0  0  0
 80153  1  0  0  0
 81154  1  0  0  0
 83155  1  0  0  0
M  ISO  4   1 100  68 101  81 101  82 100
M  END
> <chiral flag>
0

> <version>
0

> <s_m_source_file>
/data/baiqing/PycharmProjects/Reinvent-master-3.2/result/LINK_invent/BTK/process_docking_weight1_custom_product_contain_oxygen_bond_distance_aromatic_linkinvent_7_9_3/rearranged_h_0145.sdf

> <i_m_source_file_index>
89

> <r_mmod_Potential_Energy-OPLS-2005>
585.225402832031

> <r_mmod_Stretch_Energy-OPLS-2005>
115.343017578125

> <r_mmod_Bend_Energy-OPLS-2005>
573.131469726562

> <r_mmod_Torsional_Energy-OPLS-2005>
283.241149902344

> <r_mmod_Improper_Torsional_Energy-OPLS-2005>
11.7555236816406

> <r_mmod_Van_der_Waal_Energy-OPLS-2005>
133.306976318359

> <r_mmod_Electrostatic_Energy-OPLS-2005>
-365.760559082031

> <r_mmod_Solvation_Energy-OPLS-2005>
-219.768417358398

> <b_mmod_Minimization_Converged-OPLS-2005>
0

> <r_mmod_RMS_Derivative-OPLS-2005>
7.02783250808716

$$$$
89
                    3D
 Structure written by MMmdl.
190199  0  0  1  0            999 V2000
  -30.6575  -14.5887   20.5290 C   0  0  0  0  0  0
  -30.4368  -12.3681   19.4465 C   0  0  0  0  0  0
  -29.5069  -12.5055   18.2218 C   0  0  0  0  0  0
  -28.0313  -12.3422   18.6342 C   0  0  0  0  0  0
  -27.6571  -13.2096   19.8652 C   0  0  2  0  0  0
  -28.7014  -13.0576   20.9958 C   0  0  0  0  0  0
  -25.2590  -13.8157   20.5684 C   0  0  0  0  0  0
  -24.1845  -13.0433   20.9183 C   0  0  0  0  0  0
  -24.6401  -11.6907   20.8740 C   0  0  0  0  0  0
  -23.9061  -10.4303   21.0417 C   0  0  0  0  0  0
  -24.3616   -9.4218   21.9193 C   0  0  0  0  0  0
  -23.6292   -8.2253   22.0768 C   0  0  0  0  0  0
  -22.4279   -8.0296   21.3552 C   0  0  0  0  0  0
  -21.9904   -9.0266   20.4656 C   0  0  0  0  0  0
  -22.7232  -10.2147   20.3066 C   0  0  0  0  0  0
  -21.6859   -6.0746   22.5286 C   0  0  0  0  0  0
  -21.4010   -6.5648   23.8220 C   0  0  0  0  0  0
  -21.3655   -5.6801   24.9180 C   0  0  0  0  0  0
  -21.6047   -4.3063   24.7230 C   0  0  0  0  0  0
  -21.8817   -3.8152   23.4348 C   0  0  0  0  0  0
  -21.9191   -4.6970   22.3405 C   0  0  0  0  0  0
  -22.7874  -13.5255   21.1829 C   0  0  0  0  0  0
  -22.1663   -4.2157   21.0979 F   0  0  0  0  0  0
  -21.5623   -3.4548   25.7737 F   0  0  0  0  0  0
  -30.0222  -13.3819   20.4353 N   0  0  0  0  0  0
  -26.3011  -12.9321   20.3320 N   0  0  0  0  0  0
  -25.9324  -11.6486   20.5764 N   0  0  0  0  0  0
  -22.0494  -12.8264   22.0387 N   0  0  0  0  0  0
  -25.4285  -15.1879   20.4093 N   0  0  0  0  0  0
  -31.8164  -14.7382   20.1338 O   0  0  0  0  0  0
  -21.6642   -6.8892   21.4253 O   0  0  0  0  0  0
  -22.3579  -14.5569   20.6689 O   0  0  0  0  0  0
  -24.6203  -31.8637   23.2051 C   0  0  0  0  0  0
  -25.9063  -32.4795   23.8374 C   0  0  1  0  0  0
  -27.2383  -27.3620   20.0961 C   0  0  0  0  0  0
  -25.5898  -33.8593   24.2313 N   0  0  0  0  0  0
  -23.4135  -30.4860   21.5434 C   0  0  2  0  0  0
  -24.8637  -28.9414   20.1110 C   0  0  0  0  0  0
  -22.7444  -29.4635   22.4910 C   0  0  0  0  0  0
  -18.0280  -28.1371   22.8471 C   0  0  0  0  0  0
  -24.1483  -36.7306   23.2636 C   0  0  0  0  0  0
  -25.9503  -30.7984   21.3769 C   0  0  0  0  0  0
  -26.0252  -29.4278   20.7237 C   0  0  0  0  0  0
  -27.2092  -28.6414   20.7217 C   0  0  0  0  0  0
  -26.0584  -26.9197   19.4648 C   0  0  0  0  0  0
  -24.8776  -27.6860   19.4817 C   0  0  0  0  0  0
  -23.6312  -29.8177   20.1592 C   0  0  0  0  0  0
  -25.4107  -36.3091   24.0326 C   0  0  1  0  0  0
  -20.5874  -28.3677   23.1264 C   0  0  2  0  0  0
  -20.6755  -26.9396   22.5393 C   0  0  0  0  0  0
  -19.5741  -26.6371   21.5179 C   0  0  0  0  0  0
  -18.1926  -26.7907   22.1603 C   0  0  0  0  0  0
  -19.1529  -28.8838   23.2867 C   0  0  0  0  0  0
  -18.9464  -30.1441   23.8900 C   0  0  0  0  0  0
  -17.6470  -30.6576   24.0566 C   0  0  0  0  0  0
  -25.9037  -34.9457   23.5123 C   0  0  0  0  0  0
  -16.5355  -29.9084   23.6309 C   0  0  0  0  0  0
  -16.7273  -28.6489   23.0335 C   0  0  0  0  0  0
  -26.4484  -31.6589   25.0726 C   0  0  0  0  0  0
  -25.3743  -31.3709   26.1477 C   0  0  0  0  0  0
  -27.0325  -30.3020   24.6141 C   0  0  0  0  0  0
  -27.6066  -32.4303   25.7485 C   0  0  0  0  0  0
  -27.5578  -37.1809   24.8462 C   0  0  0  0  0  0
  -21.4153  -29.3061   22.3684 N   0  0  0  0  0  0
  -26.4298  -37.3778   23.9403 N   0  0  0  0  0  0
  -24.6800  -31.0660   22.0990 N   0  0  0  0  0  0
  -23.4202  -28.8148   23.2937 O   0  0  0  0  0  0
  -28.3852  -26.5730   20.1679 O   0  0  0  0  0  0
  -26.5596  -34.8918   22.4675 O   0  0  0  0  0  0
  -23.5373  -32.1427   23.7385 O   0  0  0  0  0  0
  -30.6079  -19.8354   20.2046 C   0  0  0  0  0  0
  -29.0883  -17.9402   20.2826 C   0  0  0  0  0  0
  -31.3855  -17.6537   20.9998 C   0  0  0  0  0  0
  -29.3154  -19.3249   19.9788 C   0  0  0  0  0  0
  -31.6375  -19.0353   20.7745 C   0  0  0  0  0  0
  -30.1271  -17.0701   20.7237 C   0  0  0  0  0  0
  -28.2516  -20.1399   19.3015 C   0  0  0  0  0  0
  -27.1006  -23.5368   18.3632 C   0  0  0  0  0  0
  -26.8366  -22.0533   18.5710 C   0  0  0  0  0  0
  -28.7410  -22.6890   19.8806 C   0  0  0  0  0  0
  -27.8776  -23.9919   19.6057 C   0  0  1  0  0  0
  -30.7623  -22.7984   23.7239 C   0  0  0  0  0  0
  -33.6992  -24.1515   20.5693 C   0  0  0  0  0  0
  -33.6151  -19.1241   22.4022 C   0  0  0  0  0  0
  -33.9700  -18.9994   19.9530 C   0  0  0  0  0  0
  -33.7662  -22.3636   23.0971 C   0  0  0  0  0  0
  -28.6057  -25.3819   19.3451 C   0  0  0  0  0  0
  -31.3368  -21.8018   22.6953 C   0  0  0  0  0  0
  -32.4749  -23.5611   21.2914 C   0  0  0  0  0  0
  -33.1728  -21.1638   20.9138 C   0  0  0  0  0  0
  -33.0520  -19.6013   21.0436 C   0  0  0  0  0  0
  -32.6818  -22.1932   22.0063 C   0  0  0  0  0  0
  -28.0078  -21.5082   19.2970 N   0  0  0  0  0  0
  -29.8805  -15.6480   20.8999 N   0  0  0  0  0  0
  -27.4262  -19.4073   18.5514 N   0  3  0  0  0  0
  -31.4792  -12.4837   19.1413 H   0  0  0  0  0  0
  -30.3619  -11.3699   19.8804 H   0  0  0  0  0  0
  -29.7672  -11.7663   17.4636 H   0  0  0  0  0  0
  -29.6555  -13.4827   17.7586 H   0  0  0  0  0  0
  -27.8697  -11.2890   18.8637 H   0  0  0  0  0  0
  -27.3779  -12.5746   17.7933 H   0  0  0  0  0  0
  -27.6800  -14.2453   19.5264 H   0  0  0  0  0  0
  -28.7047  -12.0385   21.3858 H   0  0  0  0  0  0
  -28.4546  -13.6996   21.8422 H   0  0  0  0  0  0
  -25.2767   -9.5699   22.4765 H   0  0  0  0  0  0
  -24.0006   -7.4652   22.7499 H   0  0  0  0  0  0
  -21.0827   -8.8783   19.8974 H   0  0  0  0  0  0
  -22.3686  -10.9687   19.6179 H   0  0  0  0  0  0
  -21.2002   -7.6158   23.9725 H   0  0  0  0  0  0
  -21.1478   -6.0530   25.9084 H   0  0  0  0  0  0
  -22.0594   -2.7613   23.2846 H   0  0  0  0  0  0
  -22.4081  -11.9912   22.4781 H   0  0  0  0  0  0
  -21.1125  -13.1332   22.2598 H   0  0  0  0  0  0
  -24.6518  -15.8329   20.5070 H   0  0  0  0  0  0
  -26.2621  -15.6253   20.0391 H   0  0  0  0  0  0
  -26.7092  -32.5508   23.1101 H   0  0  0  0  0  0
  -25.0073  -33.9723   25.0476 H   0  0  0  0  0  0
  -22.7043  -31.3027   21.3970 H   0  0  0  0  0  0
  -23.3739  -35.9648   23.3307 H   0  0  0  0  0  0
  -24.3576  -36.8919   22.2051 H   0  0  0  0  0  0
  -23.7231  -37.6505   23.6657 H   0  0  0  0  0  0
  -26.0749  -31.5577   20.6035 H   0  0  0  0  0  0
  -26.8316  -30.8527   22.0050 H   0  0  0  0  0  0
  -28.0974  -29.0050   21.2169 H   0  0  0  0  0  0
  -26.0246  -25.9690   18.9696 H   0  0  0  0  0  0
  -23.9861  -27.3042   19.0047 H   0  0  0  0  0  0
  -23.7577  -30.5937   19.4044 H   0  0  0  0  0  0
  -22.7541  -29.2471   19.8510 H   0  0  0  0  0  0
  -25.1277  -36.1956   25.0816 H   0  0  0  0  0  0
  -20.9965  -28.3246   24.1382 H   0  0  0  0  0  0
  -20.5607  -26.2287   23.3593 H   0  0  0  0  0  0
  -21.6631  -26.7380   22.1243 H   0  0  0  0  0  0
  -19.6910  -25.6277   21.1219 H   0  0  0  0  0  0
  -19.6696  -27.3165   20.6700 H   0  0  0  0  0  0
  -17.4189  -26.6622   21.4016 H   0  0  0  0  0  0
  -18.0376  -26.0046   22.9009 H   0  0  0  0  0  0
  -19.7949  -30.7239   24.2285 H   0  0  0  0  0  0
  -17.5032  -31.6254   24.5166 H   0  0  0  0  0  0
  -15.5363  -30.3003   23.7619 H   0  0  0  0  0  0
  -15.8662  -28.0822   22.7047 H   0  0  0  0  0  0
  -24.5912  -30.7049   25.7828 H   0  0  0  0  0  0
  -24.8955  -32.2878   26.4934 H   0  0  0  0  0  0
  -25.8110  -30.8888   27.0236 H   0  0  0  0  0  0
  -26.2892  -29.6758   24.1198 H   0  0  0  0  0  0
  -27.4069  -29.7268   25.4616 H   0  0  0  0  0  0
  -27.8735  -30.4307   23.9322 H   0  0  0  0  0  0
  -27.2698  -33.3604   26.2074 H   0  0  0  0  0  0
  -28.3888  -32.6849   25.0318 H   0  0  0  0  0  0
  -28.0722  -31.8419   26.5402 H   0  0  0  0  0  0
  -28.2599  -38.0105   24.7512 H   0  0  0  0  0  0
  -28.1068  -36.2636   24.6289 H   0  0  0  0  0  0
  -27.2304  -37.1466   25.8868 H   0  0  0  0  0  0
  -20.9312  -29.8829   21.6952 H   0  0  0  0  0  0
  -26.0180  -38.2849   24.1418 H   0  0  0  0  0  0
  -30.7919  -20.8567   19.9197 H   0  0  0  0  0  0
  -28.1114  -17.5148   20.1087 H   0  0  0  0  0  0
  -32.1784  -17.0212   21.3677 H   0  0  0  0  0  0
  -26.1583  -24.0611   18.2200 H   0  0  0  0  0  0
  -27.6871  -23.6691   17.4526 H   0  0  0  0  0  0
  -26.6740  -21.5852   17.5978 H   0  0  0  0  0  0
  -25.9374  -21.9004   19.1703 H   0  0  0  0  0  0
  -28.8980  -22.5648   20.9521 H   0  0  0  0  0  0
  -29.7143  -22.7779   19.3972 H   0  0  0  0  0  0
  -27.1796  -24.1171   20.4347 H   0  0  0  0  0  0
  -29.9127  -22.3498   24.2416 H   0  0  0  0  0  0
  -30.3921  -23.7070   23.2509 H   0  0  0  0  0  0
  -31.4864  -23.0866   24.4871 H   0  0  0  0  0  0
  -33.4149  -25.0437   20.0105 H   0  0  0  0  0  0
  -34.1401  -23.4571   19.8561 H   0  0  0  0  0  0
  -34.4745  -24.4441   21.2771 H   0  0  0  0  0  0
  -33.7693  -18.0457   22.4386 H   0  0  0  0  0  0
  -32.9642  -19.3722   23.2375 H   0  0  0  0  0  0
  -34.5889  -19.5750   22.5969 H   0  0  0  0  0  0
  -34.0051  -17.9101   19.9981 H   0  0  0  0  0  0
  -34.9994  -19.3483   20.0531 H   0  0  0  0  0  0
  -33.6294  -19.2688   18.9525 H   0  0  0  0  0  0
  -33.6073  -23.2637   23.6901 H   0  0  0  0  0  0
  -34.7648  -22.4573   22.6725 H   0  0  0  0  0  0
  -33.7891  -21.5228   23.7891 H   0  0  0  0  0  0
  -28.4502  -25.6903   18.3097 H   0  0  0  0  0  0
  -29.6796  -25.1951   19.4000 H   0  0  0  0  0  0
  -30.5601  -21.6610   21.9555 H   0  0  0  0  0  0
  -31.4328  -20.8405   23.1907 H   0  0  0  0  0  0
  -31.6638  -23.4681   20.5687 H   0  0  0  0  0  0
  -32.1413  -24.3132   22.0064 H   0  0  0  0  0  0
  -32.7887  -21.4498   19.9355 H   0  0  0  0  0  0
  -34.2375  -21.3650   20.7935 H   0  0  0  0  0  0
  -28.9344  -15.3932   21.1378 H   0  0  0  0  0  0
  -27.6345  -18.4315   18.4217 H   0  0  0  0  0  0
  -26.6760  -19.8129   18.0212 H   0  0  0  0  0  0
  1 25  1  0  0  0
  1 30  2  0  0  0
  1 94  1  0  0  0
  2  3  1  0  0  0
  2 25  1  0  0  0
  2 96  1  0  0  0
  2 97  1  0  0  0
  3  4  1  0  0  0
  3 98  1  0  0  0
  3 99  1  0  0  0
  4  5  1  0  0  0
  4100  1  0  0  0
  4101  1  0  0  0
  5  6  1  0  0  0
  5 26  1  0  0  0
  5102  1  0  0  0
  6 25  1  0  0  0
  6103  1  0  0  0
  6104  1  0  0  0
  7  8  2  0  0  0
  7 26  1  0  0  0
  7 29  1  0  0  0
  8  9  1  0  0  0
  8 22  1  0  0  0
  9 10  1  0  0  0
  9 27  2  0  0  0
 10 11  2  0  0  0
 10 15  1  0  0  0
 11 12  1  0  0  0
 11105  1  0  0  0
 12 13  2  0  0  0
 12106  1  0  0  0
 13 14  1  0  0  0
 13 31  1  0  0  0
 14 15  2  0  0  0
 14107  1  0  0  0
 15108  1  0  0  0
 16 17  2  0  0  0
 16 21  1  0  0  0
 16 31  1  0  0  0
 17 18  1  0  0  0
 17109  1  0  0  0
 18 19  2  0  0  0
 18110  1  0  0  0
 19 20  1  0  0  0
 19 24  1  0  0  0
 20 21  2  0  0  0
 20111  1  0  0  0
 21 23  1  0  0  0
 22 28  1  0  0  0
 22 32  2  0  0  0
 26 27  1  0  0  0
 28112  1  0  0  0
 28113  1  0  0  0
 29114  1  0  0  0
 29115  1  0  0  0
 33 34  1  0  0  0
 33 66  1  0  0  0
 33 70  2  0  0  0
 34 36  1  0  0  0
 34 59  1  0  0  0
 34116  1  0  0  0
 35 44  2  0  0  0
 35 45  1  0  0  0
 35 68  1  0  0  0
 36 56  1  0  0  0
 36117  1  0  0  0
 37 39  1  0  0  0
 37 47  1  0  0  0
 37 66  1  0  0  0
 37118  1  0  0  0
 38 43  2  0  0  0
 38 46  1  0  0  0
 38 47  1  0  0  0
 39 64  1  0  0  0
 39 67  2  0  0  0
 40 52  1  0  0  0
 40 53  2  0  0  0
 40 58  1  0  0  0
 41119  1  0  0  0
 41120  1  0  0  0
 41121  1  0  0  0
 41 48  1  0  0  0
 42 43  1  0  0  0
 42 66  1  0  0  0
 42122  1  0  0  0
 42123  1  0  0  0
 43 44  1  0  0  0
 44124  1  0  0  0
 45 46  2  0  0  0
 45125  1  0  0  0
 46126  1  0  0  0
 47127  1  0  0  0
 47128  1  0  0  0
 48 56  1  0  0  0
 48 65  1  0  0  0
 48129  1  0  0  0
 49 50  1  0  0  0
 49 53  1  0  0  0
 49 64  1  0  0  0
 49130  1  0  0  0
 50 51  1  0  0  0
 50131  1  0  0  0
 50132  1  0  0  0
 51 52  1  0  0  0
 51133  1  0  0  0
 51134  1  0  0  0
 52135  1  0  0  0
 52136  1  0  0  0
 53 54  1  0  0  0
 54 55  2  0  0  0
 54137  1  0  0  0
 55 57  1  0  0  0
 55138  1  0  0  0
 56 69  2  0  0  0
 57 58  2  0  0  0
 57139  1  0  0  0
 58140  1  0  0  0
 59 60  1  0  0  0
 59 61  1  0  0  0
 59 62  1  0  0  0
 60141  1  0  0  0
 60142  1  0  0  0
 60143  1  0  0  0
 61144  1  0  0  0
 61145  1  0  0  0
 61146  1  0  0  0
 62147  1  0  0  0
 62148  1  0  0  0
 62149  1  0  0  0
 63 65  1  0  0  0
 63150  1  0  0  0
 63151  1  0  0  0
 63152  1  0  0  0
 64153  1  0  0  0
 65154  1  0  0  0
 68 87  1  0  0  0
 71 74  2  0  0  0
 71 75  1  0  0  0
 71155  1  0  0  0
 72 74  1  0  0  0
 72 76  2  0  0  0
 72156  1  0  0  0
 73 75  2  0  0  0
 73 76  1  0  0  0
 73157  1  0  0  0
 74 77  1  0  0  0
 75 91  1  0  0  0
 76 94  1  0  0  0
 77 93  1  0  0  0
 77 95  2  0  0  0
 78 79  1  0  0  0
 78 81  1  0  0  0
 78158  1  0  0  0
 78159  1  0  0  0
 79 93  1  0  0  0
 79160  1  0  0  0
 79161  1  0  0  0
 80 81  1  0  0  0
 80 93  1  0  0  0
 80162  1  0  0  0
 80163  1  0  0  0
 81 87  1  0  0  0
 81164  1  0  0  0
 82 88  1  0  0  0
 82165  1  0  0  0
 82166  1  0  0  0
 82167  1  0  0  0
 83 89  1  0  0  0
 83168  1  0  0  0
 83169  1  0  0  0
 83170  1  0  0  0
 84171  1  0  0  0
 84172  1  0  0  0
 84173  1  0  0  0
 84 91  1  0  0  0
 85 91  1  0  0  0
 85174  1  0  0  0
 85175  1  0  0  0
 85176  1  0  0  0
 86177  1  0  0  0
 86178  1  0  0  0
 86179  1  0  0  0
 86 92  1  0  0  0
 87180  1  0  0  0
 87181  1  0  0  0
 88 92  1  0  0  0
 88182  1  0  0  0
 88183  1  0  0  0
 89 92  1  0  0  0
 89184  1  0  0  0
 89185  1  0  0  0
 90 91  1  0  0  0
 90 92  1  0  0  0
 90186  1  0  0  0
 90187  1  0  0  0
 94188  1  0  0  0
 95189  1  0  0  0
 95190  1  0  0  0
M  CHG  1  95   1
M  ISO  4   1 100  68 101  87 101  94 100
M  END
> <chiral flag>
0

> <version>
0

> <s_m_source_file>
/data/baiqing/PycharmProjects/Reinvent-master-3.2/result/LINK_invent/BTK/process_docking_weight1_custom_product_contain_oxygen_bond_distance_aromatic_linkinvent_7_9_3/rearranged_h_0145.sdf

> <i_m_source_file_index>
90

> <r_mmod_Potential_Energy-OPLS-2005>
37.0097732543945

> <r_mmod_Stretch_Energy-OPLS-2005>
80.2131118774414

> <r_mmod_Bend_Energy-OPLS-2005>
226.516143798828

> <r_mmod_Torsional_Energy-OPLS-2005>
324.210296630859

> <r_mmod_Improper_Torsional_Energy-OPLS-2005>
6.03443193435669

> <r_mmod_Van_der_Waal_Energy-OPLS-2005>
170.324493408203

> <r_mmod_Electrostatic_Energy-OPLS-2005>
-406.911315917969

> <r_mmod_Solvation_Energy-OPLS-2005>
-396.383972167969

> <b_mmod_Minimization_Converged-OPLS-2005>
0

> <r_mmod_RMS_Derivative-OPLS-2005>
2.78189897537231

$$$$
90
                    3D
 Structure written by MMmdl.
163172  0  0  1  0            999 V2000
  -30.6120  -14.6016   20.5215 C   0  0  0  0  0  0
  -30.4441  -12.3746   19.4313 C   0  0  0  0  0  0
  -29.5047  -12.5052   18.2111 C   0  0  0  0  0  0
  -28.0265  -12.3427   18.6267 C   0  0  0  0  0  0
  -27.6533  -13.2041   19.8620 C   0  0  2  0  0  0
  -28.6999  -13.0316   20.9865 C   0  0  0  0  0  0
  -25.2566  -13.8141   20.5679 C   0  0  0  0  0  0
  -24.1821  -13.0423   20.9198 C   0  0  0  0  0  0
  -24.6371  -11.6885   20.8733 C   0  0  0  0  0  0
  -23.9033  -10.4280   21.0386 C   0  0  0  0  0  0
  -24.3594   -9.4195   21.9163 C   0  0  0  0  0  0
  -23.6280   -8.2225   22.0734 C   0  0  0  0  0  0
  -22.4264   -8.0259   21.3529 C   0  0  0  0  0  0
  -21.9894   -9.0229   20.4633 C   0  0  0  0  0  0
  -22.7207  -10.2112   20.3035 C   0  0  0  0  0  0
  -21.6852   -6.0709   22.5266 C   0  0  0  0  0  0
  -21.4012   -6.5615   23.8197 C   0  0  0  0  0  0
  -21.3662   -5.6775   24.9162 C   0  0  0  0  0  0
  -21.6053   -4.3037   24.7218 C   0  0  0  0  0  0
  -21.8824   -3.8119   23.4340 C   0  0  0  0  0  0
  -21.9191   -4.6935   22.3393 C   0  0  0  0  0  0
  -22.7848  -13.5220   21.1855 C   0  0  0  0  0  0
  -22.1666   -4.2116   21.0971 F   0  0  0  0  0  0
  -21.5640   -3.4529   25.7738 F   0  0  0  0  0  0
  -30.0151  -13.3765   20.4216 N   0  0  0  0  0  0
  -26.2974  -12.9291   20.3303 N   0  0  0  0  0  0
  -25.9288  -11.6457   20.5731 N   0  0  0  0  0  0
  -22.0500  -12.8210   22.0422 N   0  0  0  0  0  0
  -25.4285  -15.1860   20.4090 N   0  0  0  0  0  0
  -31.7842  -14.7941   20.1801 O   0  0  0  0  0  0
  -21.6630   -6.8851   21.4230 O   0  0  0  0  0  0
  -22.3523  -14.5523   20.6689 O   0  0  0  0  0  0
  -24.6202  -31.8610   23.2029 C   0  0  0  0  0  0
  -25.9059  -32.4791   23.8353 C   0  0  1  0  0  0
  -27.2351  -27.3605   20.1213 C   0  0  0  0  0  0
  -25.5882  -33.8593   24.2267 N   0  0  0  0  0  0
  -23.4148  -30.4816   21.5434 C   0  0  2  0  0  0
  -24.8651  -28.9357   20.1164 C   0  0  0  0  0  0
  -22.7448  -29.4618   22.4936 C   0  0  0  0  0  0
  -18.0273  -28.1395   22.8474 C   0  0  0  0  0  0
  -24.1488  -36.7308   23.2640 C   0  0  0  0  0  0
  -25.9496  -30.8068   21.3669 C   0  0  0  0  0  0
  -26.0300  -29.4361   20.7116 C   0  0  0  0  0  0
  -27.2218  -28.6604   20.7000 C   0  0  0  0  0  0
  -26.0509  -26.8936   19.5131 C   0  0  0  0  0  0
  -24.8738  -27.6679   19.5099 C   0  0  0  0  0  0
  -23.6299  -29.8095   20.1605 C   0  0  0  0  0  0
  -25.4112  -36.3095   24.0330 C   0  0  1  0  0  0
  -20.5867  -28.3679   23.1291 C   0  0  2  0  0  0
  -20.6755  -26.9403   22.5413 C   0  0  0  0  0  0
  -19.5747  -26.6382   21.5201 C   0  0  0  0  0  0
  -18.1926  -26.7936   22.1611 C   0  0  0  0  0  0
  -19.1527  -28.8855   23.2875 C   0  0  0  0  0  0
  -18.9458  -30.1455   23.8890 C   0  0  0  0  0  0
  -17.6465  -30.6593   24.0564 C   0  0  0  0  0  0
  -25.9040  -34.9463   23.5099 C   0  0  0  0  0  0
  -16.5352  -29.9099   23.6331 C   0  0  0  0  0  0
  -16.7264  -28.6523   23.0335 C   0  0  0  0  0  0
  -26.4455  -31.6613   25.0725 C   0  0  0  0  0  0
  -25.3705  -31.3766   26.1468 C   0  0  0  0  0  0
  -27.0272  -30.3035   24.6167 C   0  0  0  0  0  0
  -27.6012  -32.4351   25.7492 C   0  0  0  0  0  0
  -27.5587  -37.1800   24.8454 C   0  0  0  0  0  0
  -21.4164  -29.3039   22.3694 N   0  0  0  0  0  0
  -26.4290  -37.3793   23.9412 N   0  0  0  0  0  0
  -24.6800  -31.0655   22.0958 N   0  0  0  0  0  0
  -23.4187  -28.8167   23.3013 O   0  0  0  0  0  0
  -28.3740  -26.5583   20.1173 O   0  0  0  0  0  0
  -26.5621  -34.8928   22.4672 O   0  0  0  0  0  0
  -23.5371  -32.1380   23.7380 O   0  0  0  0  0  0
  -29.8186  -18.4606   23.1785 C   0  0  0  0  0  0
  -29.7262  -17.1704   22.6271 C   0  0  0  0  0  0
  -30.1528  -18.1143   20.4302 C   0  0  0  0  0  0
  -30.2381  -19.4489   20.9689 C   0  0  0  0  0  0
  -30.1124  -19.5910   22.3831 C   0  0  0  0  0  0
  -29.9387  -16.9618   21.2524 C   0  0  0  0  0  0
  -30.6573  -20.5813   20.0681 C   0  0  0  0  0  0
  -30.3911  -24.2752   19.5361 C   0  0  0  0  0  0
  -30.9189  -22.8900   19.1414 C   0  0  0  0  0  0
  -29.0526  -22.6145   20.6215 C   0  0  0  0  0  0
  -28.9380  -24.0219   19.9145 C   0  0  1  0  0  0
  -30.3581  -20.8916   23.1344 C   0  0  0  0  0  0
  -28.2585  -25.2138   20.6962 C   0  0  0  0  0  0
  -30.2011  -21.8894   19.9742 N   0  0  0  0  0  0
  -29.7386  -15.6214   20.7527 N   0  0  0  0  0  0
  -31.6670  -20.2605   19.2570 N   0  3  0  0  0  0
  -31.4834  -12.5172   19.1295 H   0  0  0  0  0  0
  -30.3876  -11.3713   19.8566 H   0  0  0  0  0  0
  -29.7663  -11.7626   17.4558 H   0  0  0  0  0  0
  -29.6458  -13.4791   17.7389 H   0  0  0  0  0  0
  -27.8623  -11.2887   18.8525 H   0  0  0  0  0  0
  -27.3674  -12.5803   17.7905 H   0  0  0  0  0  0
  -27.6767  -14.2413   19.5281 H   0  0  0  0  0  0
  -28.7095  -12.0028   21.3495 H   0  0  0  0  0  0
  -28.4516  -13.6489   21.8521 H   0  0  0  0  0  0
  -25.2740   -9.5678   22.4731 H   0  0  0  0  0  0
  -23.9997   -7.4614   22.7443 H   0  0  0  0  0  0
  -21.0822   -8.8724   19.8951 H   0  0  0  0  0  0
  -22.3644  -10.9639   19.6138 H   0  0  0  0  0  0
  -21.2002   -7.6128   23.9694 H   0  0  0  0  0  0
  -21.1496   -6.0503   25.9069 H   0  0  0  0  0  0
  -22.0609   -2.7583   23.2841 H   0  0  0  0  0  0
  -22.4119  -11.9870   22.4823 H   0  0  0  0  0  0
  -21.1116  -13.1203   22.2632 H   0  0  0  0  0  0
  -24.6570  -15.8370   20.5100 H   0  0  0  0  0  0
  -26.2621  -15.6253   20.0411 H   0  0  0  0  0  0
  -26.7126  -32.5475   23.1104 H   0  0  0  0  0  0
  -24.9982  -33.9748   25.0378 H   0  0  0  0  0  0
  -22.7070  -31.3001   21.3968 H   0  0  0  0  0  0
  -23.3760  -35.9631   23.3290 H   0  0  0  0  0  0
  -24.3582  -36.8943   22.2056 H   0  0  0  0  0  0
  -23.7236  -37.6503   23.6672 H   0  0  0  0  0  0
  -26.0722  -31.5731   20.6010 H   0  0  0  0  0  0
  -26.8316  -30.8567   21.9934 H   0  0  0  0  0  0
  -28.1232  -29.0447   21.1584 H   0  0  0  0  0  0
  -26.0335  -25.9207   19.0433 H   0  0  0  0  0  0
  -23.9788  -27.2783   19.0457 H   0  0  0  0  0  0
  -23.7462  -30.5808   19.3977 H   0  0  0  0  0  0
  -22.7537  -29.2313   19.8609 H   0  0  0  0  0  0
  -25.1293  -36.1943   25.0827 H   0  0  0  0  0  0
  -20.9948  -28.3250   24.1416 H   0  0  0  0  0  0
  -20.5626  -26.2287   23.3609 H   0  0  0  0  0  0
  -21.6631  -26.7423   22.1234 H   0  0  0  0  0  0
  -19.6903  -25.6291   21.1239 H   0  0  0  0  0  0
  -19.6703  -27.3179   20.6726 H   0  0  0  0  0  0
  -17.4191  -26.6657   21.4024 H   0  0  0  0  0  0
  -18.0347  -26.0086   22.9019 H   0  0  0  0  0  0
  -19.7940  -30.7260   24.2259 H   0  0  0  0  0  0
  -17.5033  -31.6274   24.5166 H   0  0  0  0  0  0
  -15.5360  -30.3003   23.7676 H   0  0  0  0  0  0
  -15.8658  -28.0859   22.7035 H   0  0  0  0  0  0
  -24.5858  -30.7131   25.7819 H   0  0  0  0  0  0
  -24.8921  -32.2941   26.4905 H   0  0  0  0  0  0
  -25.8042  -30.8944   27.0236 H   0  0  0  0  0  0
  -26.2830  -29.6830   24.1158 H   0  0  0  0  0  0
  -27.3917  -29.7258   25.4671 H   0  0  0  0  0  0
  -27.8727  -30.4315   23.9404 H   0  0  0  0  0  0
  -27.2604  -33.3629   26.2100 H   0  0  0  0  0  0
  -28.3805  -32.6957   25.0321 H   0  0  0  0  0  0
  -28.0699  -31.8470   26.5389 H   0  0  0  0  0  0
  -28.2583  -38.0119   24.7529 H   0  0  0  0  0  0
  -28.1101  -36.2649   24.6235 H   0  0  0  0  0  0
  -27.2310  -37.1401   25.8857 H   0  0  0  0  0  0
  -20.9332  -29.8785   21.6930 H   0  0  0  0  0  0
  -26.0171  -38.2860   24.1454 H   0  0  0  0  0  0
  -29.6903  -18.5735   24.2463 H   0  0  0  0  0  0
  -29.4930  -16.3390   23.2786 H   0  0  0  0  0  0
  -30.2718  -17.9640   19.3660 H   0  0  0  0  0  0
  -30.4671  -24.9845   18.7119 H   0  0  0  0  0  0
  -30.9586  -24.6773   20.3769 H   0  0  0  0  0  0
  -31.9995  -22.8522   19.2912 H   0  0  0  0  0  0
  -30.7187  -22.6913   18.0872 H   0  0  0  0  0  0
  -28.1229  -22.0497   20.5373 H   0  0  0  0  0  0
  -29.2493  -22.7683   21.6804 H   0  0  0  0  0  0
  -28.3656  -23.8790   18.9971 H   0  0  0  0  0  0
  -30.8687  -20.6897   24.0772 H   0  0  0  0  0  0
  -29.4144  -21.3793   23.3770 H   0  0  0  0  0  0
  -30.9960  -21.5887   22.5939 H   0  0  0  0  0  0
  -28.7030  -25.2711   21.6903 H   0  0  0  0  0  0
  -27.2161  -24.9472   20.8723 H   0  0  0  0  0  0
  -28.8021  -15.2731   20.8879 H   0  0  0  0  0  0
  -32.1033  -19.3570   19.3632 H   0  0  0  0  0  0
  -32.0162  -20.8807   18.5482 H   0  0  0  0  0  0
  1 25  1  0  0  0
  1 30  2  0  0  0
  1 85  1  0  0  0
  2  3  1  0  0  0
  2 25  1  0  0  0
  2 87  1  0  0  0
  2 88  1  0  0  0
  3  4  1  0  0  0
  3 89  1  0  0  0
  3 90  1  0  0  0
  4  5  1  0  0  0
  4 91  1  0  0  0
  4 92  1  0  0  0
  5  6  1  0  0  0
  5 26  1  0  0  0
  5 93  1  0  0  0
  6 25  1  0  0  0
  6 94  1  0  0  0
  6 95  1  0  0  0
  7  8  2  0  0  0
  7 26  1  0  0  0
  7 29  1  0  0  0
  8  9  1  0  0  0
  8 22  1  0  0  0
  9 10  1  0  0  0
  9 27  2  0  0  0
 10 11  2  0  0  0
 10 15  1  0  0  0
 11 12  1  0  0  0
 11 96  1  0  0  0
 12 13  2  0  0  0
 12 97  1  0  0  0
 13 14  1  0  0  0
 13 31  1  0  0  0
 14 15  2  0  0  0
 14 98  1  0  0  0
 15 99  1  0  0  0
 16 17  2  0  0  0
 16 21  1  0  0  0
 16 31  1  0  0  0
 17 18  1  0  0  0
 17100  1  0  0  0
 18 19  2  0  0  0
 18101  1  0  0  0
 19 20  1  0  0  0
 19 24  1  0  0  0
 20 21  2  0  0  0
 20102  1  0  0  0
 21 23  1  0  0  0
 22 28  1  0  0  0
 22 32  2  0  0  0
 26 27  1  0  0  0
 28103  1  0  0  0
 28104  1  0  0  0
 29105  1  0  0  0
 29106  1  0  0  0
 33 34  1  0  0  0
 33 66  1  0  0  0
 33 70  2  0  0  0
 34 36  1  0  0  0
 34 59  1  0  0  0
 34107  1  0  0  0
 35 44  2  0  0  0
 35 45  1  0  0  0
 35 68  1  0  0  0
 36 56  1  0  0  0
 36108  1  0  0  0
 37 39  1  0  0  0
 37 47  1  0  0  0
 37 66  1  0  0  0
 37109  1  0  0  0
 38 43  2  0  0  0
 38 46  1  0  0  0
 38 47  1  0  0  0
 39 64  1  0  0  0
 39 67  2  0  0  0
 40 52  1  0  0  0
 40 53  2  0  0  0
 40 58  1  0  0  0
 41110  1  0  0  0
 41111  1  0  0  0
 41112  1  0  0  0
 41 48  1  0  0  0
 42 43  1  0  0  0
 42 66  1  0  0  0
 42113  1  0  0  0
 42114  1  0  0  0
 43 44  1  0  0  0
 44115  1  0  0  0
 45 46  2  0  0  0
 45116  1  0  0  0
 46117  1  0  0  0
 47118  1  0  0  0
 47119  1  0  0  0
 48 56  1  0  0  0
 48 65  1  0  0  0
 48120  1  0  0  0
 49 50  1  0  0  0
 49 53  1  0  0  0
 49 64  1  0  0  0
 49121  1  0  0  0
 50 51  1  0  0  0
 50122  1  0  0  0
 50123  1  0  0  0
 51 52  1  0  0  0
 51124  1  0  0  0
 51125  1  0  0  0
 52126  1  0  0  0
 52127  1  0  0  0
 53 54  1  0  0  0
 54 55  2  0  0  0
 54128  1  0  0  0
 55 57  1  0  0  0
 55129  1  0  0  0
 56 69  2  0  0  0
 57 58  2  0  0  0
 57130  1  0  0  0
 58131  1  0  0  0
 59 60  1  0  0  0
 59 61  1  0  0  0
 59 62  1  0  0  0
 60132  1  0  0  0
 60133  1  0  0  0
 60134  1  0  0  0
 61135  1  0  0  0
 61136  1  0  0  0
 61137  1  0  0  0
 62138  1  0  0  0
 62139  1  0  0  0
 62140  1  0  0  0
 63 65  1  0  0  0
 63141  1  0  0  0
 63142  1  0  0  0
 63143  1  0  0  0
 64144  1  0  0  0
 65145  1  0  0  0
 68 83  1  0  0  0
 71 72  2  0  0  0
 71 75  1  0  0  0
 71146  1  0  0  0
 72 76  1  0  0  0
 72147  1  0  0  0
 73 74  1  0  0  0
 73 76  2  0  0  0
 73148  1  0  0  0
 74 75  2  0  0  0
 74 77  1  0  0  0
 75 82  1  0  0  0
 76 85  1  0  0  0
 77 84  1  0  0  0
 77 86  2  0  0  0
 78 79  1  0  0  0
 78 81  1  0  0  0
 78149  1  0  0  0
 78150  1  0  0  0
 79 84  1  0  0  0
 79151  1  0  0  0
 79152  1  0  0  0
 80 81  1  0  0  0
 80 84  1  0  0  0
 80153  1  0  0  0
 80154  1  0  0  0
 81 83  1  0  0  0
 81155  1  0  0  0
 82156  1  0  0  0
 82157  1  0  0  0
 82158  1  0  0  0
 83159  1  0  0  0
 83160  1  0  0  0
 85161  1  0  0  0
 86162  1  0  0  0
 86163  1  0  0  0
M  CHG  1  86   1
M  ISO  4   1 100  68 101  83 101  85 100
M  END
> <chiral flag>
0

> <version>
0

> <s_m_source_file>
/data/baiqing/PycharmProjects/Reinvent-master-3.2/result/LINK_invent/BTK/process_docking_weight1_custom_product_contain_oxygen_bond_distance_aromatic_linkinvent_7_9_3/rearranged_h_0145.sdf

> <i_m_source_file_index>
91

> <r_mmod_Potential_Energy-OPLS-2005>
2.11564135551453

> <r_mmod_Stretch_Energy-OPLS-2005>
67.6401214599609

> <r_mmod_Bend_Energy-OPLS-2005>
172.271331787109

> <r_mmod_Torsional_Energy-OPLS-2005>
326.355560302734

> <r_mmod_Improper_Torsional_Energy-OPLS-2005>
10.0485420227051

> <r_mmod_Van_der_Waal_Energy-OPLS-2005>
149.323944091797

> <r_mmod_Electrostatic_Energy-OPLS-2005>
-362.538665771484

> <r_mmod_Solvation_Energy-OPLS-2005>
-396.293975830078

> <b_mmod_Minimization_Converged-OPLS-2005>
0

> <r_mmod_RMS_Derivative-OPLS-2005>
1.95807039737701

$$$$
91
                    3D
 Structure written by MMmdl.
188196  0  0  1  0            999 V2000
  -28.8544  -14.8915   20.0156 C   0  0  0  0  0  0
  -30.2944  -12.8751   19.2039 C   0  0  0  0  0  0
  -29.3613  -12.3315   18.0818 C   0  0  0  0  0  0
  -28.0314  -11.7056   18.6256 C   0  0  0  0  0  0
  -27.6456  -12.4495   19.9035 C   0  0  2  0  0  0
  -28.7764  -12.6185   20.8915 C   0  0  0  0  0  0
  -26.0061  -13.1189   21.5780 C   0  0  0  0  0  0
  -24.7079  -13.1129   21.2182 C   0  0  0  0  0  0
  -24.7853  -11.5778   21.1801 C   0  0  0  0  0  0
  -23.9526  -10.3499   21.2256 C   0  0  0  0  0  0
  -24.2463   -9.4015   22.2148 C   0  0  0  0  0  0
  -23.5351   -8.1933   22.2800 C   0  0  0  0  0  0
  -22.4443   -7.9542   21.4156 C   0  0  0  0  0  0
  -22.2150   -8.8449   20.3677 C   0  0  0  0  0  0
  -23.0826   -9.9207   20.1994 C   0  0  0  0  0  0
  -21.6502   -6.0412   22.5502 C   0  0  0  0  0  0
  -21.3644   -6.5356   23.8399 C   0  0  0  0  0  0
  -21.3484   -5.6631   24.9378 C   0  0  0  0  0  0
  -21.5942   -4.2923   24.7403 C   0  0  0  0  0  0
  -21.8813   -3.7975   23.4525 C   0  0  0  0  0  0
  -21.9054   -4.6671   22.3535 C   0  0  0  0  0  0
  -22.8634  -14.9064   20.4215 C   0  0  0  0  0  0
  -22.1455   -4.1916   21.1069 F   0  0  0  0  0  0
  -21.5829   -3.4539   25.7947 F   0  0  0  0  0  0
  -29.3907  -13.6024   20.1468 N   0  0  0  0  0  0
  -26.5091  -12.3121   20.6154 N   0  0  0  0  0  0
  -25.8385  -11.2343   20.5261 N   0  0  0  0  0  0
  -21.4987  -14.8195   20.6927 N   0  0  0  0  0  0
  -26.7748  -14.0695   22.1983 N   0  0  0  0  0  0
  -29.9575  -15.5450   19.9455 O   0  0  0  0  0  0
  -21.6423   -6.8608   21.4511 O   0  0  0  0  0  0
  -22.9770  -15.8939   19.7849 O   0  0  0  0  0  0
  -24.6167  -31.8678   23.2137 C   0  0  0  0  0  0
  -25.9100  -32.4823   23.8402 C   0  0  1  0  0  0
  -27.1367  -27.3211   20.2000 C   0  0  0  0  0  0
  -25.5957  -33.8622   24.2323 N   0  0  0  0  0  0
  -23.4052  -30.4988   21.5511 C   0  0  2  0  0  0
  -24.8494  -28.9688   20.1025 C   0  0  0  0  0  0
  -22.7430  -29.4666   22.4953 C   0  0  0  0  0  0
  -18.0268  -28.1386   22.8464 C   0  0  0  0  0  0
  -24.1477  -36.7317   23.2626 C   0  0  0  0  0  0
  -25.9440  -30.8133   21.3845 C   0  0  0  0  0  0
  -26.0090  -29.4366   20.7288 C   0  0  0  0  0  0
  -27.1694  -28.6287   20.7707 C   0  0  0  0  0  0
  -26.0021  -26.9236   19.4829 C   0  0  0  0  0  0
  -24.8491  -27.7217   19.4639 C   0  0  0  0  0  0
  -23.6180  -29.8485   20.1552 C   0  0  0  0  0  0
  -25.4112  -36.3116   24.0322 C   0  0  1  0  0  0
  -20.5855  -28.3681   23.1276 C   0  0  2  0  0  0
  -20.6772  -26.9412   22.5400 C   0  0  0  0  0  0
  -19.5756  -26.6371   21.5204 C   0  0  0  0  0  0
  -18.1935  -26.7930   22.1612 C   0  0  0  0  0  0
  -19.1518  -28.8863   23.2851 C   0  0  0  0  0  0
  -18.9456  -30.1473   23.8869 C   0  0  0  0  0  0
  -17.6459  -30.6592   24.0560 C   0  0  0  0  0  0
  -25.9063  -34.9480   23.5114 C   0  0  0  0  0  0
  -16.5350  -29.9086   23.6337 C   0  0  0  0  0  0
  -16.7260  -28.6499   23.0358 C   0  0  0  0  0  0
  -26.4476  -31.6644   25.0768 C   0  0  0  0  0  0
  -25.3690  -31.3841   26.1485 C   0  0  0  0  0  0
  -27.0345  -30.3054   24.6311 C   0  0  0  0  0  0
  -27.6054  -32.4364   25.7564 C   0  0  0  0  0  0
  -27.5591  -37.1811   24.8457 C   0  0  0  0  0  0
  -21.4160  -29.3020   22.3687 N   0  0  0  0  0  0
  -26.4289  -37.3818   23.9417 N   0  0  0  0  0  0
  -24.6722  -31.0781   22.1040 N   0  0  0  0  0  0
  -23.4209  -28.8178   23.2980 O   0  0  0  0  0  0
  -28.1817  -26.4248   20.2415 O   0  0  0  0  0  0
  -26.5604  -34.8935   22.4667 O   0  0  0  0  0  0
  -23.5379  -32.1456   23.7499 O   0  0  0  0  0  0
  -22.5518  -12.9913   21.8121 C   0  0  0  0  0  0
  -24.3985  -13.6745   19.0375 C   0  0  0  0  0  0
  -24.8306  -15.4412   21.6463 C   0  0  0  0  0  0
  -22.9322  -12.6708   19.8554 C   0  0  0  0  0  0
  -23.5354  -14.5117   22.6474 C   0  0  0  0  0  0
  -25.4645  -14.9658   19.9712 C   0  0  0  0  0  0
  -21.8106  -12.2664   18.9361 C   0  0  0  0  0  0
  -26.8573  -24.3260   21.4268 C   0  0  0  0  0  0
  -24.6059  -19.6623   21.0600 C   0  0  0  0  0  0
  -27.5743  -22.7421   23.2726 C   0  0  0  0  0  0
  -27.8836  -22.0279   20.8799 C   0  0  0  0  0  0
  -22.1360  -19.1571   23.0217 C   0  0  0  0  0  0
  -22.8677  -19.0660   25.3307 C   0  0  0  0  0  0
  -22.8980  -15.6482   23.6331 C   0  0  0  0  0  0
  -28.1743  -25.2214   21.1198 C   0  0  0  0  0  0
  -23.7319  -17.0728   23.9344 C   0  0  0  0  0  0
  -25.5023  -21.9538   21.9441 C   0  0  0  0  0  0
  -24.6267  -19.7265   23.6370 C   0  0  0  0  0  0
  -25.2980  -20.3315   22.2547 C   0  0  1  0  0  0
  -26.9392  -22.7704   21.8639 C   0  0  0  0  0  0
  -23.3444  -18.6936   23.8934 C   0  0  0  0  0  0
  -21.8396  -12.4885   17.6088 N   0  0  0  0  0  0
  -27.2615  -15.3133   19.8221 N   0  0  0  0  0  0
  -20.7118  -11.7234   19.4705 N   0  3  0  0  0  0
  -25.7564  -24.8759   21.5038 O   0  0  0  0  0  0
  -31.0250  -13.5590   18.7559 H   0  0  0  0  0  0
  -30.8740  -12.0816   19.6894 H   0  0  0  0  0  0
  -29.8998  -11.6045   17.4699 H   0  0  0  0  0  0
  -29.0723  -13.1494   17.4097 H   0  0  0  0  0  0
  -28.1224  -10.6302   18.8250 H   0  0  0  0  0  0
  -27.2543  -11.7524   17.8522 H   0  0  0  0  0  0
  -27.2936  -13.2098   19.2591 H   0  0  0  0  0  0
  -29.3039  -11.6673   21.0172 H   0  0  0  0  0  0
  -28.6920  -12.9487   21.9176 H   0  0  0  0  0  0
  -25.0397   -9.5955   22.9182 H   0  0  0  0  0  0
  -23.7902   -7.4854   23.0494 H   0  0  0  0  0  0
  -21.5188   -8.5552   19.5933 H   0  0  0  0  0  0
  -23.1954  -10.3173   19.2076 H   0  0  0  0  0  0
  -21.1544   -7.5870   23.9862 H   0  0  0  0  0  0
  -21.1252   -6.0356   25.9324 H   0  0  0  0  0  0
  -22.0731   -2.7401   23.3024 H   0  0  0  0  0  0
  -21.0894  -14.0379   21.1718 H   0  0  0  0  0  0
  -20.8961  -15.5268   20.3187 H   0  0  0  0  0  0
  -26.4424  -14.6233   22.9788 H   0  0  0  0  0  0
  -27.5886  -14.4657   21.7685 H   0  0  0  0  0  0
  -26.7177  -32.5511   23.1177 H   0  0  0  0  0  0
  -25.0108  -33.9798   25.0461 H   0  0  0  0  0  0
  -22.6911  -31.3173   21.4205 H   0  0  0  0  0  0
  -23.3753  -35.9638   23.3292 H   0  0  0  0  0  0
  -24.3542  -36.8941   22.2036 H   0  0  0  0  0  0
  -23.7218  -37.6517   23.6639 H   0  0  0  0  0  0
  -26.0817  -31.5809   20.6212 H   0  0  0  0  0  0
  -26.8225  -30.8507   22.0162 H   0  0  0  0  0  0
  -28.0572  -28.9790   21.2799 H   0  0  0  0  0  0
  -25.9898  -25.9577   19.0046 H   0  0  0  0  0  0
  -23.9620  -27.3535   18.9715 H   0  0  0  0  0  0
  -23.7553  -30.6394   19.4160 H   0  0  0  0  0  0
  -22.7363  -29.2898   19.8327 H   0  0  0  0  0  0
  -25.1277  -36.1972   25.0812 H   0  0  0  0  0  0
  -20.9935  -28.3276   24.1406 H   0  0  0  0  0  0
  -20.5710  -26.2296   23.3598 H   0  0  0  0  0  0
  -21.6647  -26.7476   22.1186 H   0  0  0  0  0  0
  -19.6931  -25.6270   21.1275 H   0  0  0  0  0  0
  -19.6716  -27.3153   20.6712 H   0  0  0  0  0  0
  -17.4206  -26.6646   21.4022 H   0  0  0  0  0  0
  -18.0344  -26.0086   22.9018 H   0  0  0  0  0  0
  -19.7951  -30.7282   24.2230 H   0  0  0  0  0  0
  -17.5033  -31.6288   24.5156 H   0  0  0  0  0  0
  -15.5363  -30.2988   23.7716 H   0  0  0  0  0  0
  -15.8642  -28.0834   22.7095 H   0  0  0  0  0  0
  -24.5750  -30.7366   25.7758 H   0  0  0  0  0  0
  -24.9013  -32.3049   26.4982 H   0  0  0  0  0  0
  -25.7912  -30.8877   27.0231 H   0  0  0  0  0  0
  -26.2941  -29.6790   24.1333 H   0  0  0  0  0  0
  -27.3981  -29.7357   25.4884 H   0  0  0  0  0  0
  -27.8832  -30.4318   23.9588 H   0  0  0  0  0  0
  -27.2674  -33.3626   26.2243 H   0  0  0  0  0  0
  -28.3843  -32.7021   25.0396 H   0  0  0  0  0  0
  -28.0779  -31.8434   26.5421 H   0  0  0  0  0  0
  -28.2587  -38.0131   24.7563 H   0  0  0  0  0  0
  -28.1102  -36.2674   24.6199 H   0  0  0  0  0  0
  -27.2307  -37.1360   25.8853 H   0  0  0  0  0  0
  -20.9351  -29.8779   21.6908 H   0  0  0  0  0  0
  -26.0176  -38.2892   24.1438 H   0  0  0  0  0  0
  -21.6620  -12.5828   22.2656 H   0  0  0  0  0  0
  -24.6624  -13.4732   18.0186 H   0  0  0  0  0  0
  -25.4090  -16.2752   21.9807 H   0  0  0  0  0  0
  -25.1312  -19.8282   20.1204 H   0  0  0  0  0  0
  -23.6028  -20.0723   20.9340 H   0  0  0  0  0  0
  -24.5382  -18.5823   21.2109 H   0  0  0  0  0  0
  -28.6372  -22.9924   23.2504 H   0  0  0  0  0  0
  -27.4799  -21.7572   23.7266 H   0  0  0  0  0  0
  -27.0904  -23.4477   23.9498 H   0  0  0  0  0  0
  -28.8142  -22.5609   20.6817 H   0  0  0  0  0  0
  -27.4089  -21.8544   19.9133 H   0  0  0  0  0  0
  -28.1941  -21.0568   21.2604 H   0  0  0  0  0  0
  -21.1433  -18.9539   23.4404 H   0  0  0  0  0  0
  -22.1564  -18.7563   22.0123 H   0  0  0  0  0  0
  -22.1621  -20.2498   22.9423 H   0  0  0  0  0  0
  -21.8550  -18.7264   25.5628 H   0  0  0  0  0  0
  -22.8400  -20.1493   25.4653 H   0  0  0  0  0  0
  -23.5320  -18.6843   26.1077 H   0  0  0  0  0  0
  -22.7593  -15.1717   24.6024 H   0  0  0  0  0  0
  -21.8706  -15.8834   23.3096 H   0  0  0  0  0  0
  -28.9418  -24.5921   20.6708 H   0  0  0  0  0  0
  -28.5901  -25.5651   22.0662 H   0  0  0  0  0  0
  -24.6877  -17.1152   23.4692 H   0  0  0  0  0  0
  -24.1522  -16.8777   24.9190 H   0  0  0  0  0  0
  -24.7937  -22.5436   22.5352 H   0  0  0  0  0  0
  -25.1123  -22.0956   20.9277 H   0  0  0  0  0  0
  -24.4341  -20.6315   24.2074 H   0  0  0  0  0  0
  -25.4497  -19.2385   24.1707 H   0  0  0  0  0  0
  -26.3242  -19.9501   22.2271 H   0  0  0  0  0  0
  -22.5729  -13.0489   17.1960 H   0  0  0  0  0  0
  -21.0404  -12.3002   17.0187 H   0  0  0  0  0  0
  -27.3262  -16.3032   19.6286 H   0  0  0  0  0  0
  -20.7388  -11.4828   20.4536 H   0  0  0  0  0  0
  -19.8474  -11.5586   18.9834 H   0  0  0  0  0  0
  1 25  1  0  0  0
  1 30  2  0  0  0
  1 93  1  0  0  0
  2  3  1  0  0  0
  2 25  1  0  0  0
  2 96  1  0  0  0
  2 97  1  0  0  0
  3  4  1  0  0  0
  3 98  1  0  0  0
  3 99  1  0  0  0
  4  5  1  0  0  0
  4100  1  0  0  0
  4101  1  0  0  0
  5  6  1  0  0  0
  5 26  1  0  0  0
  5102  1  0  0  0
  6 25  1  0  0  0
  6103  1  0  0  0
  6104  1  0  0  0
  7  8  2  0  0  0
  7 26  1  0  0  0
  7 29  1  0  0  0
  8  9  1  0  0  0
  8 22  1  0  0  0
  9 10  1  0  0  0
  9 27  2  0  0  0
 10 11  2  0  0  0
 10 15  1  0  0  0
 11 12  1  0  0  0
 11105  1  0  0  0
 12 13  2  0  0  0
 12106  1  0  0  0
 13 14  1  0  0  0
 13 31  1  0  0  0
 14 15  2  0  0  0
 14107  1  0  0  0
 15108  1  0  0  0
 16 17  2  0  0  0
 16 21  1  0  0  0
 16 31  1  0  0  0
 17 18  1  0  0  0
 17109  1  0  0  0
 18 19  2  0  0  0
 18110  1  0  0  0
 19 20  1  0  0  0
 19 24  1  0  0  0
 20 21  2  0  0  0
 20111  1  0  0  0
 21 23  1  0  0  0
 22 28  1  0  0  0
 22 32  2  0  0  0
 26 27  1  0  0  0
 28112  1  0  0  0
 28113  1  0  0  0
 29114  1  0  0  0
 29115  1  0  0  0
 33 34  1  0  0  0
 33 66  1  0  0  0
 33 70  2  0  0  0
 34 36  1  0  0  0
 34 59  1  0  0  0
 34116  1  0  0  0
 35 44  2  0  0  0
 35 45  1  0  0  0
 35 68  1  0  0  0
 36 56  1  0  0  0
 36117  1  0  0  0
 37 39  1  0  0  0
 37 47  1  0  0  0
 37 66  1  0  0  0
 37118  1  0  0  0
 38 43  2  0  0  0
 38 46  1  0  0  0
 38 47  1  0  0  0
 39 64  1  0  0  0
 39 67  2  0  0  0
 40 52  1  0  0  0
 40 53  2  0  0  0
 40 58  1  0  0  0
 41119  1  0  0  0
 41120  1  0  0  0
 41121  1  0  0  0
 41 48  1  0  0  0
 42 43  1  0  0  0
 42 66  1  0  0  0
 42122  1  0  0  0
 42123  1  0  0  0
 43 44  1  0  0  0
 44124  1  0  0  0
 45 46  2  0  0  0
 45125  1  0  0  0
 46126  1  0  0  0
 47127  1  0  0  0
 47128  1  0  0  0
 48 56  1  0  0  0
 48 65  1  0  0  0
 48129  1  0  0  0
 49 50  1  0  0  0
 49 53  1  0  0  0
 49 64  1  0  0  0
 49130  1  0  0  0
 50 51  1  0  0  0
 50131  1  0  0  0
 50132  1  0  0  0
 51 52  1  0  0  0
 51133  1  0  0  0
 51134  1  0  0  0
 52135  1  0  0  0
 52136  1  0  0  0
 53 54  1  0  0  0
 54 55  2  0  0  0
 54137  1  0  0  0
 55 57  1  0  0  0
 55138  1  0  0  0
 56 69  2  0  0  0
 57 58  2  0  0  0
 57139  1  0  0  0
 58140  1  0  0  0
 59 60  1  0  0  0
 59 61  1  0  0  0
 59 62  1  0  0  0
 60141  1  0  0  0
 60142  1  0  0  0
 60143  1  0  0  0
 61144  1  0  0  0
 61145  1  0  0  0
 61146  1  0  0  0
 62147  1  0  0  0
 62148  1  0  0  0
 62149  1  0  0  0
 63 65  1  0  0  0
 63150  1  0  0  0
 63151  1  0  0  0
 63152  1  0  0  0
 64153  1  0  0  0
 65154  1  0  0  0
 68 85  1  0  0  0
 71 74  2  0  0  0
 71 75  1  0  0  0
 71155  1  0  0  0
 72 74  1  0  0  0
 72 76  2  0  0  0
 72156  1  0  0  0
 73 75  2  0  0  0
 73 76  1  0  0  0
 73157  1  0  0  0
 74 77  1  0  0  0
 75 84  1  0  0  0
 76 93  1  0  0  0
 77 92  1  0  0  0
 77 94  2  0  0  0
 78 85  1  0  0  0
 78 90  1  0  0  0
 78 95  2  0  0  0
 79158  1  0  0  0
 79159  1  0  0  0
 79160  1  0  0  0
 79 89  1  0  0  0
 80161  1  0  0  0
 80162  1  0  0  0
 80163  1  0  0  0
 80 90  1  0  0  0
 81 90  1  0  0  0
 81164  1  0  0  0
 81165  1  0  0  0
 81166  1  0  0  0
 82167  1  0  0  0
 82168  1  0  0  0
 82169  1  0  0  0
 82 91  1  0  0  0
 83 91  1  0  0  0
 83170  1  0  0  0
 83171  1  0  0  0
 83172  1  0  0  0
 84 86  1  0  0  0
 84173  1  0  0  0
 84174  1  0  0  0
 85175  1  0  0  0
 85176  1  0  0  0
 86 91  1  0  0  0
 86177  1  0  0  0
 86178  1  0  0  0
 87 89  1  0  0  0
 87 90  1  0  0  0
 87179  1  0  0  0
 87180  1  0  0  0
 88 89  1  0  0  0
 88 91  1  0  0  0
 88181  1  0  0  0
 88182  1  0  0  0
 89183  1  0  0  0
 92184  1  0  0  0
 92185  1  0  0  0
 93186  1  0  0  0
 94187  1  0  0  0
 94188  1  0  0  0
M  CHG  1  94   1
M  ISO  4   1 100  68 101  85 101  93 100
M  END
> <chiral flag>
0

> <version>
0

> <s_m_source_file>
/data/baiqing/PycharmProjects/Reinvent-master-3.2/result/LINK_invent/BTK/process_docking_weight1_custom_product_contain_oxygen_bond_distance_aromatic_linkinvent_7_9_3/rearranged_h_0145.sdf

> <i_m_source_file_index>
92

> <r_mmod_Potential_Energy-OPLS-2005>
14031.49609375

> <r_mmod_Stretch_Energy-OPLS-2005>
6665.76806640625

> <r_mmod_Bend_Energy-OPLS-2005>
862.647033691406

> <r_mmod_Torsional_Energy-OPLS-2005>
703.320678710938

> <r_mmod_Improper_Torsional_Energy-OPLS-2005>
55.7233047485352

> <r_mmod_Van_der_Waal_Energy-OPLS-2005>
3288.71215820312

> <r_mmod_Electrostatic_Energy-OPLS-2005>
-390.933776855469

> <r_mmod_Solvation_Energy-OPLS-2005>
-433.398559570312

> <b_mmod_Minimization_Converged-OPLS-2005>
0

> <r_mmod_RMS_Derivative-OPLS-2005>
33.716365814209

$$$$
92
                    3D
 Structure written by MMmdl.
168177  0  0  1  0            999 V2000
  -30.7629  -14.4359   20.5923 C   0  0  0  0  0  0
  -30.4097  -12.2969   19.4044 C   0  0  0  0  0  0
  -29.4732  -12.4530   18.1911 C   0  0  0  0  0  0
  -27.9962  -12.3362   18.6180 C   0  0  0  0  0  0
  -27.6469  -13.1782   19.8731 C   0  0  2  0  0  0
  -28.7077  -13.0149   20.9864 C   0  0  0  0  0  0
  -25.2582  -13.8077   20.5755 C   0  0  0  0  0  0
  -24.1795  -13.0391   20.9210 C   0  0  0  0  0  0
  -24.6302  -11.6847   20.8767 C   0  0  0  0  0  0
  -23.8967  -10.4251   21.0422 C   0  0  0  0  0  0
  -24.3547   -9.4187   21.9199 C   0  0  0  0  0  0
  -23.6243   -8.2213   22.0749 C   0  0  0  0  0  0
  -22.4228   -8.0245   21.3542 C   0  0  0  0  0  0
  -21.9845   -9.0204   20.4649 C   0  0  0  0  0  0
  -22.7147  -10.2096   20.3065 C   0  0  0  0  0  0
  -21.6835   -6.0706   22.5276 C   0  0  0  0  0  0
  -21.4002   -6.5623   23.8206 C   0  0  0  0  0  0
  -21.3662   -5.6786   24.9175 C   0  0  0  0  0  0
  -21.6043   -4.3046   24.7232 C   0  0  0  0  0  0
  -21.8822   -3.8131   23.4355 C   0  0  0  0  0  0
  -21.9184   -4.6937   22.3402 C   0  0  0  0  0  0
  -22.7844  -13.5242   21.1845 C   0  0  0  0  0  0
  -22.1650   -4.2123   21.0983 F   0  0  0  0  0  0
  -21.5637   -3.4540   25.7755 F   0  0  0  0  0  0
  -30.0275  -13.3061   20.4028 N   0  0  0  0  0  0
  -26.2955  -12.9157   20.3454 N   0  0  0  0  0  0
  -25.9222  -11.6355   20.5854 N   0  0  0  0  0  0
  -22.0453  -12.8241   22.0391 N   0  0  0  0  0  0
  -25.4330  -15.1795   20.4172 N   0  0  0  0  0  0
  -31.9065  -14.5773   20.1612 O   0  0  0  0  0  0
  -21.6618   -6.8831   21.4229 O   0  0  0  0  0  0
  -22.3569  -14.5554   20.6683 O   0  0  0  0  0  0
  -24.6120  -31.8704   23.2143 C   0  0  0  0  0  0
  -25.9041  -32.4831   23.8410 C   0  0  1  0  0  0
  -27.2368  -27.4674   20.0811 C   0  0  0  0  0  0
  -25.5916  -33.8625   24.2340 N   0  0  0  0  0  0
  -23.3958  -30.4951   21.5553 C   0  0  2  0  0  0
  -24.8389  -28.9672   20.1170 C   0  0  0  0  0  0
  -22.7379  -29.4667   22.5021 C   0  0  0  0  0  0
  -18.0256  -28.1397   22.8486 C   0  0  0  0  0  0
  -24.1488  -36.7325   23.2638 C   0  0  0  0  0  0
  -25.9204  -30.8453   21.3597 C   0  0  0  0  0  0
  -25.9969  -29.4810   20.7109 C   0  0  0  0  0  0
  -27.1947  -28.7362   20.6957 C   0  0  0  0  0  0
  -26.0555  -26.9657   19.4807 C   0  0  0  0  0  0
  -24.8598  -27.7043   19.5044 C   0  0  0  0  0  0
  -23.6006  -29.8302   20.1684 C   0  0  0  0  0  0
  -25.4110  -36.3115   24.0333 C   0  0  1  0  0  0
  -20.5846  -28.3665   23.1338 C   0  0  2  0  0  0
  -20.6763  -26.9407   22.5428 C   0  0  0  0  0  0
  -19.5740  -26.6392   21.5224 C   0  0  0  0  0  0
  -18.1906  -26.7942   22.1622 C   0  0  0  0  0  0
  -19.1510  -28.8844   23.2898 C   0  0  0  0  0  0
  -18.9452  -30.1453   23.8902 C   0  0  0  0  0  0
  -17.6462  -30.6598   24.0572 C   0  0  0  0  0  0
  -25.9038  -34.9476   23.5122 C   0  0  0  0  0  0
  -16.5344  -29.9112   23.6338 C   0  0  0  0  0  0
  -16.7248  -28.6534   23.0339 C   0  0  0  0  0  0
  -26.4475  -31.6605   25.0735 C   0  0  0  0  0  0
  -25.3767  -31.3696   26.1503 C   0  0  0  0  0  0
  -27.0311  -30.3058   24.6093 C   0  0  0  0  0  0
  -27.6047  -32.4324   25.7498 C   0  0  0  0  0  0
  -27.5565  -37.1816   24.8458 C   0  0  0  0  0  0
  -21.4113  -29.3031   22.3754 N   0  0  0  0  0  0
  -26.4290  -37.3804   23.9396 N   0  0  0  0  0  0
  -24.6607  -31.0837   22.1026 N   0  0  0  0  0  0
  -23.4167  -28.8206   23.3045 O   0  0  0  0  0  0
  -28.4362  -26.7849   20.0951 O   0  0  0  0  0  0
  -26.5581  -34.8919   22.4670 O   0  0  0  0  0  0
  -23.5326  -32.1440   23.7569 O   0  0  0  0  0  0
  -27.9830  -16.9185   18.3725 C   0  0  0  0  0  0
  -28.9810  -16.1689   19.0101 C   0  0  0  0  0  0
  -28.6796  -17.4677   21.0426 C   0  0  0  0  0  0
  -27.7646  -18.3066   20.3644 C   0  0  0  0  0  0
  -27.3302  -17.9615   19.0532 C   0  0  0  0  0  0
  -29.2603  -16.3615   20.3841 C   0  0  0  0  0  0
  -27.0855  -22.0252   20.8498 C   0  0  0  0  0  0
  -27.3125  -19.5373   21.0260 C   0  0  0  0  0  0
  -28.7230  -22.4232   19.1627 C   0  0  0  0  0  0
  -28.4995  -20.9195   19.3080 C   0  0  0  0  0  0
  -27.4994  -23.0819   19.8204 C   0  0  1  0  0  0
  -26.1611  -18.6335   18.3386 C   0  0  0  0  0  0
  -26.3257  -23.2371   18.8215 C   0  0  0  0  0  0
  -27.8469  -24.4285   20.5005 C   0  0  0  0  0  0
  -28.4913  -25.4682   19.5554 C   0  0  0  0  0  0
  -27.6014  -20.7445   20.4689 N   0  0  0  0  0  0
  -30.1294  -15.4980   21.1146 N   0  0  0  0  0  0
  -26.6125  -19.4252   22.1567 N   0  3  0  0  0  0
  -26.3599  -22.2295   21.8278 O   0  0  0  0  0  0
  -31.4504  -12.3861   19.0869 H   0  0  0  0  0  0
  -30.3119  -11.2962   19.8298 H   0  0  0  0  0  0
  -29.6981  -11.6898   17.4448 H   0  0  0  0  0  0
  -29.6508  -13.4038   17.6947 H   0  0  0  0  0  0
  -27.7973  -11.2829   18.8176 H   0  0  0  0  0  0
  -27.3420  -12.6143   17.7904 H   0  0  0  0  0  0
  -27.6412  -14.2072   19.5526 H   0  0  0  0  0  0
  -28.7003  -11.9966   21.3762 H   0  0  0  0  0  0
  -28.4819  -13.6624   21.8349 H   0  0  0  0  0  0
  -25.2670   -9.5695   22.4801 H   0  0  0  0  0  0
  -23.9968   -7.4608   22.7448 H   0  0  0  0  0  0
  -21.0780   -8.8678   19.8960 H   0  0  0  0  0  0
  -22.3549  -10.9635   19.6200 H   0  0  0  0  0  0
  -21.1983   -7.6134   23.9702 H   0  0  0  0  0  0
  -21.1490   -6.0521   25.9078 H   0  0  0  0  0  0
  -22.0601   -2.7592   23.2860 H   0  0  0  0  0  0
  -22.4065  -11.9906   22.4802 H   0  0  0  0  0  0
  -21.1087  -13.1306   22.2612 H   0  0  0  0  0  0
  -24.6618  -15.8283   20.5220 H   0  0  0  0  0  0
  -26.2903  -15.6195   20.1101 H   0  0  0  0  0  0
  -26.7108  -32.5542   23.1168 H   0  0  0  0  0  0
  -25.0105  -33.9793   25.0510 H   0  0  0  0  0  0
  -22.6824  -31.3099   21.4183 H   0  0  0  0  0  0
  -23.3749  -35.9660   23.3323 H   0  0  0  0  0  0
  -24.3570  -36.8926   22.2046 H   0  0  0  0  0  0
  -23.7248  -37.6543   23.6638 H   0  0  0  0  0  0
  -26.0259  -31.6100   20.5893 H   0  0  0  0  0  0
  -26.8102  -30.9030   21.9731 H   0  0  0  0  0  0
  -28.0888  -29.1351   21.1532 H   0  0  0  0  0  0
  -26.0285  -26.0088   18.9857 H   0  0  0  0  0  0
  -23.9689  -27.3013   19.0436 H   0  0  0  0  0  0
  -23.7065  -30.6058   19.4087 H   0  0  0  0  0  0
  -22.7239  -29.2506   19.8754 H   0  0  0  0  0  0
  -25.1286  -36.1984   25.0831 H   0  0  0  0  0  0
  -20.9920  -28.3248   24.1468 H   0  0  0  0  0  0
  -20.5706  -26.2265   23.3611 H   0  0  0  0  0  0
  -21.6623  -26.7486   22.1182 H   0  0  0  0  0  0
  -19.6907  -25.6305   21.1250 H   0  0  0  0  0  0
  -19.6703  -27.3216   20.6768 H   0  0  0  0  0  0
  -17.4188  -26.6691   21.4015 H   0  0  0  0  0  0
  -18.0300  -26.0085   22.9021 H   0  0  0  0  0  0
  -19.7933  -30.7253   24.2268 H   0  0  0  0  0  0
  -17.5035  -31.6274   24.5185 H   0  0  0  0  0  0
  -15.5353  -30.3023   23.7670 H   0  0  0  0  0  0
  -15.8643  -28.0863   22.7048 H   0  0  0  0  0  0
  -24.5937  -30.7030   25.7871 H   0  0  0  0  0  0
  -24.8968  -32.2854   26.4965 H   0  0  0  0  0  0
  -25.8164  -30.8876   27.0245 H   0  0  0  0  0  0
  -26.2859  -29.6810   24.1167 H   0  0  0  0  0  0
  -27.4130  -29.7286   25.4520 H   0  0  0  0  0  0
  -27.8656  -30.4392   23.9209 H   0  0  0  0  0  0
  -27.2658  -33.3605   26.2095 H   0  0  0  0  0  0
  -28.3853  -32.6910   25.0339 H   0  0  0  0  0  0
  -28.0721  -31.8448   26.5401 H   0  0  0  0  0  0
  -28.2598  -38.0103   24.7501 H   0  0  0  0  0  0
  -28.1047  -36.2631   24.6304 H   0  0  0  0  0  0
  -27.2262  -37.1494   25.8857 H   0  0  0  0  0  0
  -20.9279  -29.8762   21.6981 H   0  0  0  0  0  0
  -26.0181  -38.2871   24.1453 H   0  0  0  0  0  0
  -27.7072  -16.6703   17.3569 H   0  0  0  0  0  0
  -29.4562  -15.3893   18.4394 H   0  0  0  0  0  0
  -28.9534  -17.6907   22.0654 H   0  0  0  0  0  0
  -28.8293  -22.7081   18.1146 H   0  0  0  0  0  0
  -29.6515  -22.6999   19.6658 H   0  0  0  0  0  0
  -29.4489  -20.3960   19.4378 H   0  0  0  0  0  0
  -28.0361  -20.5427   18.3972 H   0  0  0  0  0  0
  -25.3543  -17.9098   18.2137 H   0  0  0  0  0  0
  -26.4590  -18.9701   17.3451 H   0  0  0  0  0  0
  -25.7344  -19.4831   18.8686 H   0  0  0  0  0  0
  -26.0094  -22.2756   18.4130 H   0  0  0  0  0  0
  -26.5868  -23.8596   17.9672 H   0  0  0  0  0  0
  -25.4521  -23.6815   19.3011 H   0  0  0  0  0  0
  -28.5228  -24.2607   21.3407 H   0  0  0  0  0  0
  -26.9420  -24.8368   20.9520 H   0  0  0  0  0  0
  -29.5425  -25.2152   19.4216 H   0  0  0  0  0  0
  -28.0727  -25.4568   18.5499 H   0  0  0  0  0  0
  -30.6946  -15.9932   21.7891 H   0  0  0  0  0  0
  -26.3607  -18.5167   22.5138 H   0  0  0  0  0  0
  -26.2575  -20.2603   22.6034 H   0  0  0  0  0  0
  1 25  1  0  0  0
  1 30  2  0  0  0
  1 87  1  0  0  0
  2  3  1  0  0  0
  2 25  1  0  0  0
  2 90  1  0  0  0
  2 91  1  0  0  0
  3  4  1  0  0  0
  3 92  1  0  0  0
  3 93  1  0  0  0
  4  5  1  0  0  0
  4 94  1  0  0  0
  4 95  1  0  0  0
  5  6  1  0  0  0
  5 26  1  0  0  0
  5 96  1  0  0  0
  6 25  1  0  0  0
  6 97  1  0  0  0
  6 98  1  0  0  0
  7  8  2  0  0  0
  7 26  1  0  0  0
  7 29  1  0  0  0
  8  9  1  0  0  0
  8 22  1  0  0  0
  9 10  1  0  0  0
  9 27  2  0  0  0
 10 11  2  0  0  0
 10 15  1  0  0  0
 11 12  1  0  0  0
 11 99  1  0  0  0
 12 13  2  0  0  0
 12100  1  0  0  0
 13 14  1  0  0  0
 13 31  1  0  0  0
 14 15  2  0  0  0
 14101  1  0  0  0
 15102  1  0  0  0
 16 17  2  0  0  0
 16 21  1  0  0  0
 16 31  1  0  0  0
 17 18  1  0  0  0
 17103  1  0  0  0
 18 19  2  0  0  0
 18104  1  0  0  0
 19 20  1  0  0  0
 19 24  1  0  0  0
 20 21  2  0  0  0
 20105  1  0  0  0
 21 23  1  0  0  0
 22 28  1  0  0  0
 22 32  2  0  0  0
 26 27  1  0  0  0
 28106  1  0  0  0
 28107  1  0  0  0
 29108  1  0  0  0
 29109  1  0  0  0
 33 34  1  0  0  0
 33 66  1  0  0  0
 33 70  2  0  0  0
 34 36  1  0  0  0
 34 59  1  0  0  0
 34110  1  0  0  0
 35 44  2  0  0  0
 35 45  1  0  0  0
 35 68  1  0  0  0
 36 56  1  0  0  0
 36111  1  0  0  0
 37 39  1  0  0  0
 37 47  1  0  0  0
 37 66  1  0  0  0
 37112  1  0  0  0
 38 43  2  0  0  0
 38 46  1  0  0  0
 38 47  1  0  0  0
 39 64  1  0  0  0
 39 67  2  0  0  0
 40 52  1  0  0  0
 40 53  2  0  0  0
 40 58  1  0  0  0
 41113  1  0  0  0
 41114  1  0  0  0
 41115  1  0  0  0
 41 48  1  0  0  0
 42 43  1  0  0  0
 42 66  1  0  0  0
 42116  1  0  0  0
 42117  1  0  0  0
 43 44  1  0  0  0
 44118  1  0  0  0
 45 46  2  0  0  0
 45119  1  0  0  0
 46120  1  0  0  0
 47121  1  0  0  0
 47122  1  0  0  0
 48 56  1  0  0  0
 48 65  1  0  0  0
 48123  1  0  0  0
 49 50  1  0  0  0
 49 53  1  0  0  0
 49 64  1  0  0  0
 49124  1  0  0  0
 50 51  1  0  0  0
 50125  1  0  0  0
 50126  1  0  0  0
 51 52  1  0  0  0
 51127  1  0  0  0
 51128  1  0  0  0
 52129  1  0  0  0
 52130  1  0  0  0
 53 54  1  0  0  0
 54 55  2  0  0  0
 54131  1  0  0  0
 55 57  1  0  0  0
 55132  1  0  0  0
 56 69  2  0  0  0
 57 58  2  0  0  0
 57133  1  0  0  0
 58134  1  0  0  0
 59 60  1  0  0  0
 59 61  1  0  0  0
 59 62  1  0  0  0
 60135  1  0  0  0
 60136  1  0  0  0
 60137  1  0  0  0
 61138  1  0  0  0
 61139  1  0  0  0
 61140  1  0  0  0
 62141  1  0  0  0
 62142  1  0  0  0
 62143  1  0  0  0
 63 65  1  0  0  0
 63144  1  0  0  0
 63145  1  0  0  0
 63146  1  0  0  0
 64147  1  0  0  0
 65148  1  0  0  0
 68 85  1  0  0  0
 71 72  2  0  0  0
 71 75  1  0  0  0
 71149  1  0  0  0
 72 76  1  0  0  0
 72150  1  0  0  0
 73 74  1  0  0  0
 73 76  2  0  0  0
 73151  1  0  0  0
 74 75  2  0  0  0
 74 78  1  0  0  0
 75 82  1  0  0  0
 76 87  1  0  0  0
 77 81  1  0  0  0
 77 86  1  0  0  0
 77 89  2  0  0  0
 78 86  1  0  0  0
 78 88  2  0  0  0
 79 80  1  0  0  0
 79 81  1  0  0  0
 79152  1  0  0  0
 79153  1  0  0  0
 80 86  1  0  0  0
 80154  1  0  0  0
 80155  1  0  0  0
 81 83  1  0  0  0
 81 84  1  0  0  0
 82156  1  0  0  0
 82157  1  0  0  0
 82158  1  0  0  0
 83159  1  0  0  0
 83160  1  0  0  0
 83161  1  0  0  0
 84 85  1  0  0  0
 84162  1  0  0  0
 84163  1  0  0  0
 85164  1  0  0  0
 85165  1  0  0  0
 87166  1  0  0  0
 88167  1  0  0  0
 88168  1  0  0  0
M  CHG  1  88   1
M  ISO  4   1 100  68 101  85 101  87 100
M  END
> <chiral flag>
0

> <version>
0

> <s_m_source_file>
/data/baiqing/PycharmProjects/Reinvent-master-3.2/result/LINK_invent/BTK/process_docking_weight1_custom_product_contain_oxygen_bond_distance_aromatic_linkinvent_7_9_3/rearranged_h_0145.sdf

> <i_m_source_file_index>
93

> <r_mmod_Potential_Energy-OPLS-2005>
-120.904624938965

> <r_mmod_Stretch_Energy-OPLS-2005>
35.5913543701172

> <r_mmod_Bend_Energy-OPLS-2005>
140.520919799805

> <r_mmod_Torsional_Energy-OPLS-2005>
311.625762939453

> <r_mmod_Improper_Torsional_Energy-OPLS-2005>
7.14201021194458

> <r_mmod_Van_der_Waal_Energy-OPLS-2005>
168.352020263672

> <r_mmod_Electrostatic_Energy-OPLS-2005>
-396.260681152344

> <r_mmod_Solvation_Energy-OPLS-2005>
-403.180969238281

> <b_mmod_Minimization_Converged-OPLS-2005>
0

> <r_mmod_RMS_Derivative-OPLS-2005>
2.15868997573853

$$$$
93
                    3D
 Structure written by MMmdl.
169178  0  0  1  0            999 V2000
  -30.7163  -14.5104   20.5594 C   0  0  0  0  0  0
  -30.4153  -12.3260   19.4377 C   0  0  0  0  0  0
  -29.4936  -12.4994   18.2135 C   0  0  0  0  0  0
  -28.0162  -12.3588   18.6261 C   0  0  0  0  0  0
  -27.6567  -13.2155   19.8706 C   0  0  2  0  0  0
  -28.7006  -13.0396   20.9979 C   0  0  0  0  0  0
  -25.2562  -13.8178   20.5687 C   0  0  0  0  0  0
  -24.1826  -13.0442   20.9186 C   0  0  0  0  0  0
  -24.6389  -11.6911   20.8735 C   0  0  0  0  0  0
  -23.9057  -10.4294   21.0399 C   0  0  0  0  0  0
  -24.3609   -9.4212   21.9177 C   0  0  0  0  0  0
  -23.6285   -8.2247   22.0752 C   0  0  0  0  0  0
  -22.4270   -8.0278   21.3541 C   0  0  0  0  0  0
  -21.9903   -9.0251   20.4641 C   0  0  0  0  0  0
  -22.7231  -10.2131   20.3049 C   0  0  0  0  0  0
  -21.6851   -6.0726   22.5273 C   0  0  0  0  0  0
  -21.4015   -6.5632   23.8204 C   0  0  0  0  0  0
  -21.3658   -5.6789   24.9168 C   0  0  0  0  0  0
  -21.6047   -4.3051   24.7223 C   0  0  0  0  0  0
  -21.8821   -3.8140   23.4345 C   0  0  0  0  0  0
  -21.9195   -4.6955   22.3400 C   0  0  0  0  0  0
  -22.7849  -13.5233   21.1847 C   0  0  0  0  0  0
  -22.1663   -4.2141   21.0977 F   0  0  0  0  0  0
  -21.5631   -3.4536   25.7737 F   0  0  0  0  0  0
  -30.0263  -13.3393   20.4359 N   0  0  0  0  0  0
  -26.3001  -12.9362   20.3357 N   0  0  0  0  0  0
  -25.9320  -11.6515   20.5772 N   0  0  0  0  0  0
  -22.0492  -12.8219   22.0399 N   0  0  0  0  0  0
  -25.4275  -15.1896   20.4085 N   0  0  0  0  0  0
  -31.8477  -14.6374   20.0856 O   0  0  0  0  0  0
  -21.6638   -6.8871   21.4235 O   0  0  0  0  0  0
  -22.3538  -14.5542   20.6699 O   0  0  0  0  0  0
  -24.6172  -31.8660   23.2075 C   0  0  0  0  0  0
  -25.9061  -32.4808   23.8378 C   0  0  1  0  0  0
  -27.2262  -27.4048   20.1001 C   0  0  0  0  0  0
  -25.5915  -33.8605   24.2314 N   0  0  0  0  0  0
  -23.4074  -30.4902   21.5482 C   0  0  2  0  0  0
  -24.8550  -28.9546   20.1126 C   0  0  0  0  0  0
  -22.7429  -29.4655   22.4970 C   0  0  0  0  0  0
  -18.0279  -28.1385   22.8496 C   0  0  0  0  0  0
  -24.1483  -36.7297   23.2643 C   0  0  0  0  0  0
  -25.9397  -30.8219   21.3671 C   0  0  0  0  0  0
  -26.0182  -29.4547   20.7131 C   0  0  0  0  0  0
  -27.2106  -28.6868   20.7057 C   0  0  0  0  0  0
  -26.0499  -26.9321   19.4847 C   0  0  0  0  0  0
  -24.8667  -27.6926   19.4947 C   0  0  0  0  0  0
  -23.6179  -29.8245   20.1625 C   0  0  0  0  0  0
  -25.4111  -36.3098   24.0334 C   0  0  1  0  0  0
  -20.5871  -28.3674   23.1307 C   0  0  2  0  0  0
  -20.6772  -26.9410   22.5412 C   0  0  0  0  0  0
  -19.5748  -26.6387   21.5215 C   0  0  0  0  0  0
  -18.1923  -26.7931   22.1625 C   0  0  0  0  0  0
  -19.1531  -28.8847   23.2893 C   0  0  0  0  0  0
  -18.9463  -30.1453   23.8906 C   0  0  0  0  0  0
  -17.6467  -30.6590   24.0571 C   0  0  0  0  0  0
  -25.9046  -34.9466   23.5124 C   0  0  0  0  0  0
  -16.5356  -29.9094   23.6336 C   0  0  0  0  0  0
  -16.7268  -28.6509   23.0356 C   0  0  0  0  0  0
  -26.4479  -31.6595   25.0715 C   0  0  0  0  0  0
  -25.3738  -31.3696   26.1455 C   0  0  0  0  0  0
  -27.0331  -30.3042   24.6106 C   0  0  0  0  0  0
  -27.6038  -32.4329   25.7486 C   0  0  0  0  0  0
  -27.5574  -37.1799   24.8473 C   0  0  0  0  0  0
  -21.4155  -29.3034   22.3708 N   0  0  0  0  0  0
  -26.4293  -37.3785   23.9410 N   0  0  0  0  0  0
  -24.6727  -31.0743   22.0989 N   0  0  0  0  0  0
  -23.4184  -28.8202   23.3030 O   0  0  0  0  0  0
  -28.3461  -26.5932   20.1095 O   0  0  0  0  0  0
  -26.5605  -34.8924   22.4682 O   0  0  0  0  0  0
  -23.5361  -32.1431   23.7455 O   0  0  0  0  0  0
  -32.3084  -18.5539   21.6577 C   0  0  0  0  0  0
  -31.3774  -19.6040   21.7445 C   0  0  0  0  0  0
  -31.8798  -17.2354   21.4225 C   0  0  0  0  0  0
  -29.5754  -18.0152   21.3211 C   0  0  0  0  0  0
  -29.9996  -19.3600   21.5631 C   0  0  0  0  0  0
  -30.5046  -16.9331   21.2504 C   0  0  0  0  0  0
  -29.0266  -20.4582   21.8204 C   0  0  0  0  0  0
  -29.9468  -23.7208   20.1936 C   0  0  0  0  0  0
  -30.0907  -22.1893   20.3272 C   0  0  0  0  0  0
  -28.5081  -24.0361   20.6330 C   0  0  2  0  0  0
  -28.3325  -22.9711   21.7944 C   0  0  0  0  0  0
  -27.5646  -23.7312   19.4420 C   0  0  0  0  0  0
  -26.8262  -22.7104   22.0689 C   0  0  0  0  0  0
  -28.9811  -23.4537   23.1158 C   0  0  0  0  0  0
  -28.3023  -25.5355   21.1006 C   0  0  0  0  0  0
  -29.0862  -21.7483   21.3278 N   0  0  0  0  0  0
  -30.0414  -15.5712   21.0746 N   0  0  0  0  0  0
  -28.0536  -20.1432   22.6688 N   0  3  0  0  0  0
  -31.4615  -12.4049   19.1372 H   0  0  0  0  0  0
  -30.3063  -11.3248   19.8588 H   0  0  0  0  0  0
  -29.7382  -11.7601   17.4494 H   0  0  0  0  0  0
  -29.6595  -13.4774   17.7582 H   0  0  0  0  0  0
  -27.8330  -11.3046   18.8375 H   0  0  0  0  0  0
  -27.3644  -12.6165   17.7904 H   0  0  0  0  0  0
  -27.6877  -14.2571   19.5502 H   0  0  0  0  0  0
  -28.6846  -12.0157   21.3743 H   0  0  0  0  0  0
  -28.4617  -13.6719   21.8537 H   0  0  0  0  0  0
  -25.2750   -9.5690   22.4751 H   0  0  0  0  0  0
  -23.9993   -7.4642   22.7475 H   0  0  0  0  0  0
  -21.0834   -8.8761   19.8948 H   0  0  0  0  0  0
  -22.3680  -10.9665   19.6155 H   0  0  0  0  0  0
  -21.2003   -7.6140   23.9703 H   0  0  0  0  0  0
  -21.1480   -6.0518   25.9070 H   0  0  0  0  0  0
  -22.0602   -2.7603   23.2846 H   0  0  0  0  0  0
  -22.4110  -11.9874   22.4775 H   0  0  0  0  0  0
  -21.1108  -13.1237   22.2607 H   0  0  0  0  0  0
  -24.6569  -15.8416   20.5073 H   0  0  0  0  0  0
  -26.2710  -15.6257   20.0585 H   0  0  0  0  0  0
  -26.7130  -32.5515   23.1135 H   0  0  0  0  0  0
  -25.0056  -33.9755   25.0457 H   0  0  0  0  0  0
  -22.6974  -31.3079   21.4084 H   0  0  0  0  0  0
  -23.3743  -35.9631   23.3324 H   0  0  0  0  0  0
  -24.3576  -36.8901   22.2055 H   0  0  0  0  0  0
  -23.7232  -37.6503   23.6657 H   0  0  0  0  0  0
  -26.0578  -31.5879   20.5992 H   0  0  0  0  0  0
  -26.8244  -30.8727   21.9900 H   0  0  0  0  0  0
  -28.1065  -29.0622   21.1796 H   0  0  0  0  0  0
  -26.0403  -25.9700   18.9968 H   0  0  0  0  0  0
  -23.9745  -27.3033   19.0237 H   0  0  0  0  0  0
  -23.7284  -30.6005   19.4040 H   0  0  0  0  0  0
  -22.7408  -29.2467   19.8661 H   0  0  0  0  0  0
  -25.1281  -36.1957   25.0823 H   0  0  0  0  0  0
  -20.9963  -28.3253   24.1430 H   0  0  0  0  0  0
  -20.5706  -26.2281   23.3600 H   0  0  0  0  0  0
  -21.6637  -26.7470   22.1188 H   0  0  0  0  0  0
  -19.6916  -25.6302   21.1237 H   0  0  0  0  0  0
  -19.6690  -27.3208   20.6752 H   0  0  0  0  0  0
  -17.4195  -26.6692   21.4022 H   0  0  0  0  0  0
  -18.0317  -26.0068   22.9018 H   0  0  0  0  0  0
  -19.7944  -30.7258   24.2283 H   0  0  0  0  0  0
  -17.5029  -31.6276   24.5163 H   0  0  0  0  0  0
  -15.5359  -30.2997   23.7665 H   0  0  0  0  0  0
  -15.8666  -28.0834   22.7069 H   0  0  0  0  0  0
  -24.5912  -30.7053   25.7777 H   0  0  0  0  0  0
  -24.8927  -32.2849   26.4918 H   0  0  0  0  0  0
  -25.8075  -30.8847   27.0210 H   0  0  0  0  0  0
  -26.2884  -29.6773   24.1192 H   0  0  0  0  0  0
  -27.4143  -29.7307   25.4564 H   0  0  0  0  0  0
  -27.8693  -30.4367   23.9235 H   0  0  0  0  0  0
  -27.2654  -33.3631   26.2063 H   0  0  0  0  0  0
  -28.3846  -32.6894   25.0314 H   0  0  0  0  0  0
  -28.0710  -31.8463   26.5408 H   0  0  0  0  0  0
  -28.2590  -38.0095   24.7518 H   0  0  0  0  0  0
  -28.1062  -36.2624   24.6300 H   0  0  0  0  0  0
  -27.2287  -37.1448   25.8874 H   0  0  0  0  0  0
  -20.9330  -29.8744   21.6911 H   0  0  0  0  0  0
  -26.0178  -38.2857   24.1423 H   0  0  0  0  0  0
  -33.3597  -18.7519   21.8128 H   0  0  0  0  0  0
  -31.7343  -20.5864   22.0173 H   0  0  0  0  0  0
  -32.6365  -16.4660   21.4148 H   0  0  0  0  0  0
  -28.5181  -17.8107   21.2210 H   0  0  0  0  0  0
  -30.1447  -24.0566   19.1753 H   0  0  0  0  0  0
  -30.6774  -24.2175   20.8321 H   0  0  0  0  0  0
  -31.1183  -21.9485   20.5882 H   0  0  0  0  0  0
  -29.8768  -21.7041   19.3734 H   0  0  0  0  0  0
  -27.6418  -22.6961   19.1082 H   0  0  0  0  0  0
  -27.7933  -24.3640   18.5845 H   0  0  0  0  0  0
  -26.5194  -23.9024   19.6951 H   0  0  0  0  0  0
  -26.2416  -23.6273   21.9982 H   0  0  0  0  0  0
  -26.6456  -22.3298   23.0737 H   0  0  0  0  0  0
  -26.3955  -22.0060   21.3564 H   0  0  0  0  0  0
  -28.4559  -24.3122   23.5348 H   0  0  0  0  0  0
  -30.0261  -23.7367   22.9917 H   0  0  0  0  0  0
  -28.9543  -22.6777   23.8806 H   0  0  0  0  0  0
  -29.0747  -25.7969   21.8239 H   0  0  0  0  0  0
  -27.3676  -25.5936   21.6618 H   0  0  0  0  0  0
  -29.0792  -15.3879   21.3119 H   0  0  0  0  0  0
  -28.0519  -19.2366   23.1097 H   0  0  0  0  0  0
  -27.3277  -20.8013   22.8901 H   0  0  0  0  0  0
  1 25  1  0  0  0
  1 30  2  0  0  0
  1 87  1  0  0  0
  2  3  1  0  0  0
  2 25  1  0  0  0
  2 89  1  0  0  0
  2 90  1  0  0  0
  3  4  1  0  0  0
  3 91  1  0  0  0
  3 92  1  0  0  0
  4  5  1  0  0  0
  4 93  1  0  0  0
  4 94  1  0  0  0
  5  6  1  0  0  0
  5 26  1  0  0  0
  5 95  1  0  0  0
  6 25  1  0  0  0
  6 96  1  0  0  0
  6 97  1  0  0  0
  7  8  2  0  0  0
  7 26  1  0  0  0
  7 29  1  0  0  0
  8  9  1  0  0  0
  8 22  1  0  0  0
  9 10  1  0  0  0
  9 27  2  0  0  0
 10 11  2  0  0  0
 10 15  1  0  0  0
 11 12  1  0  0  0
 11 98  1  0  0  0
 12 13  2  0  0  0
 12 99  1  0  0  0
 13 14  1  0  0  0
 13 31  1  0  0  0
 14 15  2  0  0  0
 14100  1  0  0  0
 15101  1  0  0  0
 16 17  2  0  0  0
 16 21  1  0  0  0
 16 31  1  0  0  0
 17 18  1  0  0  0
 17102  1  0  0  0
 18 19  2  0  0  0
 18103  1  0  0  0
 19 20  1  0  0  0
 19 24  1  0  0  0
 20 21  2  0  0  0
 20104  1  0  0  0
 21 23  1  0  0  0
 22 28  1  0  0  0
 22 32  2  0  0  0
 26 27  1  0  0  0
 28105  1  0  0  0
 28106  1  0  0  0
 29107  1  0  0  0
 29108  1  0  0  0
 33 34  1  0  0  0
 33 66  1  0  0  0
 33 70  2  0  0  0
 34 36  1  0  0  0
 34 59  1  0  0  0
 34109  1  0  0  0
 35 44  2  0  0  0
 35 45  1  0  0  0
 35 68  1  0  0  0
 36 56  1  0  0  0
 36110  1  0  0  0
 37 39  1  0  0  0
 37 47  1  0  0  0
 37 66  1  0  0  0
 37111  1  0  0  0
 38 43  2  0  0  0
 38 46  1  0  0  0
 38 47  1  0  0  0
 39 64  1  0  0  0
 39 67  2  0  0  0
 40 52  1  0  0  0
 40 53  2  0  0  0
 40 58  1  0  0  0
 41112  1  0  0  0
 41113  1  0  0  0
 41114  1  0  0  0
 41 48  1  0  0  0
 42 43  1  0  0  0
 42 66  1  0  0  0
 42115  1  0  0  0
 42116  1  0  0  0
 43 44  1  0  0  0
 44117  1  0  0  0
 45 46  2  0  0  0
 45118  1  0  0  0
 46119  1  0  0  0
 47120  1  0  0  0
 47121  1  0  0  0
 48 56  1  0  0  0
 48 65  1  0  0  0
 48122  1  0  0  0
 49 50  1  0  0  0
 49 53  1  0  0  0
 49 64  1  0  0  0
 49123  1  0  0  0
 50 51  1  0  0  0
 50124  1  0  0  0
 50125  1  0  0  0
 51 52  1  0  0  0
 51126  1  0  0  0
 51127  1  0  0  0
 52128  1  0  0  0
 52129  1  0  0  0
 53 54  1  0  0  0
 54 55  2  0  0  0
 54130  1  0  0  0
 55 57  1  0  0  0
 55131  1  0  0  0
 56 69  2  0  0  0
 57 58  2  0  0  0
 57132  1  0  0  0
 58133  1  0  0  0
 59 60  1  0  0  0
 59 61  1  0  0  0
 59 62  1  0  0  0
 60134  1  0  0  0
 60135  1  0  0  0
 60136  1  0  0  0
 61137  1  0  0  0
 61138  1  0  0  0
 61139  1  0  0  0
 62140  1  0  0  0
 62141  1  0  0  0
 62142  1  0  0  0
 63 65  1  0  0  0
 63143  1  0  0  0
 63144  1  0  0  0
 63145  1  0  0  0
 64146  1  0  0  0
 65147  1  0  0  0
 68 85  1  0  0  0
 71 72  2  0  0  0
 71 73  1  0  0  0
 71148  1  0  0  0
 72 75  1  0  0  0
 72149  1  0  0  0
 73 76  2  0  0  0
 73150  1  0  0  0
 74 75  2  0  0  0
 74 76  1  0  0  0
 74151  1  0  0  0
 75 77  1  0  0  0
 76 87  1  0  0  0
 77 86  1  0  0  0
 77 88  2  0  0  0
 78 79  1  0  0  0
 78 80  1  0  0  0
 78152  1  0  0  0
 78153  1  0  0  0
 79 86  1  0  0  0
 79154  1  0  0  0
 79155  1  0  0  0
 80 81  1  0  0  0
 80 82  1  0  0  0
 80 85  1  0  0  0
 81 83  1  0  0  0
 81 84  1  0  0  0
 81 86  1  0  0  0
 82156  1  0  0  0
 82157  1  0  0  0
 82158  1  0  0  0
 83159  1  0  0  0
 83160  1  0  0  0
 83161  1  0  0  0
 84162  1  0  0  0
 84163  1  0  0  0
 84164  1  0  0  0
 85165  1  0  0  0
 85166  1  0  0  0
 87167  1  0  0  0
 88168  1  0  0  0
 88169  1  0  0  0
M  CHG  1  88   1
M  ISO  4   1 100  68 101  85 101  87 100
M  END
> <chiral flag>
0

> <version>
0

> <s_m_source_file>
/data/baiqing/PycharmProjects/Reinvent-master-3.2/result/LINK_invent/BTK/process_docking_weight1_custom_product_contain_oxygen_bond_distance_aromatic_linkinvent_7_9_3/rearranged_h_0145.sdf

> <i_m_source_file_index>
94

> <r_mmod_Potential_Energy-OPLS-2005>
-40.9075355529785

> <r_mmod_Stretch_Energy-OPLS-2005>
60.3880729675293

> <r_mmod_Bend_Energy-OPLS-2005>
149.470779418945

> <r_mmod_Torsional_Energy-OPLS-2005>
344.723815917969

> <r_mmod_Improper_Torsional_Energy-OPLS-2005>
5.13742399215698

> <r_mmod_Van_der_Waal_Energy-OPLS-2005>
172.452423095703

> <r_mmod_Electrostatic_Energy-OPLS-2005>
-408.117034912109

> <r_mmod_Solvation_Energy-OPLS-2005>
-384.743865966797

> <b_mmod_Minimization_Converged-OPLS-2005>
0

> <r_mmod_RMS_Derivative-OPLS-2005>
0.996918261051178

$$$$
94
                    3D
 Structure written by MMmdl.
162171  0  0  1  0            999 V2000
  -30.5669  -14.7797   20.4277 C   0  0  0  0  0  0
  -30.4329  -12.4665   19.4945 C   0  0  0  0  0  0
  -29.5193  -12.5086   18.2486 C   0  0  0  0  0  0
  -28.0412  -12.3357   18.6491 C   0  0  0  0  0  0
  -27.6411  -13.2312   19.8532 C   0  0  2  0  0  0
  -28.6779  -13.1675   20.9945 C   0  0  0  0  0  0
  -25.2520  -13.8214   20.5692 C   0  0  0  0  0  0
  -24.1801  -13.0447   20.9178 C   0  0  0  0  0  0
  -24.6385  -11.6922   20.8712 C   0  0  0  0  0  0
  -23.9056  -10.4292   21.0374 C   0  0  0  0  0  0
  -24.3614   -9.4220   21.9164 C   0  0  0  0  0  0
  -23.6284   -8.2264   22.0760 C   0  0  0  0  0  0
  -22.4279   -8.0286   21.3537 C   0  0  0  0  0  0
  -21.9895   -9.0257   20.4644 C   0  0  0  0  0  0
  -22.7221  -10.2135   20.3033 C   0  0  0  0  0  0
  -21.6871   -6.0736   22.5281 C   0  0  0  0  0  0
  -21.4024   -6.5636   23.8219 C   0  0  0  0  0  0
  -21.3668   -5.6791   24.9183 C   0  0  0  0  0  0
  -21.6034   -4.3055   24.7228 C   0  0  0  0  0  0
  -21.8818   -3.8147   23.4357 C   0  0  0  0  0  0
  -21.9200   -4.6960   22.3408 C   0  0  0  0  0  0
  -22.7831  -13.5243   21.1859 C   0  0  0  0  0  0
  -22.1653   -4.2160   21.0981 F   0  0  0  0  0  0
  -21.5642   -3.4534   25.7732 F   0  0  0  0  0  0
  -29.9779  -13.5317   20.4222 N   0  0  0  0  0  0
  -26.2924  -12.9397   20.3261 N   0  0  0  0  0  0
  -25.9315  -11.6543   20.5725 N   0  0  0  0  0  0
  -22.0474  -12.8219   22.0400 N   0  0  0  0  0  0
  -25.4221  -15.1931   20.4088 N   0  0  0  0  0  0
  -31.7431  -14.8908   20.0633 O   0  0  0  0  0  0
  -21.6656   -6.8880   21.4241 O   0  0  0  0  0  0
  -22.3507  -14.5536   20.6698 O   0  0  0  0  0  0
  -24.6301  -31.8523   23.1962 C   0  0  0  0  0  0
  -25.9130  -32.4729   23.8298 C   0  0  1  0  0  0
  -27.2169  -27.2501   20.1258 C   0  0  0  0  0  0
  -25.5927  -33.8541   24.2224 N   0  0  0  0  0  0
  -23.4246  -30.4758   21.5427 C   0  0  2  0  0  0
  -24.8699  -28.9206   20.1055 C   0  0  0  0  0  0
  -22.7482  -29.4587   22.4923 C   0  0  0  0  0  0
  -18.0275  -28.1405   22.8503 C   0  0  0  0  0  0
  -24.1462  -36.7279   23.2636 C   0  0  0  0  0  0
  -25.9675  -30.7639   21.3707 C   0  0  0  0  0  0
  -26.0404  -29.3853   20.7148 C   0  0  0  0  0  0
  -27.2141  -28.5630   20.7128 C   0  0  0  0  0  0
  -26.0152  -26.8493   19.5010 C   0  0  0  0  0  0
  -24.8635  -27.6619   19.4870 C   0  0  0  0  0  0
  -23.6396  -29.8097   20.1571 C   0  0  0  0  0  0
  -25.4089  -36.3064   24.0321 C   0  0  1  0  0  0
  -20.5880  -28.3705   23.1285 C   0  0  2  0  0  0
  -20.6762  -26.9416   22.5422 C   0  0  0  0  0  0
  -19.5739  -26.6395   21.5233 C   0  0  0  0  0  0
  -18.1922  -26.7948   22.1633 C   0  0  0  0  0  0
  -19.1532  -28.8872   23.2891 C   0  0  0  0  0  0
  -18.9456  -30.1479   23.8901 C   0  0  0  0  0  0
  -17.6455  -30.6616   24.0579 C   0  0  0  0  0  0
  -25.9046  -34.9433   23.5077 C   0  0  0  0  0  0
  -16.5348  -29.9111   23.6350 C   0  0  0  0  0  0
  -16.7258  -28.6533   23.0357 C   0  0  0  0  0  0
  -26.4496  -31.6565   25.0695 C   0  0  0  0  0  0
  -25.3723  -31.3759   26.1426 C   0  0  0  0  0  0
  -27.0336  -30.2980   24.6187 C   0  0  0  0  0  0
  -27.6021  -32.4315   25.7484 C   0  0  0  0  0  0
  -27.5562  -37.1780   24.8463 C   0  0  0  0  0  0
  -21.4185  -29.3050   22.3670 N   0  0  0  0  0  0
  -26.4267  -37.3768   23.9424 N   0  0  0  0  0  0
  -24.6934  -31.0485   22.0932 N   0  0  0  0  0  0
  -23.4182  -28.8134   23.3024 O   0  0  0  0  0  0
  -28.3157  -26.3576   20.2314 O   0  0  0  0  0  0
  -26.5641  -34.8921   22.4665 O   0  0  0  0  0  0
  -23.5447  -32.1350   23.7274 O   0  0  0  0  0  0
  -29.5827  -19.7370   18.5807 C   0  0  0  0  0  0
  -29.3595  -18.5238   20.6693 C   0  0  0  0  0  0
  -30.0643  -17.3247   18.6737 C   0  0  0  0  0  0
  -29.2664  -19.8089   19.9589 C   0  0  0  0  0  0
  -29.9565  -18.5310   17.9498 C   0  0  0  0  0  0
  -29.7705  -17.2567   20.0554 C   0  0  0  0  0  0
  -28.6292  -23.8483   20.3627 C   0  0  0  0  0  0
  -28.3631  -25.0367   19.6785 C   0  0  0  0  0  0
  -28.7824  -23.8021   21.8707 C   0  0  0  0  0  0
  -28.8885  -22.4177   19.6944 C   0  0  0  0  0  0
  -28.1252  -22.5313   22.4411 C   0  0  0  0  0  0
  -28.8089  -21.2307   21.9623 C   0  0  0  0  0  0
  -28.3075  -25.0612   18.1603 C   0  0  0  0  0  0
  -28.8809  -21.1180   20.5058 N   0  0  0  0  0  0
  -30.2044  -18.5303   16.5752 N   0  0  0  0  0  0
  -29.7914  -15.9063   20.7095 N   0  0  0  0  0  0
  -31.4764  -12.5937   19.1976 H   0  0  0  0  0  0
  -30.3817  -11.4929   19.9857 H   0  0  0  0  0  0
  -29.8101  -11.7301   17.5436 H   0  0  0  0  0  0
  -29.6556  -13.4597   17.7304 H   0  0  0  0  0  0
  -27.8916  -11.2839   18.9003 H   0  0  0  0  0  0
  -27.3910  -12.5380   17.7966 H   0  0  0  0  0  0
  -27.6347  -14.2552   19.4795 H   0  0  0  0  0  0
  -28.7184  -12.1681   21.4290 H   0  0  0  0  0  0
  -28.4051  -13.8445   21.8051 H   0  0  0  0  0  0
  -25.2772   -9.5730   22.4732 H   0  0  0  0  0  0
  -24.0031   -7.4666   22.7464 H   0  0  0  0  0  0
  -21.0850   -8.8738   19.8928 H   0  0  0  0  0  0
  -22.3674  -10.9660   19.6131 H   0  0  0  0  0  0
  -21.2006   -7.6144   23.9735 H   0  0  0  0  0  0
  -21.1491   -6.0516   25.9094 H   0  0  0  0  0  0
  -22.0588   -2.7610   23.2856 H   0  0  0  0  0  0
  -22.4090  -11.9870   22.4763 H   0  0  0  0  0  0
  -21.1085  -13.1232   22.2594 H   0  0  0  0  0  0
  -24.6546  -15.8480   20.5159 H   0  0  0  0  0  0
  -26.2710  -15.6290   20.0696 H   0  0  0  0  0  0
  -26.7192  -32.5364   23.1020 H   0  0  0  0  0  0
  -25.0062  -33.9665   25.0366 H   0  0  0  0  0  0
  -22.7214  -31.2994   21.3986 H   0  0  0  0  0  0
  -23.3741  -35.9598   23.3267 H   0  0  0  0  0  0
  -24.3569  -36.8945   22.2061 H   0  0  0  0  0  0
  -23.7195  -37.6456   23.6691 H   0  0  0  0  0  0
  -26.1006  -31.5197   20.5974 H   0  0  0  0  0  0
  -26.8471  -30.8184   22.0005 H   0  0  0  0  0  0
  -28.1093  -28.9148   21.2070 H   0  0  0  0  0  0
  -25.9328  -25.8759   19.0446 H   0  0  0  0  0  0
  -23.9614  -27.3000   19.0130 H   0  0  0  0  0  0
  -23.7544  -30.5895   19.4040 H   0  0  0  0  0  0
  -22.7543  -29.2464   19.8548 H   0  0  0  0  0  0
  -25.1270  -36.1884   25.0813 H   0  0  0  0  0  0
  -20.9982  -28.3283   24.1402 H   0  0  0  0  0  0
  -20.5668  -26.2319   23.3624 H   0  0  0  0  0  0
  -21.6624  -26.7434   22.1194 H   0  0  0  0  0  0
  -19.6901  -25.6301   21.1267 H   0  0  0  0  0  0
  -19.6704  -27.3209   20.6765 H   0  0  0  0  0  0
  -17.4182  -26.6703   21.4040 H   0  0  0  0  0  0
  -18.0329  -26.0087   22.9034 H   0  0  0  0  0  0
  -19.7925  -30.7314   24.2253 H   0  0  0  0  0  0
  -17.5000  -31.6300   24.5173 H   0  0  0  0  0  0
  -15.5351  -30.3007   23.7690 H   0  0  0  0  0  0
  -15.8658  -28.0870   22.7049 H   0  0  0  0  0  0
  -24.5868  -30.7129   25.7780 H   0  0  0  0  0  0
  -24.8949  -32.2952   26.4811 H   0  0  0  0  0  0
  -25.8013  -30.8957   27.0231 H   0  0  0  0  0  0
  -26.2921  -29.6752   24.1161 H   0  0  0  0  0  0
  -27.3977  -29.7213   25.4707 H   0  0  0  0  0  0
  -27.8814  -30.4266   23.9460 H   0  0  0  0  0  0
  -27.2595  -33.3618   26.2031 H   0  0  0  0  0  0
  -28.3849  -32.6866   25.0335 H   0  0  0  0  0  0
  -28.0671  -31.8471   26.5442 H   0  0  0  0  0  0
  -28.2537  -38.0107   24.7528 H   0  0  0  0  0  0
  -28.1089  -36.2641   24.6240 H   0  0  0  0  0  0
  -27.2310  -37.1371   25.8872 H   0  0  0  0  0  0
  -20.9363  -29.8768   21.6876 H   0  0  0  0  0  0
  -26.0135  -38.2827   24.1486 H   0  0  0  0  0  0
  -29.5320  -20.6239   17.9696 H   0  0  0  0  0  0
  -29.1074  -18.4932   21.7188 H   0  0  0  0  0  0
  -30.3452  -16.4229   18.1455 H   0  0  0  0  0  0
  -28.3451  -24.6934   22.3237 H   0  0  0  0  0  0
  -29.8448  -23.8086   22.1179 H   0  0  0  0  0  0
  -29.8731  -22.4959   19.2326 H   0  0  0  0  0  0
  -28.1809  -22.3087   18.8706 H   0  0  0  0  0  0
  -27.0673  -22.5185   22.1720 H   0  0  0  0  0  0
  -28.1546  -22.5620   23.5307 H   0  0  0  0  0  0
  -28.2398  -20.3924   22.3669 H   0  0  0  0  0  0
  -29.8161  -21.1577   22.3729 H   0  0  0  0  0  0
  -29.2101  -24.6189   17.7384 H   0  0  0  0  0  0
  -28.2289  -26.0790   17.7790 H   0  0  0  0  0  0
  -27.4506  -24.4921   17.8024 H   0  0  0  0  0  0
  -29.8876  -19.3282   16.0318 H   0  0  0  0  0  0
  -30.0888  -17.6567   16.0675 H   0  0  0  0  0  0
  -28.9805  -15.7043   21.2757 H   0  0  0  0  0  0
  1 25  1  0  0  0
  1 30  2  0  0  0
  1 86  1  0  0  0
  2  3  1  0  0  0
  2 25  1  0  0  0
  2 87  1  0  0  0
  2 88  1  0  0  0
  3  4  1  0  0  0
  3 89  1  0  0  0
  3 90  1  0  0  0
  4  5  1  0  0  0
  4 91  1  0  0  0
  4 92  1  0  0  0
  5  6  1  0  0  0
  5 26  1  0  0  0
  5 93  1  0  0  0
  6 25  1  0  0  0
  6 94  1  0  0  0
  6 95  1  0  0  0
  7  8  2  0  0  0
  7 26  1  0  0  0
  7 29  1  0  0  0
  8  9  1  0  0  0
  8 22  1  0  0  0
  9 10  1  0  0  0
  9 27  2  0  0  0
 10 11  2  0  0  0
 10 15  1  0  0  0
 11 12  1  0  0  0
 11 96  1  0  0  0
 12 13  2  0  0  0
 12 97  1  0  0  0
 13 14  1  0  0  0
 13 31  1  0  0  0
 14 15  2  0  0  0
 14 98  1  0  0  0
 15 99  1  0  0  0
 16 17  2  0  0  0
 16 21  1  0  0  0
 16 31  1  0  0  0
 17 18  1  0  0  0
 17100  1  0  0  0
 18 19  2  0  0  0
 18101  1  0  0  0
 19 20  1  0  0  0
 19 24  1  0  0  0
 20 21  2  0  0  0
 20102  1  0  0  0
 21 23  1  0  0  0
 22 28  1  0  0  0
 22 32  2  0  0  0
 26 27  1  0  0  0
 28103  1  0  0  0
 28104  1  0  0  0
 29105  1  0  0  0
 29106  1  0  0  0
 33 34  1  0  0  0
 33 66  1  0  0  0
 33 70  2  0  0  0
 34 36  1  0  0  0
 34 59  1  0  0  0
 34107  1  0  0  0
 35 44  2  0  0  0
 35 45  1  0  0  0
 35 68  1  0  0  0
 36 56  1  0  0  0
 36108  1  0  0  0
 37 39  1  0  0  0
 37 47  1  0  0  0
 37 66  1  0  0  0
 37109  1  0  0  0
 38 43  2  0  0  0
 38 46  1  0  0  0
 38 47  1  0  0  0
 39 64  1  0  0  0
 39 67  2  0  0  0
 40 52  1  0  0  0
 40 53  2  0  0  0
 40 58  1  0  0  0
 41110  1  0  0  0
 41111  1  0  0  0
 41112  1  0  0  0
 41 48  1  0  0  0
 42 43  1  0  0  0
 42 66  1  0  0  0
 42113  1  0  0  0
 42114  1  0  0  0
 43 44  1  0  0  0
 44115  1  0  0  0
 45 46  2  0  0  0
 45116  1  0  0  0
 46117  1  0  0  0
 47118  1  0  0  0
 47119  1  0  0  0
 48 56  1  0  0  0
 48 65  1  0  0  0
 48120  1  0  0  0
 49 50  1  0  0  0
 49 53  1  0  0  0
 49 64  1  0  0  0
 49121  1  0  0  0
 50 51  1  0  0  0
 50122  1  0  0  0
 50123  1  0  0  0
 51 52  1  0  0  0
 51124  1  0  0  0
 51125  1  0  0  0
 52126  1  0  0  0
 52127  1  0  0  0
 53 54  1  0  0  0
 54 55  2  0  0  0
 54128  1  0  0  0
 55 57  1  0  0  0
 55129  1  0  0  0
 56 69  2  0  0  0
 57 58  2  0  0  0
 57130  1  0  0  0
 58131  1  0  0  0
 59 60  1  0  0  0
 59 61  1  0  0  0
 59 62  1  0  0  0
 60132  1  0  0  0
 60133  1  0  0  0
 60134  1  0  0  0
 61135  1  0  0  0
 61136  1  0  0  0
 61137  1  0  0  0
 62138  1  0  0  0
 62139  1  0  0  0
 62140  1  0  0  0
 63 65  1  0  0  0
 63141  1  0  0  0
 63142  1  0  0  0
 63143  1  0  0  0
 64144  1  0  0  0
 65145  1  0  0  0
 68 78  1  0  0  0
 71 74  2  0  0  0
 71 75  1  0  0  0
 71146  1  0  0  0
 72 74  1  0  0  0
 72 76  2  0  0  0
 72147  1  0  0  0
 73 75  2  0  0  0
 73 76  1  0  0  0
 73148  1  0  0  0
 74 84  1  0  0  0
 75 85  1  0  0  0
 76 86  1  0  0  0
 77 78  2  0  0  0
 77 79  1  0  0  0
 77 80  1  0  0  0
 78 83  1  0  0  0
 79 81  1  0  0  0
 79149  1  0  0  0
 79150  1  0  0  0
 80 84  1  0  0  0
 80151  1  0  0  0
 80152  1  0  0  0
 81 82  1  0  0  0
 81153  1  0  0  0
 81154  1  0  0  0
 82 84  1  0  0  0
 82155  1  0  0  0
 82156  1  0  0  0
 83157  1  0  0  0
 83158  1  0  0  0
 83159  1  0  0  0
 85160  1  0  0  0
 85161  1  0  0  0
 86162  1  0  0  0
M  ISO  4   1 100  68 101  78 101  86 100
M  END
> <chiral flag>
0

> <version>
0

> <s_m_source_file>
/data/baiqing/PycharmProjects/Reinvent-master-3.2/result/LINK_invent/BTK/process_docking_weight1_custom_product_contain_oxygen_bond_distance_aromatic_linkinvent_7_9_3/rearranged_h_0145.sdf

> <i_m_source_file_index>
95

> <r_mmod_Potential_Energy-OPLS-2005>
305.787658691406

> <r_mmod_Stretch_Energy-OPLS-2005>
139.129333496094

> <r_mmod_Bend_Energy-OPLS-2005>
172.243316650391

> <r_mmod_Torsional_Energy-OPLS-2005>
253.045196533203

> <r_mmod_Improper_Torsional_Energy-OPLS-2005>
8.75902938842773

> <r_mmod_Van_der_Waal_Energy-OPLS-2005>
145.49299621582

> <r_mmod_Electrostatic_Energy-OPLS-2005>
-276.784729003906

> <r_mmod_Solvation_Energy-OPLS-2005>
-234.523025512695

> <b_mmod_Minimization_Converged-OPLS-2005>
0

> <r_mmod_RMS_Derivative-OPLS-2005>
3.49568939208984

$$$$
96
                    3D
 Structure written by MMmdl.
163171  0  0  1  0            999 V2000
  -30.6987  -14.3853   20.6678 C   0  0  0  0  0  0
  -30.4282  -12.2928   19.3806 C   0  0  0  0  0  0
  -29.4833  -12.5411   18.1854 C   0  0  0  0  0  0
  -28.0051  -12.3901   18.6003 C   0  0  0  0  0  0
  -27.6689  -13.1916   19.8862 C   0  0  2  0  0  0
  -28.7059  -12.8777   20.9874 C   0  0  0  0  0  0
  -25.2624  -13.8125   20.5620 C   0  0  0  0  0  0
  -24.1859  -13.0412   20.9148 C   0  0  0  0  0  0
  -24.6391  -11.6882   20.8707 C   0  0  0  0  0  0
  -23.9044  -10.4279   21.0406 C   0  0  0  0  0  0
  -24.3598   -9.4203   21.9190 C   0  0  0  0  0  0
  -23.6278   -8.2226   22.0766 C   0  0  0  0  0  0
  -22.4273   -8.0265   21.3530 C   0  0  0  0  0  0
  -21.9888   -9.0234   20.4631 C   0  0  0  0  0  0
  -22.7216  -10.2120   20.3050 C   0  0  0  0  0  0
  -21.6838   -6.0714   22.5277 C   0  0  0  0  0  0
  -21.4010   -6.5626   23.8207 C   0  0  0  0  0  0
  -21.3669   -5.6794   24.9168 C   0  0  0  0  0  0
  -21.6057   -4.3062   24.7236 C   0  0  0  0  0  0
  -21.8823   -3.8131   23.4361 C   0  0  0  0  0  0
  -21.9191   -4.6940   22.3402 C   0  0  0  0  0  0
  -22.7887  -13.5226   21.1820 C   0  0  0  0  0  0
  -22.1657   -4.2130   21.0976 F   0  0  0  0  0  0
  -21.5638   -3.4557   25.7762 F   0  0  0  0  0  0
  -30.0482  -13.2096   20.4664 N   0  0  0  0  0  0
  -26.3058  -12.9269   20.3378 N   0  0  0  0  0  0
  -25.9317  -11.6440   20.5734 N   0  0  0  0  0  0
  -22.0529  -12.8214   22.0378 N   0  0  0  0  0  0
  -25.4328  -15.1817   20.3956 N   0  0  0  0  0  0
  -31.7451  -14.6970   20.0873 O   0  0  0  0  0  0
  -21.6621   -6.8872   21.4238 O   0  0  0  0  0  0
  -22.3578  -14.5527   20.6686 O   0  0  0  0  0  0
  -24.6127  -31.8713   23.2028 C   0  0  0  0  0  0
  -25.9061  -32.4814   23.8343 C   0  0  1  0  0  0
  -27.2586  -27.4716   20.0843 C   0  0  0  0  0  0
  -25.5985  -33.8609   24.2312 N   0  0  0  0  0  0
  -23.3956  -30.4896   21.5456 C   0  0  2  0  0  0
  -24.8434  -28.9532   20.1173 C   0  0  0  0  0  0
  -22.7396  -29.4681   22.4998 C   0  0  0  0  0  0
  -18.0291  -28.1339   22.8423 C   0  0  0  0  0  0
  -24.1507  -36.7305   23.2625 C   0  0  0  0  0  0
  -25.9150  -30.8540   21.3383 C   0  0  0  0  0  0
  -25.9989  -29.4852   20.6989 C   0  0  0  0  0  0
  -27.2002  -28.7491   20.6816 C   0  0  0  0  0  0
  -26.0771  -26.9440   19.5123 C   0  0  0  0  0  0
  -24.8758  -27.6778   19.5309 C   0  0  0  0  0  0
  -23.5993  -29.8099   20.1644 C   0  0  0  0  0  0
  -25.4113  -36.3088   24.0337 C   0  0  1  0  0  0
  -20.5859  -28.3627   23.1301 C   0  0  2  0  0  0
  -20.6774  -26.9369   22.5385 C   0  0  0  0  0  0
  -19.5781  -26.6356   21.5138 C   0  0  0  0  0  0
  -18.1942  -26.7886   22.1541 C   0  0  0  0  0  0
  -19.1538  -28.8788   23.2851 C   0  0  0  0  0  0
  -18.9469  -30.1384   23.8878 C   0  0  0  0  0  0
  -17.6486  -30.6557   24.0514 C   0  0  0  0  0  0
  -25.9070  -34.9466   23.5112 C   0  0  0  0  0  0
  -16.5374  -29.9060   23.6284 C   0  0  0  0  0  0
  -16.7288  -28.6473   23.0294 C   0  0  0  0  0  0
  -26.4479  -31.6558   25.0651 C   0  0  0  0  0  0
  -25.3710  -31.3669   26.1364 C   0  0  0  0  0  0
  -27.0269  -30.3015   24.5954 C   0  0  0  0  0  0
  -27.6031  -32.4250   25.7486 C   0  0  0  0  0  0
  -27.5589  -37.1807   24.8466 C   0  0  0  0  0  0
  -21.4139  -29.3031   22.3733 N   0  0  0  0  0  0
  -26.4287  -37.3781   23.9431 N   0  0  0  0  0  0
  -24.6591  -31.0855   22.0879 N   0  0  0  0  0  0
  -23.4194  -28.8258   23.3057 O   0  0  0  0  0  0
  -28.4950  -26.8521   20.1193 O   0  0  0  0  0  0
  -26.5613  -34.8910   22.4649 O   0  0  0  0  0  0
  -23.5341  -32.1436   23.7451 O   0  0  0  0  0  0
  -30.7312  -17.5254   21.0797 C   0  0  0  0  0  0
  -28.7573  -18.7314   21.2468 C   0  0  0  0  0  0
  -30.0947  -18.8013   20.9521 C   0  0  0  0  0  0
  -29.8696  -16.5043   21.4126 C   0  0  0  0  0  0
  -29.4387  -22.1258   20.3280 C   0  0  0  0  0  0
  -28.5907  -25.9197   17.8735 C   0  0  0  0  0  0
  -30.3860  -25.6354   19.6013 C   0  0  0  0  0  0
  -29.8227  -20.6634   18.3611 C   0  0  0  0  0  0
  -30.8173  -20.0660   20.5515 C   0  0  0  0  0  0
  -28.6382  -23.0728   19.4054 C   0  0  0  0  0  0
  -28.1964  -24.4327   20.0098 C   0  0  0  0  0  0
  -28.8608  -25.6888   19.3787 C   0  0  0  0  0  0
  -30.1014  -15.1797   21.5687 N   0  0  0  0  0  0
  -29.9855  -21.0104   19.7810 N   0  0  0  0  0  0
  -29.5509  -22.3905   21.5300 O   0  0  0  0  0  0
  -28.2609  -17.1234   21.6735 S   0  0  0  0  0  0
  -31.4695  -12.4163   19.0770 H   0  0  0  0  0  0
  -30.3387  -11.2604   19.7217 H   0  0  0  0  0  0
  -29.7118  -11.8558   17.3685 H   0  0  0  0  0  0
  -29.6505  -13.5488   17.7984 H   0  0  0  0  0  0
  -27.8052  -11.3284   18.7586 H   0  0  0  0  0  0
  -27.3531  -12.7042   17.7837 H   0  0  0  0  0  0
  -27.7409  -14.2508   19.6416 H   0  0  0  0  0  0
  -28.6769  -11.8130   21.2250 H   0  0  0  0  0  0
  -28.4514  -13.3748   21.9224 H   0  0  0  0  0  0
  -25.2736   -9.5690   22.4761 H   0  0  0  0  0  0
  -23.9991   -7.4632   22.7506 H   0  0  0  0  0  0
  -21.0814   -8.8746   19.8931 H   0  0  0  0  0  0
  -22.3670  -10.9658   19.6156 H   0  0  0  0  0  0
  -21.1999   -7.6138   23.9696 H   0  0  0  0  0  0
  -21.1493   -6.0526   25.9070 H   0  0  0  0  0  0
  -22.0598   -2.7598   23.2862 H   0  0  0  0  0  0
  -22.4145  -11.9845   22.4696 H   0  0  0  0  0  0
  -21.1138  -13.1214   22.2614 H   0  0  0  0  0  0
  -24.6632  -15.8369   20.4828 H   0  0  0  0  0  0
  -26.2890  -15.6159   20.0756 H   0  0  0  0  0  0
  -26.7140  -32.5586   23.1120 H   0  0  0  0  0  0
  -25.0209  -33.9738   25.0525 H   0  0  0  0  0  0
  -22.6765  -31.3012   21.4017 H   0  0  0  0  0  0
  -23.3767  -35.9636   23.3236 H   0  0  0  0  0  0
  -24.3667  -36.8983   22.2052 H   0  0  0  0  0  0
  -23.7244  -37.6498   23.6664 H   0  0  0  0  0  0
  -26.0027  -31.6155   20.5621 H   0  0  0  0  0  0
  -26.8097  -30.9297   21.9430 H   0  0  0  0  0  0
  -28.0975  -29.1712   21.1084 H   0  0  0  0  0  0
  -26.0376  -25.9745   19.0450 H   0  0  0  0  0  0
  -23.9829  -27.2455   19.1006 H   0  0  0  0  0  0
  -23.6928  -30.5770   19.3922 H   0  0  0  0  0  0
  -22.7258  -29.2223   19.8732 H   0  0  0  0  0  0
  -25.1259  -36.1957   25.0822 H   0  0  0  0  0  0
  -20.9895  -28.3190   24.1440 H   0  0  0  0  0  0
  -20.5661  -26.2225   23.3562 H   0  0  0  0  0  0
  -21.6654  -26.7428   22.1216 H   0  0  0  0  0  0
  -19.6961  -25.6289   21.1165 H   0  0  0  0  0  0
  -19.6723  -27.3128   20.6646 H   0  0  0  0  0  0
  -17.4203  -26.6571   21.3952 H   0  0  0  0  0  0
  -18.0402  -26.0031   22.8951 H   0  0  0  0  0  0
  -19.7974  -30.7145   24.2277 H   0  0  0  0  0  0
  -17.5080  -31.6243   24.5124 H   0  0  0  0  0  0
  -15.5377  -30.2952   23.7638 H   0  0  0  0  0  0
  -15.8679  -28.0797   22.6989 H   0  0  0  0  0  0
  -24.6037  -30.6822   25.7761 H   0  0  0  0  0  0
  -24.8667  -32.2769   26.4617 H   0  0  0  0  0  0
  -25.8045  -30.9068   27.0246 H   0  0  0  0  0  0
  -26.2755  -29.6863   24.0981 H   0  0  0  0  0  0
  -27.4064  -29.7200   25.4381 H   0  0  0  0  0  0
  -27.8583  -30.4381   23.9026 H   0  0  0  0  0  0
  -27.2692  -33.3639   26.1930 H   0  0  0  0  0  0
  -28.3953  -32.6670   25.0380 H   0  0  0  0  0  0
  -28.0534  -31.8416   26.5531 H   0  0  0  0  0  0
  -28.2514  -38.0180   24.7601 H   0  0  0  0  0  0
  -28.1174  -36.2728   24.6166 H   0  0  0  0  0  0
  -27.2354  -37.1316   25.8879 H   0  0  0  0  0  0
  -20.9325  -29.8808   21.6963 H   0  0  0  0  0  0
  -26.0174  -38.2854   24.1484 H   0  0  0  0  0  0
  -31.7923  -17.4033   20.9098 H   0  0  0  0  0  0
  -28.0307  -19.5351   21.2529 H   0  0  0  0  0  0
  -29.1983  -25.2667   17.2462 H   0  0  0  0  0  0
  -28.8383  -26.9478   17.5945 H   0  0  0  0  0  0
  -27.5572  -25.7427   17.5856 H   0  0  0  0  0  0
  -30.8492  -24.7974   19.0768 H   0  0  0  0  0  0
  -30.6320  -25.5244   20.6591 H   0  0  0  0  0  0
  -30.8740  -26.5450   19.2455 H   0  0  0  0  0  0
  -28.8069  -20.8369   18.0027 H   0  0  0  0  0  0
  -30.0364  -19.6113   18.1726 H   0  0  0  0  0  0
  -30.5031  -21.2548   17.7479 H   0  0  0  0  0  0
  -31.6919  -19.8189   19.9510 H   0  0  0  0  0  0
  -31.2341  -20.5485   21.4370 H   0  0  0  0  0  0
  -27.7427  -22.5352   19.0864 H   0  0  0  0  0  0
  -29.2172  -23.2460   18.4990 H   0  0  0  0  0  0
  -28.3507  -24.4650   21.0901 H   0  0  0  0  0  0
  -27.1154  -24.4807   19.9216 H   0  0  0  0  0  0
  -29.3595  -14.6920   22.0507 H   0  0  0  0  0  0
  1 25  1  0  0  0
  1 30  2  0  0  0
  1 83  1  0  0  0
  2  3  1  0  0  0
  2 25  1  0  0  0
  2 87  1  0  0  0
  2 88  1  0  0  0
  3  4  1  0  0  0
  3 89  1  0  0  0
  3 90  1  0  0  0
  4  5  1  0  0  0
  4 91  1  0  0  0
  4 92  1  0  0  0
  5  6  1  0  0  0
  5 26  1  0  0  0
  5 93  1  0  0  0
  6 25  1  0  0  0
  6 94  1  0  0  0
  6 95  1  0  0  0
  7  8  2  0  0  0
  7 26  1  0  0  0
  7 29  1  0  0  0
  8  9  1  0  0  0
  8 22  1  0  0  0
  9 10  1  0  0  0
  9 27  2  0  0  0
 10 11  2  0  0  0
 10 15  1  0  0  0
 11 12  1  0  0  0
 11 96  1  0  0  0
 12 13  2  0  0  0
 12 97  1  0  0  0
 13 14  1  0  0  0
 13 31  1  0  0  0
 14 15  2  0  0  0
 14 98  1  0  0  0
 15 99  1  0  0  0
 16 17  2  0  0  0
 16 21  1  0  0  0
 16 31  1  0  0  0
 17 18  1  0  0  0
 17100  1  0  0  0
 18 19  2  0  0  0
 18101  1  0  0  0
 19 20  1  0  0  0
 19 24  1  0  0  0
 20 21  2  0  0  0
 20102  1  0  0  0
 21 23  1  0  0  0
 22 28  1  0  0  0
 22 32  2  0  0  0
 26 27  1  0  0  0
 28103  1  0  0  0
 28104  1  0  0  0
 29105  1  0  0  0
 29106  1  0  0  0
 33 34  1  0  0  0
 33 66  1  0  0  0
 33 70  2  0  0  0
 34 36  1  0  0  0
 34 59  1  0  0  0
 34107  1  0  0  0
 35 44  2  0  0  0
 35 45  1  0  0  0
 35 68  1  0  0  0
 36 56  1  0  0  0
 36108  1  0  0  0
 37 39  1  0  0  0
 37 47  1  0  0  0
 37 66  1  0  0  0
 37109  1  0  0  0
 38 43  2  0  0  0
 38 46  1  0  0  0
 38 47  1  0  0  0
 39 64  1  0  0  0
 39 67  2  0  0  0
 40 52  1  0  0  0
 40 53  2  0  0  0
 40 58  1  0  0  0
 41110  1  0  0  0
 41111  1  0  0  0
 41112  1  0  0  0
 41 48  1  0  0  0
 42 43  1  0  0  0
 42 66  1  0  0  0
 42113  1  0  0  0
 42114  1  0  0  0
 43 44  1  0  0  0
 44115  1  0  0  0
 45 46  2  0  0  0
 45116  1  0  0  0
 46117  1  0  0  0
 47118  1  0  0  0
 47119  1  0  0  0
 48 56  1  0  0  0
 48 65  1  0  0  0
 48120  1  0  0  0
 49 50  1  0  0  0
 49 53  1  0  0  0
 49 64  1  0  0  0
 49121  1  0  0  0
 50 51  1  0  0  0
 50122  1  0  0  0
 50123  1  0  0  0
 51 52  1  0  0  0
 51124  1  0  0  0
 51125  1  0  0  0
 52126  1  0  0  0
 52127  1  0  0  0
 53 54  1  0  0  0
 54 55  2  0  0  0
 54128  1  0  0  0
 55 57  1  0  0  0
 55129  1  0  0  0
 56 69  2  0  0  0
 57 58  2  0  0  0
 57130  1  0  0  0
 58131  1  0  0  0
 59 60  1  0  0  0
 59 61  1  0  0  0
 59 62  1  0  0  0
 60132  1  0  0  0
 60133  1  0  0  0
 60134  1  0  0  0
 61135  1  0  0  0
 61136  1  0  0  0
 61137  1  0  0  0
 62138  1  0  0  0
 62139  1  0  0  0
 62140  1  0  0  0
 63 65  1  0  0  0
 63141  1  0  0  0
 63142  1  0  0  0
 63143  1  0  0  0
 64144  1  0  0  0
 65145  1  0  0  0
 68 82  1  0  0  0
 71 73  1  0  0  0
 71 74  2  0  0  0
 71146  1  0  0  0
 72 73  2  0  0  0
 72 86  1  0  0  0
 72147  1  0  0  0
 73 79  1  0  0  0
 74 83  1  0  0  0
 74 86  1  0  0  0
 75 80  1  0  0  0
 75 84  1  0  0  0
 75 85  2  0  0  0
 76148  1  0  0  0
 76149  1  0  0  0
 76150  1  0  0  0
 76 82  1  0  0  0
 77 82  1  0  0  0
 77151  1  0  0  0
 77152  1  0  0  0
 77153  1  0  0  0
 78 84  1  0  0  0
 78154  1  0  0  0
 78155  1  0  0  0
 78156  1  0  0  0
 79 84  1  0  0  0
 79157  1  0  0  0
 79158  1  0  0  0
 80 81  1  0  0  0
 80159  1  0  0  0
 80160  1  0  0  0
 81 82  1  0  0  0
 81161  1  0  0  0
 81162  1  0  0  0
 83163  1  0  0  0
M  ISO  4   1 100  68 101  82 101  83 100
M  END
> <chiral flag>
0

> <version>
0

> <s_m_source_file>
/data/baiqing/PycharmProjects/Reinvent-master-3.2/result/LINK_invent/BTK/process_docking_weight1_custom_product_contain_oxygen_bond_distance_aromatic_linkinvent_7_9_3/rearranged_h_0145.sdf

> <i_m_source_file_index>
96

> <r_mmod_Potential_Energy-OPLS-2005>
-123.903549194336

> <r_mmod_Stretch_Energy-OPLS-2005>
36.484733581543

> <r_mmod_Bend_Energy-OPLS-2005>
131.744094848633

> <r_mmod_Torsional_Energy-OPLS-2005>
227.540161132812

> <r_mmod_Improper_Torsional_Energy-OPLS-2005>
5.09943675994873

> <r_mmod_Van_der_Waal_Energy-OPLS-2005>
144.524597167969

> <r_mmod_Electrostatic_Energy-OPLS-2005>
-460.735687255859

> <r_mmod_Solvation_Energy-OPLS-2005>
-219.688278198242

> <b_mmod_Minimization_Converged-OPLS-2005>
0

> <r_mmod_RMS_Derivative-OPLS-2005>
5.6120719909668

$$$$
97
                    3D
 Structure written by MMmdl.
171179  0  0  1  0            999 V2000
  -30.7669  -14.3741   20.7232 C   0  0  0  0  0  0
  -30.4205  -12.3200   19.3862 C   0  0  0  0  0  0
  -29.4802  -12.5442   18.1882 C   0  0  0  0  0  0
  -28.0075  -12.3847   18.6075 C   0  0  0  0  0  0
  -27.6652  -13.1996   19.8812 C   0  0  2  0  0  0
  -28.6999  -12.9281   20.9923 C   0  0  0  0  0  0
  -25.2598  -13.8150   20.5682 C   0  0  0  0  0  0
  -24.1840  -13.0431   20.9168 C   0  0  0  0  0  0
  -24.6385  -11.6898   20.8718 C   0  0  0  0  0  0
  -23.9047  -10.4288   21.0394 C   0  0  0  0  0  0
  -24.3604   -9.4216   21.9175 C   0  0  0  0  0  0
  -23.6288   -8.2244   22.0749 C   0  0  0  0  0  0
  -22.4269   -8.0274   21.3544 C   0  0  0  0  0  0
  -21.9900   -9.0246   20.4640 C   0  0  0  0  0  0
  -22.7219  -10.2126   20.3050 C   0  0  0  0  0  0
  -21.6851   -6.0734   22.5278 C   0  0  0  0  0  0
  -21.4014   -6.5638   23.8209 C   0  0  0  0  0  0
  -21.3660   -5.6793   24.9176 C   0  0  0  0  0  0
  -21.6046   -4.3054   24.7229 C   0  0  0  0  0  0
  -21.8817   -3.8145   23.4351 C   0  0  0  0  0  0
  -21.9191   -4.6960   22.3405 C   0  0  0  0  0  0
  -22.7867  -13.5238   21.1849 C   0  0  0  0  0  0
  -22.1659   -4.2148   21.0983 F   0  0  0  0  0  0
  -21.5634   -3.4535   25.7743 F   0  0  0  0  0  0
  -30.0427  -13.2462   20.4655 N   0  0  0  0  0  0
  -26.3035  -12.9309   20.3373 N   0  0  0  0  0  0
  -25.9306  -11.6466   20.5733 N   0  0  0  0  0  0
  -22.0501  -12.8225   22.0404 N   0  0  0  0  0  0
  -25.4339  -15.1871   20.4120 N   0  0  0  0  0  0
  -31.7320  -14.7342   20.0378 O   0  0  0  0  0  0
  -21.6633   -6.8873   21.4238 O   0  0  0  0  0  0
  -22.3549  -14.5543   20.6707 O   0  0  0  0  0  0
  -24.6143  -31.8660   23.2133 C   0  0  0  0  0  0
  -25.9024  -32.4809   23.8429 C   0  0  1  0  0  0
  -27.2310  -27.4241   20.0883 C   0  0  0  0  0  0
  -25.5892  -33.8613   24.2326 N   0  0  0  0  0  0
  -23.4052  -30.4872   21.5560 C   0  0  2  0  0  0
  -24.8475  -28.9584   20.1149 C   0  0  0  0  0  0
  -22.7431  -29.4595   22.5018 C   0  0  0  0  0  0
  -18.0300  -28.1338   22.8457 C   0  0  0  0  0  0
  -24.1498  -36.7342   23.2628 C   0  0  0  0  0  0
  -25.9349  -30.8270   21.3686 C   0  0  0  0  0  0
  -26.0079  -29.4628   20.7117 C   0  0  0  0  0  0
  -27.2016  -28.7040   20.6934 C   0  0  0  0  0  0
  -26.0486  -26.9389   19.4829 C   0  0  0  0  0  0
  -24.8621  -27.6969   19.4982 C   0  0  0  0  0  0
  -23.6123  -29.8271   20.1674 C   0  0  0  0  0  0
  -25.4121  -36.3115   24.0311 C   0  0  1  0  0  0
  -20.5880  -28.3618   23.1342 C   0  0  2  0  0  0
  -20.6795  -26.9351   22.5436 C   0  0  0  0  0  0
  -19.5785  -26.6352   21.5215 C   0  0  0  0  0  0
  -18.1953  -26.7881   22.1601 C   0  0  0  0  0  0
  -19.1546  -28.8804   23.2877 C   0  0  0  0  0  0
  -18.9448  -30.1417   23.8867 C   0  0  0  0  0  0
  -17.6454  -30.6543   24.0560 C   0  0  0  0  0  0
  -25.9023  -34.9465   23.5117 C   0  0  0  0  0  0
  -16.5347  -29.9045   23.6304 C   0  0  0  0  0  0
  -16.7292  -28.6479   23.0294 C   0  0  0  0  0  0
  -26.4460  -31.6604   25.0763 C   0  0  0  0  0  0
  -25.3749  -31.3703   26.1535 C   0  0  0  0  0  0
  -27.0269  -30.3044   24.6120 C   0  0  0  0  0  0
  -27.6015  -32.4338   25.7528 C   0  0  0  0  0  0
  -27.5593  -37.1826   24.8439 C   0  0  0  0  0  0
  -21.4161  -29.2969   22.3744 N   0  0  0  0  0  0
  -26.4310  -37.3802   23.9375 N   0  0  0  0  0  0
  -24.6704  -31.0747   22.1047 N   0  0  0  0  0  0
  -23.4203  -28.8105   23.3040 O   0  0  0  0  0  0
  -28.4122  -26.7057   20.1239 O   0  0  0  0  0  0
  -26.5606  -34.8904   22.4685 O   0  0  0  0  0  0
  -23.5326  -32.1406   23.7518 O   0  0  0  0  0  0
  -29.0351  -18.4118   23.2869 C   0  0  0  0  0  0
  -29.5488  -17.1030   23.2365 C   0  0  0  0  0  0
  -28.9013  -19.1622   22.1096 C   0  0  0  0  0  0
  -29.8134  -17.2903   20.8321 C   0  0  0  0  0  0
  -29.9466  -16.5024   22.0123 C   0  0  0  0  0  0
  -29.3061  -18.6161   20.8774 C   0  0  0  0  0  0
  -30.4601  -15.0793   22.0439 C   0  0  0  0  0  0
  -29.3875  -22.0760   19.4873 C   0  0  0  0  0  0
  -30.9752  -25.6524   19.9993 C   0  0  0  0  0  0
  -30.7582  -20.5135   17.9999 C   0  0  0  0  0  0
  -31.2808  -20.6726   20.4357 C   0  0  0  0  0  0
  -29.1450  -19.4547   19.6050 C   0  0  0  0  0  0
  -28.4619  -25.3790   19.5738 C   0  0  0  0  0  0
  -30.1886  -23.3752   19.1660 C   0  0  2  0  0  0
  -29.7893  -24.6629   19.9755 C   0  0  1  0  0  0
  -30.1231  -20.6872   19.4027 C   0  0  0  0  0  0
  -30.6390  -14.4568   23.1392 N   0  0  0  0  0  0
  -30.1598  -23.5753   17.7026 N   0  3  0  0  0  0
  -28.1846  -22.1299   19.7518 O   0  0  0  0  0  0
  -31.4602  -12.4444   19.0778 H   0  0  0  0  0  0
  -30.3419  -11.2926   19.7425 H   0  0  0  0  0  0
  -29.7182  -11.8417   17.3886 H   0  0  0  0  0  0
  -29.6407  -13.5423   17.7769 H   0  0  0  0  0  0
  -27.8236  -11.3244   18.7853 H   0  0  0  0  0  0
  -27.3494  -12.6738   17.7866 H   0  0  0  0  0  0
  -27.7269  -14.2561   19.6181 H   0  0  0  0  0  0
  -28.6714  -11.8784   21.2875 H   0  0  0  0  0  0
  -28.4216  -13.4834   21.8870 H   0  0  0  0  0  0
  -25.2746   -9.5696   22.4744 H   0  0  0  0  0  0
  -24.0006   -7.4639   22.7466 H   0  0  0  0  0  0
  -21.0835   -8.8759   19.8939 H   0  0  0  0  0  0
  -22.3678  -10.9666   19.6158 H   0  0  0  0  0  0
  -21.2002   -7.6143   23.9721 H   0  0  0  0  0  0
  -21.1488   -6.0518   25.9083 H   0  0  0  0  0  0
  -22.0594   -2.7605   23.2852 H   0  0  0  0  0  0
  -22.4112  -11.9890   22.4798 H   0  0  0  0  0  0
  -21.1118  -13.1246   22.2606 H   0  0  0  0  0  0
  -24.6722  -15.8452   20.5373 H   0  0  0  0  0  0
  -26.2971  -15.6297   20.1226 H   0  0  0  0  0  0
  -26.7090  -32.5492   23.1191 H   0  0  0  0  0  0
  -25.0039  -33.9777   25.0469 H   0  0  0  0  0  0
  -22.6911  -31.3028   21.4228 H   0  0  0  0  0  0
  -23.3717  -35.9710   23.3299 H   0  0  0  0  0  0
  -24.3600  -36.8989   22.2046 H   0  0  0  0  0  0
  -23.7296  -37.6559   23.6665 H   0  0  0  0  0  0
  -26.0517  -31.5927   20.6018 H   0  0  0  0  0  0
  -26.8219  -30.8780   21.9895 H   0  0  0  0  0  0
  -28.1009  -29.0924   21.1510 H   0  0  0  0  0  0
  -26.0105  -25.9763   18.9935 H   0  0  0  0  0  0
  -23.9682  -27.3050   19.0327 H   0  0  0  0  0  0
  -23.7284  -30.6070   19.4152 H   0  0  0  0  0  0
  -22.7339  -29.2563   19.8643 H   0  0  0  0  0  0
  -25.1307  -36.2005   25.0807 H   0  0  0  0  0  0
  -20.9951  -28.3176   24.1478 H   0  0  0  0  0  0
  -20.5768  -26.2182   23.3592 H   0  0  0  0  0  0
  -21.6666  -26.7455   22.1193 H   0  0  0  0  0  0
  -19.6944  -25.6275   21.1224 H   0  0  0  0  0  0
  -19.6750  -27.3170   20.6743 H   0  0  0  0  0  0
  -17.4240  -26.6623   21.3977 H   0  0  0  0  0  0
  -18.0339  -26.0012   22.8986 H   0  0  0  0  0  0
  -19.7929  -30.7235   24.2211 H   0  0  0  0  0  0
  -17.5007  -31.6220   24.5166 H   0  0  0  0  0  0
  -15.5340  -30.2939   23.7632 H   0  0  0  0  0  0
  -15.8689  -28.0836   22.6956 H   0  0  0  0  0  0
  -24.5914  -30.7042   25.7907 H   0  0  0  0  0  0
  -24.8937  -32.2844   26.5015 H   0  0  0  0  0  0
  -25.8129  -30.8887   27.0289 H   0  0  0  0  0  0
  -26.2809  -29.6827   24.1146 H   0  0  0  0  0  0
  -27.4010  -29.7259   25.4573 H   0  0  0  0  0  0
  -27.8658  -30.4367   23.9276 H   0  0  0  0  0  0
  -27.2632  -33.3627   26.2137 H   0  0  0  0  0  0
  -28.3812  -32.6931   25.0357 H   0  0  0  0  0  0
  -28.0681  -31.8453   26.5450 H   0  0  0  0  0  0
  -28.2585  -38.0144   24.7526 H   0  0  0  0  0  0
  -28.1139  -36.2680   24.6259 H   0  0  0  0  0  0
  -27.2308  -37.1487   25.8840 H   0  0  0  0  0  0
  -20.9309  -29.8741   21.7009 H   0  0  0  0  0  0
  -26.0187  -38.2873   24.1407 H   0  0  0  0  0  0
  -28.7356  -18.8385   24.2342 H   0  0  0  0  0  0
  -29.6160  -16.5636   24.1705 H   0  0  0  0  0  0
  -28.4873  -20.1602   22.1539 H   0  0  0  0  0  0
  -30.0947  -16.8807   19.8731 H   0  0  0  0  0  0
  -30.8008  -26.4590   20.7119 H   0  0  0  0  0  0
  -31.1485  -26.1122   19.0257 H   0  0  0  0  0  0
  -31.8973  -25.1606   20.3138 H   0  0  0  0  0  0
  -31.5155  -21.2644   17.7771 H   0  0  0  0  0  0
  -30.0063  -20.5392   17.2091 H   0  0  0  0  0  0
  -31.2656  -19.5511   17.9218 H   0  0  0  0  0  0
  -32.0894  -21.3560   20.1702 H   0  0  0  0  0  0
  -31.7375  -19.6841   20.5016 H   0  0  0  0  0  0
  -30.9439  -20.9461   21.4366 H   0  0  0  0  0  0
  -28.0943  -19.7411   19.5442 H   0  0  0  0  0  0
  -29.2542  -18.7590   18.7721 H   0  0  0  0  0  0
  -27.6195  -24.7781   19.9229 H   0  0  0  0  0  0
  -28.3814  -25.4662   18.4914 H   0  0  0  0  0  0
  -31.2282  -23.1757   19.4284 H   0  0  0  0  0  0
  -29.6561  -24.3493   21.0119 H   0  0  0  0  0  0
  -30.4045  -15.0339   23.9365 H   0  0  0  0  0  0
  -29.2117  -23.5934   17.3669 H   0  0  0  0  0  0
  -30.6308  -22.8139   17.2455 H   0  0  0  0  0  0
  -30.6182  -24.4280   17.4382 H   0  0  0  0  0  0
  1 25  1  0  0  0
  1 30  2  0  0  0
  1 77  1  0  0  0
  2  3  1  0  0  0
  2 25  1  0  0  0
  2 90  1  0  0  0
  2 91  1  0  0  0
  3  4  1  0  0  0
  3 92  1  0  0  0
  3 93  1  0  0  0
  4  5  1  0  0  0
  4 94  1  0  0  0
  4 95  1  0  0  0
  5  6  1  0  0  0
  5 26  1  0  0  0
  5 96  1  0  0  0
  6 25  1  0  0  0
  6 97  1  0  0  0
  6 98  1  0  0  0
  7  8  2  0  0  0
  7 26  1  0  0  0
  7 29  1  0  0  0
  8  9  1  0  0  0
  8 22  1  0  0  0
  9 10  1  0  0  0
  9 27  2  0  0  0
 10 11  2  0  0  0
 10 15  1  0  0  0
 11 12  1  0  0  0
 11 99  1  0  0  0
 12 13  2  0  0  0
 12100  1  0  0  0
 13 14  1  0  0  0
 13 31  1  0  0  0
 14 15  2  0  0  0
 14101  1  0  0  0
 15102  1  0  0  0
 16 17  2  0  0  0
 16 21  1  0  0  0
 16 31  1  0  0  0
 17 18  1  0  0  0
 17103  1  0  0  0
 18 19  2  0  0  0
 18104  1  0  0  0
 19 20  1  0  0  0
 19 24  1  0  0  0
 20 21  2  0  0  0
 20105  1  0  0  0
 21 23  1  0  0  0
 22 28  1  0  0  0
 22 32  2  0  0  0
 26 27  1  0  0  0
 28106  1  0  0  0
 28107  1  0  0  0
 29108  1  0  0  0
 29109  1  0  0  0
 33 34  1  0  0  0
 33 66  1  0  0  0
 33 70  2  0  0  0
 34 36  1  0  0  0
 34 59  1  0  0  0
 34110  1  0  0  0
 35 44  2  0  0  0
 35 45  1  0  0  0
 35 68  1  0  0  0
 36 56  1  0  0  0
 36111  1  0  0  0
 37 39  1  0  0  0
 37 47  1  0  0  0
 37 66  1  0  0  0
 37112  1  0  0  0
 38 43  2  0  0  0
 38 46  1  0  0  0
 38 47  1  0  0  0
 39 64  1  0  0  0
 39 67  2  0  0  0
 40 52  1  0  0  0
 40 53  2  0  0  0
 40 58  1  0  0  0
 41113  1  0  0  0
 41114  1  0  0  0
 41115  1  0  0  0
 41 48  1  0  0  0
 42 43  1  0  0  0
 42 66  1  0  0  0
 42116  1  0  0  0
 42117  1  0  0  0
 43 44  1  0  0  0
 44118  1  0  0  0
 45 46  2  0  0  0
 45119  1  0  0  0
 46120  1  0  0  0
 47121  1  0  0  0
 47122  1  0  0  0
 48 56  1  0  0  0
 48 65  1  0  0  0
 48123  1  0  0  0
 49 50  1  0  0  0
 49 53  1  0  0  0
 49 64  1  0  0  0
 49124  1  0  0  0
 50 51  1  0  0  0
 50125  1  0  0  0
 50126  1  0  0  0
 51 52  1  0  0  0
 51127  1  0  0  0
 51128  1  0  0  0
 52129  1  0  0  0
 52130  1  0  0  0
 53 54  1  0  0  0
 54 55  2  0  0  0
 54131  1  0  0  0
 55 57  1  0  0  0
 55132  1  0  0  0
 56 69  2  0  0  0
 57 58  2  0  0  0
 57133  1  0  0  0
 58134  1  0  0  0
 59 60  1  0  0  0
 59 61  1  0  0  0
 59 62  1  0  0  0
 60135  1  0  0  0
 60136  1  0  0  0
 60137  1  0  0  0
 61138  1  0  0  0
 61139  1  0  0  0
 61140  1  0  0  0
 62141  1  0  0  0
 62142  1  0  0  0
 62143  1  0  0  0
 63 65  1  0  0  0
 63144  1  0  0  0
 63145  1  0  0  0
 63146  1  0  0  0
 64147  1  0  0  0
 65148  1  0  0  0
 68 83  1  0  0  0
 71 72  2  0  0  0
 71 73  1  0  0  0
 71149  1  0  0  0
 72 75  1  0  0  0
 72150  1  0  0  0
 73 76  2  0  0  0
 73151  1  0  0  0
 74 75  2  0  0  0
 74 76  1  0  0  0
 74152  1  0  0  0
 75 77  1  0  0  0
 76 82  1  0  0  0
 77 87  2  0  0  0
 78 84  1  0  0  0
 78 86  1  0  0  0
 78 89  2  0  0  0
 79153  1  0  0  0
 79154  1  0  0  0
 79155  1  0  0  0
 79 85  1  0  0  0
 80156  1  0  0  0
 80157  1  0  0  0
 80158  1  0  0  0
 80 86  1  0  0  0
 81 86  1  0  0  0
 81159  1  0  0  0
 81160  1  0  0  0
 81161  1  0  0  0
 82 86  1  0  0  0
 82162  1  0  0  0
 82163  1  0  0  0
 83 85  1  0  0  0
 83164  1  0  0  0
 83165  1  0  0  0
 84 85  1  0  0  0
 84 88  1  0  0  0
 84166  1  0  0  0
 85167  1  0  0  0
 87168  1  0  0  0
 88169  1  0  0  0
 88170  1  0  0  0
 88171  1  0  0  0
M  CHG  1  88   1
M  ISO  4   1 100  68 101  77 100  83 101
M  END
> <chiral flag>
0

> <version>
0

> <s_m_source_file>
/data/baiqing/PycharmProjects/Reinvent-master-3.2/result/LINK_invent/BTK/process_docking_weight1_custom_product_contain_oxygen_bond_distance_aromatic_linkinvent_7_9_3/rearranged_h_0145.sdf

> <i_m_source_file_index>
97

> <r_mmod_Potential_Energy-OPLS-2005>
-113.024696350098

> <r_mmod_Stretch_Energy-OPLS-2005>
54.0578575134277

> <r_mmod_Bend_Energy-OPLS-2005>
122.009284973145

> <r_mmod_Torsional_Energy-OPLS-2005>
217.800643920898

> <r_mmod_Improper_Torsional_Energy-OPLS-2005>
3.75431108474731

> <r_mmod_Van_der_Waal_Energy-OPLS-2005>
170.44123840332

> <r_mmod_Electrostatic_Energy-OPLS-2005>
-195.62629699707

> <r_mmod_Solvation_Energy-OPLS-2005>
-496.455688476562

> <b_mmod_Minimization_Converged-OPLS-2005>
0

> <r_mmod_RMS_Derivative-OPLS-2005>
2.94795370101929

$$$$
