0
                    3D
 Structure written by MMmdl.
156165  0  0  1  0            999 V2000
  -30.5258  -14.9027   20.4410 C   0  0  0  0  0  0
  -30.4520  -12.5559   19.4929 C   0  0  0  0  0  0
  -29.5254  -12.5310   18.2535 C   0  0  0  0  0  0
  -28.0554  -12.3233   18.6680 C   0  0  0  0  0  0
  -27.6392  -13.2390   19.8486 C   0  0  2  0  0  0
  -28.6831  -13.2162   20.9868 C   0  0  0  0  0  0
  -25.2474  -13.8174   20.5643 C   0  0  0  0  0  0
  -24.1790  -13.0418   20.9198 C   0  0  0  0  0  0
  -24.6403  -11.6906   20.8750 C   0  0  0  0  0  0
  -23.9078  -10.4284   21.0410 C   0  0  0  0  0  0
  -24.3624   -9.4199   21.9187 C   0  0  0  0  0  0
  -23.6294   -8.2238   22.0756 C   0  0  0  0  0  0
  -22.4276   -8.0279   21.3546 C   0  0  0  0  0  0
  -21.9914   -9.0255   20.4648 C   0  0  0  0  0  0
  -22.7249  -10.2130   20.3059 C   0  0  0  0  0  0
  -21.6854   -6.0731   22.5279 C   0  0  0  0  0  0
  -21.4013   -6.5634   23.8211 C   0  0  0  0  0  0
  -21.3660   -5.6789   24.9175 C   0  0  0  0  0  0
  -21.6048   -4.3053   24.7226 C   0  0  0  0  0  0
  -21.8819   -3.8142   23.4347 C   0  0  0  0  0  0
  -21.9191   -4.6958   22.3402 C   0  0  0  0  0  0
  -22.7813  -13.5204   21.1861 C   0  0  0  0  0  0
  -22.1661   -4.2141   21.0981 F   0  0  0  0  0  0
  -21.5629   -3.4538   25.7740 F   0  0  0  0  0  0
  -29.9699  -13.6280   20.4055 N   0  0  0  0  0  0
  -26.2929  -12.9406   20.3270 N   0  0  0  0  0  0
  -25.9342  -11.6543   20.5763 N   0  0  0  0  0  0
  -22.0465  -12.8206   22.0431 N   0  0  0  0  0  0
  -25.4085  -15.1882   20.3958 N   0  0  0  0  0  0
  -31.7109  -15.0260   20.1182 O   0  0  0  0  0  0
  -21.6639   -6.8877   21.4243 O   0  0  0  0  0  0
  -22.3488  -14.5504   20.6705 O   0  0  0  0  0  0
  -24.6412  -31.8461   23.1899 C   0  0  0  0  0  0
  -25.9190  -32.4707   23.8284 C   0  0  1  0  0  0
  -27.2198  -27.1574   20.1538 C   0  0  0  0  0  0
  -25.5943  -33.8512   24.2200 N   0  0  0  0  0  0
  -23.4441  -30.4655   21.5353 C   0  0  2  0  0  0
  -24.8940  -28.8938   20.1147 C   0  0  0  0  0  0
  -22.7554  -29.4555   22.4869 C   0  0  0  0  0  0
  -18.0299  -28.1397   22.8477 C   0  0  0  0  0  0
  -24.1490  -36.7263   23.2642 C   0  0  0  0  0  0
  -25.9985  -30.7268   21.3860 C   0  0  0  0  0  0
  -26.0708  -29.3388   20.7306 C   0  0  0  0  0  0
  -27.2366  -28.4873   20.7314 C   0  0  0  0  0  0
  -26.0200  -26.8119   19.4941 C   0  0  0  0  0  0
  -24.8797  -27.6426   19.4814 C   0  0  0  0  0  0
  -23.6699  -29.7939   20.1553 C   0  0  0  0  0  0
  -25.4122  -36.3040   24.0316 C   0  0  1  0  0  0
  -20.5910  -28.3718   23.1240 C   0  0  2  0  0  0
  -20.6784  -26.9425   22.5403 C   0  0  0  0  0  0
  -19.5759  -26.6384   21.5210 C   0  0  0  0  0  0
  -18.1940  -26.7935   22.1623 C   0  0  0  0  0  0
  -19.1556  -28.8875   23.2851 C   0  0  0  0  0  0
  -18.9474  -30.1471   23.8878 C   0  0  0  0  0  0
  -17.6472  -30.6595   24.0560 C   0  0  0  0  0  0
  -25.9070  -34.9414   23.5068 C   0  0  0  0  0  0
  -16.5362  -29.9090   23.6337 C   0  0  0  0  0  0
  -16.7284  -28.6507   23.0359 C   0  0  0  0  0  0
  -26.4519  -31.6571   25.0719 C   0  0  0  0  0  0
  -25.3704  -31.3762   26.1415 C   0  0  0  0  0  0
  -27.0383  -30.2968   24.6294 C   0  0  0  0  0  0
  -27.6049  -32.4336   25.7504 C   0  0  0  0  0  0
  -27.5576  -37.1787   24.8464 C   0  0  0  0  0  0
  -21.4247  -29.3048   22.3615 N   0  0  0  0  0  0
  -26.4287  -37.3750   23.9407 N   0  0  0  0  0  0
  -24.7143  -31.0334   22.0925 N   0  0  0  0  0  0
  -23.4202  -28.8101   23.3014 O   0  0  0  0  0  0
  -28.2867  -26.1937   20.1827 O   0  0  0  0  0  0
  -26.5659  -34.8908   22.4649 O   0  0  0  0  0  0
  -23.5535  -32.1326   23.7130 O   0  0  0  0  0  0
  -30.1067  -19.9442   19.9897 C   0  0  0  0  0  0
  -29.0347  -20.5714   20.7190 C   0  0  0  0  0  0
  -29.5907  -17.5212   20.6650 C   0  0  0  0  0  0
  -30.3754  -18.5043   19.9532 C   0  0  0  0  0  0
  -28.2459  -19.5743   21.3973 C   0  0  0  0  0  0
  -28.5138  -18.1479   21.3742 C   0  0  0  0  0  0
  -30.4759  -23.2602   22.0976 C   0  0  0  0  0  0
  -30.4255  -23.7170   20.6360 C   0  0  0  0  0  0
  -29.2435  -22.3631   22.2841 C   0  0  0  0  0  0
  -29.0098  -23.3619   20.1859 C   0  0  2  0  0  0
  -28.0172  -24.6948   20.4812 C   0  0  0  0  0  0
  -28.7654  -22.0283   20.9418 N   0  0  0  0  0  0
  -29.6653  -15.9877   20.7112 N   0  0  0  0  0  0
  -31.7004  -17.9808   18.9788 Cl  0  0  0  0  0  0
  -26.8766  -20.1171   22.3174 Cl  0  0  0  0  0  0
  -27.4684  -17.1012   22.2807 Cl  0  0  0  0  0  0
  -31.4850  -12.7217   19.1829 H   0  0  0  0  0  0
  -30.4454  -11.5903   20.0005 H   0  0  0  0  0  0
  -29.8358  -11.7432   17.5657 H   0  0  0  0  0  0
  -29.6217  -13.4701   17.7066 H   0  0  0  0  0  0
  -27.9406  -11.2780   18.9571 H   0  0  0  0  0  0
  -27.3944  -12.4769   17.8143 H   0  0  0  0  0  0
  -27.6169  -14.2518   19.4452 H   0  0  0  0  0  0
  -28.7566  -12.2216   21.4291 H   0  0  0  0  0  0
  -28.3865  -13.8852   21.7960 H   0  0  0  0  0  0
  -25.2766   -9.5675   22.4764 H   0  0  0  0  0  0
  -23.9998   -7.4629   22.7477 H   0  0  0  0  0  0
  -21.0843   -8.8781   19.8956 H   0  0  0  0  0  0
  -22.3711  -10.9671   19.6169 H   0  0  0  0  0  0
  -21.2007   -7.6142   23.9714 H   0  0  0  0  0  0
  -21.1484   -6.0518   25.9078 H   0  0  0  0  0  0
  -22.0596   -2.7602   23.2851 H   0  0  0  0  0  0
  -22.4084  -11.9877   22.4834 H   0  0  0  0  0  0
  -21.1083  -13.1236   22.2633 H   0  0  0  0  0  0
  -24.6434  -15.8382   20.5345 H   0  0  0  0  0  0
  -26.2599  -15.6406   20.0939 H   0  0  0  0  0  0
  -26.7254  -32.5326   23.1014 H   0  0  0  0  0  0
  -25.0049  -33.9628   25.0319 H   0  0  0  0  0  0
  -22.7458  -31.2907   21.3809 H   0  0  0  0  0  0
  -23.3755  -35.9592   23.3294 H   0  0  0  0  0  0
  -24.3573  -36.8906   22.2058 H   0  0  0  0  0  0
  -23.7242  -37.6456   23.6685 H   0  0  0  0  0  0
  -26.1508  -31.4812   20.6130 H   0  0  0  0  0  0
  -26.8699  -30.7778   22.0271 H   0  0  0  0  0  0
  -28.1364  -28.8256   21.2257 H   0  0  0  0  0  0
  -25.9398  -25.8664   18.9798 H   0  0  0  0  0  0
  -23.9838  -27.3002   18.9819 H   0  0  0  0  0  0
  -23.8055  -30.5672   19.3982 H   0  0  0  0  0  0
  -22.7857  -29.2339   19.8457 H   0  0  0  0  0  0
  -25.1309  -36.1871   25.0808 H   0  0  0  0  0  0
  -21.0003  -28.3309   24.1362 H   0  0  0  0  0  0
  -20.5677  -26.2332   23.3620 H   0  0  0  0  0  0
  -21.6651  -26.7433   22.1204 H   0  0  0  0  0  0
  -19.6921  -25.6289   21.1256 H   0  0  0  0  0  0
  -19.6700  -27.3180   20.6729 H   0  0  0  0  0  0
  -17.4208  -26.6672   21.4028 H   0  0  0  0  0  0
  -18.0346  -26.0084   22.9028 H   0  0  0  0  0  0
  -19.7950  -30.7289   24.2243 H   0  0  0  0  0  0
  -17.5027  -31.6275   24.5164 H   0  0  0  0  0  0
  -15.5362  -30.2989   23.7675 H   0  0  0  0  0  0
  -15.8681  -28.0821   22.7091 H   0  0  0  0  0  0
  -24.5883  -30.7110   25.7736 H   0  0  0  0  0  0
  -24.8893  -32.2947   26.4787 H   0  0  0  0  0  0
  -25.7985  -30.8969   27.0228 H   0  0  0  0  0  0
  -26.3001  -29.6691   24.1290 H   0  0  0  0  0  0
  -27.3984  -29.7268   25.4869 H   0  0  0  0  0  0
  -27.8913  -30.4205   23.9617 H   0  0  0  0  0  0
  -27.2638  -33.3648   26.2040 H   0  0  0  0  0  0
  -28.3882  -32.6879   25.0351 H   0  0  0  0  0  0
  -28.0691  -31.8491   26.5457 H   0  0  0  0  0  0
  -28.2588  -38.0089   24.7509 H   0  0  0  0  0  0
  -28.1077  -36.2618   24.6293 H   0  0  0  0  0  0
  -27.2292  -37.1439   25.8866 H   0  0  0  0  0  0
  -20.9454  -29.8763   21.6798 H   0  0  0  0  0  0
  -26.0156  -38.2818   24.1412 H   0  0  0  0  0  0
  -30.7801  -20.5881   19.4447 H   0  0  0  0  0  0
  -30.4400  -24.1054   22.7864 H   0  0  0  0  0  0
  -31.3994  -22.7143   22.2952 H   0  0  0  0  0  0
  -31.1488  -23.1488   20.0494 H   0  0  0  0  0  0
  -30.6634  -24.7744   20.5107 H   0  0  0  0  0  0
  -28.4576  -22.8974   22.8203 H   0  0  0  0  0  0
  -29.4954  -21.4957   22.8981 H   0  0  0  0  0  0
  -29.0141  -23.1716   19.1116 H   0  0  0  0  0  0
  -27.8213  -24.6989   21.5529 H   0  0  0  0  0  0
  -27.0572  -24.4222   20.0499 H   0  0  0  0  0  0
  -28.7947  -15.6183   21.0623 H   0  0  0  0  0  0
  1 25  1  0  0  0
  1 30  2  0  0  0
  1 83  1  0  0  0
  2  3  1  0  0  0
  2 25  1  0  0  0
  2 87  1  0  0  0
  2 88  1  0  0  0
  3  4  1  0  0  0
  3 89  1  0  0  0
  3 90  1  0  0  0
  4  5  1  0  0  0
  4 91  1  0  0  0
  4 92  1  0  0  0
  5  6  1  0  0  0
  5 26  1  0  0  0
  5 93  1  0  0  0
  6 25  1  0  0  0
  6 94  1  0  0  0
  6 95  1  0  0  0
  7  8  2  0  0  0
  7 26  1  0  0  0
  7 29  1  0  0  0
  8  9  1  0  0  0
  8 22  1  0  0  0
  9 10  1  0  0  0
  9 27  2  0  0  0
 10 11  2  0  0  0
 10 15  1  0  0  0
 11 12  1  0  0  0
 11 96  1  0  0  0
 12 13  2  0  0  0
 12 97  1  0  0  0
 13 14  1  0  0  0
 13 31  1  0  0  0
 14 15  2  0  0  0
 14 98  1  0  0  0
 15 99  1  0  0  0
 16 17  2  0  0  0
 16 21  1  0  0  0
 16 31  1  0  0  0
 17 18  1  0  0  0
 17100  1  0  0  0
 18 19  2  0  0  0
 18101  1  0  0  0
 19 20  1  0  0  0
 19 24  1  0  0  0
 20 21  2  0  0  0
 20102  1  0  0  0
 21 23  1  0  0  0
 22 28  1  0  0  0
 22 32  2  0  0  0
 26 27  1  0  0  0
 28103  1  0  0  0
 28104  1  0  0  0
 29105  1  0  0  0
 29106  1  0  0  0
 33 34  1  0  0  0
 33 66  1  0  0  0
 33 70  2  0  0  0
 34 36  1  0  0  0
 34 59  1  0  0  0
 34107  1  0  0  0
 35 44  2  0  0  0
 35 45  1  0  0  0
 35 68  1  0  0  0
 36 56  1  0  0  0
 36108  1  0  0  0
 37 39  1  0  0  0
 37 47  1  0  0  0
 37 66  1  0  0  0
 37109  1  0  0  0
 38 43  2  0  0  0
 38 46  1  0  0  0
 38 47  1  0  0  0
 39 64  1  0  0  0
 39 67  2  0  0  0
 40 52  1  0  0  0
 40 53  2  0  0  0
 40 58  1  0  0  0
 41110  1  0  0  0
 41111  1  0  0  0
 41112  1  0  0  0
 41 48  1  0  0  0
 42 43  1  0  0  0
 42 66  1  0  0  0
 42113  1  0  0  0
 42114  1  0  0  0
 43 44  1  0  0  0
 44115  1  0  0  0
 45 46  2  0  0  0
 45116  1  0  0  0
 46117  1  0  0  0
 47118  1  0  0  0
 47119  1  0  0  0
 48 56  1  0  0  0
 48 65  1  0  0  0
 48120  1  0  0  0
 49 50  1  0  0  0
 49 53  1  0  0  0
 49 64  1  0  0  0
 49121  1  0  0  0
 50 51  1  0  0  0
 50122  1  0  0  0
 50123  1  0  0  0
 51 52  1  0  0  0
 51124  1  0  0  0
 51125  1  0  0  0
 52126  1  0  0  0
 52127  1  0  0  0
 53 54  1  0  0  0
 54 55  2  0  0  0
 54128  1  0  0  0
 55 57  1  0  0  0
 55129  1  0  0  0
 56 69  2  0  0  0
 57 58  2  0  0  0
 57130  1  0  0  0
 58131  1  0  0  0
 59 60  1  0  0  0
 59 61  1  0  0  0
 59 62  1  0  0  0
 60132  1  0  0  0
 60133  1  0  0  0
 60134  1  0  0  0
 61135  1  0  0  0
 61136  1  0  0  0
 61137  1  0  0  0
 62138  1  0  0  0
 62139  1  0  0  0
 62140  1  0  0  0
 63 65  1  0  0  0
 63141  1  0  0  0
 63142  1  0  0  0
 63143  1  0  0  0
 64144  1  0  0  0
 65145  1  0  0  0
 68 81  1  0  0  0
 71 72  2  0  0  0
 71 74  1  0  0  0
 71146  1  0  0  0
 72 75  1  0  0  0
 72 82  1  0  0  0
 73 74  2  0  0  0
 73 76  1  0  0  0
 73 83  1  0  0  0
 74 84  1  0  0  0
 75 76  2  0  0  0
 75 85  1  0  0  0
 76 86  1  0  0  0
 77 78  1  0  0  0
 77 79  1  0  0  0
 77147  1  0  0  0
 77148  1  0  0  0
 78 80  1  0  0  0
 78149  1  0  0  0
 78150  1  0  0  0
 79 82  1  0  0  0
 79151  1  0  0  0
 79152  1  0  0  0
 80 81  1  0  0  0
 80 82  1  0  0  0
 80153  1  0  0  0
 81154  1  0  0  0
 81155  1  0  0  0
 83156  1  0  0  0
M  ISO  4   1 100  68 101  81 101  83 100
M  END
> <chiral flag>
0

> <version>
0

> <s_m_source_file>
/data/baiqing/PycharmProjects/Reinvent-master-3.2/result/LINK_invent/BTK/process_docking_weight1_custom_product_contain_oxygen_bond_distance_aromatic_linkinvent_7_9_3/rearranged_h_0025.sdf

> <i_m_source_file_index>
1

> <r_mmod_Potential_Energy-OPLS-2005>
563.291442871094

> <r_mmod_Stretch_Energy-OPLS-2005>
217.684509277344

> <r_mmod_Bend_Energy-OPLS-2005>
320.351806640625

> <r_mmod_Torsional_Energy-OPLS-2005>
303.310211181641

> <r_mmod_Improper_Torsional_Energy-OPLS-2005>
8.51765060424805

> <r_mmod_Van_der_Waal_Energy-OPLS-2005>
131.714752197266

> <r_mmod_Electrostatic_Energy-OPLS-2005>
-360.188507080078

> <r_mmod_Solvation_Energy-OPLS-2005>
-222.773910522461

> <b_mmod_Minimization_Converged-OPLS-2005>
0

> <r_mmod_RMS_Derivative-OPLS-2005>
0.444007158279419

$$$$
1
                    3D
 Structure written by MMmdl.
157166  0  0  1  0            999 V2000
  -30.5976  -14.8291   20.4597 C   0  0  0  0  0  0
  -30.4337  -12.5145   19.4820 C   0  0  0  0  0  0
  -29.5138  -12.5227   18.2415 C   0  0  0  0  0  0
  -28.0416  -12.3331   18.6551 C   0  0  0  0  0  0
  -27.6364  -13.2419   19.8450 C   0  0  2  0  0  0
  -28.6819  -13.2181   20.9800 C   0  0  0  0  0  0
  -25.2484  -13.8209   20.5699 C   0  0  0  0  0  0
  -24.1790  -13.0441   20.9221 C   0  0  0  0  0  0
  -24.6405  -11.6926   20.8763 C   0  0  0  0  0  0
  -23.9092  -10.4296   21.0416 C   0  0  0  0  0  0
  -24.3637   -9.4206   21.9191 C   0  0  0  0  0  0
  -23.6306   -8.2244   22.0760 C   0  0  0  0  0  0
  -22.4285   -8.0289   21.3549 C   0  0  0  0  0  0
  -21.9931   -9.0262   20.4645 C   0  0  0  0  0  0
  -22.7270  -10.2137   20.3058 C   0  0  0  0  0  0
  -21.6852   -6.0749   22.5288 C   0  0  0  0  0  0
  -21.4014   -6.5651   23.8223 C   0  0  0  0  0  0
  -21.3658   -5.6802   24.9182 C   0  0  0  0  0  0
  -21.6043   -4.3064   24.7227 C   0  0  0  0  0  0
  -21.8817   -3.8159   23.4346 C   0  0  0  0  0  0
  -21.9191   -4.6978   22.3406 C   0  0  0  0  0  0
  -22.7809  -13.5213   21.1874 C   0  0  0  0  0  0
  -22.1660   -4.2165   21.0983 F   0  0  0  0  0  0
  -21.5625   -3.4546   25.7737 F   0  0  0  0  0  0
  -29.9704  -13.5967   20.3874 N   0  0  0  0  0  0
  -26.2919  -12.9438   20.3274 N   0  0  0  0  0  0
  -25.9337  -11.6570   20.5757 N   0  0  0  0  0  0
  -22.0458  -12.8190   22.0420 N   0  0  0  0  0  0
  -25.4152  -15.1938   20.4096 N   0  0  0  0  0  0
  -31.7978  -14.8868   20.1761 O   0  0  0  0  0  0
  -21.6645   -6.8890   21.4247 O   0  0  0  0  0  0
  -22.3495  -14.5519   20.6724 O   0  0  0  0  0  0
  -24.6341  -31.8497   23.1919 C   0  0  0  0  0  0
  -25.9141  -32.4725   23.8295 C   0  0  1  0  0  0
  -27.2241  -27.2072   20.1545 C   0  0  0  0  0  0
  -25.5921  -33.8532   24.2209 N   0  0  0  0  0  0
  -23.4348  -30.4704   21.5340 C   0  0  2  0  0  0
  -24.8866  -28.9011   20.1132 C   0  0  0  0  0  0
  -22.7517  -29.4595   22.4875 C   0  0  0  0  0  0
  -18.0306  -28.1395   22.8498 C   0  0  0  0  0  0
  -24.1484  -36.7257   23.2645 C   0  0  0  0  0  0
  -25.9850  -30.7473   21.3805 C   0  0  0  0  0  0
  -26.0592  -29.3632   20.7253 C   0  0  0  0  0  0
  -27.2321  -28.5327   20.7257 C   0  0  0  0  0  0
  -26.0292  -26.8245   19.5097 C   0  0  0  0  0  0
  -24.8795  -27.6432   19.4897 C   0  0  0  0  0  0
  -23.6589  -29.7961   20.1537 C   0  0  0  0  0  0
  -25.4119  -36.3045   24.0321 C   0  0  1  0  0  0
  -20.5908  -28.3712   23.1260 C   0  0  2  0  0  0
  -20.6787  -26.9419   22.5409 C   0  0  0  0  0  0
  -19.5762  -26.6385   21.5212 C   0  0  0  0  0  0
  -18.1943  -26.7943   22.1620 C   0  0  0  0  0  0
  -19.1559  -28.8868   23.2875 C   0  0  0  0  0  0
  -18.9483  -30.1474   23.8884 C   0  0  0  0  0  0
  -17.6479  -30.6599   24.0570 C   0  0  0  0  0  0
  -25.9066  -34.9425   23.5073 C   0  0  0  0  0  0
  -16.5371  -29.9101   23.6334 C   0  0  0  0  0  0
  -16.7290  -28.6513   23.0361 C   0  0  0  0  0  0
  -26.4494  -31.6582   25.0713 C   0  0  0  0  0  0
  -25.3693  -31.3783   26.1420 C   0  0  0  0  0  0
  -27.0343  -30.2989   24.6254 C   0  0  0  0  0  0
  -27.6038  -32.4333   25.7494 C   0  0  0  0  0  0
  -27.5573  -37.1789   24.8469 C   0  0  0  0  0  0
  -21.4212  -29.3053   22.3635 N   0  0  0  0  0  0
  -26.4279  -37.3762   23.9415 N   0  0  0  0  0  0
  -24.7036  -31.0431   22.0906 N   0  0  0  0  0  0
  -23.4193  -28.8148   23.2999 O   0  0  0  0  0  0
  -28.3060  -26.2799   20.2144 O   0  0  0  0  0  0
  -26.5648  -34.8907   22.4650 O   0  0  0  0  0  0
  -23.5472  -32.1340   23.7184 O   0  0  0  0  0  0
  -31.8482  -19.1097   21.5281 C   0  0  0  0  0  0
  -31.4736  -17.7801   21.2511 C   0  0  0  0  0  0
  -29.3335  -18.6264   20.5005 C   0  0  0  0  0  0
  -30.9882  -20.2149   21.3203 C   0  0  0  0  0  0
  -29.6955  -20.0391   20.7473 C   0  0  0  0  0  0
  -30.1953  -17.4571   20.7511 C   0  0  0  0  0  0
  -28.2460  -23.6772   19.3427 C   0  0  0  0  0  0
  -29.0384  -23.8764   21.2422 C   0  0  0  0  0  0
  -28.0415  -24.7870   20.4345 C   0  0  1  0  0  0
  -31.5001  -21.5683   21.7851 C   0  0  0  0  0  0
  -28.6849  -21.3057   20.5097 C   0  0  0  0  0  0
  -29.8265  -15.9986   20.6023 N   0  0  0  0  0  0
  -29.1020  -22.7889   20.2056 N   0  3  1  0  0  0
  -31.4729  -12.6466   19.1773 H   0  0  0  0  0  0
  -30.3935  -11.5488   19.9882 H   0  0  0  0  0  0
  -29.8109  -11.7407   17.5424 H   0  0  0  0  0  0
  -29.6254  -13.4682   17.7087 H   0  0  0  0  0  0
  -27.9070  -11.2854   18.9255 H   0  0  0  0  0  0
  -27.3849  -12.5134   17.8034 H   0  0  0  0  0  0
  -27.6154  -14.2561   19.4448 H   0  0  0  0  0  0
  -28.7405  -12.2288   21.4362 H   0  0  0  0  0  0
  -28.4039  -13.9093   21.7770 H   0  0  0  0  0  0
  -25.2776   -9.5680   22.4773 H   0  0  0  0  0  0
  -24.0015   -7.4632   22.7474 H   0  0  0  0  0  0
  -21.0871   -8.8779   19.8942 H   0  0  0  0  0  0
  -22.3734  -10.9675   19.6165 H   0  0  0  0  0  0
  -21.2008   -7.6159   23.9730 H   0  0  0  0  0  0
  -21.1481   -6.0531   25.9086 H   0  0  0  0  0  0
  -22.0593   -2.7622   23.2843 H   0  0  0  0  0  0
  -22.4086  -11.9845   22.4790 H   0  0  0  0  0  0
  -21.1072  -13.1200   22.2635 H   0  0  0  0  0  0
  -24.6398  -15.8412   20.5019 H   0  0  0  0  0  0
  -26.2527  -15.6305   20.0485 H   0  0  0  0  0  0
  -26.7206  -32.5362   23.1026 H   0  0  0  0  0  0
  -25.0069  -33.9669   25.0357 H   0  0  0  0  0  0
  -22.7337  -31.2932   21.3805 H   0  0  0  0  0  0
  -23.3751  -35.9584   23.3298 H   0  0  0  0  0  0
  -24.3575  -36.8882   22.2060 H   0  0  0  0  0  0
  -23.7223  -37.6453   23.6674 H   0  0  0  0  0  0
  -26.1323  -31.5024   20.6073 H   0  0  0  0  0  0
  -26.8590  -30.7973   22.0182 H   0  0  0  0  0  0
  -28.1283  -28.8850   21.2166 H   0  0  0  0  0  0
  -25.9664  -25.8574   19.0308 H   0  0  0  0  0  0
  -23.9828  -27.2858   19.0026 H   0  0  0  0  0  0
  -23.7928  -30.5683   19.3956 H   0  0  0  0  0  0
  -22.7761  -29.2338   19.8459 H   0  0  0  0  0  0
  -25.1304  -36.1875   25.0814 H   0  0  0  0  0  0
  -21.0019  -28.3285   24.1373 H   0  0  0  0  0  0
  -20.5653  -26.2331   23.3621 H   0  0  0  0  0  0
  -21.6667  -26.7417   22.1228 H   0  0  0  0  0  0
  -19.6915  -25.6288   21.1259 H   0  0  0  0  0  0
  -19.6704  -27.3189   20.6735 H   0  0  0  0  0  0
  -17.4216  -26.6701   21.4015 H   0  0  0  0  0  0
  -18.0338  -26.0082   22.9009 H   0  0  0  0  0  0
  -19.7956  -30.7312   24.2226 H   0  0  0  0  0  0
  -17.5033  -31.6274   24.5184 H   0  0  0  0  0  0
  -15.5375  -30.3001   23.7670 H   0  0  0  0  0  0
  -15.8687  -28.0834   22.7077 H   0  0  0  0  0  0
  -24.5910  -30.7056   25.7791 H   0  0  0  0  0  0
  -24.8824  -32.2968   26.4719 H   0  0  0  0  0  0
  -25.7998  -30.9093   27.0273 H   0  0  0  0  0  0
  -26.2952  -29.6726   24.1243 H   0  0  0  0  0  0
  -27.3971  -29.7266   25.4800 H   0  0  0  0  0  0
  -27.8849  -30.4251   23.9546 H   0  0  0  0  0  0
  -27.2659  -33.3692   26.1963 H   0  0  0  0  0  0
  -28.3918  -32.6787   25.0355 H   0  0  0  0  0  0
  -28.0610  -31.8507   26.5498 H   0  0  0  0  0  0
  -28.2596  -38.0085   24.7530 H   0  0  0  0  0  0
  -28.1057  -36.2620   24.6273 H   0  0  0  0  0  0
  -27.2293  -37.1413   25.8871 H   0  0  0  0  0  0
  -20.9383  -29.8748   21.6830 H   0  0  0  0  0  0
  -26.0132  -38.2820   24.1444 H   0  0  0  0  0  0
  -32.8305  -19.2741   21.9518 H   0  0  0  0  0  0
  -32.1891  -17.0036   21.4800 H   0  0  0  0  0  0
  -28.3395  -18.4368   20.1212 H   0  0  0  0  0  0
  -28.7946  -24.0338   18.4701 H   0  0  0  0  0  0
  -27.3111  -23.2058   19.0390 H   0  0  0  0  0  0
  -28.6309  -23.5396   22.1964 H   0  0  0  0  0  0
  -30.0123  -24.3442   21.3879 H   0  0  0  0  0  0
  -27.0536  -24.6675   20.8840 H   0  0  0  0  0  0
  -31.7142  -22.2225   20.9398 H   0  0  0  0  0  0
  -32.4282  -21.4689   22.3508 H   0  0  0  0  0  0
  -30.7838  -22.0447   22.4541 H   0  0  0  0  0  0
  -27.9834  -21.3224   21.3431 H   0  0  0  0  0  0
  -28.0840  -21.0019   19.6535 H   0  0  0  0  0  0
  -28.8360  -15.8130   20.6304 H   0  0  0  0  0  0
  -30.0176  -22.7725   19.7826 H   0  0  0  0  0  0
  1 25  1  0  0  0
  1 30  2  0  0  0
  1 82  1  0  0  0
  2  3  1  0  0  0
  2 25  1  0  0  0
  2 84  1  0  0  0
  2 85  1  0  0  0
  3  4  1  0  0  0
  3 86  1  0  0  0
  3 87  1  0  0  0
  4  5  1  0  0  0
  4 88  1  0  0  0
  4 89  1  0  0  0
  5  6  1  0  0  0
  5 26  1  0  0  0
  5 90  1  0  0  0
  6 25  1  0  0  0
  6 91  1  0  0  0
  6 92  1  0  0  0
  7  8  2  0  0  0
  7 26  1  0  0  0
  7 29  1  0  0  0
  8  9  1  0  0  0
  8 22  1  0  0  0
  9 10  1  0  0  0
  9 27  2  0  0  0
 10 11  2  0  0  0
 10 15  1  0  0  0
 11 12  1  0  0  0
 11 93  1  0  0  0
 12 13  2  0  0  0
 12 94  1  0  0  0
 13 14  1  0  0  0
 13 31  1  0  0  0
 14 15  2  0  0  0
 14 95  1  0  0  0
 15 96  1  0  0  0
 16 17  2  0  0  0
 16 21  1  0  0  0
 16 31  1  0  0  0
 17 18  1  0  0  0
 17 97  1  0  0  0
 18 19  2  0  0  0
 18 98  1  0  0  0
 19 20  1  0  0  0
 19 24  1  0  0  0
 20 21  2  0  0  0
 20 99  1  0  0  0
 21 23  1  0  0  0
 22 28  1  0  0  0
 22 32  2  0  0  0
 26 27  1  0  0  0
 28100  1  0  0  0
 28101  1  0  0  0
 29102  1  0  0  0
 29103  1  0  0  0
 33 34  1  0  0  0
 33 66  1  0  0  0
 33 70  2  0  0  0
 34 36  1  0  0  0
 34 59  1  0  0  0
 34104  1  0  0  0
 35 44  2  0  0  0
 35 45  1  0  0  0
 35 68  1  0  0  0
 36 56  1  0  0  0
 36105  1  0  0  0
 37 39  1  0  0  0
 37 47  1  0  0  0
 37 66  1  0  0  0
 37106  1  0  0  0
 38 43  2  0  0  0
 38 46  1  0  0  0
 38 47  1  0  0  0
 39 64  1  0  0  0
 39 67  2  0  0  0
 40 52  1  0  0  0
 40 53  2  0  0  0
 40 58  1  0  0  0
 41107  1  0  0  0
 41108  1  0  0  0
 41109  1  0  0  0
 41 48  1  0  0  0
 42 43  1  0  0  0
 42 66  1  0  0  0
 42110  1  0  0  0
 42111  1  0  0  0
 43 44  1  0  0  0
 44112  1  0  0  0
 45 46  2  0  0  0
 45113  1  0  0  0
 46114  1  0  0  0
 47115  1  0  0  0
 47116  1  0  0  0
 48 56  1  0  0  0
 48 65  1  0  0  0
 48117  1  0  0  0
 49 50  1  0  0  0
 49 53  1  0  0  0
 49 64  1  0  0  0
 49118  1  0  0  0
 50 51  1  0  0  0
 50119  1  0  0  0
 50120  1  0  0  0
 51 52  1  0  0  0
 51121  1  0  0  0
 51122  1  0  0  0
 52123  1  0  0  0
 52124  1  0  0  0
 53 54  1  0  0  0
 54 55  2  0  0  0
 54125  1  0  0  0
 55 57  1  0  0  0
 55126  1  0  0  0
 56 69  2  0  0  0
 57 58  2  0  0  0
 57127  1  0  0  0
 58128  1  0  0  0
 59 60  1  0  0  0
 59 61  1  0  0  0
 59 62  1  0  0  0
 60129  1  0  0  0
 60130  1  0  0  0
 60131  1  0  0  0
 61132  1  0  0  0
 61133  1  0  0  0
 61134  1  0  0  0
 62135  1  0  0  0
 62136  1  0  0  0
 62137  1  0  0  0
 63 65  1  0  0  0
 63138  1  0  0  0
 63139  1  0  0  0
 63140  1  0  0  0
 64141  1  0  0  0
 65142  1  0  0  0
 68 79  1  0  0  0
 71 72  2  0  0  0
 71 74  1  0  0  0
 71143  1  0  0  0
 72 76  1  0  0  0
 72144  1  0  0  0
 73 75  1  0  0  0
 73 76  2  0  0  0
 73145  1  0  0  0
 74 75  2  0  0  0
 74 80  1  0  0  0
 75 81  1  0  0  0
 76 82  1  0  0  0
 77 79  1  0  0  0
 77 83  1  0  0  0
 77146  1  0  0  0
 77147  1  0  0  0
 78 79  1  0  0  0
 78 83  1  0  0  0
 78148  1  0  0  0
 78149  1  0  0  0
 79150  1  0  0  0
 80151  1  0  0  0
 80152  1  0  0  0
 80153  1  0  0  0
 81154  1  0  0  0
 81155  1  0  0  0
 81 83  1  0  0  0
 82156  1  0  0  0
 83157  1  0  0  0
M  CHG  1  83   1
M  ISO  4   1 100  68 101  79 101  82 100
M  END
> <chiral flag>
0

> <version>
0

> <s_m_source_file>
/data/baiqing/PycharmProjects/Reinvent-master-3.2/result/LINK_invent/BTK/process_docking_weight1_custom_product_contain_oxygen_bond_distance_aromatic_linkinvent_7_9_3/rearranged_h_0025.sdf

> <i_m_source_file_index>
2

> <r_mmod_Potential_Energy-OPLS-2005>
123.273483276367

> <r_mmod_Stretch_Energy-OPLS-2005>
172.607284545898

> <r_mmod_Bend_Energy-OPLS-2005>
219.692230224609

> <r_mmod_Torsional_Energy-OPLS-2005>
260.242736816406

> <r_mmod_Improper_Torsional_Energy-OPLS-2005>
6.08845901489258

> <r_mmod_Van_der_Waal_Energy-OPLS-2005>
133.640731811523

> <r_mmod_Electrostatic_Energy-OPLS-2005>
-315.158416748047

> <r_mmod_Solvation_Energy-OPLS-2005>
-477.856414794922

> <b_mmod_Minimization_Converged-OPLS-2005>
0

> <r_mmod_RMS_Derivative-OPLS-2005>
1.91262376308441

$$$$
2
                    3D
 Structure written by MMmdl.
171180  0  0  1  0            999 V2000
  -30.6682  -14.6110   20.5166 C   0  0  0  0  0  0
  -30.4300  -12.3460   19.4932 C   0  0  0  0  0  0
  -29.5034  -12.3075   18.2598 C   0  0  0  0  0  0
  -28.0168  -12.2666   18.6734 C   0  0  0  0  0  0
  -27.6351  -13.1869   19.8664 C   0  0  2  0  0  0
  -28.6826  -13.1136   20.9961 C   0  0  0  0  0  0
  -25.2522  -13.8157   20.5724 C   0  0  0  0  0  0
  -24.1744  -13.0462   20.9228 C   0  0  0  0  0  0
  -24.6267  -11.6933   20.8839 C   0  0  0  0  0  0
  -23.8985  -10.4321   21.0489 C   0  0  0  0  0  0
  -24.3611   -9.4204   21.9168 C   0  0  0  0  0  0
  -23.6376   -8.2222   22.0719 C   0  0  0  0  0  0
  -22.4298   -8.0330   21.3587 C   0  0  0  0  0  0
  -21.9818   -9.0347   20.4794 C   0  0  0  0  0  0
  -22.7102  -10.2269   20.3220 C   0  0  0  0  0  0
  -21.6916   -6.0746   22.5264 C   0  0  0  0  0  0
  -21.4088   -6.5656   23.8189 C   0  0  0  0  0  0
  -21.3612   -5.6790   24.9133 C   0  0  0  0  0  0
  -21.6042   -4.3059   24.7189 C   0  0  0  0  0  0
  -21.8848   -3.8157   23.4318 C   0  0  0  0  0  0
  -21.9225   -4.6982   22.3374 C   0  0  0  0  0  0
  -22.7801  -13.5380   21.1842 C   0  0  0  0  0  0
  -22.1677   -4.2162   21.0930 F   0  0  0  0  0  0
  -21.5561   -3.4542   25.7693 F   0  0  0  0  0  0
  -29.9837  -13.4301   20.3933 N   0  0  0  0  0  0
  -26.2877  -12.9214   20.3446 N   0  0  0  0  0  0
  -25.9152  -11.6429   20.5863 N   0  0  0  0  0  0
  -22.0507  -12.8524   22.0582 N   0  0  0  0  0  0
  -25.4361  -15.1830   20.4173 N   0  0  0  0  0  0
  -31.8601  -14.6940   20.2231 O   0  0  0  0  0  0
  -21.6703   -6.8884   21.4232 O   0  0  0  0  0  0
  -22.3529  -14.5628   20.6625 O   0  0  0  0  0  0
  -24.6156  -31.8703   23.2146 C   0  0  0  0  0  0
  -25.9049  -32.4820   23.8451 C   0  0  1  0  0  0
  -27.2209  -27.4174   20.1219 C   0  0  0  0  0  0
  -25.5907  -33.8637   24.2368 N   0  0  0  0  0  0
  -23.4072  -30.4980   21.5515 C   0  0  2  0  0  0
  -24.8555  -28.9818   20.1059 C   0  0  0  0  0  0
  -22.7397  -29.4682   22.4946 C   0  0  0  0  0  0
  -18.0260  -28.1381   22.8464 C   0  0  0  0  0  0
  -24.1508  -36.7332   23.2639 C   0  0  0  0  0  0
  -25.9410  -30.8327   21.3802 C   0  0  0  0  0  0
  -26.0146  -29.4753   20.7151 C   0  0  0  0  0  0
  -27.2037  -28.7022   20.7216 C   0  0  0  0  0  0
  -26.0544  -26.9801   19.4508 C   0  0  0  0  0  0
  -24.8734  -27.7390   19.4604 C   0  0  0  0  0  0
  -23.6195  -29.8486   20.1607 C   0  0  0  0  0  0
  -25.4121  -36.3122   24.0352 C   0  0  1  0  0  0
  -20.5857  -28.3688   23.1299 C   0  0  2  0  0  0
  -20.6786  -26.9437   22.5422 C   0  0  0  0  0  0
  -19.5782  -26.6392   21.5214 C   0  0  0  0  0  0
  -18.1937  -26.7922   22.1612 C   0  0  0  0  0  0
  -19.1510  -28.8846   23.2872 C   0  0  0  0  0  0
  -18.9457  -30.1436   23.8909 C   0  0  0  0  0  0
  -17.6469  -30.6593   24.0564 C   0  0  0  0  0  0
  -25.9046  -34.9487   23.5158 C   0  0  0  0  0  0
  -16.5341  -29.9116   23.6325 C   0  0  0  0  0  0
  -16.7251  -28.6523   23.0344 C   0  0  0  0  0  0
  -26.4473  -31.6585   25.0770 C   0  0  0  0  0  0
  -25.3700  -31.3745   26.1492 C   0  0  0  0  0  0
  -27.0291  -30.2997   24.6215 C   0  0  0  0  0  0
  -27.6093  -32.4258   25.7457 C   0  0  0  0  0  0
  -27.5610  -37.1812   24.8454 C   0  0  0  0  0  0
  -21.4126  -29.3046   22.3683 N   0  0  0  0  0  0
  -26.4308  -37.3809   23.9392 N   0  0  0  0  0  0
  -24.6714  -31.0798   22.1052 N   0  0  0  0  0  0
  -23.4123  -28.8241   23.3028 O   0  0  0  0  0  0
  -28.3151  -26.5776   20.2411 O   0  0  0  0  0  0
  -26.5608  -34.8922   22.4720 O   0  0  0  0  0  0
  -23.5330  -32.1462   23.7514 O   0  0  0  0  0  0
  -27.2470  -17.4224   17.8562 C   0  0  0  0  0  0
  -29.0116  -15.8684   18.4119 C   0  0  0  0  0  0
  -27.5495  -18.1650   19.0167 C   0  0  0  0  0  0
  -28.6268  -17.7756   19.8703 C   0  0  0  0  0  0
  -29.2123  -16.4771   19.6751 C   0  0  0  0  0  0
  -28.0352  -16.3204   17.5098 C   0  0  0  0  0  0
  -30.0121  -19.7624   20.0004 C   0  0  0  0  0  0
  -28.6586  -19.1138   22.0186 C   0  0  0  0  0  0
  -30.3210  -21.0529   20.8080 C   0  0  0  0  0  0
  -28.2718  -20.6245   22.2115 C   0  0  1  0  0  0
  -26.6706  -19.3616   19.3322 C   0  0  0  0  0  0
  -28.1852  -20.9463   23.7156 C   0  0  0  0  0  0
  -28.4412  -22.7445   20.8233 C   0  0  0  0  0  0
  -27.9434  -25.2526   20.7105 C   0  0  0  0  0  0
  -29.0447  -24.1801   21.0034 C   0  0  1  0  0  0
  -29.2182  -18.7520   20.7147 N   0  0  0  0  0  0
  -29.9624  -15.7689   20.7008 N   0  0  0  0  0  0
  -29.1602  -21.6380   21.5356 N   0  3  2  0  0  0
  -29.4743  -24.3130   22.2644 F   0  0  0  0  0  0
  -27.7478  -15.4697   16.0337 Cl  0  0  0  0  0  0
  -31.4741  -12.4441   19.1926 H   0  0  0  0  0  0
  -30.3757  -11.3914   20.0226 H   0  0  0  0  0  0
  -29.7120  -11.3931   17.6978 H   0  0  0  0  0  0
  -29.7194  -13.1017   17.5536 H   0  0  0  0  0  0
  -27.8283  -11.2332   18.9706 H   0  0  0  0  0  0
  -27.3643  -12.4572   17.8218 H   0  0  0  0  0  0
  -27.6058  -14.1963   19.4869 H   0  0  0  0  0  0
  -28.6898  -12.1214   21.4434 H   0  0  0  0  0  0
  -28.4310  -13.8083   21.8027 H   0  0  0  0  0  0
  -25.2837   -9.5645   22.4598 H   0  0  0  0  0  0
  -24.0155   -7.4571   22.7363 H   0  0  0  0  0  0
  -21.0606   -8.9023   19.9259 H   0  0  0  0  0  0
  -22.3526  -10.9884   19.6454 H   0  0  0  0  0  0
  -21.2214   -7.6193   23.9714 H   0  0  0  0  0  0
  -21.1277   -6.0499   25.9035 H   0  0  0  0  0  0
  -22.0653   -2.7636   23.2803 H   0  0  0  0  0  0
  -22.4350  -12.0500   22.5356 H   0  0  0  0  0  0
  -21.1202  -13.1747   22.2901 H   0  0  0  0  0  0
  -24.6862  -15.8628   20.4944 H   0  0  0  0  0  0
  -26.3205  -15.5936   20.1470 H   0  0  0  0  0  0
  -26.7104  -32.5537   23.1195 H   0  0  0  0  0  0
  -24.9999  -33.9807   25.0488 H   0  0  0  0  0  0
  -22.6966  -31.3165   21.4206 H   0  0  0  0  0  0
  -23.3764  -35.9675   23.3300 H   0  0  0  0  0  0
  -24.3629  -36.8937   22.2058 H   0  0  0  0  0  0
  -23.7254  -37.6545   23.6635 H   0  0  0  0  0  0
  -26.0800  -31.6108   20.6278 H   0  0  0  0  0  0
  -26.8155  -30.8601   22.0181 H   0  0  0  0  0  0
  -28.0858  -29.0761   21.2230 H   0  0  0  0  0  0
  -26.0339  -26.0475   18.9088 H   0  0  0  0  0  0
  -23.9906  -27.3581   18.9635 H   0  0  0  0  0  0
  -23.7339  -30.6385   19.4152 H   0  0  0  0  0  0
  -22.7412  -29.2738   19.8550 H   0  0  0  0  0  0
  -25.1301  -36.2026   25.0851 H   0  0  0  0  0  0
  -20.9918  -28.3278   24.1433 H   0  0  0  0  0  0
  -20.5720  -26.2307   23.3619 H   0  0  0  0  0  0
  -21.6677  -26.7514   22.1235 H   0  0  0  0  0  0
  -19.6984  -25.6303   21.1264 H   0  0  0  0  0  0
  -19.6752  -27.3194   20.6746 H   0  0  0  0  0  0
  -17.4238  -26.6596   21.3991 H   0  0  0  0  0  0
  -18.0366  -26.0066   22.9024 H   0  0  0  0  0  0
  -19.7931  -30.7217   24.2300 H   0  0  0  0  0  0
  -17.5043  -31.6283   24.5166 H   0  0  0  0  0  0
  -15.5356  -30.3049   23.7657 H   0  0  0  0  0  0
  -15.8611  -28.0859   22.7078 H   0  0  0  0  0  0
  -24.5850  -30.7120   25.7792 H   0  0  0  0  0  0
  -24.8927  -32.2941   26.4890 H   0  0  0  0  0  0
  -25.8011  -30.8896   27.0267 H   0  0  0  0  0  0
  -26.2866  -29.6718   24.1245 H   0  0  0  0  0  0
  -27.3975  -29.7272   25.4747 H   0  0  0  0  0  0
  -27.8765  -30.4265   23.9459 H   0  0  0  0  0  0
  -27.2778  -33.3541   26.2124 H   0  0  0  0  0  0
  -28.3823  -32.6817   25.0187 H   0  0  0  0  0  0
  -28.0851  -31.8302   26.5263 H   0  0  0  0  0  0
  -28.2626  -38.0112   24.7526 H   0  0  0  0  0  0
  -28.1106  -36.2652   24.6244 H   0  0  0  0  0  0
  -27.2343  -37.1440   25.8861 H   0  0  0  0  0  0
  -20.9266  -29.8690   21.6858 H   0  0  0  0  0  0
  -26.0219  -38.2901   24.1362 H   0  0  0  0  0  0
  -26.4310  -17.7135   17.2050 H   0  0  0  0  0  0
  -29.5715  -15.0000   18.1387 H   0  0  0  0  0  0
  -30.9640  -19.3013   19.7348 H   0  0  0  0  0  0
  -29.5432  -20.0291   19.0480 H   0  0  0  0  0  0
  -27.7897  -18.4925   22.2440 H   0  0  0  0  0  0
  -29.4139  -18.8346   22.7536 H   0  0  0  0  0  0
  -30.7744  -21.8018   20.1538 H   0  0  0  0  0  0
  -31.0757  -20.8056   21.5585 H   0  0  0  0  0  0
  -27.2646  -20.7279   21.8049 H   0  0  0  0  0  0
  -25.8795  -19.4816   18.5934 H   0  0  0  0  0  0
  -27.2346  -20.2908   19.3573 H   0  0  0  0  0  0
  -26.1872  -19.2156   20.2977 H   0  0  0  0  0  0
  -29.1786  -20.9676   24.1678 H   0  0  0  0  0  0
  -27.6080  -20.1899   24.2499 H   0  0  0  0  0  0
  -27.7099  -21.9100   23.9022 H   0  0  0  0  0  0
  -28.3102  -22.5107   19.7641 H   0  0  0  0  0  0
  -27.4266  -22.7959   21.2247 H   0  0  0  0  0  0
  -27.3233  -25.3670   21.6055 H   0  0  0  0  0  0
  -27.2989  -24.7939   19.9673 H   0  0  0  0  0  0
  -29.9233  -24.3180   20.3686 H   0  0  0  0  0  0
  -30.3254  -16.3876   21.4255 H   0  0  0  0  0  0
  -29.5802  -22.1539   22.2974 H   0  0  0  0  0  0
  1 25  1  0  0  0
  1 30  2  0  0  0
  1 87  1  0  0  0
  2  3  1  0  0  0
  2 25  1  0  0  0
  2 91  1  0  0  0
  2 92  1  0  0  0
  3  4  1  0  0  0
  3 93  1  0  0  0
  3 94  1  0  0  0
  4  5  1  0  0  0
  4 95  1  0  0  0
  4 96  1  0  0  0
  5  6  1  0  0  0
  5 26  1  0  0  0
  5 97  1  0  0  0
  6 25  1  0  0  0
  6 98  1  0  0  0
  6 99  1  0  0  0
  7  8  2  0  0  0
  7 26  1  0  0  0
  7 29  1  0  0  0
  8  9  1  0  0  0
  8 22  1  0  0  0
  9 10  1  0  0  0
  9 27  2  0  0  0
 10 11  2  0  0  0
 10 15  1  0  0  0
 11 12  1  0  0  0
 11100  1  0  0  0
 12 13  2  0  0  0
 12101  1  0  0  0
 13 14  1  0  0  0
 13 31  1  0  0  0
 14 15  2  0  0  0
 14102  1  0  0  0
 15103  1  0  0  0
 16 17  2  0  0  0
 16 21  1  0  0  0
 16 31  1  0  0  0
 17 18  1  0  0  0
 17104  1  0  0  0
 18 19  2  0  0  0
 18105  1  0  0  0
 19 20  1  0  0  0
 19 24  1  0  0  0
 20 21  2  0  0  0
 20106  1  0  0  0
 21 23  1  0  0  0
 22 28  1  0  0  0
 22 32  2  0  0  0
 26 27  1  0  0  0
 28107  1  0  0  0
 28108  1  0  0  0
 29109  1  0  0  0
 29110  1  0  0  0
 33 34  1  0  0  0
 33 66  1  0  0  0
 33 70  2  0  0  0
 34 36  1  0  0  0
 34 59  1  0  0  0
 34111  1  0  0  0
 35 44  2  0  0  0
 35 45  1  0  0  0
 35 68  1  0  0  0
 36 56  1  0  0  0
 36112  1  0  0  0
 37 39  1  0  0  0
 37 47  1  0  0  0
 37 66  1  0  0  0
 37113  1  0  0  0
 38 43  2  0  0  0
 38 46  1  0  0  0
 38 47  1  0  0  0
 39 64  1  0  0  0
 39 67  2  0  0  0
 40 52  1  0  0  0
 40 53  2  0  0  0
 40 58  1  0  0  0
 41114  1  0  0  0
 41115  1  0  0  0
 41116  1  0  0  0
 41 48  1  0  0  0
 42 43  1  0  0  0
 42 66  1  0  0  0
 42117  1  0  0  0
 42118  1  0  0  0
 43 44  1  0  0  0
 44119  1  0  0  0
 45 46  2  0  0  0
 45120  1  0  0  0
 46121  1  0  0  0
 47122  1  0  0  0
 47123  1  0  0  0
 48 56  1  0  0  0
 48 65  1  0  0  0
 48124  1  0  0  0
 49 50  1  0  0  0
 49 53  1  0  0  0
 49 64  1  0  0  0
 49125  1  0  0  0
 50 51  1  0  0  0
 50126  1  0  0  0
 50127  1  0  0  0
 51 52  1  0  0  0
 51128  1  0  0  0
 51129  1  0  0  0
 52130  1  0  0  0
 52131  1  0  0  0
 53 54  1  0  0  0
 54 55  2  0  0  0
 54132  1  0  0  0
 55 57  1  0  0  0
 55133  1  0  0  0
 56 69  2  0  0  0
 57 58  2  0  0  0
 57134  1  0  0  0
 58135  1  0  0  0
 59 60  1  0  0  0
 59 61  1  0  0  0
 59 62  1  0  0  0
 60136  1  0  0  0
 60137  1  0  0  0
 60138  1  0  0  0
 61139  1  0  0  0
 61140  1  0  0  0
 61141  1  0  0  0
 62142  1  0  0  0
 62143  1  0  0  0
 62144  1  0  0  0
 63 65  1  0  0  0
 63145  1  0  0  0
 63146  1  0  0  0
 63147  1  0  0  0
 64148  1  0  0  0
 65149  1  0  0  0
 68 84  1  0  0  0
 71 73  2  0  0  0
 71 76  1  0  0  0
 71150  1  0  0  0
 72 75  1  0  0  0
 72 76  2  0  0  0
 72151  1  0  0  0
 73 74  1  0  0  0
 73 81  1  0  0  0
 74 75  2  0  0  0
 74 86  1  0  0  0
 75 87  1  0  0  0
 76 90  1  0  0  0
 77 79  1  0  0  0
 77 86  1  0  0  0
 77152  1  0  0  0
 77153  1  0  0  0
 78 80  1  0  0  0
 78 86  1  0  0  0
 78154  1  0  0  0
 78155  1  0  0  0
 79 88  1  0  0  0
 79156  1  0  0  0
 79157  1  0  0  0
 80 82  1  0  0  0
 80 88  1  0  0  0
 80158  1  0  0  0
 81159  1  0  0  0
 81160  1  0  0  0
 81161  1  0  0  0
 82162  1  0  0  0
 82163  1  0  0  0
 82164  1  0  0  0
 83 85  1  0  0  0
 83165  1  0  0  0
 83166  1  0  0  0
 83 88  1  0  0  0
 84 85  1  0  0  0
 84167  1  0  0  0
 84168  1  0  0  0
 85 89  1  0  0  0
 85169  1  0  0  0
 87170  1  0  0  0
 88171  1  0  0  0
M  CHG  1  88   1
M  ISO  4   1 100  68 101  84 101  87 100
M  END
> <chiral flag>
0

> <version>
0

> <s_m_source_file>
/data/baiqing/PycharmProjects/Reinvent-master-3.2/result/LINK_invent/BTK/process_docking_weight1_custom_product_contain_oxygen_bond_distance_aromatic_linkinvent_7_9_3/rearranged_h_0025.sdf

> <i_m_source_file_index>
3

> <r_mmod_Potential_Energy-OPLS-2005>
85.9233245849609

> <r_mmod_Stretch_Energy-OPLS-2005>
58.3782539367676

> <r_mmod_Bend_Energy-OPLS-2005>
143.692276000977

> <r_mmod_Torsional_Energy-OPLS-2005>
447.227508544922

> <r_mmod_Improper_Torsional_Energy-OPLS-2005>
11.2360134124756

> <r_mmod_Van_der_Waal_Energy-OPLS-2005>
156.014175415039

> <r_mmod_Electrostatic_Energy-OPLS-2005>
-336.258636474609

> <r_mmod_Solvation_Energy-OPLS-2005>
-443.512969970703

> <b_mmod_Minimization_Converged-OPLS-2005>
0

> <r_mmod_RMS_Derivative-OPLS-2005>
9.38917922973633

$$$$
3
                    3D
 Structure written by MMmdl.
159168  0  0  1  0            999 V2000
  -30.6308  -14.5274   20.5772 C   0  0  0  0  0  0
  -30.4411  -12.3425   19.4178 C   0  0  0  0  0  0
  -29.4964  -12.5200   18.2078 C   0  0  0  0  0  0
  -28.0169  -12.3699   18.6179 C   0  0  0  0  0  0
  -27.6609  -13.1998   19.8783 C   0  0  2  0  0  0
  -28.7040  -12.9572   20.9934 C   0  0  0  0  0  0
  -25.2565  -13.8116   20.5610 C   0  0  0  0  0  0
  -24.1843  -13.0422   20.9197 C   0  0  0  0  0  0
  -24.6400  -11.6881   20.8765 C   0  0  0  0  0  0
  -23.9067  -10.4270   21.0440 C   0  0  0  0  0  0
  -24.3610   -9.4185   21.9216 C   0  0  0  0  0  0
  -23.6280   -8.2223   22.0764 C   0  0  0  0  0  0
  -22.4265   -8.0273   21.3547 C   0  0  0  0  0  0
  -21.9912   -9.0255   20.4644 C   0  0  0  0  0  0
  -22.7241  -10.2131   20.3079 C   0  0  0  0  0  0
  -21.6841   -6.0745   22.5285 C   0  0  0  0  0  0
  -21.3996   -6.5651   23.8219 C   0  0  0  0  0  0
  -21.3665   -5.6803   24.9180 C   0  0  0  0  0  0
  -21.6056   -4.3067   24.7233 C   0  0  0  0  0  0
  -21.8815   -3.8161   23.4345 C   0  0  0  0  0  0
  -21.9179   -4.6972   22.3407 C   0  0  0  0  0  0
  -22.7867  -13.5236   21.1858 C   0  0  0  0  0  0
  -22.1638   -4.2178   21.0977 F   0  0  0  0  0  0
  -21.5646   -3.4549   25.7741 F   0  0  0  0  0  0
  -30.0319  -13.3069   20.4528 N   0  0  0  0  0  0
  -26.3013  -12.9276   20.3365 N   0  0  0  0  0  0
  -25.9326  -11.6442   20.5789 N   0  0  0  0  0  0
  -22.0498  -12.8238   22.0408 N   0  0  0  0  0  0
  -25.4205  -15.1814   20.3799 N   0  0  0  0  0  0
  -31.7506  -14.7756   20.1201 O   0  0  0  0  0  0
  -21.6610   -6.8882   21.4245 O   0  0  0  0  0  0
  -22.3573  -14.5561   20.6712 O   0  0  0  0  0  0
  -24.6219  -31.8639   23.2115 C   0  0  0  0  0  0
  -25.9105  -32.4791   23.8425 C   0  0  1  0  0  0
  -27.2395  -27.4062   20.1056 C   0  0  0  0  0  0
  -25.5966  -33.8595   24.2353 N   0  0  0  0  0  0
  -23.4106  -30.4857   21.5516 C   0  0  2  0  0  0
  -24.8588  -28.9439   20.1202 C   0  0  0  0  0  0
  -22.7446  -29.4641   22.5011 C   0  0  0  0  0  0
  -18.0271  -28.1381   22.8506 C   0  0  0  0  0  0
  -24.1469  -36.7256   23.2640 C   0  0  0  0  0  0
  -25.9432  -30.8200   21.3687 C   0  0  0  0  0  0
  -26.0212  -29.4524   20.7144 C   0  0  0  0  0  0
  -27.2176  -28.6928   20.6999 C   0  0  0  0  0  0
  -26.0600  -26.9114   19.5154 C   0  0  0  0  0  0
  -24.8737  -27.6721   19.5198 C   0  0  0  0  0  0
  -23.6212  -29.8151   20.1675 C   0  0  0  0  0  0
  -25.4097  -36.3081   24.0345 C   0  0  1  0  0  0
  -20.5875  -28.3663   23.1307 C   0  0  2  0  0  0
  -20.6767  -26.9393   22.5423 C   0  0  0  0  0  0
  -19.5738  -26.6383   21.5219 C   0  0  0  0  0  0
  -18.1898  -26.7947   22.1600 C   0  0  0  0  0  0
  -19.1531  -28.8846   23.2901 C   0  0  0  0  0  0
  -18.9449  -30.1458   23.8909 C   0  0  0  0  0  0
  -17.6447  -30.6594   24.0570 C   0  0  0  0  0  0
  -25.9047  -34.9453   23.5132 C   0  0  0  0  0  0
  -16.5343  -29.9081   23.6364 C   0  0  0  0  0  0
  -16.7260  -28.6495   23.0389 C   0  0  0  0  0  0
  -26.4517  -31.6608   25.0781 C   0  0  0  0  0  0
  -25.3766  -31.3657   26.1507 C   0  0  0  0  0  0
  -27.0421  -30.3081   24.6195 C   0  0  0  0  0  0
  -27.6118  -32.4333   25.7498 C   0  0  0  0  0  0
  -27.5590  -37.1742   24.8446 C   0  0  0  0  0  0
  -21.4176  -29.3021   22.3725 N   0  0  0  0  0  0
  -26.4248  -37.3809   23.9473 N   0  0  0  0  0  0
  -24.6767  -31.0714   22.1024 N   0  0  0  0  0  0
  -23.4188  -28.8216   23.3101 O   0  0  0  0  0  0
  -28.3806  -26.6252   20.0884 O   0  0  0  0  0  0
  -26.5590  -34.8913   22.4681 O   0  0  0  0  0  0
  -23.5405  -32.1408   23.7496 O   0  0  0  0  0  0
  -28.2703  -18.8478   20.7721 C   0  0  0  0  0  0
  -28.4665  -17.4493   20.8278 C   0  0  0  0  0  0
  -30.8507  -17.7784   21.0507 C   0  0  0  0  0  0
  -29.3512  -19.7589   20.8825 C   0  0  0  0  0  0
  -29.7525  -16.8875   20.9729 C   0  0  0  0  0  0
  -30.6527  -19.1878   21.0151 C   0  0  0  0  0  0
  -29.7968  -23.5057   20.2079 C   0  0  0  0  0  0
  -27.7925  -23.1499   21.6440 C   0  0  0  0  0  0
  -29.7912  -21.9826   19.8679 C   0  0  0  0  0  0
  -27.7842  -21.6559   21.2391 C   0  0  0  0  0  0
  -28.3960  -24.0835   20.5638 C   0  0  0  0  0  0
  -28.4158  -25.5696   21.0754 C   0  0  0  0  0  0
  -29.1299  -21.1733   20.9018 N   0  0  0  0  0  0
  -29.8309  -15.4624   21.1455 N   0  0  0  0  0  0
  -31.7359  -19.9928   21.1597 F   0  0  0  0  0  0
  -31.4787  -12.4846   19.1123 H   0  0  0  0  0  0
  -30.3849  -11.3217   19.8038 H   0  0  0  0  0  0
  -29.7404  -11.7945   17.4302 H   0  0  0  0  0  0
  -29.6508  -13.5056   17.7656 H   0  0  0  0  0  0
  -27.8303  -11.3104   18.8058 H   0  0  0  0  0  0
  -27.3619  -12.6483   17.7912 H   0  0  0  0  0  0
  -27.7089  -14.2513   19.5941 H   0  0  0  0  0  0
  -28.6993  -11.9082   21.2930 H   0  0  0  0  0  0
  -28.4524  -13.5084   21.9007 H   0  0  0  0  0  0
  -25.2749   -9.5646   22.4801 H   0  0  0  0  0  0
  -23.9988   -7.4611   22.7475 H   0  0  0  0  0  0
  -21.0853   -8.8768   19.8943 H   0  0  0  0  0  0
  -22.3718  -10.9677   19.6194 H   0  0  0  0  0  0
  -21.1967   -7.6155   23.9745 H   0  0  0  0  0  0
  -21.1488   -6.0523   25.9091 H   0  0  0  0  0  0
  -22.0588   -2.7628   23.2827 H   0  0  0  0  0  0
  -22.4055  -11.9836   22.4709 H   0  0  0  0  0  0
  -21.1142  -13.1304   22.2641 H   0  0  0  0  0  0
  -24.6195  -15.8016   20.4141 H   0  0  0  0  0  0
  -26.2063  -15.5805   19.8861 H   0  0  0  0  0  0
  -26.7189  -32.5464   23.1193 H   0  0  0  0  0  0
  -25.0250  -33.9785   25.0586 H   0  0  0  0  0  0
  -22.7008  -31.3035   21.4092 H   0  0  0  0  0  0
  -23.3805  -35.9500   23.3196 H   0  0  0  0  0  0
  -24.3597  -36.9000   22.2080 H   0  0  0  0  0  0
  -23.7093  -37.6367   23.6733 H   0  0  0  0  0  0
  -26.0715  -31.5892   20.6052 H   0  0  0  0  0  0
  -26.8250  -30.8641   21.9975 H   0  0  0  0  0  0
  -28.1187  -29.0850   21.1506 H   0  0  0  0  0  0
  -26.0594  -25.9325   19.0563 H   0  0  0  0  0  0
  -23.9777  -27.2670   19.0716 H   0  0  0  0  0  0
  -23.7319  -30.5900   19.4079 H   0  0  0  0  0  0
  -22.7426  -29.2376   19.8709 H   0  0  0  0  0  0
  -25.1252  -36.1912   25.0827 H   0  0  0  0  0  0
  -20.9941  -28.3216   24.1438 H   0  0  0  0  0  0
  -20.5674  -26.2268   23.3620 H   0  0  0  0  0  0
  -21.6626  -26.7420   22.1197 H   0  0  0  0  0  0
  -19.6886  -25.6296   21.1239 H   0  0  0  0  0  0
  -19.6701  -27.3203   20.6759 H   0  0  0  0  0  0
  -17.4199  -26.6799   21.3963 H   0  0  0  0  0  0
  -18.0208  -26.0040   22.8921 H   0  0  0  0  0  0
  -19.7916  -30.7297   24.2273 H   0  0  0  0  0  0
  -17.4978  -31.6278   24.5148 H   0  0  0  0  0  0
  -15.5340  -30.2970   23.7713 H   0  0  0  0  0  0
  -15.8650  -28.0800   22.7132 H   0  0  0  0  0  0
  -24.6069  -30.6855   25.7839 H   0  0  0  0  0  0
  -24.8790  -32.2754   26.4886 H   0  0  0  0  0  0
  -25.8127  -30.8930   27.0320 H   0  0  0  0  0  0
  -26.3011  -29.6729   24.1332 H   0  0  0  0  0  0
  -27.4325  -29.7427   25.4672 H   0  0  0  0  0  0
  -27.8765  -30.4463   23.9310 H   0  0  0  0  0  0
  -27.2820  -33.3699   26.1995 H   0  0  0  0  0  0
  -28.3943  -32.6772   25.0299 H   0  0  0  0  0  0
  -28.0761  -31.8492   26.5448 H   0  0  0  0  0  0
  -28.2487  -38.0170   24.7722 H   0  0  0  0  0  0
  -28.1230  -36.2728   24.5975 H   0  0  0  0  0  0
  -27.2363  -37.0991   25.8854 H   0  0  0  0  0  0
  -20.9368  -29.8687   21.6877 H   0  0  0  0  0  0
  -26.0119  -38.2843   24.1658 H   0  0  0  0  0  0
  -27.2582  -19.2017   20.6533 H   0  0  0  0  0  0
  -27.5975  -16.8117   20.7689 H   0  0  0  0  0  0
  -31.8494  -17.3907   21.1876 H   0  0  0  0  0  0
  -30.2213  -24.0592   19.3681 H   0  0  0  0  0  0
  -30.4774  -23.6724   21.0450 H   0  0  0  0  0  0
  -28.3499  -23.2613   22.5759 H   0  0  0  0  0  0
  -26.7710  -23.4620   21.8680 H   0  0  0  0  0  0
  -30.8171  -21.6481   19.7165 H   0  0  0  0  0  0
  -29.2763  -21.8205   18.9194 H   0  0  0  0  0  0
  -27.1124  -21.5091   20.3887 H   0  0  0  0  0  0
  -27.3764  -21.0750   22.0716 H   0  0  0  0  0  0
  -27.7567  -24.0306   19.6805 H   0  0  0  0  0  0
  -29.3141  -25.7205   21.6729 H   0  0  0  0  0  0
  -27.5930  -25.7123   21.7807 H   0  0  0  0  0  0
  -28.9750  -15.0440   21.4784 H   0  0  0  0  0  0
  1 25  1  0  0  0
  1 30  2  0  0  0
  1 84  1  0  0  0
  2  3  1  0  0  0
  2 25  1  0  0  0
  2 86  1  0  0  0
  2 87  1  0  0  0
  3  4  1  0  0  0
  3 88  1  0  0  0
  3 89  1  0  0  0
  4  5  1  0  0  0
  4 90  1  0  0  0
  4 91  1  0  0  0
  5  6  1  0  0  0
  5 26  1  0  0  0
  5 92  1  0  0  0
  6 25  1  0  0  0
  6 93  1  0  0  0
  6 94  1  0  0  0
  7  8  2  0  0  0
  7 26  1  0  0  0
  7 29  1  0  0  0
  8  9  1  0  0  0
  8 22  1  0  0  0
  9 10  1  0  0  0
  9 27  2  0  0  0
 10 11  2  0  0  0
 10 15  1  0  0  0
 11 12  1  0  0  0
 11 95  1  0  0  0
 12 13  2  0  0  0
 12 96  1  0  0  0
 13 14  1  0  0  0
 13 31  1  0  0  0
 14 15  2  0  0  0
 14 97  1  0  0  0
 15 98  1  0  0  0
 16 17  2  0  0  0
 16 21  1  0  0  0
 16 31  1  0  0  0
 17 18  1  0  0  0
 17 99  1  0  0  0
 18 19  2  0  0  0
 18100  1  0  0  0
 19 20  1  0  0  0
 19 24  1  0  0  0
 20 21  2  0  0  0
 20101  1  0  0  0
 21 23  1  0  0  0
 22 28  1  0  0  0
 22 32  2  0  0  0
 26 27  1  0  0  0
 28102  1  0  0  0
 28103  1  0  0  0
 29104  1  0  0  0
 29105  1  0  0  0
 33 34  1  0  0  0
 33 66  1  0  0  0
 33 70  2  0  0  0
 34 36  1  0  0  0
 34 59  1  0  0  0
 34106  1  0  0  0
 35 44  2  0  0  0
 35 45  1  0  0  0
 35 68  1  0  0  0
 36 56  1  0  0  0
 36107  1  0  0  0
 37 39  1  0  0  0
 37 47  1  0  0  0
 37 66  1  0  0  0
 37108  1  0  0  0
 38 43  2  0  0  0
 38 46  1  0  0  0
 38 47  1  0  0  0
 39 64  1  0  0  0
 39 67  2  0  0  0
 40 52  1  0  0  0
 40 53  2  0  0  0
 40 58  1  0  0  0
 41109  1  0  0  0
 41110  1  0  0  0
 41111  1  0  0  0
 41 48  1  0  0  0
 42 43  1  0  0  0
 42 66  1  0  0  0
 42112  1  0  0  0
 42113  1  0  0  0
 43 44  1  0  0  0
 44114  1  0  0  0
 45 46  2  0  0  0
 45115  1  0  0  0
 46116  1  0  0  0
 47117  1  0  0  0
 47118  1  0  0  0
 48 56  1  0  0  0
 48 65  1  0  0  0
 48119  1  0  0  0
 49 50  1  0  0  0
 49 53  1  0  0  0
 49 64  1  0  0  0
 49120  1  0  0  0
 50 51  1  0  0  0
 50121  1  0  0  0
 50122  1  0  0  0
 51 52  1  0  0  0
 51123  1  0  0  0
 51124  1  0  0  0
 52125  1  0  0  0
 52126  1  0  0  0
 53 54  1  0  0  0
 54 55  2  0  0  0
 54127  1  0  0  0
 55 57  1  0  0  0
 55128  1  0  0  0
 56 69  2  0  0  0
 57 58  2  0  0  0
 57129  1  0  0  0
 58130  1  0  0  0
 59 60  1  0  0  0
 59 61  1  0  0  0
 59 62  1  0  0  0
 60131  1  0  0  0
 60132  1  0  0  0
 60133  1  0  0  0
 61134  1  0  0  0
 61135  1  0  0  0
 61136  1  0  0  0
 62137  1  0  0  0
 62138  1  0  0  0
 62139  1  0  0  0
 63 65  1  0  0  0
 63140  1  0  0  0
 63141  1  0  0  0
 63142  1  0  0  0
 64143  1  0  0  0
 65144  1  0  0  0
 68 82  1  0  0  0
 71 72  2  0  0  0
 71 74  1  0  0  0
 71145  1  0  0  0
 72 75  1  0  0  0
 72146  1  0  0  0
 73 75  2  0  0  0
 73 76  1  0  0  0
 73147  1  0  0  0
 74 76  2  0  0  0
 74 83  1  0  0  0
 75 84  1  0  0  0
 76 85  1  0  0  0
 77 79  1  0  0  0
 77 81  1  0  0  0
 77148  1  0  0  0
 77149  1  0  0  0
 78 80  1  0  0  0
 78 81  1  0  0  0
 78150  1  0  0  0
 78151  1  0  0  0
 79 83  1  0  0  0
 79152  1  0  0  0
 79153  1  0  0  0
 80 83  1  0  0  0
 80154  1  0  0  0
 80155  1  0  0  0
 81 82  1  0  0  0
 81156  1  0  0  0
 82157  1  0  0  0
 82158  1  0  0  0
 84159  1  0  0  0
M  ISO  4   1 100  68 101  82 101  84 100
M  END
> <chiral flag>
0

> <version>
0

> <s_m_source_file>
/data/baiqing/PycharmProjects/Reinvent-master-3.2/result/LINK_invent/BTK/process_docking_weight1_custom_product_contain_oxygen_bond_distance_aromatic_linkinvent_7_9_3/rearranged_h_0025.sdf

> <i_m_source_file_index>
4

> <r_mmod_Potential_Energy-OPLS-2005>
66.1793365478516

> <r_mmod_Stretch_Energy-OPLS-2005>
49.7801666259766

> <r_mmod_Bend_Energy-OPLS-2005>
115.493041992188

> <r_mmod_Torsional_Energy-OPLS-2005>
285.202941894531

> <r_mmod_Improper_Torsional_Energy-OPLS-2005>
9.26902484893799

> <r_mmod_Van_der_Waal_Energy-OPLS-2005>
151.7236328125

> <r_mmod_Electrostatic_Energy-OPLS-2005>
-347.642761230469

> <r_mmod_Solvation_Energy-OPLS-2005>
-217.420120239258

> <b_mmod_Minimization_Converged-OPLS-2005>
0

> <r_mmod_RMS_Derivative-OPLS-2005>
3.21189022064209

$$$$
4
                    3D
 Structure written by MMmdl.
158167  0  0  1  0            999 V2000
  -30.6243  -14.6131   20.5409 C   0  0  0  0  0  0
  -30.4484  -12.3962   19.4368 C   0  0  0  0  0  0
  -29.5016  -12.5194   18.2225 C   0  0  0  0  0  0
  -28.0289  -12.3483   18.6379 C   0  0  0  0  0  0
  -27.6552  -13.2123   19.8649 C   0  0  2  0  0  0
  -28.6987  -13.0328   20.9894 C   0  0  0  0  0  0
  -25.2530  -13.8172   20.5648 C   0  0  0  0  0  0
  -24.1787  -13.0463   20.9203 C   0  0  0  0  0  0
  -24.6366  -11.6957   20.8744 C   0  0  0  0  0  0
  -23.9046  -10.4304   21.0411 C   0  0  0  0  0  0
  -24.3584   -9.4225   21.9207 C   0  0  0  0  0  0
  -23.6250   -8.2253   22.0728 C   0  0  0  0  0  0
  -22.4231   -8.0270   21.3548 C   0  0  0  0  0  0
  -21.9863   -9.0246   20.4671 C   0  0  0  0  0  0
  -22.7204  -10.2125   20.3105 C   0  0  0  0  0  0
  -21.6864   -6.0691   22.5256 C   0  0  0  0  0  0
  -21.3995   -6.5573   23.8187 C   0  0  0  0  0  0
  -21.3673   -5.6740   24.9176 C   0  0  0  0  0  0
  -21.6059   -4.3005   24.7233 C   0  0  0  0  0  0
  -21.8804   -3.8103   23.4351 C   0  0  0  0  0  0
  -21.9189   -4.6922   22.3408 C   0  0  0  0  0  0
  -22.7800  -13.5294   21.1823 C   0  0  0  0  0  0
  -22.1685   -4.2098   21.1003 F   0  0  0  0  0  0
  -21.5675   -3.4526   25.7764 F   0  0  0  0  0  0
  -30.0249  -13.3856   20.4468 N   0  0  0  0  0  0
  -26.2958  -12.9353   20.3278 N   0  0  0  0  0  0
  -25.9283  -11.6527   20.5715 N   0  0  0  0  0  0
  -22.0406  -12.8334   22.0364 N   0  0  0  0  0  0
  -25.4266  -15.1869   20.4070 N   0  0  0  0  0  0
  -31.7744  -14.8082   20.1284 O   0  0  0  0  0  0
  -21.6665   -6.8844   21.4209 O   0  0  0  0  0  0
  -22.3498  -14.5626   20.6700 O   0  0  0  0  0  0
  -24.6281  -31.8579   23.1980 C   0  0  0  0  0  0
  -25.9149  -32.4749   23.8292 C   0  0  1  0  0  0
  -27.2104  -27.2847   20.1219 C   0  0  0  0  0  0
  -25.5949  -33.8551   24.2243 N   0  0  0  0  0  0
  -23.4201  -30.4792   21.5386 C   0  0  2  0  0  0
  -24.8715  -28.9240   20.1121 C   0  0  0  0  0  0
  -22.7471  -29.4603   22.4863 C   0  0  0  0  0  0
  -18.0310  -28.1347   22.8480 C   0  0  0  0  0  0
  -24.1514  -36.7287   23.2598 C   0  0  0  0  0  0
  -25.9680  -30.7754   21.3764 C   0  0  0  0  0  0
  -26.0408  -29.3984   20.7217 C   0  0  0  0  0  0
  -27.2202  -28.5891   20.7147 C   0  0  0  0  0  0
  -26.0238  -26.8663   19.4943 C   0  0  0  0  0  0
  -24.8671  -27.6659   19.4860 C   0  0  0  0  0  0
  -23.6426  -29.8093   20.1562 C   0  0  0  0  0  0
  -25.4123  -36.3080   24.0325 C   0  0  1  0  0  0
  -20.5910  -28.3673   23.1273 C   0  0  2  0  0  0
  -20.6808  -26.9351   22.5467 C   0  0  0  0  0  0
  -19.5780  -26.6268   21.5253 C   0  0  0  0  0  0
  -18.1951  -26.7856   22.1631 C   0  0  0  0  0  0
  -19.1557  -28.8821   23.2867 C   0  0  0  0  0  0
  -18.9459  -30.1445   23.8851 C   0  0  0  0  0  0
  -17.6451  -30.6548   24.0560 C   0  0  0  0  0  0
  -25.9069  -34.9441   23.5090 C   0  0  0  0  0  0
  -16.5361  -29.9047   23.6307 C   0  0  0  0  0  0
  -16.7299  -28.6469   23.0332 C   0  0  0  0  0  0
  -26.4491  -31.6560   25.0683 C   0  0  0  0  0  0
  -25.3717  -31.3845   26.1429 C   0  0  0  0  0  0
  -27.0200  -30.2891   24.6231 C   0  0  0  0  0  0
  -27.6082  -32.4220   25.7449 C   0  0  0  0  0  0
  -27.5615  -37.1777   24.8461 C   0  0  0  0  0  0
  -21.4170  -29.3053   22.3666 N   0  0  0  0  0  0
  -26.4299  -37.3776   23.9435 N   0  0  0  0  0  0
  -24.6901  -31.0569   22.0927 N   0  0  0  0  0  0
  -23.4235  -28.8154   23.2911 O   0  0  0  0  0  0
  -28.3040  -26.4049   20.0896 O   0  0  0  0  0  0
  -26.5617  -34.8933   22.4659 O   0  0  0  0  0  0
  -23.5415  -32.1375   23.7302 O   0  0  0  0  0  0
  -28.4396  -19.1554   21.0097 C   0  0  0  0  0  0
  -28.6169  -17.7597   21.2274 C   0  0  0  0  0  0
  -30.8341  -17.8640   20.2691 C   0  0  0  0  0  0
  -29.4436  -19.9372   20.3724 C   0  0  0  0  0  0
  -29.7923  -17.0667   20.8305 C   0  0  0  0  0  0
  -30.6589  -19.2638   20.0375 C   0  0  0  0  0  0
  -28.9115  -22.4042   20.6743 C   0  0  0  0  0  0
  -27.6915  -22.1046   18.0450 C   0  0  0  0  0  0
  -27.6482  -23.5329   18.6320 C   0  0  0  0  0  0
  -29.0068  -21.4154   18.4266 C   0  0  0  0  0  0
  -28.0047  -23.6123   20.1487 C   0  0  2  0  0  0
  -28.2033  -25.0910   20.7982 C   0  0  0  0  0  0
  -29.1345  -21.2884   19.8887 N   0  0  0  0  0  0
  -29.8132  -15.6155   20.9972 N   0  0  0  0  0  0
  -29.3608  -22.4706   21.8253 O   0  0  0  0  0  0
  -31.6697  -19.9511   19.4466 F   0  0  0  0  0  0
  -31.4831  -12.5318   19.1192 H   0  0  0  0  0  0
  -30.4118  -11.3920   19.8543 H   0  0  0  0  0  0
  -29.7596  -11.7929   17.4531 H   0  0  0  0  0  0
  -29.6255  -13.4966   17.7563 H   0  0  0  0  0  0
  -27.8567  -11.2955   18.8644 H   0  0  0  0  0  0
  -27.3803  -12.5982   17.7996 H   0  0  0  0  0  0
  -27.6866  -14.2480   19.5234 H   0  0  0  0  0  0
  -28.7009  -11.9989   21.3355 H   0  0  0  0  0  0
  -28.4269  -13.6357   21.8563 H   0  0  0  0  0  0
  -25.2716   -9.5710   22.4827 H   0  0  0  0  0  0
  -23.9937   -7.4643   22.7433 H   0  0  0  0  0  0
  -21.0770   -8.8805   19.8999 H   0  0  0  0  0  0
  -22.3640  -10.9672   19.6255 H   0  0  0  0  0  0
  -21.1944   -7.6074   23.9685 H   0  0  0  0  0  0
  -21.1548   -6.0482   25.9088 H   0  0  0  0  0  0
  -22.0581   -2.7558   23.2893 H   0  0  0  0  0  0
  -22.4007  -12.0083   22.4916 H   0  0  0  0  0  0
  -21.1085  -13.1530   22.2649 H   0  0  0  0  0  0
  -24.6511  -15.8346   20.4794 H   0  0  0  0  0  0
  -26.2729  -15.6180   20.0570 H   0  0  0  0  0  0
  -26.7211  -32.5453   23.1012 H   0  0  0  0  0  0
  -25.0183  -33.9682   25.0436 H   0  0  0  0  0  0
  -22.7107  -31.2961   21.3884 H   0  0  0  0  0  0
  -23.3768  -35.9627   23.3253 H   0  0  0  0  0  0
  -24.3613  -36.8887   22.2012 H   0  0  0  0  0  0
  -23.7254  -37.6481   23.6611 H   0  0  0  0  0  0
  -26.1194  -31.5382   20.6132 H   0  0  0  0  0  0
  -26.8366  -30.8136   22.0192 H   0  0  0  0  0  0
  -28.1275  -28.9483   21.1795 H   0  0  0  0  0  0
  -25.9947  -25.9058   19.0116 H   0  0  0  0  0  0
  -23.9778  -27.2925   19.0021 H   0  0  0  0  0  0
  -23.7808  -30.5839   19.4010 H   0  0  0  0  0  0
  -22.7586  -29.2481   19.8434 H   0  0  0  0  0  0
  -25.1275  -36.1909   25.0798 H   0  0  0  0  0  0
  -20.9992  -28.3330   24.1402 H   0  0  0  0  0  0
  -20.5607  -26.2280   23.3704 H   0  0  0  0  0  0
  -21.6706  -26.7338   22.1354 H   0  0  0  0  0  0
  -19.6912  -25.6112   21.1429 H   0  0  0  0  0  0
  -19.6742  -27.2938   20.6678 H   0  0  0  0  0  0
  -17.4196  -26.6545   21.4086 H   0  0  0  0  0  0
  -18.0422  -25.9992   22.9031 H   0  0  0  0  0  0
  -19.7955  -30.7305   24.2131 H   0  0  0  0  0  0
  -17.5010  -31.6218   24.5161 H   0  0  0  0  0  0
  -15.5355  -30.2953   23.7554 H   0  0  0  0  0  0
  -15.8720  -28.0786   22.7045 H   0  0  0  0  0  0
  -24.6018  -30.6963   25.7944 H   0  0  0  0  0  0
  -24.8733  -32.3032   26.4548 H   0  0  0  0  0  0
  -25.8051  -30.9392   27.0401 H   0  0  0  0  0  0
  -26.2757  -29.6706   24.1197 H   0  0  0  0  0  0
  -27.3674  -29.7111   25.4812 H   0  0  0  0  0  0
  -27.8777  -30.3978   23.9571 H   0  0  0  0  0  0
  -27.2738  -33.3526   26.2069 H   0  0  0  0  0  0
  -28.3892  -32.6739   25.0257 H   0  0  0  0  0  0
  -28.0764  -31.8301   26.5332 H   0  0  0  0  0  0
  -28.2619  -38.0081   24.7476 H   0  0  0  0  0  0
  -28.1083  -36.2598   24.6256 H   0  0  0  0  0  0
  -27.2363  -37.1451   25.8868 H   0  0  0  0  0  0
  -20.9267  -29.8800   21.6954 H   0  0  0  0  0  0
  -26.0184  -38.2859   24.1386 H   0  0  0  0  0  0
  -27.4839  -19.6034   21.2653 H   0  0  0  0  0  0
  -27.7945  -17.2146   21.6753 H   0  0  0  0  0  0
  -31.7750  -17.4173   19.9766 H   0  0  0  0  0  0
  -27.5854  -22.1315   16.9562 H   0  0  0  0  0  0
  -26.8482  -21.5074   18.4102 H   0  0  0  0  0  0
  -26.6303  -23.8981   18.4690 H   0  0  0  0  0  0
  -28.3011  -24.1843   18.0490 H   0  0  0  0  0  0
  -29.8586  -21.9734   18.0264 H   0  0  0  0  0  0
  -29.0547  -20.4340   17.9494 H   0  0  0  0  0  0
  -27.0714  -23.2881   20.6166 H   0  0  0  0  0  0
  -29.1175  -25.0609   21.3929 H   0  0  0  0  0  0
  -27.4312  -25.1947   21.5639 H   0  0  0  0  0  0
  -28.9411  -15.2413   21.3389 H   0  0  0  0  0  0
  1 25  1  0  0  0
  1 30  2  0  0  0
  1 84  1  0  0  0
  2  3  1  0  0  0
  2 25  1  0  0  0
  2 87  1  0  0  0
  2 88  1  0  0  0
  3  4  1  0  0  0
  3 89  1  0  0  0
  3 90  1  0  0  0
  4  5  1  0  0  0
  4 91  1  0  0  0
  4 92  1  0  0  0
  5  6  1  0  0  0
  5 26  1  0  0  0
  5 93  1  0  0  0
  6 25  1  0  0  0
  6 94  1  0  0  0
  6 95  1  0  0  0
  7  8  2  0  0  0
  7 26  1  0  0  0
  7 29  1  0  0  0
  8  9  1  0  0  0
  8 22  1  0  0  0
  9 10  1  0  0  0
  9 27  2  0  0  0
 10 11  2  0  0  0
 10 15  1  0  0  0
 11 12  1  0  0  0
 11 96  1  0  0  0
 12 13  2  0  0  0
 12 97  1  0  0  0
 13 14  1  0  0  0
 13 31  1  0  0  0
 14 15  2  0  0  0
 14 98  1  0  0  0
 15 99  1  0  0  0
 16 17  2  0  0  0
 16 21  1  0  0  0
 16 31  1  0  0  0
 17 18  1  0  0  0
 17100  1  0  0  0
 18 19  2  0  0  0
 18101  1  0  0  0
 19 20  1  0  0  0
 19 24  1  0  0  0
 20 21  2  0  0  0
 20102  1  0  0  0
 21 23  1  0  0  0
 22 28  1  0  0  0
 22 32  2  0  0  0
 26 27  1  0  0  0
 28103  1  0  0  0
 28104  1  0  0  0
 29105  1  0  0  0
 29106  1  0  0  0
 33 34  1  0  0  0
 33 66  1  0  0  0
 33 70  2  0  0  0
 34 36  1  0  0  0
 34 59  1  0  0  0
 34107  1  0  0  0
 35 44  2  0  0  0
 35 45  1  0  0  0
 35 68  1  0  0  0
 36 56  1  0  0  0
 36108  1  0  0  0
 37 39  1  0  0  0
 37 47  1  0  0  0
 37 66  1  0  0  0
 37109  1  0  0  0
 38 43  2  0  0  0
 38 46  1  0  0  0
 38 47  1  0  0  0
 39 64  1  0  0  0
 39 67  2  0  0  0
 40 52  1  0  0  0
 40 53  2  0  0  0
 40 58  1  0  0  0
 41110  1  0  0  0
 41111  1  0  0  0
 41112  1  0  0  0
 41 48  1  0  0  0
 42 43  1  0  0  0
 42 66  1  0  0  0
 42113  1  0  0  0
 42114  1  0  0  0
 43 44  1  0  0  0
 44115  1  0  0  0
 45 46  2  0  0  0
 45116  1  0  0  0
 46117  1  0  0  0
 47118  1  0  0  0
 47119  1  0  0  0
 48 56  1  0  0  0
 48 65  1  0  0  0
 48120  1  0  0  0
 49 50  1  0  0  0
 49 53  1  0  0  0
 49 64  1  0  0  0
 49121  1  0  0  0
 50 51  1  0  0  0
 50122  1  0  0  0
 50123  1  0  0  0
 51 52  1  0  0  0
 51124  1  0  0  0
 51125  1  0  0  0
 52126  1  0  0  0
 52127  1  0  0  0
 53 54  1  0  0  0
 54 55  2  0  0  0
 54128  1  0  0  0
 55 57  1  0  0  0
 55129  1  0  0  0
 56 69  2  0  0  0
 57 58  2  0  0  0
 57130  1  0  0  0
 58131  1  0  0  0
 59 60  1  0  0  0
 59 61  1  0  0  0
 59 62  1  0  0  0
 60132  1  0  0  0
 60133  1  0  0  0
 60134  1  0  0  0
 61135  1  0  0  0
 61136  1  0  0  0
 61137  1  0  0  0
 62138  1  0  0  0
 62139  1  0  0  0
 62140  1  0  0  0
 63 65  1  0  0  0
 63141  1  0  0  0
 63142  1  0  0  0
 63143  1  0  0  0
 64144  1  0  0  0
 65145  1  0  0  0
 68 82  1  0  0  0
 71 72  2  0  0  0
 71 74  1  0  0  0
 71146  1  0  0  0
 72 75  1  0  0  0
 72147  1  0  0  0
 73 75  2  0  0  0
 73 76  1  0  0  0
 73148  1  0  0  0
 74 76  2  0  0  0
 74 83  1  0  0  0
 75 84  1  0  0  0
 76 86  1  0  0  0
 77 81  1  0  0  0
 77 83  1  0  0  0
 77 85  2  0  0  0
 78 79  1  0  0  0
 78 80  1  0  0  0
 78149  1  0  0  0
 78150  1  0  0  0
 79 81  1  0  0  0
 79151  1  0  0  0
 79152  1  0  0  0
 80 83  1  0  0  0
 80153  1  0  0  0
 80154  1  0  0  0
 81 82  1  0  0  0
 81155  1  0  0  0
 82156  1  0  0  0
 82157  1  0  0  0
 84158  1  0  0  0
M  ISO  4   1 100  68 101  82 101  84 100
M  END
> <chiral flag>
0

> <version>
0

> <s_m_source_file>
/data/baiqing/PycharmProjects/Reinvent-master-3.2/result/LINK_invent/BTK/process_docking_weight1_custom_product_contain_oxygen_bond_distance_aromatic_linkinvent_7_9_3/rearranged_h_0025.sdf

> <i_m_source_file_index>
5

> <r_mmod_Potential_Energy-OPLS-2005>
240.714477539062

> <r_mmod_Stretch_Energy-OPLS-2005>
96.2031555175781

> <r_mmod_Bend_Energy-OPLS-2005>
173.957412719727

> <r_mmod_Torsional_Energy-OPLS-2005>
331.731506347656

> <r_mmod_Improper_Torsional_Energy-OPLS-2005>
5.76158475875854

> <r_mmod_Van_der_Waal_Energy-OPLS-2005>
139.327911376953

> <r_mmod_Electrostatic_Energy-OPLS-2005>
-338.388824462891

> <r_mmod_Solvation_Energy-OPLS-2005>
-219.654388427734

> <b_mmod_Minimization_Converged-OPLS-2005>
0

> <r_mmod_RMS_Derivative-OPLS-2005>
9.48785305023193

$$$$
5
                    3D
 Structure written by MMmdl.
173183  0  0  1  0            999 V2000
  -30.6128  -14.8209   20.4294 C   0  0  0  0  0  0
  -30.4255  -12.5047   19.4790 C   0  0  0  0  0  0
  -29.5091  -12.5079   18.2383 C   0  0  0  0  0  0
  -28.0378  -12.3254   18.6545 C   0  0  0  0  0  0
  -27.6320  -13.2451   19.8383 C   0  0  2  0  0  0
  -28.6785  -13.2401   20.9713 C   0  0  0  0  0  0
  -25.2494  -13.8225   20.5727 C   0  0  0  0  0  0
  -24.1796  -13.0447   20.9209 C   0  0  0  0  0  0
  -24.6400  -11.6930   20.8735 C   0  0  0  0  0  0
  -23.9080  -10.4298   21.0396 C   0  0  0  0  0  0
  -24.3630   -9.4214   21.9174 C   0  0  0  0  0  0
  -23.6304   -8.2249   22.0749 C   0  0  0  0  0  0
  -22.4282   -8.0287   21.3553 C   0  0  0  0  0  0
  -21.9919   -9.0259   20.4653 C   0  0  0  0  0  0
  -22.7249  -10.2136   20.3054 C   0  0  0  0  0  0
  -21.6864   -6.0733   22.5277 C   0  0  0  0  0  0
  -21.4019   -6.5634   23.8209 C   0  0  0  0  0  0
  -21.3664   -5.6788   24.9176 C   0  0  0  0  0  0
  -21.6044   -4.3050   24.7223 C   0  0  0  0  0  0
  -21.8822   -3.8146   23.4343 C   0  0  0  0  0  0
  -21.9199   -4.6963   22.3400 C   0  0  0  0  0  0
  -22.7814  -13.5210   21.1865 C   0  0  0  0  0  0
  -22.1666   -4.2149   21.0976 F   0  0  0  0  0  0
  -21.5634   -3.4529   25.7734 F   0  0  0  0  0  0
  -29.9642  -13.6008   20.3678 N   0  0  0  0  0  0
  -26.2910  -12.9447   20.3264 N   0  0  0  0  0  0
  -25.9333  -11.6574   20.5740 N   0  0  0  0  0  0
  -22.0469  -12.8207   22.0432 N   0  0  0  0  0  0
  -25.4208  -15.1956   20.4194 N   0  0  0  0  0  0
  -31.8253  -14.8454   20.1897 O   0  0  0  0  0  0
  -21.6659   -6.8876   21.4239 O   0  0  0  0  0  0
  -22.3487  -14.5510   20.6713 O   0  0  0  0  0  0
  -24.6355  -31.8504   23.1931 C   0  0  0  0  0  0
  -25.9159  -32.4737   23.8300 C   0  0  1  0  0  0
  -27.2210  -27.2135   20.1456 C   0  0  0  0  0  0
  -25.5935  -33.8540   24.2227 N   0  0  0  0  0  0
  -23.4360  -30.4688   21.5377 C   0  0  2  0  0  0
  -24.8848  -28.9012   20.1165 C   0  0  0  0  0  0
  -22.7522  -29.4572   22.4894 C   0  0  0  0  0  0
  -18.0288  -28.1385   22.8465 C   0  0  0  0  0  0
  -24.1490  -36.7268   23.2642 C   0  0  0  0  0  0
  -25.9849  -30.7476   21.3807 C   0  0  0  0  0  0
  -26.0586  -29.3641   20.7255 C   0  0  0  0  0  0
  -27.2333  -28.5365   20.7192 C   0  0  0  0  0  0
  -26.0240  -26.8233   19.5118 C   0  0  0  0  0  0
  -24.8750  -27.6411   19.4971 C   0  0  0  0  0  0
  -23.6592  -29.7963   20.1569 C   0  0  0  0  0  0
  -25.4121  -36.3062   24.0322 C   0  0  1  0  0  0
  -20.5895  -28.3701   23.1250 C   0  0  2  0  0  0
  -20.6771  -26.9412   22.5404 C   0  0  0  0  0  0
  -19.5759  -26.6375   21.5196 C   0  0  0  0  0  0
  -18.1935  -26.7924   22.1605 C   0  0  0  0  0  0
  -19.1542  -28.8856   23.2853 C   0  0  0  0  0  0
  -18.9468  -30.1447   23.8884 C   0  0  0  0  0  0
  -17.6472  -30.6587   24.0550 C   0  0  0  0  0  0
  -25.9062  -34.9432   23.5087 C   0  0  0  0  0  0
  -16.5359  -29.9081   23.6336 C   0  0  0  0  0  0
  -16.7275  -28.6497   23.0356 C   0  0  0  0  0  0
  -26.4506  -31.6590   25.0723 C   0  0  0  0  0  0
  -25.3714  -31.3758   26.1439 C   0  0  0  0  0  0
  -27.0364  -30.2999   24.6268 C   0  0  0  0  0  0
  -27.6057  -32.4335   25.7499 C   0  0  0  0  0  0
  -27.5586  -37.1782   24.8458 C   0  0  0  0  0  0
  -21.4220  -29.3046   22.3636 N   0  0  0  0  0  0
  -26.4286  -37.3770   23.9423 N   0  0  0  0  0  0
  -24.7046  -31.0415   22.0937 N   0  0  0  0  0  0
  -23.4187  -28.8116   23.3018 O   0  0  0  0  0  0
  -28.3102  -26.3008   20.1424 O   0  0  0  0  0  0
  -26.5639  -34.8910   22.4659 O   0  0  0  0  0  0
  -23.5495  -32.1357   23.7195 O   0  0  0  0  0  0
  -33.4274  -19.8357   19.7857 C   0  0  0  0  0  0
  -32.1544  -19.6045   20.3415 C   0  0  0  0  0  0
  -33.5623  -20.0873   18.4084 C   0  0  0  0  0  0
  -31.1489  -19.8946   18.1490 C   0  0  0  0  0  0
  -30.9905  -19.6252   19.5312 C   0  0  0  0  0  0
  -32.4204  -20.1164   17.5904 C   0  0  0  0  0  0
  -31.1028  -23.1476   20.2103 C   0  0  0  0  0  0
  -30.0891  -23.7840   19.2476 C   0  0  0  0  0  0
  -29.5941  -18.5593   21.4595 C   0  0  0  0  0  0
  -28.9192  -18.1956   19.2647 C   0  0  0  0  0  0
  -30.2947  -17.1016   21.4898 C   0  0  0  0  0  0
  -29.6617  -16.7806   19.2177 C   0  0  0  0  0  0
  -30.2778  -22.3519   21.2309 C   0  0  0  0  0  0
  -28.7007  -23.5089   19.8489 C   0  0  2  0  0  0
  -29.5765  -19.3725   20.0996 C   0  0  0  0  0  0
  -28.1353  -24.8608   20.6216 C   0  0  0  0  0  0
  -28.6724  -20.7832   19.9747 C   0  0  0  0  0  0
  -29.8952  -16.0389   20.4977 N   0  0  0  0  0  0
  -28.9354  -22.1794   20.6444 N   0  3  1  0  0  0
  -32.5434  -20.3570   16.2631 F   0  0  0  0  0  0
  -31.4661  -12.6265   19.1732 H   0  0  0  0  0  0
  -30.3755  -11.5447   19.9951 H   0  0  0  0  0  0
  -29.8030  -11.7170   17.5468 H   0  0  0  0  0  0
  -29.6281  -13.4474   17.6964 H   0  0  0  0  0  0
  -27.9074  -11.2804   18.9381 H   0  0  0  0  0  0
  -27.3798  -12.4943   17.8014 H   0  0  0  0  0  0
  -27.6041  -14.2563   19.4311 H   0  0  0  0  0  0
  -28.7359  -12.2635   21.4533 H   0  0  0  0  0  0
  -28.4062  -13.9591   21.7463 H   0  0  0  0  0  0
  -25.2770   -9.5692   22.4751 H   0  0  0  0  0  0
  -24.0024   -7.4640   22.7456 H   0  0  0  0  0  0
  -21.0858   -8.8768   19.8953 H   0  0  0  0  0  0
  -22.3694  -10.9677   19.6172 H   0  0  0  0  0  0
  -21.2002   -7.6141   23.9707 H   0  0  0  0  0  0
  -21.1491   -6.0524   25.9080 H   0  0  0  0  0  0
  -22.0596   -2.7608   23.2848 H   0  0  0  0  0  0
  -22.4098  -11.9890   22.4847 H   0  0  0  0  0  0
  -21.1078  -13.1223   22.2599 H   0  0  0  0  0  0
  -24.6617  -15.8555   20.5476 H   0  0  0  0  0  0
  -26.2871  -15.6384   20.1396 H   0  0  0  0  0  0
  -26.7218  -32.5365   23.1025 H   0  0  0  0  0  0
  -25.0070  -33.9667   25.0366 H   0  0  0  0  0  0
  -22.7369  -31.2928   21.3848 H   0  0  0  0  0  0
  -23.3778  -35.9573   23.3272 H   0  0  0  0  0  0
  -24.3589  -36.8936   22.2066 H   0  0  0  0  0  0
  -23.7201  -37.6437   23.6693 H   0  0  0  0  0  0
  -26.1333  -31.5049   20.6093 H   0  0  0  0  0  0
  -26.8571  -30.7948   22.0212 H   0  0  0  0  0  0
  -28.1352  -28.8924   21.1973 H   0  0  0  0  0  0
  -25.9670  -25.8578   19.0287 H   0  0  0  0  0  0
  -23.9766  -27.2838   19.0135 H   0  0  0  0  0  0
  -23.7913  -30.5697   19.3993 H   0  0  0  0  0  0
  -22.7768  -29.2330   19.8487 H   0  0  0  0  0  0
  -25.1304  -36.1902   25.0810 H   0  0  0  0  0  0
  -20.9965  -28.3273   24.1379 H   0  0  0  0  0  0
  -20.5639  -26.2310   23.3612 H   0  0  0  0  0  0
  -21.6642  -26.7413   22.1219 H   0  0  0  0  0  0
  -19.6922  -25.6276   21.1246 H   0  0  0  0  0  0
  -19.6710  -27.3165   20.6708 H   0  0  0  0  0  0
  -17.4202  -26.6648   21.4016 H   0  0  0  0  0  0
  -18.0354  -26.0069   22.9008 H   0  0  0  0  0  0
  -19.7947  -30.7251   24.2267 H   0  0  0  0  0  0
  -17.5036  -31.6275   24.5139 H   0  0  0  0  0  0
  -15.5362  -30.2986   23.7678 H   0  0  0  0  0  0
  -15.8666  -28.0812   22.7102 H   0  0  0  0  0  0
  -24.5866  -30.7145   25.7757 H   0  0  0  0  0  0
  -24.8932  -32.2932   26.4879 H   0  0  0  0  0  0
  -25.8004  -30.8907   27.0216 H   0  0  0  0  0  0
  -26.2964  -29.6733   24.1279 H   0  0  0  0  0  0
  -27.4004  -29.7298   25.4827 H   0  0  0  0  0  0
  -27.8862  -30.4275   23.9560 H   0  0  0  0  0  0
  -27.2680  -33.3659   26.2040 H   0  0  0  0  0  0
  -28.3881  -32.6858   25.0327 H   0  0  0  0  0  0
  -28.0708  -31.8480   26.5445 H   0  0  0  0  0  0
  -28.2569  -38.0114   24.7559 H   0  0  0  0  0  0
  -28.1111  -36.2645   24.6212 H   0  0  0  0  0  0
  -27.2310  -37.1341   25.8860 H   0  0  0  0  0  0
  -20.9415  -29.8782   21.6845 H   0  0  0  0  0  0
  -26.0165  -38.2836   24.1459 H   0  0  0  0  0  0
  -34.3046  -19.8208   20.4179 H   0  0  0  0  0  0
  -32.0958  -19.4228   21.4041 H   0  0  0  0  0  0
  -34.5382  -20.2609   17.9789 H   0  0  0  0  0  0
  -30.2949  -19.9288   17.4895 H   0  0  0  0  0  0
  -31.7128  -23.8989   20.7128 H   0  0  0  0  0  0
  -31.7826  -22.4955   19.6624 H   0  0  0  0  0  0
  -30.1652  -23.2948   18.2746 H   0  0  0  0  0  0
  -30.2814  -24.8453   19.0848 H   0  0  0  0  0  0
  -30.0445  -19.1762   22.2370 H   0  0  0  0  0  0
  -28.5635  -18.4333   21.7937 H   0  0  0  0  0  0
  -27.9013  -18.0307   19.6231 H   0  0  0  0  0  0
  -28.7718  -18.5229   18.2365 H   0  0  0  0  0  0
  -30.1435  -16.6791   22.4836 H   0  0  0  0  0  0
  -31.3741  -17.2324   21.4059 H   0  0  0  0  0  0
  -30.6277  -16.9135   18.7264 H   0  0  0  0  0  0
  -29.0946  -16.1211   18.5591 H   0  0  0  0  0  0
  -30.1611  -22.9630   22.1268 H   0  0  0  0  0  0
  -30.7458  -21.4333   21.5714 H   0  0  0  0  0  0
  -27.9970  -23.3105   19.0398 H   0  0  0  0  0  0
  -28.6005  -24.8702   21.6069 H   0  0  0  0  0  0
  -27.0796  -24.6915   20.8365 H   0  0  0  0  0  0
  -27.6453  -20.5312   20.2394 H   0  0  0  0  0  0
  -28.6156  -21.0031   18.9093 H   0  0  0  0  0  0
  -28.2939  -22.1780   21.4257 H   0  0  0  0  0  0
  1 25  1  0  0  0
  1 30  2  0  0  0
  1 88  1  0  0  0
  2  3  1  0  0  0
  2 25  1  0  0  0
  2 91  1  0  0  0
  2 92  1  0  0  0
  3  4  1  0  0  0
  3 93  1  0  0  0
  3 94  1  0  0  0
  4  5  1  0  0  0
  4 95  1  0  0  0
  4 96  1  0  0  0
  5  6  1  0  0  0
  5 26  1  0  0  0
  5 97  1  0  0  0
  6 25  1  0  0  0
  6 98  1  0  0  0
  6 99  1  0  0  0
  7  8  2  0  0  0
  7 26  1  0  0  0
  7 29  1  0  0  0
  8  9  1  0  0  0
  8 22  1  0  0  0
  9 10  1  0  0  0
  9 27  2  0  0  0
 10 11  2  0  0  0
 10 15  1  0  0  0
 11 12  1  0  0  0
 11100  1  0  0  0
 12 13  2  0  0  0
 12101  1  0  0  0
 13 14  1  0  0  0
 13 31  1  0  0  0
 14 15  2  0  0  0
 14102  1  0  0  0
 15103  1  0  0  0
 16 17  2  0  0  0
 16 21  1  0  0  0
 16 31  1  0  0  0
 17 18  1  0  0  0
 17104  1  0  0  0
 18 19  2  0  0  0
 18105  1  0  0  0
 19 20  1  0  0  0
 19 24  1  0  0  0
 20 21  2  0  0  0
 20106  1  0  0  0
 21 23  1  0  0  0
 22 28  1  0  0  0
 22 32  2  0  0  0
 26 27  1  0  0  0
 28107  1  0  0  0
 28108  1  0  0  0
 29109  1  0  0  0
 29110  1  0  0  0
 33 34  1  0  0  0
 33 66  1  0  0  0
 33 70  2  0  0  0
 34 36  1  0  0  0
 34 59  1  0  0  0
 34111  1  0  0  0
 35 44  2  0  0  0
 35 45  1  0  0  0
 35 68  1  0  0  0
 36 56  1  0  0  0
 36112  1  0  0  0
 37 39  1  0  0  0
 37 47  1  0  0  0
 37 66  1  0  0  0
 37113  1  0  0  0
 38 43  2  0  0  0
 38 46  1  0  0  0
 38 47  1  0  0  0
 39 64  1  0  0  0
 39 67  2  0  0  0
 40 52  1  0  0  0
 40 53  2  0  0  0
 40 58  1  0  0  0
 41114  1  0  0  0
 41115  1  0  0  0
 41116  1  0  0  0
 41 48  1  0  0  0
 42 43  1  0  0  0
 42 66  1  0  0  0
 42117  1  0  0  0
 42118  1  0  0  0
 43 44  1  0  0  0
 44119  1  0  0  0
 45 46  2  0  0  0
 45120  1  0  0  0
 46121  1  0  0  0
 47122  1  0  0  0
 47123  1  0  0  0
 48 56  1  0  0  0
 48 65  1  0  0  0
 48124  1  0  0  0
 49 50  1  0  0  0
 49 53  1  0  0  0
 49 64  1  0  0  0
 49125  1  0  0  0
 50 51  1  0  0  0
 50126  1  0  0  0
 50127  1  0  0  0
 51 52  1  0  0  0
 51128  1  0  0  0
 51129  1  0  0  0
 52130  1  0  0  0
 52131  1  0  0  0
 53 54  1  0  0  0
 54 55  2  0  0  0
 54132  1  0  0  0
 55 57  1  0  0  0
 55133  1  0  0  0
 56 69  2  0  0  0
 57 58  2  0  0  0
 57134  1  0  0  0
 58135  1  0  0  0
 59 60  1  0  0  0
 59 61  1  0  0  0
 59 62  1  0  0  0
 60136  1  0  0  0
 60137  1  0  0  0
 60138  1  0  0  0
 61139  1  0  0  0
 61140  1  0  0  0
 61141  1  0  0  0
 62142  1  0  0  0
 62143  1  0  0  0
 62144  1  0  0  0
 63 65  1  0  0  0
 63145  1  0  0  0
 63146  1  0  0  0
 63147  1  0  0  0
 64148  1  0  0  0
 65149  1  0  0  0
 68 86  1  0  0  0
 71 72  2  0  0  0
 71 73  1  0  0  0
 71150  1  0  0  0
 72 75  1  0  0  0
 72151  1  0  0  0
 73 76  2  0  0  0
 73152  1  0  0  0
 74 75  2  0  0  0
 74 76  1  0  0  0
 74153  1  0  0  0
 75 85  1  0  0  0
 76 90  1  0  0  0
 77 78  1  0  0  0
 77 83  1  0  0  0
 77154  1  0  0  0
 77155  1  0  0  0
 78 84  1  0  0  0
 78156  1  0  0  0
 78157  1  0  0  0
 79 81  1  0  0  0
 79 85  1  0  0  0
 79158  1  0  0  0
 79159  1  0  0  0
 80 82  1  0  0  0
 80 85  1  0  0  0
 80160  1  0  0  0
 80161  1  0  0  0
 81 88  1  0  0  0
 81162  1  0  0  0
 81163  1  0  0  0
 82 88  1  0  0  0
 82164  1  0  0  0
 82165  1  0  0  0
 83 89  1  0  0  0
 83166  1  0  0  0
 83167  1  0  0  0
 84 86  1  0  0  0
 84 89  1  0  0  0
 84168  1  0  0  0
 85 87  1  0  0  0
 86169  1  0  0  0
 86170  1  0  0  0
 87171  1  0  0  0
 87172  1  0  0  0
 87 89  1  0  0  0
 89173  1  0  0  0
M  CHG  1  89   1
M  ISO  4   1 100  68 101  86 101  88 100
M  END
> <chiral flag>
0

> <version>
0

> <s_m_source_file>
/data/baiqing/PycharmProjects/Reinvent-master-3.2/result/LINK_invent/BTK/process_docking_weight1_custom_product_contain_oxygen_bond_distance_aromatic_linkinvent_7_9_3/rearranged_h_0025.sdf

> <i_m_source_file_index>
6

> <r_mmod_Potential_Energy-OPLS-2005>
630.003967285156

> <r_mmod_Stretch_Energy-OPLS-2005>
185.462890625

> <r_mmod_Bend_Energy-OPLS-2005>
285.42919921875

> <r_mmod_Torsional_Energy-OPLS-2005>
454.551330566406

> <r_mmod_Improper_Torsional_Energy-OPLS-2005>
10.4923315048218

> <r_mmod_Van_der_Waal_Energy-OPLS-2005>
130.697555541992

> <r_mmod_Electrostatic_Energy-OPLS-2005>
-135.922088623047

> <r_mmod_Solvation_Energy-OPLS-2005>
-420.417083740234

> <b_mmod_Minimization_Converged-OPLS-2005>
0

> <r_mmod_RMS_Derivative-OPLS-2005>
1.60934519767761

$$$$
6
                    3D
 Structure written by MMmdl.
150159  0  0  1  0            999 V2000
  -30.4784  -15.0227   20.4058 C   0  0  0  0  0  0
  -30.4524  -12.6363   19.4974 C   0  0  0  0  0  0
  -29.5281  -12.5417   18.2587 C   0  0  0  0  0  0
  -28.0624  -12.3140   18.6779 C   0  0  0  0  0  0
  -27.6285  -13.2493   19.8360 C   0  0  2  0  0  0
  -28.6726  -13.2871   20.9718 C   0  0  0  0  0  0
  -25.2460  -13.8218   20.5706 C   0  0  0  0  0  0
  -24.1784  -13.0434   20.9227 C   0  0  0  0  0  0
  -24.6405  -11.6920   20.8751 C   0  0  0  0  0  0
  -23.9087  -10.4291   21.0407 C   0  0  0  0  0  0
  -24.3634   -9.4203   21.9185 C   0  0  0  0  0  0
  -23.6299   -8.2242   22.0755 C   0  0  0  0  0  0
  -22.4281   -8.0287   21.3545 C   0  0  0  0  0  0
  -21.9922   -9.0262   20.4647 C   0  0  0  0  0  0
  -22.7256  -10.2137   20.3054 C   0  0  0  0  0  0
  -21.6856   -6.0737   22.5278 C   0  0  0  0  0  0
  -21.4017   -6.5641   23.8211 C   0  0  0  0  0  0
  -21.3658   -5.6792   24.9173 C   0  0  0  0  0  0
  -21.6045   -4.3056   24.7223 C   0  0  0  0  0  0
  -21.8819   -3.8146   23.4344 C   0  0  0  0  0  0
  -21.9194   -4.6964   22.3401 C   0  0  0  0  0  0
  -22.7802  -13.5201   21.1885 C   0  0  0  0  0  0
  -22.1662   -4.2149   21.0978 F   0  0  0  0  0  0
  -21.5625   -3.4538   25.7734 F   0  0  0  0  0  0
  -29.9385  -13.7313   20.3718 N   0  0  0  0  0  0
  -26.2885  -12.9447   20.3227 N   0  0  0  0  0  0
  -25.9337  -11.6575   20.5730 N   0  0  0  0  0  0
  -22.0458  -12.8187   22.0443 N   0  0  0  0  0  0
  -25.4064  -15.1957   20.4144 N   0  0  0  0  0  0
  -31.6868  -15.1279   20.1622 O   0  0  0  0  0  0
  -21.6643   -6.8884   21.4241 O   0  0  0  0  0  0
  -22.3477  -14.5501   20.6730 O   0  0  0  0  0  0
  -24.6476  -31.8382   23.1813 C   0  0  0  0  0  0
  -25.9224  -32.4662   23.8230 C   0  0  1  0  0  0
  -27.2245  -27.0865   20.1692 C   0  0  0  0  0  0
  -25.5949  -33.8470   24.2147 N   0  0  0  0  0  0
  -23.4545  -30.4531   21.5277 C   0  0  2  0  0  0
  -24.9057  -28.8619   20.1161 C   0  0  0  0  0  0
  -22.7588  -29.4515   22.4837 C   0  0  0  0  0  0
  -18.0308  -28.1396   22.8474 C   0  0  0  0  0  0
  -24.1491  -36.7244   23.2645 C   0  0  0  0  0  0
  -26.0126  -30.6976   21.3849 C   0  0  0  0  0  0
  -26.0849  -29.3012   20.7316 C   0  0  0  0  0  0
  -27.2459  -28.4331   20.7312 C   0  0  0  0  0  0
  -26.0161  -26.7489   19.5258 C   0  0  0  0  0  0
  -24.8866  -27.6012   19.4961 C   0  0  0  0  0  0
  -23.6849  -29.7722   20.1513 C   0  0  0  0  0  0
  -25.4126  -36.3012   24.0310 C   0  0  1  0  0  0
  -20.5923  -28.3728   23.1225 C   0  0  2  0  0  0
  -20.6788  -26.9424   22.5405 C   0  0  0  0  0  0
  -19.5763  -26.6377   21.5213 C   0  0  0  0  0  0
  -18.1945  -26.7932   22.1625 C   0  0  0  0  0  0
  -19.1565  -28.8880   23.2840 C   0  0  0  0  0  0
  -18.9482  -30.1475   23.8869 C   0  0  0  0  0  0
  -17.6478  -30.6591   24.0560 C   0  0  0  0  0  0
  -25.9079  -34.9389   23.5044 C   0  0  0  0  0  0
  -16.5369  -29.9084   23.6336 C   0  0  0  0  0  0
  -16.7293  -28.6503   23.0356 C   0  0  0  0  0  0
  -26.4530  -31.6551   25.0696 C   0  0  0  0  0  0
  -25.3702  -31.3761   26.1384 C   0  0  0  0  0  0
  -27.0403  -30.2939   24.6312 C   0  0  0  0  0  0
  -27.6043  -32.4333   25.7491 C   0  0  0  0  0  0
  -27.5574  -37.1778   24.8465 C   0  0  0  0  0  0
  -21.4275  -29.3044   22.3588 N   0  0  0  0  0  0
  -26.4284  -37.3731   23.9407 N   0  0  0  0  0  0
  -24.7250  -31.0192   22.0865 N   0  0  0  0  0  0
  -23.4206  -28.8077   23.3018 O   0  0  0  0  0  0
  -28.2907  -26.1021   20.1914 O   0  0  0  0  0  0
  -26.5679  -34.8902   22.4633 O   0  0  0  0  0  0
  -23.5583  -32.1273   23.7008 O   0  0  0  0  0  0
  -28.0984  -19.8053   20.0022 C   0  0  0  0  0  0
  -30.5028  -18.7222   20.7510 C   0  0  0  0  0  0
  -29.0095  -20.8605   20.3816 C   0  0  0  0  0  0
  -29.5425  -17.7026   20.4077 C   0  0  0  0  0  0
  -28.3224  -18.3610   20.0275 C   0  0  0  0  0  0
  -30.2485  -20.1764   20.7478 C   0  0  0  0  0  0
  -27.9164  -23.3023   19.4951 C   0  0  0  0  0  0
  -29.3009  -23.5941   20.9965 C   0  0  0  0  0  0
  -28.1053  -24.5584   20.4947 C   0  0  0  0  0  0
  -28.6073  -22.3779   20.4620 N   0  0  0  0  0  0
  -29.5927  -16.1457   20.4979 N   0  0  0  0  0  0
  -27.2850  -17.5597   19.6830 F   0  0  0  0  0  0
  -31.5667  -21.1671   21.2627 Cl  0  0  0  0  0  0
  -31.4789  -12.8264   19.1803 H   0  0  0  0  0  0
  -30.4764  -11.6890   20.0388 H   0  0  0  0  0  0
  -29.8577  -11.7377   17.5994 H   0  0  0  0  0  0
  -29.6023  -13.4631   17.6787 H   0  0  0  0  0  0
  -27.9687  -11.2740   18.9928 H   0  0  0  0  0  0
  -27.3983  -12.4340   17.8210 H   0  0  0  0  0  0
  -27.5833  -14.2476   19.4003 H   0  0  0  0  0  0
  -28.7783  -12.3086   21.4423 H   0  0  0  0  0  0
  -28.3606  -13.9754   21.7592 H   0  0  0  0  0  0
  -25.2780   -9.5675   22.4760 H   0  0  0  0  0  0
  -24.0004   -7.4634   22.7477 H   0  0  0  0  0  0
  -21.0849   -8.8788   19.8955 H   0  0  0  0  0  0
  -22.3718  -10.9682   19.6164 H   0  0  0  0  0  0
  -21.2013   -7.6150   23.9715 H   0  0  0  0  0  0
  -21.1478   -6.0522   25.9076 H   0  0  0  0  0  0
  -22.0598   -2.7607   23.2845 H   0  0  0  0  0  0
  -22.4092  -11.9858   22.4836 H   0  0  0  0  0  0
  -21.1076  -13.1207   22.2656 H   0  0  0  0  0  0
  -24.6254  -15.8314   20.5303 H   0  0  0  0  0  0
  -26.2294  -15.6616   20.0526 H   0  0  0  0  0  0
  -26.7292  -32.5255   23.0958 H   0  0  0  0  0  0
  -25.0056  -33.9568   25.0269 H   0  0  0  0  0  0
  -22.7598  -31.2799   21.3660 H   0  0  0  0  0  0
  -23.3754  -35.9575   23.3291 H   0  0  0  0  0  0
  -24.3573  -36.8897   22.2062 H   0  0  0  0  0  0
  -23.7247  -37.6434   23.6699 H   0  0  0  0  0  0
  -26.1710  -31.4470   20.6081 H   0  0  0  0  0  0
  -26.8815  -30.7528   22.0292 H   0  0  0  0  0  0
  -28.1494  -28.7710   21.2194 H   0  0  0  0  0  0
  -25.9316  -25.7807   19.0534 H   0  0  0  0  0  0
  -23.9861  -27.2586   19.0050 H   0  0  0  0  0  0
  -23.8280  -30.5420   19.3921 H   0  0  0  0  0  0
  -22.7983  -29.2169   19.8397 H   0  0  0  0  0  0
  -25.1317  -36.1829   25.0802 H   0  0  0  0  0  0
  -21.0016  -28.3324   24.1346 H   0  0  0  0  0  0
  -20.5673  -26.2343   23.3631 H   0  0  0  0  0  0
  -21.6655  -26.7415   22.1212 H   0  0  0  0  0  0
  -19.6924  -25.6280   21.1260 H   0  0  0  0  0  0
  -19.6701  -27.3172   20.6731 H   0  0  0  0  0  0
  -17.4212  -26.6673   21.4031 H   0  0  0  0  0  0
  -18.0349  -26.0082   22.9031 H   0  0  0  0  0  0
  -19.7958  -30.7298   24.2227 H   0  0  0  0  0  0
  -17.5031  -31.6267   24.5168 H   0  0  0  0  0  0
  -15.5369  -30.2979   23.7672 H   0  0  0  0  0  0
  -15.8694  -28.0813   22.7086 H   0  0  0  0  0  0
  -24.5879  -30.7114   25.7703 H   0  0  0  0  0  0
  -24.8899  -32.2953   26.4746 H   0  0  0  0  0  0
  -25.7972  -30.8970   27.0204 H   0  0  0  0  0  0
  -26.3032  -29.6648   24.1310 H   0  0  0  0  0  0
  -27.3986  -29.7256   25.4906 H   0  0  0  0  0  0
  -27.8948  -30.4159   23.9654 H   0  0  0  0  0  0
  -27.2615  -33.3649   26.2005 H   0  0  0  0  0  0
  -28.3890  -32.6870   25.0352 H   0  0  0  0  0  0
  -28.0673  -31.8505   26.5465 H   0  0  0  0  0  0
  -28.2580  -38.0085   24.7506 H   0  0  0  0  0  0
  -28.1080  -36.2612   24.6295 H   0  0  0  0  0  0
  -27.2291  -37.1426   25.8868 H   0  0  0  0  0  0
  -20.9494  -29.8746   21.6752 H   0  0  0  0  0  0
  -26.0143  -38.2795   24.1412 H   0  0  0  0  0  0
  -27.1079  -20.1164   19.7078 H   0  0  0  0  0  0
  -31.4781  -18.3929   21.0765 H   0  0  0  0  0  0
  -28.4684  -23.4063   18.5592 H   0  0  0  0  0  0
  -26.8727  -23.0458   19.3109 H   0  0  0  0  0  0
  -29.4300  -23.5870   22.0795 H   0  0  0  0  0  0
  -30.2486  -23.7836   20.4890 H   0  0  0  0  0  0
  -27.3072  -24.5089   21.2376 H   0  0  0  0  0  0
  -28.6529  -15.7858   20.5571 H   0  0  0  0  0  0
  1 25  1  0  0  0
  1 30  2  0  0  0
  1 81  1  0  0  0
  2  3  1  0  0  0
  2 25  1  0  0  0
  2 84  1  0  0  0
  2 85  1  0  0  0
  3  4  1  0  0  0
  3 86  1  0  0  0
  3 87  1  0  0  0
  4  5  1  0  0  0
  4 88  1  0  0  0
  4 89  1  0  0  0
  5  6  1  0  0  0
  5 26  1  0  0  0
  5 90  1  0  0  0
  6 25  1  0  0  0
  6 91  1  0  0  0
  6 92  1  0  0  0
  7  8  2  0  0  0
  7 26  1  0  0  0
  7 29  1  0  0  0
  8  9  1  0  0  0
  8 22  1  0  0  0
  9 10  1  0  0  0
  9 27  2  0  0  0
 10 11  2  0  0  0
 10 15  1  0  0  0
 11 12  1  0  0  0
 11 93  1  0  0  0
 12 13  2  0  0  0
 12 94  1  0  0  0
 13 14  1  0  0  0
 13 31  1  0  0  0
 14 15  2  0  0  0
 14 95  1  0  0  0
 15 96  1  0  0  0
 16 17  2  0  0  0
 16 21  1  0  0  0
 16 31  1  0  0  0
 17 18  1  0  0  0
 17 97  1  0  0  0
 18 19  2  0  0  0
 18 98  1  0  0  0
 19 20  1  0  0  0
 19 24  1  0  0  0
 20 21  2  0  0  0
 20 99  1  0  0  0
 21 23  1  0  0  0
 22 28  1  0  0  0
 22 32  2  0  0  0
 26 27  1  0  0  0
 28100  1  0  0  0
 28101  1  0  0  0
 29102  1  0  0  0
 29103  1  0  0  0
 33 34  1  0  0  0
 33 66  1  0  0  0
 33 70  2  0  0  0
 34 36  1  0  0  0
 34 59  1  0  0  0
 34104  1  0  0  0
 35 44  2  0  0  0
 35 45  1  0  0  0
 35 68  1  0  0  0
 36 56  1  0  0  0
 36105  1  0  0  0
 37 39  1  0  0  0
 37 47  1  0  0  0
 37 66  1  0  0  0
 37106  1  0  0  0
 38 43  2  0  0  0
 38 46  1  0  0  0
 38 47  1  0  0  0
 39 64  1  0  0  0
 39 67  2  0  0  0
 40 52  1  0  0  0
 40 53  2  0  0  0
 40 58  1  0  0  0
 41107  1  0  0  0
 41108  1  0  0  0
 41109  1  0  0  0
 41 48  1  0  0  0
 42 43  1  0  0  0
 42 66  1  0  0  0
 42110  1  0  0  0
 42111  1  0  0  0
 43 44  1  0  0  0
 44112  1  0  0  0
 45 46  2  0  0  0
 45113  1  0  0  0
 46114  1  0  0  0
 47115  1  0  0  0
 47116  1  0  0  0
 48 56  1  0  0  0
 48 65  1  0  0  0
 48117  1  0  0  0
 49 50  1  0  0  0
 49 53  1  0  0  0
 49 64  1  0  0  0
 49118  1  0  0  0
 50 51  1  0  0  0
 50119  1  0  0  0
 50120  1  0  0  0
 51 52  1  0  0  0
 51121  1  0  0  0
 51122  1  0  0  0
 52123  1  0  0  0
 52124  1  0  0  0
 53 54  1  0  0  0
 54 55  2  0  0  0
 54125  1  0  0  0
 55 57  1  0  0  0
 55126  1  0  0  0
 56 69  2  0  0  0
 57 58  2  0  0  0
 57127  1  0  0  0
 58128  1  0  0  0
 59 60  1  0  0  0
 59 61  1  0  0  0
 59 62  1  0  0  0
 60129  1  0  0  0
 60130  1  0  0  0
 60131  1  0  0  0
 61132  1  0  0  0
 61133  1  0  0  0
 61134  1  0  0  0
 62135  1  0  0  0
 62136  1  0  0  0
 62137  1  0  0  0
 63 65  1  0  0  0
 63138  1  0  0  0
 63139  1  0  0  0
 63140  1  0  0  0
 64141  1  0  0  0
 65142  1  0  0  0
 68 79  1  0  0  0
 71 73  2  0  0  0
 71 75  1  0  0  0
 71143  1  0  0  0
 72 74  1  0  0  0
 72 76  2  0  0  0
 72144  1  0  0  0
 73 76  1  0  0  0
 73 80  1  0  0  0
 74 75  2  0  0  0
 74 81  1  0  0  0
 75 82  1  0  0  0
 76 83  1  0  0  0
 77 79  1  0  0  0
 77 80  1  0  0  0
 77145  1  0  0  0
 77146  1  0  0  0
 78 79  1  0  0  0
 78 80  1  0  0  0
 78147  1  0  0  0
 78148  1  0  0  0
 79149  1  0  0  0
 81150  1  0  0  0
M  ISO  4   1 100  68 101  79 101  81 100
M  END
> <chiral flag>
0

> <version>
0

> <s_m_source_file>
/data/baiqing/PycharmProjects/Reinvent-master-3.2/result/LINK_invent/BTK/process_docking_weight1_custom_product_contain_oxygen_bond_distance_aromatic_linkinvent_7_9_3/rearranged_h_0025.sdf

> <i_m_source_file_index>
7

> <r_mmod_Potential_Energy-OPLS-2005>
689.6591796875

> <r_mmod_Stretch_Energy-OPLS-2005>
271.165008544922

> <r_mmod_Bend_Energy-OPLS-2005>
391.371856689453

> <r_mmod_Torsional_Energy-OPLS-2005>
248.611587524414

> <r_mmod_Improper_Torsional_Energy-OPLS-2005>
9.29317378997803

> <r_mmod_Van_der_Waal_Energy-OPLS-2005>
123.573120117188

> <r_mmod_Electrostatic_Energy-OPLS-2005>
-375.927764892578

> <r_mmod_Solvation_Energy-OPLS-2005>
-220.586441040039

> <b_mmod_Minimization_Converged-OPLS-2005>
0

> <r_mmod_RMS_Derivative-OPLS-2005>
0.563285112380981

$$$$
7
                    3D
 Structure written by MMmdl.
150159  0  0  1  0            999 V2000
  -30.4764  -15.0220   20.4060 C   0  0  0  0  0  0
  -30.4531  -12.6356   19.4977 C   0  0  0  0  0  0
  -29.5286  -12.5409   18.2592 C   0  0  0  0  0  0
  -28.0632  -12.3120   18.6787 C   0  0  0  0  0  0
  -27.6288  -13.2484   19.8356 C   0  0  2  0  0  0
  -28.6723  -13.2856   20.9722 C   0  0  0  0  0  0
  -25.2462  -13.8214   20.5704 C   0  0  0  0  0  0
  -24.1785  -13.0434   20.9231 C   0  0  0  0  0  0
  -24.6403  -11.6920   20.8752 C   0  0  0  0  0  0
  -23.9085  -10.4291   21.0406 C   0  0  0  0  0  0
  -24.3630   -9.4205   21.9185 C   0  0  0  0  0  0
  -23.6299   -8.2244   22.0755 C   0  0  0  0  0  0
  -22.4281   -8.0284   21.3545 C   0  0  0  0  0  0
  -21.9920   -9.0259   20.4648 C   0  0  0  0  0  0
  -22.7256  -10.2135   20.3057 C   0  0  0  0  0  0
  -21.6855   -6.0738   22.5279 C   0  0  0  0  0  0
  -21.4016   -6.5640   23.8212 C   0  0  0  0  0  0
  -21.3659   -5.6792   24.9174 C   0  0  0  0  0  0
  -21.6044   -4.3055   24.7224 C   0  0  0  0  0  0
  -21.8819   -3.8148   23.4345 C   0  0  0  0  0  0
  -21.9193   -4.6965   22.3401 C   0  0  0  0  0  0
  -22.7804  -13.5204   21.1886 C   0  0  0  0  0  0
  -22.1662   -4.2151   21.0979 F   0  0  0  0  0  0
  -21.5627   -3.4538   25.7737 F   0  0  0  0  0  0
  -29.9390  -13.7297   20.3731 N   0  0  0  0  0  0
  -26.2885  -12.9443   20.3222 N   0  0  0  0  0  0
  -25.9334  -11.6573   20.5724 N   0  0  0  0  0  0
  -22.0457  -12.8192   22.0443 N   0  0  0  0  0  0
  -25.4070  -15.1951   20.4132 N   0  0  0  0  0  0
  -31.6846  -15.1291   20.1616 O   0  0  0  0  0  0
  -21.6642   -6.8883   21.4242 O   0  0  0  0  0  0
  -22.3480  -14.5504   20.6728 O   0  0  0  0  0  0
  -24.6479  -31.8382   23.1818 C   0  0  0  0  0  0
  -25.9226  -32.4665   23.8232 C   0  0  1  0  0  0
  -27.2239  -27.0869   20.1687 C   0  0  0  0  0  0
  -25.5952  -33.8473   24.2149 N   0  0  0  0  0  0
  -23.4546  -30.4531   21.5286 C   0  0  2  0  0  0
  -24.9056  -28.8624   20.1159 C   0  0  0  0  0  0
  -22.7589  -29.4514   22.4847 C   0  0  0  0  0  0
  -18.0308  -28.1399   22.8477 C   0  0  0  0  0  0
  -24.1491  -36.7243   23.2645 C   0  0  0  0  0  0
  -26.0125  -30.6976   21.3851 C   0  0  0  0  0  0
  -26.0848  -29.3015   20.7314 C   0  0  0  0  0  0
  -27.2457  -28.4331   20.7311 C   0  0  0  0  0  0
  -26.0157  -26.7495   19.5252 C   0  0  0  0  0  0
  -24.8863  -27.6018   19.4956 C   0  0  0  0  0  0
  -23.6847  -29.7723   20.1521 C   0  0  0  0  0  0
  -25.4127  -36.3014   24.0311 C   0  0  1  0  0  0
  -20.5922  -28.3728   23.1229 C   0  0  2  0  0  0
  -20.6790  -26.9426   22.5407 C   0  0  0  0  0  0
  -19.5764  -26.6381   21.5215 C   0  0  0  0  0  0
  -18.1946  -26.7937   22.1625 C   0  0  0  0  0  0
  -19.1565  -28.8883   23.2843 C   0  0  0  0  0  0
  -18.9480  -30.1477   23.8871 C   0  0  0  0  0  0
  -17.6475  -30.6594   24.0558 C   0  0  0  0  0  0
  -25.9080  -34.9392   23.5045 C   0  0  0  0  0  0
  -16.5367  -29.9086   23.6338 C   0  0  0  0  0  0
  -16.7292  -28.6504   23.0359 C   0  0  0  0  0  0
  -26.4532  -31.6555   25.0697 C   0  0  0  0  0  0
  -25.3702  -31.3757   26.1382 C   0  0  0  0  0  0
  -27.0410  -30.2947   24.6311 C   0  0  0  0  0  0
  -27.6048  -32.4335   25.7492 C   0  0  0  0  0  0
  -27.5573  -37.1778   24.8466 C   0  0  0  0  0  0
  -21.4276  -29.3043   22.3596 N   0  0  0  0  0  0
  -26.4285  -37.3734   23.9407 N   0  0  0  0  0  0
  -24.7252  -31.0192   22.0870 N   0  0  0  0  0  0
  -23.4207  -28.8078   23.3028 O   0  0  0  0  0  0
  -28.2888  -26.1011   20.1929 O   0  0  0  0  0  0
  -26.5677  -34.8901   22.4632 O   0  0  0  0  0  0
  -23.5586  -32.1278   23.7010 O   0  0  0  0  0  0
  -30.1709  -20.1747   20.7610 C   0  0  0  0  0  0
  -30.4572  -18.7286   20.7809 C   0  0  0  0  0  0
  -28.9475  -20.8470   20.3484 C   0  0  0  0  0  0
  -29.5257  -17.6974   20.3971 C   0  0  0  0  0  0
  -28.3117  -18.3375   19.9676 C   0  0  0  0  0  0
  -28.0531  -19.7811   19.9308 C   0  0  0  0  0  0
  -27.9017  -23.3167   19.4686 C   0  0  0  0  0  0
  -29.2757  -23.5717   20.9908 C   0  0  0  0  0  0
  -28.0958  -24.5561   20.4842 C   0  0  0  0  0  0
  -28.5755  -22.3725   20.4297 N   0  0  0  0  0  0
  -29.5874  -16.1415   20.5013 N   0  0  0  0  0  0
  -27.3107  -17.5039   19.5845 F   0  0  0  0  0  0
  -26.4788  -20.2522   19.3870 Cl  0  0  0  0  0  0
  -31.4797  -12.8260   19.1805 H   0  0  0  0  0  0
  -30.4778  -11.6884   20.0387 H   0  0  0  0  0  0
  -29.8595  -11.7382   17.5990 H   0  0  0  0  0  0
  -29.6013  -13.4627   17.6800 H   0  0  0  0  0  0
  -27.9710  -11.2723   18.9952 H   0  0  0  0  0  0
  -27.3987  -12.4294   17.8220 H   0  0  0  0  0  0
  -27.5844  -14.2465   19.3990 H   0  0  0  0  0  0
  -28.7779  -12.3071   21.4429 H   0  0  0  0  0  0
  -28.3596  -13.9735   21.7596 H   0  0  0  0  0  0
  -25.2774   -9.5680   22.4762 H   0  0  0  0  0  0
  -24.0005   -7.4635   22.7476 H   0  0  0  0  0  0
  -21.0852   -8.8783   19.8953 H   0  0  0  0  0  0
  -22.3717  -10.9676   19.6168 H   0  0  0  0  0  0
  -21.2010   -7.6149   23.9716 H   0  0  0  0  0  0
  -21.1480   -6.0522   25.9076 H   0  0  0  0  0  0
  -22.0598   -2.7611   23.2844 H   0  0  0  0  0  0
  -22.4085  -11.9860   22.4832 H   0  0  0  0  0  0
  -21.1072  -13.1208   22.2647 H   0  0  0  0  0  0
  -24.6245  -15.8294   20.5258 H   0  0  0  0  0  0
  -26.2259  -15.6585   20.0392 H   0  0  0  0  0  0
  -26.7293  -32.5259   23.0957 H   0  0  0  0  0  0
  -25.0060  -33.9574   25.0271 H   0  0  0  0  0  0
  -22.7598  -31.2799   21.3668 H   0  0  0  0  0  0
  -23.3760  -35.9568   23.3290 H   0  0  0  0  0  0
  -24.3573  -36.8898   22.2063 H   0  0  0  0  0  0
  -23.7240  -37.6429   23.6700 H   0  0  0  0  0  0
  -26.1707  -31.4472   20.6087 H   0  0  0  0  0  0
  -26.8813  -30.7529   22.0294 H   0  0  0  0  0  0
  -28.1488  -28.7705   21.2201 H   0  0  0  0  0  0
  -25.9308  -25.7814   19.0524 H   0  0  0  0  0  0
  -23.9858  -27.2594   19.0046 H   0  0  0  0  0  0
  -23.8268  -30.5417   19.3924 H   0  0  0  0  0  0
  -22.7982  -29.2163   19.8415 H   0  0  0  0  0  0
  -25.1318  -36.1833   25.0803 H   0  0  0  0  0  0
  -21.0011  -28.3322   24.1352 H   0  0  0  0  0  0
  -20.5681  -26.2342   23.3631 H   0  0  0  0  0  0
  -21.6656  -26.7427   22.1206 H   0  0  0  0  0  0
  -19.6924  -25.6285   21.1263 H   0  0  0  0  0  0
  -19.6701  -27.3177   20.6733 H   0  0  0  0  0  0
  -17.4214  -26.6681   21.4029 H   0  0  0  0  0  0
  -18.0342  -26.0086   22.9028 H   0  0  0  0  0  0
  -19.7955  -30.7302   24.2228 H   0  0  0  0  0  0
  -17.5027  -31.6271   24.5165 H   0  0  0  0  0  0
  -15.5365  -30.2978   23.7677 H   0  0  0  0  0  0
  -15.8692  -28.0813   22.7090 H   0  0  0  0  0  0
  -24.5891  -30.7097   25.7698 H   0  0  0  0  0  0
  -24.8881  -32.2943   26.4736 H   0  0  0  0  0  0
  -25.7972  -30.8975   27.0207 H   0  0  0  0  0  0
  -26.3040  -29.6654   24.1310 H   0  0  0  0  0  0
  -27.4001  -29.7266   25.4903 H   0  0  0  0  0  0
  -27.8952  -30.4175   23.9651 H   0  0  0  0  0  0
  -27.2629  -33.3659   26.1998 H   0  0  0  0  0  0
  -28.3898  -32.6859   25.0351 H   0  0  0  0  0  0
  -28.0673  -31.8510   26.5470 H   0  0  0  0  0  0
  -28.2582  -38.0082   24.7511 H   0  0  0  0  0  0
  -28.1078  -36.2611   24.6297 H   0  0  0  0  0  0
  -27.2290  -37.1428   25.8869 H   0  0  0  0  0  0
  -20.9501  -29.8739   21.6751 H   0  0  0  0  0  0
  -26.0147  -38.2800   24.1411 H   0  0  0  0  0  0
  -30.9633  -20.8151   21.1211 H   0  0  0  0  0  0
  -31.4230  -18.4171   21.1527 H   0  0  0  0  0  0
  -28.4624  -23.4266   18.5385 H   0  0  0  0  0  0
  -26.8552  -23.0821   19.2722 H   0  0  0  0  0  0
  -29.3866  -23.5477   22.0754 H   0  0  0  0  0  0
  -30.2336  -23.7558   20.5010 H   0  0  0  0  0  0
  -27.2902  -24.5065   21.2192 H   0  0  0  0  0  0
  -28.6502  -15.7748   20.5609 H   0  0  0  0  0  0
  1 25  1  0  0  0
  1 30  2  0  0  0
  1 81  1  0  0  0
  2  3  1  0  0  0
  2 25  1  0  0  0
  2 84  1  0  0  0
  2 85  1  0  0  0
  3  4  1  0  0  0
  3 86  1  0  0  0
  3 87  1  0  0  0
  4  5  1  0  0  0
  4 88  1  0  0  0
  4 89  1  0  0  0
  5  6  1  0  0  0
  5 26  1  0  0  0
  5 90  1  0  0  0
  6 25  1  0  0  0
  6 91  1  0  0  0
  6 92  1  0  0  0
  7  8  2  0  0  0
  7 26  1  0  0  0
  7 29  1  0  0  0
  8  9  1  0  0  0
  8 22  1  0  0  0
  9 10  1  0  0  0
  9 27  2  0  0  0
 10 11  2  0  0  0
 10 15  1  0  0  0
 11 12  1  0  0  0
 11 93  1  0  0  0
 12 13  2  0  0  0
 12 94  1  0  0  0
 13 14  1  0  0  0
 13 31  1  0  0  0
 14 15  2  0  0  0
 14 95  1  0  0  0
 15 96  1  0  0  0
 16 17  2  0  0  0
 16 21  1  0  0  0
 16 31  1  0  0  0
 17 18  1  0  0  0
 17 97  1  0  0  0
 18 19  2  0  0  0
 18 98  1  0  0  0
 19 20  1  0  0  0
 19 24  1  0  0  0
 20 21  2  0  0  0
 20 99  1  0  0  0
 21 23  1  0  0  0
 22 28  1  0  0  0
 22 32  2  0  0  0
 26 27  1  0  0  0
 28100  1  0  0  0
 28101  1  0  0  0
 29102  1  0  0  0
 29103  1  0  0  0
 33 34  1  0  0  0
 33 66  1  0  0  0
 33 70  2  0  0  0
 34 36  1  0  0  0
 34 59  1  0  0  0
 34104  1  0  0  0
 35 44  2  0  0  0
 35 45  1  0  0  0
 35 68  1  0  0  0
 36 56  1  0  0  0
 36105  1  0  0  0
 37 39  1  0  0  0
 37 47  1  0  0  0
 37 66  1  0  0  0
 37106  1  0  0  0
 38 43  2  0  0  0
 38 46  1  0  0  0
 38 47  1  0  0  0
 39 64  1  0  0  0
 39 67  2  0  0  0
 40 52  1  0  0  0
 40 53  2  0  0  0
 40 58  1  0  0  0
 41107  1  0  0  0
 41108  1  0  0  0
 41109  1  0  0  0
 41 48  1  0  0  0
 42 43  1  0  0  0
 42 66  1  0  0  0
 42110  1  0  0  0
 42111  1  0  0  0
 43 44  1  0  0  0
 44112  1  0  0  0
 45 46  2  0  0  0
 45113  1  0  0  0
 46114  1  0  0  0
 47115  1  0  0  0
 47116  1  0  0  0
 48 56  1  0  0  0
 48 65  1  0  0  0
 48117  1  0  0  0
 49 50  1  0  0  0
 49 53  1  0  0  0
 49 64  1  0  0  0
 49118  1  0  0  0
 50 51  1  0  0  0
 50119  1  0  0  0
 50120  1  0  0  0
 51 52  1  0  0  0
 51121  1  0  0  0
 51122  1  0  0  0
 52123  1  0  0  0
 52124  1  0  0  0
 53 54  1  0  0  0
 54 55  2  0  0  0
 54125  1  0  0  0
 55 57  1  0  0  0
 55126  1  0  0  0
 56 69  2  0  0  0
 57 58  2  0  0  0
 57127  1  0  0  0
 58128  1  0  0  0
 59 60  1  0  0  0
 59 61  1  0  0  0
 59 62  1  0  0  0
 60129  1  0  0  0
 60130  1  0  0  0
 60131  1  0  0  0
 61132  1  0  0  0
 61133  1  0  0  0
 61134  1  0  0  0
 62135  1  0  0  0
 62136  1  0  0  0
 62137  1  0  0  0
 63 65  1  0  0  0
 63138  1  0  0  0
 63139  1  0  0  0
 63140  1  0  0  0
 64141  1  0  0  0
 65142  1  0  0  0
 68 79  1  0  0  0
 71 72  2  0  0  0
 71 73  1  0  0  0
 71143  1  0  0  0
 72 74  1  0  0  0
 72144  1  0  0  0
 73 76  2  0  0  0
 73 80  1  0  0  0
 74 75  2  0  0  0
 74 81  1  0  0  0
 75 76  1  0  0  0
 75 82  1  0  0  0
 76 83  1  0  0  0
 77 79  1  0  0  0
 77 80  1  0  0  0
 77145  1  0  0  0
 77146  1  0  0  0
 78 79  1  0  0  0
 78 80  1  0  0  0
 78147  1  0  0  0
 78148  1  0  0  0
 79149  1  0  0  0
 81150  1  0  0  0
M  ISO  4   1 100  68 101  79 101  81 100
M  END
> <chiral flag>
0

> <version>
0

> <s_m_source_file>
/data/baiqing/PycharmProjects/Reinvent-master-3.2/result/LINK_invent/BTK/process_docking_weight1_custom_product_contain_oxygen_bond_distance_aromatic_linkinvent_7_9_3/rearranged_h_0025.sdf

> <i_m_source_file_index>
8

> <r_mmod_Potential_Energy-OPLS-2005>
734.315124511719

> <r_mmod_Stretch_Energy-OPLS-2005>
272.052703857422

> <r_mmod_Bend_Energy-OPLS-2005>
391.056701660156

> <r_mmod_Torsional_Energy-OPLS-2005>
249.02912902832

> <r_mmod_Improper_Torsional_Energy-OPLS-2005>
9.21855735778809

> <r_mmod_Van_der_Waal_Energy-OPLS-2005>
124.635383605957

> <r_mmod_Electrostatic_Energy-OPLS-2005>
-334.422576904297

> <r_mmod_Solvation_Energy-OPLS-2005>
-219.387573242188

> <b_mmod_Minimization_Converged-OPLS-2005>
0

> <r_mmod_RMS_Derivative-OPLS-2005>
0.181297063827515

$$$$
8
                    3D
 Structure written by MMmdl.
161170  0  0  1  0            999 V2000
  -30.6038  -14.6374   20.5215 C   0  0  0  0  0  0
  -30.4454  -12.3951   19.4485 C   0  0  0  0  0  0
  -29.5090  -12.5128   18.2235 C   0  0  0  0  0  0
  -28.0313  -12.3483   18.6347 C   0  0  0  0  0  0
  -27.6566  -13.2107   19.8689 C   0  0  2  0  0  0
  -28.7009  -13.0390   20.9953 C   0  0  0  0  0  0
  -25.2560  -13.8145   20.5632 C   0  0  0  0  0  0
  -24.1833  -13.0427   20.9189 C   0  0  0  0  0  0
  -24.6395  -11.6896   20.8751 C   0  0  0  0  0  0
  -23.9060  -10.4282   21.0415 C   0  0  0  0  0  0
  -24.3611   -9.4194   21.9190 C   0  0  0  0  0  0
  -23.6284   -8.2231   22.0756 C   0  0  0  0  0  0
  -22.4268   -8.0273   21.3542 C   0  0  0  0  0  0
  -21.9905   -9.0249   20.4644 C   0  0  0  0  0  0
  -22.7234  -10.2127   20.3057 C   0  0  0  0  0  0
  -21.6849   -6.0729   22.5277 C   0  0  0  0  0  0
  -21.4009   -6.5635   23.8209 C   0  0  0  0  0  0
  -21.3660   -5.6789   24.9175 C   0  0  0  0  0  0
  -21.6046   -4.3051   24.7227 C   0  0  0  0  0  0
  -21.8820   -3.8141   23.4348 C   0  0  0  0  0  0
  -21.9189   -4.6956   22.3402 C   0  0  0  0  0  0
  -22.7857  -13.5230   21.1854 C   0  0  0  0  0  0
  -22.1660   -4.2142   21.0979 F   0  0  0  0  0  0
  -21.5633   -3.4537   25.7741 F   0  0  0  0  0  0
  -30.0168  -13.4005   20.4410 N   0  0  0  0  0  0
  -26.3002  -12.9322   20.3332 N   0  0  0  0  0  0
  -25.9324  -11.6484   20.5779 N   0  0  0  0  0  0
  -22.0498  -12.8225   22.0416 N   0  0  0  0  0  0
  -25.4232  -15.1851   20.3917 N   0  0  0  0  0  0
  -31.7498  -14.8348   20.1051 O   0  0  0  0  0  0
  -21.6632   -6.8870   21.4238 O   0  0  0  0  0  0
  -22.3543  -14.5536   20.6699 O   0  0  0  0  0  0
  -24.6264  -31.8594   23.2025 C   0  0  0  0  0  0
  -25.9112  -32.4771   23.8351 C   0  0  1  0  0  0
  -27.2249  -27.3195   20.1149 C   0  0  0  0  0  0
  -25.5938  -33.8573   24.2285 N   0  0  0  0  0  0
  -23.4191  -30.4841   21.5447 C   0  0  2  0  0  0
  -24.8661  -28.9397   20.1101 C   0  0  0  0  0  0
  -22.7475  -29.4618   22.4925 C   0  0  0  0  0  0
  -18.0290  -28.1377   22.8480 C   0  0  0  0  0  0
  -24.1492  -36.7287   23.2639 C   0  0  0  0  0  0
  -25.9609  -30.7912   21.3729 C   0  0  0  0  0  0
  -26.0352  -29.4192   20.7138 C   0  0  0  0  0  0
  -27.2178  -28.6215   20.7050 C   0  0  0  0  0  0
  -26.0306  -26.8930   19.4879 C   0  0  0  0  0  0
  -24.8653  -27.6819   19.4891 C   0  0  0  0  0  0
  -23.6338  -29.8199   20.1595 C   0  0  0  0  0  0
  -25.4111  -36.3069   24.0336 C   0  0  1  0  0  0
  -20.5890  -28.3676   23.1277 C   0  0  2  0  0  0
  -20.6768  -26.9398   22.5401 C   0  0  0  0  0  0
  -19.5743  -26.6374   21.5198 C   0  0  0  0  0  0
  -18.1928  -26.7922   22.1616 C   0  0  0  0  0  0
  -19.1543  -28.8844   23.2874 C   0  0  0  0  0  0
  -18.9470  -30.1449   23.8883 C   0  0  0  0  0  0
  -17.6470  -30.6582   24.0555 C   0  0  0  0  0  0
  -25.9054  -34.9442   23.5105 C   0  0  0  0  0  0
  -16.5359  -29.9081   23.6327 C   0  0  0  0  0  0
  -16.7278  -28.6497   23.0345 C   0  0  0  0  0  0
  -26.4500  -31.6585   25.0720 C   0  0  0  0  0  0
  -25.3735  -31.3721   26.1448 C   0  0  0  0  0  0
  -27.0343  -30.3012   24.6160 C   0  0  0  0  0  0
  -27.6057  -32.4323   25.7498 C   0  0  0  0  0  0
  -27.5576  -37.1796   24.8468 C   0  0  0  0  0  0
  -21.4187  -29.3036   22.3677 N   0  0  0  0  0  0
  -26.4289  -37.3765   23.9415 N   0  0  0  0  0  0
  -24.6875  -31.0612   22.0970 N   0  0  0  0  0  0
  -23.4204  -28.8140   23.2988 O   0  0  0  0  0  0
  -28.3455  -26.4739   20.1677 O   0  0  0  0  0  0
  -26.5609  -34.8908   22.4664 O   0  0  0  0  0  0
  -23.5429  -32.1392   23.7354 O   0  0  0  0  0  0
  -28.6883  -19.2547   21.5242 C   0  0  0  0  0  0
  -30.7325  -17.8944   20.1870 C   0  0  0  0  0  0
  -28.7430  -17.8306   21.5523 C   0  0  0  0  0  0
  -29.6461  -20.0445   20.8424 C   0  0  0  0  0  0
  -29.7824  -17.1033   20.8936 C   0  0  0  0  0  0
  -30.6725  -19.3254   20.1653 C   0  0  0  0  0  0
  -29.0858  -22.4513   20.2313 C   0  0  0  0  0  0
  -30.7865  -23.3356   22.4037 C   0  0  0  0  0  0
  -29.6906  -24.2954   21.9465 C   0  0  0  0  0  0
  -30.2896  -21.8859   22.3270 C   0  0  0  0  0  0
  -29.2907  -24.0153   20.4909 C   0  0  2  0  0  0
  -27.6555  -17.1255   22.3522 C   0  0  0  0  0  0
  -28.1297  -25.0100   20.0424 C   0  0  0  0  0  0
  -29.6847  -21.4992   21.0410 N   0  0  0  0  0  0
  -29.7820  -15.6380   20.9698 N   0  0  0  0  0  0
  -28.4108  -22.1137   19.2539 O   0  0  0  0  0  0
  -31.9210  -20.1921   19.3432 Cl  0  0  0  0  0  0
  -31.4846  -12.5353   19.1450 H   0  0  0  0  0  0
  -30.3936  -11.3939   19.8788 H   0  0  0  0  0  0
  -29.7729  -11.7645   17.4748 H   0  0  0  0  0  0
  -29.6492  -13.4843   17.7468 H   0  0  0  0  0  0
  -27.8668  -11.2938   18.8593 H   0  0  0  0  0  0
  -27.3767  -12.5848   17.7949 H   0  0  0  0  0  0
  -27.6819  -14.2499   19.5415 H   0  0  0  0  0  0
  -28.7155  -12.0053   21.3450 H   0  0  0  0  0  0
  -28.4415  -13.6366   21.8702 H   0  0  0  0  0  0
  -25.2757   -9.5671   22.4764 H   0  0  0  0  0  0
  -23.9991   -7.4621   22.7473 H   0  0  0  0  0  0
  -21.0839   -8.8765   19.8946 H   0  0  0  0  0  0
  -22.3694  -10.9667   19.6166 H   0  0  0  0  0  0
  -21.1997   -7.6142   23.9711 H   0  0  0  0  0  0
  -21.1487   -6.0521   25.9079 H   0  0  0  0  0  0
  -22.0598   -2.7602   23.2851 H   0  0  0  0  0  0
  -22.4118  -11.9889   22.4802 H   0  0  0  0  0  0
  -21.1117  -13.1251   22.2626 H   0  0  0  0  0  0
  -24.6367  -15.8226   20.4466 H   0  0  0  0  0  0
  -26.2482  -15.6106   19.9892 H   0  0  0  0  0  0
  -26.7179  -32.5447   23.1100 H   0  0  0  0  0  0
  -25.0104  -33.9721   25.0443 H   0  0  0  0  0  0
  -22.7122  -31.3041   21.4016 H   0  0  0  0  0  0
  -23.3748  -35.9627   23.3303 H   0  0  0  0  0  0
  -24.3587  -36.8903   22.2053 H   0  0  0  0  0  0
  -23.7256  -37.6495   23.6662 H   0  0  0  0  0  0
  -26.0917  -31.5551   20.6055 H   0  0  0  0  0  0
  -26.8420  -30.8398   22.0013 H   0  0  0  0  0  0
  -28.1149  -28.9851   21.1862 H   0  0  0  0  0  0
  -25.9675  -25.9325   18.9983 H   0  0  0  0  0  0
  -23.9688  -27.3095   19.0129 H   0  0  0  0  0  0
  -23.7533  -30.5968   19.4031 H   0  0  0  0  0  0
  -22.7534  -29.2501   19.8558 H   0  0  0  0  0  0
  -25.1290  -36.1914   25.0831 H   0  0  0  0  0  0
  -20.9987  -28.3241   24.1394 H   0  0  0  0  0  0
  -20.5646  -26.2289   23.3602 H   0  0  0  0  0  0
  -21.6637  -26.7412   22.1204 H   0  0  0  0  0  0
  -19.6899  -25.6280   21.1240 H   0  0  0  0  0  0
  -19.6682  -27.3174   20.6719 H   0  0  0  0  0  0
  -17.4192  -26.6672   21.4026 H   0  0  0  0  0  0
  -18.0325  -26.0066   22.9014 H   0  0  0  0  0  0
  -19.7948  -30.7264   24.2250 H   0  0  0  0  0  0
  -17.5027  -31.6263   24.5155 H   0  0  0  0  0  0
  -15.5357  -30.2975   23.7665 H   0  0  0  0  0  0
  -15.8676  -28.0818   22.7059 H   0  0  0  0  0  0
  -24.5918  -30.7060   25.7779 H   0  0  0  0  0  0
  -24.8914  -32.2883   26.4861 H   0  0  0  0  0  0
  -25.8058  -30.8908   27.0227 H   0  0  0  0  0  0
  -26.2905  -29.6761   24.1202 H   0  0  0  0  0  0
  -27.4073  -29.7273   25.4652 H   0  0  0  0  0  0
  -27.8765  -30.4313   23.9357 H   0  0  0  0  0  0
  -27.2668  -33.3632   26.2058 H   0  0  0  0  0  0
  -28.3875  -32.6874   25.0330 H   0  0  0  0  0  0
  -28.0714  -31.8457   26.5424 H   0  0  0  0  0  0
  -28.2586  -38.0097   24.7501 H   0  0  0  0  0  0
  -28.1079  -36.2628   24.6307 H   0  0  0  0  0  0
  -27.2298  -37.1456   25.8870 H   0  0  0  0  0  0
  -20.9359  -29.8798   21.6925 H   0  0  0  0  0  0
  -26.0164  -38.2840   24.1407 H   0  0  0  0  0  0
  -27.9072  -19.7561   22.0789 H   0  0  0  0  0  0
  -31.5421  -17.4094   19.6615 H   0  0  0  0  0  0
  -31.0884  -23.5694   23.4254 H   0  0  0  0  0  0
  -31.6768  -23.4597   21.7851 H   0  0  0  0  0  0
  -30.0443  -25.3233   22.0389 H   0  0  0  0  0  0
  -28.8199  -24.2090   22.5981 H   0  0  0  0  0  0
  -29.5449  -21.7202   23.1068 H   0  0  0  0  0  0
  -31.1201  -21.2162   22.5578 H   0  0  0  0  0  0
  -30.1534  -24.2676   19.8743 H   0  0  0  0  0  0
  -27.7519  -17.3770   23.4089 H   0  0  0  0  0  0
  -27.6691  -16.0399   22.2721 H   0  0  0  0  0  0
  -26.6719  -17.4592   22.0205 H   0  0  0  0  0  0
  -27.2417  -24.7430   20.6179 H   0  0  0  0  0  0
  -27.8944  -24.7979   18.9987 H   0  0  0  0  0  0
  -28.9315  -15.2596   21.3553 H   0  0  0  0  0  0
  1 25  1  0  0  0
  1 30  2  0  0  0
  1 85  1  0  0  0
  2  3  1  0  0  0
  2 25  1  0  0  0
  2 88  1  0  0  0
  2 89  1  0  0  0
  3  4  1  0  0  0
  3 90  1  0  0  0
  3 91  1  0  0  0
  4  5  1  0  0  0
  4 92  1  0  0  0
  4 93  1  0  0  0
  5  6  1  0  0  0
  5 26  1  0  0  0
  5 94  1  0  0  0
  6 25  1  0  0  0
  6 95  1  0  0  0
  6 96  1  0  0  0
  7  8  2  0  0  0
  7 26  1  0  0  0
  7 29  1  0  0  0
  8  9  1  0  0  0
  8 22  1  0  0  0
  9 10  1  0  0  0
  9 27  2  0  0  0
 10 11  2  0  0  0
 10 15  1  0  0  0
 11 12  1  0  0  0
 11 97  1  0  0  0
 12 13  2  0  0  0
 12 98  1  0  0  0
 13 14  1  0  0  0
 13 31  1  0  0  0
 14 15  2  0  0  0
 14 99  1  0  0  0
 15100  1  0  0  0
 16 17  2  0  0  0
 16 21  1  0  0  0
 16 31  1  0  0  0
 17 18  1  0  0  0
 17101  1  0  0  0
 18 19  2  0  0  0
 18102  1  0  0  0
 19 20  1  0  0  0
 19 24  1  0  0  0
 20 21  2  0  0  0
 20103  1  0  0  0
 21 23  1  0  0  0
 22 28  1  0  0  0
 22 32  2  0  0  0
 26 27  1  0  0  0
 28104  1  0  0  0
 28105  1  0  0  0
 29106  1  0  0  0
 29107  1  0  0  0
 33 34  1  0  0  0
 33 66  1  0  0  0
 33 70  2  0  0  0
 34 36  1  0  0  0
 34 59  1  0  0  0
 34108  1  0  0  0
 35 44  2  0  0  0
 35 45  1  0  0  0
 35 68  1  0  0  0
 36 56  1  0  0  0
 36109  1  0  0  0
 37 39  1  0  0  0
 37 47  1  0  0  0
 37 66  1  0  0  0
 37110  1  0  0  0
 38 43  2  0  0  0
 38 46  1  0  0  0
 38 47  1  0  0  0
 39 64  1  0  0  0
 39 67  2  0  0  0
 40 52  1  0  0  0
 40 53  2  0  0  0
 40 58  1  0  0  0
 41111  1  0  0  0
 41112  1  0  0  0
 41113  1  0  0  0
 41 48  1  0  0  0
 42 43  1  0  0  0
 42 66  1  0  0  0
 42114  1  0  0  0
 42115  1  0  0  0
 43 44  1  0  0  0
 44116  1  0  0  0
 45 46  2  0  0  0
 45117  1  0  0  0
 46118  1  0  0  0
 47119  1  0  0  0
 47120  1  0  0  0
 48 56  1  0  0  0
 48 65  1  0  0  0
 48121  1  0  0  0
 49 50  1  0  0  0
 49 53  1  0  0  0
 49 64  1  0  0  0
 49122  1  0  0  0
 50 51  1  0  0  0
 50123  1  0  0  0
 50124  1  0  0  0
 51 52  1  0  0  0
 51125  1  0  0  0
 51126  1  0  0  0
 52127  1  0  0  0
 52128  1  0  0  0
 53 54  1  0  0  0
 54 55  2  0  0  0
 54129  1  0  0  0
 55 57  1  0  0  0
 55130  1  0  0  0
 56 69  2  0  0  0
 57 58  2  0  0  0
 57131  1  0  0  0
 58132  1  0  0  0
 59 60  1  0  0  0
 59 61  1  0  0  0
 59 62  1  0  0  0
 60133  1  0  0  0
 60134  1  0  0  0
 60135  1  0  0  0
 61136  1  0  0  0
 61137  1  0  0  0
 61138  1  0  0  0
 62139  1  0  0  0
 62140  1  0  0  0
 62141  1  0  0  0
 63 65  1  0  0  0
 63142  1  0  0  0
 63143  1  0  0  0
 63144  1  0  0  0
 64145  1  0  0  0
 65146  1  0  0  0
 68 83  1  0  0  0
 71 73  2  0  0  0
 71 74  1  0  0  0
 71147  1  0  0  0
 72 75  2  0  0  0
 72 76  1  0  0  0
 72148  1  0  0  0
 73 75  1  0  0  0
 73 82  1  0  0  0
 74 76  2  0  0  0
 74 84  1  0  0  0
 75 85  1  0  0  0
 76 87  1  0  0  0
 77 81  1  0  0  0
 77 84  1  0  0  0
 77 86  2  0  0  0
 78 79  1  0  0  0
 78 80  1  0  0  0
 78149  1  0  0  0
 78150  1  0  0  0
 79 81  1  0  0  0
 79151  1  0  0  0
 79152  1  0  0  0
 80 84  1  0  0  0
 80153  1  0  0  0
 80154  1  0  0  0
 81 83  1  0  0  0
 81155  1  0  0  0
 82156  1  0  0  0
 82157  1  0  0  0
 82158  1  0  0  0
 83159  1  0  0  0
 83160  1  0  0  0
 85161  1  0  0  0
M  ISO  4   1 100  68 101  83 101  85 100
M  END
> <chiral flag>
0

> <version>
0

> <s_m_source_file>
/data/baiqing/PycharmProjects/Reinvent-master-3.2/result/LINK_invent/BTK/process_docking_weight1_custom_product_contain_oxygen_bond_distance_aromatic_linkinvent_7_9_3/rearranged_h_0025.sdf

> <i_m_source_file_index>
9

> <r_mmod_Potential_Energy-OPLS-2005>
143.903869628906

> <r_mmod_Stretch_Energy-OPLS-2005>
87.0641098022461

> <r_mmod_Bend_Energy-OPLS-2005>
145.084671020508

> <r_mmod_Torsional_Energy-OPLS-2005>
289.890075683594

> <r_mmod_Improper_Torsional_Energy-OPLS-2005>
5.49842119216919

> <r_mmod_Van_der_Waal_Energy-OPLS-2005>
146.050323486328

> <r_mmod_Electrostatic_Energy-OPLS-2005>
-362.569091796875

> <r_mmod_Solvation_Energy-OPLS-2005>
-214.979751586914

> <b_mmod_Minimization_Converged-OPLS-2005>
0

> <r_mmod_RMS_Derivative-OPLS-2005>
0.979214608669281

$$$$
9
                    3D
 Structure written by MMmdl.
153161  0  0  1  0            999 V2000
  -30.5892  -14.7423   20.4956 C   0  0  0  0  0  0
  -30.4418  -12.4532   19.4867 C   0  0  0  0  0  0
  -29.5234  -12.5330   18.2459 C   0  0  0  0  0  0
  -28.0457  -12.3525   18.6489 C   0  0  0  0  0  0
  -27.6513  -13.2304   19.8662 C   0  0  2  0  0  0
  -28.6928  -13.1256   21.0031 C   0  0  0  0  0  0
  -25.2561  -13.8191   20.5722 C   0  0  0  0  0  0
  -24.1825  -13.0447   20.9195 C   0  0  0  0  0  0
  -24.6398  -11.6923   20.8746 C   0  0  0  0  0  0
  -23.9076  -10.4296   21.0398 C   0  0  0  0  0  0
  -24.3625   -9.4214   21.9176 C   0  0  0  0  0  0
  -23.6303   -8.2249   22.0754 C   0  0  0  0  0  0
  -22.4284   -8.0285   21.3549 C   0  0  0  0  0  0
  -21.9914   -9.0250   20.4641 C   0  0  0  0  0  0
  -22.7249  -10.2130   20.3040 C   0  0  0  0  0  0
  -21.6849   -6.0743   22.5285 C   0  0  0  0  0  0
  -21.4006   -6.5641   23.8224 C   0  0  0  0  0  0
  -21.3661   -5.6793   24.9183 C   0  0  0  0  0  0
  -21.6058   -4.3058   24.7220 C   0  0  0  0  0  0
  -21.8818   -3.8152   23.4338 C   0  0  0  0  0  0
  -21.9187   -4.6974   22.3398 C   0  0  0  0  0  0
  -22.7845  -13.5246   21.1845 C   0  0  0  0  0  0
  -22.1662   -4.2167   21.0977 F   0  0  0  0  0  0
  -21.5628   -3.4530   25.7722 F   0  0  0  0  0  0
  -30.0024  -13.4952   20.4447 N   0  0  0  0  0  0
  -26.2991  -12.9398   20.3327 N   0  0  0  0  0  0
  -25.9342  -11.6550   20.5765 N   0  0  0  0  0  0
  -22.0456  -12.8251   22.0399 N   0  0  0  0  0  0
  -25.4256  -15.1913   20.4162 N   0  0  0  0  0  0
  -31.7466  -14.8920   20.0942 O   0  0  0  0  0  0
  -21.6647   -6.8884   21.4250 O   0  0  0  0  0  0
  -22.3548  -14.5549   20.6667 O   0  0  0  0  0  0
  -24.6340  -31.8526   23.1982 C   0  0  0  0  0  0
  -25.9163  -32.4746   23.8324 C   0  0  1  0  0  0
  -27.2217  -27.2405   20.1351 C   0  0  0  0  0  0
  -25.5956  -33.8543   24.2248 N   0  0  0  0  0  0
  -23.4333  -30.4775   21.5409 C   0  0  2  0  0  0
  -24.8807  -28.9244   20.1088 C   0  0  0  0  0  0
  -22.7521  -29.4603   22.4899 C   0  0  0  0  0  0
  -18.0300  -28.1383   22.8499 C   0  0  0  0  0  0
  -24.1494  -36.7273   23.2639 C   0  0  0  0  0  0
  -25.9818  -30.7608   21.3822 C   0  0  0  0  0  0
  -26.0546  -29.3829   20.7207 C   0  0  0  0  0  0
  -27.2262  -28.5552   20.7205 C   0  0  0  0  0  0
  -26.0197  -26.8593   19.4924 C   0  0  0  0  0  0
  -24.8705  -27.6712   19.4817 C   0  0  0  0  0  0
  -23.6535  -29.8133   20.1561 C   0  0  0  0  0  0
  -25.4121  -36.3052   24.0323 C   0  0  1  0  0  0
  -20.5907  -28.3701   23.1266 C   0  0  2  0  0  0
  -20.6791  -26.9414   22.5404 C   0  0  0  0  0  0
  -19.5765  -26.6376   21.5220 C   0  0  0  0  0  0
  -18.1939  -26.7930   22.1621 C   0  0  0  0  0  0
  -19.1556  -28.8866   23.2874 C   0  0  0  0  0  0
  -18.9464  -30.1465   23.8891 C   0  0  0  0  0  0
  -17.6461  -30.6589   24.0561 C   0  0  0  0  0  0
  -25.9062  -34.9430   23.5083 C   0  0  0  0  0  0
  -16.5354  -29.9081   23.6345 C   0  0  0  0  0  0
  -16.7282  -28.6491   23.0373 C   0  0  0  0  0  0
  -26.4515  -31.6581   25.0730 C   0  0  0  0  0  0
  -25.3729  -31.3757   26.1449 C   0  0  0  0  0  0
  -27.0362  -30.2990   24.6248 C   0  0  0  0  0  0
  -27.6055  -32.4338   25.7522 C   0  0  0  0  0  0
  -27.5581  -37.1795   24.8458 C   0  0  0  0  0  0
  -21.4219  -29.3043   22.3645 N   0  0  0  0  0  0
  -26.4288  -37.3762   23.9405 N   0  0  0  0  0  0
  -24.7030  -31.0490   22.0969 N   0  0  0  0  0  0
  -23.4208  -28.8138   23.3007 O   0  0  0  0  0  0
  -28.3059  -26.3224   20.2083 O   0  0  0  0  0  0
  -26.5610  -34.8908   22.4635 O   0  0  0  0  0  0
  -23.5485  -32.1351   23.7266 O   0  0  0  0  0  0
  -29.1893  -18.0932   21.7446 C   0  0  0  0  0  0
  -28.8872  -19.4892   21.5931 C   0  0  0  0  0  0
  -29.7794  -19.4185   19.3779 C   0  0  0  0  0  0
  -30.0956  -18.0135   19.5226 C   0  0  0  0  0  0
  -29.7695  -17.2846   20.7175 C   0  0  0  0  0  0
  -29.1280  -20.1949   20.3833 C   0  0  0  0  0  0
  -30.7090  -17.3058   18.3243 C   0  0  0  0  0  0
  -28.0250  -24.8457   20.0137 C   0  0  0  0  0  0
  -28.9977  -23.5889   20.3826 C   0  0  0  0  0  0
  -29.7959  -15.8031   20.9102 N   0  0  0  0  0  0
  -28.0542  -21.8384   18.5207 O   0  0  0  0  0  0
  -26.9837  -21.7981   20.7740 O   0  0  0  0  0  0
  -28.2288  -21.8426   19.9858 S   0  0  0  0  0  0
  -31.4863  -12.5782   19.1957 H   0  0  0  0  0  0
  -30.3804  -11.4652   19.9436 H   0  0  0  0  0  0
  -29.8126  -11.7802   17.5119 H   0  0  0  0  0  0
  -29.6522  -13.5010   17.7589 H   0  0  0  0  0  0
  -27.8991  -11.2995   18.8915 H   0  0  0  0  0  0
  -27.3899  -12.5643   17.8027 H   0  0  0  0  0  0
  -27.6580  -14.2621   19.5159 H   0  0  0  0  0  0
  -28.7220  -12.1129   21.4065 H   0  0  0  0  0  0
  -28.4205  -13.7695   21.8397 H   0  0  0  0  0  0
  -25.2762   -9.5706   22.4773 H   0  0  0  0  0  0
  -24.0017   -7.4643   22.7475 H   0  0  0  0  0  0
  -21.0844   -8.8765   19.8951 H   0  0  0  0  0  0
  -22.3703  -10.9666   19.6159 H   0  0  0  0  0  0
  -21.2009   -7.6145   23.9742 H   0  0  0  0  0  0
  -21.1486   -6.0509   25.9096 H   0  0  0  0  0  0
  -22.0599   -2.7611   23.2818 H   0  0  0  0  0  0
  -22.4022  -11.9901   22.4811 H   0  0  0  0  0  0
  -21.1074  -13.1312   22.2561 H   0  0  0  0  0  0
  -24.6588  -15.8436   20.5362 H   0  0  0  0  0  0
  -26.2768  -15.6364   20.0978 H   0  0  0  0  0  0
  -26.7243  -32.5389   23.1071 H   0  0  0  0  0  0
  -25.0157  -33.9668   25.0433 H   0  0  0  0  0  0
  -22.7312  -31.3005   21.3945 H   0  0  0  0  0  0
  -23.3762  -35.9600   23.3291 H   0  0  0  0  0  0
  -24.3599  -36.8900   22.2055 H   0  0  0  0  0  0
  -23.7237  -37.6470   23.6671 H   0  0  0  0  0  0
  -26.1230  -31.5248   20.6164 H   0  0  0  0  0  0
  -26.8578  -30.8076   22.0175 H   0  0  0  0  0  0
  -28.1223  -28.8978   21.2190 H   0  0  0  0  0  0
  -25.9241  -25.8997   19.0074 H   0  0  0  0  0  0
  -23.9729  -27.3116   18.9961 H   0  0  0  0  0  0
  -23.7756  -30.5894   19.3994 H   0  0  0  0  0  0
  -22.7716  -29.2446   19.8537 H   0  0  0  0  0  0
  -25.1315  -36.1901   25.0823 H   0  0  0  0  0  0
  -20.9999  -28.3272   24.1381 H   0  0  0  0  0  0
  -20.5711  -26.2298   23.3607 H   0  0  0  0  0  0
  -21.6657  -26.7452   22.1173 H   0  0  0  0  0  0
  -19.6918  -25.6278   21.1260 H   0  0  0  0  0  0
  -19.6713  -27.3176   20.6740 H   0  0  0  0  0  0
  -17.4222  -26.6701   21.4011 H   0  0  0  0  0  0
  -18.0318  -26.0064   22.9001 H   0  0  0  0  0  0
  -19.7936  -30.7287   24.2239 H   0  0  0  0  0  0
  -17.5012  -31.6275   24.5140 H   0  0  0  0  0  0
  -15.5349  -30.2970   23.7674 H   0  0  0  0  0  0
  -15.8678  -28.0799   22.7100 H   0  0  0  0  0  0
  -24.5872  -30.7151   25.7779 H   0  0  0  0  0  0
  -24.8965  -32.2933   26.4897 H   0  0  0  0  0  0
  -25.8019  -30.8903   27.0215 H   0  0  0  0  0  0
  -26.2947  -29.6736   24.1255 H   0  0  0  0  0  0
  -27.4004  -29.7278   25.4795 H   0  0  0  0  0  0
  -27.8853  -30.4263   23.9528 H   0  0  0  0  0  0
  -27.2639  -33.3631   26.2097 H   0  0  0  0  0  0
  -28.3870  -32.6903   25.0359 H   0  0  0  0  0  0
  -28.0714  -31.8463   26.5441 H   0  0  0  0  0  0
  -28.2580  -38.0109   24.7524 H   0  0  0  0  0  0
  -28.1094  -36.2638   24.6268 H   0  0  0  0  0  0
  -27.2302  -37.1421   25.8860 H   0  0  0  0  0  0
  -20.9395  -29.8775   21.6862 H   0  0  0  0  0  0
  -26.0164  -38.2835   24.1421 H   0  0  0  0  0  0
  -28.8959  -17.6228   22.6740 H   0  0  0  0  0  0
  -28.3586  -19.9999   22.3858 H   0  0  0  0  0  0
  -29.9448  -19.8980   18.4239 H   0  0  0  0  0  0
  -30.5442  -17.8659   17.4025 H   0  0  0  0  0  0
  -30.2804  -16.3155   18.1742 H   0  0  0  0  0  0
  -31.7855  -17.1989   18.4611 H   0  0  0  0  0  0
  -27.0963  -24.6375   20.5469 H   0  0  0  0  0  0
  -27.7855  -24.7243   18.9570 H   0  0  0  0  0  0
  -29.2494  -23.5905   21.4410 H   0  0  0  0  0  0
  -29.9359  -23.6542   19.8362 H   0  0  0  0  0  0
  -28.9829  -15.4611   21.4029 H   0  0  0  0  0  0
  1 25  1  0  0  0
  1 30  2  0  0  0
  1 80  1  0  0  0
  2  3  1  0  0  0
  2 25  1  0  0  0
  2 84  1  0  0  0
  2 85  1  0  0  0
  3  4  1  0  0  0
  3 86  1  0  0  0
  3 87  1  0  0  0
  4  5  1  0  0  0
  4 88  1  0  0  0
  4 89  1  0  0  0
  5  6  1  0  0  0
  5 26  1  0  0  0
  5 90  1  0  0  0
  6 25  1  0  0  0
  6 91  1  0  0  0
  6 92  1  0  0  0
  7  8  2  0  0  0
  7 26  1  0  0  0
  7 29  1  0  0  0
  8  9  1  0  0  0
  8 22  1  0  0  0
  9 10  1  0  0  0
  9 27  2  0  0  0
 10 11  2  0  0  0
 10 15  1  0  0  0
 11 12  1  0  0  0
 11 93  1  0  0  0
 12 13  2  0  0  0
 12 94  1  0  0  0
 13 14  1  0  0  0
 13 31  1  0  0  0
 14 15  2  0  0  0
 14 95  1  0  0  0
 15 96  1  0  0  0
 16 17  2  0  0  0
 16 21  1  0  0  0
 16 31  1  0  0  0
 17 18  1  0  0  0
 17 97  1  0  0  0
 18 19  2  0  0  0
 18 98  1  0  0  0
 19 20  1  0  0  0
 19 24  1  0  0  0
 20 21  2  0  0  0
 20 99  1  0  0  0
 21 23  1  0  0  0
 22 28  1  0  0  0
 22 32  2  0  0  0
 26 27  1  0  0  0
 28100  1  0  0  0
 28101  1  0  0  0
 29102  1  0  0  0
 29103  1  0  0  0
 33 34  1  0  0  0
 33 66  1  0  0  0
 33 70  2  0  0  0
 34 36  1  0  0  0
 34 59  1  0  0  0
 34104  1  0  0  0
 35 44  2  0  0  0
 35 45  1  0  0  0
 35 68  1  0  0  0
 36 56  1  0  0  0
 36105  1  0  0  0
 37 39  1  0  0  0
 37 47  1  0  0  0
 37 66  1  0  0  0
 37106  1  0  0  0
 38 43  2  0  0  0
 38 46  1  0  0  0
 38 47  1  0  0  0
 39 64  1  0  0  0
 39 67  2  0  0  0
 40 52  1  0  0  0
 40 53  2  0  0  0
 40 58  1  0  0  0
 41107  1  0  0  0
 41108  1  0  0  0
 41109  1  0  0  0
 41 48  1  0  0  0
 42 43  1  0  0  0
 42 66  1  0  0  0
 42110  1  0  0  0
 42111  1  0  0  0
 43 44  1  0  0  0
 44112  1  0  0  0
 45 46  2  0  0  0
 45113  1  0  0  0
 46114  1  0  0  0
 47115  1  0  0  0
 47116  1  0  0  0
 48 56  1  0  0  0
 48 65  1  0  0  0
 48117  1  0  0  0
 49 50  1  0  0  0
 49 53  1  0  0  0
 49 64  1  0  0  0
 49118  1  0  0  0
 50 51  1  0  0  0
 50119  1  0  0  0
 50120  1  0  0  0
 51 52  1  0  0  0
 51121  1  0  0  0
 51122  1  0  0  0
 52123  1  0  0  0
 52124  1  0  0  0
 53 54  1  0  0  0
 54 55  2  0  0  0
 54125  1  0  0  0
 55 57  1  0  0  0
 55126  1  0  0  0
 56 69  2  0  0  0
 57 58  2  0  0  0
 57127  1  0  0  0
 58128  1  0  0  0
 59 60  1  0  0  0
 59 61  1  0  0  0
 59 62  1  0  0  0
 60129  1  0  0  0
 60130  1  0  0  0
 60131  1  0  0  0
 61132  1  0  0  0
 61133  1  0  0  0
 61134  1  0  0  0
 62135  1  0  0  0
 62136  1  0  0  0
 62137  1  0  0  0
 63 65  1  0  0  0
 63138  1  0  0  0
 63139  1  0  0  0
 63140  1  0  0  0
 64141  1  0  0  0
 65142  1  0  0  0
 68 78  1  0  0  0
 71 72  2  0  0  0
 71 75  1  0  0  0
 71143  1  0  0  0
 72 76  1  0  0  0
 72144  1  0  0  0
 73 74  1  0  0  0
 73 76  2  0  0  0
 73145  1  0  0  0
 74 75  2  0  0  0
 74 77  1  0  0  0
 75 80  1  0  0  0
 76 83  1  0  0  0
 77146  1  0  0  0
 77147  1  0  0  0
 77148  1  0  0  0
 78 79  1  0  0  0
 78149  1  0  0  0
 78150  1  0  0  0
 79151  1  0  0  0
 79152  1  0  0  0
 79 83  1  0  0  0
 80153  1  0  0  0
 81 83  2  0  0  0
 82 83  2  0  0  0
M  ISO  4   1 100  68 101  78 101  80 100
M  END
> <chiral flag>
0

> <version>
0

> <s_m_source_file>
/data/baiqing/PycharmProjects/Reinvent-master-3.2/result/LINK_invent/BTK/process_docking_weight1_custom_product_contain_oxygen_bond_distance_aromatic_linkinvent_7_9_3/rearranged_h_0025.sdf

> <i_m_source_file_index>
10

> <r_mmod_Potential_Energy-OPLS-2005>
107.175880432129

> <r_mmod_Stretch_Energy-OPLS-2005>
133.608169555664

> <r_mmod_Bend_Energy-OPLS-2005>
210.602432250977

> <r_mmod_Torsional_Energy-OPLS-2005>
236.366546630859

> <r_mmod_Improper_Torsional_Energy-OPLS-2005>
7.12144708633423

> <r_mmod_Van_der_Waal_Energy-OPLS-2005>
134.313781738281

> <r_mmod_Electrostatic_Energy-OPLS-2005>
-444.811401367188

> <r_mmod_Solvation_Energy-OPLS-2005>
-260.191680908203

> <b_mmod_Minimization_Converged-OPLS-2005>
0

> <r_mmod_RMS_Derivative-OPLS-2005>
2.86266851425171

$$$$
10
                    3D
 Structure written by MMmdl.
172181  0  0  1  0            999 V2000
  -30.6932  -14.4580   20.5919 C   0  0  0  0  0  0
  -30.4193  -12.2922   19.4398 C   0  0  0  0  0  0
  -29.4997  -12.5076   18.2192 C   0  0  0  0  0  0
  -28.0210  -12.3555   18.6309 C   0  0  0  0  0  0
  -27.6617  -13.2009   19.8824 C   0  0  2  0  0  0
  -28.6962  -12.9675   21.0072 C   0  0  0  0  0  0
  -25.2564  -13.8129   20.5658 C   0  0  0  0  0  0
  -24.1817  -13.0423   20.9159 C   0  0  0  0  0  0
  -24.6365  -11.6884   20.8726 C   0  0  0  0  0  0
  -23.9040  -10.4281   21.0405 C   0  0  0  0  0  0
  -24.3595   -9.4194   21.9180 C   0  0  0  0  0  0
  -23.6271   -8.2232   22.0755 C   0  0  0  0  0  0
  -22.4257   -8.0266   21.3541 C   0  0  0  0  0  0
  -21.9893   -9.0239   20.4642 C   0  0  0  0  0  0
  -22.7218  -10.2114   20.3051 C   0  0  0  0  0  0
  -21.6832   -6.0717   22.5275 C   0  0  0  0  0  0
  -21.4012   -6.5631   23.8211 C   0  0  0  0  0  0
  -21.3674   -5.6787   24.9173 C   0  0  0  0  0  0
  -21.6048   -4.3047   24.7223 C   0  0  0  0  0  0
  -21.8813   -3.8136   23.4347 C   0  0  0  0  0  0
  -21.9188   -4.6951   22.3399 C   0  0  0  0  0  0
  -22.7844  -13.5229   21.1853 C   0  0  0  0  0  0
  -22.1648   -4.2138   21.0974 F   0  0  0  0  0  0
  -21.5641   -3.4538   25.7739 F   0  0  0  0  0  0
  -30.0346  -13.2722   20.4679 N   0  0  0  0  0  0
  -26.3001  -12.9298   20.3380 N   0  0  0  0  0  0
  -25.9289  -11.6459   20.5761 N   0  0  0  0  0  0
  -22.0500  -12.8204   22.0401 N   0  0  0  0  0  0
  -25.4323  -15.1840   20.4043 N   0  0  0  0  0  0
  -31.7896  -14.6742   20.0682 O   0  0  0  0  0  0
  -21.6619   -6.8858   21.4239 O   0  0  0  0  0  0
  -22.3539  -14.5562   20.6734 O   0  0  0  0  0  0
  -24.6081  -31.8676   23.2105 C   0  0  0  0  0  0
  -25.8968  -32.4829   23.8420 C   0  0  1  0  0  0
  -27.2282  -27.4337   20.0995 C   0  0  0  0  0  0
  -25.5853  -33.8626   24.2350 N   0  0  0  0  0  0
  -23.3988  -30.4900   21.5463 C   0  0  2  0  0  0
  -24.8416  -28.9561   20.1065 C   0  0  0  0  0  0
  -22.7408  -29.4647   22.4954 C   0  0  0  0  0  0
  -18.0285  -28.1334   22.8463 C   0  0  0  0  0  0
  -24.1487  -36.7310   23.2660 C   0  0  0  0  0  0
  -25.9254  -30.8317   21.3655 C   0  0  0  0  0  0
  -25.9938  -29.4662   20.7138 C   0  0  0  0  0  0
  -27.1807  -28.7050   20.7142 C   0  0  0  0  0  0
  -26.0640  -26.9413   19.4693 C   0  0  0  0  0  0
  -24.8722  -27.6957   19.4810 C   0  0  0  0  0  0
  -23.6042  -29.8237   20.1585 C   0  0  0  0  0  0
  -25.4097  -36.3100   24.0372 C   0  0  1  0  0  0
  -20.5878  -28.3613   23.1292 C   0  0  2  0  0  0
  -20.6747  -26.9341   22.5390 C   0  0  0  0  0  0
  -19.5746  -26.6343   21.5168 C   0  0  0  0  0  0
  -18.1935  -26.7873   22.1592 C   0  0  0  0  0  0
  -19.1536  -28.8789   23.2875 C   0  0  0  0  0  0
  -18.9485  -30.1397   23.8879 C   0  0  0  0  0  0
  -17.6483  -30.6540   24.0545 C   0  0  0  0  0  0
  -25.9023  -34.9463   23.5158 C   0  0  0  0  0  0
  -16.5367  -29.9045   23.6320 C   0  0  0  0  0  0
  -16.7271  -28.6470   23.0325 C   0  0  0  0  0  0
  -26.4401  -31.6627   25.0763 C   0  0  0  0  0  0
  -25.3704  -31.3725   26.1558 C   0  0  0  0  0  0
  -27.0247  -30.3100   24.6092 C   0  0  0  0  0  0
  -27.5992  -32.4356   25.7504 C   0  0  0  0  0  0
  -27.5586  -37.1808   24.8479 C   0  0  0  0  0  0
  -21.4139  -29.3004   22.3697 N   0  0  0  0  0  0
  -26.4289  -37.3783   23.9440 N   0  0  0  0  0  0
  -24.6628  -31.0800   22.0991 N   0  0  0  0  0  0
  -23.4198  -28.8157   23.2943 O   0  0  0  0  0  0
  -28.4300  -26.7667   20.1912 O   0  0  0  0  0  0
  -26.5592  -34.8891   22.4728 O   0  0  0  0  0  0
  -23.5266  -32.1431   23.7505 O   0  0  0  0  0  0
  -29.5195  -19.6247   23.4918 C   0  0  0  0  0  0
  -29.1699  -21.8213   24.4410 C   0  0  0  0  0  0
  -28.5344  -21.3880   22.1000 C   0  0  0  0  0  0
  -28.9867  -20.0284   22.2419 C   0  0  0  0  0  0
  -29.6601  -20.5176   24.5619 C   0  0  0  0  0  0
  -28.5736  -22.2406   23.2419 C   0  0  0  0  0  0
  -29.9823  -23.5038   20.4320 C   0  0  0  0  0  0
  -31.1174  -22.7743   20.4455 C   0  0  0  0  0  0
  -29.9108  -25.0105   20.5372 C   0  0  0  0  0  0
  -27.7527  -24.2690   19.9093 C   0  0  0  0  0  0
  -28.7117  -25.4534   19.6922 C   0  0  1  0  0  0
  -31.2685  -21.2989   20.1355 C   0  0  0  0  0  0
  -31.4111  -17.3052   22.0328 C   0  0  0  0  0  0
  -27.9123  -21.9299   20.7927 C   0  0  0  0  0  0
  -28.9080  -17.6284   21.4474 C   0  0  0  0  0  0
  -30.2366  -16.8829   21.1276 C   0  0  2  0  0  0
  -28.9273  -19.0780   21.1918 N   0  0  0  0  0  0
  -30.0008  -15.4331   21.2088 N   0  0  0  0  0  0
  -28.6019  -23.0515   20.0598 N   0  3  2  0  0  0
  -30.4292  -20.0106   26.0217 Cl  0  0  0  0  0  0
  -27.8803  -23.8205   23.2469 Cl  0  0  0  0  0  0
  -31.4699  -12.3712   19.1557 H   0  0  0  0  0  0
  -30.2946  -11.2813   19.8316 H   0  0  0  0  0  0
  -29.7434  -11.7930   17.4317 H   0  0  0  0  0  0
  -29.6670  -13.5008   17.7977 H   0  0  0  0  0  0
  -27.8483  -11.2988   18.8419 H   0  0  0  0  0  0
  -27.3655  -12.6056   17.7964 H   0  0  0  0  0  0
  -27.7123  -14.2499   19.5900 H   0  0  0  0  0  0
  -28.6654  -11.9261   21.3289 H   0  0  0  0  0  0
  -28.4528  -13.5447   21.8990 H   0  0  0  0  0  0
  -25.2744   -9.5651   22.4749 H   0  0  0  0  0  0
  -23.9974   -7.4611   22.7472 H   0  0  0  0  0  0
  -21.0825   -8.8746   19.8938 H   0  0  0  0  0  0
  -22.3687  -10.9641   19.6147 H   0  0  0  0  0  0
  -21.2005   -7.6138   23.9707 H   0  0  0  0  0  0
  -21.1508   -6.0518   25.9072 H   0  0  0  0  0  0
  -22.0587   -2.7601   23.2843 H   0  0  0  0  0  0
  -22.4113  -11.9837   22.4736 H   0  0  0  0  0  0
  -21.1136  -13.1234   22.2682 H   0  0  0  0  0  0
  -24.6685  -15.8439   20.5047 H   0  0  0  0  0  0
  -26.2852  -15.6102   20.0666 H   0  0  0  0  0  0
  -26.7041  -32.5512   23.1185 H   0  0  0  0  0  0
  -25.0017  -33.9800   25.0495 H   0  0  0  0  0  0
  -22.6871  -31.3064   21.4105 H   0  0  0  0  0  0
  -23.3737  -35.9662   23.3311 H   0  0  0  0  0  0
  -24.3598  -36.8914   22.2084 H   0  0  0  0  0  0
  -23.7218  -37.6515   23.6650 H   0  0  0  0  0  0
  -26.0393  -31.5974   20.5960 H   0  0  0  0  0  0
  -26.8144  -30.8834   21.9835 H   0  0  0  0  0  0
  -28.0660  -29.0870   21.2016 H   0  0  0  0  0  0
  -26.0404  -25.9925   18.9626 H   0  0  0  0  0  0
  -23.9863  -27.3082   18.9965 H   0  0  0  0  0  0
  -23.7049  -30.5976   19.3955 H   0  0  0  0  0  0
  -22.7293  -29.2386   19.8650 H   0  0  0  0  0  0
  -25.1259  -36.2000   25.0868 H   0  0  0  0  0  0
  -20.9995  -28.3156   24.1401 H   0  0  0  0  0  0
  -20.5587  -26.2229   23.3575 H   0  0  0  0  0  0
  -21.6634  -26.7329   22.1244 H   0  0  0  0  0  0
  -19.6905  -25.6257   21.1201 H   0  0  0  0  0  0
  -19.6685  -27.3134   20.6673 H   0  0  0  0  0  0
  -17.4209  -26.6611   21.3998 H   0  0  0  0  0  0
  -18.0352  -25.9985   22.8964 H   0  0  0  0  0  0
  -19.7962  -30.7206   24.2244 H   0  0  0  0  0  0
  -17.5044  -31.6224   24.5134 H   0  0  0  0  0  0
  -15.5373  -30.2955   23.7619 H   0  0  0  0  0  0
  -15.8674  -28.0789   22.7031 H   0  0  0  0  0  0
  -24.5892  -30.7030   25.7960 H   0  0  0  0  0  0
  -24.8867  -32.2874   26.5002 H   0  0  0  0  0  0
  -25.8115  -30.8961   27.0333 H   0  0  0  0  0  0
  -26.2802  -29.6882   24.1132 H   0  0  0  0  0  0
  -27.4034  -29.7286   25.4502 H   0  0  0  0  0  0
  -27.8611  -30.4501   23.9242 H   0  0  0  0  0  0
  -27.2646  -33.3685   26.2058 H   0  0  0  0  0  0
  -28.3797  -32.6875   25.0316 H   0  0  0  0  0  0
  -28.0652  -31.8513   26.5433 H   0  0  0  0  0  0
  -28.2587  -38.0119   24.7512 H   0  0  0  0  0  0
  -28.1087  -36.2641   24.6308 H   0  0  0  0  0  0
  -27.2319  -37.1473   25.8886 H   0  0  0  0  0  0
  -20.9267  -29.8804   21.7012 H   0  0  0  0  0  0
  -26.0177  -38.2874   24.1425 H   0  0  0  0  0  0
  -29.8609  -18.6190   23.6649 H   0  0  0  0  0  0
  -29.2332  -22.5025   25.2756 H   0  0  0  0  0  0
  -32.0419  -23.2850   20.6778 H   0  0  0  0  0  0
  -30.8356  -25.4905   20.2188 H   0  0  0  0  0  0
  -29.7522  -25.2652   21.5857 H   0  0  0  0  0  0
  -27.0571  -24.1218   19.0836 H   0  0  0  0  0  0
  -27.1629  -24.4594   20.8015 H   0  0  0  0  0  0
  -29.0034  -25.5144   18.6431 H   0  0  0  0  0  0
  -31.5497  -20.7440   21.0327 H   0  0  0  0  0  0
  -32.0535  -21.1519   19.3941 H   0  0  0  0  0  0
  -30.3534  -20.8744   19.7271 H   0  0  0  0  0  0
  -31.5532  -18.3859   22.0125 H   0  0  0  0  0  0
  -32.3493  -16.8602   21.7052 H   0  0  0  0  0  0
  -31.2552  -17.0063   23.0694 H   0  0  0  0  0  0
  -26.8828  -22.2082   21.0209 H   0  0  0  0  0  0
  -27.8064  -21.1231   20.0711 H   0  0  0  0  0  0
  -28.5644  -17.3986   22.4580 H   0  0  0  0  0  0
  -28.1309  -17.2242   20.7989 H   0  0  0  0  0  0
  -30.5109  -17.1081   20.0954 H   0  0  0  0  0  0
  -28.5713  -19.3572   20.2811 H   0  0  0  0  0  0
  -29.1330  -15.1454   21.6340 H   0  0  0  0  0  0
  -28.6768  -22.6970   19.1160 H   0  0  0  0  0  0
  1 25  1  0  0  0
  1 30  2  0  0  0
  1 88  1  0  0  0
  2  3  1  0  0  0
  2 25  1  0  0  0
  2 92  1  0  0  0
  2 93  1  0  0  0
  3  4  1  0  0  0
  3 94  1  0  0  0
  3 95  1  0  0  0
  4  5  1  0  0  0
  4 96  1  0  0  0
  4 97  1  0  0  0
  5  6  1  0  0  0
  5 26  1  0  0  0
  5 98  1  0  0  0
  6 25  1  0  0  0
  6 99  1  0  0  0
  6100  1  0  0  0
  7  8  2  0  0  0
  7 26  1  0  0  0
  7 29  1  0  0  0
  8  9  1  0  0  0
  8 22  1  0  0  0
  9 10  1  0  0  0
  9 27  2  0  0  0
 10 11  2  0  0  0
 10 15  1  0  0  0
 11 12  1  0  0  0
 11101  1  0  0  0
 12 13  2  0  0  0
 12102  1  0  0  0
 13 14  1  0  0  0
 13 31  1  0  0  0
 14 15  2  0  0  0
 14103  1  0  0  0
 15104  1  0  0  0
 16 17  2  0  0  0
 16 21  1  0  0  0
 16 31  1  0  0  0
 17 18  1  0  0  0
 17105  1  0  0  0
 18 19  2  0  0  0
 18106  1  0  0  0
 19 20  1  0  0  0
 19 24  1  0  0  0
 20 21  2  0  0  0
 20107  1  0  0  0
 21 23  1  0  0  0
 22 28  1  0  0  0
 22 32  2  0  0  0
 26 27  1  0  0  0
 28108  1  0  0  0
 28109  1  0  0  0
 29110  1  0  0  0
 29111  1  0  0  0
 33 34  1  0  0  0
 33 66  1  0  0  0
 33 70  2  0  0  0
 34 36  1  0  0  0
 34 59  1  0  0  0
 34112  1  0  0  0
 35 44  2  0  0  0
 35 45  1  0  0  0
 35 68  1  0  0  0
 36 56  1  0  0  0
 36113  1  0  0  0
 37 39  1  0  0  0
 37 47  1  0  0  0
 37 66  1  0  0  0
 37114  1  0  0  0
 38 43  2  0  0  0
 38 46  1  0  0  0
 38 47  1  0  0  0
 39 64  1  0  0  0
 39 67  2  0  0  0
 40 52  1  0  0  0
 40 53  2  0  0  0
 40 58  1  0  0  0
 41115  1  0  0  0
 41116  1  0  0  0
 41117  1  0  0  0
 41 48  1  0  0  0
 42 43  1  0  0  0
 42 66  1  0  0  0
 42118  1  0  0  0
 42119  1  0  0  0
 43 44  1  0  0  0
 44120  1  0  0  0
 45 46  2  0  0  0
 45121  1  0  0  0
 46122  1  0  0  0
 47123  1  0  0  0
 47124  1  0  0  0
 48 56  1  0  0  0
 48 65  1  0  0  0
 48125  1  0  0  0
 49 50  1  0  0  0
 49 53  1  0  0  0
 49 64  1  0  0  0
 49126  1  0  0  0
 50 51  1  0  0  0
 50127  1  0  0  0
 50128  1  0  0  0
 51 52  1  0  0  0
 51129  1  0  0  0
 51130  1  0  0  0
 52131  1  0  0  0
 52132  1  0  0  0
 53 54  1  0  0  0
 54 55  2  0  0  0
 54133  1  0  0  0
 55 57  1  0  0  0
 55134  1  0  0  0
 56 69  2  0  0  0
 57 58  2  0  0  0
 57135  1  0  0  0
 58136  1  0  0  0
 59 60  1  0  0  0
 59 61  1  0  0  0
 59 62  1  0  0  0
 60137  1  0  0  0
 60138  1  0  0  0
 60139  1  0  0  0
 61140  1  0  0  0
 61141  1  0  0  0
 61142  1  0  0  0
 62143  1  0  0  0
 62144  1  0  0  0
 62145  1  0  0  0
 63 65  1  0  0  0
 63146  1  0  0  0
 63147  1  0  0  0
 63148  1  0  0  0
 64149  1  0  0  0
 65150  1  0  0  0
 68 81  1  0  0  0
 71 74  2  0  0  0
 71 75  1  0  0  0
 71151  1  0  0  0
 72 75  2  0  0  0
 72 76  1  0  0  0
 72152  1  0  0  0
 73 74  1  0  0  0
 73 76  2  0  0  0
 73 84  1  0  0  0
 74 87  1  0  0  0
 75 90  1  0  0  0
 76 91  1  0  0  0
 77 78  2  0  0  0
 77 79  1  0  0  0
 77 89  1  0  0  0
 78 82  1  0  0  0
 78153  1  0  0  0
 79 81  1  0  0  0
 79154  1  0  0  0
 79155  1  0  0  0
 80 81  1  0  0  0
 80 89  1  0  0  0
 80156  1  0  0  0
 80157  1  0  0  0
 81158  1  0  0  0
 82159  1  0  0  0
 82160  1  0  0  0
 82161  1  0  0  0
 83162  1  0  0  0
 83163  1  0  0  0
 83164  1  0  0  0
 83 86  1  0  0  0
 84165  1  0  0  0
 84166  1  0  0  0
 84 89  1  0  0  0
 85 86  1  0  0  0
 85 87  1  0  0  0
 85167  1  0  0  0
 85168  1  0  0  0
 86 88  1  0  0  0
 86169  1  0  0  0
 87170  1  0  0  0
 88171  1  0  0  0
 89172  1  0  0  0
M  CHG  1  89   1
M  ISO  4   1 100  68 101  81 101  88 100
M  END
> <chiral flag>
0

> <version>
0

> <s_m_source_file>
/data/baiqing/PycharmProjects/Reinvent-master-3.2/result/LINK_invent/BTK/process_docking_weight1_custom_product_contain_oxygen_bond_distance_aromatic_linkinvent_7_9_3/rearranged_h_0025.sdf

> <i_m_source_file_index>
11

> <r_mmod_Potential_Energy-OPLS-2005>
-159.779357910156

> <r_mmod_Stretch_Energy-OPLS-2005>
45.4899406433105

> <r_mmod_Bend_Energy-OPLS-2005>
189.488098144531

> <r_mmod_Torsional_Energy-OPLS-2005>
223.186599731445

> <r_mmod_Improper_Torsional_Energy-OPLS-2005>
5.34600830078125

> <r_mmod_Van_der_Waal_Energy-OPLS-2005>
143.783828735352

> <r_mmod_Electrostatic_Energy-OPLS-2005>
-331.398376464844

> <r_mmod_Solvation_Energy-OPLS-2005>
-449.912933349609

> <b_mmod_Minimization_Converged-OPLS-2005>
0

> <r_mmod_RMS_Derivative-OPLS-2005>
4.30578756332397

$$$$
11
                    3D
 Structure written by MMmdl.
180189  0  0  1  0            999 V2000
  -30.7208  -14.4225   20.6158 C   0  0  0  0  0  0
  -30.4135  -12.2888   19.4049 C   0  0  0  0  0  0
  -29.4857  -12.5082   18.1941 C   0  0  0  0  0  0
  -28.0082  -12.3742   18.6136 C   0  0  0  0  0  0
  -27.6636  -13.2016   19.8800 C   0  0  2  0  0  0
  -28.7071  -12.9527   20.9938 C   0  0  0  0  0  0
  -25.2606  -13.8144   20.5682 C   0  0  0  0  0  0
  -24.1836  -13.0426   20.9188 C   0  0  0  0  0  0
  -24.6381  -11.6903   20.8750 C   0  0  0  0  0  0
  -23.9030  -10.4287   21.0405 C   0  0  0  0  0  0
  -24.3578   -9.4217   21.9188 C   0  0  0  0  0  0
  -23.6268   -8.2250   22.0761 C   0  0  0  0  0  0
  -22.4261   -8.0266   21.3537 C   0  0  0  0  0  0
  -21.9888   -9.0246   20.4651 C   0  0  0  0  0  0
  -22.7199  -10.2136   20.3059 C   0  0  0  0  0  0
  -21.6843   -6.0722   22.5273 C   0  0  0  0  0  0
  -21.4013   -6.5627   23.8205 C   0  0  0  0  0  0
  -21.3673   -5.6798   24.9175 C   0  0  0  0  0  0
  -21.6038   -4.3047   24.7230 C   0  0  0  0  0  0
  -21.8824   -3.8137   23.4358 C   0  0  0  0  0  0
  -21.9198   -4.6937   22.3399 C   0  0  0  0  0  0
  -22.7876  -13.5248   21.1852 C   0  0  0  0  0  0
  -22.1660   -4.2119   21.0982 F   0  0  0  0  0  0
  -21.5642   -3.4547   25.7754 F   0  0  0  0  0  0
  -30.0342  -13.2608   20.4414 N   0  0  0  0  0  0
  -26.3025  -12.9305   20.3396 N   0  0  0  0  0  0
  -25.9301  -11.6465   20.5764 N   0  0  0  0  0  0
  -22.0487  -12.8251   22.0411 N   0  0  0  0  0  0
  -25.4356  -15.1844   20.4112 N   0  0  0  0  0  0
  -31.8249  -14.6052   20.0930 O   0  0  0  0  0  0
  -21.6648   -6.8846   21.4227 O   0  0  0  0  0  0
  -22.3588  -14.5547   20.6688 O   0  0  0  0  0  0
  -24.6068  -31.8697   23.2070 C   0  0  0  0  0  0
  -25.8999  -32.4807   23.8334 C   0  0  1  0  0  0
  -27.2315  -27.4362   20.0879 C   0  0  0  0  0  0
  -25.5863  -33.8598   24.2279 N   0  0  0  0  0  0
  -23.3932  -30.4952   21.5447 C   0  0  2  0  0  0
  -24.8388  -28.9588   20.1135 C   0  0  0  0  0  0
  -22.7375  -29.4652   22.4911 C   0  0  0  0  0  0
  -18.0271  -28.1319   22.8431 C   0  0  0  0  0  0
  -24.1510  -36.7304   23.2620 C   0  0  0  0  0  0
  -25.9202  -30.8344   21.3665 C   0  0  0  0  0  0
  -25.9988  -29.4709   20.7077 C   0  0  0  0  0  0
  -27.1933  -28.7148   20.6957 C   0  0  0  0  0  0
  -26.0401  -26.9318   19.5116 C   0  0  0  0  0  0
  -24.8522  -27.6881   19.5191 C   0  0  0  0  0  0
  -23.5991  -29.8234   20.1599 C   0  0  0  0  0  0
  -25.4139  -36.3073   24.0283 C   0  0  1  0  0  0
  -20.5869  -28.3651   23.1233 C   0  0  2  0  0  0
  -20.6762  -26.9362   22.5367 C   0  0  0  0  0  0
  -19.5771  -26.6334   21.5109 C   0  0  0  0  0  0
  -18.1951  -26.7878   22.1535 C   0  0  0  0  0  0
  -19.1519  -28.8785   23.2839 C   0  0  0  0  0  0
  -18.9474  -30.1393   23.8867 C   0  0  0  0  0  0
  -17.6486  -30.6561   24.0503 C   0  0  0  0  0  0
  -25.9024  -34.9449   23.5072 C   0  0  0  0  0  0
  -16.5369  -29.9051   23.6289 C   0  0  0  0  0  0
  -16.7270  -28.6444   23.0315 C   0  0  0  0  0  0
  -26.4464  -31.6584   25.0657 C   0  0  0  0  0  0
  -25.3740  -31.3697   26.1397 C   0  0  0  0  0  0
  -27.0331  -30.2988   24.6098 C   0  0  0  0  0  0
  -27.6006  -32.4309   25.7474 C   0  0  0  0  0  0
  -27.5600  -37.1806   24.8460 C   0  0  0  0  0  0
  -21.4101  -29.3050   22.3640 N   0  0  0  0  0  0
  -26.4333  -37.3754   23.9384 N   0  0  0  0  0  0
  -24.6557  -31.0860   22.0936 N   0  0  0  0  0  0
  -23.4145  -28.8182   23.2950 O   0  0  0  0  0  0
  -28.4427  -26.7679   20.0777 O   0  0  0  0  0  0
  -26.5643  -34.8879   22.4656 O   0  0  0  0  0  0
  -23.5276  -32.1408   23.7522 O   0  0  0  0  0  0
  -31.6036  -21.8846   22.2907 C   0  0  0  0  0  0
  -30.2063  -19.9497   21.7843 C   0  0  0  0  0  0
  -32.5641  -19.6413   22.2846 C   0  0  0  0  0  0
  -30.3423  -21.3452   21.9535 C   0  0  0  0  0  0
  -32.7205  -21.0356   22.4602 C   0  0  0  0  0  0
  -31.3157  -19.0869   21.9304 C   0  0  0  0  0  0
  -30.4085  -16.9956   20.8281 C   0  0  0  0  0  0
  -30.0015  -17.4003   19.6044 C   0  0  0  0  0  0
  -28.5047  -24.4039   20.7891 C   0  0  0  0  0  0
  -30.5768  -15.6722   22.8458 C   0  0  0  0  0  0
  -31.5096  -16.8870   22.9171 C   0  0  0  0  0  0
  -30.0829  -15.6105   21.3878 C   0  0  2  0  0  0
  -30.3414  -18.6907   18.8817 C   0  0  0  0  0  0
  -29.6083  -22.6195   19.4199 C   0  0  0  0  0  0
  -36.0454  -22.9172   22.1318 C   0  0  0  0  0  0
  -35.2138  -21.0867   20.7179 C   0  0  0  0  0  0
  -29.1150  -22.2502   21.8272 C   0  0  0  0  0  0
  -34.0791  -21.6152   22.8556 C   0  0  0  0  0  0
  -28.5691  -25.4098   19.6133 C   0  0  0  0  0  0
  -31.1856  -17.6934   21.7522 N   0  0  0  0  0  0
  -29.1041  -23.1843   20.6812 N   0  0  0  0  0  0
  -34.8620  -22.1337   21.7047 N   0  3  0  0  0  0
  -27.9192  -24.7485   21.8234 O   0  0  0  0  0  0
  -31.4583  -12.3705   19.1055 H   0  0  0  0  0  0
  -30.2974  -11.2733   19.7859 H   0  0  0  0  0  0
  -29.7184  -11.7876   17.4084 H   0  0  0  0  0  0
  -29.6624  -13.4955   17.7642 H   0  0  0  0  0  0
  -27.8176  -11.3162   18.7991 H   0  0  0  0  0  0
  -27.3534  -12.6557   17.7893 H   0  0  0  0  0  0
  -27.7183  -14.2546   19.6014 H   0  0  0  0  0  0
  -28.6795  -11.9056   21.3048 H   0  0  0  0  0  0
  -28.4786  -13.5216   21.8961 H   0  0  0  0  0  0
  -25.2704   -9.5719   22.4791 H   0  0  0  0  0  0
  -23.9982   -7.4651   22.7492 H   0  0  0  0  0  0
  -21.0813   -8.8741   19.8961 H   0  0  0  0  0  0
  -22.3612  -10.9676   19.6191 H   0  0  0  0  0  0
  -21.1999   -7.6144   23.9681 H   0  0  0  0  0  0
  -21.1496   -6.0537   25.9069 H   0  0  0  0  0  0
  -22.0594   -2.7593   23.2874 H   0  0  0  0  0  0
  -22.4089  -11.9920   22.4819 H   0  0  0  0  0  0
  -21.1105  -13.1311   22.2573 H   0  0  0  0  0  0
  -24.6729  -15.8434   20.5223 H   0  0  0  0  0  0
  -26.2955  -15.6221   20.1052 H   0  0  0  0  0  0
  -26.7065  -32.5556   23.1112 H   0  0  0  0  0  0
  -25.0018  -33.9728   25.0431 H   0  0  0  0  0  0
  -22.6762  -31.3072   21.4109 H   0  0  0  0  0  0
  -23.3741  -35.9681   23.3297 H   0  0  0  0  0  0
  -24.3578  -36.8905   22.2025 H   0  0  0  0  0  0
  -23.7301  -37.6492   23.6689 H   0  0  0  0  0  0
  -26.0587  -31.6095   20.6117 H   0  0  0  0  0  0
  -26.7949  -30.8693   22.0035 H   0  0  0  0  0  0
  -28.0883  -29.1090   21.1598 H   0  0  0  0  0  0
  -25.9882  -25.9591   19.0495 H   0  0  0  0  0  0
  -23.9538  -27.2893   19.0696 H   0  0  0  0  0  0
  -23.7013  -30.5906   19.3910 H   0  0  0  0  0  0
  -22.7254  -29.2337   19.8747 H   0  0  0  0  0  0
  -25.1340  -36.1901   25.0777 H   0  0  0  0  0  0
  -20.9969  -28.3276   24.1348 H   0  0  0  0  0  0
  -20.5586  -26.2276   23.3588 H   0  0  0  0  0  0
  -21.6665  -26.7393   22.1240 H   0  0  0  0  0  0
  -19.6925  -25.6222   21.1187 H   0  0  0  0  0  0
  -19.6702  -27.3083   20.6588 H   0  0  0  0  0  0
  -17.4199  -26.6501   21.3974 H   0  0  0  0  0  0
  -18.0453  -26.0041   22.8967 H   0  0  0  0  0  0
  -19.7983  -30.7160   24.2235 H   0  0  0  0  0  0
  -17.5085  -31.6247   24.5136 H   0  0  0  0  0  0
  -15.5371  -30.2967   23.7647 H   0  0  0  0  0  0
  -15.8655  -28.0773   22.7078 H   0  0  0  0  0  0
  -24.5951  -30.6996   25.7721 H   0  0  0  0  0  0
  -24.8932  -32.2885   26.4749 H   0  0  0  0  0  0
  -25.8071  -30.8925   27.0204 H   0  0  0  0  0  0
  -26.2890  -29.6691   24.1187 H   0  0  0  0  0  0
  -27.4073  -29.7247   25.4598 H   0  0  0  0  0  0
  -27.8764  -30.4230   23.9294 H   0  0  0  0  0  0
  -27.2562  -33.3602   26.2046 H   0  0  0  0  0  0
  -28.3853  -32.6855   25.0333 H   0  0  0  0  0  0
  -28.0668  -31.8465   26.5406 H   0  0  0  0  0  0
  -28.2600  -38.0122   24.7509 H   0  0  0  0  0  0
  -28.1111  -36.2628   24.6347 H   0  0  0  0  0  0
  -27.2302  -37.1504   25.8856 H   0  0  0  0  0  0
  -20.9201  -29.8803   21.6915 H   0  0  0  0  0  0
  -26.0179  -38.2805   24.1394 H   0  0  0  0  0  0
  -31.7030  -22.9509   22.4474 H   0  0  0  0  0  0
  -29.2390  -19.5351   21.5391 H   0  0  0  0  0  0
  -33.4182  -18.9876   22.4037 H   0  0  0  0  0  0
  -29.3673  -16.7362   19.0363 H   0  0  0  0  0  0
  -29.7250  -15.8172   23.5121 H   0  0  0  0  0  0
  -31.0824  -14.7645   23.1762 H   0  0  0  0  0  0
  -32.5527  -16.5701   22.8678 H   0  0  0  0  0  0
  -31.3704  -17.4321   23.8538 H   0  0  0  0  0  0
  -28.9962  -15.5407   21.3682 H   0  0  0  0  0  0
  -31.1937  -19.2108   19.3149 H   0  0  0  0  0  0
  -29.4811  -19.3585   18.8836 H   0  0  0  0  0  0
  -30.5986  -18.4698   17.8464 H   0  0  0  0  0  0
  -30.6829  -22.4360   19.4630 H   0  0  0  0  0  0
  -29.4153  -23.2207   18.5357 H   0  0  0  0  0  0
  -29.1199  -21.6645   19.2338 H   0  0  0  0  0  0
  -36.5383  -23.3686   21.2699 H   0  0  0  0  0  0
  -36.7761  -22.2949   22.6507 H   0  0  0  0  0  0
  -35.7660  -23.7308   22.8020 H   0  0  0  0  0  0
  -35.8073  -21.4971   19.9004 H   0  0  0  0  0  0
  -34.3188  -20.6443   20.2776 H   0  0  0  0  0  0
  -35.7868  -20.2841   21.1833 H   0  0  0  0  0  0
  -29.0387  -22.7871   22.7755 H   0  0  0  0  0  0
  -28.2147  -21.6352   21.7722 H   0  0  0  0  0  0
  -34.6676  -20.8611   23.3824 H   0  0  0  0  0  0
  -33.9087  -22.4239   23.5678 H   0  0  0  0  0  0
  -27.8740  -25.1324   18.8277 H   0  0  0  0  0  0
  -29.5568  -25.3503   19.1532 H   0  0  0  0  0  0
  -34.2584  -22.7883   21.2295 H   0  0  0  0  0  0
  1 25  1  0  0  0
  1 30  2  0  0  0
  1 82  1  0  0  0
  2  3  1  0  0  0
  2 25  1  0  0  0
  2 94  1  0  0  0
  2 95  1  0  0  0
  3  4  1  0  0  0
  3 96  1  0  0  0
  3 97  1  0  0  0
  4  5  1  0  0  0
  4 98  1  0  0  0
  4 99  1  0  0  0
  5  6  1  0  0  0
  5 26  1  0  0  0
  5100  1  0  0  0
  6 25  1  0  0  0
  6101  1  0  0  0
  6102  1  0  0  0
  7  8  2  0  0  0
  7 26  1  0  0  0
  7 29  1  0  0  0
  8  9  1  0  0  0
  8 22  1  0  0  0
  9 10  1  0  0  0
  9 27  2  0  0  0
 10 11  2  0  0  0
 10 15  1  0  0  0
 11 12  1  0  0  0
 11103  1  0  0  0
 12 13  2  0  0  0
 12104  1  0  0  0
 13 14  1  0  0  0
 13 31  1  0  0  0
 14 15  2  0  0  0
 14105  1  0  0  0
 15106  1  0  0  0
 16 17  2  0  0  0
 16 21  1  0  0  0
 16 31  1  0  0  0
 17 18  1  0  0  0
 17107  1  0  0  0
 18 19  2  0  0  0
 18108  1  0  0  0
 19 20  1  0  0  0
 19 24  1  0  0  0
 20 21  2  0  0  0
 20109  1  0  0  0
 21 23  1  0  0  0
 22 28  1  0  0  0
 22 32  2  0  0  0
 26 27  1  0  0  0
 28110  1  0  0  0
 28111  1  0  0  0
 29112  1  0  0  0
 29113  1  0  0  0
 33 34  1  0  0  0
 33 66  1  0  0  0
 33 70  2  0  0  0
 34 36  1  0  0  0
 34 59  1  0  0  0
 34114  1  0  0  0
 35 44  2  0  0  0
 35 45  1  0  0  0
 35 68  1  0  0  0
 36 56  1  0  0  0
 36115  1  0  0  0
 37 39  1  0  0  0
 37 47  1  0  0  0
 37 66  1  0  0  0
 37116  1  0  0  0
 38 43  2  0  0  0
 38 46  1  0  0  0
 38 47  1  0  0  0
 39 64  1  0  0  0
 39 67  2  0  0  0
 40 52  1  0  0  0
 40 53  2  0  0  0
 40 58  1  0  0  0
 41117  1  0  0  0
 41118  1  0  0  0
 41119  1  0  0  0
 41 48  1  0  0  0
 42 43  1  0  0  0
 42 66  1  0  0  0
 42120  1  0  0  0
 42121  1  0  0  0
 43 44  1  0  0  0
 44122  1  0  0  0
 45 46  2  0  0  0
 45123  1  0  0  0
 46124  1  0  0  0
 47125  1  0  0  0
 47126  1  0  0  0
 48 56  1  0  0  0
 48 65  1  0  0  0
 48127  1  0  0  0
 49 50  1  0  0  0
 49 53  1  0  0  0
 49 64  1  0  0  0
 49128  1  0  0  0
 50 51  1  0  0  0
 50129  1  0  0  0
 50130  1  0  0  0
 51 52  1  0  0  0
 51131  1  0  0  0
 51132  1  0  0  0
 52133  1  0  0  0
 52134  1  0  0  0
 53 54  1  0  0  0
 54 55  2  0  0  0
 54135  1  0  0  0
 55 57  1  0  0  0
 55136  1  0  0  0
 56 69  2  0  0  0
 57 58  2  0  0  0
 57137  1  0  0  0
 58138  1  0  0  0
 59 60  1  0  0  0
 59 61  1  0  0  0
 59 62  1  0  0  0
 60139  1  0  0  0
 60140  1  0  0  0
 60141  1  0  0  0
 61142  1  0  0  0
 61143  1  0  0  0
 61144  1  0  0  0
 62145  1  0  0  0
 62146  1  0  0  0
 62147  1  0  0  0
 63 65  1  0  0  0
 63148  1  0  0  0
 63149  1  0  0  0
 63150  1  0  0  0
 64151  1  0  0  0
 65152  1  0  0  0
 68 89  1  0  0  0
 71 74  2  0  0  0
 71 75  1  0  0  0
 71153  1  0  0  0
 72 74  1  0  0  0
 72 76  2  0  0  0
 72154  1  0  0  0
 73 75  2  0  0  0
 73 76  1  0  0  0
 73155  1  0  0  0
 74 87  1  0  0  0
 75 88  1  0  0  0
 76 90  1  0  0  0
 77 78  2  0  0  0
 77 82  1  0  0  0
 77 90  1  0  0  0
 78 83  1  0  0  0
 78156  1  0  0  0
 79 89  1  0  0  0
 79 91  1  0  0  0
 79 93  2  0  0  0
 80 81  1  0  0  0
 80 82  1  0  0  0
 80157  1  0  0  0
 80158  1  0  0  0
 81 90  1  0  0  0
 81159  1  0  0  0
 81160  1  0  0  0
 82161  1  0  0  0
 83162  1  0  0  0
 83163  1  0  0  0
 83164  1  0  0  0
 84 91  1  0  0  0
 84165  1  0  0  0
 84166  1  0  0  0
 84167  1  0  0  0
 85168  1  0  0  0
 85169  1  0  0  0
 85170  1  0  0  0
 85 92  1  0  0  0
 86 92  1  0  0  0
 86171  1  0  0  0
 86172  1  0  0  0
 86173  1  0  0  0
 87 91  1  0  0  0
 87174  1  0  0  0
 87175  1  0  0  0
 88 92  1  0  0  0
 88176  1  0  0  0
 88177  1  0  0  0
 89178  1  0  0  0
 89179  1  0  0  0
 92180  1  0  0  0
M  CHG  1  92   1
M  ISO  4   1 100  68 101  82 100  89 101
M  END
> <chiral flag>
0

> <version>
0

> <s_m_source_file>
/data/baiqing/PycharmProjects/Reinvent-master-3.2/result/LINK_invent/BTK/process_docking_weight1_custom_product_contain_oxygen_bond_distance_aromatic_linkinvent_7_9_3/rearranged_h_0025.sdf

> <i_m_source_file_index>
12

> <r_mmod_Potential_Energy-OPLS-2005>
-109.710876464844

> <r_mmod_Stretch_Energy-OPLS-2005>
42.8597412109375

> <r_mmod_Bend_Energy-OPLS-2005>
144.041229248047

> <r_mmod_Torsional_Energy-OPLS-2005>
207.489181518555

> <r_mmod_Improper_Torsional_Energy-OPLS-2005>
3.88993048667908

> <r_mmod_Van_der_Waal_Energy-OPLS-2005>
156.918441772461

> <r_mmod_Electrostatic_Energy-OPLS-2005>
-204.108444213867

> <r_mmod_Solvation_Energy-OPLS-2005>
-470.928436279297

> <b_mmod_Minimization_Converged-OPLS-2005>
0

> <r_mmod_RMS_Derivative-OPLS-2005>
4.84756278991699

$$$$
12
                    3D
 Structure written by MMmdl.
158166  0  0  1  0            999 V2000
  -30.7336  -14.4872   20.5919 C   0  0  0  0  0  0
  -30.4168  -12.3304   19.4208 C   0  0  0  0  0  0
  -29.4871  -12.5040   18.2042 C   0  0  0  0  0  0
  -28.0132  -12.3445   18.6226 C   0  0  0  0  0  0
  -27.6523  -13.1993   19.8647 C   0  0  2  0  0  0
  -28.6990  -13.0227   20.9891 C   0  0  0  0  0  0
  -25.2565  -13.8133   20.5677 C   0  0  0  0  0  0
  -24.1822  -13.0422   20.9199 C   0  0  0  0  0  0
  -24.6371  -11.6888   20.8756 C   0  0  0  0  0  0
  -23.9040  -10.4281   21.0419 C   0  0  0  0  0  0
  -24.3600   -9.4197   21.9191 C   0  0  0  0  0  0
  -23.6280   -8.2231   22.0756 C   0  0  0  0  0  0
  -22.4264   -8.0270   21.3543 C   0  0  0  0  0  0
  -21.9895   -9.0244   20.4648 C   0  0  0  0  0  0
  -22.7218  -10.2126   20.3062 C   0  0  0  0  0  0
  -21.6847   -6.0729   22.5279 C   0  0  0  0  0  0
  -21.4010   -6.5636   23.8211 C   0  0  0  0  0  0
  -21.3658   -5.6790   24.9174 C   0  0  0  0  0  0
  -21.6045   -4.3053   24.7226 C   0  0  0  0  0  0
  -21.8820   -3.8143   23.4348 C   0  0  0  0  0  0
  -21.9192   -4.6959   22.3403 C   0  0  0  0  0  0
  -22.7849  -13.5232   21.1857 C   0  0  0  0  0  0
  -22.1661   -4.2145   21.0981 F   0  0  0  0  0  0
  -21.5631   -3.4538   25.7740 F   0  0  0  0  0  0
  -30.0261  -13.3302   20.4304 N   0  0  0  0  0  0
  -26.2978  -12.9281   20.3336 N   0  0  0  0  0  0
  -25.9291  -11.6455   20.5775 N   0  0  0  0  0  0
  -22.0483  -12.8232   22.0413 N   0  0  0  0  0  0
  -25.4264  -15.1850   20.4046 N   0  0  0  0  0  0
  -31.8609  -14.6344   20.1101 O   0  0  0  0  0  0
  -21.6631   -6.8868   21.4238 O   0  0  0  0  0  0
  -22.3545  -14.5541   20.6702 O   0  0  0  0  0  0
  -24.6162  -31.8671   23.2096 C   0  0  0  0  0  0
  -25.9051  -32.4816   23.8392 C   0  0  1  0  0  0
  -27.2306  -27.4160   20.0955 C   0  0  0  0  0  0
  -25.5903  -33.8616   24.2324 N   0  0  0  0  0  0
  -23.4041  -30.4920   21.5509 C   0  0  2  0  0  0
  -24.8484  -28.9582   20.1135 C   0  0  0  0  0  0
  -22.7416  -29.4657   22.4985 C   0  0  0  0  0  0
  -18.0274  -28.1375   22.8492 C   0  0  0  0  0  0
  -24.1486  -36.7314   23.2638 C   0  0  0  0  0  0
  -25.9352  -30.8279   21.3643 C   0  0  0  0  0  0
  -26.0110  -29.4621   20.7091 C   0  0  0  0  0  0
  -27.2040  -28.7001   20.6937 C   0  0  0  0  0  0
  -26.0447  -26.9343   19.4911 C   0  0  0  0  0  0
  -24.8616  -27.6949   19.5009 C   0  0  0  0  0  0
  -23.6120  -29.8271   20.1646 C   0  0  0  0  0  0
  -25.4107  -36.3109   24.0336 C   0  0  1  0  0  0
  -20.5866  -28.3663   23.1314 C   0  0  2  0  0  0
  -20.6765  -26.9398   22.5416 C   0  0  0  0  0  0
  -19.5744  -26.6384   21.5211 C   0  0  0  0  0  0
  -18.1922  -26.7920   22.1624 C   0  0  0  0  0  0
  -19.1525  -28.8836   23.2900 C   0  0  0  0  0  0
  -18.9453  -30.1445   23.8907 C   0  0  0  0  0  0
  -17.6455  -30.6582   24.0568 C   0  0  0  0  0  0
  -25.9035  -34.9473   23.5127 C   0  0  0  0  0  0
  -16.5346  -29.9084   23.6326 C   0  0  0  0  0  0
  -16.7264  -28.6503   23.0343 C   0  0  0  0  0  0
  -26.4473  -31.6597   25.0723 C   0  0  0  0  0  0
  -25.3740  -31.3703   26.1472 C   0  0  0  0  0  0
  -27.0304  -30.3039   24.6101 C   0  0  0  0  0  0
  -27.6051  -32.4314   25.7482 C   0  0  0  0  0  0
  -27.5580  -37.1811   24.8466 C   0  0  0  0  0  0
  -21.4143  -29.3033   22.3723 N   0  0  0  0  0  0
  -26.4293  -37.3792   23.9408 N   0  0  0  0  0  0
  -24.6704  -31.0765   22.0999 N   0  0  0  0  0  0
  -23.4184  -28.8194   23.3027 O   0  0  0  0  0  0
  -28.3995  -26.6723   20.1227 O   0  0  0  0  0  0
  -26.5597  -34.8927   22.4688 O   0  0  0  0  0  0
  -23.5353  -32.1428   23.7485 O   0  0  0  0  0  0
  -28.5633  -18.5420   21.9298 C   0  0  0  0  0  0
  -29.7965  -19.9966   19.8704 C   0  0  0  0  0  0
  -29.1832  -17.8325   20.8761 C   0  0  0  0  0  0
  -29.1469  -20.7044   20.9111 C   0  0  0  0  0  0
  -28.5454  -19.9540   21.9478 C   0  0  0  0  0  0
  -29.8175  -18.5799   19.8508 C   0  0  0  0  0  0
  -31.0163  -16.1267   22.3592 C   0  0  0  0  0  0
  -29.0656  -16.2943   20.8215 C   0  0  0  0  0  0
  -29.6006  -24.5094   20.2944 C   0  0  0  0  0  0
  -29.6514  -22.9927   19.9486 C   0  0  0  0  0  0
  -28.2982  -25.2493   19.9062 C   0  0  0  0  0  0
  -29.0590  -22.1163   20.9645 N   0  0  0  0  0  0
  -30.1802  -15.4709   21.3497 N   0  0  0  0  0  0
  -27.9246  -20.5999   22.9655 F   0  0  0  0  0  0
  -30.6004  -17.7793   18.5346 Cl  0  0  0  0  0  0
  -31.4595  -12.4253   19.1124 H   0  0  0  0  0  0
  -30.3236  -11.3253   19.8351 H   0  0  0  0  0  0
  -29.7364  -11.7743   17.4326 H   0  0  0  0  0  0
  -29.6404  -13.4875   17.7571 H   0  0  0  0  0  0
  -27.8422  -11.2890   18.8383 H   0  0  0  0  0  0
  -27.3552  -12.5936   17.7892 H   0  0  0  0  0  0
  -27.6712  -14.2324   19.5298 H   0  0  0  0  0  0
  -28.6879  -11.9967   21.3594 H   0  0  0  0  0  0
  -28.4531  -13.6444   21.8505 H   0  0  0  0  0  0
  -25.2745   -9.5676   22.4764 H   0  0  0  0  0  0
  -23.9993   -7.4621   22.7472 H   0  0  0  0  0  0
  -21.0828   -8.8759   19.8952 H   0  0  0  0  0  0
  -22.3676  -10.9666   19.6173 H   0  0  0  0  0  0
  -21.1998   -7.6143   23.9713 H   0  0  0  0  0  0
  -21.1482   -6.0521   25.9077 H   0  0  0  0  0  0
  -22.0601   -2.7606   23.2849 H   0  0  0  0  0  0
  -22.4089  -11.9891   22.4805 H   0  0  0  0  0  0
  -21.1104  -13.1268   22.2616 H   0  0  0  0  0  0
  -24.6524  -15.8327   20.5042 H   0  0  0  0  0  0
  -26.2612  -15.6224   20.0393 H   0  0  0  0  0  0
  -26.7121  -32.5519   23.1152 H   0  0  0  0  0  0
  -25.0064  -33.9777   25.0475 H   0  0  0  0  0  0
  -22.6935  -31.3096   21.4131 H   0  0  0  0  0  0
  -23.3743  -35.9653   23.3311 H   0  0  0  0  0  0
  -24.3580  -36.8916   22.2051 H   0  0  0  0  0  0
  -23.7247  -37.6526   23.6645 H   0  0  0  0  0  0
  -26.0500  -31.5945   20.5966 H   0  0  0  0  0  0
  -26.8222  -30.8795   21.9837 H   0  0  0  0  0  0
  -28.1014  -29.0863   21.1569 H   0  0  0  0  0  0
  -26.0094  -25.9704   19.0052 H   0  0  0  0  0  0
  -23.9681  -27.3023   19.0354 H   0  0  0  0  0  0
  -23.7214  -30.6035   19.4064 H   0  0  0  0  0  0
  -22.7346  -29.2496   19.8679 H   0  0  0  0  0  0
  -25.1283  -36.1973   25.0829 H   0  0  0  0  0  0
  -20.9961  -28.3227   24.1433 H   0  0  0  0  0  0
  -20.5668  -26.2269   23.3602 H   0  0  0  0  0  0
  -21.6636  -26.7439   22.1207 H   0  0  0  0  0  0
  -19.6905  -25.6298   21.1231 H   0  0  0  0  0  0
  -19.6683  -27.3205   20.6750 H   0  0  0  0  0  0
  -17.4192  -26.6673   21.4025 H   0  0  0  0  0  0
  -18.0323  -26.0057   22.9015 H   0  0  0  0  0  0
  -19.7930  -30.7262   24.2274 H   0  0  0  0  0  0
  -17.5010  -31.6261   24.5170 H   0  0  0  0  0  0
  -15.5348  -30.2991   23.7642 H   0  0  0  0  0  0
  -15.8663  -28.0831   22.7041 H   0  0  0  0  0  0
  -24.5914  -30.7044   25.7814 H   0  0  0  0  0  0
  -24.8929  -32.2858   26.4927 H   0  0  0  0  0  0
  -25.8094  -30.8873   27.0228 H   0  0  0  0  0  0
  -26.2849  -29.6800   24.1156 H   0  0  0  0  0  0
  -27.4077  -29.7272   25.4556 H   0  0  0  0  0  0
  -27.8681  -30.4358   23.9248 H   0  0  0  0  0  0
  -27.2675  -33.3606   26.2083 H   0  0  0  0  0  0
  -28.3848  -32.6883   25.0299 H   0  0  0  0  0  0
  -28.0734  -31.8423   26.5376 H   0  0  0  0  0  0
  -28.2606  -38.0102   24.7506 H   0  0  0  0  0  0
  -28.1068  -36.2632   24.6298 H   0  0  0  0  0  0
  -27.2300  -37.1471   25.8871 H   0  0  0  0  0  0
  -20.9301  -29.8765   21.6955 H   0  0  0  0  0  0
  -26.0183  -38.2870   24.1405 H   0  0  0  0  0  0
  -28.0685  -18.0047   22.7251 H   0  0  0  0  0  0
  -30.2734  -20.5266   19.0602 H   0  0  0  0  0  0
  -30.4040  -16.6036   23.1247 H   0  0  0  0  0  0
  -31.6548  -16.8847   21.9029 H   0  0  0  0  0  0
  -31.6617  -15.4074   22.8668 H   0  0  0  0  0  0
  -28.8735  -16.0353   19.7799 H   0  0  0  0  0  0
  -28.1635  -16.0042   21.3605 H   0  0  0  0  0  0
  -30.4114  -24.9928   19.7477 H   0  0  0  0  0  0
  -29.8281  -24.6692   21.3489 H   0  0  0  0  0  0
  -30.6995  -22.7086   19.8379 H   0  0  0  0  0  0
  -29.1819  -22.8129   18.9798 H   0  0  0  0  0  0
  -27.4750  -24.8330   20.4895 H   0  0  0  0  0  0
  -28.0839  -25.0625   18.8530 H   0  0  0  0  0  0
  -28.5764  -22.5240   21.7619 H   0  0  0  0  0  0
  1 25  1  0  0  0
  1 30  2  0  0  0
  1 83  1  0  0  0
  2  3  1  0  0  0
  2 25  1  0  0  0
  2 86  1  0  0  0
  2 87  1  0  0  0
  3  4  1  0  0  0
  3 88  1  0  0  0
  3 89  1  0  0  0
  4  5  1  0  0  0
  4 90  1  0  0  0
  4 91  1  0  0  0
  5  6  1  0  0  0
  5 26  1  0  0  0
  5 92  1  0  0  0
  6 25  1  0  0  0
  6 93  1  0  0  0
  6 94  1  0  0  0
  7  8  2  0  0  0
  7 26  1  0  0  0
  7 29  1  0  0  0
  8  9  1  0  0  0
  8 22  1  0  0  0
  9 10  1  0  0  0
  9 27  2  0  0  0
 10 11  2  0  0  0
 10 15  1  0  0  0
 11 12  1  0  0  0
 11 95  1  0  0  0
 12 13  2  0  0  0
 12 96  1  0  0  0
 13 14  1  0  0  0
 13 31  1  0  0  0
 14 15  2  0  0  0
 14 97  1  0  0  0
 15 98  1  0  0  0
 16 17  2  0  0  0
 16 21  1  0  0  0
 16 31  1  0  0  0
 17 18  1  0  0  0
 17 99  1  0  0  0
 18 19  2  0  0  0
 18100  1  0  0  0
 19 20  1  0  0  0
 19 24  1  0  0  0
 20 21  2  0  0  0
 20101  1  0  0  0
 21 23  1  0  0  0
 22 28  1  0  0  0
 22 32  2  0  0  0
 26 27  1  0  0  0
 28102  1  0  0  0
 28103  1  0  0  0
 29104  1  0  0  0
 29105  1  0  0  0
 33 34  1  0  0  0
 33 66  1  0  0  0
 33 70  2  0  0  0
 34 36  1  0  0  0
 34 59  1  0  0  0
 34106  1  0  0  0
 35 44  2  0  0  0
 35 45  1  0  0  0
 35 68  1  0  0  0
 36 56  1  0  0  0
 36107  1  0  0  0
 37 39  1  0  0  0
 37 47  1  0  0  0
 37 66  1  0  0  0
 37108  1  0  0  0
 38 43  2  0  0  0
 38 46  1  0  0  0
 38 47  1  0  0  0
 39 64  1  0  0  0
 39 67  2  0  0  0
 40 52  1  0  0  0
 40 53  2  0  0  0
 40 58  1  0  0  0
 41109  1  0  0  0
 41110  1  0  0  0
 41111  1  0  0  0
 41 48  1  0  0  0
 42 43  1  0  0  0
 42 66  1  0  0  0
 42112  1  0  0  0
 42113  1  0  0  0
 43 44  1  0  0  0
 44114  1  0  0  0
 45 46  2  0  0  0
 45115  1  0  0  0
 46116  1  0  0  0
 47117  1  0  0  0
 47118  1  0  0  0
 48 56  1  0  0  0
 48 65  1  0  0  0
 48119  1  0  0  0
 49 50  1  0  0  0
 49 53  1  0  0  0
 49 64  1  0  0  0
 49120  1  0  0  0
 50 51  1  0  0  0
 50121  1  0  0  0
 50122  1  0  0  0
 51 52  1  0  0  0
 51123  1  0  0  0
 51124  1  0  0  0
 52125  1  0  0  0
 52126  1  0  0  0
 53 54  1  0  0  0
 54 55  2  0  0  0
 54127  1  0  0  0
 55 57  1  0  0  0
 55128  1  0  0  0
 56 69  2  0  0  0
 57 58  2  0  0  0
 57129  1  0  0  0
 58130  1  0  0  0
 59 60  1  0  0  0
 59 61  1  0  0  0
 59 62  1  0  0  0
 60131  1  0  0  0
 60132  1  0  0  0
 60133  1  0  0  0
 61134  1  0  0  0
 61135  1  0  0  0
 61136  1  0  0  0
 62137  1  0  0  0
 62138  1  0  0  0
 62139  1  0  0  0
 63 65  1  0  0  0
 63140  1  0  0  0
 63141  1  0  0  0
 63142  1  0  0  0
 64143  1  0  0  0
 65144  1  0  0  0
 68 81  1  0  0  0
 71 73  2  0  0  0
 71 75  1  0  0  0
 71145  1  0  0  0
 72 74  1  0  0  0
 72 76  2  0  0  0
 72146  1  0  0  0
 73 76  1  0  0  0
 73 78  1  0  0  0
 74 75  2  0  0  0
 74 82  1  0  0  0
 75 84  1  0  0  0
 76 85  1  0  0  0
 77 83  1  0  0  0
 77147  1  0  0  0
 77148  1  0  0  0
 77149  1  0  0  0
 78 83  1  0  0  0
 78150  1  0  0  0
 78151  1  0  0  0
 79 80  1  0  0  0
 79 81  1  0  0  0
 79152  1  0  0  0
 79153  1  0  0  0
 80 82  1  0  0  0
 80154  1  0  0  0
 80155  1  0  0  0
 81156  1  0  0  0
 81157  1  0  0  0
 82158  1  0  0  0
M  ISO  4   1 100  68 101  81 101  83 100
M  END
> <chiral flag>
0

> <version>
0

> <s_m_source_file>
/data/baiqing/PycharmProjects/Reinvent-master-3.2/result/LINK_invent/BTK/process_docking_weight1_custom_product_contain_oxygen_bond_distance_aromatic_linkinvent_7_9_3/rearranged_h_0025.sdf

> <i_m_source_file_index>
13

> <r_mmod_Potential_Energy-OPLS-2005>
120.289199829102

> <r_mmod_Stretch_Energy-OPLS-2005>
42.8375053405762

> <r_mmod_Bend_Energy-OPLS-2005>
114.428092956543

> <r_mmod_Torsional_Energy-OPLS-2005>
263.815338134766

> <r_mmod_Improper_Torsional_Energy-OPLS-2005>
4.04318380355835

> <r_mmod_Van_der_Waal_Energy-OPLS-2005>
150.107650756836

> <r_mmod_Electrostatic_Energy-OPLS-2005>
-268.569183349609

> <r_mmod_Solvation_Energy-OPLS-2005>
-202.568069458008

> <b_mmod_Minimization_Converged-OPLS-2005>
0

> <r_mmod_RMS_Derivative-OPLS-2005>
0.302801489830017

$$$$
13
                    3D
 Structure written by MMmdl.
158167  0  0  1  0            999 V2000
  -30.5734  -14.7271   20.4745 C   0  0  0  0  0  0
  -30.4537  -12.4380   19.4765 C   0  0  0  0  0  0
  -29.5285  -12.5184   18.2395 C   0  0  0  0  0  0
  -28.0447  -12.3515   18.6390 C   0  0  0  0  0  0
  -27.6513  -13.2241   19.8613 C   0  0  2  0  0  0
  -28.6990  -13.1023   20.9919 C   0  0  0  0  0  0
  -25.2536  -13.8159   20.5732 C   0  0  0  0  0  0
  -24.1811  -13.0410   20.9220 C   0  0  0  0  0  0
  -24.6401  -11.6887   20.8759 C   0  0  0  0  0  0
  -23.9074  -10.4263   21.0400 C   0  0  0  0  0  0
  -24.3615   -9.4182   21.9179 C   0  0  0  0  0  0
  -23.6290   -8.2222   22.0744 C   0  0  0  0  0  0
  -22.4273   -8.0266   21.3538 C   0  0  0  0  0  0
  -21.9909   -9.0239   20.4651 C   0  0  0  0  0  0
  -22.7236  -10.2119   20.3060 C   0  0  0  0  0  0
  -21.6834   -6.0727   22.5278 C   0  0  0  0  0  0
  -21.4009   -6.5625   23.8217 C   0  0  0  0  0  0
  -21.3671   -5.6782   24.9177 C   0  0  0  0  0  0
  -21.6058   -4.3048   24.7220 C   0  0  0  0  0  0
  -21.8802   -3.8141   23.4337 C   0  0  0  0  0  0
  -21.9170   -4.6955   22.3402 C   0  0  0  0  0  0
  -22.7823  -13.5201   21.1828 C   0  0  0  0  0  0
  -22.1642   -4.2148   21.0976 F   0  0  0  0  0  0
  -21.5635   -3.4531   25.7730 F   0  0  0  0  0  0
  -30.0016  -13.4760   20.4233 N   0  0  0  0  0  0
  -26.2983  -12.9365   20.3315 N   0  0  0  0  0  0
  -25.9339  -11.6513   20.5765 N   0  0  0  0  0  0
  -22.0425  -12.8258   22.0406 N   0  0  0  0  0  0
  -25.4149  -15.1897   20.4189 N   0  0  0  0  0  0
  -31.7583  -14.8930   20.1734 O   0  0  0  0  0  0
  -21.6625   -6.8873   21.4242 O   0  0  0  0  0  0
  -22.3519  -14.5471   20.6582 O   0  0  0  0  0  0
  -24.6276  -31.8561   23.2008 C   0  0  0  0  0  0
  -25.9133  -32.4736   23.8327 C   0  0  1  0  0  0
  -27.2166  -27.2757   20.1508 C   0  0  0  0  0  0
  -25.5956  -33.8535   24.2270 N   0  0  0  0  0  0
  -23.4183  -30.4782   21.5443 C   0  0  2  0  0  0
  -24.8616  -28.9106   20.1288 C   0  0  0  0  0  0
  -22.7456  -29.4622   22.4963 C   0  0  0  0  0  0
  -18.0282  -28.1359   22.8479 C   0  0  0  0  0  0
  -24.1484  -36.7275   23.2642 C   0  0  0  0  0  0
  -25.9603  -30.7707   21.3771 C   0  0  0  0  0  0
  -26.0302  -29.3883   20.7363 C   0  0  0  0  0  0
  -27.2104  -28.5845   20.7329 C   0  0  0  0  0  0
  -26.0303  -26.8527   19.5195 C   0  0  0  0  0  0
  -24.8638  -27.6464   19.5136 C   0  0  0  0  0  0
  -23.6334  -29.8003   20.1643 C   0  0  0  0  0  0
  -25.4111  -36.3051   24.0327 C   0  0  1  0  0  0
  -20.5880  -28.3667   23.1284 C   0  0  2  0  0  0
  -20.6781  -26.9396   22.5410 C   0  0  0  0  0  0
  -19.5769  -26.6369   21.5197 C   0  0  0  0  0  0
  -18.1936  -26.7911   22.1590 C   0  0  0  0  0  0
  -19.1532  -28.8834   23.2868 C   0  0  0  0  0  0
  -18.9449  -30.1438   23.8875 C   0  0  0  0  0  0
  -17.6450  -30.6563   24.0559 C   0  0  0  0  0  0
  -25.9050  -34.9416   23.5091 C   0  0  0  0  0  0
  -16.5342  -29.9055   23.6334 C   0  0  0  0  0  0
  -16.7268  -28.6471   23.0356 C   0  0  0  0  0  0
  -26.4537  -31.6564   25.0711 C   0  0  0  0  0  0
  -25.3810  -31.3680   26.1468 C   0  0  0  0  0  0
  -27.0440  -30.3003   24.6196 C   0  0  0  0  0  0
  -27.6064  -32.4353   25.7478 C   0  0  0  0  0  0
  -27.5578  -37.1785   24.8459 C   0  0  0  0  0  0
  -21.4178  -29.3009   22.3674 N   0  0  0  0  0  0
  -26.4287  -37.3755   23.9408 N   0  0  0  0  0  0
  -24.6874  -31.0552   22.0966 N   0  0  0  0  0  0
  -23.4177  -28.8207   23.3083 O   0  0  0  0  0  0
  -28.3877  -26.5274   19.9716 O   0  0  0  0  0  0
  -26.5599  -34.8896   22.4648 O   0  0  0  0  0  0
  -23.5445  -32.1389   23.7332 O   0  0  0  0  0  0
  -28.5122  -19.3965   20.0831 C   0  0  0  0  0  0
  -28.5831  -17.9667   20.1230 C   0  0  0  0  0  0
  -30.8074  -18.0763   20.9601 C   0  0  0  0  0  0
  -29.5748  -20.2545   20.4917 C   0  0  0  0  0  0
  -29.7340  -17.2469   20.5508 C   0  0  0  0  0  0
  -30.7336  -19.5123   20.9596 C   0  0  0  0  0  0
  -27.8016  -23.9313   20.4475 C   0  0  0  0  0  0
  -28.1819  -22.4229   20.0373 C   0  0  0  0  0  0
  -30.5152  -23.6763   19.1391 C   0  0  0  0  0  0
  -30.2014  -24.9569   19.9356 C   0  0  0  0  0  0
  -30.6962  -22.4177   20.0171 C   0  0  0  0  0  0
  -28.7794  -25.1841   20.5184 C   0  0  1  0  0  0
  -29.4632  -21.7205   20.4168 N   0  0  0  0  0  0
  -29.6811  -15.7704   20.6475 N   0  0  0  0  0  0
  -26.6310  -24.1141   20.7907 O   0  0  0  0  0  0
  -32.1286  -20.2937   21.6300 Cl  0  0  0  0  0  0
  -31.4989  -12.5731   19.1908 H   0  0  0  0  0  0
  -30.3974  -11.4514   19.9413 H   0  0  0  0  0  0
  -29.8144  -11.7593   17.5100 H   0  0  0  0  0  0
  -29.6630  -13.4848   17.7483 H   0  0  0  0  0  0
  -27.8832  -11.2997   18.8764 H   0  0  0  0  0  0
  -27.4000  -12.5760   17.7880 H   0  0  0  0  0  0
  -27.6559  -14.2546   19.5064 H   0  0  0  0  0  0
  -28.7324  -12.0833   21.3822 H   0  0  0  0  0  0
  -28.4416  -13.7352   21.8417 H   0  0  0  0  0  0
  -25.2758   -9.5637   22.4759 H   0  0  0  0  0  0
  -23.9985   -7.4602   22.7459 H   0  0  0  0  0  0
  -21.0841   -8.8758   19.8964 H   0  0  0  0  0  0
  -22.3695  -10.9652   19.6174 H   0  0  0  0  0  0
  -21.2014   -7.6136   23.9726 H   0  0  0  0  0  0
  -21.1521   -6.0512   25.9087 H   0  0  0  0  0  0
  -22.0576   -2.7601   23.2825 H   0  0  0  0  0  0
  -22.3996  -12.0006   22.5001 H   0  0  0  0  0  0
  -21.1017  -13.1299   22.2458 H   0  0  0  0  0  0
  -24.6330  -15.8245   20.5358 H   0  0  0  0  0  0
  -26.2451  -15.6450   20.0668 H   0  0  0  0  0  0
  -26.7185  -32.5400   23.1052 H   0  0  0  0  0  0
  -25.0176  -33.9660   25.0466 H   0  0  0  0  0  0
  -22.7132  -31.2991   21.3971 H   0  0  0  0  0  0
  -23.3742  -35.9609   23.3293 H   0  0  0  0  0  0
  -24.3572  -36.8921   22.2060 H   0  0  0  0  0  0
  -23.7237  -37.6470   23.6682 H   0  0  0  0  0  0
  -26.0987  -31.5269   20.6032 H   0  0  0  0  0  0
  -26.8391  -30.8211   22.0083 H   0  0  0  0  0  0
  -28.1192  -28.9673   21.1759 H   0  0  0  0  0  0
  -26.0092  -25.9046   19.0015 H   0  0  0  0  0  0
  -23.9720  -27.2797   19.0235 H   0  0  0  0  0  0
  -23.7496  -30.5662   19.3967 H   0  0  0  0  0  0
  -22.7517  -29.2276   19.8722 H   0  0  0  0  0  0
  -25.1293  -36.1885   25.0818 H   0  0  0  0  0  0
  -20.9965  -28.3239   24.1409 H   0  0  0  0  0  0
  -20.5680  -26.2272   23.3605 H   0  0  0  0  0  0
  -21.6656  -26.7438   22.1214 H   0  0  0  0  0  0
  -19.6943  -25.6281   21.1227 H   0  0  0  0  0  0
  -19.6714  -27.3180   20.6730 H   0  0  0  0  0  0
  -17.4229  -26.6673   21.3967 H   0  0  0  0  0  0
  -18.0313  -26.0024   22.8952 H   0  0  0  0  0  0
  -19.7920  -30.7261   24.2231 H   0  0  0  0  0  0
  -17.4995  -31.6244   24.5166 H   0  0  0  0  0  0
  -15.5339  -30.2949   23.7663 H   0  0  0  0  0  0
  -15.8665  -28.0787   22.7091 H   0  0  0  0  0  0
  -24.5865  -30.7181   25.7786 H   0  0  0  0  0  0
  -24.9162  -32.2853   26.5087 H   0  0  0  0  0  0
  -25.8157  -30.8670   27.0131 H   0  0  0  0  0  0
  -26.3040  -29.6666   24.1297 H   0  0  0  0  0  0
  -27.4240  -29.7328   25.4705 H   0  0  0  0  0  0
  -27.8849  -30.4303   23.9380 H   0  0  0  0  0  0
  -27.2607  -33.3587   26.2129 H   0  0  0  0  0  0
  -28.3815  -32.7051   25.0297 H   0  0  0  0  0  0
  -28.0826  -31.8485   26.5345 H   0  0  0  0  0  0
  -28.2587  -38.0092   24.7522 H   0  0  0  0  0  0
  -28.1085  -36.2628   24.6260 H   0  0  0  0  0  0
  -27.2302  -37.1403   25.8863 H   0  0  0  0  0  0
  -20.9368  -29.8646   21.6807 H   0  0  0  0  0  0
  -26.0162  -38.2828   24.1402 H   0  0  0  0  0  0
  -27.5911  -19.8234   19.7158 H   0  0  0  0  0  0
  -27.7108  -17.4156   19.8049 H   0  0  0  0  0  0
  -31.7091  -17.6109   21.3303 H   0  0  0  0  0  0
  -28.0676  -22.3444   18.9547 H   0  0  0  0  0  0
  -27.3628  -21.8226   20.4345 H   0  0  0  0  0  0
  -31.4750  -23.8573   18.6532 H   0  0  0  0  0  0
  -29.8271  -23.5294   18.3034 H   0  0  0  0  0  0
  -30.4291  -25.7828   19.2604 H   0  0  0  0  0  0
  -30.9256  -25.0632   20.7438 H   0  0  0  0  0  0
  -31.2597  -22.6967   20.9079 H   0  0  0  0  0  0
  -31.3263  -21.7311   19.4481 H   0  0  0  0  0  0
  -28.9071  -25.3510   21.5886 H   0  0  0  0  0  0
  -28.7451  -15.4133   20.7490 H   0  0  0  0  0  0
  1 25  1  0  0  0
  1 30  2  0  0  0
  1 84  1  0  0  0
  2  3  1  0  0  0
  2 25  1  0  0  0
  2 87  1  0  0  0
  2 88  1  0  0  0
  3  4  1  0  0  0
  3 89  1  0  0  0
  3 90  1  0  0  0
  4  5  1  0  0  0
  4 91  1  0  0  0
  4 92  1  0  0  0
  5  6  1  0  0  0
  5 26  1  0  0  0
  5 93  1  0  0  0
  6 25  1  0  0  0
  6 94  1  0  0  0
  6 95  1  0  0  0
  7  8  2  0  0  0
  7 26  1  0  0  0
  7 29  1  0  0  0
  8  9  1  0  0  0
  8 22  1  0  0  0
  9 10  1  0  0  0
  9 27  2  0  0  0
 10 11  2  0  0  0
 10 15  1  0  0  0
 11 12  1  0  0  0
 11 96  1  0  0  0
 12 13  2  0  0  0
 12 97  1  0  0  0
 13 14  1  0  0  0
 13 31  1  0  0  0
 14 15  2  0  0  0
 14 98  1  0  0  0
 15 99  1  0  0  0
 16 17  2  0  0  0
 16 21  1  0  0  0
 16 31  1  0  0  0
 17 18  1  0  0  0
 17100  1  0  0  0
 18 19  2  0  0  0
 18101  1  0  0  0
 19 20  1  0  0  0
 19 24  1  0  0  0
 20 21  2  0  0  0
 20102  1  0  0  0
 21 23  1  0  0  0
 22 28  1  0  0  0
 22 32  2  0  0  0
 26 27  1  0  0  0
 28103  1  0  0  0
 28104  1  0  0  0
 29105  1  0  0  0
 29106  1  0  0  0
 33 34  1  0  0  0
 33 66  1  0  0  0
 33 70  2  0  0  0
 34 36  1  0  0  0
 34 59  1  0  0  0
 34107  1  0  0  0
 35 44  2  0  0  0
 35 45  1  0  0  0
 35 68  1  0  0  0
 36 56  1  0  0  0
 36108  1  0  0  0
 37 39  1  0  0  0
 37 47  1  0  0  0
 37 66  1  0  0  0
 37109  1  0  0  0
 38 43  2  0  0  0
 38 46  1  0  0  0
 38 47  1  0  0  0
 39 64  1  0  0  0
 39 67  2  0  0  0
 40 52  1  0  0  0
 40 53  2  0  0  0
 40 58  1  0  0  0
 41110  1  0  0  0
 41111  1  0  0  0
 41112  1  0  0  0
 41 48  1  0  0  0
 42 43  1  0  0  0
 42 66  1  0  0  0
 42113  1  0  0  0
 42114  1  0  0  0
 43 44  1  0  0  0
 44115  1  0  0  0
 45 46  2  0  0  0
 45116  1  0  0  0
 46117  1  0  0  0
 47118  1  0  0  0
 47119  1  0  0  0
 48 56  1  0  0  0
 48 65  1  0  0  0
 48120  1  0  0  0
 49 50  1  0  0  0
 49 53  1  0  0  0
 49 64  1  0  0  0
 49121  1  0  0  0
 50 51  1  0  0  0
 50122  1  0  0  0
 50123  1  0  0  0
 51 52  1  0  0  0
 51124  1  0  0  0
 51125  1  0  0  0
 52126  1  0  0  0
 52127  1  0  0  0
 53 54  1  0  0  0
 54 55  2  0  0  0
 54128  1  0  0  0
 55 57  1  0  0  0
 55129  1  0  0  0
 56 69  2  0  0  0
 57 58  2  0  0  0
 57130  1  0  0  0
 58131  1  0  0  0
 59 60  1  0  0  0
 59 61  1  0  0  0
 59 62  1  0  0  0
 60132  1  0  0  0
 60133  1  0  0  0
 60134  1  0  0  0
 61135  1  0  0  0
 61136  1  0  0  0
 61137  1  0  0  0
 62138  1  0  0  0
 62139  1  0  0  0
 62140  1  0  0  0
 63 65  1  0  0  0
 63141  1  0  0  0
 63142  1  0  0  0
 63143  1  0  0  0
 64144  1  0  0  0
 65145  1  0  0  0
 68 82  1  0  0  0
 71 72  2  0  0  0
 71 74  1  0  0  0
 71146  1  0  0  0
 72 75  1  0  0  0
 72147  1  0  0  0
 73 75  2  0  0  0
 73 76  1  0  0  0
 73148  1  0  0  0
 74 76  2  0  0  0
 74 83  1  0  0  0
 75 84  1  0  0  0
 76 86  1  0  0  0
 77 78  1  0  0  0
 77 82  1  0  0  0
 77 85  2  0  0  0
 78 83  1  0  0  0
 78149  1  0  0  0
 78150  1  0  0  0
 79 80  1  0  0  0
 79 81  1  0  0  0
 79151  1  0  0  0
 79152  1  0  0  0
 80 82  1  0  0  0
 80153  1  0  0  0
 80154  1  0  0  0
 81 83  1  0  0  0
 81155  1  0  0  0
 81156  1  0  0  0
 82157  1  0  0  0
 84158  1  0  0  0
M  ISO  4   1 100  68 101  82 101  84 100
M  END
> <chiral flag>
0

> <version>
0

> <s_m_source_file>
/data/baiqing/PycharmProjects/Reinvent-master-3.2/result/LINK_invent/BTK/process_docking_weight1_custom_product_contain_oxygen_bond_distance_aromatic_linkinvent_7_9_3/rearranged_h_0025.sdf

> <i_m_source_file_index>
14

> <r_mmod_Potential_Energy-OPLS-2005>
358.905151367188

> <r_mmod_Stretch_Energy-OPLS-2005>
114.369255065918

> <r_mmod_Bend_Energy-OPLS-2005>
250.722671508789

> <r_mmod_Torsional_Energy-OPLS-2005>
274.554382324219

> <r_mmod_Improper_Torsional_Energy-OPLS-2005>
10.0099773406982

> <r_mmod_Van_der_Waal_Energy-OPLS-2005>
153.440383911133

> <r_mmod_Electrostatic_Energy-OPLS-2005>
-275.488586425781

> <r_mmod_Solvation_Energy-OPLS-2005>
-235.957962036133

> <b_mmod_Minimization_Converged-OPLS-2005>
0

> <r_mmod_RMS_Derivative-OPLS-2005>
2.97858953475952

$$$$
14
                    3D
 Structure written by MMmdl.
162171  0  0  1  0            999 V2000
  -30.6853  -14.5434   20.4971 C   0  0  0  0  0  0
  -30.4283  -12.3329   19.4352 C   0  0  0  0  0  0
  -29.4976  -12.4671   18.2115 C   0  0  0  0  0  0
  -28.0187  -12.3305   18.6305 C   0  0  0  0  0  0
  -27.6496  -13.1961   19.8655 C   0  0  2  0  0  0
  -28.7026  -13.0629   20.9894 C   0  0  0  0  0  0
  -25.2593  -13.8104   20.5748 C   0  0  0  0  0  0
  -24.1812  -13.0411   20.9203 C   0  0  0  0  0  0
  -24.6347  -11.6874   20.8758 C   0  0  0  0  0  0
  -23.9011  -10.4279   21.0416 C   0  0  0  0  0  0
  -24.3565   -9.4192   21.9190 C   0  0  0  0  0  0
  -23.6238   -8.2239   22.0777 C   0  0  0  0  0  0
  -22.4228   -8.0277   21.3567 C   0  0  0  0  0  0
  -21.9851   -9.0245   20.4675 C   0  0  0  0  0  0
  -22.7181  -10.2120   20.3072 C   0  0  0  0  0  0
  -21.6839   -6.0721   22.5277 C   0  0  0  0  0  0
  -21.4007   -6.5631   23.8208 C   0  0  0  0  0  0
  -21.3648   -5.6789   24.9173 C   0  0  0  0  0  0
  -21.6034   -4.3058   24.7218 C   0  0  0  0  0  0
  -21.8818   -3.8137   23.4342 C   0  0  0  0  0  0
  -21.9193   -4.6947   22.3397 C   0  0  0  0  0  0
  -22.7841  -13.5239   21.1859 C   0  0  0  0  0  0
  -22.1670   -4.2141   21.0974 F   0  0  0  0  0  0
  -21.5630   -3.4547   25.7737 F   0  0  0  0  0  0
  -30.0196  -13.3569   20.4078 N   0  0  0  0  0  0
  -26.2977  -12.9225   20.3386 N   0  0  0  0  0  0
  -25.9276  -11.6412   20.5806 N   0  0  0  0  0  0
  -22.0438  -12.8266   22.0407 N   0  0  0  0  0  0
  -25.4427  -15.1816   20.4259 N   0  0  0  0  0  0
  -31.8773  -14.6562   20.1960 O   0  0  0  0  0  0
  -21.6610   -6.8867   21.4245 O   0  0  0  0  0  0
  -22.3563  -14.5555   20.6699 O   0  0  0  0  0  0
  -24.6143  -31.8667   23.2089 C   0  0  0  0  0  0
  -25.9022  -32.4817   23.8396 C   0  0  1  0  0  0
  -27.2344  -27.4045   20.1052 C   0  0  0  0  0  0
  -25.5883  -33.8622   24.2333 N   0  0  0  0  0  0
  -23.4022  -30.4876   21.5523 C   0  0  2  0  0  0
  -24.8478  -28.9512   20.1175 C   0  0  0  0  0  0
  -22.7407  -29.4643   22.5020 C   0  0  0  0  0  0
  -18.0262  -28.1357   22.8502 C   0  0  0  0  0  0
  -24.1478  -36.7310   23.2642 C   0  0  0  0  0  0
  -25.9326  -30.8255   21.3630 C   0  0  0  0  0  0
  -26.0088  -29.4565   20.7125 C   0  0  0  0  0  0
  -27.2000  -28.6915   20.7003 C   0  0  0  0  0  0
  -26.0442  -26.9163   19.5133 C   0  0  0  0  0  0
  -24.8628  -27.6831   19.5147 C   0  0  0  0  0  0
  -23.6091  -29.8179   20.1679 C   0  0  0  0  0  0
  -25.4099  -36.3117   24.0348 C   0  0  1  0  0  0
  -20.5855  -28.3642   23.1342 C   0  0  2  0  0  0
  -20.6744  -26.9377   22.5439 C   0  0  0  0  0  0
  -19.5729  -26.6369   21.5219 C   0  0  0  0  0  0
  -18.1903  -26.7908   22.1621 C   0  0  0  0  0  0
  -19.1512  -28.8815   23.2916 C   0  0  0  0  0  0
  -18.9435  -30.1425   23.8919 C   0  0  0  0  0  0
  -17.6439  -30.6576   24.0555 C   0  0  0  0  0  0
  -25.9032  -34.9473   23.5139 C   0  0  0  0  0  0
  -16.5333  -29.9076   23.6320 C   0  0  0  0  0  0
  -16.7252  -28.6489   23.0354 C   0  0  0  0  0  0
  -26.4457  -31.6597   25.0716 C   0  0  0  0  0  0
  -25.3750  -31.3679   26.1487 C   0  0  0  0  0  0
  -27.0275  -30.3043   24.6063 C   0  0  0  0  0  0
  -27.6043  -32.4321   25.7460 C   0  0  0  0  0  0
  -27.5589  -37.1796   24.8460 C   0  0  0  0  0  0
  -21.4134  -29.3015   22.3764 N   0  0  0  0  0  0
  -26.4288  -37.3804   23.9425 N   0  0  0  0  0  0
  -24.6683  -31.0755   22.0993 N   0  0  0  0  0  0
  -23.4181  -28.8183   23.3057 O   0  0  0  0  0  0
  -28.4293  -26.6992   20.1322 O   0  0  0  0  0  0
  -26.5606  -34.8933   22.4710 O   0  0  0  0  0  0
  -23.5335  -32.1421   23.7486 O   0  0  0  0  0  0
  -30.9215  -19.0011   20.7963 C   0  0  0  0  0  0
  -28.3991  -20.0768   21.2628 C   0  0  0  0  0  0
  -30.6464  -20.3536   20.4676 C   0  0  0  0  0  0
  -29.9362  -18.1637   21.3590 C   0  0  0  0  0  0
  -29.3677  -20.9461   20.6903 C   0  0  0  0  0  0
  -28.6635  -18.7270   21.5965 C   0  0  0  0  0  0
  -29.7604  -23.3799   21.0217 C   0  0  0  0  0  0
  -27.7793  -22.9101   20.5241 C   0  0  0  0  0  0
  -28.5089  -24.2503   20.7612 C   0  0  0  0  0  0
  -31.7643  -21.1595   19.8242 C   0  0  0  0  0  0
  -29.3427  -16.2195   19.4216 C   0  0  0  0  0  0
  -30.2641  -16.6818   21.6771 C   0  0  0  0  0  0
  -28.5327  -25.3372   19.6552 C   0  0  0  0  0  0
  -29.0924  -22.3080   20.2915 N   0  0  0  0  0  0
  -29.9164  -15.6565   20.6555 N   0  0  0  0  0  0
  -27.3893  -17.7756   22.2749 Cl  0  0  0  0  0  0
  -31.4715  -12.4394   19.1312 H   0  0  0  0  0  0
  -30.3506  -11.3411   19.8821 H   0  0  0  0  0  0
  -29.7435  -11.7064   17.4690 H   0  0  0  0  0  0
  -29.6590  -13.4273   17.7216 H   0  0  0  0  0  0
  -27.8417  -11.2781   18.8549 H   0  0  0  0  0  0
  -27.3662  -12.5807   17.7933 H   0  0  0  0  0  0
  -27.6453  -14.2228   19.5214 H   0  0  0  0  0  0
  -28.6976  -12.0554   21.4069 H   0  0  0  0  0  0
  -28.4722  -13.7383   21.8152 H   0  0  0  0  0  0
  -25.2709   -9.5676   22.4757 H   0  0  0  0  0  0
  -23.9954   -7.4630   22.7480 H   0  0  0  0  0  0
  -21.0800   -8.8747   19.8961 H   0  0  0  0  0  0
  -22.3642  -10.9656   19.6186 H   0  0  0  0  0  0
  -21.1997   -7.6139   23.9712 H   0  0  0  0  0  0
  -21.1474   -6.0525   25.9080 H   0  0  0  0  0  0
  -22.0608   -2.7602   23.2847 H   0  0  0  0  0  0
  -22.3997  -11.9906   22.4806 H   0  0  0  0  0  0
  -21.1068  -13.1357   22.2618 H   0  0  0  0  0  0
  -24.7047  -15.8532   20.6042 H   0  0  0  0  0  0
  -26.3389  -15.6164   20.2459 H   0  0  0  0  0  0
  -26.7084  -32.5525   23.1157 H   0  0  0  0  0  0
  -25.0011  -33.9786   25.0461 H   0  0  0  0  0  0
  -22.6902  -31.3046   21.4133 H   0  0  0  0  0  0
  -23.3756  -35.9624   23.3286 H   0  0  0  0  0  0
  -24.3580  -36.8943   22.2061 H   0  0  0  0  0  0
  -23.7201  -37.6499   23.6666 H   0  0  0  0  0  0
  -26.0441  -31.5887   20.5926 H   0  0  0  0  0  0
  -26.8214  -30.8822   21.9790 H   0  0  0  0  0  0
  -28.0965  -29.0836   21.1600 H   0  0  0  0  0  0
  -25.9853  -25.9447   19.0500 H   0  0  0  0  0  0
  -23.9682  -27.2849   19.0562 H   0  0  0  0  0  0
  -23.7127  -30.5908   19.4056 H   0  0  0  0  0  0
  -22.7321  -29.2365   19.8773 H   0  0  0  0  0  0
  -25.1266  -36.1986   25.0841 H   0  0  0  0  0  0
  -20.9928  -28.3184   24.1468 H   0  0  0  0  0  0
  -20.5618  -26.2241   23.3612 H   0  0  0  0  0  0
  -21.6617  -26.7399   22.1247 H   0  0  0  0  0  0
  -19.6887  -25.6283   21.1233 H   0  0  0  0  0  0
  -19.6677  -27.3193   20.6757 H   0  0  0  0  0  0
  -17.4178  -26.6677   21.4012 H   0  0  0  0  0  0
  -18.0287  -26.0036   22.8998 H   0  0  0  0  0  0
  -19.7908  -30.7231   24.2306 H   0  0  0  0  0  0
  -17.4991  -31.6257   24.5143 H   0  0  0  0  0  0
  -15.5334  -30.2981   23.7621 H   0  0  0  0  0  0
  -15.8650  -28.0805   22.7068 H   0  0  0  0  0  0
  -24.5900  -30.7050   25.7832 H   0  0  0  0  0  0
  -24.8968  -32.2818   26.5014 H   0  0  0  0  0  0
  -25.8134  -30.8792   27.0198 H   0  0  0  0  0  0
  -26.2788  -29.6812   24.1147 H   0  0  0  0  0  0
  -27.4088  -29.7267   25.4497 H   0  0  0  0  0  0
  -27.8613  -30.4375   23.9165 H   0  0  0  0  0  0
  -27.2659  -33.3602   26.2079 H   0  0  0  0  0  0
  -28.3807  -32.6918   25.0251 H   0  0  0  0  0  0
  -28.0755  -31.8422   26.5330 H   0  0  0  0  0  0
  -28.2588  -38.0115   24.7563 H   0  0  0  0  0  0
  -28.1108  -36.2655   24.6212 H   0  0  0  0  0  0
  -27.2324  -37.1359   25.8867 H   0  0  0  0  0  0
  -20.9283  -29.8760   21.7013 H   0  0  0  0  0  0
  -26.0179  -38.2878   24.1463 H   0  0  0  0  0  0
  -31.9001  -18.5864   20.5933 H   0  0  0  0  0  0
  -27.3977  -20.4299   21.4454 H   0  0  0  0  0  0
  -29.9139  -23.1416   22.0766 H   0  0  0  0  0  0
  -30.6697  -23.7452   20.5438 H   0  0  0  0  0  0
  -27.1229  -22.8959   19.6530 H   0  0  0  0  0  0
  -27.2720  -22.5631   21.4254 H   0  0  0  0  0  0
  -28.1640  -24.6751   21.7047 H   0  0  0  0  0  0
  -32.5902  -20.5213   19.5077 H   0  0  0  0  0  0
  -32.1586  -21.8880   20.5306 H   0  0  0  0  0  0
  -31.4030  -21.6914   18.9414 H   0  0  0  0  0  0
  -28.3716  -16.6730   19.6215 H   0  0  0  0  0  0
  -29.1941  -15.4764   18.6396 H   0  0  0  0  0  0
  -29.9968  -16.9778   18.9902 H   0  0  0  0  0  0
  -29.7686  -16.4050   22.6088 H   0  0  0  0  0  0
  -31.3299  -16.6210   21.9065 H   0  0  0  0  0  0
  -27.8352  -25.0977   18.8574 H   0  0  0  0  0  0
  -29.4985  -25.2896   19.1526 H   0  0  0  0  0  0
  1 25  1  0  0  0
  1 30  2  0  0  0
  1 85  1  0  0  0
  2  3  1  0  0  0
  2 25  1  0  0  0
  2 87  1  0  0  0
  2 88  1  0  0  0
  3  4  1  0  0  0
  3 89  1  0  0  0
  3 90  1  0  0  0
  4  5  1  0  0  0
  4 91  1  0  0  0
  4 92  1  0  0  0
  5  6  1  0  0  0
  5 26  1  0  0  0
  5 93  1  0  0  0
  6 25  1  0  0  0
  6 94  1  0  0  0
  6 95  1  0  0  0
  7  8  2  0  0  0
  7 26  1  0  0  0
  7 29  1  0  0  0
  8  9  1  0  0  0
  8 22  1  0  0  0
  9 10  1  0  0  0
  9 27  2  0  0  0
 10 11  2  0  0  0
 10 15  1  0  0  0
 11 12  1  0  0  0
 11 96  1  0  0  0
 12 13  2  0  0  0
 12 97  1  0  0  0
 13 14  1  0  0  0
 13 31  1  0  0  0
 14 15  2  0  0  0
 14 98  1  0  0  0
 15 99  1  0  0  0
 16 17  2  0  0  0
 16 21  1  0  0  0
 16 31  1  0  0  0
 17 18  1  0  0  0
 17100  1  0  0  0
 18 19  2  0  0  0
 18101  1  0  0  0
 19 20  1  0  0  0
 19 24  1  0  0  0
 20 21  2  0  0  0
 20102  1  0  0  0
 21 23  1  0  0  0
 22 28  1  0  0  0
 22 32  2  0  0  0
 26 27  1  0  0  0
 28103  1  0  0  0
 28104  1  0  0  0
 29105  1  0  0  0
 29106  1  0  0  0
 33 34  1  0  0  0
 33 66  1  0  0  0
 33 70  2  0  0  0
 34 36  1  0  0  0
 34 59  1  0  0  0
 34107  1  0  0  0
 35 44  2  0  0  0
 35 45  1  0  0  0
 35 68  1  0  0  0
 36 56  1  0  0  0
 36108  1  0  0  0
 37 39  1  0  0  0
 37 47  1  0  0  0
 37 66  1  0  0  0
 37109  1  0  0  0
 38 43  2  0  0  0
 38 46  1  0  0  0
 38 47  1  0  0  0
 39 64  1  0  0  0
 39 67  2  0  0  0
 40 52  1  0  0  0
 40 53  2  0  0  0
 40 58  1  0  0  0
 41110  1  0  0  0
 41111  1  0  0  0
 41112  1  0  0  0
 41 48  1  0  0  0
 42 43  1  0  0  0
 42 66  1  0  0  0
 42113  1  0  0  0
 42114  1  0  0  0
 43 44  1  0  0  0
 44115  1  0  0  0
 45 46  2  0  0  0
 45116  1  0  0  0
 46117  1  0  0  0
 47118  1  0  0  0
 47119  1  0  0  0
 48 56  1  0  0  0
 48 65  1  0  0  0
 48120  1  0  0  0
 49 50  1  0  0  0
 49 53  1  0  0  0
 49 64  1  0  0  0
 49121  1  0  0  0
 50 51  1  0  0  0
 50122  1  0  0  0
 50123  1  0  0  0
 51 52  1  0  0  0
 51124  1  0  0  0
 51125  1  0  0  0
 52126  1  0  0  0
 52127  1  0  0  0
 53 54  1  0  0  0
 54 55  2  0  0  0
 54128  1  0  0  0
 55 57  1  0  0  0
 55129  1  0  0  0
 56 69  2  0  0  0
 57 58  2  0  0  0
 57130  1  0  0  0
 58131  1  0  0  0
 59 60  1  0  0  0
 59 61  1  0  0  0
 59 62  1  0  0  0
 60132  1  0  0  0
 60133  1  0  0  0
 60134  1  0  0  0
 61135  1  0  0  0
 61136  1  0  0  0
 61137  1  0  0  0
 62138  1  0  0  0
 62139  1  0  0  0
 62140  1  0  0  0
 63 65  1  0  0  0
 63141  1  0  0  0
 63142  1  0  0  0
 63143  1  0  0  0
 64144  1  0  0  0
 65145  1  0  0  0
 68 83  1  0  0  0
 71 73  2  0  0  0
 71 74  1  0  0  0
 71146  1  0  0  0
 72 75  2  0  0  0
 72 76  1  0  0  0
 72147  1  0  0  0
 73 75  1  0  0  0
 73 80  1  0  0  0
 74 76  2  0  0  0
 74 82  1  0  0  0
 75 84  1  0  0  0
 76 86  1  0  0  0
 77 79  1  0  0  0
 77 84  1  0  0  0
 77148  1  0  0  0
 77149  1  0  0  0
 78 79  1  0  0  0
 78 84  1  0  0  0
 78150  1  0  0  0
 78151  1  0  0  0
 79 83  1  0  0  0
 79152  1  0  0  0
 80153  1  0  0  0
 80154  1  0  0  0
 80155  1  0  0  0
 81 85  1  0  0  0
 81156  1  0  0  0
 81157  1  0  0  0
 81158  1  0  0  0
 82 85  1  0  0  0
 82159  1  0  0  0
 82160  1  0  0  0
 83161  1  0  0  0
 83162  1  0  0  0
M  ISO  4   1 100  68 101  83 101  85 100
M  END
> <chiral flag>
0

> <version>
0

> <s_m_source_file>
/data/baiqing/PycharmProjects/Reinvent-master-3.2/result/LINK_invent/BTK/process_docking_weight1_custom_product_contain_oxygen_bond_distance_aromatic_linkinvent_7_9_3/rearranged_h_0025.sdf

> <i_m_source_file_index>
15

> <r_mmod_Potential_Energy-OPLS-2005>
192.931427001953

> <r_mmod_Stretch_Energy-OPLS-2005>
48.223876953125

> <r_mmod_Bend_Energy-OPLS-2005>
146.228378295898

> <r_mmod_Torsional_Energy-OPLS-2005>
328.864044189453

> <r_mmod_Improper_Torsional_Energy-OPLS-2005>
16.8463039398193

> <r_mmod_Van_der_Waal_Energy-OPLS-2005>
156.373413085938

> <r_mmod_Electrostatic_Energy-OPLS-2005>
-328.224731445312

> <r_mmod_Solvation_Energy-OPLS-2005>
-200.877807617188

> <b_mmod_Minimization_Converged-OPLS-2005>
0

> <r_mmod_RMS_Derivative-OPLS-2005>
2.50189328193665

$$$$
15
                    3D
 Structure written by MMmdl.
154162  0  0  1  0            999 V2000
  -30.5784  -14.7494   20.4586 C   0  0  0  0  0  0
  -30.4615  -12.4587   19.4590 C   0  0  0  0  0  0
  -29.5211  -12.4735   18.2302 C   0  0  0  0  0  0
  -28.0433  -12.3056   18.6513 C   0  0  0  0  0  0
  -27.6448  -13.2173   19.8418 C   0  0  2  0  0  0
  -28.6973  -13.1376   20.9704 C   0  0  0  0  0  0
  -25.2549  -13.8180   20.5675 C   0  0  0  0  0  0
  -24.1813  -13.0448   20.9255 C   0  0  0  0  0  0
  -24.6375  -11.6916   20.8775 C   0  0  0  0  0  0
  -23.9031  -10.4298   21.0415 C   0  0  0  0  0  0
  -24.3574   -9.4214   21.9197 C   0  0  0  0  0  0
  -23.6261   -8.2240   22.0741 C   0  0  0  0  0  0
  -22.4249   -8.0260   21.3523 C   0  0  0  0  0  0
  -21.9876   -9.0237   20.4641 C   0  0  0  0  0  0
  -22.7194  -10.2134   20.3076 C   0  0  0  0  0  0
  -21.6856   -6.0722   22.5258 C   0  0  0  0  0  0
  -21.4011   -6.5628   23.8197 C   0  0  0  0  0  0
  -21.3663   -5.6770   24.9151 C   0  0  0  0  0  0
  -21.6049   -4.3042   24.7198 C   0  0  0  0  0  0
  -21.8828   -3.8134   23.4333 C   0  0  0  0  0  0
  -21.9190   -4.6944   22.3388 C   0  0  0  0  0  0
  -22.7832  -13.5250   21.1869 C   0  0  0  0  0  0
  -22.1663   -4.2137   21.0967 F   0  0  0  0  0  0
  -21.5625   -3.4516   25.7717 F   0  0  0  0  0  0
  -29.9915  -13.5086   20.3823 N   0  0  0  0  0  0
  -26.2945  -12.9342   20.3242 N   0  0  0  0  0  0
  -25.9302  -11.6508   20.5759 N   0  0  0  0  0  0
  -22.0469  -12.8261   22.0434 N   0  0  0  0  0  0
  -25.4302  -15.1880   20.3952 N   0  0  0  0  0  0
  -31.7880  -14.8891   20.2539 O   0  0  0  0  0  0
  -21.6629   -6.8854   21.4217 O   0  0  0  0  0  0
  -22.3530  -14.5542   20.6693 O   0  0  0  0  0  0
  -24.6352  -31.8568   23.1961 C   0  0  0  0  0  0
  -25.9182  -32.4766   23.8318 C   0  0  1  0  0  0
  -27.2116  -27.2586   20.1161 C   0  0  0  0  0  0
  -25.5981  -33.8564   24.2246 N   0  0  0  0  0  0
  -23.4268  -30.4825   21.5455 C   0  0  2  0  0  0
  -24.8666  -28.9362   20.1078 C   0  0  0  0  0  0
  -22.7532  -29.4623   22.4933 C   0  0  0  0  0  0
  -18.0317  -28.1359   22.8492 C   0  0  0  0  0  0
  -24.1483  -36.7249   23.2629 C   0  0  0  0  0  0
  -25.9780  -30.7717   21.3746 C   0  0  0  0  0  0
  -26.0475  -29.3991   20.7031 C   0  0  0  0  0  0
  -27.2270  -28.5806   20.6809 C   0  0  0  0  0  0
  -25.9945  -26.8689   19.5051 C   0  0  0  0  0  0
  -24.8470  -27.6779   19.4942 C   0  0  0  0  0  0
  -23.6362  -29.8202   20.1620 C   0  0  0  0  0  0
  -25.4119  -36.3058   24.0313 C   0  0  1  0  0  0
  -20.5922  -28.3673   23.1249 C   0  0  2  0  0  0
  -20.6794  -26.9385   22.5389 C   0  0  0  0  0  0
  -19.5750  -26.6365   21.5203 C   0  0  0  0  0  0
  -18.1945  -26.7906   22.1628 C   0  0  0  0  0  0
  -19.1574  -28.8837   23.2853 C   0  0  0  0  0  0
  -18.9491  -30.1448   23.8844 C   0  0  0  0  0  0
  -17.6486  -30.6564   24.0559 C   0  0  0  0  0  0
  -25.9067  -34.9447   23.5074 C   0  0  0  0  0  0
  -16.5366  -29.9052   23.6355 C   0  0  0  0  0  0
  -16.7299  -28.6472   23.0362 C   0  0  0  0  0  0
  -26.4525  -31.6610   25.0736 C   0  0  0  0  0  0
  -25.3724  -31.3834   26.1447 C   0  0  0  0  0  0
  -27.0357  -30.2992   24.6276 C   0  0  0  0  0  0
  -27.6036  -32.4387   25.7535 C   0  0  0  0  0  0
  -27.5569  -37.1786   24.8470 C   0  0  0  0  0  0
  -21.4241  -29.3019   22.3654 N   0  0  0  0  0  0
  -26.4278  -37.3771   23.9412 N   0  0  0  0  0  0
  -24.6999  -31.0556   22.0925 N   0  0  0  0  0  0
  -23.4238  -28.8174   23.3040 O   0  0  0  0  0  0
  -28.2925  -26.3338   20.1638 O   0  0  0  0  0  0
  -26.5628  -34.8928   22.4635 O   0  0  0  0  0  0
  -23.5515  -32.1374   23.7283 O   0  0  0  0  0  0
  -29.6990  -18.4320   20.1532 C   0  0  0  0  0  0
  -29.1657  -18.5446   22.8808 C   0  0  0  0  0  0
  -29.4448  -19.7419   20.7474 C   0  0  0  0  0  0
  -29.7124  -17.1882   20.9129 C   0  0  0  0  0  0
  -29.1504  -19.7416   22.1309 C   0  0  0  0  0  0
  -29.4533  -17.2974   22.2947 C   0  0  0  0  0  0
  -29.0326  -23.7062   20.2005 C   0  0  0  0  0  0
  -27.2348  -22.0095   20.2104 C   0  0  0  0  0  0
  -29.5645  -21.1377   19.9683 C   0  0  0  0  0  0
  -27.9309  -24.8662   20.0732 C   0  0  0  0  0  0
  -29.7057  -15.8196   20.3618 N   0  0  0  0  0  0
  -28.6605  -22.3545   20.2126 N   0  0  0  0  0  0
  -30.2216  -24.0383   20.2151 O   0  0  0  0  0  0
  -28.8587  -20.9028   22.7648 F   0  0  0  0  0  0
  -29.4135  -16.1784   23.0609 F   0  0  0  0  0  0
  -31.4957  -12.6253   19.1500 H   0  0  0  0  0  0
  -30.4458  -11.4861   19.9540 H   0  0  0  0  0  0
  -29.8073  -11.6764   17.5426 H   0  0  0  0  0  0
  -29.6438  -13.4062   17.6772 H   0  0  0  0  0  0
  -27.8995  -11.2583   18.9274 H   0  0  0  0  0  0
  -27.3897  -12.4849   17.7994 H   0  0  0  0  0  0
  -27.6367  -14.2329   19.4448 H   0  0  0  0  0  0
  -28.7455  -12.1301   21.3909 H   0  0  0  0  0  0
  -28.4393  -13.8048   21.7959 H   0  0  0  0  0  0
  -25.2726   -9.5682   22.4765 H   0  0  0  0  0  0
  -23.9975   -7.4629   22.7451 H   0  0  0  0  0  0
  -21.0826   -8.8738   19.8956 H   0  0  0  0  0  0
  -22.3646  -10.9645   19.6178 H   0  0  0  0  0  0
  -21.2019   -7.6129   23.9686 H   0  0  0  0  0  0
  -21.1481   -6.0504   25.9050 H   0  0  0  0  0  0
  -22.0619   -2.7589   23.2818 H   0  0  0  0  0  0
  -22.4051  -11.9933   22.4849 H   0  0  0  0  0  0
  -21.1084  -13.1316   22.2638 H   0  0  0  0  0  0
  -24.6462  -15.8309   20.4373 H   0  0  0  0  0  0
  -26.2428  -15.5905   19.9462 H   0  0  0  0  0  0
  -26.7267  -32.5412   23.1074 H   0  0  0  0  0  0
  -25.0227  -33.9701   25.0461 H   0  0  0  0  0  0
  -22.7220  -31.3049   21.4077 H   0  0  0  0  0  0
  -23.3761  -35.9563   23.3302 H   0  0  0  0  0  0
  -24.3550  -36.8866   22.2037 H   0  0  0  0  0  0
  -23.7220  -37.6450   23.6642 H   0  0  0  0  0  0
  -26.1319  -31.5400   20.6157 H   0  0  0  0  0  0
  -26.8500  -30.8012   22.0160 H   0  0  0  0  0  0
  -28.1403  -28.9404   21.1349 H   0  0  0  0  0  0
  -25.8689  -25.9095   19.0373 H   0  0  0  0  0  0
  -23.9471  -27.3082   19.0248 H   0  0  0  0  0  0
  -23.7443  -30.5957   19.4015 H   0  0  0  0  0  0
  -22.7526  -29.2499   19.8727 H   0  0  0  0  0  0
  -25.1309  -36.1892   25.0803 H   0  0  0  0  0  0
  -21.0025  -28.3231   24.1353 H   0  0  0  0  0  0
  -20.5685  -26.2285   23.3589 H   0  0  0  0  0  0
  -21.6664  -26.7400   22.1166 H   0  0  0  0  0  0
  -19.6890  -25.6284   21.1208 H   0  0  0  0  0  0
  -19.6656  -27.3196   20.6736 H   0  0  0  0  0  0
  -17.4210  -26.6667   21.4023 H   0  0  0  0  0  0
  -18.0326  -26.0043   22.9014 H   0  0  0  0  0  0
  -19.7955  -30.7313   24.2138 H   0  0  0  0  0  0
  -17.5022  -31.6238   24.5171 H   0  0  0  0  0  0
  -15.5355  -30.2932   23.7689 H   0  0  0  0  0  0
  -15.8704  -28.0778   22.7075 H   0  0  0  0  0  0
  -24.5844  -30.7240   25.7808 H   0  0  0  0  0  0
  -24.8991  -32.3053   26.4828 H   0  0  0  0  0  0
  -25.8015  -30.9044   27.0257 H   0  0  0  0  0  0
  -26.2969  -29.6752   24.1219 H   0  0  0  0  0  0
  -27.3912  -29.7250   25.4850 H   0  0  0  0  0  0
  -27.8908  -30.4221   23.9615 H   0  0  0  0  0  0
  -27.2566  -33.3674   26.2073 H   0  0  0  0  0  0
  -28.3862  -32.6988   25.0399 H   0  0  0  0  0  0
  -28.0663  -31.8561   26.5501 H   0  0  0  0  0  0
  -28.2614  -38.0060   24.7541 H   0  0  0  0  0  0
  -28.1051  -36.2612   24.6295 H   0  0  0  0  0  0
  -27.2290  -37.1438   25.8871 H   0  0  0  0  0  0
  -20.9431  -29.8729   21.6848 H   0  0  0  0  0  0
  -26.0155  -38.2833   24.1453 H   0  0  0  0  0  0
  -29.8722  -18.3809   19.0862 H   0  0  0  0  0  0
  -28.9262  -18.5746   23.9322 H   0  0  0  0  0  0
  -26.7427  -22.3631   21.1176 H   0  0  0  0  0  0
  -27.0668  -20.9348   20.1450 H   0  0  0  0  0  0
  -26.7271  -22.4534   19.3561 H   0  0  0  0  0  0
  -29.4900  -20.9209   18.8997 H   0  0  0  0  0  0
  -30.5926  -21.4714   20.1177 H   0  0  0  0  0  0
  -27.1649  -24.6622   20.8217 H   0  0  0  0  0  0
  -27.5065  -24.6817   19.0890 H   0  0  0  0  0  0
  -28.7690  -15.4638   20.2665 H   0  0  0  0  0  0
  1 25  1  0  0  0
  1 30  2  0  0  0
  1 81  1  0  0  0
  2  3  1  0  0  0
  2 25  1  0  0  0
  2 86  1  0  0  0
  2 87  1  0  0  0
  3  4  1  0  0  0
  3 88  1  0  0  0
  3 89  1  0  0  0
  4  5  1  0  0  0
  4 90  1  0  0  0
  4 91  1  0  0  0
  5  6  1  0  0  0
  5 26  1  0  0  0
  5 92  1  0  0  0
  6 25  1  0  0  0
  6 93  1  0  0  0
  6 94  1  0  0  0
  7  8  2  0  0  0
  7 26  1  0  0  0
  7 29  1  0  0  0
  8  9  1  0  0  0
  8 22  1  0  0  0
  9 10  1  0  0  0
  9 27  2  0  0  0
 10 11  2  0  0  0
 10 15  1  0  0  0
 11 12  1  0  0  0
 11 95  1  0  0  0
 12 13  2  0  0  0
 12 96  1  0  0  0
 13 14  1  0  0  0
 13 31  1  0  0  0
 14 15  2  0  0  0
 14 97  1  0  0  0
 15 98  1  0  0  0
 16 17  2  0  0  0
 16 21  1  0  0  0
 16 31  1  0  0  0
 17 18  1  0  0  0
 17 99  1  0  0  0
 18 19  2  0  0  0
 18100  1  0  0  0
 19 20  1  0  0  0
 19 24  1  0  0  0
 20 21  2  0  0  0
 20101  1  0  0  0
 21 23  1  0  0  0
 22 28  1  0  0  0
 22 32  2  0  0  0
 26 27  1  0  0  0
 28102  1  0  0  0
 28103  1  0  0  0
 29104  1  0  0  0
 29105  1  0  0  0
 33 34  1  0  0  0
 33 66  1  0  0  0
 33 70  2  0  0  0
 34 36  1  0  0  0
 34 59  1  0  0  0
 34106  1  0  0  0
 35 44  2  0  0  0
 35 45  1  0  0  0
 35 68  1  0  0  0
 36 56  1  0  0  0
 36107  1  0  0  0
 37 39  1  0  0  0
 37 47  1  0  0  0
 37 66  1  0  0  0
 37108  1  0  0  0
 38 43  2  0  0  0
 38 46  1  0  0  0
 38 47  1  0  0  0
 39 64  1  0  0  0
 39 67  2  0  0  0
 40 52  1  0  0  0
 40 53  2  0  0  0
 40 58  1  0  0  0
 41109  1  0  0  0
 41110  1  0  0  0
 41111  1  0  0  0
 41 48  1  0  0  0
 42 43  1  0  0  0
 42 66  1  0  0  0
 42112  1  0  0  0
 42113  1  0  0  0
 43 44  1  0  0  0
 44114  1  0  0  0
 45 46  2  0  0  0
 45115  1  0  0  0
 46116  1  0  0  0
 47117  1  0  0  0
 47118  1  0  0  0
 48 56  1  0  0  0
 48 65  1  0  0  0
 48119  1  0  0  0
 49 50  1  0  0  0
 49 53  1  0  0  0
 49 64  1  0  0  0
 49120  1  0  0  0
 50 51  1  0  0  0
 50121  1  0  0  0
 50122  1  0  0  0
 51 52  1  0  0  0
 51123  1  0  0  0
 51124  1  0  0  0
 52125  1  0  0  0
 52126  1  0  0  0
 53 54  1  0  0  0
 54 55  2  0  0  0
 54127  1  0  0  0
 55 57  1  0  0  0
 55128  1  0  0  0
 56 69  2  0  0  0
 57 58  2  0  0  0
 57129  1  0  0  0
 58130  1  0  0  0
 59 60  1  0  0  0
 59 61  1  0  0  0
 59 62  1  0  0  0
 60131  1  0  0  0
 60132  1  0  0  0
 60133  1  0  0  0
 61134  1  0  0  0
 61135  1  0  0  0
 61136  1  0  0  0
 62137  1  0  0  0
 62138  1  0  0  0
 62139  1  0  0  0
 63 65  1  0  0  0
 63140  1  0  0  0
 63141  1  0  0  0
 63142  1  0  0  0
 64143  1  0  0  0
 65144  1  0  0  0
 68 80  1  0  0  0
 71 73  2  0  0  0
 71 74  1  0  0  0
 71145  1  0  0  0
 72 75  2  0  0  0
 72 76  1  0  0  0
 72146  1  0  0  0
 73 75  1  0  0  0
 73 79  1  0  0  0
 74 76  2  0  0  0
 74 81  1  0  0  0
 75 84  1  0  0  0
 76 85  1  0  0  0
 77 80  1  0  0  0
 77 82  1  0  0  0
 77 83  2  0  0  0
 78 82  1  0  0  0
 78147  1  0  0  0
 78148  1  0  0  0
 78149  1  0  0  0
 79 82  1  0  0  0
 79150  1  0  0  0
 79151  1  0  0  0
 80152  1  0  0  0
 80153  1  0  0  0
 81154  1  0  0  0
M  ISO  4   1 100  68 101  80 101  81 100
M  END
> <chiral flag>
0

> <version>
0

> <s_m_source_file>
/data/baiqing/PycharmProjects/Reinvent-master-3.2/result/LINK_invent/BTK/process_docking_weight1_custom_product_contain_oxygen_bond_distance_aromatic_linkinvent_7_9_3/rearranged_h_0025.sdf

> <i_m_source_file_index>
16

> <r_mmod_Potential_Energy-OPLS-2005>
185.782485961914

> <r_mmod_Stretch_Energy-OPLS-2005>
127.706893920898

> <r_mmod_Bend_Energy-OPLS-2005>
166.969650268555

> <r_mmod_Torsional_Energy-OPLS-2005>
268.793823242188

> <r_mmod_Improper_Torsional_Energy-OPLS-2005>
17.0061588287354

> <r_mmod_Van_der_Waal_Energy-OPLS-2005>
143.497406005859

> <r_mmod_Electrostatic_Energy-OPLS-2005>
-396.171630859375

> <r_mmod_Solvation_Energy-OPLS-2005>
-236.43098449707

> <b_mmod_Minimization_Converged-OPLS-2005>
0

> <r_mmod_RMS_Derivative-OPLS-2005>
4.49859523773193

$$$$
16
                    3D
 Structure written by MMmdl.
162171  0  0  1  0            999 V2000
  -30.6832  -14.6253   20.4832 C   0  0  0  0  0  0
  -30.4173  -12.3861   19.4610 C   0  0  0  0  0  0
  -29.4992  -12.4933   18.2271 C   0  0  0  0  0  0
  -28.0242  -12.3355   18.6426 C   0  0  0  0  0  0
  -27.6442  -13.2264   19.8559 C   0  0  2  0  0  0
  -28.6900  -13.1337   20.9892 C   0  0  0  0  0  0
  -25.2512  -13.8195   20.5697 C   0  0  0  0  0  0
  -24.1793  -13.0444   20.9207 C   0  0  0  0  0  0
  -24.6379  -11.6921   20.8750 C   0  0  0  0  0  0
  -23.9049  -10.4297   21.0403 C   0  0  0  0  0  0
  -24.3600   -9.4214   21.9176 C   0  0  0  0  0  0
  -23.6288   -8.2243   22.0752 C   0  0  0  0  0  0
  -22.4273   -8.0273   21.3549 C   0  0  0  0  0  0
  -21.9904   -9.0241   20.4652 C   0  0  0  0  0  0
  -22.7222  -10.2126   20.3052 C   0  0  0  0  0  0
  -21.6853   -6.0724   22.5278 C   0  0  0  0  0  0
  -21.4021   -6.5629   23.8209 C   0  0  0  0  0  0
  -21.3659   -5.6787   24.9173 C   0  0  0  0  0  0
  -21.6046   -4.3050   24.7224 C   0  0  0  0  0  0
  -21.8821   -3.8136   23.4352 C   0  0  0  0  0  0
  -21.9197   -4.6948   22.3401 C   0  0  0  0  0  0
  -22.7819  -13.5226   21.1855 C   0  0  0  0  0  0
  -22.1661   -4.2130   21.0982 F   0  0  0  0  0  0
  -21.5624   -3.4540   25.7744 F   0  0  0  0  0  0
  -30.0012  -13.4412   20.4077 N   0  0  0  0  0  0
  -26.2941  -12.9396   20.3315 N   0  0  0  0  0  0
  -25.9307  -11.6540   20.5770 N   0  0  0  0  0  0
  -22.0465  -12.8232   22.0417 N   0  0  0  0  0  0
  -25.4219  -15.1918   20.4110 N   0  0  0  0  0  0
  -31.8679  -14.6833   20.1473 O   0  0  0  0  0  0
  -21.6641   -6.8863   21.4242 O   0  0  0  0  0  0
  -22.3515  -14.5526   20.6683 O   0  0  0  0  0  0
  -24.6230  -31.8606   23.2023 C   0  0  0  0  0  0
  -25.9083  -32.4782   23.8351 C   0  0  1  0  0  0
  -27.2197  -27.3363   20.1289 C   0  0  0  0  0  0
  -25.5899  -33.8583   24.2273 N   0  0  0  0  0  0
  -23.4166  -30.4826   21.5446 C   0  0  2  0  0  0
  -24.8640  -28.9370   20.1135 C   0  0  0  0  0  0
  -22.7461  -29.4620   22.4947 C   0  0  0  0  0  0
  -18.0276  -28.1384   22.8482 C   0  0  0  0  0  0
  -24.1486  -36.7300   23.2643 C   0  0  0  0  0  0
  -25.9549  -30.7982   21.3700 C   0  0  0  0  0  0
  -26.0311  -29.4254   20.7165 C   0  0  0  0  0  0
  -27.2165  -28.6357   20.7142 C   0  0  0  0  0  0
  -26.0379  -26.8930   19.5009 C   0  0  0  0  0  0
  -24.8675  -27.6753   19.4964 C   0  0  0  0  0  0
  -23.6306  -29.8141   20.1609 C   0  0  0  0  0  0
  -25.4109  -36.3087   24.0332 C   0  0  1  0  0  0
  -20.5874  -28.3679   23.1293 C   0  0  2  0  0  0
  -20.6762  -26.9406   22.5416 C   0  0  0  0  0  0
  -19.5742  -26.6382   21.5211 C   0  0  0  0  0  0
  -18.1922  -26.7925   22.1623 C   0  0  0  0  0  0
  -19.1530  -28.8847   23.2881 C   0  0  0  0  0  0
  -18.9460  -30.1449   23.8895 C   0  0  0  0  0  0
  -17.6464  -30.6589   24.0562 C   0  0  0  0  0  0
  -25.9043  -34.9457   23.5106 C   0  0  0  0  0  0
  -16.5350  -29.9092   23.6330 C   0  0  0  0  0  0
  -16.7266  -28.6512   23.0344 C   0  0  0  0  0  0
  -26.4479  -31.6589   25.0717 C   0  0  0  0  0  0
  -25.3725  -31.3729   26.1456 C   0  0  0  0  0  0
  -27.0312  -30.3011   24.6158 C   0  0  0  0  0  0
  -27.6032  -32.4329   25.7490 C   0  0  0  0  0  0
  -27.5578  -37.1804   24.8463 C   0  0  0  0  0  0
  -21.4176  -29.3039   22.3697 N   0  0  0  0  0  0
  -26.4287  -37.3782   23.9411 N   0  0  0  0  0  0
  -24.6834  -31.0634   22.0965 N   0  0  0  0  0  0
  -23.4195  -28.8165   23.3019 O   0  0  0  0  0  0
  -28.3266  -26.4871   20.1460 O   0  0  0  0  0  0
  -26.5624  -34.8927   22.4680 O   0  0  0  0  0  0
  -23.5398  -32.1396   23.7364 O   0  0  0  0  0  0
  -29.2798  -18.9876   21.7759 C   0  0  0  0  0  0
  -29.6739  -20.8593   19.7333 C   0  0  0  0  0  0
  -28.9095  -20.3560   21.9581 C   0  0  0  0  0  0
  -29.9119  -18.5267   20.5966 C   0  0  0  0  0  0
  -29.1562  -21.3520   20.9575 C   0  0  0  0  0  0
  -30.0519  -19.4954   19.5551 C   0  0  0  0  0  0
  -31.0593  -24.0016   21.3608 C   0  0  0  0  0  0
  -30.3873  -24.2296   20.0054 C   0  0  0  0  0  0
  -30.0462  -23.1868   22.1797 C   0  0  0  0  0  0
  -28.9180  -23.8825   20.2612 C   0  0  2  0  0  0
  -28.2818  -20.7363   23.2911 C   0  0  0  0  0  0
  -30.6514  -17.1357   20.5516 C   0  0  0  0  0  0
  -28.1367  -25.1751   20.7975 C   0  0  0  0  0  0
  -28.9949  -22.7581   21.2511 N   0  0  0  0  0  0
  -29.9967  -15.7895   20.7174 N   0  0  0  0  0  0
  -30.7693  -19.0724   18.0391 Cl  0  0  0  0  0  0
  -31.4618  -12.4801   19.1572 H   0  0  0  0  0  0
  -30.3313  -11.4039   19.9280 H   0  0  0  0  0  0
  -29.7658  -11.7322   17.4914 H   0  0  0  0  0  0
  -29.6456  -13.4579   17.7386 H   0  0  0  0  0  0
  -27.8661  -11.2854   18.8926 H   0  0  0  0  0  0
  -27.3680  -12.5476   17.7975 H   0  0  0  0  0  0
  -27.6497  -14.2532   19.4889 H   0  0  0  0  0  0
  -28.7000  -12.1350   21.4286 H   0  0  0  0  0  0
  -28.4469  -13.8246   21.7974 H   0  0  0  0  0  0
  -25.2740   -9.5697   22.4754 H   0  0  0  0  0  0
  -23.9996   -7.4641   22.7478 H   0  0  0  0  0  0
  -21.0829   -8.8754   19.8969 H   0  0  0  0  0  0
  -22.3667  -10.9656   19.6160 H   0  0  0  0  0  0
  -21.2019   -7.6143   23.9709 H   0  0  0  0  0  0
  -21.1478   -6.0517   25.9073 H   0  0  0  0  0  0
  -22.0602   -2.7597   23.2859 H   0  0  0  0  0  0
  -22.4074  -11.9896   22.4814 H   0  0  0  0  0  0
  -21.1079  -13.1265   22.2604 H   0  0  0  0  0  0
  -24.6592  -15.8493   20.5289 H   0  0  0  0  0  0
  -26.2692  -15.6314   20.0750 H   0  0  0  0  0  0
  -26.7155  -32.5468   23.1108 H   0  0  0  0  0  0
  -25.0011  -33.9724   25.0394 H   0  0  0  0  0  0
  -22.7096  -31.3021   21.3998 H   0  0  0  0  0  0
  -23.3744  -35.9636   23.3302 H   0  0  0  0  0  0
  -24.3580  -36.8923   22.2059 H   0  0  0  0  0  0
  -23.7245  -37.6505   23.6666 H   0  0  0  0  0  0
  -26.0804  -31.5604   20.5999 H   0  0  0  0  0  0
  -26.8376  -30.8504   21.9958 H   0  0  0  0  0  0
  -28.1143  -29.0026   21.1925 H   0  0  0  0  0  0
  -26.0151  -25.9231   19.0244 H   0  0  0  0  0  0
  -23.9735  -27.2934   19.0225 H   0  0  0  0  0  0
  -23.7483  -30.5874   19.4014 H   0  0  0  0  0  0
  -22.7522  -29.2396   19.8613 H   0  0  0  0  0  0
  -25.1292  -36.1937   25.0826 H   0  0  0  0  0  0
  -20.9959  -28.3247   24.1415 H   0  0  0  0  0  0
  -20.5646  -26.2291   23.3613 H   0  0  0  0  0  0
  -21.6636  -26.7429   22.1220 H   0  0  0  0  0  0
  -19.6904  -25.6294   21.1236 H   0  0  0  0  0  0
  -19.6680  -27.3195   20.6744 H   0  0  0  0  0  0
  -17.4190  -26.6659   21.4030 H   0  0  0  0  0  0
  -18.0328  -26.0072   22.9026 H   0  0  0  0  0  0
  -19.7941  -30.7256   24.2267 H   0  0  0  0  0  0
  -17.5027  -31.6270   24.5164 H   0  0  0  0  0  0
  -15.5354  -30.2997   23.7659 H   0  0  0  0  0  0
  -15.8663  -28.0838   22.7052 H   0  0  0  0  0  0
  -24.5879  -30.7095   25.7801 H   0  0  0  0  0  0
  -24.8938  -32.2897   26.4908 H   0  0  0  0  0  0
  -25.8062  -30.8893   27.0216 H   0  0  0  0  0  0
  -26.2878  -29.6772   24.1180 H   0  0  0  0  0  0
  -27.4009  -29.7260   25.4657 H   0  0  0  0  0  0
  -27.8748  -30.4296   23.9371 H   0  0  0  0  0  0
  -27.2623  -33.3616   26.2080 H   0  0  0  0  0  0
  -28.3836  -32.6915   25.0321 H   0  0  0  0  0  0
  -28.0705  -31.8450   26.5400 H   0  0  0  0  0  0
  -28.2595  -38.0103   24.7512 H   0  0  0  0  0  0
  -28.1072  -36.2634   24.6276 H   0  0  0  0  0  0
  -27.2298  -37.1444   25.8866 H   0  0  0  0  0  0
  -20.9348  -29.8778   21.6928 H   0  0  0  0  0  0
  -26.0165  -38.2855   24.1420 H   0  0  0  0  0  0
  -29.1485  -18.2920   22.5926 H   0  0  0  0  0  0
  -29.8627  -21.5431   18.9208 H   0  0  0  0  0  0
  -31.2750  -24.9493   21.8566 H   0  0  0  0  0  0
  -32.0037  -23.4682   21.2433 H   0  0  0  0  0  0
  -30.8124  -23.5511   19.2656 H   0  0  0  0  0  0
  -30.5334  -25.2405   19.6223 H   0  0  0  0  0  0
  -29.6115  -23.7995   22.9713 H   0  0  0  0  0  0
  -30.5558  -22.3593   22.6767 H   0  0  0  0  0  0
  -28.4499  -23.5469   19.3344 H   0  0  0  0  0  0
  -27.8873  -19.8599   23.8062 H   0  0  0  0  0  0
  -27.4563  -21.4343   23.1499 H   0  0  0  0  0  0
  -29.0175  -21.2024   23.9460 H   0  0  0  0  0  0
  -31.4023  -17.1971   21.3412 H   0  0  0  0  0  0
  -31.2414  -17.0944   19.6373 H   0  0  0  0  0  0
  -28.4223  -25.3551   21.8340 H   0  0  0  0  0  0
  -27.0801  -24.9147   20.8590 H   0  0  0  0  0  0
  -29.0131  -15.7474   20.9364 H   0  0  0  0  0  0
  1 25  1  0  0  0
  1 30  2  0  0  0
  1 85  1  0  0  0
  2  3  1  0  0  0
  2 25  1  0  0  0
  2 87  1  0  0  0
  2 88  1  0  0  0
  3  4  1  0  0  0
  3 89  1  0  0  0
  3 90  1  0  0  0
  4  5  1  0  0  0
  4 91  1  0  0  0
  4 92  1  0  0  0
  5  6  1  0  0  0
  5 26  1  0  0  0
  5 93  1  0  0  0
  6 25  1  0  0  0
  6 94  1  0  0  0
  6 95  1  0  0  0
  7  8  2  0  0  0
  7 26  1  0  0  0
  7 29  1  0  0  0
  8  9  1  0  0  0
  8 22  1  0  0  0
  9 10  1  0  0  0
  9 27  2  0  0  0
 10 11  2  0  0  0
 10 15  1  0  0  0
 11 12  1  0  0  0
 11 96  1  0  0  0
 12 13  2  0  0  0
 12 97  1  0  0  0
 13 14  1  0  0  0
 13 31  1  0  0  0
 14 15  2  0  0  0
 14 98  1  0  0  0
 15 99  1  0  0  0
 16 17  2  0  0  0
 16 21  1  0  0  0
 16 31  1  0  0  0
 17 18  1  0  0  0
 17100  1  0  0  0
 18 19  2  0  0  0
 18101  1  0  0  0
 19 20  1  0  0  0
 19 24  1  0  0  0
 20 21  2  0  0  0
 20102  1  0  0  0
 21 23  1  0  0  0
 22 28  1  0  0  0
 22 32  2  0  0  0
 26 27  1  0  0  0
 28103  1  0  0  0
 28104  1  0  0  0
 29105  1  0  0  0
 29106  1  0  0  0
 33 34  1  0  0  0
 33 66  1  0  0  0
 33 70  2  0  0  0
 34 36  1  0  0  0
 34 59  1  0  0  0
 34107  1  0  0  0
 35 44  2  0  0  0
 35 45  1  0  0  0
 35 68  1  0  0  0
 36 56  1  0  0  0
 36108  1  0  0  0
 37 39  1  0  0  0
 37 47  1  0  0  0
 37 66  1  0  0  0
 37109  1  0  0  0
 38 43  2  0  0  0
 38 46  1  0  0  0
 38 47  1  0  0  0
 39 64  1  0  0  0
 39 67  2  0  0  0
 40 52  1  0  0  0
 40 53  2  0  0  0
 40 58  1  0  0  0
 41110  1  0  0  0
 41111  1  0  0  0
 41112  1  0  0  0
 41 48  1  0  0  0
 42 43  1  0  0  0
 42 66  1  0  0  0
 42113  1  0  0  0
 42114  1  0  0  0
 43 44  1  0  0  0
 44115  1  0  0  0
 45 46  2  0  0  0
 45116  1  0  0  0
 46117  1  0  0  0
 47118  1  0  0  0
 47119  1  0  0  0
 48 56  1  0  0  0
 48 65  1  0  0  0
 48120  1  0  0  0
 49 50  1  0  0  0
 49 53  1  0  0  0
 49 64  1  0  0  0
 49121  1  0  0  0
 50 51  1  0  0  0
 50122  1  0  0  0
 50123  1  0  0  0
 51 52  1  0  0  0
 51124  1  0  0  0
 51125  1  0  0  0
 52126  1  0  0  0
 52127  1  0  0  0
 53 54  1  0  0  0
 54 55  2  0  0  0
 54128  1  0  0  0
 55 57  1  0  0  0
 55129  1  0  0  0
 56 69  2  0  0  0
 57 58  2  0  0  0
 57130  1  0  0  0
 58131  1  0  0  0
 59 60  1  0  0  0
 59 61  1  0  0  0
 59 62  1  0  0  0
 60132  1  0  0  0
 60133  1  0  0  0
 60134  1  0  0  0
 61135  1  0  0  0
 61136  1  0  0  0
 61137  1  0  0  0
 62138  1  0  0  0
 62139  1  0  0  0
 62140  1  0  0  0
 63 65  1  0  0  0
 63141  1  0  0  0
 63142  1  0  0  0
 63143  1  0  0  0
 64144  1  0  0  0
 65145  1  0  0  0
 68 83  1  0  0  0
 71 73  2  0  0  0
 71 74  1  0  0  0
 71146  1  0  0  0
 72 75  2  0  0  0
 72 76  1  0  0  0
 72147  1  0  0  0
 73 75  1  0  0  0
 73 81  1  0  0  0
 74 76  2  0  0  0
 74 82  1  0  0  0
 75 84  1  0  0  0
 76 86  1  0  0  0
 77 78  1  0  0  0
 77 79  1  0  0  0
 77148  1  0  0  0
 77149  1  0  0  0
 78 80  1  0  0  0
 78150  1  0  0  0
 78151  1  0  0  0
 79 84  1  0  0  0
 79152  1  0  0  0
 79153  1  0  0  0
 80 83  1  0  0  0
 80 84  1  0  0  0
 80154  1  0  0  0
 81155  1  0  0  0
 81156  1  0  0  0
 81157  1  0  0  0
 82 85  1  0  0  0
 82158  1  0  0  0
 82159  1  0  0  0
 83160  1  0  0  0
 83161  1  0  0  0
 85162  1  0  0  0
M  ISO  4   1 100  68 101  83 101  85 100
M  END
> <chiral flag>
0

> <version>
0

> <s_m_source_file>
/data/baiqing/PycharmProjects/Reinvent-master-3.2/result/LINK_invent/BTK/process_docking_weight1_custom_product_contain_oxygen_bond_distance_aromatic_linkinvent_7_9_3/rearranged_h_0025.sdf

> <i_m_source_file_index>
17

> <r_mmod_Potential_Energy-OPLS-2005>
158.059112548828

> <r_mmod_Stretch_Energy-OPLS-2005>
78.3226013183594

> <r_mmod_Bend_Energy-OPLS-2005>
178.556793212891

> <r_mmod_Torsional_Energy-OPLS-2005>
314.51708984375

> <r_mmod_Improper_Torsional_Energy-OPLS-2005>
12.4333944320679

> <r_mmod_Van_der_Waal_Energy-OPLS-2005>
150.852600097656

> <r_mmod_Electrostatic_Energy-OPLS-2005>
-410.217437744141

> <r_mmod_Solvation_Energy-OPLS-2005>
-213.473709106445

> <b_mmod_Minimization_Converged-OPLS-2005>
0

> <r_mmod_RMS_Derivative-OPLS-2005>
1.48335075378418

$$$$
17
                    3D
 Structure written by MMmdl.
159167  0  0  1  0            999 V2000
  -30.6236  -14.7451   20.4532 C   0  0  0  0  0  0
  -30.4276  -12.4535   19.4782 C   0  0  0  0  0  0
  -29.5081  -12.5035   18.2383 C   0  0  0  0  0  0
  -28.0347  -12.3291   18.6518 C   0  0  0  0  0  0
  -27.6405  -13.2331   19.8503 C   0  0  2  0  0  0
  -28.6846  -13.1773   20.9870 C   0  0  0  0  0  0
  -25.2505  -13.8200   20.5699 C   0  0  0  0  0  0
  -24.1798  -13.0442   20.9211 C   0  0  0  0  0  0
  -24.6393  -11.6921   20.8754 C   0  0  0  0  0  0
  -23.9071  -10.4295   21.0412 C   0  0  0  0  0  0
  -24.3623   -9.4207   21.9186 C   0  0  0  0  0  0
  -23.6296   -8.2243   22.0756 C   0  0  0  0  0  0
  -22.4277   -8.0283   21.3546 C   0  0  0  0  0  0
  -21.9915   -9.0257   20.4647 C   0  0  0  0  0  0
  -22.7245  -10.2136   20.3056 C   0  0  0  0  0  0
  -21.6855   -6.0735   22.5275 C   0  0  0  0  0  0
  -21.4017   -6.5640   23.8208 C   0  0  0  0  0  0
  -21.3657   -5.6794   24.9172 C   0  0  0  0  0  0
  -21.6043   -4.3056   24.7223 C   0  0  0  0  0  0
  -21.8819   -3.8147   23.4345 C   0  0  0  0  0  0
  -21.9194   -4.6963   22.3402 C   0  0  0  0  0  0
  -22.7819  -13.5224   21.1867 C   0  0  0  0  0  0
  -22.1662   -4.2149   21.0980 F   0  0  0  0  0  0
  -21.5628   -3.4542   25.7736 F   0  0  0  0  0  0
  -29.9865  -13.5239   20.4042 N   0  0  0  0  0  0
  -26.2930  -12.9411   20.3285 N   0  0  0  0  0  0
  -25.9323  -11.6551   20.5758 N   0  0  0  0  0  0
  -22.0472  -12.8208   22.0422 N   0  0  0  0  0  0
  -25.4194  -15.1927   20.4112 N   0  0  0  0  0  0
  -31.8158  -14.8011   20.1430 O   0  0  0  0  0  0
  -21.6641   -6.8881   21.4238 O   0  0  0  0  0  0
  -22.3505  -14.5532   20.6716 O   0  0  0  0  0  0
  -24.6314  -31.8543   23.1986 C   0  0  0  0  0  0
  -25.9141  -32.4750   23.8328 C   0  0  1  0  0  0
  -27.2151  -27.2610   20.1349 C   0  0  0  0  0  0
  -25.5935  -33.8554   24.2249 N   0  0  0  0  0  0
  -23.4286  -30.4773   21.5417 C   0  0  2  0  0  0
  -24.8761  -28.9249   20.1106 C   0  0  0  0  0  0
  -22.7502  -29.4596   22.4910 C   0  0  0  0  0  0
  -18.0289  -28.1387   22.8474 C   0  0  0  0  0  0
  -24.1493  -36.7281   23.2641 C   0  0  0  0  0  0
  -25.9750  -30.7681   21.3793 C   0  0  0  0  0  0
  -26.0484  -29.3908   20.7217 C   0  0  0  0  0  0
  -27.2237  -28.5720   20.7209 C   0  0  0  0  0  0
  -26.0270  -26.8692   19.4830 C   0  0  0  0  0  0
  -24.8708  -27.6725   19.4790 C   0  0  0  0  0  0
  -23.6474  -29.8121   20.1577 C   0  0  0  0  0  0
  -25.4118  -36.3064   24.0324 C   0  0  1  0  0  0
  -20.5895  -28.3697   23.1266 C   0  0  2  0  0  0
  -20.6781  -26.9414   22.5405 C   0  0  0  0  0  0
  -19.5759  -26.6379   21.5212 C   0  0  0  0  0  0
  -18.1935  -26.7925   22.1618 C   0  0  0  0  0  0
  -19.1543  -28.8857   23.2866 C   0  0  0  0  0  0
  -18.9469  -30.1457   23.8886 C   0  0  0  0  0  0
  -17.6470  -30.6587   24.0560 C   0  0  0  0  0  0
  -25.9057  -34.9435   23.5089 C   0  0  0  0  0  0
  -16.5359  -29.9086   23.6336 C   0  0  0  0  0  0
  -16.7276  -28.6507   23.0349 C   0  0  0  0  0  0
  -26.4509  -31.6575   25.0719 C   0  0  0  0  0  0
  -25.3725  -31.3729   26.1435 C   0  0  0  0  0  0
  -27.0357  -30.2987   24.6207 C   0  0  0  0  0  0
  -27.6058  -32.4322   25.7493 C   0  0  0  0  0  0
  -27.5576  -37.1795   24.8464 C   0  0  0  0  0  0
  -21.4208  -29.3045   22.3655 N   0  0  0  0  0  0
  -26.4290  -37.3762   23.9406 N   0  0  0  0  0  0
  -24.6975  -31.0508   22.0962 N   0  0  0  0  0  0
  -23.4201  -28.8133   23.3008 O   0  0  0  0  0  0
  -28.2915  -26.3437   20.1711 O   0  0  0  0  0  0
  -26.5634  -34.8909   22.4660 O   0  0  0  0  0  0
  -23.5461  -32.1368   23.7277 O   0  0  0  0  0  0
  -31.4249  -17.7664   19.9405 C   0  0  0  0  0  0
  -31.7376  -19.1295   19.7676 C   0  0  0  0  0  0
  -29.2618  -18.4403   20.7700 C   0  0  0  0  0  0
  -29.5590  -19.8728   20.6289 C   0  0  0  0  0  0
  -30.1789  -17.3501   20.4646 C   0  0  0  0  0  0
  -30.8481  -20.1692   20.1126 C   0  0  0  0  0  0
  -28.5757  -20.9550   21.1334 C   0  0  0  0  0  0
  -28.1513  -25.1394   22.2351 C   0  0  0  0  0  0
  -26.6242  -21.1507   22.7841 C   0  0  0  0  0  0
  -28.8483  -23.6222   20.2703 C   0  0  0  0  0  0
  -28.0236  -24.9604   20.7126 C   0  0  2  0  0  0
  -29.8657  -15.8975   20.6607 N   0  0  0  0  0  0
  -28.3502  -22.3221   20.9282 N   0  0  0  0  0  0
  -27.7023  -20.4736   22.0359 N   0  3  0  0  0  0
  -31.4339  -21.7782   19.8960 Cl  0  0  0  0  0  0
  -31.4696  -12.5668   19.1740 H   0  0  0  0  0  0
  -30.3655  -11.4799   19.9670 H   0  0  0  0  0  0
  -29.7909  -11.7265   17.5266 H   0  0  0  0  0  0
  -29.6345  -13.4553   17.7195 H   0  0  0  0  0  0
  -27.8924  -11.2813   18.9185 H   0  0  0  0  0  0
  -27.3770  -12.5177   17.8024 H   0  0  0  0  0  0
  -27.6321  -14.2525   19.4646 H   0  0  0  0  0  0
  -28.7188  -12.1834   21.4360 H   0  0  0  0  0  0
  -28.4189  -13.8669   21.7896 H   0  0  0  0  0  0
  -25.2770   -9.5683   22.4760 H   0  0  0  0  0  0
  -24.0005   -7.4635   22.7476 H   0  0  0  0  0  0
  -21.0848   -8.8774   19.8952 H   0  0  0  0  0  0
  -22.3702  -10.9675   19.6166 H   0  0  0  0  0  0
  -21.2009   -7.6148   23.9713 H   0  0  0  0  0  0
  -21.1480   -6.0524   25.9075 H   0  0  0  0  0  0
  -22.0601   -2.7608   23.2844 H   0  0  0  0  0  0
  -22.4102  -11.9866   22.4796 H   0  0  0  0  0  0
  -21.1085  -13.1219   22.2634 H   0  0  0  0  0  0
  -24.6464  -15.8415   20.5119 H   0  0  0  0  0  0
  -26.2548  -15.6288   20.0439 H   0  0  0  0  0  0
  -26.7202  -32.5396   23.1065 H   0  0  0  0  0  0
  -25.0079  -33.9695   25.0391 H   0  0  0  0  0  0
  -22.7256  -31.2999   21.3949 H   0  0  0  0  0  0
  -23.3755  -35.9615   23.3300 H   0  0  0  0  0  0
  -24.3582  -36.8908   22.2056 H   0  0  0  0  0  0
  -23.7253  -37.6481   23.6670 H   0  0  0  0  0  0
  -26.1138  -31.5283   20.6093 H   0  0  0  0  0  0
  -26.8527  -30.8164   22.0123 H   0  0  0  0  0  0
  -28.1210  -28.9203   21.2130 H   0  0  0  0  0  0
  -25.9775  -25.9139   18.9809 H   0  0  0  0  0  0
  -23.9764  -27.3133   18.9891 H   0  0  0  0  0  0
  -23.7734  -30.5890   19.4027 H   0  0  0  0  0  0
  -22.7658  -29.2461   19.8514 H   0  0  0  0  0  0
  -25.1305  -36.1903   25.0817 H   0  0  0  0  0  0
  -20.9984  -28.3272   24.1389 H   0  0  0  0  0  0
  -20.5682  -26.2309   23.3613 H   0  0  0  0  0  0
  -21.6648  -26.7439   22.1198 H   0  0  0  0  0  0
  -19.6929  -25.6291   21.1243 H   0  0  0  0  0  0
  -19.6697  -27.3187   20.6742 H   0  0  0  0  0  0
  -17.4206  -26.6668   21.4019 H   0  0  0  0  0  0
  -18.0331  -26.0070   22.9017 H   0  0  0  0  0  0
  -19.7948  -30.7270   24.2249 H   0  0  0  0  0  0
  -17.5029  -31.6267   24.5162 H   0  0  0  0  0  0
  -15.5359  -30.2990   23.7669 H   0  0  0  0  0  0
  -15.8673  -28.0828   22.7072 H   0  0  0  0  0  0
  -24.5913  -30.7067   25.7759 H   0  0  0  0  0  0
  -24.8907  -32.2901   26.4828 H   0  0  0  0  0  0
  -25.8035  -30.8925   27.0228 H   0  0  0  0  0  0
  -26.2939  -29.6731   24.1226 H   0  0  0  0  0  0
  -27.4036  -29.7254   25.4725 H   0  0  0  0  0  0
  -27.8818  -30.4260   23.9451 H   0  0  0  0  0  0
  -27.2665  -33.3633   26.2043 H   0  0  0  0  0  0
  -28.3881  -32.6863   25.0330 H   0  0  0  0  0  0
  -28.0714  -31.8465   26.5429 H   0  0  0  0  0  0
  -28.2588  -38.0095   24.7506 H   0  0  0  0  0  0
  -28.1078  -36.2622   24.6297 H   0  0  0  0  0  0
  -27.2293  -37.1454   25.8868 H   0  0  0  0  0  0
  -20.9395  -29.8778   21.6868 H   0  0  0  0  0  0
  -26.0165  -38.2832   24.1409 H   0  0  0  0  0  0
  -32.1862  -17.0615   19.6512 H   0  0  0  0  0  0
  -32.7086  -19.3872   19.3712 H   0  0  0  0  0  0
  -28.2940  -18.1532   21.1528 H   0  0  0  0  0  0
  -27.8917  -24.2323   22.7781 H   0  0  0  0  0  0
  -27.4929  -25.9279   22.6002 H   0  0  0  0  0  0
  -29.1717  -25.4072   22.5095 H   0  0  0  0  0  0
  -26.1165  -20.4422   23.4398 H   0  0  0  0  0  0
  -25.8761  -21.5697   22.1104 H   0  0  0  0  0  0
  -27.0207  -21.9506   23.4111 H   0  0  0  0  0  0
  -29.8946  -23.7808   20.5256 H   0  0  0  0  0  0
  -28.8033  -23.5058   19.1870 H   0  0  0  0  0  0
  -26.9817  -24.7104   20.5201 H   0  0  0  0  0  0
  -28.9155  -15.7004   20.9333 H   0  0  0  0  0  0
  -27.4922  -22.5574   21.3960 H   0  0  0  0  0  0
  -27.8510  -19.5061   22.2952 H   0  0  0  0  0  0
  1 25  1  0  0  0
  1 30  2  0  0  0
  1 82  1  0  0  0
  2  3  1  0  0  0
  2 25  1  0  0  0
  2 86  1  0  0  0
  2 87  1  0  0  0
  3  4  1  0  0  0
  3 88  1  0  0  0
  3 89  1  0  0  0
  4  5  1  0  0  0
  4 90  1  0  0  0
  4 91  1  0  0  0
  5  6  1  0  0  0
  5 26  1  0  0  0
  5 92  1  0  0  0
  6 25  1  0  0  0
  6 93  1  0  0  0
  6 94  1  0  0  0
  7  8  2  0  0  0
  7 26  1  0  0  0
  7 29  1  0  0  0
  8  9  1  0  0  0
  8 22  1  0  0  0
  9 10  1  0  0  0
  9 27  2  0  0  0
 10 11  2  0  0  0
 10 15  1  0  0  0
 11 12  1  0  0  0
 11 95  1  0  0  0
 12 13  2  0  0  0
 12 96  1  0  0  0
 13 14  1  0  0  0
 13 31  1  0  0  0
 14 15  2  0  0  0
 14 97  1  0  0  0
 15 98  1  0  0  0
 16 17  2  0  0  0
 16 21  1  0  0  0
 16 31  1  0  0  0
 17 18  1  0  0  0
 17 99  1  0  0  0
 18 19  2  0  0  0
 18100  1  0  0  0
 19 20  1  0  0  0
 19 24  1  0  0  0
 20 21  2  0  0  0
 20101  1  0  0  0
 21 23  1  0  0  0
 22 28  1  0  0  0
 22 32  2  0  0  0
 26 27  1  0  0  0
 28102  1  0  0  0
 28103  1  0  0  0
 29104  1  0  0  0
 29105  1  0  0  0
 33 34  1  0  0  0
 33 66  1  0  0  0
 33 70  2  0  0  0
 34 36  1  0  0  0
 34 59  1  0  0  0
 34106  1  0  0  0
 35 44  2  0  0  0
 35 45  1  0  0  0
 35 68  1  0  0  0
 36 56  1  0  0  0
 36107  1  0  0  0
 37 39  1  0  0  0
 37 47  1  0  0  0
 37 66  1  0  0  0
 37108  1  0  0  0
 38 43  2  0  0  0
 38 46  1  0  0  0
 38 47  1  0  0  0
 39 64  1  0  0  0
 39 67  2  0  0  0
 40 52  1  0  0  0
 40 53  2  0  0  0
 40 58  1  0  0  0
 41109  1  0  0  0
 41110  1  0  0  0
 41111  1  0  0  0
 41 48  1  0  0  0
 42 43  1  0  0  0
 42 66  1  0  0  0
 42112  1  0  0  0
 42113  1  0  0  0
 43 44  1  0  0  0
 44114  1  0  0  0
 45 46  2  0  0  0
 45115  1  0  0  0
 46116  1  0  0  0
 47117  1  0  0  0
 47118  1  0  0  0
 48 56  1  0  0  0
 48 65  1  0  0  0
 48119  1  0  0  0
 49 50  1  0  0  0
 49 53  1  0  0  0
 49 64  1  0  0  0
 49120  1  0  0  0
 50 51  1  0  0  0
 50121  1  0  0  0
 50122  1  0  0  0
 51 52  1  0  0  0
 51123  1  0  0  0
 51124  1  0  0  0
 52125  1  0  0  0
 52126  1  0  0  0
 53 54  1  0  0  0
 54 55  2  0  0  0
 54127  1  0  0  0
 55 57  1  0  0  0
 55128  1  0  0  0
 56 69  2  0  0  0
 57 58  2  0  0  0
 57129  1  0  0  0
 58130  1  0  0  0
 59 60  1  0  0  0
 59 61  1  0  0  0
 59 62  1  0  0  0
 60131  1  0  0  0
 60132  1  0  0  0
 60133  1  0  0  0
 61134  1  0  0  0
 61135  1  0  0  0
 61136  1  0  0  0
 62137  1  0  0  0
 62138  1  0  0  0
 62139  1  0  0  0
 63 65  1  0  0  0
 63140  1  0  0  0
 63141  1  0  0  0
 63142  1  0  0  0
 64143  1  0  0  0
 65144  1  0  0  0
 68 81  1  0  0  0
 71 72  2  0  0  0
 71 75  1  0  0  0
 71145  1  0  0  0
 72 76  1  0  0  0
 72146  1  0  0  0
 73 74  1  0  0  0
 73 75  2  0  0  0
 73147  1  0  0  0
 74 76  2  0  0  0
 74 77  1  0  0  0
 75 82  1  0  0  0
 76 85  1  0  0  0
 77 83  1  0  0  0
 77 84  2  0  0  0
 78148  1  0  0  0
 78149  1  0  0  0
 78150  1  0  0  0
 78 81  1  0  0  0
 79 84  1  0  0  0
 79151  1  0  0  0
 79152  1  0  0  0
 79153  1  0  0  0
 80 81  1  0  0  0
 80 83  1  0  0  0
 80154  1  0  0  0
 80155  1  0  0  0
 81156  1  0  0  0
 82157  1  0  0  0
 83158  1  0  0  0
 84159  1  0  0  0
M  CHG  1  84   1
M  ISO  4   1 100  68 101  81 101  82 100
M  END
> <chiral flag>
0

> <version>
0

> <s_m_source_file>
/data/baiqing/PycharmProjects/Reinvent-master-3.2/result/LINK_invent/BTK/process_docking_weight1_custom_product_contain_oxygen_bond_distance_aromatic_linkinvent_7_9_3/rearranged_h_0025.sdf

> <i_m_source_file_index>
18

> <r_mmod_Potential_Energy-OPLS-2005>
53.7824478149414

> <r_mmod_Stretch_Energy-OPLS-2005>
135.361740112305

> <r_mmod_Bend_Energy-OPLS-2005>
236.714813232422

> <r_mmod_Torsional_Energy-OPLS-2005>
230.426239013672

> <r_mmod_Improper_Torsional_Energy-OPLS-2005>
4.76603174209595

> <r_mmod_Van_der_Waal_Energy-OPLS-2005>
152.619842529297

> <r_mmod_Electrostatic_Energy-OPLS-2005>
-387.469757080078

> <r_mmod_Solvation_Energy-OPLS-2005>
-405.624969482422

> <b_mmod_Minimization_Converged-OPLS-2005>
0

> <r_mmod_RMS_Derivative-OPLS-2005>
0.826689898967743

$$$$
18
                    3D
 Structure written by MMmdl.
156165  0  0  1  0            999 V2000
  -30.6674  -14.7334   20.4624 C   0  0  0  0  0  0
  -30.4106  -12.4510   19.4572 C   0  0  0  0  0  0
  -29.4941  -12.4907   18.2166 C   0  0  0  0  0  0
  -28.0195  -12.3272   18.6337 C   0  0  0  0  0  0
  -27.6329  -13.2333   19.8321 C   0  0  2  0  0  0
  -28.6748  -13.1511   20.9595 C   0  0  0  0  0  0
  -25.2513  -13.8240   20.5727 C   0  0  0  0  0  0
  -24.1799  -13.0471   20.9226 C   0  0  0  0  0  0
  -24.6385  -11.6960   20.8746 C   0  0  0  0  0  0
  -23.9091  -10.4317   21.0404 C   0  0  0  0  0  0
  -24.3639   -9.4236   21.9186 C   0  0  0  0  0  0
  -23.6301   -8.2270   22.0770 C   0  0  0  0  0  0
  -22.4306   -8.0292   21.3541 C   0  0  0  0  0  0
  -21.9924   -9.0279   20.4657 C   0  0  0  0  0  0
  -22.7272  -10.2157   20.3063 C   0  0  0  0  0  0
  -21.6858   -6.0749   22.5283 C   0  0  0  0  0  0
  -21.4006   -6.5643   23.8212 C   0  0  0  0  0  0
  -21.3654   -5.6794   24.9171 C   0  0  0  0  0  0
  -21.6049   -4.3058   24.7231 C   0  0  0  0  0  0
  -21.8811   -3.8155   23.4339 C   0  0  0  0  0  0
  -21.9196   -4.6967   22.3404 C   0  0  0  0  0  0
  -22.7834  -13.5250   21.1930 C   0  0  0  0  0  0
  -22.1663   -4.2163   21.0977 F   0  0  0  0  0  0
  -21.5636   -3.4534   25.7725 F   0  0  0  0  0  0
  -29.9729  -13.5334   20.3805 N   0  0  0  0  0  0
  -26.2887  -12.9425   20.3182 N   0  0  0  0  0  0
  -25.9287  -11.6573   20.5671 N   0  0  0  0  0  0
  -22.0470  -12.8212   22.0449 N   0  0  0  0  0  0
  -25.4216  -15.1969   20.4312 N   0  0  0  0  0  0
  -31.8481  -14.7425   20.1054 O   0  0  0  0  0  0
  -21.6641   -6.8904   21.4243 O   0  0  0  0  0  0
  -22.3519  -14.5572   20.6805 O   0  0  0  0  0  0
  -24.6256  -31.8568   23.1961 C   0  0  0  0  0  0
  -25.9105  -32.4762   23.8299 C   0  0  1  0  0  0
  -27.2390  -27.3004   20.1353 C   0  0  0  0  0  0
  -25.5971  -33.8566   24.2239 N   0  0  0  0  0  0
  -23.4221  -30.4745   21.5344 C   0  0  2  0  0  0
  -24.8780  -28.9178   20.1092 C   0  0  0  0  0  0
  -22.7498  -29.4591   22.4883 C   0  0  0  0  0  0
  -18.0327  -28.1391   22.8495 C   0  0  0  0  0  0
  -24.1493  -36.7222   23.2628 C   0  0  0  0  0  0
  -25.9633  -30.7856   21.3674 C   0  0  0  0  0  0
  -26.0447  -29.4096   20.7084 C   0  0  0  0  0  0
  -27.2331  -28.6138   20.7035 C   0  0  0  0  0  0
  -26.0551  -26.8612   19.5175 C   0  0  0  0  0  0
  -24.8870  -27.6523   19.4982 C   0  0  0  0  0  0
  -23.6454  -29.7993   20.1518 C   0  0  0  0  0  0
  -25.4110  -36.3043   24.0334 C   0  0  1  0  0  0
  -20.5915  -28.3697   23.1271 C   0  0  2  0  0  0
  -20.6794  -26.9405   22.5412 C   0  0  0  0  0  0
  -19.5781  -26.6383   21.5210 C   0  0  0  0  0  0
  -18.1948  -26.7962   22.1625 C   0  0  0  0  0  0
  -19.1574  -28.8887   23.2877 C   0  0  0  0  0  0
  -18.9504  -30.1477   23.8875 C   0  0  0  0  0  0
  -17.6506  -30.6605   24.0571 C   0  0  0  0  0  0
  -25.9089  -34.9444   23.5091 C   0  0  0  0  0  0
  -16.5372  -29.9095   23.6345 C   0  0  0  0  0  0
  -16.7303  -28.6527   23.0349 C   0  0  0  0  0  0
  -26.4487  -31.6603   25.0690 C   0  0  0  0  0  0
  -25.3728  -31.3761   26.1439 C   0  0  0  0  0  0
  -27.0319  -30.3047   24.6108 C   0  0  0  0  0  0
  -27.6052  -32.4331   25.7477 C   0  0  0  0  0  0
  -27.5607  -37.1699   24.8419 C   0  0  0  0  0  0
  -21.4231  -29.3020   22.3647 N   0  0  0  0  0  0
  -26.4228  -37.3792   23.9506 N   0  0  0  0  0  0
  -24.6874  -31.0557   22.0905 N   0  0  0  0  0  0
  -23.4262  -28.8121   23.2945 O   0  0  0  0  0  0
  -28.3566  -26.4469   20.1621 O   0  0  0  0  0  0
  -26.5611  -34.8940   22.4610 O   0  0  0  0  0  0
  -23.5414  -32.1332   23.7312 O   0  0  0  0  0  0
  -30.5090  -21.1117   20.5651 C   0  0  0  0  0  0
  -28.3797  -20.5989   19.7169 C   0  0  0  0  0  0
  -30.0070  -18.7112   19.9894 C   0  0  0  0  0  0
  -29.2177  -21.6283   20.2406 C   0  0  0  0  0  0
  -30.8981  -19.7305   20.4484 C   0  0  0  0  0  0
  -28.7398  -19.2189   19.5905 C   0  0  0  0  0  0
  -27.8911  -23.8341   19.5863 C   0  0  0  0  0  0
  -29.4629  -24.1866   20.9319 C   0  0  0  0  0  0
  -28.1762  -25.0251   20.5811 C   0  0  0  0  0  0
  -29.3704  -16.3942   21.8077 C   0  0  0  0  0  0
  -30.4454  -17.1865   19.7321 C   0  0  0  0  0  0
  -28.7091  -23.0025   20.4916 N   0  0  0  0  0  0
  -30.0027  -15.9660   20.5553 N   0  0  0  0  0  0
  -32.5300  -19.3330   20.8571 Cl  0  0  0  0  0  0
  -27.5857  -18.1483   18.8813 Cl  0  0  0  0  0  0
  -31.4509  -12.5459   19.1478 H   0  0  0  0  0  0
  -30.3436  -11.4761   19.9427 H   0  0  0  0  0  0
  -29.7654  -11.6955   17.5188 H   0  0  0  0  0  0
  -29.6303  -13.4292   17.6786 H   0  0  0  0  0  0
  -27.8707  -11.2786   18.8977 H   0  0  0  0  0  0
  -27.3602  -12.5145   17.7850 H   0  0  0  0  0  0
  -27.6338  -14.2569   19.4573 H   0  0  0  0  0  0
  -28.7151  -12.1363   21.3579 H   0  0  0  0  0  0
  -28.3626  -13.7712   21.7918 H   0  0  0  0  0  0
  -25.2783   -9.5683   22.4766 H   0  0  0  0  0  0
  -24.0001   -7.4639   22.7469 H   0  0  0  0  0  0
  -21.0874   -8.8818   19.8926 H   0  0  0  0  0  0
  -22.3755  -10.9706   19.6166 H   0  0  0  0  0  0
  -21.1968   -7.6147   23.9724 H   0  0  0  0  0  0
  -21.1488   -6.0517   25.9085 H   0  0  0  0  0  0
  -22.0590   -2.7614   23.2837 H   0  0  0  0  0  0
  -22.4067  -11.9856   22.4804 H   0  0  0  0  0  0
  -21.1070  -13.1215   22.2595 H   0  0  0  0  0  0
  -24.6700  -15.8509   20.6249 H   0  0  0  0  0  0
  -26.2835  -15.6578   20.1638 H   0  0  0  0  0  0
  -26.7179  -32.5413   23.1043 H   0  0  0  0  0  0
  -25.0255  -33.9703   25.0504 H   0  0  0  0  0  0
  -22.7152  -31.2907   21.3815 H   0  0  0  0  0  0
  -23.3803  -35.9493   23.3221 H   0  0  0  0  0  0
  -24.3636  -36.8911   22.2047 H   0  0  0  0  0  0
  -23.7155  -37.6386   23.6667 H   0  0  0  0  0  0
  -26.0968  -31.5471   20.5966 H   0  0  0  0  0  0
  -26.8402  -30.8308   21.9996 H   0  0  0  0  0  0
  -28.1337  -28.9912   21.1689 H   0  0  0  0  0  0
  -26.0271  -25.8842   19.0550 H   0  0  0  0  0  0
  -23.9978  -27.2660   19.0186 H   0  0  0  0  0  0
  -23.7735  -30.5721   19.3923 H   0  0  0  0  0  0
  -22.7660  -29.2287   19.8475 H   0  0  0  0  0  0
  -25.1259  -36.1817   25.0816 H   0  0  0  0  0  0
  -21.0016  -28.3230   24.1386 H   0  0  0  0  0  0
  -20.5678  -26.2263   23.3594 H   0  0  0  0  0  0
  -21.6651  -26.7428   22.1157 H   0  0  0  0  0  0
  -19.6913  -25.6292   21.1212 H   0  0  0  0  0  0
  -19.6731  -27.3207   20.6747 H   0  0  0  0  0  0
  -17.4210  -26.6731   21.4021 H   0  0  0  0  0  0
  -18.0351  -26.0105   22.9034 H   0  0  0  0  0  0
  -19.7975  -30.7310   24.2189 H   0  0  0  0  0  0
  -17.5056  -31.6265   24.5181 H   0  0  0  0  0  0
  -15.5362  -30.2979   23.7715 H   0  0  0  0  0  0
  -15.8713  -28.0839   22.7036 H   0  0  0  0  0  0
  -24.5877  -30.7145   25.7768 H   0  0  0  0  0  0
  -24.8935  -32.2938   26.4859 H   0  0  0  0  0  0
  -25.8048  -30.8935   27.0212 H   0  0  0  0  0  0
  -26.2876  -29.6829   24.1108 H   0  0  0  0  0  0
  -27.4047  -29.7285   25.4582 H   0  0  0  0  0  0
  -27.8752  -30.4410   23.9327 H   0  0  0  0  0  0
  -27.2670  -33.3626   26.2068 H   0  0  0  0  0  0
  -28.3855  -32.6898   25.0298 H   0  0  0  0  0  0
  -28.0718  -31.8436   26.5371 H   0  0  0  0  0  0
  -28.2379  -38.0244   24.7819 H   0  0  0  0  0  0
  -28.1340  -36.2787   24.5760 H   0  0  0  0  0  0
  -27.2407  -37.0754   25.8829 H   0  0  0  0  0  0
  -20.9362  -29.8787   21.6917 H   0  0  0  0  0  0
  -26.0072  -38.2801   24.1775 H   0  0  0  0  0  0
  -31.2563  -21.8000   20.9366 H   0  0  0  0  0  0
  -27.3832  -20.8703   19.4100 H   0  0  0  0  0  0
  -28.3353  -23.9555   18.5963 H   0  0  0  0  0  0
  -26.8455  -23.5252   19.5151 H   0  0  0  0  0  0
  -29.7200  -24.1685   21.9934 H   0  0  0  0  0  0
  -30.3329  -24.4022   20.3089 H   0  0  0  0  0  0
  -27.4771  -24.9976   21.4313 H   0  0  0  0  0  0
  -28.5380  -17.0711   21.6135 H   0  0  0  0  0  0
  -30.0990  -16.9387   22.4092 H   0  0  0  0  0  0
  -28.9902  -15.5918   22.4291 H   0  0  0  0  0  0
  -31.5323  -17.1712   19.6411 H   0  0  0  0  0  0
  -30.1247  -16.9720   18.7129 H   0  0  0  0  0  0
  1 25  1  0  0  0
  1 30  2  0  0  0
  1 83  1  0  0  0
  2  3  1  0  0  0
  2 25  1  0  0  0
  2 86  1  0  0  0
  2 87  1  0  0  0
  3  4  1  0  0  0
  3 88  1  0  0  0
  3 89  1  0  0  0
  4  5  1  0  0  0
  4 90  1  0  0  0
  4 91  1  0  0  0
  5  6  1  0  0  0
  5 26  1  0  0  0
  5 92  1  0  0  0
  6 25  1  0  0  0
  6 93  1  0  0  0
  6 94  1  0  0  0
  7  8  2  0  0  0
  7 26  1  0  0  0
  7 29  1  0  0  0
  8  9  1  0  0  0
  8 22  1  0  0  0
  9 10  1  0  0  0
  9 27  2  0  0  0
 10 11  2  0  0  0
 10 15  1  0  0  0
 11 12  1  0  0  0
 11 95  1  0  0  0
 12 13  2  0  0  0
 12 96  1  0  0  0
 13 14  1  0  0  0
 13 31  1  0  0  0
 14 15  2  0  0  0
 14 97  1  0  0  0
 15 98  1  0  0  0
 16 17  2  0  0  0
 16 21  1  0  0  0
 16 31  1  0  0  0
 17 18  1  0  0  0
 17 99  1  0  0  0
 18 19  2  0  0  0
 18100  1  0  0  0
 19 20  1  0  0  0
 19 24  1  0  0  0
 20 21  2  0  0  0
 20101  1  0  0  0
 21 23  1  0  0  0
 22 28  1  0  0  0
 22 32  2  0  0  0
 26 27  1  0  0  0
 28102  1  0  0  0
 28103  1  0  0  0
 29104  1  0  0  0
 29105  1  0  0  0
 33 34  1  0  0  0
 33 66  1  0  0  0
 33 70  2  0  0  0
 34 36  1  0  0  0
 34 59  1  0  0  0
 34106  1  0  0  0
 35 44  2  0  0  0
 35 45  1  0  0  0
 35 68  1  0  0  0
 36 56  1  0  0  0
 36107  1  0  0  0
 37 39  1  0  0  0
 37 47  1  0  0  0
 37 66  1  0  0  0
 37108  1  0  0  0
 38 43  2  0  0  0
 38 46  1  0  0  0
 38 47  1  0  0  0
 39 64  1  0  0  0
 39 67  2  0  0  0
 40 52  1  0  0  0
 40 53  2  0  0  0
 40 58  1  0  0  0
 41109  1  0  0  0
 41110  1  0  0  0
 41111  1  0  0  0
 41 48  1  0  0  0
 42 43  1  0  0  0
 42 66  1  0  0  0
 42112  1  0  0  0
 42113  1  0  0  0
 43 44  1  0  0  0
 44114  1  0  0  0
 45 46  2  0  0  0
 45115  1  0  0  0
 46116  1  0  0  0
 47117  1  0  0  0
 47118  1  0  0  0
 48 56  1  0  0  0
 48 65  1  0  0  0
 48119  1  0  0  0
 49 50  1  0  0  0
 49 53  1  0  0  0
 49 64  1  0  0  0
 49120  1  0  0  0
 50 51  1  0  0  0
 50121  1  0  0  0
 50122  1  0  0  0
 51 52  1  0  0  0
 51123  1  0  0  0
 51124  1  0  0  0
 52125  1  0  0  0
 52126  1  0  0  0
 53 54  1  0  0  0
 54 55  2  0  0  0
 54127  1  0  0  0
 55 57  1  0  0  0
 55128  1  0  0  0
 56 69  2  0  0  0
 57 58  2  0  0  0
 57129  1  0  0  0
 58130  1  0  0  0
 59 60  1  0  0  0
 59 61  1  0  0  0
 59 62  1  0  0  0
 60131  1  0  0  0
 60132  1  0  0  0
 60133  1  0  0  0
 61134  1  0  0  0
 61135  1  0  0  0
 61136  1  0  0  0
 62137  1  0  0  0
 62138  1  0  0  0
 62139  1  0  0  0
 63 65  1  0  0  0
 63140  1  0  0  0
 63141  1  0  0  0
 63142  1  0  0  0
 64143  1  0  0  0
 65144  1  0  0  0
 68 79  1  0  0  0
 71 74  2  0  0  0
 71 75  1  0  0  0
 71145  1  0  0  0
 72 74  1  0  0  0
 72 76  2  0  0  0
 72146  1  0  0  0
 73 75  2  0  0  0
 73 76  1  0  0  0
 73 81  1  0  0  0
 74 82  1  0  0  0
 75 84  1  0  0  0
 76 85  1  0  0  0
 77 79  1  0  0  0
 77 82  1  0  0  0
 77147  1  0  0  0
 77148  1  0  0  0
 78 79  1  0  0  0
 78 82  1  0  0  0
 78149  1  0  0  0
 78150  1  0  0  0
 79151  1  0  0  0
 80 83  1  0  0  0
 80152  1  0  0  0
 80153  1  0  0  0
 80154  1  0  0  0
 81 83  1  0  0  0
 81155  1  0  0  0
 81156  1  0  0  0
M  ISO  4   1 100  68 101  79 101  83 100
M  END
> <chiral flag>
0

> <version>
0

> <s_m_source_file>
/data/baiqing/PycharmProjects/Reinvent-master-3.2/result/LINK_invent/BTK/process_docking_weight1_custom_product_contain_oxygen_bond_distance_aromatic_linkinvent_7_9_3/rearranged_h_0025.sdf

> <i_m_source_file_index>
19

> <r_mmod_Potential_Energy-OPLS-2005>
382.188995361328

> <r_mmod_Stretch_Energy-OPLS-2005>
114.316230773926

> <r_mmod_Bend_Energy-OPLS-2005>
246.488922119141

> <r_mmod_Torsional_Energy-OPLS-2005>
294.907592773438

> <r_mmod_Improper_Torsional_Energy-OPLS-2005>
18.9577007293701

> <r_mmod_Van_der_Waal_Energy-OPLS-2005>
136.218643188477

> <r_mmod_Electrostatic_Energy-OPLS-2005>
-290.526275634766

> <r_mmod_Solvation_Energy-OPLS-2005>
-208.889999389648

> <b_mmod_Minimization_Converged-OPLS-2005>
0

> <r_mmod_RMS_Derivative-OPLS-2005>
7.25845623016357

$$$$
19
                    3D
 Structure written by MMmdl.
167176  0  0  1  0            999 V2000
  -30.6585  -14.8349   20.3806 C   0  0  0  0  0  0
  -30.4327  -12.5193   19.4433 C   0  0  0  0  0  0
  -29.4897  -12.4736   18.2234 C   0  0  0  0  0  0
  -28.0363  -12.2422   18.6758 C   0  0  0  0  0  0
  -27.6273  -13.1654   19.8472 C   0  0  2  0  0  0
  -28.7035  -13.2411   20.9581 C   0  0  0  0  0  0
  -25.2499  -13.7964   20.5753 C   0  0  0  0  0  0
  -24.1761  -13.0302   20.9282 C   0  0  0  0  0  0
  -24.6301  -11.6768   20.8851 C   0  0  0  0  0  0
  -23.8983  -10.4202   21.0481 C   0  0  0  0  0  0
  -24.3556   -9.4123   21.9239 C   0  0  0  0  0  0
  -23.6244   -8.2160   22.0767 C   0  0  0  0  0  0
  -22.4232   -8.0228   21.3548 C   0  0  0  0  0  0
  -21.9869   -9.0202   20.4645 C   0  0  0  0  0  0
  -22.7184  -10.2084   20.3090 C   0  0  0  0  0  0
  -21.6826   -6.0708   22.5284 C   0  0  0  0  0  0
  -21.3990   -6.5621   23.8211 C   0  0  0  0  0  0
  -21.3642   -5.6782   24.9178 C   0  0  0  0  0  0
  -21.6040   -4.3046   24.7238 C   0  0  0  0  0  0
  -21.8818   -3.8133   23.4364 C   0  0  0  0  0  0
  -21.9177   -4.6940   22.3412 C   0  0  0  0  0  0
  -22.7799  -13.5174   21.1888 C   0  0  0  0  0  0
  -22.1662   -4.2127   21.0990 F   0  0  0  0  0  0
  -21.5627   -3.4536   25.7755 F   0  0  0  0  0  0
  -29.9687  -13.6300   20.3118 N   0  0  0  0  0  0
  -26.2888  -12.9044   20.3449 N   0  0  0  0  0  0
  -25.9221  -11.6269   20.5942 N   0  0  0  0  0  0
  -22.0416  -12.8212   22.0440 N   0  0  0  0  0  0
  -25.4088  -15.1672   20.3994 N   0  0  0  0  0  0
  -31.8855  -14.7983   20.2670 O   0  0  0  0  0  0
  -21.6599   -6.8836   21.4245 O   0  0  0  0  0  0
  -22.3542  -14.5505   20.6722 O   0  0  0  0  0  0
  -24.6325  -31.8576   23.2048 C   0  0  0  0  0  0
  -25.9161  -32.4771   23.8377 C   0  0  1  0  0  0
  -27.2121  -27.2529   20.1177 C   0  0  0  0  0  0
  -25.5966  -33.8571   24.2274 N   0  0  0  0  0  0
  -23.4291  -30.4831   21.5495 C   0  0  2  0  0  0
  -24.8795  -28.9411   20.1087 C   0  0  0  0  0  0
  -22.7508  -29.4621   22.4948 C   0  0  0  0  0  0
  -18.0286  -28.1387   22.8487 C   0  0  0  0  0  0
  -24.1486  -36.7291   23.2634 C   0  0  0  0  0  0
  -25.9793  -30.7555   21.4012 C   0  0  0  0  0  0
  -26.0484  -29.3787   20.7449 C   0  0  0  0  0  0
  -27.2123  -28.5387   20.7620 C   0  0  0  0  0  0
  -26.0643  -26.9662   19.3491 C   0  0  0  0  0  0
  -24.8914  -27.7365   19.3996 C   0  0  0  0  0  0
  -23.6478  -29.8227   20.1647 C   0  0  0  0  0  0
  -25.4112  -36.3070   24.0317 C   0  0  1  0  0  0
  -20.5900  -28.3709   23.1255 C   0  0  2  0  0  0
  -20.6773  -26.9425   22.5394 C   0  0  0  0  0  0
  -19.5742  -26.6379   21.5207 C   0  0  0  0  0  0
  -18.1927  -26.7930   22.1618 C   0  0  0  0  0  0
  -19.1542  -28.8864   23.2861 C   0  0  0  0  0  0
  -18.9469  -30.1477   23.8867 C   0  0  0  0  0  0
  -17.6465  -30.6593   24.0560 C   0  0  0  0  0  0
  -25.9046  -34.9443   23.5082 C   0  0  0  0  0  0
  -16.5353  -29.9076   23.6356 C   0  0  0  0  0  0
  -16.7272  -28.6493   23.0370 C   0  0  0  0  0  0
  -26.4502  -31.6611   25.0784 C   0  0  0  0  0  0
  -25.3697  -31.3798   26.1494 C   0  0  0  0  0  0
  -27.0374  -30.3015   24.6337 C   0  0  0  0  0  0
  -27.6047  -32.4380   25.7548 C   0  0  0  0  0  0
  -27.5572  -37.1787   24.8457 C   0  0  0  0  0  0
  -21.4219  -29.3047   22.3650 N   0  0  0  0  0  0
  -26.4282  -37.3768   23.9407 N   0  0  0  0  0  0
  -24.6983  -31.0514   22.1061 N   0  0  0  0  0  0
  -23.4206  -28.8135   23.3026 O   0  0  0  0  0  0
  -28.2600  -26.2934   20.1701 O   0  0  0  0  0  0
  -26.5606  -34.8925   22.4642 O   0  0  0  0  0  0
  -23.5471  -32.1415   23.7334 O   0  0  0  0  0  0
  -29.2899  -21.1568   22.3994 C   0  0  0  0  0  0
  -29.3994  -19.9121   23.0475 C   0  0  0  0  0  0
  -30.1751  -18.7900   20.9976 C   0  0  0  0  0  0
  -29.5964  -21.2974   21.0283 C   0  0  0  0  0  0
  -29.8244  -18.7514   22.3690 C   0  0  0  0  0  0
  -30.0643  -20.0976   20.3466 C   0  0  0  0  0  0
  -29.1945  -23.8736   20.9137 C   0  0  0  0  0  0
  -28.0871  -17.4869   19.1851 C   0  0  0  0  0  0
  -28.3190  -16.2295   18.4142 C   0  0  0  0  0  0
  -28.6416  -16.2611   19.9105 C   0  0  0  0  0  0
  -25.3435  -22.0368   19.7815 C   0  0  0  0  0  0
  -30.7567  -17.4510   20.3236 C   0  0  0  0  0  0
  -26.8067  -24.0491   19.8681 C   0  0  0  0  0  0
  -27.9527  -24.8529   20.5914 C   0  0  2  0  0  0
  -29.3005  -22.5954   20.3700 N   0  0  0  0  0  0
  -30.0197  -16.0962   20.3066 N   0  0  0  0  0  0
  -26.3445  -22.8056   20.5533 N   0  3  0  0  0  0
  -30.0474  -24.2629   21.7175 O   0  0  0  0  0  0
  -29.9430  -17.2847   23.2769 Cl  0  0  0  0  0  0
  -30.5171  -20.2650   18.6860 Cl  0  0  0  0  0  0
  -31.4604  -12.6581   19.1052 H   0  0  0  0  0  0
  -30.4220  -11.5717   19.9838 H   0  0  0  0  0  0
  -29.7935  -11.6812   17.5384 H   0  0  0  0  0  0
  -29.5577  -13.4068   17.6612 H   0  0  0  0  0  0
  -27.9481  -11.2008   18.9876 H   0  0  0  0  0  0
  -27.3513  -12.3683   17.8362 H   0  0  0  0  0  0
  -27.5426  -14.1185   19.3742 H   0  0  0  0  0  0
  -28.8097  -12.2798   21.4620 H   0  0  0  0  0  0
  -28.4293  -13.9596   21.7317 H   0  0  0  0  0  0
  -25.2683   -9.5601   22.4833 H   0  0  0  0  0  0
  -23.9933   -7.4540   22.7479 H   0  0  0  0  0  0
  -21.0803   -8.8725   19.8947 H   0  0  0  0  0  0
  -22.3650  -10.9648   19.6212 H   0  0  0  0  0  0
  -21.1991   -7.6130   23.9717 H   0  0  0  0  0  0
  -21.1461   -6.0516   25.9084 H   0  0  0  0  0  0
  -22.0620   -2.7599   23.2875 H   0  0  0  0  0  0
  -22.3994  -11.9849   22.4827 H   0  0  0  0  0  0
  -21.1049  -13.1283   22.2651 H   0  0  0  0  0  0
  -24.6266  -15.8049   20.4939 H   0  0  0  0  0  0
  -26.2335  -15.6092   20.0199 H   0  0  0  0  0  0
  -26.7228  -32.5416   23.1121 H   0  0  0  0  0  0
  -25.0183  -33.9731   25.0466 H   0  0  0  0  0  0
  -22.7258  -31.3055   21.4058 H   0  0  0  0  0  0
  -23.3746  -35.9623   23.3288 H   0  0  0  0  0  0
  -24.3573  -36.8935   22.2053 H   0  0  0  0  0  0
  -23.7264  -37.6493   23.6674 H   0  0  0  0  0  0
  -26.1295  -31.5126   20.6305 H   0  0  0  0  0  0
  -26.8539  -30.7997   22.0400 H   0  0  0  0  0  0
  -28.0931  -28.8530   21.3061 H   0  0  0  0  0  0
  -26.0586  -26.1440   18.6542 H   0  0  0  0  0  0
  -24.0222  -27.4280   18.8328 H   0  0  0  0  0  0
  -23.7595  -30.5985   19.4069 H   0  0  0  0  0  0
  -22.7695  -29.2471   19.8666 H   0  0  0  0  0  0
  -25.1281  -36.1907   25.0803 H   0  0  0  0  0  0
  -20.9972  -28.3286   24.1384 H   0  0  0  0  0  0
  -20.5683  -26.2318   23.3602 H   0  0  0  0  0  0
  -21.6640  -26.7448   22.1185 H   0  0  0  0  0  0
  -19.6904  -25.6280   21.1257 H   0  0  0  0  0  0
  -19.6689  -27.3174   20.6728 H   0  0  0  0  0  0
  -17.4197  -26.6714   21.4014 H   0  0  0  0  0  0
  -18.0307  -26.0070   22.9003 H   0  0  0  0  0  0
  -19.7946  -30.7309   24.2214 H   0  0  0  0  0  0
  -17.5014  -31.6275   24.5148 H   0  0  0  0  0  0
  -15.5349  -30.2953   23.7709 H   0  0  0  0  0  0
  -15.8679  -28.0799   22.7101 H   0  0  0  0  0  0
  -24.5902  -30.7109   25.7836 H   0  0  0  0  0  0
  -24.8854  -32.2976   26.4821 H   0  0  0  0  0  0
  -25.7982  -30.9064   27.0341 H   0  0  0  0  0  0
  -26.3004  -29.6746   24.1311 H   0  0  0  0  0  0
  -27.3966  -29.7302   25.4907 H   0  0  0  0  0  0
  -27.8903  -30.4266   23.9673 H   0  0  0  0  0  0
  -27.2652  -33.3725   26.2027 H   0  0  0  0  0  0
  -28.3878  -32.6876   25.0376 H   0  0  0  0  0  0
  -28.0676  -31.8583   26.5543 H   0  0  0  0  0  0
  -28.2554  -38.0111   24.7519 H   0  0  0  0  0  0
  -28.1094  -36.2645   24.6240 H   0  0  0  0  0  0
  -27.2289  -37.1382   25.8854 H   0  0  0  0  0  0
  -20.9411  -29.8792   21.6868 H   0  0  0  0  0  0
  -26.0153  -38.2832   24.1428 H   0  0  0  0  0  0
  -28.9372  -22.0013   22.9752 H   0  0  0  0  0  0
  -29.1457  -19.8435   24.0954 H   0  0  0  0  0  0
  -27.0528  -17.7578   19.3897 H   0  0  0  0  0  0
  -28.7043  -18.3063   18.8442 H   0  0  0  0  0  0
  -29.1541  -16.2250   17.7166 H   0  0  0  0  0  0
  -27.4133  -15.7582   18.0374 H   0  0  0  0  0  0
  -27.9269  -15.8790   20.6296 H   0  0  0  0  0  0
  -24.9840  -21.1857   20.3610 H   0  0  0  0  0  0
  -25.7777  -21.6527   18.8588 H   0  0  0  0  0  0
  -24.4813  -22.6539   19.5240 H   0  0  0  0  0  0
  -31.7198  -17.2946   20.8129 H   0  0  0  0  0  0
  -31.0215  -17.6669   19.2890 H   0  0  0  0  0  0
  -27.0760  -23.8459   18.8304 H   0  0  0  0  0  0
  -25.8743  -24.5967   19.8830 H   0  0  0  0  0  0
  -27.5484  -25.0196   21.5914 H   0  0  0  0  0  0
  -29.0076  -22.5155   19.4043 H   0  0  0  0  0  0
  -27.1115  -22.1828   20.7535 H   0  0  0  0  0  0
  -25.9192  -23.0498   21.4367 H   0  0  0  0  0  0
  1 25  1  0  0  0
  1 30  2  0  0  0
  1 86  1  0  0  0
  2  3  1  0  0  0
  2 25  1  0  0  0
  2 91  1  0  0  0
  2 92  1  0  0  0
  3  4  1  0  0  0
  3 93  1  0  0  0
  3 94  1  0  0  0
  4  5  1  0  0  0
  4 95  1  0  0  0
  4 96  1  0  0  0
  5  6  1  0  0  0
  5 26  1  0  0  0
  5 97  1  0  0  0
  6 25  1  0  0  0
  6 98  1  0  0  0
  6 99  1  0  0  0
  7  8  2  0  0  0
  7 26  1  0  0  0
  7 29  1  0  0  0
  8  9  1  0  0  0
  8 22  1  0  0  0
  9 10  1  0  0  0
  9 27  2  0  0  0
 10 11  2  0  0  0
 10 15  1  0  0  0
 11 12  1  0  0  0
 11100  1  0  0  0
 12 13  2  0  0  0
 12101  1  0  0  0
 13 14  1  0  0  0
 13 31  1  0  0  0
 14 15  2  0  0  0
 14102  1  0  0  0
 15103  1  0  0  0
 16 17  2  0  0  0
 16 21  1  0  0  0
 16 31  1  0  0  0
 17 18  1  0  0  0
 17104  1  0  0  0
 18 19  2  0  0  0
 18105  1  0  0  0
 19 20  1  0  0  0
 19 24  1  0  0  0
 20 21  2  0  0  0
 20106  1  0  0  0
 21 23  1  0  0  0
 22 28  1  0  0  0
 22 32  2  0  0  0
 26 27  1  0  0  0
 28107  1  0  0  0
 28108  1  0  0  0
 29109  1  0  0  0
 29110  1  0  0  0
 33 34  1  0  0  0
 33 66  1  0  0  0
 33 70  2  0  0  0
 34 36  1  0  0  0
 34 59  1  0  0  0
 34111  1  0  0  0
 35 44  2  0  0  0
 35 45  1  0  0  0
 35 68  1  0  0  0
 36 56  1  0  0  0
 36112  1  0  0  0
 37 39  1  0  0  0
 37 47  1  0  0  0
 37 66  1  0  0  0
 37113  1  0  0  0
 38 43  2  0  0  0
 38 46  1  0  0  0
 38 47  1  0  0  0
 39 64  1  0  0  0
 39 67  2  0  0  0
 40 52  1  0  0  0
 40 53  2  0  0  0
 40 58  1  0  0  0
 41114  1  0  0  0
 41115  1  0  0  0
 41116  1  0  0  0
 41 48  1  0  0  0
 42 43  1  0  0  0
 42 66  1  0  0  0
 42117  1  0  0  0
 42118  1  0  0  0
 43 44  1  0  0  0
 44119  1  0  0  0
 45 46  2  0  0  0
 45120  1  0  0  0
 46121  1  0  0  0
 47122  1  0  0  0
 47123  1  0  0  0
 48 56  1  0  0  0
 48 65  1  0  0  0
 48124  1  0  0  0
 49 50  1  0  0  0
 49 53  1  0  0  0
 49 64  1  0  0  0
 49125  1  0  0  0
 50 51  1  0  0  0
 50126  1  0  0  0
 50127  1  0  0  0
 51 52  1  0  0  0
 51128  1  0  0  0
 51129  1  0  0  0
 52130  1  0  0  0
 52131  1  0  0  0
 53 54  1  0  0  0
 54 55  2  0  0  0
 54132  1  0  0  0
 55 57  1  0  0  0
 55133  1  0  0  0
 56 69  2  0  0  0
 57 58  2  0  0  0
 57134  1  0  0  0
 58135  1  0  0  0
 59 60  1  0  0  0
 59 61  1  0  0  0
 59 62  1  0  0  0
 60136  1  0  0  0
 60137  1  0  0  0
 60138  1  0  0  0
 61139  1  0  0  0
 61140  1  0  0  0
 61141  1  0  0  0
 62142  1  0  0  0
 62143  1  0  0  0
 62144  1  0  0  0
 63 65  1  0  0  0
 63145  1  0  0  0
 63146  1  0  0  0
 63147  1  0  0  0
 64148  1  0  0  0
 65149  1  0  0  0
 68 84  1  0  0  0
 71 72  2  0  0  0
 71 74  1  0  0  0
 71150  1  0  0  0
 72 75  1  0  0  0
 72151  1  0  0  0
 73 75  2  0  0  0
 73 76  1  0  0  0
 73 82  1  0  0  0
 74 76  2  0  0  0
 74 85  1  0  0  0
 75 89  1  0  0  0
 76 90  1  0  0  0
 77 84  1  0  0  0
 77 85  1  0  0  0
 77 88  2  0  0  0
 78 79  1  0  0  0
 78 80  1  0  0  0
 78152  1  0  0  0
 78153  1  0  0  0
 79 80  1  0  0  0
 79154  1  0  0  0
 79155  1  0  0  0
 80 86  1  0  0  0
 80156  1  0  0  0
 81 87  1  0  0  0
 81157  1  0  0  0
 81158  1  0  0  0
 81159  1  0  0  0
 82 86  1  0  0  0
 82160  1  0  0  0
 82161  1  0  0  0
 83 87  1  0  0  0
 83162  1  0  0  0
 83163  1  0  0  0
 83 84  1  0  0  0
 84164  1  0  0  0
 85165  1  0  0  0
 87166  1  0  0  0
 87167  1  0  0  0
M  CHG  1  87   1
M  ISO  4   1 100  68 101  84 101  86 100
M  END
> <chiral flag>
0

> <version>
0

> <s_m_source_file>
/data/baiqing/PycharmProjects/Reinvent-master-3.2/result/LINK_invent/BTK/process_docking_weight1_custom_product_contain_oxygen_bond_distance_aromatic_linkinvent_7_9_3/rearranged_h_0025.sdf

> <i_m_source_file_index>
20

> <r_mmod_Potential_Energy-OPLS-2005>
437.664001464844

> <r_mmod_Stretch_Energy-OPLS-2005>
154.710403442383

> <r_mmod_Bend_Energy-OPLS-2005>
208.962554931641

> <r_mmod_Torsional_Energy-OPLS-2005>
413.308898925781

> <r_mmod_Improper_Torsional_Energy-OPLS-2005>
7.79836845397949

> <r_mmod_Van_der_Waal_Energy-OPLS-2005>
162.539215087891

> <r_mmod_Electrostatic_Energy-OPLS-2005>
-141.828796386719

> <r_mmod_Solvation_Energy-OPLS-2005>
-499.316345214844

> <b_mmod_Minimization_Converged-OPLS-2005>
0

> <r_mmod_RMS_Derivative-OPLS-2005>
2.32732248306274

$$$$
20
                    3D
 Structure written by MMmdl.
160169  0  0  1  0            999 V2000
  -30.5631  -14.7604   20.3377 C   0  0  0  0  0  0
  -30.4341  -12.4522   19.4041 C   0  0  0  0  0  0
  -29.4868  -12.4955   18.1833 C   0  0  0  0  0  0
  -28.0096  -12.3482   18.6074 C   0  0  0  0  0  0
  -27.6318  -13.2322   19.8293 C   0  0  2  0  0  0
  -28.6991  -13.1638   20.9406 C   0  0  0  0  0  0
  -25.2497  -13.8204   20.5735 C   0  0  0  0  0  0
  -24.1776  -13.0432   20.9223 C   0  0  0  0  0  0
  -24.6387  -11.6924   20.8748 C   0  0  0  0  0  0
  -23.9080  -10.4287   21.0449 C   0  0  0  0  0  0
  -24.3621   -9.4194   21.9199 C   0  0  0  0  0  0
  -23.6291   -8.2240   22.0757 C   0  0  0  0  0  0
  -22.4268   -8.0284   21.3574 C   0  0  0  0  0  0
  -21.9921   -9.0253   20.4663 C   0  0  0  0  0  0
  -22.7270  -10.2127   20.3089 C   0  0  0  0  0  0
  -21.6829   -6.0739   22.5291 C   0  0  0  0  0  0
  -21.4012   -6.5645   23.8225 C   0  0  0  0  0  0
  -21.3663   -5.6797   24.9177 C   0  0  0  0  0  0
  -21.6025   -4.3064   24.7217 C   0  0  0  0  0  0
  -21.8818   -3.8158   23.4344 C   0  0  0  0  0  0
  -21.9186   -4.6970   22.3403 C   0  0  0  0  0  0
  -22.7799  -13.5236   21.1820 C   0  0  0  0  0  0
  -22.1656   -4.2169   21.0976 F   0  0  0  0  0  0
  -21.5627   -3.4531   25.7727 F   0  0  0  0  0  0
  -29.9787  -13.5168   20.3156 N   0  0  0  0  0  0
  -26.2912  -12.9397   20.3262 N   0  0  0  0  0  0
  -25.9320  -11.6545   20.5760 N   0  0  0  0  0  0
  -22.0416  -12.8255   22.0385 N   0  0  0  0  0  0
  -25.4123  -15.1938   20.4240 N   0  0  0  0  0  0
  -31.7855  -14.8746   20.2043 O   0  0  0  0  0  0
  -21.6640   -6.8882   21.4266 O   0  0  0  0  0  0
  -22.3504  -14.5526   20.6640 O   0  0  0  0  0  0
  -24.6361  -31.8566   23.1983 C   0  0  0  0  0  0
  -25.9193  -32.4734   23.8337 C   0  0  1  0  0  0
  -27.1986  -27.2347   20.1185 C   0  0  0  0  0  0
  -25.5978  -33.8545   24.2242 N   0  0  0  0  0  0
  -23.4246  -30.4892   21.5436 C   0  0  2  0  0  0
  -24.8634  -28.9264   20.1094 C   0  0  0  0  0  0
  -22.7493  -29.4677   22.4899 C   0  0  0  0  0  0
  -18.0279  -28.1365   22.8470 C   0  0  0  0  0  0
  -24.1474  -36.7269   23.2641 C   0  0  0  0  0  0
  -25.9754  -30.7610   21.3805 C   0  0  0  0  0  0
  -26.0430  -29.3834   20.7127 C   0  0  0  0  0  0
  -27.2096  -28.5528   20.7023 C   0  0  0  0  0  0
  -25.9865  -26.8458   19.5079 C   0  0  0  0  0  0
  -24.8418  -27.6653   19.5033 C   0  0  0  0  0  0
  -23.6418  -29.8275   20.1592 C   0  0  0  0  0  0
  -25.4112  -36.3054   24.0322 C   0  0  1  0  0  0
  -20.5903  -28.3689   23.1202 C   0  0  2  0  0  0
  -20.6778  -26.9415   22.5338 C   0  0  0  0  0  0
  -19.5734  -26.6354   21.5181 C   0  0  0  0  0  0
  -18.1913  -26.7896   22.1650 C   0  0  0  0  0  0
  -19.1555  -28.8841   23.2838 C   0  0  0  0  0  0
  -18.9506  -30.1452   23.8821 C   0  0  0  0  0  0
  -17.6509  -30.6595   24.0496 C   0  0  0  0  0  0
  -25.9066  -34.9416   23.5072 C   0  0  0  0  0  0
  -16.5393  -29.9107   23.6303 C   0  0  0  0  0  0
  -16.7281  -28.6495   23.0377 C   0  0  0  0  0  0
  -26.4499  -31.6587   25.0758 C   0  0  0  0  0  0
  -25.3665  -31.3789   26.1446 C   0  0  0  0  0  0
  -27.0369  -30.3001   24.6300 C   0  0  0  0  0  0
  -27.6021  -32.4369   25.7555 C   0  0  0  0  0  0
  -27.5555  -37.1811   24.8478 C   0  0  0  0  0  0
  -21.4199  -29.3108   22.3657 N   0  0  0  0  0  0
  -26.4273  -37.3777   23.9406 N   0  0  0  0  0  0
  -24.6975  -31.0557   22.0944 N   0  0  0  0  0  0
  -23.4221  -28.8185   23.2969 O   0  0  0  0  0  0
  -28.3056  -26.3476   20.1892 O   0  0  0  0  0  0
  -26.5627  -34.8879   22.4636 O   0  0  0  0  0  0
  -23.5529  -32.1407   23.7291 O   0  0  0  0  0  0
  -29.4911  -19.8741   21.6831 C   0  0  0  0  0  0
  -29.9140  -17.4651   21.9041 C   0  0  0  0  0  0
  -29.3110  -19.7826   20.2875 C   0  0  0  0  0  0
  -29.7365  -17.2512   20.5284 C   0  0  0  0  0  0
  -29.7855  -18.7436   22.4750 C   0  0  0  0  0  0
  -29.4325  -18.4338   19.7206 C   0  0  0  0  0  0
  -26.7277  -22.1527   21.6994 C   0  0  0  0  0  0
  -27.1700  -23.6090   21.5477 C   0  0  0  0  0  0
  -26.7991  -21.6697   20.2608 C   0  0  0  0  0  0
  -28.3069  -23.5700   20.4950 C   0  0  2  0  0  0
  -29.1433  -21.1577   19.4721 C   0  0  0  0  0  0
  -28.3129  -24.9456   19.6193 C   0  0  0  0  0  0
  -29.7260  -15.8387   20.0747 N   0  0  0  0  0  0
  -28.0621  -22.2339   19.7393 N   0  3  1  0  0  0
  -29.9939  -18.9118   24.1789 Cl  0  0  0  0  0  0
  -29.2494  -18.2190   18.0160 Cl  0  0  0  0  0  0
  -31.4670  -12.6030   19.0851 H   0  0  0  0  0  0
  -30.4015  -11.4791   19.8966 H   0  0  0  0  0  0
  -29.7507  -11.7085   17.4781 H   0  0  0  0  0  0
  -29.6242  -13.4360   17.6454 H   0  0  0  0  0  0
  -27.8251  -11.2983   18.8323 H   0  0  0  0  0  0
  -27.3607  -12.5911   17.7649 H   0  0  0  0  0  0
  -27.6114  -14.2507   19.4498 H   0  0  0  0  0  0
  -28.7412  -12.1677   21.3772 H   0  0  0  0  0  0
  -28.4527  -13.8542   21.7511 H   0  0  0  0  0  0
  -25.2764   -9.5651   22.4771 H   0  0  0  0  0  0
  -23.9979   -7.4642   22.7495 H   0  0  0  0  0  0
  -21.0831   -8.8785   19.8981 H   0  0  0  0  0  0
  -22.3739  -10.9653   19.6187 H   0  0  0  0  0  0
  -21.2017   -7.6153   23.9727 H   0  0  0  0  0  0
  -21.1486   -6.0527   25.9081 H   0  0  0  0  0  0
  -22.0596   -2.7622   23.2830 H   0  0  0  0  0  0
  -22.4008  -11.9964   22.4885 H   0  0  0  0  0  0
  -21.1042  -13.1326   22.2547 H   0  0  0  0  0  0
  -24.6397  -15.8405   20.5491 H   0  0  0  0  0  0
  -26.2731  -15.6532   20.1643 H   0  0  0  0  0  0
  -26.7221  -32.5302   23.1043 H   0  0  0  0  0  0
  -25.0135  -33.9721   25.0387 H   0  0  0  0  0  0
  -22.7142  -31.3082   21.4014 H   0  0  0  0  0  0
  -23.3735  -35.9611   23.3343 H   0  0  0  0  0  0
  -24.3526  -36.8878   22.2045 H   0  0  0  0  0  0
  -23.7245  -37.6481   23.6651 H   0  0  0  0  0  0
  -26.1241  -31.5289   20.6213 H   0  0  0  0  0  0
  -26.8478  -30.7983   22.0217 H   0  0  0  0  0  0
  -28.1139  -28.9027   21.1817 H   0  0  0  0  0  0
  -25.8459  -25.8802   19.0511 H   0  0  0  0  0  0
  -23.9318  -27.3035   19.0448 H   0  0  0  0  0  0
  -23.7684  -30.6053   19.4050 H   0  0  0  0  0  0
  -22.7484  -29.2847   19.8481 H   0  0  0  0  0  0
  -25.1302  -36.1882   25.0825 H   0  0  0  0  0  0
  -21.0022  -28.3251   24.1310 H   0  0  0  0  0  0
  -20.5696  -26.2342   23.3553 H   0  0  0  0  0  0
  -21.6672  -26.7429   22.1155 H   0  0  0  0  0  0
  -19.6857  -25.6231   21.1269 H   0  0  0  0  0  0
  -19.6595  -27.3081   20.6650 H   0  0  0  0  0  0
  -17.4201  -26.6698   21.4059 H   0  0  0  0  0  0
  -18.0333  -26.0019   22.9016 H   0  0  0  0  0  0
  -19.7985  -30.7237   24.2238 H   0  0  0  0  0  0
  -17.5091  -31.6265   24.5104 H   0  0  0  0  0  0
  -15.5391  -30.3005   23.7713 H   0  0  0  0  0  0
  -15.8652  -28.0789   22.7182 H   0  0  0  0  0  0
  -24.5850  -30.7142   25.7747 H   0  0  0  0  0  0
  -24.8859  -32.2994   26.4778 H   0  0  0  0  0  0
  -25.7950  -30.9016   27.0269 H   0  0  0  0  0  0
  -26.2986  -29.6727   24.1307 H   0  0  0  0  0  0
  -27.3977  -29.7316   25.4874 H   0  0  0  0  0  0
  -27.8874  -30.4258   23.9603 H   0  0  0  0  0  0
  -27.2593  -33.3693   26.2062 H   0  0  0  0  0  0
  -28.3881  -32.6930   25.0424 H   0  0  0  0  0  0
  -28.0615  -31.8552   26.5559 H   0  0  0  0  0  0
  -28.2616  -38.0056   24.7473 H   0  0  0  0  0  0
  -28.1011  -36.2609   24.6380 H   0  0  0  0  0  0
  -27.2259  -37.1524   25.8871 H   0  0  0  0  0  0
  -20.9355  -29.8917   21.6962 H   0  0  0  0  0  0
  -26.0144  -38.2855   24.1381 H   0  0  0  0  0  0
  -29.4400  -20.8359   22.1682 H   0  0  0  0  0  0
  -30.1192  -16.6286   22.5581 H   0  0  0  0  0  0
  -25.7318  -22.0280   22.1228 H   0  0  0  0  0  0
  -27.4356  -21.5989   22.3176 H   0  0  0  0  0  0
  -27.4519  -24.0838   22.4876 H   0  0  0  0  0  0
  -26.3162  -24.1677   21.1591 H   0  0  0  0  0  0
  -25.9697  -22.1136   19.6992 H   0  0  0  0  0  0
  -26.7111  -20.5874   20.1632 H   0  0  0  0  0  0
  -29.2589  -23.4791   21.0198 H   0  0  0  0  0  0
  -30.1154  -21.6446   19.3963 H   0  0  0  0  0  0
  -28.9171  -20.8582   18.4498 H   0  0  0  0  0  0
  -27.5572  -24.8567   18.8469 H   0  0  0  0  0  0
  -29.2452  -24.8968   19.0546 H   0  0  0  0  0  0
  -28.8446  -15.5546   19.6762 H   0  0  0  0  0  0
  -27.8256  -22.5385   18.8047 H   0  0  0  0  0  0
  1 25  1  0  0  0
  1 30  2  0  0  0
  1 83  1  0  0  0
  2  3  1  0  0  0
  2 25  1  0  0  0
  2 87  1  0  0  0
  2 88  1  0  0  0
  3  4  1  0  0  0
  3 89  1  0  0  0
  3 90  1  0  0  0
  4  5  1  0  0  0
  4 91  1  0  0  0
  4 92  1  0  0  0
  5  6  1  0  0  0
  5 26  1  0  0  0
  5 93  1  0  0  0
  6 25  1  0  0  0
  6 94  1  0  0  0
  6 95  1  0  0  0
  7  8  2  0  0  0
  7 26  1  0  0  0
  7 29  1  0  0  0
  8  9  1  0  0  0
  8 22  1  0  0  0
  9 10  1  0  0  0
  9 27  2  0  0  0
 10 11  2  0  0  0
 10 15  1  0  0  0
 11 12  1  0  0  0
 11 96  1  0  0  0
 12 13  2  0  0  0
 12 97  1  0  0  0
 13 14  1  0  0  0
 13 31  1  0  0  0
 14 15  2  0  0  0
 14 98  1  0  0  0
 15 99  1  0  0  0
 16 17  2  0  0  0
 16 21  1  0  0  0
 16 31  1  0  0  0
 17 18  1  0  0  0
 17100  1  0  0  0
 18 19  2  0  0  0
 18101  1  0  0  0
 19 20  1  0  0  0
 19 24  1  0  0  0
 20 21  2  0  0  0
 20102  1  0  0  0
 21 23  1  0  0  0
 22 28  1  0  0  0
 22 32  2  0  0  0
 26 27  1  0  0  0
 28103  1  0  0  0
 28104  1  0  0  0
 29105  1  0  0  0
 29106  1  0  0  0
 33 34  1  0  0  0
 33 66  1  0  0  0
 33 70  2  0  0  0
 34 36  1  0  0  0
 34 59  1  0  0  0
 34107  1  0  0  0
 35 44  2  0  0  0
 35 45  1  0  0  0
 35 68  1  0  0  0
 36 56  1  0  0  0
 36108  1  0  0  0
 37 39  1  0  0  0
 37 47  1  0  0  0
 37 66  1  0  0  0
 37109  1  0  0  0
 38 43  2  0  0  0
 38 46  1  0  0  0
 38 47  1  0  0  0
 39 64  1  0  0  0
 39 67  2  0  0  0
 40 52  1  0  0  0
 40 53  2  0  0  0
 40 58  1  0  0  0
 41110  1  0  0  0
 41111  1  0  0  0
 41112  1  0  0  0
 41 48  1  0  0  0
 42 43  1  0  0  0
 42 66  1  0  0  0
 42113  1  0  0  0
 42114  1  0  0  0
 43 44  1  0  0  0
 44115  1  0  0  0
 45 46  2  0  0  0
 45116  1  0  0  0
 46117  1  0  0  0
 47118  1  0  0  0
 47119  1  0  0  0
 48 56  1  0  0  0
 48 65  1  0  0  0
 48120  1  0  0  0
 49 50  1  0  0  0
 49 53  1  0  0  0
 49 64  1  0  0  0
 49121  1  0  0  0
 50 51  1  0  0  0
 50122  1  0  0  0
 50123  1  0  0  0
 51 52  1  0  0  0
 51124  1  0  0  0
 51125  1  0  0  0
 52126  1  0  0  0
 52127  1  0  0  0
 53 54  1  0  0  0
 54 55  2  0  0  0
 54128  1  0  0  0
 55 57  1  0  0  0
 55129  1  0  0  0
 56 69  2  0  0  0
 57 58  2  0  0  0
 57130  1  0  0  0
 58131  1  0  0  0
 59 60  1  0  0  0
 59 61  1  0  0  0
 59 62  1  0  0  0
 60132  1  0  0  0
 60133  1  0  0  0
 60134  1  0  0  0
 61135  1  0  0  0
 61136  1  0  0  0
 61137  1  0  0  0
 62138  1  0  0  0
 62139  1  0  0  0
 62140  1  0  0  0
 63 65  1  0  0  0
 63141  1  0  0  0
 63142  1  0  0  0
 63143  1  0  0  0
 64144  1  0  0  0
 65145  1  0  0  0
 68 82  1  0  0  0
 71 73  2  0  0  0
 71 75  1  0  0  0
 71146  1  0  0  0
 72 74  1  0  0  0
 72 75  2  0  0  0
 72147  1  0  0  0
 73 76  1  0  0  0
 73 81  1  0  0  0
 74 76  2  0  0  0
 74 83  1  0  0  0
 75 85  1  0  0  0
 76 86  1  0  0  0
 77 78  1  0  0  0
 77 79  1  0  0  0
 77148  1  0  0  0
 77149  1  0  0  0
 78 80  1  0  0  0
 78150  1  0  0  0
 78151  1  0  0  0
 79 84  1  0  0  0
 79152  1  0  0  0
 79153  1  0  0  0
 80 82  1  0  0  0
 80 84  1  0  0  0
 80154  1  0  0  0
 81155  1  0  0  0
 81156  1  0  0  0
 81 84  1  0  0  0
 82157  1  0  0  0
 82158  1  0  0  0
 83159  1  0  0  0
 84160  1  0  0  0
M  CHG  1  84   1
M  ISO  4   1 100  68 101  82 101  83 100
M  END
> <chiral flag>
0

> <version>
0

> <s_m_source_file>
/data/baiqing/PycharmProjects/Reinvent-master-3.2/result/LINK_invent/BTK/process_docking_weight1_custom_product_contain_oxygen_bond_distance_aromatic_linkinvent_7_9_3/rearranged_h_0025.sdf

> <i_m_source_file_index>
21

> <r_mmod_Potential_Energy-OPLS-2005>
217.056976318359

> <r_mmod_Stretch_Energy-OPLS-2005>
136.288589477539

> <r_mmod_Bend_Energy-OPLS-2005>
233.773040771484

> <r_mmod_Torsional_Energy-OPLS-2005>
309.930969238281

> <r_mmod_Improper_Torsional_Energy-OPLS-2005>
14.0770483016968

> <r_mmod_Van_der_Waal_Energy-OPLS-2005>
125.595642089844

> <r_mmod_Electrostatic_Energy-OPLS-2005>
-245.70295715332

> <r_mmod_Solvation_Energy-OPLS-2005>
-461.108764648438

> <b_mmod_Minimization_Converged-OPLS-2005>
0

> <r_mmod_RMS_Derivative-OPLS-2005>
8.01551532745361

$$$$
21
                    3D
 Structure written by MMmdl.
155164  0  0  1  0            999 V2000
  -30.6284  -14.6375   20.4962 C   0  0  0  0  0  0
  -30.4413  -12.3912   19.4481 C   0  0  0  0  0  0
  -29.5093  -12.5108   18.2213 C   0  0  0  0  0  0
  -28.0309  -12.3530   18.6330 C   0  0  0  0  0  0
  -27.6546  -13.2198   19.8643 C   0  0  2  0  0  0
  -28.7023  -13.0714   20.9921 C   0  0  0  0  0  0
  -25.2552  -13.8165   20.5690 C   0  0  0  0  0  0
  -24.1817  -13.0422   20.9158 C   0  0  0  0  0  0
  -24.6398  -11.6900   20.8713 C   0  0  0  0  0  0
  -23.9066  -10.4283   21.0388 C   0  0  0  0  0  0
  -24.3613   -9.4205   21.9176 C   0  0  0  0  0  0
  -23.6287   -8.2244   22.0751 C   0  0  0  0  0  0
  -22.4269   -8.0277   21.3544 C   0  0  0  0  0  0
  -21.9902   -9.0250   20.4650 C   0  0  0  0  0  0
  -22.7232  -10.2127   20.3051 C   0  0  0  0  0  0
  -21.6853   -6.0729   22.5279 C   0  0  0  0  0  0
  -21.4014   -6.5633   23.8211 C   0  0  0  0  0  0
  -21.3662   -5.6785   24.9174 C   0  0  0  0  0  0
  -21.6046   -4.3051   24.7225 C   0  0  0  0  0  0
  -21.8820   -3.8141   23.4347 C   0  0  0  0  0  0
  -21.9194   -4.6956   22.3403 C   0  0  0  0  0  0
  -22.7841  -13.5221   21.1834 C   0  0  0  0  0  0
  -22.1665   -4.2143   21.0981 F   0  0  0  0  0  0
  -21.5629   -3.4535   25.7740 F   0  0  0  0  0  0
  -30.0190  -13.4112   20.4275 N   0  0  0  0  0  0
  -26.3003  -12.9368   20.3338 N   0  0  0  0  0  0
  -25.9334  -11.6511   20.5738 N   0  0  0  0  0  0
  -22.0488  -12.8225   22.0405 N   0  0  0  0  0  0
  -25.4200  -15.1890   20.4181 N   0  0  0  0  0  0
  -31.7943  -14.8000   20.1259 O   0  0  0  0  0  0
  -21.6636   -6.8873   21.4242 O   0  0  0  0  0  0
  -22.3520  -14.5530   20.6687 O   0  0  0  0  0  0
  -24.6272  -31.8602   23.2034 C   0  0  0  0  0  0
  -25.9117  -32.4782   23.8362 C   0  0  1  0  0  0
  -27.2259  -27.3200   20.1025 C   0  0  0  0  0  0
  -25.5926  -33.8581   24.2285 N   0  0  0  0  0  0
  -23.4203  -30.4864   21.5469 C   0  0  2  0  0  0
  -24.8655  -28.9436   20.1133 C   0  0  0  0  0  0
  -22.7477  -29.4636   22.4942 C   0  0  0  0  0  0
  -18.0290  -28.1387   22.8486 C   0  0  0  0  0  0
  -24.1489  -36.7296   23.2636 C   0  0  0  0  0  0
  -25.9630  -30.7920   21.3739 C   0  0  0  0  0  0
  -26.0377  -29.4200   20.7136 C   0  0  0  0  0  0
  -27.2213  -28.6208   20.6977 C   0  0  0  0  0  0
  -26.0230  -26.8989   19.4857 C   0  0  0  0  0  0
  -24.8600  -27.6876   19.4927 C   0  0  0  0  0  0
  -23.6344  -29.8239   20.1622 C   0  0  0  0  0  0
  -25.4110  -36.3084   24.0330 C   0  0  1  0  0  0
  -20.5891  -28.3691   23.1284 C   0  0  2  0  0  0
  -20.6780  -26.9416   22.5408 C   0  0  0  0  0  0
  -19.5755  -26.6390   21.5211 C   0  0  0  0  0  0
  -18.1937  -26.7931   22.1627 C   0  0  0  0  0  0
  -19.1540  -28.8856   23.2882 C   0  0  0  0  0  0
  -18.9463  -30.1457   23.8898 C   0  0  0  0  0  0
  -17.6460  -30.6590   24.0564 C   0  0  0  0  0  0
  -25.9046  -34.9453   23.5108 C   0  0  0  0  0  0
  -16.5353  -29.9086   23.6329 C   0  0  0  0  0  0
  -16.7274  -28.6505   23.0351 C   0  0  0  0  0  0
  -26.4494  -31.6587   25.0730 C   0  0  0  0  0  0
  -25.3725  -31.3721   26.1454 C   0  0  0  0  0  0
  -27.0336  -30.3013   24.6177 C   0  0  0  0  0  0
  -27.6064  -32.4310   25.7498 C   0  0  0  0  0  0
  -27.5585  -37.1792   24.8456 C   0  0  0  0  0  0
  -21.4191  -29.3050   22.3682 N   0  0  0  0  0  0
  -26.4283  -37.3783   23.9420 N   0  0  0  0  0  0
  -24.6894  -31.0620   22.0984 N   0  0  0  0  0  0
  -23.4199  -28.8171   23.3021 O   0  0  0  0  0  0
  -28.3450  -26.4665   20.1349 O   0  0  0  0  0  0
  -26.5619  -34.8920   22.4675 O   0  0  0  0  0  0
  -23.5434  -32.1397   23.7362 O   0  0  0  0  0  0
  -28.6837  -19.2886   20.4101 C   0  0  0  0  0  0
  -31.1044  -17.8879   20.5697 C   0  0  0  0  0  0
  -29.8735  -20.0568   20.3053 C   0  0  0  0  0  0
  -29.9079  -17.1292   20.6338 C   0  0  0  0  0  0
  -28.7023  -17.8723   20.5680 C   0  0  0  0  0  0
  -31.0947  -19.3116   20.4296 C   0  0  0  0  0  0
  -30.4816  -22.1830   19.1127 C   0  0  0  0  0  0
  -30.1780  -23.6872   19.0945 C   0  0  0  0  0  0
  -28.7988  -22.4558   20.6264 C   0  0  0  0  0  0
  -29.2417  -23.9357   20.2863 C   0  0  2  0  0  0
  -28.0927  -25.0086   20.0301 C   0  0  0  0  0  0
  -29.8142  -21.5157   20.0784 N   0  0  0  0  0  0
  -29.8090  -15.6817   20.8215 N   0  0  0  0  0  0
  -31.2381  -21.6803   18.2774 O   0  0  0  0  0  0
  -27.5286  -17.2015   20.6467 F   0  0  0  0  0  0
  -32.6322  -20.1028   20.5050 Cl  0  0  0  0  0  0
  -31.4829  -12.5148   19.1456 H   0  0  0  0  0  0
  -30.3734  -11.3945   19.8861 H   0  0  0  0  0  0
  -29.7707  -11.7604   17.4739 H   0  0  0  0  0  0
  -29.6545  -13.4804   17.7420 H   0  0  0  0  0  0
  -27.8629  -11.2990   18.8573 H   0  0  0  0  0  0
  -27.3786  -12.5904   17.7915 H   0  0  0  0  0  0
  -27.6708  -14.2561   19.5258 H   0  0  0  0  0  0
  -28.7117  -12.0497   21.3743 H   0  0  0  0  0  0
  -28.4508  -13.7033   21.8454 H   0  0  0  0  0  0
  -25.2758   -9.5689   22.4749 H   0  0  0  0  0  0
  -24.0002   -7.4637   22.7469 H   0  0  0  0  0  0
  -21.0833   -8.8767   19.8963 H   0  0  0  0  0  0
  -22.3684  -10.9661   19.6160 H   0  0  0  0  0  0
  -21.2005   -7.6140   23.9709 H   0  0  0  0  0  0
  -21.1485   -6.0518   25.9074 H   0  0  0  0  0  0
  -22.0598   -2.7604   23.2845 H   0  0  0  0  0  0
  -22.4093  -11.9890   22.4808 H   0  0  0  0  0  0
  -21.1111  -13.1268   22.2612 H   0  0  0  0  0  0
  -24.6525  -15.8348   20.5624 H   0  0  0  0  0  0
  -26.2899  -15.6662   20.2083 H   0  0  0  0  0  0
  -26.7188  -32.5456   23.1116 H   0  0  0  0  0  0
  -25.0061  -33.9723   25.0424 H   0  0  0  0  0  0
  -22.7145  -31.3075   21.4053 H   0  0  0  0  0  0
  -23.3752  -35.9625   23.3281 H   0  0  0  0  0  0
  -24.3592  -36.8932   22.2054 H   0  0  0  0  0  0
  -23.7234  -37.6492   23.6667 H   0  0  0  0  0  0
  -26.0935  -31.5563   20.6064 H   0  0  0  0  0  0
  -26.8439  -30.8408   22.0023 H   0  0  0  0  0  0
  -28.1220  -28.9839   21.1731 H   0  0  0  0  0  0
  -25.9403  -25.9440   18.9916 H   0  0  0  0  0  0
  -23.9610  -27.3157   19.0208 H   0  0  0  0  0  0
  -23.7552  -30.6009   19.4061 H   0  0  0  0  0  0
  -22.7534  -29.2549   19.8600 H   0  0  0  0  0  0
  -25.1280  -36.1932   25.0819 H   0  0  0  0  0  0
  -20.9984  -28.3261   24.1403 H   0  0  0  0  0  0
  -20.5694  -26.2294   23.3600 H   0  0  0  0  0  0
  -21.6650  -26.7459   22.1196 H   0  0  0  0  0  0
  -19.6920  -25.6299   21.1245 H   0  0  0  0  0  0
  -19.6693  -27.3195   20.6734 H   0  0  0  0  0  0
  -17.4204  -26.6673   21.4032 H   0  0  0  0  0  0
  -18.0346  -26.0075   22.9026 H   0  0  0  0  0  0
  -19.7937  -30.7279   24.2270 H   0  0  0  0  0  0
  -17.5015  -31.6272   24.5162 H   0  0  0  0  0  0
  -15.5353  -30.2991   23.7651 H   0  0  0  0  0  0
  -15.8676  -28.0826   22.7062 H   0  0  0  0  0  0
  -24.5901  -30.7070   25.7777 H   0  0  0  0  0  0
  -24.8913  -32.2883   26.4882 H   0  0  0  0  0  0
  -25.8046  -30.8895   27.0227 H   0  0  0  0  0  0
  -26.2909  -29.6769   24.1196 H   0  0  0  0  0  0
  -27.4031  -29.7263   25.4678 H   0  0  0  0  0  0
  -27.8781  -30.4304   23.9402 H   0  0  0  0  0  0
  -27.2689  -33.3609   26.2085 H   0  0  0  0  0  0
  -28.3870  -32.6863   25.0319 H   0  0  0  0  0  0
  -28.0736  -31.8421   26.5401 H   0  0  0  0  0  0
  -28.2565  -38.0125   24.7553 H   0  0  0  0  0  0
  -28.1116  -36.2657   24.6210 H   0  0  0  0  0  0
  -27.2318  -37.1361   25.8861 H   0  0  0  0  0  0
  -20.9363  -29.8764   21.6890 H   0  0  0  0  0  0
  -26.0160  -38.2852   24.1444 H   0  0  0  0  0  0
  -27.7247  -19.7806   20.3470 H   0  0  0  0  0  0
  -32.0558  -17.3854   20.6597 H   0  0  0  0  0  0
  -29.6989  -23.9294   18.1461 H   0  0  0  0  0  0
  -31.0948  -24.2718   19.1685 H   0  0  0  0  0  0
  -27.8361  -22.2358   20.1620 H   0  0  0  0  0  0
  -28.6812  -22.3168   21.7015 H   0  0  0  0  0  0
  -29.8461  -24.2884   21.1236 H   0  0  0  0  0  0
  -27.2892  -24.7756   20.7308 H   0  0  0  0  0  0
  -27.6975  -24.7940   19.0372 H   0  0  0  0  0  0
  -28.8782  -15.3804   21.0669 H   0  0  0  0  0  0
  1 25  1  0  0  0
  1 30  2  0  0  0
  1 83  1  0  0  0
  2  3  1  0  0  0
  2 25  1  0  0  0
  2 87  1  0  0  0
  2 88  1  0  0  0
  3  4  1  0  0  0
  3 89  1  0  0  0
  3 90  1  0  0  0
  4  5  1  0  0  0
  4 91  1  0  0  0
  4 92  1  0  0  0
  5  6  1  0  0  0
  5 26  1  0  0  0
  5 93  1  0  0  0
  6 25  1  0  0  0
  6 94  1  0  0  0
  6 95  1  0  0  0
  7  8  2  0  0  0
  7 26  1  0  0  0
  7 29  1  0  0  0
  8  9  1  0  0  0
  8 22  1  0  0  0
  9 10  1  0  0  0
  9 27  2  0  0  0
 10 11  2  0  0  0
 10 15  1  0  0  0
 11 12  1  0  0  0
 11 96  1  0  0  0
 12 13  2  0  0  0
 12 97  1  0  0  0
 13 14  1  0  0  0
 13 31  1  0  0  0
 14 15  2  0  0  0
 14 98  1  0  0  0
 15 99  1  0  0  0
 16 17  2  0  0  0
 16 21  1  0  0  0
 16 31  1  0  0  0
 17 18  1  0  0  0
 17100  1  0  0  0
 18 19  2  0  0  0
 18101  1  0  0  0
 19 20  1  0  0  0
 19 24  1  0  0  0
 20 21  2  0  0  0
 20102  1  0  0  0
 21 23  1  0  0  0
 22 28  1  0  0  0
 22 32  2  0  0  0
 26 27  1  0  0  0
 28103  1  0  0  0
 28104  1  0  0  0
 29105  1  0  0  0
 29106  1  0  0  0
 33 34  1  0  0  0
 33 66  1  0  0  0
 33 70  2  0  0  0
 34 36  1  0  0  0
 34 59  1  0  0  0
 34107  1  0  0  0
 35 44  2  0  0  0
 35 45  1  0  0  0
 35 68  1  0  0  0
 36 56  1  0  0  0
 36108  1  0  0  0
 37 39  1  0  0  0
 37 47  1  0  0  0
 37 66  1  0  0  0
 37109  1  0  0  0
 38 43  2  0  0  0
 38 46  1  0  0  0
 38 47  1  0  0  0
 39 64  1  0  0  0
 39 67  2  0  0  0
 40 52  1  0  0  0
 40 53  2  0  0  0
 40 58  1  0  0  0
 41110  1  0  0  0
 41111  1  0  0  0
 41112  1  0  0  0
 41 48  1  0  0  0
 42 43  1  0  0  0
 42 66  1  0  0  0
 42113  1  0  0  0
 42114  1  0  0  0
 43 44  1  0  0  0
 44115  1  0  0  0
 45 46  2  0  0  0
 45116  1  0  0  0
 46117  1  0  0  0
 47118  1  0  0  0
 47119  1  0  0  0
 48 56  1  0  0  0
 48 65  1  0  0  0
 48120  1  0  0  0
 49 50  1  0  0  0
 49 53  1  0  0  0
 49 64  1  0  0  0
 49121  1  0  0  0
 50 51  1  0  0  0
 50122  1  0  0  0
 50123  1  0  0  0
 51 52  1  0  0  0
 51124  1  0  0  0
 51125  1  0  0  0
 52126  1  0  0  0
 52127  1  0  0  0
 53 54  1  0  0  0
 54 55  2  0  0  0
 54128  1  0  0  0
 55 57  1  0  0  0
 55129  1  0  0  0
 56 69  2  0  0  0
 57 58  2  0  0  0
 57130  1  0  0  0
 58131  1  0  0  0
 59 60  1  0  0  0
 59 61  1  0  0  0
 59 62  1  0  0  0
 60132  1  0  0  0
 60133  1  0  0  0
 60134  1  0  0  0
 61135  1  0  0  0
 61136  1  0  0  0
 61137  1  0  0  0
 62138  1  0  0  0
 62139  1  0  0  0
 62140  1  0  0  0
 63 65  1  0  0  0
 63141  1  0  0  0
 63142  1  0  0  0
 63143  1  0  0  0
 64144  1  0  0  0
 65145  1  0  0  0
 68 81  1  0  0  0
 71 73  2  0  0  0
 71 75  1  0  0  0
 71146  1  0  0  0
 72 74  1  0  0  0
 72 76  2  0  0  0
 72147  1  0  0  0
 73 76  1  0  0  0
 73 82  1  0  0  0
 74 75  2  0  0  0
 74 83  1  0  0  0
 75 85  1  0  0  0
 76 86  1  0  0  0
 77 78  1  0  0  0
 77 82  1  0  0  0
 77 84  2  0  0  0
 78 80  1  0  0  0
 78148  1  0  0  0
 78149  1  0  0  0
 79 80  1  0  0  0
 79 82  1  0  0  0
 79150  1  0  0  0
 79151  1  0  0  0
 80 81  1  0  0  0
 80152  1  0  0  0
 81153  1  0  0  0
 81154  1  0  0  0
 83155  1  0  0  0
M  ISO  4   1 100  68 101  81 101  83 100
M  END
> <chiral flag>
0

> <version>
0

> <s_m_source_file>
/data/baiqing/PycharmProjects/Reinvent-master-3.2/result/LINK_invent/BTK/process_docking_weight1_custom_product_contain_oxygen_bond_distance_aromatic_linkinvent_7_9_3/rearranged_h_0025.sdf

> <i_m_source_file_index>
22

> <r_mmod_Potential_Energy-OPLS-2005>
70.6053466796875

> <r_mmod_Stretch_Energy-OPLS-2005>
79.4704208374023

> <r_mmod_Bend_Energy-OPLS-2005>
162.323501586914

> <r_mmod_Torsional_Energy-OPLS-2005>
281.41748046875

> <r_mmod_Improper_Torsional_Energy-OPLS-2005>
5.21600008010864

> <r_mmod_Van_der_Waal_Energy-OPLS-2005>
144.858367919922

> <r_mmod_Electrostatic_Energy-OPLS-2005>
-429.869506835938

> <r_mmod_Solvation_Energy-OPLS-2005>
-220.442153930664

> <b_mmod_Minimization_Converged-OPLS-2005>
0

> <r_mmod_RMS_Derivative-OPLS-2005>
0.973855316638947

$$$$
22
                    3D
 Structure written by MMmdl.
167176  0  0  1  0            999 V2000
  -30.5990  -14.7349   20.4548 C   0  0  0  0  0  0
  -30.4362  -12.4507   19.4501 C   0  0  0  0  0  0
  -29.5054  -12.4994   18.2198 C   0  0  0  0  0  0
  -28.0315  -12.3258   18.6385 C   0  0  0  0  0  0
  -27.6390  -13.2248   19.8407 C   0  0  2  0  0  0
  -28.6892  -13.1533   20.9692 C   0  0  0  0  0  0
  -25.2509  -13.8174   20.5690 C   0  0  0  0  0  0
  -24.1802  -13.0424   20.9215 C   0  0  0  0  0  0
  -24.6395  -11.6901   20.8760 C   0  0  0  0  0  0
  -23.9073  -10.4279   21.0415 C   0  0  0  0  0  0
  -24.3620   -9.4193   21.9193 C   0  0  0  0  0  0
  -23.6291   -8.2233   22.0758 C   0  0  0  0  0  0
  -22.4271   -8.0276   21.3544 C   0  0  0  0  0  0
  -21.9912   -9.0257   20.4647 C   0  0  0  0  0  0
  -22.7244  -10.2127   20.3057 C   0  0  0  0  0  0
  -21.6854   -6.0735   22.5275 C   0  0  0  0  0  0
  -21.4015   -6.5641   23.8208 C   0  0  0  0  0  0
  -21.3658   -5.6796   24.9175 C   0  0  0  0  0  0
  -21.6045   -4.3060   24.7223 C   0  0  0  0  0  0
  -21.8820   -3.8147   23.4344 C   0  0  0  0  0  0
  -21.9191   -4.6967   22.3395 C   0  0  0  0  0  0
  -22.7819  -13.5201   21.1875 C   0  0  0  0  0  0
  -22.1658   -4.2154   21.0979 F   0  0  0  0  0  0
  -21.5630   -3.4537   25.7737 F   0  0  0  0  0  0
  -29.9837  -13.5093   20.3750 N   0  0  0  0  0  0
  -26.2933  -12.9376   20.3249 N   0  0  0  0  0  0
  -25.9310  -11.6530   20.5724 N   0  0  0  0  0  0
  -22.0466  -12.8192   22.0431 N   0  0  0  0  0  0
  -25.4166  -15.1913   20.4127 N   0  0  0  0  0  0
  -31.8018  -14.8461   20.2045 O   0  0  0  0  0  0
  -21.6633   -6.8874   21.4229 O   0  0  0  0  0  0
  -22.3512  -14.5522   20.6740 O   0  0  0  0  0  0
  -24.6326  -31.8554   23.1975 C   0  0  0  0  0  0
  -25.9137  -32.4765   23.8322 C   0  0  1  0  0  0
  -27.2294  -27.2561   20.1213 C   0  0  0  0  0  0
  -25.5907  -33.8558   24.2257 N   0  0  0  0  0  0
  -23.4327  -30.4799   21.5405 C   0  0  2  0  0  0
  -24.8818  -28.9248   20.1185 C   0  0  0  0  0  0
  -22.7496  -29.4616   22.4883 C   0  0  0  0  0  0
  -18.0302  -28.1392   22.8498 C   0  0  0  0  0  0
  -24.1485  -36.7293   23.2638 C   0  0  0  0  0  0
  -25.9789  -30.7710   21.3753 C   0  0  0  0  0  0
  -26.0579  -29.3901   20.7209 C   0  0  0  0  0  0
  -27.2343  -28.5695   20.7099 C   0  0  0  0  0  0
  -26.0219  -26.8620   19.4971 C   0  0  0  0  0  0
  -24.8693  -27.6683   19.4990 C   0  0  0  0  0  0
  -23.6546  -29.8118   20.1598 C   0  0  0  0  0  0
  -25.4107  -36.3080   24.0337 C   0  0  1  0  0  0
  -20.5907  -28.3694   23.1264 C   0  0  2  0  0  0
  -20.6784  -26.9415   22.5407 C   0  0  0  0  0  0
  -19.5750  -26.6395   21.5218 C   0  0  0  0  0  0
  -18.1930  -26.7935   22.1635 C   0  0  0  0  0  0
  -19.1558  -28.8856   23.2875 C   0  0  0  0  0  0
  -18.9473  -30.1458   23.8900 C   0  0  0  0  0  0
  -17.6476  -30.6597   24.0570 C   0  0  0  0  0  0
  -25.9043  -34.9447   23.5105 C   0  0  0  0  0  0
  -16.5365  -29.9102   23.6323 C   0  0  0  0  0  0
  -16.7280  -28.6514   23.0350 C   0  0  0  0  0  0
  -26.4503  -31.6580   25.0698 C   0  0  0  0  0  0
  -25.3708  -31.3770   26.1405 C   0  0  0  0  0  0
  -27.0344  -30.2992   24.6181 C   0  0  0  0  0  0
  -27.6043  -32.4316   25.7480 C   0  0  0  0  0  0
  -27.5580  -37.1798   24.8461 C   0  0  0  0  0  0
  -21.4196  -29.3057   22.3648 N   0  0  0  0  0  0
  -26.4290  -37.3779   23.9410 N   0  0  0  0  0  0
  -24.7013  -31.0515   22.0964 N   0  0  0  0  0  0
  -23.4197  -28.8110   23.2946 O   0  0  0  0  0  0
  -28.3257  -26.3554   20.1582 O   0  0  0  0  0  0
  -26.5601  -34.8922   22.4675 O   0  0  0  0  0  0
  -23.5462  -32.1366   23.7253 O   0  0  0  0  0  0
  -30.6921  -18.6488   22.8960 C   0  0  0  0  0  0
  -29.6946  -18.4653   20.3103 C   0  0  0  0  0  0
  -30.4236  -19.8417   22.1888 C   0  0  0  0  0  0
  -29.8896  -19.8001   20.8722 C   0  0  0  0  0  0
  -30.0256  -17.2258   21.0146 C   0  0  0  0  0  0
  -30.4973  -17.3746   22.3417 C   0  0  0  0  0  0
  -30.6470  -22.2548   24.8575 C   0  0  0  0  0  0
  -32.0382  -21.6480   24.7208 C   0  0  0  0  0  0
  -29.8167  -21.4159   23.8907 C   0  0  0  0  0  0
  -32.1057  -21.2349   23.2483 C   0  0  0  0  0  0
  -30.1703  -24.0947   21.3871 C   0  0  0  0  0  0
  -28.7510  -22.1605   20.3860 C   0  0  0  0  0  0
  -28.0517  -24.8688   20.1544 C   0  0  0  0  0  0
  -29.2059  -23.7282   20.2510 C   0  0  1  0  0  0
  -30.7217  -21.0771   22.7936 N   0  0  0  0  0  0
  -29.7784  -15.8530   20.5121 N   0  0  0  0  0  0
  -29.7769  -21.0634   20.1552 N   0  0  0  0  0  0
  -30.8003  -16.0183   23.3776 Cl  0  0  0  0  0  0
  -31.4740  -12.5906   19.1432 H   0  0  0  0  0  0
  -30.3921  -11.4734   19.9346 H   0  0  0  0  0  0
  -29.7837  -11.7254   17.5037 H   0  0  0  0  0  0
  -29.6285  -13.4513   17.7024 H   0  0  0  0  0  0
  -27.8847  -11.2754   18.8984 H   0  0  0  0  0  0
  -27.3740  -12.5192   17.7907 H   0  0  0  0  0  0
  -27.6283  -14.2448   19.4574 H   0  0  0  0  0  0
  -28.7272  -12.1538   21.4054 H   0  0  0  0  0  0
  -28.4321  -13.8346   21.7824 H   0  0  0  0  0  0
  -25.2762   -9.5672   22.4770 H   0  0  0  0  0  0
  -24.0001   -7.4622   22.7477 H   0  0  0  0  0  0
  -21.0852   -8.8778   19.8952 H   0  0  0  0  0  0
  -22.3712  -10.9674   19.6169 H   0  0  0  0  0  0
  -21.2007   -7.6148   23.9714 H   0  0  0  0  0  0
  -21.1483   -6.0524   25.9077 H   0  0  0  0  0  0
  -22.0600   -2.7607   23.2840 H   0  0  0  0  0  0
  -22.4088  -11.9838   22.4793 H   0  0  0  0  0  0
  -21.1083  -13.1214   22.2643 H   0  0  0  0  0  0
  -24.6422  -15.8355   20.5337 H   0  0  0  0  0  0
  -26.2531  -15.6425   20.0686 H   0  0  0  0  0  0
  -26.7177  -32.5461   23.1043 H   0  0  0  0  0  0
  -25.0046  -33.9682   25.0392 H   0  0  0  0  0  0
  -22.7336  -31.3049   21.3876 H   0  0  0  0  0  0
  -23.3759  -35.9616   23.3302 H   0  0  0  0  0  0
  -24.3588  -36.8916   22.2055 H   0  0  0  0  0  0
  -23.7239  -37.6498   23.6660 H   0  0  0  0  0  0
  -26.1054  -31.5287   20.6014 H   0  0  0  0  0  0
  -26.8603  -30.8334   22.0004 H   0  0  0  0  0  0
  -28.1346  -28.9225   21.1960 H   0  0  0  0  0  0
  -25.9278  -25.9083   19.0032 H   0  0  0  0  0  0
  -23.9677  -27.3064   19.0219 H   0  0  0  0  0  0
  -23.7845  -30.5859   19.4013 H   0  0  0  0  0  0
  -22.7767  -29.2430   19.8493 H   0  0  0  0  0  0
  -25.1298  -36.1937   25.0835 H   0  0  0  0  0  0
  -21.0003  -28.3284   24.1381 H   0  0  0  0  0  0
  -20.5681  -26.2312   23.3615 H   0  0  0  0  0  0
  -21.6646  -26.7434   22.1200 H   0  0  0  0  0  0
  -19.6908  -25.6305   21.1241 H   0  0  0  0  0  0
  -19.6683  -27.3216   20.6759 H   0  0  0  0  0  0
  -17.4200  -26.6687   21.4040 H   0  0  0  0  0  0
  -18.0314  -26.0072   22.9018 H   0  0  0  0  0  0
  -19.7955  -30.7265   24.2274 H   0  0  0  0  0  0
  -17.5042  -31.6281   24.5174 H   0  0  0  0  0  0
  -15.5368  -30.3013   23.7662 H   0  0  0  0  0  0
  -15.8674  -28.0855   22.7045 H   0  0  0  0  0  0
  -24.5901  -30.7088   25.7769 H   0  0  0  0  0  0
  -24.8858  -32.2947   26.4728 H   0  0  0  0  0  0
  -25.7985  -30.9044   27.0242 H   0  0  0  0  0  0
  -26.2930  -29.6732   24.1185 H   0  0  0  0  0  0
  -27.4015  -29.7260   25.4705 H   0  0  0  0  0  0
  -27.8807  -30.4275   23.9426 H   0  0  0  0  0  0
  -27.2656  -33.3640   26.1996 H   0  0  0  0  0  0
  -28.3879  -32.6827   25.0327 H   0  0  0  0  0  0
  -28.0653  -31.8467   26.5440 H   0  0  0  0  0  0
  -28.2588  -38.0099   24.7515 H   0  0  0  0  0  0
  -28.1073  -36.2633   24.6276 H   0  0  0  0  0  0
  -27.2275  -37.1429   25.8851 H   0  0  0  0  0  0
  -20.9373  -29.8833   21.6899 H   0  0  0  0  0  0
  -26.0174  -38.2850   24.1439 H   0  0  0  0  0  0
  -31.0702  -18.7075   23.9039 H   0  0  0  0  0  0
  -29.3163  -18.3900   19.3010 H   0  0  0  0  0  0
  -30.6628  -23.2953   24.5269 H   0  0  0  0  0  0
  -30.2618  -22.2309   25.8785 H   0  0  0  0  0  0
  -32.1249  -20.7684   25.3604 H   0  0  0  0  0  0
  -32.8336  -22.3417   24.9963 H   0  0  0  0  0  0
  -28.9488  -21.9696   23.5314 H   0  0  0  0  0  0
  -29.4458  -20.5198   24.3915 H   0  0  0  0  0  0
  -32.7198  -20.3394   23.1196 H   0  0  0  0  0  0
  -32.5754  -22.0252   22.6611 H   0  0  0  0  0  0
  -31.0325  -23.4317   21.4052 H   0  0  0  0  0  0
  -29.6762  -24.0419   22.3564 H   0  0  0  0  0  0
  -30.5540  -25.1086   21.2685 H   0  0  0  0  0  0
  -27.9587  -21.9939   19.6513 H   0  0  0  0  0  0
  -28.2800  -22.0088   21.3574 H   0  0  0  0  0  0
  -27.5269  -24.6282   19.2304 H   0  0  0  0  0  0
  -27.3421  -24.6777   20.9618 H   0  0  0  0  0  0
  -29.7673  -23.8099   19.3188 H   0  0  0  0  0  0
  -28.8042  -15.6366   20.3724 H   0  0  0  0  0  0
  -30.6627  -21.5242   20.3454 H   0  0  0  0  0  0
  1 25  1  0  0  0
  1 30  2  0  0  0
  1 86  1  0  0  0
  2  3  1  0  0  0
  2 25  1  0  0  0
  2 89  1  0  0  0
  2 90  1  0  0  0
  3  4  1  0  0  0
  3 91  1  0  0  0
  3 92  1  0  0  0
  4  5  1  0  0  0
  4 93  1  0  0  0
  4 94  1  0  0  0
  5  6  1  0  0  0
  5 26  1  0  0  0
  5 95  1  0  0  0
  6 25  1  0  0  0
  6 96  1  0  0  0
  6 97  1  0  0  0
  7  8  2  0  0  0
  7 26  1  0  0  0
  7 29  1  0  0  0
  8  9  1  0  0  0
  8 22  1  0  0  0
  9 10  1  0  0  0
  9 27  2  0  0  0
 10 11  2  0  0  0
 10 15  1  0  0  0
 11 12  1  0  0  0
 11 98  1  0  0  0
 12 13  2  0  0  0
 12 99  1  0  0  0
 13 14  1  0  0  0
 13 31  1  0  0  0
 14 15  2  0  0  0
 14100  1  0  0  0
 15101  1  0  0  0
 16 17  2  0  0  0
 16 21  1  0  0  0
 16 31  1  0  0  0
 17 18  1  0  0  0
 17102  1  0  0  0
 18 19  2  0  0  0
 18103  1  0  0  0
 19 20  1  0  0  0
 19 24  1  0  0  0
 20 21  2  0  0  0
 20104  1  0  0  0
 21 23  1  0  0  0
 22 28  1  0  0  0
 22 32  2  0  0  0
 26 27  1  0  0  0
 28105  1  0  0  0
 28106  1  0  0  0
 29107  1  0  0  0
 29108  1  0  0  0
 33 34  1  0  0  0
 33 66  1  0  0  0
 33 70  2  0  0  0
 34 36  1  0  0  0
 34 59  1  0  0  0
 34109  1  0  0  0
 35 44  2  0  0  0
 35 45  1  0  0  0
 35 68  1  0  0  0
 36 56  1  0  0  0
 36110  1  0  0  0
 37 39  1  0  0  0
 37 47  1  0  0  0
 37 66  1  0  0  0
 37111  1  0  0  0
 38 43  2  0  0  0
 38 46  1  0  0  0
 38 47  1  0  0  0
 39 64  1  0  0  0
 39 67  2  0  0  0
 40 52  1  0  0  0
 40 53  2  0  0  0
 40 58  1  0  0  0
 41112  1  0  0  0
 41113  1  0  0  0
 41114  1  0  0  0
 41 48  1  0  0  0
 42 43  1  0  0  0
 42 66  1  0  0  0
 42115  1  0  0  0
 42116  1  0  0  0
 43 44  1  0  0  0
 44117  1  0  0  0
 45 46  2  0  0  0
 45118  1  0  0  0
 46119  1  0  0  0
 47120  1  0  0  0
 47121  1  0  0  0
 48 56  1  0  0  0
 48 65  1  0  0  0
 48122  1  0  0  0
 49 50  1  0  0  0
 49 53  1  0  0  0
 49 64  1  0  0  0
 49123  1  0  0  0
 50 51  1  0  0  0
 50124  1  0  0  0
 50125  1  0  0  0
 51 52  1  0  0  0
 51126  1  0  0  0
 51127  1  0  0  0
 52128  1  0  0  0
 52129  1  0  0  0
 53 54  1  0  0  0
 54 55  2  0  0  0
 54130  1  0  0  0
 55 57  1  0  0  0
 55131  1  0  0  0
 56 69  2  0  0  0
 57 58  2  0  0  0
 57132  1  0  0  0
 58133  1  0  0  0
 59 60  1  0  0  0
 59 61  1  0  0  0
 59 62  1  0  0  0
 60134  1  0  0  0
 60135  1  0  0  0
 60136  1  0  0  0
 61137  1  0  0  0
 61138  1  0  0  0
 61139  1  0  0  0
 62140  1  0  0  0
 62141  1  0  0  0
 62142  1  0  0  0
 63 65  1  0  0  0
 63143  1  0  0  0
 63144  1  0  0  0
 63145  1  0  0  0
 64146  1  0  0  0
 65147  1  0  0  0
 68 83  1  0  0  0
 71 73  2  0  0  0
 71 76  1  0  0  0
 71148  1  0  0  0
 72 74  2  0  0  0
 72 75  1  0  0  0
 72149  1  0  0  0
 73 74  1  0  0  0
 73 85  1  0  0  0
 74 87  1  0  0  0
 75 76  2  0  0  0
 75 86  1  0  0  0
 76 88  1  0  0  0
 77 78  1  0  0  0
 77 79  1  0  0  0
 77150  1  0  0  0
 77151  1  0  0  0
 78 80  1  0  0  0
 78152  1  0  0  0
 78153  1  0  0  0
 79 85  1  0  0  0
 79154  1  0  0  0
 79155  1  0  0  0
 80 85  1  0  0  0
 80156  1  0  0  0
 80157  1  0  0  0
 81158  1  0  0  0
 81159  1  0  0  0
 81160  1  0  0  0
 81 84  1  0  0  0
 82 84  1  0  0  0
 82 87  1  0  0  0
 82161  1  0  0  0
 82162  1  0  0  0
 83 84  1  0  0  0
 83163  1  0  0  0
 83164  1  0  0  0
 84165  1  0  0  0
 86166  1  0  0  0
 87167  1  0  0  0
M  ISO  4   1 100  68 101  83 101  86 100
M  END
> <chiral flag>
0

> <version>
0

> <s_m_source_file>
/data/baiqing/PycharmProjects/Reinvent-master-3.2/result/LINK_invent/BTK/process_docking_weight1_custom_product_contain_oxygen_bond_distance_aromatic_linkinvent_7_9_3/rearranged_h_0025.sdf

> <i_m_source_file_index>
23

> <r_mmod_Potential_Energy-OPLS-2005>
298.587249755859

> <r_mmod_Stretch_Energy-OPLS-2005>
131.06672668457

> <r_mmod_Bend_Energy-OPLS-2005>
203.222686767578

> <r_mmod_Torsional_Energy-OPLS-2005>
355.942260742188

> <r_mmod_Improper_Torsional_Energy-OPLS-2005>
21.291088104248

> <r_mmod_Van_der_Waal_Energy-OPLS-2005>
138.681945800781

> <r_mmod_Electrostatic_Energy-OPLS-2005>
-419.346832275391

> <r_mmod_Solvation_Energy-OPLS-2005>
-218.703399658203

> <b_mmod_Minimization_Converged-OPLS-2005>
0

> <r_mmod_RMS_Derivative-OPLS-2005>
4.04995250701904

$$$$
23
                    3D
 Structure written by MMmdl.
155163  0  0  1  0            999 V2000
  -30.6153  -14.7486   20.5421 C   0  0  0  0  0  0
  -30.4427  -12.4843   19.4586 C   0  0  0  0  0  0
  -29.5083  -12.5416   18.2267 C   0  0  0  0  0  0
  -28.0296  -12.3648   18.6295 C   0  0  0  0  0  0
  -27.6478  -13.2215   19.8647 C   0  0  2  0  0  0
  -28.6958  -13.0364   20.9781 C   0  0  0  0  0  0
  -25.2523  -13.8168   20.5672 C   0  0  0  0  0  0
  -24.1803  -13.0425   20.9178 C   0  0  0  0  0  0
  -24.6384  -11.6901   20.8728 C   0  0  0  0  0  0
  -23.9061  -10.4285   21.0399 C   0  0  0  0  0  0
  -24.3614   -9.4204   21.9180 C   0  0  0  0  0  0
  -23.6290   -8.2241   22.0755 C   0  0  0  0  0  0
  -22.4274   -8.0274   21.3545 C   0  0  0  0  0  0
  -21.9906   -9.0248   20.4648 C   0  0  0  0  0  0
  -22.7232  -10.2126   20.3055 C   0  0  0  0  0  0
  -21.6852   -6.0728   22.5275 C   0  0  0  0  0  0
  -21.4013   -6.5633   23.8209 C   0  0  0  0  0  0
  -21.3664   -5.6788   24.9172 C   0  0  0  0  0  0
  -21.6047   -4.3050   24.7224 C   0  0  0  0  0  0
  -21.8819   -3.8140   23.4346 C   0  0  0  0  0  0
  -21.9191   -4.6956   22.3400 C   0  0  0  0  0  0
  -22.7829  -13.5218   21.1845 C   0  0  0  0  0  0
  -22.1662   -4.2141   21.0978 F   0  0  0  0  0  0
  -21.5630   -3.4536   25.7738 F   0  0  0  0  0  0
  -29.9837  -13.5113   20.4357 N   0  0  0  0  0  0
  -26.2956  -12.9357   20.3316 N   0  0  0  0  0  0
  -25.9312  -11.6505   20.5738 N   0  0  0  0  0  0
  -22.0485  -12.8219   22.0419 N   0  0  0  0  0  0
  -25.4199  -15.1894   20.4095 N   0  0  0  0  0  0
  -31.7665  -14.8279   20.0979 O   0  0  0  0  0  0
  -21.6639   -6.8873   21.4239 O   0  0  0  0  0  0
  -22.3508  -14.5521   20.6694 O   0  0  0  0  0  0
  -24.6304  -31.8550   23.1977 C   0  0  0  0  0  0
  -25.9127  -32.4756   23.8328 C   0  0  1  0  0  0
  -27.2276  -27.2742   20.1334 C   0  0  0  0  0  0
  -25.5931  -33.8560   24.2248 N   0  0  0  0  0  0
  -23.4273  -30.4751   21.5418 C   0  0  2  0  0  0
  -24.8757  -28.9163   20.1162 C   0  0  0  0  0  0
  -22.7497  -29.4599   22.4931 C   0  0  0  0  0  0
  -18.0291  -28.1379   22.8488 C   0  0  0  0  0  0
  -24.1488  -36.7288   23.2641 C   0  0  0  0  0  0
  -25.9717  -30.7706   21.3760 C   0  0  0  0  0  0
  -26.0465  -29.3927   20.7208 C   0  0  0  0  0  0
  -27.2281  -28.5861   20.7134 C   0  0  0  0  0  0
  -26.0363  -26.8554   19.5070 C   0  0  0  0  0  0
  -24.8740  -27.6537   19.4995 C   0  0  0  0  0  0
  -23.6454  -29.8026   20.1605 C   0  0  0  0  0  0
  -25.4115  -36.3072   24.0322 C   0  0  1  0  0  0
  -20.5894  -28.3693   23.1273 C   0  0  2  0  0  0
  -20.6777  -26.9411   22.5410 C   0  0  0  0  0  0
  -19.5749  -26.6373   21.5219 C   0  0  0  0  0  0
  -18.1928  -26.7925   22.1624 C   0  0  0  0  0  0
  -19.1546  -28.8854   23.2871 C   0  0  0  0  0  0
  -18.9469  -30.1459   23.8880 C   0  0  0  0  0  0
  -17.6469  -30.6586   24.0557 C   0  0  0  0  0  0
  -25.9055  -34.9442   23.5088 C   0  0  0  0  0  0
  -16.5357  -29.9082   23.6331 C   0  0  0  0  0  0
  -16.7280  -28.6499   23.0357 C   0  0  0  0  0  0
  -26.4496  -31.6591   25.0725 C   0  0  0  0  0  0
  -25.3711  -31.3745   26.1440 C   0  0  0  0  0  0
  -27.0361  -30.3013   24.6220 C   0  0  0  0  0  0
  -27.6039  -32.4352   25.7497 C   0  0  0  0  0  0
  -27.5580  -37.1794   24.8463 C   0  0  0  0  0  0
  -21.4209  -29.3043   22.3672 N   0  0  0  0  0  0
  -26.4290  -37.3770   23.9408 N   0  0  0  0  0  0
  -24.6953  -31.0517   22.0950 N   0  0  0  0  0  0
  -23.4197  -28.8138   23.3033 O   0  0  0  0  0  0
  -28.3346  -26.4015   20.1290 O   0  0  0  0  0  0
  -26.5633  -34.8919   22.4662 O   0  0  0  0  0  0
  -23.5454  -32.1376   23.7271 O   0  0  0  0  0  0
  -31.6928  -17.6954   20.9081 C   0  0  0  0  0  0
  -32.1264  -19.0330   20.8452 C   0  0  0  0  0  0
  -30.3461  -17.3390   20.6736 C   0  0  0  0  0  0
  -29.8648  -19.8599   20.3372 C   0  0  0  0  0  0
  -31.2462  -20.0977   20.5678 C   0  0  0  0  0  0
  -29.4474  -18.4567   20.3738 C   0  0  0  0  0  0
  -28.9641  -15.8646   22.0374 C   0  0  0  0  0  0
  -28.7274  -23.6805   19.9119 C   0  0  0  0  0  0
  -28.8297  -22.2852   20.7371 C   0  0  0  0  0  0
  -28.1748  -25.0073   20.6633 C   0  0  0  0  0  0
  -28.9702  -20.9616   20.0037 N   0  0  0  0  0  0
  -29.9296  -15.9227   20.9333 N   0  0  0  0  0  0
  -31.9400  -21.6806   20.4574 Cl  0  0  0  0  0  0
  -27.7846  -18.1139   20.0316 Cl  0  0  0  0  0  0
  -31.4754  -12.6335   19.1399 H   0  0  0  0  0  0
  -30.4305  -11.4882   19.9041 H   0  0  0  0  0  0
  -29.7918  -11.7778   17.5012 H   0  0  0  0  0  0
  -29.6337  -13.5015   17.7230 H   0  0  0  0  0  0
  -27.8704  -11.3086   18.8512 H   0  0  0  0  0  0
  -27.3764  -12.6001   17.7881 H   0  0  0  0  0  0
  -27.6705  -14.2647   19.5471 H   0  0  0  0  0  0
  -28.7623  -11.9791   21.2377 H   0  0  0  0  0  0
  -28.3868  -13.4835   21.9142 H   0  0  0  0  0  0
  -25.2759   -9.5677   22.4753 H   0  0  0  0  0  0
  -23.9995   -7.4634   22.7480 H   0  0  0  0  0  0
  -21.0834   -8.8768   19.8958 H   0  0  0  0  0  0
  -22.3691  -10.9665   19.6164 H   0  0  0  0  0  0
  -21.2009   -7.6143   23.9707 H   0  0  0  0  0  0
  -21.1488   -6.0520   25.9074 H   0  0  0  0  0  0
  -22.0596   -2.7603   23.2847 H   0  0  0  0  0  0
  -22.4107  -11.9888   22.4814 H   0  0  0  0  0  0
  -21.1108  -13.1249   22.2637 H   0  0  0  0  0  0
  -24.6532  -15.8414   20.5325 H   0  0  0  0  0  0
  -26.2770  -15.6400   20.1150 H   0  0  0  0  0  0
  -26.7200  -32.5402   23.1074 H   0  0  0  0  0  0
  -25.0077  -33.9699   25.0394 H   0  0  0  0  0  0
  -22.7232  -31.2963   21.3924 H   0  0  0  0  0  0
  -23.3753  -35.9617   23.3297 H   0  0  0  0  0  0
  -24.3575  -36.8927   22.2059 H   0  0  0  0  0  0
  -23.7240  -37.6483   23.6680 H   0  0  0  0  0  0
  -26.1099  -31.5298   20.6055 H   0  0  0  0  0  0
  -26.8488  -30.8202   22.0095 H   0  0  0  0  0  0
  -28.1291  -28.9493   21.1880 H   0  0  0  0  0  0
  -26.0010  -25.8880   19.0257 H   0  0  0  0  0  0
  -23.9775  -27.2808   19.0231 H   0  0  0  0  0  0
  -23.7693  -30.5757   19.4010 H   0  0  0  0  0  0
  -22.7642  -29.2340   19.8587 H   0  0  0  0  0  0
  -25.1297  -36.1919   25.0814 H   0  0  0  0  0  0
  -20.9982  -28.3270   24.1396 H   0  0  0  0  0  0
  -20.5686  -26.2305   23.3616 H   0  0  0  0  0  0
  -21.6644  -26.7433   22.1200 H   0  0  0  0  0  0
  -19.6909  -25.6280   21.1261 H   0  0  0  0  0  0
  -19.6687  -27.3169   20.6738 H   0  0  0  0  0  0
  -17.4204  -26.6688   21.4019 H   0  0  0  0  0  0
  -18.0311  -26.0058   22.9010 H   0  0  0  0  0  0
  -19.7946  -30.7281   24.2233 H   0  0  0  0  0  0
  -17.5025  -31.6267   24.5159 H   0  0  0  0  0  0
  -15.5359  -30.2982   23.7660 H   0  0  0  0  0  0
  -15.8680  -28.0817   22.7074 H   0  0  0  0  0  0
  -24.5883  -30.7100   25.7767 H   0  0  0  0  0  0
  -24.8900  -32.2918   26.4848 H   0  0  0  0  0  0
  -25.8014  -30.8933   27.0231 H   0  0  0  0  0  0
  -26.2960  -29.6744   24.1230 H   0  0  0  0  0  0
  -27.4043  -29.7289   25.4745 H   0  0  0  0  0  0
  -27.8830  -30.4301   23.9473 H   0  0  0  0  0  0
  -27.2638  -33.3663   26.2041 H   0  0  0  0  0  0
  -28.3856  -32.6903   25.0330 H   0  0  0  0  0  0
  -28.0701  -31.8507   26.5439 H   0  0  0  0  0  0
  -28.2586  -38.0103   24.7525 H   0  0  0  0  0  0
  -28.1092  -36.2636   24.6276 H   0  0  0  0  0  0
  -27.2302  -37.1428   25.8866 H   0  0  0  0  0  0
  -20.9397  -29.8788   21.6893 H   0  0  0  0  0  0
  -26.0172  -38.2844   24.1411 H   0  0  0  0  0  0
  -32.4217  -16.9469   21.1807 H   0  0  0  0  0  0
  -33.1696  -19.2512   21.0217 H   0  0  0  0  0  0
  -28.8589  -16.8255   22.5435 H   0  0  0  0  0  0
  -29.2905  -15.1747   22.8173 H   0  0  0  0  0  0
  -27.9693  -15.5978   21.6836 H   0  0  0  0  0  0
  -28.0995  -23.5202   19.0355 H   0  0  0  0  0  0
  -29.7194  -23.9033   19.5178 H   0  0  0  0  0  0
  -27.9070  -22.1952   21.3121 H   0  0  0  0  0  0
  -29.6058  -22.3758   21.4970 H   0  0  0  0  0  0
  -28.6672  -25.0341   21.6354 H   0  0  0  0  0  0
  -27.1266  -24.8297   20.9061 H   0  0  0  0  0  0
  -28.0745  -20.6057   19.6798 H   0  0  0  0  0  0
  1 25  1  0  0  0
  1 30  2  0  0  0
  1 82  1  0  0  0
  2  3  1  0  0  0
  2 25  1  0  0  0
  2 85  1  0  0  0
  2 86  1  0  0  0
  3  4  1  0  0  0
  3 87  1  0  0  0
  3 88  1  0  0  0
  4  5  1  0  0  0
  4 89  1  0  0  0
  4 90  1  0  0  0
  5  6  1  0  0  0
  5 26  1  0  0  0
  5 91  1  0  0  0
  6 25  1  0  0  0
  6 92  1  0  0  0
  6 93  1  0  0  0
  7  8  2  0  0  0
  7 26  1  0  0  0
  7 29  1  0  0  0
  8  9  1  0  0  0
  8 22  1  0  0  0
  9 10  1  0  0  0
  9 27  2  0  0  0
 10 11  2  0  0  0
 10 15  1  0  0  0
 11 12  1  0  0  0
 11 94  1  0  0  0
 12 13  2  0  0  0
 12 95  1  0  0  0
 13 14  1  0  0  0
 13 31  1  0  0  0
 14 15  2  0  0  0
 14 96  1  0  0  0
 15 97  1  0  0  0
 16 17  2  0  0  0
 16 21  1  0  0  0
 16 31  1  0  0  0
 17 18  1  0  0  0
 17 98  1  0  0  0
 18 19  2  0  0  0
 18 99  1  0  0  0
 19 20  1  0  0  0
 19 24  1  0  0  0
 20 21  2  0  0  0
 20100  1  0  0  0
 21 23  1  0  0  0
 22 28  1  0  0  0
 22 32  2  0  0  0
 26 27  1  0  0  0
 28101  1  0  0  0
 28102  1  0  0  0
 29103  1  0  0  0
 29104  1  0  0  0
 33 34  1  0  0  0
 33 66  1  0  0  0
 33 70  2  0  0  0
 34 36  1  0  0  0
 34 59  1  0  0  0
 34105  1  0  0  0
 35 44  2  0  0  0
 35 45  1  0  0  0
 35 68  1  0  0  0
 36 56  1  0  0  0
 36106  1  0  0  0
 37 39  1  0  0  0
 37 47  1  0  0  0
 37 66  1  0  0  0
 37107  1  0  0  0
 38 43  2  0  0  0
 38 46  1  0  0  0
 38 47  1  0  0  0
 39 64  1  0  0  0
 39 67  2  0  0  0
 40 52  1  0  0  0
 40 53  2  0  0  0
 40 58  1  0  0  0
 41108  1  0  0  0
 41109  1  0  0  0
 41110  1  0  0  0
 41 48  1  0  0  0
 42 43  1  0  0  0
 42 66  1  0  0  0
 42111  1  0  0  0
 42112  1  0  0  0
 43 44  1  0  0  0
 44113  1  0  0  0
 45 46  2  0  0  0
 45114  1  0  0  0
 46115  1  0  0  0
 47116  1  0  0  0
 47117  1  0  0  0
 48 56  1  0  0  0
 48 65  1  0  0  0
 48118  1  0  0  0
 49 50  1  0  0  0
 49 53  1  0  0  0
 49 64  1  0  0  0
 49119  1  0  0  0
 50 51  1  0  0  0
 50120  1  0  0  0
 50121  1  0  0  0
 51 52  1  0  0  0
 51122  1  0  0  0
 51123  1  0  0  0
 52124  1  0  0  0
 52125  1  0  0  0
 53 54  1  0  0  0
 54 55  2  0  0  0
 54126  1  0  0  0
 55 57  1  0  0  0
 55127  1  0  0  0
 56 69  2  0  0  0
 57 58  2  0  0  0
 57128  1  0  0  0
 58129  1  0  0  0
 59 60  1  0  0  0
 59 61  1  0  0  0
 59 62  1  0  0  0
 60130  1  0  0  0
 60131  1  0  0  0
 60132  1  0  0  0
 61133  1  0  0  0
 61134  1  0  0  0
 61135  1  0  0  0
 62136  1  0  0  0
 62137  1  0  0  0
 62138  1  0  0  0
 63 65  1  0  0  0
 63139  1  0  0  0
 63140  1  0  0  0
 63141  1  0  0  0
 64142  1  0  0  0
 65143  1  0  0  0
 68 80  1  0  0  0
 71 72  2  0  0  0
 71 73  1  0  0  0
 71144  1  0  0  0
 72 75  1  0  0  0
 72145  1  0  0  0
 73 76  2  0  0  0
 73 82  1  0  0  0
 74 75  2  0  0  0
 74 76  1  0  0  0
 74 81  1  0  0  0
 75 83  1  0  0  0
 76 84  1  0  0  0
 77 82  1  0  0  0
 77146  1  0  0  0
 77147  1  0  0  0
 77148  1  0  0  0
 78 79  1  0  0  0
 78 80  1  0  0  0
 78149  1  0  0  0
 78150  1  0  0  0
 79 81  1  0  0  0
 79151  1  0  0  0
 79152  1  0  0  0
 80153  1  0  0  0
 80154  1  0  0  0
 81155  1  0  0  0
M  ISO  4   1 100  68 101  80 101  82 100
M  END
> <chiral flag>
0

> <version>
0

> <s_m_source_file>
/data/baiqing/PycharmProjects/Reinvent-master-3.2/result/LINK_invent/BTK/process_docking_weight1_custom_product_contain_oxygen_bond_distance_aromatic_linkinvent_7_9_3/rearranged_h_0025.sdf

> <i_m_source_file_index>
24

> <r_mmod_Potential_Energy-OPLS-2005>
433.895965576172

> <r_mmod_Stretch_Energy-OPLS-2005>
138.856460571289

> <r_mmod_Bend_Energy-OPLS-2005>
194.141525268555

> <r_mmod_Torsional_Energy-OPLS-2005>
305.974639892578

> <r_mmod_Improper_Torsional_Energy-OPLS-2005>
9.73151016235352

> <r_mmod_Van_der_Waal_Energy-OPLS-2005>
154.154815673828

> <r_mmod_Electrostatic_Energy-OPLS-2005>
-247.931869506836

> <r_mmod_Solvation_Energy-OPLS-2005>
-193.334030151367

> <b_mmod_Minimization_Converged-OPLS-2005>
0

> <r_mmod_RMS_Derivative-OPLS-2005>
0.770945012569427

$$$$
24
                    3D
 Structure written by MMmdl.
161170  0  0  1  0            999 V2000
  -30.7036  -14.4312   20.5744 C   0  0  0  0  0  0
  -30.4240  -12.2812   19.4168 C   0  0  0  0  0  0
  -29.4978  -12.5188   18.2065 C   0  0  0  0  0  0
  -28.0165  -12.3837   18.6130 C   0  0  0  0  0  0
  -27.6691  -13.2044   19.8844 C   0  0  2  0  0  0
  -28.7083  -12.9493   21.0007 C   0  0  0  0  0  0
  -25.2625  -13.8172   20.5683 C   0  0  0  0  0  0
  -24.1866  -13.0450   20.9161 C   0  0  0  0  0  0
  -24.6409  -11.6917   20.8729 C   0  0  0  0  0  0
  -23.9066  -10.4307   21.0403 C   0  0  0  0  0  0
  -24.3624   -9.4224   21.9171 C   0  0  0  0  0  0
  -23.6308   -8.2252   22.0752 C   0  0  0  0  0  0
  -22.4276   -8.0297   21.3551 C   0  0  0  0  0  0
  -21.9909   -9.0258   20.4646 C   0  0  0  0  0  0
  -22.7238  -10.2146   20.3048 C   0  0  0  0  0  0
  -21.6863   -6.0740   22.5285 C   0  0  0  0  0  0
  -21.4012   -6.5637   23.8216 C   0  0  0  0  0  0
  -21.3662   -5.6789   24.9180 C   0  0  0  0  0  0
  -21.6052   -4.3057   24.7221 C   0  0  0  0  0  0
  -21.8819   -3.8147   23.4340 C   0  0  0  0  0  0
  -21.9192   -4.6969   22.3400 C   0  0  0  0  0  0
  -22.7882  -13.5239   21.1832 C   0  0  0  0  0  0
  -22.1657   -4.2156   21.0979 F   0  0  0  0  0  0
  -21.5637   -3.4534   25.7725 F   0  0  0  0  0  0
  -30.0492  -13.2459   20.4613 N   0  0  0  0  0  0
  -26.3066  -12.9332   20.3400 N   0  0  0  0  0  0
  -25.9334  -11.6491   20.5769 N   0  0  0  0  0  0
  -22.0523  -12.8237   22.0395 N   0  0  0  0  0  0
  -25.4361  -15.1887   20.4091 N   0  0  0  0  0  0
  -31.8090  -14.6449   20.0673 O   0  0  0  0  0  0
  -21.6645   -6.8887   21.4244 O   0  0  0  0  0  0
  -22.3550  -14.5543   20.6683 O   0  0  0  0  0  0
  -24.6114  -31.8703   23.2087 C   0  0  0  0  0  0
  -25.8998  -32.4846   23.8399 C   0  0  1  0  0  0
  -27.2358  -27.4617   20.0964 C   0  0  0  0  0  0
  -25.5833  -33.8637   24.2324 N   0  0  0  0  0  0
  -23.3996  -30.4919   21.5496 C   0  0  2  0  0  0
  -24.8478  -28.9610   20.1131 C   0  0  0  0  0  0
  -22.7407  -29.4658   22.4998 C   0  0  0  0  0  0
  -18.0270  -28.1371   22.8504 C   0  0  0  0  0  0
  -24.1475  -36.7340   23.2641 C   0  0  0  0  0  0
  -25.9248  -30.8493   21.3527 C   0  0  0  0  0  0
  -26.0069  -29.4833   20.7025 C   0  0  0  0  0  0
  -27.2092  -28.7427   20.6864 C   0  0  0  0  0  0
  -26.0665  -26.9494   19.4973 C   0  0  0  0  0  0
  -24.8705  -27.6916   19.5074 C   0  0  0  0  0  0
  -23.6071  -29.8224   20.1643 C   0  0  0  0  0  0
  -25.4094  -36.3140   24.0348 C   0  0  1  0  0  0
  -20.5856  -28.3648   23.1333 C   0  0  2  0  0  0
  -20.6741  -26.9387   22.5423 C   0  0  0  0  0  0
  -19.5718  -26.6379   21.5216 C   0  0  0  0  0  0
  -18.1904  -26.7917   22.1639 C   0  0  0  0  0  0
  -19.1522  -28.8828   23.2916 C   0  0  0  0  0  0
  -18.9452  -30.1429   23.8935 C   0  0  0  0  0  0
  -17.6456  -30.6585   24.0562 C   0  0  0  0  0  0
  -25.9027  -34.9500   23.5151 C   0  0  0  0  0  0
  -16.5346  -29.9096   23.6307 C   0  0  0  0  0  0
  -16.7262  -28.6500   23.0352 C   0  0  0  0  0  0
  -26.4407  -31.6618   25.0725 C   0  0  0  0  0  0
  -25.3661  -31.3730   26.1469 C   0  0  0  0  0  0
  -27.0213  -30.3069   24.6052 C   0  0  0  0  0  0
  -27.6004  -32.4310   25.7479 C   0  0  0  0  0  0
  -27.5584  -37.1819   24.8468 C   0  0  0  0  0  0
  -21.4137  -29.3026   22.3748 N   0  0  0  0  0  0
  -26.4292  -37.3817   23.9418 N   0  0  0  0  0  0
  -24.6642  -31.0823   22.0974 N   0  0  0  0  0  0
  -23.4198  -28.8204   23.3029 O   0  0  0  0  0  0
  -28.3796  -26.7009   20.1163 O   0  0  0  0  0  0
  -26.5628  -34.8944   22.4739 O   0  0  0  0  0  0
  -23.5310  -32.1424   23.7498 O   0  0  0  0  0  0
  -29.9646  -18.5615   19.1608 C   0  0  0  0  0  0
  -30.2998  -17.2559   19.5682 C   0  0  0  0  0  0
  -28.7528  -18.9076   21.2392 C   0  0  0  0  0  0
  -29.1681  -19.3889   19.9800 C   0  0  0  0  0  0
  -29.8377  -16.7471   20.8089 C   0  0  0  0  0  0
  -29.0722  -17.5933   21.6465 C   0  0  0  0  0  0
  -28.4764  -22.9997   20.4219 C   0  0  0  0  0  0
  -31.2578  -22.9673   21.1526 C   0  0  0  0  0  0
  -30.5135  -24.3130   21.2846 C   0  0  0  0  0  0
  -30.7183  -22.0808   20.0136 C   0  0  0  0  0  0
  -29.1745  -24.3827   20.5114 C   0  0  2  0  0  0
  -28.6857  -20.7373   19.4485 C   0  0  0  0  0  0
  -28.2788  -25.5628   20.9856 C   0  0  0  0  0  0
  -29.2552  -21.9466   20.0686 N   0  0  0  0  0  0
  -30.0243  -15.3920   21.2164 N   0  0  0  0  0  0
  -27.2554  -22.8979   20.5786 O   0  0  0  0  0  0
  -28.4810  -17.0109   23.1636 Cl  0  0  0  0  0  0
  -31.4699  -12.3716   19.1181 H   0  0  0  0  0  0
  -30.3102  -11.2619   19.7885 H   0  0  0  0  0  0
  -29.7315  -11.8145   17.4069 H   0  0  0  0  0  0
  -29.6763  -13.5150   17.7998 H   0  0  0  0  0  0
  -27.8161  -11.3256   18.7884 H   0  0  0  0  0  0
  -27.3709  -12.6818   17.7859 H   0  0  0  0  0  0
  -27.7228  -14.2586   19.6124 H   0  0  0  0  0  0
  -28.6712  -11.9070   21.3176 H   0  0  0  0  0  0
  -28.4701  -13.5285   21.8941 H   0  0  0  0  0  0
  -25.2769   -9.5700   22.4740 H   0  0  0  0  0  0
  -24.0028   -7.4638   22.7459 H   0  0  0  0  0  0
  -21.0840   -8.8769   19.8944 H   0  0  0  0  0  0
  -22.3690  -10.9679   19.6161 H   0  0  0  0  0  0
  -21.1998   -7.6147   23.9722 H   0  0  0  0  0  0
  -21.1490   -6.0520   25.9086 H   0  0  0  0  0  0
  -22.0596   -2.7612   23.2836 H   0  0  0  0  0  0
  -22.4107  -11.9891   22.4800 H   0  0  0  0  0  0
  -21.1143  -13.1281   22.2589 H   0  0  0  0  0  0
  -24.6761  -15.8490   20.5276 H   0  0  0  0  0  0
  -26.2972  -15.6284   20.1106 H   0  0  0  0  0  0
  -26.7093  -32.5571   23.1199 H   0  0  0  0  0  0
  -24.9860  -33.9791   25.0379 H   0  0  0  0  0  0
  -22.6871  -31.3075   21.4104 H   0  0  0  0  0  0
  -23.3735  -35.9677   23.3311 H   0  0  0  0  0  0
  -24.3581  -36.8945   22.2059 H   0  0  0  0  0  0
  -23.7222  -37.6545   23.6646 H   0  0  0  0  0  0
  -26.0223  -31.6133   20.5793 H   0  0  0  0  0  0
  -26.8189  -30.9144   21.9617 H   0  0  0  0  0  0
  -28.1068  -29.1424   21.1384 H   0  0  0  0  0  0
  -26.0792  -25.9717   19.0377 H   0  0  0  0  0  0
  -23.9793  -27.2812   19.0548 H   0  0  0  0  0  0
  -23.7135  -30.5974   19.4047 H   0  0  0  0  0  0
  -22.7324  -29.2402   19.8696 H   0  0  0  0  0  0
  -25.1266  -36.2020   25.0843 H   0  0  0  0  0  0
  -20.9955  -28.3194   24.1448 H   0  0  0  0  0  0
  -20.5601  -26.2268   23.3608 H   0  0  0  0  0  0
  -21.6614  -26.7392   22.1236 H   0  0  0  0  0  0
  -19.6864  -25.6291   21.1236 H   0  0  0  0  0  0
  -19.6647  -27.3200   20.6752 H   0  0  0  0  0  0
  -17.4161  -26.6666   21.4052 H   0  0  0  0  0  0
  -18.0313  -26.0055   22.9035 H   0  0  0  0  0  0
  -19.7932  -30.7224   24.2334 H   0  0  0  0  0  0
  -17.5018  -31.6273   24.5150 H   0  0  0  0  0  0
  -15.5349  -30.3022   23.7589 H   0  0  0  0  0  0
  -15.8660  -28.0825   22.7063 H   0  0  0  0  0  0
  -24.5844  -30.7060   25.7811 H   0  0  0  0  0  0
  -24.8815  -32.2885   26.4884 H   0  0  0  0  0  0
  -25.7990  -30.8929   27.0255 H   0  0  0  0  0  0
  -26.2761  -29.6903   24.1008 H   0  0  0  0  0  0
  -27.3911  -29.7225   25.4488 H   0  0  0  0  0  0
  -27.8620  -30.4420   23.9240 H   0  0  0  0  0  0
  -27.2653  -33.3616   26.2069 H   0  0  0  0  0  0
  -28.3795  -32.6852   25.0282 H   0  0  0  0  0  0
  -28.0678  -31.8410   26.5372 H   0  0  0  0  0  0
  -28.2612  -38.0107   24.7520 H   0  0  0  0  0  0
  -28.1068  -36.2646   24.6280 H   0  0  0  0  0  0
  -27.2318  -37.1461   25.8875 H   0  0  0  0  0  0
  -20.9293  -29.8781   21.7000 H   0  0  0  0  0  0
  -26.0195  -38.2904   24.1406 H   0  0  0  0  0  0
  -30.2871  -18.9102   18.1896 H   0  0  0  0  0  0
  -30.8694  -16.6462   18.8815 H   0  0  0  0  0  0
  -28.1425  -19.5270   21.8798 H   0  0  0  0  0  0
  -31.1615  -22.4185   22.0912 H   0  0  0  0  0  0
  -32.3262  -23.1405   21.0193 H   0  0  0  0  0  0
  -31.1568  -25.1176   20.9255 H   0  0  0  0  0  0
  -30.3513  -24.5150   22.3451 H   0  0  0  0  0  0
  -31.2009  -21.1047   20.0734 H   0  0  0  0  0  0
  -30.9917  -22.4991   19.0439 H   0  0  0  0  0  0
  -29.4212  -24.5878   19.4684 H   0  0  0  0  0  0
  -27.5956  -20.7255   19.5053 H   0  0  0  0  0  0
  -28.9040  -20.7989   18.3820 H   0  0  0  0  0  0
  -28.5751  -25.8878   21.9824 H   0  0  0  0  0  0
  -27.2412  -25.2516   21.1033 H   0  0  0  0  0  0
  -29.3118  -15.0569   21.8470 H   0  0  0  0  0  0
  1 25  1  0  0  0
  1 30  2  0  0  0
  1 85  1  0  0  0
  2  3  1  0  0  0
  2 25  1  0  0  0
  2 88  1  0  0  0
  2 89  1  0  0  0
  3  4  1  0  0  0
  3 90  1  0  0  0
  3 91  1  0  0  0
  4  5  1  0  0  0
  4 92  1  0  0  0
  4 93  1  0  0  0
  5  6  1  0  0  0
  5 26  1  0  0  0
  5 94  1  0  0  0
  6 25  1  0  0  0
  6 95  1  0  0  0
  6 96  1  0  0  0
  7  8  2  0  0  0
  7 26  1  0  0  0
  7 29  1  0  0  0
  8  9  1  0  0  0
  8 22  1  0  0  0
  9 10  1  0  0  0
  9 27  2  0  0  0
 10 11  2  0  0  0
 10 15  1  0  0  0
 11 12  1  0  0  0
 11 97  1  0  0  0
 12 13  2  0  0  0
 12 98  1  0  0  0
 13 14  1  0  0  0
 13 31  1  0  0  0
 14 15  2  0  0  0
 14 99  1  0  0  0
 15100  1  0  0  0
 16 17  2  0  0  0
 16 21  1  0  0  0
 16 31  1  0  0  0
 17 18  1  0  0  0
 17101  1  0  0  0
 18 19  2  0  0  0
 18102  1  0  0  0
 19 20  1  0  0  0
 19 24  1  0  0  0
 20 21  2  0  0  0
 20103  1  0  0  0
 21 23  1  0  0  0
 22 28  1  0  0  0
 22 32  2  0  0  0
 26 27  1  0  0  0
 28104  1  0  0  0
 28105  1  0  0  0
 29106  1  0  0  0
 29107  1  0  0  0
 33 34  1  0  0  0
 33 66  1  0  0  0
 33 70  2  0  0  0
 34 36  1  0  0  0
 34 59  1  0  0  0
 34108  1  0  0  0
 35 44  2  0  0  0
 35 45  1  0  0  0
 35 68  1  0  0  0
 36 56  1  0  0  0
 36109  1  0  0  0
 37 39  1  0  0  0
 37 47  1  0  0  0
 37 66  1  0  0  0
 37110  1  0  0  0
 38 43  2  0  0  0
 38 46  1  0  0  0
 38 47  1  0  0  0
 39 64  1  0  0  0
 39 67  2  0  0  0
 40 52  1  0  0  0
 40 53  2  0  0  0
 40 58  1  0  0  0
 41111  1  0  0  0
 41112  1  0  0  0
 41113  1  0  0  0
 41 48  1  0  0  0
 42 43  1  0  0  0
 42 66  1  0  0  0
 42114  1  0  0  0
 42115  1  0  0  0
 43 44  1  0  0  0
 44116  1  0  0  0
 45 46  2  0  0  0
 45117  1  0  0  0
 46118  1  0  0  0
 47119  1  0  0  0
 47120  1  0  0  0
 48 56  1  0  0  0
 48 65  1  0  0  0
 48121  1  0  0  0
 49 50  1  0  0  0
 49 53  1  0  0  0
 49 64  1  0  0  0
 49122  1  0  0  0
 50 51  1  0  0  0
 50123  1  0  0  0
 50124  1  0  0  0
 51 52  1  0  0  0
 51125  1  0  0  0
 51126  1  0  0  0
 52127  1  0  0  0
 52128  1  0  0  0
 53 54  1  0  0  0
 54 55  2  0  0  0
 54129  1  0  0  0
 55 57  1  0  0  0
 55130  1  0  0  0
 56 69  2  0  0  0
 57 58  2  0  0  0
 57131  1  0  0  0
 58132  1  0  0  0
 59 60  1  0  0  0
 59 61  1  0  0  0
 59 62  1  0  0  0
 60133  1  0  0  0
 60134  1  0  0  0
 60135  1  0  0  0
 61136  1  0  0  0
 61137  1  0  0  0
 61138  1  0  0  0
 62139  1  0  0  0
 62140  1  0  0  0
 62141  1  0  0  0
 63 65  1  0  0  0
 63142  1  0  0  0
 63143  1  0  0  0
 63144  1  0  0  0
 64145  1  0  0  0
 65146  1  0  0  0
 68 83  1  0  0  0
 71 72  2  0  0  0
 71 74  1  0  0  0
 71147  1  0  0  0
 72 75  1  0  0  0
 72148  1  0  0  0
 73 74  2  0  0  0
 73 76  1  0  0  0
 73149  1  0  0  0
 74 82  1  0  0  0
 75 76  2  0  0  0
 75 85  1  0  0  0
 76 87  1  0  0  0
 77 81  1  0  0  0
 77 84  1  0  0  0
 77 86  2  0  0  0
 78 79  1  0  0  0
 78 80  1  0  0  0
 78150  1  0  0  0
 78151  1  0  0  0
 79 81  1  0  0  0
 79152  1  0  0  0
 79153  1  0  0  0
 80 84  1  0  0  0
 80154  1  0  0  0
 80155  1  0  0  0
 81 83  1  0  0  0
 81156  1  0  0  0
 82 84  1  0  0  0
 82157  1  0  0  0
 82158  1  0  0  0
 83159  1  0  0  0
 83160  1  0  0  0
 85161  1  0  0  0
M  ISO  4   1 100  68 101  83 101  85 100
M  END
> <chiral flag>
0

> <version>
0

> <s_m_source_file>
/data/baiqing/PycharmProjects/Reinvent-master-3.2/result/LINK_invent/BTK/process_docking_weight1_custom_product_contain_oxygen_bond_distance_aromatic_linkinvent_7_9_3/rearranged_h_0025.sdf

> <i_m_source_file_index>
25

> <r_mmod_Potential_Energy-OPLS-2005>
6.8109130859375

> <r_mmod_Stretch_Energy-OPLS-2005>
38.5469932556152

> <r_mmod_Bend_Energy-OPLS-2005>
97.1420364379883

> <r_mmod_Torsional_Energy-OPLS-2005>
292.924194335938

> <r_mmod_Improper_Torsional_Energy-OPLS-2005>
5.55609607696533

> <r_mmod_Van_der_Waal_Energy-OPLS-2005>
171.209716796875

> <r_mmod_Electrostatic_Energy-OPLS-2005>
-393.747100830078

> <r_mmod_Solvation_Energy-OPLS-2005>
-214.450485229492

> <b_mmod_Minimization_Converged-OPLS-2005>
0

> <r_mmod_RMS_Derivative-OPLS-2005>
1.9455394744873

$$$$
25
                    3D
 Structure written by MMmdl.
158167  0  0  1  0            999 V2000
  -30.5986  -14.6471   20.5124 C   0  0  0  0  0  0
  -30.4437  -12.4004   19.4491 C   0  0  0  0  0  0
  -29.5085  -12.5191   18.2239 C   0  0  0  0  0  0
  -28.0312  -12.3531   18.6338 C   0  0  0  0  0  0
  -27.6548  -13.2141   19.8678 C   0  0  2  0  0  0
  -28.6986  -13.0495   20.9952 C   0  0  0  0  0  0
  -25.2563  -13.8162   20.5677 C   0  0  0  0  0  0
  -24.1820  -13.0438   20.9180 C   0  0  0  0  0  0
  -24.6387  -11.6906   20.8721 C   0  0  0  0  0  0
  -23.9060  -10.4290   21.0399 C   0  0  0  0  0  0
  -24.3612   -9.4210   21.9180 C   0  0  0  0  0  0
  -23.6285   -8.2247   22.0755 C   0  0  0  0  0  0
  -22.4268   -8.0277   21.3546 C   0  0  0  0  0  0
  -21.9900   -9.0250   20.4652 C   0  0  0  0  0  0
  -22.7230  -10.2129   20.3058 C   0  0  0  0  0  0
  -21.6855   -6.0727   22.5275 C   0  0  0  0  0  0
  -21.4013   -6.5629   23.8208 C   0  0  0  0  0  0
  -21.3661   -5.6786   24.9171 C   0  0  0  0  0  0
  -21.6045   -4.3049   24.7225 C   0  0  0  0  0  0
  -21.8819   -3.8139   23.4346 C   0  0  0  0  0  0
  -21.9199   -4.6955   22.3403 C   0  0  0  0  0  0
  -22.7848  -13.5240   21.1840 C   0  0  0  0  0  0
  -22.1668   -4.2140   21.0982 F   0  0  0  0  0  0
  -21.5639   -3.4537   25.7742 F   0  0  0  0  0  0
  -30.0150  -13.4073   20.4403 N   0  0  0  0  0  0
  -26.2990  -12.9339   20.3325 N   0  0  0  0  0  0
  -25.9313  -11.6497   20.5740 N   0  0  0  0  0  0
  -22.0490  -12.8238   22.0401 N   0  0  0  0  0  0
  -25.4286  -15.1884   20.4108 N   0  0  0  0  0  0
  -31.7442  -14.8468   20.0954 O   0  0  0  0  0  0
  -21.6641   -6.8867   21.4236 O   0  0  0  0  0  0
  -22.3537  -14.5558   20.6712 O   0  0  0  0  0  0
  -24.6266  -31.8583   23.2023 C   0  0  0  0  0  0
  -25.9123  -32.4764   23.8346 C   0  0  1  0  0  0
  -27.2277  -27.3153   20.1103 C   0  0  0  0  0  0
  -25.5946  -33.8564   24.2285 N   0  0  0  0  0  0
  -23.4191  -30.4821   21.5447 C   0  0  2  0  0  0
  -24.8634  -28.9305   20.1137 C   0  0  0  0  0  0
  -22.7472  -29.4615   22.4935 C   0  0  0  0  0  0
  -18.0288  -28.1380   22.8481 C   0  0  0  0  0  0
  -24.1491  -36.7276   23.2638 C   0  0  0  0  0  0
  -25.9598  -30.7866   21.3729 C   0  0  0  0  0  0
  -26.0310  -29.4133   20.7150 C   0  0  0  0  0  0
  -27.2116  -28.6155   20.7039 C   0  0  0  0  0  0
  -26.0305  -26.8743   19.5031 C   0  0  0  0  0  0
  -24.8642  -27.6657   19.5032 C   0  0  0  0  0  0
  -23.6342  -29.8154   20.1602 C   0  0  0  0  0  0
  -25.4114  -36.3071   24.0337 C   0  0  1  0  0  0
  -20.5886  -28.3684   23.1279 C   0  0  2  0  0  0
  -20.6775  -26.9406   22.5407 C   0  0  0  0  0  0
  -19.5761  -26.6384   21.5201 C   0  0  0  0  0  0
  -18.1937  -26.7927   22.1608 C   0  0  0  0  0  0
  -19.1540  -28.8850   23.2874 C   0  0  0  0  0  0
  -18.9465  -30.1452   23.8890 C   0  0  0  0  0  0
  -17.6466  -30.6581   24.0566 C   0  0  0  0  0  0
  -25.9057  -34.9444   23.5113 C   0  0  0  0  0  0
  -16.5356  -29.9082   23.6332 C   0  0  0  0  0  0
  -16.7277  -28.6501   23.0349 C   0  0  0  0  0  0
  -26.4517  -31.6566   25.0713 C   0  0  0  0  0  0
  -25.3767  -31.3687   26.1454 C   0  0  0  0  0  0
  -27.0364  -30.2995   24.6153 C   0  0  0  0  0  0
  -27.6083  -32.4293   25.7479 C   0  0  0  0  0  0
  -27.5582  -37.1792   24.8469 C   0  0  0  0  0  0
  -21.4184  -29.3035   22.3671 N   0  0  0  0  0  0
  -26.4288  -37.3768   23.9421 N   0  0  0  0  0  0
  -24.6871  -31.0594   22.0968 N   0  0  0  0  0  0
  -23.4199  -28.8162   23.3019 O   0  0  0  0  0  0
  -28.3834  -26.5206   20.1620 O   0  0  0  0  0  0
  -26.5605  -34.8915   22.4666 O   0  0  0  0  0  0
  -23.5431  -32.1386   23.7358 O   0  0  0  0  0  0
  -28.7835  -19.0822   19.6058 C   0  0  0  0  0  0
  -29.0960  -17.6871   19.6520 C   0  0  0  0  0  0
  -30.1638  -17.9994   21.7850 C   0  0  0  0  0  0
  -29.1226  -19.9702   20.6640 C   0  0  0  0  0  0
  -29.7713  -17.1007   20.7573 C   0  0  0  0  0  0
  -29.8514  -19.3937   21.7444 C   0  0  0  0  0  0
  -29.0013  -22.4911   20.2480 C   0  0  0  0  0  0
  -26.8710  -22.5973   22.2084 C   0  0  0  0  0  0
  -26.9660  -23.7730   21.2393 C   0  0  0  0  0  0
  -27.2225  -21.2911   21.4838 C   0  0  0  0  0  0
  -28.3886  -23.9079   20.6752 C   0  0  2  0  0  0
  -28.4675  -25.1301   19.6496 C   0  0  0  0  0  0
  -28.5169  -21.3060   20.7801 N   0  0  0  0  0  0
  -29.7844  -15.6523   20.9650 N   0  0  0  0  0  0
  -29.9548  -22.4847   19.4632 O   0  0  0  0  0  0
  -30.2771  -20.3689   23.1073 Cl  0  0  0  0  0  0
  -31.4830  -12.5389   19.1452 H   0  0  0  0  0  0
  -30.3889  -11.3996   19.8806 H   0  0  0  0  0  0
  -29.7725  -11.7757   17.4706 H   0  0  0  0  0  0
  -29.6479  -13.4931   17.7512 H   0  0  0  0  0  0
  -27.8632  -11.2982   18.8532 H   0  0  0  0  0  0
  -27.3797  -12.5959   17.7940 H   0  0  0  0  0  0
  -27.6789  -14.2523   19.5368 H   0  0  0  0  0  0
  -28.7113  -12.0200   21.3556 H   0  0  0  0  0  0
  -28.4374  -13.6579   21.8622 H   0  0  0  0  0  0
  -25.2757   -9.5692   22.4756 H   0  0  0  0  0  0
  -23.9994   -7.4641   22.7477 H   0  0  0  0  0  0
  -21.0830   -8.8765   19.8962 H   0  0  0  0  0  0
  -22.3678  -10.9666   19.6169 H   0  0  0  0  0  0
  -21.1991   -7.6134   23.9704 H   0  0  0  0  0  0
  -21.1490   -6.0518   25.9074 H   0  0  0  0  0  0
  -22.0598   -2.7601   23.2850 H   0  0  0  0  0  0
  -22.4105  -11.9898   22.4786 H   0  0  0  0  0  0
  -21.1118  -13.1279   22.2623 H   0  0  0  0  0  0
  -24.6637  -15.8436   20.5288 H   0  0  0  0  0  0
  -26.2805  -15.6301   20.0903 H   0  0  0  0  0  0
  -26.7183  -32.5437   23.1083 H   0  0  0  0  0  0
  -25.0141  -33.9698   25.0465 H   0  0  0  0  0  0
  -22.7128  -31.3028   21.4015 H   0  0  0  0  0  0
  -23.3761  -35.9601   23.3297 H   0  0  0  0  0  0
  -24.3579  -36.8893   22.2052 H   0  0  0  0  0  0
  -23.7237  -37.6476   23.6657 H   0  0  0  0  0  0
  -26.0941  -31.5497   20.6046 H   0  0  0  0  0  0
  -26.8390  -30.8326   22.0040 H   0  0  0  0  0  0
  -28.1106  -28.9833   21.1771 H   0  0  0  0  0  0
  -25.9564  -25.9039   19.0389 H   0  0  0  0  0  0
  -23.9646  -27.2853   19.0395 H   0  0  0  0  0  0
  -23.7624  -30.5927   19.4060 H   0  0  0  0  0  0
  -22.7522  -29.2505   19.8532 H   0  0  0  0  0  0
  -25.1290  -36.1918   25.0826 H   0  0  0  0  0  0
  -20.9982  -28.3266   24.1399 H   0  0  0  0  0  0
  -20.5656  -26.2291   23.3599 H   0  0  0  0  0  0
  -21.6647  -26.7429   22.1212 H   0  0  0  0  0  0
  -19.6915  -25.6294   21.1230 H   0  0  0  0  0  0
  -19.6710  -27.3196   20.6734 H   0  0  0  0  0  0
  -17.4205  -26.6678   21.4008 H   0  0  0  0  0  0
  -18.0341  -26.0059   22.8996 H   0  0  0  0  0  0
  -19.7942  -30.7269   24.2249 H   0  0  0  0  0  0
  -17.5024  -31.6260   24.5168 H   0  0  0  0  0  0
  -15.5358  -30.2984   23.7654 H   0  0  0  0  0  0
  -15.8677  -28.0820   22.7067 H   0  0  0  0  0  0
  -24.5966  -30.6998   25.7802 H   0  0  0  0  0  0
  -24.8934  -32.2839   26.4881 H   0  0  0  0  0  0
  -25.8120  -30.8888   27.0229 H   0  0  0  0  0  0
  -26.2930  -29.6720   24.1223 H   0  0  0  0  0  0
  -27.4129  -29.7266   25.4638 H   0  0  0  0  0  0
  -27.8771  -30.4287   23.9331 H   0  0  0  0  0  0
  -27.2714  -33.3605   26.2044 H   0  0  0  0  0  0
  -28.3903  -32.6818   25.0307 H   0  0  0  0  0  0
  -28.0742  -31.8420   26.5404 H   0  0  0  0  0  0
  -28.2593  -38.0094   24.7518 H   0  0  0  0  0  0
  -28.1080  -36.2623   24.6287 H   0  0  0  0  0  0
  -27.2300  -37.1437   25.8871 H   0  0  0  0  0  0
  -20.9360  -29.8742   21.6867 H   0  0  0  0  0  0
  -26.0169  -38.2840   24.1428 H   0  0  0  0  0  0
  -28.1970  -19.4533   18.7771 H   0  0  0  0  0  0
  -28.7346  -17.0525   18.8545 H   0  0  0  0  0  0
  -30.6411  -17.6070   22.6717 H   0  0  0  0  0  0
  -25.8648  -22.5329   22.6236 H   0  0  0  0  0  0
  -27.5450  -22.7503   23.0529 H   0  0  0  0  0  0
  -26.6851  -24.6923   21.7540 H   0  0  0  0  0  0
  -26.2498  -23.6427   20.4268 H   0  0  0  0  0  0
  -26.4483  -21.0633   20.7498 H   0  0  0  0  0  0
  -27.1993  -20.4733   22.2061 H   0  0  0  0  0  0
  -29.0262  -24.1954   21.5116 H   0  0  0  0  0  0
  -27.7919  -24.9584   18.8143 H   0  0  0  0  0  0
  -29.4521  -25.0869   19.1832 H   0  0  0  0  0  0
  -28.9201  -15.2883   21.3367 H   0  0  0  0  0  0
  1 25  1  0  0  0
  1 30  2  0  0  0
  1 84  1  0  0  0
  2  3  1  0  0  0
  2 25  1  0  0  0
  2 87  1  0  0  0
  2 88  1  0  0  0
  3  4  1  0  0  0
  3 89  1  0  0  0
  3 90  1  0  0  0
  4  5  1  0  0  0
  4 91  1  0  0  0
  4 92  1  0  0  0
  5  6  1  0  0  0
  5 26  1  0  0  0
  5 93  1  0  0  0
  6 25  1  0  0  0
  6 94  1  0  0  0
  6 95  1  0  0  0
  7  8  2  0  0  0
  7 26  1  0  0  0
  7 29  1  0  0  0
  8  9  1  0  0  0
  8 22  1  0  0  0
  9 10  1  0  0  0
  9 27  2  0  0  0
 10 11  2  0  0  0
 10 15  1  0  0  0
 11 12  1  0  0  0
 11 96  1  0  0  0
 12 13  2  0  0  0
 12 97  1  0  0  0
 13 14  1  0  0  0
 13 31  1  0  0  0
 14 15  2  0  0  0
 14 98  1  0  0  0
 15 99  1  0  0  0
 16 17  2  0  0  0
 16 21  1  0  0  0
 16 31  1  0  0  0
 17 18  1  0  0  0
 17100  1  0  0  0
 18 19  2  0  0  0
 18101  1  0  0  0
 19 20  1  0  0  0
 19 24  1  0  0  0
 20 21  2  0  0  0
 20102  1  0  0  0
 21 23  1  0  0  0
 22 28  1  0  0  0
 22 32  2  0  0  0
 26 27  1  0  0  0
 28103  1  0  0  0
 28104  1  0  0  0
 29105  1  0  0  0
 29106  1  0  0  0
 33 34  1  0  0  0
 33 66  1  0  0  0
 33 70  2  0  0  0
 34 36  1  0  0  0
 34 59  1  0  0  0
 34107  1  0  0  0
 35 44  2  0  0  0
 35 45  1  0  0  0
 35 68  1  0  0  0
 36 56  1  0  0  0
 36108  1  0  0  0
 37 39  1  0  0  0
 37 47  1  0  0  0
 37 66  1  0  0  0
 37109  1  0  0  0
 38 43  2  0  0  0
 38 46  1  0  0  0
 38 47  1  0  0  0
 39 64  1  0  0  0
 39 67  2  0  0  0
 40 52  1  0  0  0
 40 53  2  0  0  0
 40 58  1  0  0  0
 41110  1  0  0  0
 41111  1  0  0  0
 41112  1  0  0  0
 41 48  1  0  0  0
 42 43  1  0  0  0
 42 66  1  0  0  0
 42113  1  0  0  0
 42114  1  0  0  0
 43 44  1  0  0  0
 44115  1  0  0  0
 45 46  2  0  0  0
 45116  1  0  0  0
 46117  1  0  0  0
 47118  1  0  0  0
 47119  1  0  0  0
 48 56  1  0  0  0
 48 65  1  0  0  0
 48120  1  0  0  0
 49 50  1  0  0  0
 49 53  1  0  0  0
 49 64  1  0  0  0
 49121  1  0  0  0
 50 51  1  0  0  0
 50122  1  0  0  0
 50123  1  0  0  0
 51 52  1  0  0  0
 51124  1  0  0  0
 51125  1  0  0  0
 52126  1  0  0  0
 52127  1  0  0  0
 53 54  1  0  0  0
 54 55  2  0  0  0
 54128  1  0  0  0
 55 57  1  0  0  0
 55129  1  0  0  0
 56 69  2  0  0  0
 57 58  2  0  0  0
 57130  1  0  0  0
 58131  1  0  0  0
 59 60  1  0  0  0
 59 61  1  0  0  0
 59 62  1  0  0  0
 60132  1  0  0  0
 60133  1  0  0  0
 60134  1  0  0  0
 61135  1  0  0  0
 61136  1  0  0  0
 61137  1  0  0  0
 62138  1  0  0  0
 62139  1  0  0  0
 62140  1  0  0  0
 63 65  1  0  0  0
 63141  1  0  0  0
 63142  1  0  0  0
 63143  1  0  0  0
 64144  1  0  0  0
 65145  1  0  0  0
 68 82  1  0  0  0
 71 72  2  0  0  0
 71 74  1  0  0  0
 71146  1  0  0  0
 72 75  1  0  0  0
 72147  1  0  0  0
 73 75  2  0  0  0
 73 76  1  0  0  0
 73148  1  0  0  0
 74 76  2  0  0  0
 74 83  1  0  0  0
 75 84  1  0  0  0
 76 86  1  0  0  0
 77 81  1  0  0  0
 77 83  1  0  0  0
 77 85  2  0  0  0
 78 79  1  0  0  0
 78 80  1  0  0  0
 78149  1  0  0  0
 78150  1  0  0  0
 79 81  1  0  0  0
 79151  1  0  0  0
 79152  1  0  0  0
 80 83  1  0  0  0
 80153  1  0  0  0
 80154  1  0  0  0
 81 82  1  0  0  0
 81155  1  0  0  0
 82156  1  0  0  0
 82157  1  0  0  0
 84158  1  0  0  0
M  ISO  4   1 100  68 101  82 101  84 100
M  END
> <chiral flag>
0

> <version>
0

> <s_m_source_file>
/data/baiqing/PycharmProjects/Reinvent-master-3.2/result/LINK_invent/BTK/process_docking_weight1_custom_product_contain_oxygen_bond_distance_aromatic_linkinvent_7_9_3/rearranged_h_0025.sdf

> <i_m_source_file_index>
26

> <r_mmod_Potential_Energy-OPLS-2005>
198.220138549805

> <r_mmod_Stretch_Energy-OPLS-2005>
87.2781829833984

> <r_mmod_Bend_Energy-OPLS-2005>
152.671737670898

> <r_mmod_Torsional_Energy-OPLS-2005>
322.988677978516

> <r_mmod_Improper_Torsional_Energy-OPLS-2005>
8.06334400177002

> <r_mmod_Van_der_Waal_Energy-OPLS-2005>
138.547592163086

> <r_mmod_Electrostatic_Energy-OPLS-2005>
-333.185455322266

> <r_mmod_Solvation_Energy-OPLS-2005>
-225.986862182617

> <b_mmod_Minimization_Converged-OPLS-2005>
0

> <r_mmod_RMS_Derivative-OPLS-2005>
1.15014374256134

$$$$
26
                    3D
 Structure written by MMmdl.
174183  0  0  1  0            999 V2000
  -28.9435  -12.7762   21.4827 C   0  0  0  0  0  0
  -30.4888  -12.6580   19.3403 C   0  0  0  0  0  0
  -29.8179  -13.0178   17.9037 C   0  0  0  0  0  0
  -28.2162  -13.2302   17.8691 C   0  0  0  0  0  0
  -27.7662  -13.5252   19.2800 C   0  0  2  0  0  0
  -28.3479  -12.1787   19.6770 C   0  0  0  0  0  0
  -25.4773  -14.3850   20.2959 C   0  0  0  0  0  0
  -24.4454  -13.6224   20.7063 C   0  0  0  0  0  0
  -25.0603  -12.2096   20.9988 C   0  0  0  0  0  0
  -24.3785  -10.3431   21.8876 C   0  0  0  0  0  0
  -24.8308   -9.0431   22.3545 C   0  0  0  0  0  0
  -24.1138   -7.7652   22.2234 C   0  0  0  0  0  0
  -22.8774   -7.6940   21.4805 C   0  0  0  0  0  0
  -22.4230   -8.8248   20.9240 C   0  0  0  0  0  0
  -22.9220   -9.7924   21.7799 C   0  0  0  0  0  0
  -21.7335   -5.9764   22.5250 C   0  0  0  0  0  0
  -21.4172   -6.5248   23.7849 C   0  0  0  0  0  0
  -21.3594   -5.6695   24.9000 C   0  0  0  0  0  0
  -21.5840   -4.2866   24.7367 C   0  0  0  0  0  0
  -21.8437   -3.7546   23.4611 C   0  0  0  0  0  0
  -21.9121   -4.6041   22.3539 C   0  0  0  0  0  0
  -23.0139  -14.2971   20.7717 C   0  0  0  0  0  0
  -22.1762   -4.1207   21.1181 F   0  0  0  0  0  0
  -21.5498   -3.4636   25.8107 F   0  0  0  0  0  0
  -29.4874  -12.2503   20.3838 N   0  0  0  0  0  0
  -26.3966  -13.5475   19.8063 N   0  0  0  0  0  0
  -25.8039  -12.4543   19.8964 N   0  0  0  0  0  0
  -22.3205  -14.5483   21.8783 N   0  0  0  0  0  0
  -25.6313  -15.7331   20.2214 N   0  0  0  0  0  0
  -29.7789  -13.7731   21.6562 O   0  0  0  0  0  0
  -21.9347   -6.7169   21.4145 O   0  0  0  0  0  0
  -22.4200  -14.6551   19.7922 O   0  0  0  0  0  0
  -24.6345  -31.8536   23.1975 C   0  0  0  0  0  0
  -25.9161  -32.4743   23.8341 C   0  0  1  0  0  0
  -27.1524  -27.1628   20.2720 C   0  0  0  0  0  0
  -25.5941  -33.8552   24.2261 N   0  0  0  0  0  0
  -23.4335  -30.4798   21.5409 C   0  0  2  0  0  0
  -24.8797  -28.9229   20.1032 C   0  0  0  0  0  0
  -22.7511  -29.4604   22.4877 C   0  0  0  0  0  0
  -18.0323  -28.1390   22.8481 C   0  0  0  0  0  0
  -24.1481  -36.7289   23.2631 C   0  0  0  0  0  0
  -25.9790  -30.7497   21.3804 C   0  0  0  0  0  0
  -26.0494  -29.3627   20.7379 C   0  0  0  0  0  0
  -27.1962  -28.5012   20.8044 C   0  0  0  0  0  0
  -25.9954  -26.8285   19.5326 C   0  0  0  0  0  0
  -24.8714  -27.6748   19.4614 C   0  0  0  0  0  0
  -23.6528  -29.8241   20.1523 C   0  0  0  0  0  0
  -25.4109  -36.3067   24.0319 C   0  0  1  0  0  0
  -20.5931  -28.3709   23.1250 C   0  0  2  0  0  0
  -20.6792  -26.9416   22.5398 C   0  0  0  0  0  0
  -19.5752  -26.6390   21.5207 C   0  0  0  0  0  0
  -18.1952  -26.7939   22.1627 C   0  0  0  0  0  0
  -19.1577  -28.8858   23.2879 C   0  0  0  0  0  0
  -18.9487  -30.1473   23.8870 C   0  0  0  0  0  0
  -17.6477  -30.6569   24.0582 C   0  0  0  0  0  0
  -25.9057  -34.9440   23.5090 C   0  0  0  0  0  0
  -16.5375  -29.9066   23.6339 C   0  0  0  0  0  0
  -16.7314  -28.6508   23.0322 C   0  0  0  0  0  0
  -26.4533  -31.6569   25.0729 C   0  0  0  0  0  0
  -25.3745  -31.3705   26.1433 C   0  0  0  0  0  0
  -27.0388  -30.3000   24.6169 C   0  0  0  0  0  0
  -27.6086  -32.4281   25.7508 C   0  0  0  0  0  0
  -27.5562  -37.1811   24.8471 C   0  0  0  0  0  0
  -21.4211  -29.3054   22.3615 N   0  0  0  0  0  0
  -26.4287  -37.3769   23.9383 N   0  0  0  0  0  0
  -24.7024  -31.0464   22.0976 N   0  0  0  0  0  0
  -23.4220  -28.8129   23.2965 O   0  0  0  0  0  0
  -28.1017  -26.1322   20.5327 O   0  0  0  0  0  0
  -26.5627  -34.8910   22.4658 O   0  0  0  0  0  0
  -23.5498  -32.1384   23.7254 O   0  0  0  0  0  0
  -24.1971  -13.9710   24.0739 C   0  0  0  0  0  0
  -24.8420  -15.2360   24.1609 C   0  0  0  0  0  0
  -24.6611  -12.9060   23.2596 C   0  0  0  0  0  0
  -26.3315  -12.9667   22.9652 C   0  0  0  0  0  0
  -26.1366  -15.5034   23.6701 C   0  0  0  0  0  0
  -26.8726  -14.3035   23.3239 C   0  0  0  0  0  0
  -23.0766  -12.2147   22.2985 C   0  0  0  0  0  0
  -23.1772  -11.3813   20.0616 C   0  0  0  0  0  0
  -25.0348  -10.2267   19.6629 C   0  0  0  0  0  0
  -26.8112  -10.5241   21.0120 C   0  0  0  0  0  0
  -29.3867  -23.0113   20.5562 C   0  0  0  0  0  0
  -27.1102  -17.9030   22.7233 C   0  0  0  0  0  0
  -27.0589  -19.5508   22.9914 C   0  0  0  0  0  0
  -27.3079  -22.0634   21.9058 C   0  0  0  0  0  0
  -27.5214  -24.7680   20.9665 C   0  0  0  0  0  0
  -28.2538  -23.3860   21.5210 C   0  0  2  0  0  0
  -27.4858  -12.0824   21.9494 N   0  0  0  0  0  0
  -26.6702  -16.8799   23.7960 N   0  0  0  0  0  0
  -27.8447  -20.6053   22.1305 N   0  3  0  0  0  0
  -28.2004  -14.5008   23.3788 F   0  0  0  0  0  0
  -31.0938  -13.5016   19.6821 H   0  0  0  0  0  0
  -31.1933  -11.8407   19.2072 H   0  0  0  0  0  0
  -30.0670  -12.2221   17.1992 H   0  0  0  0  0  0
  -30.3033  -13.9141   17.5137 H   0  0  0  0  0  0
  -27.7035  -12.3968   17.3832 H   0  0  0  0  0  0
  -27.9684  -14.0842   17.2394 H   0  0  0  0  0  0
  -28.2851  -14.4231   19.6115 H   0  0  0  0  0  0
  -28.7663  -11.3835   19.0318 H   0  0  0  0  0  0
  -27.7374  -11.4054   19.2225 H   0  0  0  0  0  0
  -25.7305   -8.9477   22.9437 H   0  0  0  0  0  0
  -24.4964   -6.8844   22.7264 H   0  0  0  0  0  0
  -21.4154   -8.8498   20.5251 H   0  0  0  0  0  0
  -22.0062  -10.3620   21.8090 H   0  0  0  0  0  0
  -21.2618   -7.5890   23.8938 H   0  0  0  0  0  0
  -21.1624   -6.0803   25.8803 H   0  0  0  0  0  0
  -22.0048   -2.6969   23.3257 H   0  0  0  0  0  0
  -22.7709  -14.4045   22.7699 H   0  0  0  0  0  0
  -21.4531  -15.0640   21.8254 H   0  0  0  0  0  0
  -24.8651  -16.3724   20.4025 H   0  0  0  0  0  0
  -26.3816  -16.1597   19.6903 H   0  0  0  0  0  0
  -26.7208  -32.5404   23.1069 H   0  0  0  0  0  0
  -25.0106  -33.9695   25.0420 H   0  0  0  0  0  0
  -22.7347  -31.3107   21.4056 H   0  0  0  0  0  0
  -23.3735  -35.9635   23.3291 H   0  0  0  0  0  0
  -24.3574  -36.8906   22.2043 H   0  0  0  0  0  0
  -23.7246  -37.6484   23.6678 H   0  0  0  0  0  0
  -26.1037  -31.4956   20.5923 H   0  0  0  0  0  0
  -26.8611  -30.8172   22.0042 H   0  0  0  0  0  0
  -28.0654  -28.8161   21.3626 H   0  0  0  0  0  0
  -25.9167  -25.8652   19.0567 H   0  0  0  0  0  0
  -23.9852  -27.3405   18.9337 H   0  0  0  0  0  0
  -23.7876  -30.6104   19.4094 H   0  0  0  0  0  0
  -22.7628  -29.2755   19.8342 H   0  0  0  0  0  0
  -25.1301  -36.1924   25.0819 H   0  0  0  0  0  0
  -21.0083  -28.3280   24.1357 H   0  0  0  0  0  0
  -20.5685  -26.2325   23.3613 H   0  0  0  0  0  0
  -21.6657  -26.7428   22.1186 H   0  0  0  0  0  0
  -19.6900  -25.6310   21.1195 H   0  0  0  0  0  0
  -19.6652  -27.3234   20.6755 H   0  0  0  0  0  0
  -17.4220  -26.6729   21.4018 H   0  0  0  0  0  0
  -18.0333  -26.0100   22.9029 H   0  0  0  0  0  0
  -19.7968  -30.7327   24.2187 H   0  0  0  0  0  0
  -17.5020  -31.6232   24.5196 H   0  0  0  0  0  0
  -15.5365  -30.2932   23.7646 H   0  0  0  0  0  0
  -15.8756  -28.0812   22.6984 H   0  0  0  0  0  0
  -24.5998  -30.6958   25.7764 H   0  0  0  0  0  0
  -24.8864  -32.2865   26.4769 H   0  0  0  0  0  0
  -25.8077  -30.8970   27.0259 H   0  0  0  0  0  0
  -26.2990  -29.6734   24.1173 H   0  0  0  0  0  0
  -27.4076  -29.7256   25.4676 H   0  0  0  0  0  0
  -27.8858  -30.4280   23.9429 H   0  0  0  0  0  0
  -27.2738  -33.3627   26.2018 H   0  0  0  0  0  0
  -28.3967  -32.6716   25.0375 H   0  0  0  0  0  0
  -28.0678  -31.8422   26.5478 H   0  0  0  0  0  0
  -28.2615  -38.0072   24.7477 H   0  0  0  0  0  0
  -28.1026  -36.2599   24.6381 H   0  0  0  0  0  0
  -27.2277  -37.1565   25.8877 H   0  0  0  0  0  0
  -20.9390  -29.8821   21.6853 H   0  0  0  0  0  0
  -26.0153  -38.2839   24.1389 H   0  0  0  0  0  0
  -23.1776  -13.9378   24.4370 H   0  0  0  0  0  0
  -24.2881  -16.0377   24.6227 H   0  0  0  0  0  0
  -22.0428  -12.4725   22.5399 H   0  0  0  0  0  0
  -22.8837  -11.5790   23.1754 H   0  0  0  0  0  0
  -23.1466  -12.1560   19.2933 H   0  0  0  0  0  0
  -22.2529  -10.9187   19.7050 H   0  0  0  0  0  0
  -25.3205  -10.3862   18.6192 H   0  0  0  0  0  0
  -24.8157   -9.1565   19.6412 H   0  0  0  0  0  0
  -27.6278   -9.9908   20.5271 H   0  0  0  0  0  0
  -26.9461   -9.8128   21.7967 H   0  0  0  0  0  0
  -30.1223  -22.3557   21.0231 H   0  0  0  0  0  0
  -29.9246  -23.9125   20.2505 H   0  0  0  0  0  0
  -29.0048  -22.5338   19.6552 H   0  0  0  0  0  0
  -28.1340  -17.6345   22.4600 H   0  0  0  0  0  0
  -26.5231  -17.7031   21.8253 H   0  0  0  0  0  0
  -27.3625  -19.7352   24.0241 H   0  0  0  0  0  0
  -26.0113  -19.8476   22.9458 H   0  0  0  0  0  0
  -26.5498  -21.9808   21.1254 H   0  0  0  0  0  0
  -26.7610  -22.3216   22.8154 H   0  0  0  0  0  0
  -26.8135  -25.0117   21.7587 H   0  0  0  0  0  0
  -26.9379  -24.4074   20.1211 H   0  0  0  0  0  0
  -28.7513  -23.6624   22.4545 H   0  0  0  0  0  0
  -27.2751  -16.9466   24.6132 H   0  0  0  0  0  0
  -28.0069  -20.2019   21.2242 H   0  0  0  0  0  0
  -28.7541  -20.6853   22.5530 H   0  0  0  0  0  0
  1 25  1  0  0  0
  1 30  2  0  0  0
  1 87  1  0  0  0
  2  3  1  0  0  0
  2 25  1  0  0  0
  2 91  1  0  0  0
  2 92  1  0  0  0
  3  4  1  0  0  0
  3 93  1  0  0  0
  3 94  1  0  0  0
  4  5  1  0  0  0
  4 95  1  0  0  0
  4 96  1  0  0  0
  5  6  1  0  0  0
  5 26  1  0  0  0
  5 97  1  0  0  0
  6 25  1  0  0  0
  6 98  1  0  0  0
  6 99  1  0  0  0
  7  8  2  0  0  0
  7 26  1  0  0  0
  7 29  1  0  0  0
  8  9  1  0  0  0
  8 22  1  0  0  0
  9 10  1  0  0  0
  9 27  2  0  0  0
 10 11  2  0  0  0
 10 15  1  0  0  0
 11 12  1  0  0  0
 11100  1  0  0  0
 12 13  2  0  0  0
 12101  1  0  0  0
 13 14  1  0  0  0
 13 31  1  0  0  0
 14 15  2  0  0  0
 14102  1  0  0  0
 15103  1  0  0  0
 16 17  2  0  0  0
 16 21  1  0  0  0
 16 31  1  0  0  0
 17 18  1  0  0  0
 17104  1  0  0  0
 18 19  2  0  0  0
 18105  1  0  0  0
 19 20  1  0  0  0
 19 24  1  0  0  0
 20 21  2  0  0  0
 20106  1  0  0  0
 21 23  1  0  0  0
 22 28  1  0  0  0
 22 32  2  0  0  0
 26 27  1  0  0  0
 28107  1  0  0  0
 28108  1  0  0  0
 29109  1  0  0  0
 29110  1  0  0  0
 33 34  1  0  0  0
 33 66  1  0  0  0
 33 70  2  0  0  0
 34 36  1  0  0  0
 34 59  1  0  0  0
 34111  1  0  0  0
 35 44  2  0  0  0
 35 45  1  0  0  0
 35 68  1  0  0  0
 36 56  1  0  0  0
 36112  1  0  0  0
 37 39  1  0  0  0
 37 47  1  0  0  0
 37 66  1  0  0  0
 37113  1  0  0  0
 38 43  2  0  0  0
 38 46  1  0  0  0
 38 47  1  0  0  0
 39 64  1  0  0  0
 39 67  2  0  0  0
 40 52  1  0  0  0
 40 53  2  0  0  0
 40 58  1  0  0  0
 41114  1  0  0  0
 41115  1  0  0  0
 41116  1  0  0  0
 41 48  1  0  0  0
 42 43  1  0  0  0
 42 66  1  0  0  0
 42117  1  0  0  0
 42118  1  0  0  0
 43 44  1  0  0  0
 44119  1  0  0  0
 45 46  2  0  0  0
 45120  1  0  0  0
 46121  1  0  0  0
 47122  1  0  0  0
 47123  1  0  0  0
 48 56  1  0  0  0
 48 65  1  0  0  0
 48124  1  0  0  0
 49 50  1  0  0  0
 49 53  1  0  0  0
 49 64  1  0  0  0
 49125  1  0  0  0
 50 51  1  0  0  0
 50126  1  0  0  0
 50127  1  0  0  0
 51 52  1  0  0  0
 51128  1  0  0  0
 51129  1  0  0  0
 52130  1  0  0  0
 52131  1  0  0  0
 53 54  1  0  0  0
 54 55  2  0  0  0
 54132  1  0  0  0
 55 57  1  0  0  0
 55133  1  0  0  0
 56 69  2  0  0  0
 57 58  2  0  0  0
 57134  1  0  0  0
 58135  1  0  0  0
 59 60  1  0  0  0
 59 61  1  0  0  0
 59 62  1  0  0  0
 60136  1  0  0  0
 60137  1  0  0  0
 60138  1  0  0  0
 61139  1  0  0  0
 61140  1  0  0  0
 61141  1  0  0  0
 62142  1  0  0  0
 62143  1  0  0  0
 62144  1  0  0  0
 63 65  1  0  0  0
 63145  1  0  0  0
 63146  1  0  0  0
 63147  1  0  0  0
 64148  1  0  0  0
 65149  1  0  0  0
 68 85  1  0  0  0
 71 72  2  0  0  0
 71 73  1  0  0  0
 71150  1  0  0  0
 72 75  1  0  0  0
 72151  1  0  0  0
 73 74  2  0  0  0
 73 77  1  0  0  0
 74 76  1  0  0  0
 74 87  1  0  0  0
 75 76  2  0  0  0
 75 88  1  0  0  0
 76 90  1  0  0  0
 77 78  1  0  0  0
 77152  1  0  0  0
 77153  1  0  0  0
 78 79  1  0  0  0
 78154  1  0  0  0
 78155  1  0  0  0
 79 80  1  0  0  0
 79156  1  0  0  0
 79157  1  0  0  0
 80 87  1  0  0  0
 80158  1  0  0  0
 80159  1  0  0  0
 81160  1  0  0  0
 81161  1  0  0  0
 81162  1  0  0  0
 81 86  1  0  0  0
 82 83  1  0  0  0
 82 88  1  0  0  0
 82163  1  0  0  0
 82164  1  0  0  0
 83 89  1  0  0  0
 83165  1  0  0  0
 83166  1  0  0  0
 84 86  1  0  0  0
 84 89  1  0  0  0
 84167  1  0  0  0
 84168  1  0  0  0
 85 86  1  0  0  0
 85169  1  0  0  0
 85170  1  0  0  0
 86171  1  0  0  0
 88172  1  0  0  0
 89173  1  0  0  0
 89174  1  0  0  0
M  CHG  1  89   1
M  ISO  4   1 100  68 101  85 101  87 100
M  END
> <chiral flag>
0

> <version>
0

> <s_m_source_file>
/data/baiqing/PycharmProjects/Reinvent-master-3.2/result/LINK_invent/BTK/process_docking_weight1_custom_product_contain_oxygen_bond_distance_aromatic_linkinvent_7_9_3/rearranged_h_0025.sdf

> <i_m_source_file_index>
27

> <r_mmod_Potential_Energy-OPLS-2005>
11774.8037109375

> <r_mmod_Stretch_Energy-OPLS-2005>
4358.2646484375

> <r_mmod_Bend_Energy-OPLS-2005>
1326.41015625

> <r_mmod_Torsional_Energy-OPLS-2005>
759.270690917969

> <r_mmod_Improper_Torsional_Energy-OPLS-2005>
50.0360908508301

> <r_mmod_Van_der_Waal_Energy-OPLS-2005>
2484.61987304688

> <r_mmod_Electrostatic_Energy-OPLS-2005>
-188.236694335938

> <r_mmod_Solvation_Energy-OPLS-2005>
-470.740844726562

> <b_mmod_Minimization_Converged-OPLS-2005>
0

> <r_mmod_RMS_Derivative-OPLS-2005>
10.7253589630127

$$$$
27
                    3D
 Structure written by MMmdl.
158166  0  0  1  0            999 V2000
  -30.6166  -14.9151   20.4863 C   0  0  0  0  0  0
  -30.4314  -12.5792   19.5083 C   0  0  0  0  0  0
  -29.5217  -12.5504   18.2606 C   0  0  0  0  0  0
  -28.0557  -12.3352   18.6706 C   0  0  0  0  0  0
  -27.6354  -13.2531   19.8458 C   0  0  2  0  0  0
  -28.6740  -13.2712   20.9892 C   0  0  0  0  0  0
  -25.2415  -13.8146   20.5541 C   0  0  0  0  0  0
  -24.1786  -13.0381   20.9215 C   0  0  0  0  0  0
  -24.6432  -11.6892   20.8782 C   0  0  0  0  0  0
  -23.9112  -10.4254   21.0422 C   0  0  0  0  0  0
  -24.3568   -9.4223   21.9311 C   0  0  0  0  0  0
  -23.6241   -8.2259   22.0853 C   0  0  0  0  0  0
  -22.4298   -8.0238   21.3507 C   0  0  0  0  0  0
  -22.0016   -9.0168   20.4518 C   0  0  0  0  0  0
  -22.7358  -10.2054   20.2964 C   0  0  0  0  0  0
  -21.6866   -6.0714   22.5242 C   0  0  0  0  0  0
  -21.4018   -6.5635   23.8159 C   0  0  0  0  0  0
  -21.3652   -5.6799   24.9137 C   0  0  0  0  0  0
  -21.6063   -4.3061   24.7212 C   0  0  0  0  0  0
  -21.8868   -3.8145   23.4337 C   0  0  0  0  0  0
  -21.9220   -4.6943   22.3378 C   0  0  0  0  0  0
  -22.7815  -13.5129   21.1902 C   0  0  0  0  0  0
  -22.1708   -4.2121   21.0963 F   0  0  0  0  0  0
  -21.5630   -3.4563   25.7729 F   0  0  0  0  0  0
  -29.9666  -13.6776   20.4123 N   0  0  0  0  0  0
  -26.2914  -12.9441   20.3247 N   0  0  0  0  0  0
  -25.9384  -11.6562   20.5788 N   0  0  0  0  0  0
  -22.0521  -12.8143   22.0539 N   0  0  0  0  0  0
  -25.3918  -15.1810   20.3625 N   0  0  0  0  0  0
  -31.7549  -14.9534   20.0094 O   0  0  0  0  0  0
  -21.6654   -6.8844   21.4200 O   0  0  0  0  0  0
  -22.3449  -14.5384   20.6676 O   0  0  0  0  0  0
  -24.6427  -31.8447   23.1903 C   0  0  0  0  0  0
  -25.9203  -32.4701   23.8270 C   0  0  1  0  0  0
  -27.2005  -27.1413   20.1480 C   0  0  0  0  0  0
  -25.5956  -33.8504   24.2206 N   0  0  0  0  0  0
  -23.4453  -30.4673   21.5394 C   0  0  2  0  0  0
  -24.8892  -28.9014   20.1078 C   0  0  0  0  0  0
  -22.7564  -29.4549   22.4886 C   0  0  0  0  0  0
  -18.0289  -28.1388   22.8470 C   0  0  0  0  0  0
  -24.1499  -36.7262   23.2637 C   0  0  0  0  0  0
  -25.9995  -30.7234   21.3854 C   0  0  0  0  0  0
  -26.0681  -29.3353   20.7271 C   0  0  0  0  0  0
  -27.2270  -28.4721   20.7288 C   0  0  0  0  0  0
  -25.9956  -26.8097   19.4901 C   0  0  0  0  0  0
  -24.8659  -27.6523   19.4725 C   0  0  0  0  0  0
  -23.6683  -29.8039   20.1558 C   0  0  0  0  0  0
  -25.4124  -36.3034   24.0323 C   0  0  1  0  0  0
  -20.5898  -28.3714   23.1249 C   0  0  2  0  0  0
  -20.6777  -26.9423   22.5398 C   0  0  0  0  0  0
  -19.5766  -26.6377   21.5202 C   0  0  0  0  0  0
  -18.1943  -26.7923   22.1616 C   0  0  0  0  0  0
  -19.1546  -28.8862   23.2837 C   0  0  0  0  0  0
  -18.9468  -30.1457   23.8873 C   0  0  0  0  0  0
  -17.6467  -30.6571   24.0559 C   0  0  0  0  0  0
  -25.9078  -34.9416   23.5061 C   0  0  0  0  0  0
  -16.5355  -29.9082   23.6326 C   0  0  0  0  0  0
  -16.7279  -28.6500   23.0349 C   0  0  0  0  0  0
  -26.4525  -31.6544   25.0699 C   0  0  0  0  0  0
  -25.3710  -31.3721   26.1398 C   0  0  0  0  0  0
  -27.0387  -30.2946   24.6241 C   0  0  0  0  0  0
  -27.6077  -32.4280   25.7488 C   0  0  0  0  0  0
  -27.5587  -37.1785   24.8465 C   0  0  0  0  0  0
  -21.4263  -29.3045   22.3626 N   0  0  0  0  0  0
  -26.4299  -37.3743   23.9408 N   0  0  0  0  0  0
  -24.7166  -31.0323   22.0940 N   0  0  0  0  0  0
  -23.4220  -28.8101   23.3032 O   0  0  0  0  0  0
  -28.2433  -26.1485   20.2176 O   0  0  0  0  0  0
  -26.5674  -34.8911   22.4651 O   0  0  0  0  0  0
  -23.5540  -32.1333   23.7106 O   0  0  0  0  0  0
  -28.0164  -19.4100   20.9878 C   0  0  0  0  0  0
  -30.1169  -19.9151   20.0756 C   0  0  0  0  0  0
  -28.3933  -18.0185   21.1525 C   0  0  0  0  0  0
  -28.8453  -20.4570   20.4677 C   0  0  0  0  0  0
  -29.6555  -17.4598   20.7371 C   0  0  0  0  0  0
  -30.5036  -18.5074   20.1987 C   0  0  0  0  0  0
  -27.4093  -17.1455   21.9071 C   0  0  0  0  0  0
  -30.5319  -15.0186   23.4881 C   0  0  0  0  0  0
  -30.7648  -16.1834   22.5045 C   0  0  0  0  0  0
  -28.9106  -23.2902   20.3504 C   0  0  0  0  0  0
  -27.9131  -24.6297   20.1213 C   0  0  0  0  0  0
  -28.3225  -21.8479   20.3692 N   0  0  0  0  0  0
  -30.1003  -16.0500   21.1848 N   0  0  0  0  0  0
  -32.1196  -18.1144   19.7369 Cl  0  0  0  0  0  0
  -31.4703  -12.7017   19.1971 H   0  0  0  0  0  0
  -30.3955  -11.6208   20.0278 H   0  0  0  0  0  0
  -29.8401  -11.7586   17.5803 H   0  0  0  0  0  0
  -29.6223  -13.4903   17.7147 H   0  0  0  0  0  0
  -27.9537  -11.2908   18.9671 H   0  0  0  0  0  0
  -27.3963  -12.4779   17.8116 H   0  0  0  0  0  0
  -27.6067  -14.2596   19.4283 H   0  0  0  0  0  0
  -28.7515  -12.2902   21.4620 H   0  0  0  0  0  0
  -28.3608  -13.9664   21.7674 H   0  0  0  0  0  0
  -25.2625   -9.5780   22.4996 H   0  0  0  0  0  0
  -23.9866   -7.4721   22.7710 H   0  0  0  0  0  0
  -21.1014   -8.8630   19.8730 H   0  0  0  0  0  0
  -22.3879  -10.9564   19.6027 H   0  0  0  0  0  0
  -21.2004   -7.6147   23.9635 H   0  0  0  0  0  0
  -21.1430   -6.0538   25.9021 H   0  0  0  0  0  0
  -22.0669   -2.7606   23.2860 H   0  0  0  0  0  0
  -22.4203  -11.9852   22.4971 H   0  0  0  0  0  0
  -21.1198  -13.1254   22.2865 H   0  0  0  0  0  0
  -24.6139  -15.8265   20.4468 H   0  0  0  0  0  0
  -26.2216  -15.6040   19.9696 H   0  0  0  0  0  0
  -26.7283  -32.5300   23.1005 H   0  0  0  0  0  0
  -25.0068  -33.9610   25.0329 H   0  0  0  0  0  0
  -22.7462  -31.2925   21.3897 H   0  0  0  0  0  0
  -23.3772  -35.9583   23.3281 H   0  0  0  0  0  0
  -24.3585  -36.8909   22.2052 H   0  0  0  0  0  0
  -23.7253  -37.6458   23.6681 H   0  0  0  0  0  0
  -26.1475  -31.4791   20.6128 H   0  0  0  0  0  0
  -26.8748  -30.7707   22.0217 H   0  0  0  0  0  0
  -28.1265  -28.8014   21.2305 H   0  0  0  0  0  0
  -25.8829  -25.8584   18.9929 H   0  0  0  0  0  0
  -23.9663  -27.3165   18.9750 H   0  0  0  0  0  0
  -23.8029  -30.5846   19.4060 H   0  0  0  0  0  0
  -22.7796  -29.2506   19.8429 H   0  0  0  0  0  0
  -25.1300  -36.1871   25.0819 H   0  0  0  0  0  0
  -20.9957  -28.3304   24.1380 H   0  0  0  0  0  0
  -20.5645  -26.2341   23.3614 H   0  0  0  0  0  0
  -21.6652  -26.7419   22.1219 H   0  0  0  0  0  0
  -19.6934  -25.6290   21.1252 H   0  0  0  0  0  0
  -19.6705  -27.3173   20.6727 H   0  0  0  0  0  0
  -17.4202  -26.6639   21.4034 H   0  0  0  0  0  0
  -18.0357  -26.0080   22.9031 H   0  0  0  0  0  0
  -19.7942  -30.7261   24.2261 H   0  0  0  0  0  0
  -17.5023  -31.6259   24.5154 H   0  0  0  0  0  0
  -15.5358  -30.2968   23.7650 H   0  0  0  0  0  0
  -15.8692  -28.0797   22.7084 H   0  0  0  0  0  0
  -24.5900  -30.7057   25.7718 H   0  0  0  0  0  0
  -24.8882  -32.2897   26.4758 H   0  0  0  0  0  0
  -25.7987  -30.8931   27.0214 H   0  0  0  0  0  0
  -26.3006  -29.6716   24.1185 H   0  0  0  0  0  0
  -27.3966  -29.7174   25.4777 H   0  0  0  0  0  0
  -27.8930  -30.4211   23.9592 H   0  0  0  0  0  0
  -27.2696  -33.3592   26.2040 H   0  0  0  0  0  0
  -28.3920  -32.6804   25.0341 H   0  0  0  0  0  0
  -28.0730  -31.8411   26.5415 H   0  0  0  0  0  0
  -28.2581  -38.0101   24.7502 H   0  0  0  0  0  0
  -28.1107  -36.2622   24.6299 H   0  0  0  0  0  0
  -27.2301  -37.1439   25.8869 H   0  0  0  0  0  0
  -20.9465  -29.8777   21.6826 H   0  0  0  0  0  0
  -26.0173  -38.2822   24.1391 H   0  0  0  0  0  0
  -27.0313  -19.6882   21.3360 H   0  0  0  0  0  0
  -30.8399  -20.6040   19.6619 H   0  0  0  0  0  0
  -27.5500  -17.2634   22.9804 H   0  0  0  0  0  0
  -27.5353  -16.0933   21.6681 H   0  0  0  0  0  0
  -26.3796  -17.4156   21.6743 H   0  0  0  0  0  0
  -30.9102  -15.2786   24.4782 H   0  0  0  0  0  0
  -31.0506  -14.1108   23.1797 H   0  0  0  0  0  0
  -29.4753  -14.7890   23.5991 H   0  0  0  0  0  0
  -31.8402  -16.3329   22.3648 H   0  0  0  0  0  0
  -30.4249  -17.0958   22.9988 H   0  0  0  0  0  0
  -29.4114  -23.4236   21.3108 H   0  0  0  0  0  0
  -29.7012  -23.3228   19.6005 H   0  0  0  0  0  0
  -27.0738  -24.4873   20.8037 H   0  0  0  0  0  0
  -27.5038  -24.4813   19.1225 H   0  0  0  0  0  0
  -27.3189  -21.8845   20.5317 H   0  0  0  0  0  0
  1 25  1  0  0  0
  1 30  2  0  0  0
  1 83  1  0  0  0
  2  3  1  0  0  0
  2 25  1  0  0  0
  2 85  1  0  0  0
  2 86  1  0  0  0
  3  4  1  0  0  0
  3 87  1  0  0  0
  3 88  1  0  0  0
  4  5  1  0  0  0
  4 89  1  0  0  0
  4 90  1  0  0  0
  5  6  1  0  0  0
  5 26  1  0  0  0
  5 91  1  0  0  0
  6 25  1  0  0  0
  6 92  1  0  0  0
  6 93  1  0  0  0
  7  8  2  0  0  0
  7 26  1  0  0  0
  7 29  1  0  0  0
  8  9  1  0  0  0
  8 22  1  0  0  0
  9 10  1  0  0  0
  9 27  2  0  0  0
 10 11  2  0  0  0
 10 15  1  0  0  0
 11 12  1  0  0  0
 11 94  1  0  0  0
 12 13  2  0  0  0
 12 95  1  0  0  0
 13 14  1  0  0  0
 13 31  1  0  0  0
 14 15  2  0  0  0
 14 96  1  0  0  0
 15 97  1  0  0  0
 16 17  2  0  0  0
 16 21  1  0  0  0
 16 31  1  0  0  0
 17 18  1  0  0  0
 17 98  1  0  0  0
 18 19  2  0  0  0
 18 99  1  0  0  0
 19 20  1  0  0  0
 19 24  1  0  0  0
 20 21  2  0  0  0
 20100  1  0  0  0
 21 23  1  0  0  0
 22 28  1  0  0  0
 22 32  2  0  0  0
 26 27  1  0  0  0
 28101  1  0  0  0
 28102  1  0  0  0
 29103  1  0  0  0
 29104  1  0  0  0
 33 34  1  0  0  0
 33 66  1  0  0  0
 33 70  2  0  0  0
 34 36  1  0  0  0
 34 59  1  0  0  0
 34105  1  0  0  0
 35 44  2  0  0  0
 35 45  1  0  0  0
 35 68  1  0  0  0
 36 56  1  0  0  0
 36106  1  0  0  0
 37 39  1  0  0  0
 37 47  1  0  0  0
 37 66  1  0  0  0
 37107  1  0  0  0
 38 43  2  0  0  0
 38 46  1  0  0  0
 38 47  1  0  0  0
 39 64  1  0  0  0
 39 67  2  0  0  0
 40 52  1  0  0  0
 40 53  2  0  0  0
 40 58  1  0  0  0
 41108  1  0  0  0
 41109  1  0  0  0
 41110  1  0  0  0
 41 48  1  0  0  0
 42 43  1  0  0  0
 42 66  1  0  0  0
 42111  1  0  0  0
 42112  1  0  0  0
 43 44  1  0  0  0
 44113  1  0  0  0
 45 46  2  0  0  0
 45114  1  0  0  0
 46115  1  0  0  0
 47116  1  0  0  0
 47117  1  0  0  0
 48 56  1  0  0  0
 48 65  1  0  0  0
 48118  1  0  0  0
 49 50  1  0  0  0
 49 53  1  0  0  0
 49 64  1  0  0  0
 49119  1  0  0  0
 50 51  1  0  0  0
 50120  1  0  0  0
 50121  1  0  0  0
 51 52  1  0  0  0
 51122  1  0  0  0
 51123  1  0  0  0
 52124  1  0  0  0
 52125  1  0  0  0
 53 54  1  0  0  0
 54 55  2  0  0  0
 54126  1  0  0  0
 55 57  1  0  0  0
 55127  1  0  0  0
 56 69  2  0  0  0
 57 58  2  0  0  0
 57128  1  0  0  0
 58129  1  0  0  0
 59 60  1  0  0  0
 59 61  1  0  0  0
 59 62  1  0  0  0
 60130  1  0  0  0
 60131  1  0  0  0
 60132  1  0  0  0
 61133  1  0  0  0
 61134  1  0  0  0
 61135  1  0  0  0
 62136  1  0  0  0
 62137  1  0  0  0
 62138  1  0  0  0
 63 65  1  0  0  0
 63139  1  0  0  0
 63140  1  0  0  0
 63141  1  0  0  0
 64142  1  0  0  0
 65143  1  0  0  0
 68 81  1  0  0  0
 71 73  2  0  0  0
 71 74  1  0  0  0
 71144  1  0  0  0
 72 74  2  0  0  0
 72 76  1  0  0  0
 72145  1  0  0  0
 73 75  1  0  0  0
 73 77  1  0  0  0
 74 82  1  0  0  0
 75 76  2  0  0  0
 75 83  1  0  0  0
 76 84  1  0  0  0
 77146  1  0  0  0
 77147  1  0  0  0
 77148  1  0  0  0
 78 79  1  0  0  0
 78149  1  0  0  0
 78150  1  0  0  0
 78151  1  0  0  0
 79 83  1  0  0  0
 79152  1  0  0  0
 79153  1  0  0  0
 80 81  1  0  0  0
 80 82  1  0  0  0
 80154  1  0  0  0
 80155  1  0  0  0
 81156  1  0  0  0
 81157  1  0  0  0
 82158  1  0  0  0
M  ISO  4   1 100  68 101  81 101  83 100
M  END
> <chiral flag>
0

> <version>
0

> <s_m_source_file>
/data/baiqing/PycharmProjects/Reinvent-master-3.2/result/LINK_invent/BTK/process_docking_weight1_custom_product_contain_oxygen_bond_distance_aromatic_linkinvent_7_9_3/rearranged_h_0025.sdf

> <i_m_source_file_index>
28

> <r_mmod_Potential_Energy-OPLS-2005>
675.792419433594

> <r_mmod_Stretch_Energy-OPLS-2005>
233.560531616211

> <r_mmod_Bend_Energy-OPLS-2005>
297.714141845703

> <r_mmod_Torsional_Energy-OPLS-2005>
300.160369873047

> <r_mmod_Improper_Torsional_Energy-OPLS-2005>
10.1541614532471

> <r_mmod_Van_der_Waal_Energy-OPLS-2005>
133.379531860352

> <r_mmod_Electrostatic_Energy-OPLS-2005>
-273.980010986328

> <r_mmod_Solvation_Energy-OPLS-2005>
-200.954635620117

> <b_mmod_Minimization_Converged-OPLS-2005>
0

> <r_mmod_RMS_Derivative-OPLS-2005>
3.59641337394714

$$$$
28
                    3D
 Structure written by MMmdl.
155164  0  0  1  0            999 V2000
  -30.4583  -15.2558   20.3104 C   0  0  0  0  0  0
  -30.4249  -12.7885   19.5438 C   0  0  0  0  0  0
  -29.5449  -12.5908   18.2863 C   0  0  0  0  0  0
  -28.0780  -12.3444   18.6865 C   0  0  0  0  0  0
  -27.6078  -13.2961   19.8176 C   0  0  2  0  0  0
  -28.6378  -13.4746   20.9515 C   0  0  0  0  0  0
  -25.2342  -13.8286   20.5723 C   0  0  0  0  0  0
  -24.1716  -13.0447   20.9238 C   0  0  0  0  0  0
  -24.6427  -11.6955   20.8741 C   0  0  0  0  0  0
  -23.9128  -10.4307   21.0388 C   0  0  0  0  0  0
  -24.3673   -9.4217   21.9177 C   0  0  0  0  0  0
  -23.6328   -8.2256   22.0761 C   0  0  0  0  0  0
  -22.4306   -8.0302   21.3552 C   0  0  0  0  0  0
  -21.9941   -9.0286   20.4666 C   0  0  0  0  0  0
  -22.7285  -10.2149   20.3054 C   0  0  0  0  0  0
  -21.6874   -6.0738   22.5275 C   0  0  0  0  0  0
  -21.4035   -6.5633   23.8205 C   0  0  0  0  0  0
  -21.3671   -5.6786   24.9161 C   0  0  0  0  0  0
  -21.6050   -4.3049   24.7216 C   0  0  0  0  0  0
  -21.8822   -3.8140   23.4335 C   0  0  0  0  0  0
  -21.9196   -4.6962   22.3389 C   0  0  0  0  0  0
  -22.7724  -13.5187   21.1903 C   0  0  0  0  0  0
  -22.1652   -4.2144   21.0962 F   0  0  0  0  0  0
  -21.5630   -3.4533   25.7723 F   0  0  0  0  0  0
  -29.8751  -13.9584   20.3225 N   0  0  0  0  0  0
  -26.2803  -12.9616   20.3174 N   0  0  0  0  0  0
  -25.9374  -11.6699   20.5680 N   0  0  0  0  0  0
  -22.0382  -12.8192   22.0478 N   0  0  0  0  0  0
  -25.3922  -15.2022   20.4150 N   0  0  0  0  0  0
  -31.6842  -15.2074   20.1311 O   0  0  0  0  0  0
  -21.6660   -6.8896   21.4244 O   0  0  0  0  0  0
  -22.3382  -14.5486   20.6734 O   0  0  0  0  0  0
  -24.6575  -31.8287   23.1724 C   0  0  0  0  0  0
  -25.9280  -32.4617   23.8169 C   0  0  1  0  0  0
  -27.2022  -26.9685   20.1693 C   0  0  0  0  0  0
  -25.5960  -33.8428   24.2097 N   0  0  0  0  0  0
  -23.4672  -30.4441   21.5233 C   0  0  2  0  0  0
  -24.9128  -28.8347   20.1121 C   0  0  0  0  0  0
  -22.7628  -29.4478   22.4801 C   0  0  0  0  0  0
  -18.0304  -28.1435   22.8451 C   0  0  0  0  0  0
  -24.1501  -36.7223   23.2649 C   0  0  0  0  0  0
  -26.0325  -30.6513   21.3872 C   0  0  0  0  0  0
  -26.0978  -29.2429   20.7337 C   0  0  0  0  0  0
  -27.2412  -28.3301   20.7371 C   0  0  0  0  0  0
  -25.9850  -26.6942   19.5110 C   0  0  0  0  0  0
  -24.8759  -27.5795   19.4837 C   0  0  0  0  0  0
  -23.6987  -29.7618   20.1482 C   0  0  0  0  0  0
  -25.4133  -36.2994   24.0319 C   0  0  1  0  0  0
  -20.5931  -28.3758   23.1209 C   0  0  2  0  0  0
  -20.6792  -26.9448   22.5411 C   0  0  0  0  0  0
  -19.5768  -26.6390   21.5218 C   0  0  0  0  0  0
  -18.1948  -26.7960   22.1624 C   0  0  0  0  0  0
  -19.1571  -28.8909   23.2823 C   0  0  0  0  0  0
  -18.9478  -30.1499   23.8872 C   0  0  0  0  0  0
  -17.6480  -30.6620   24.0552 C   0  0  0  0  0  0
  -25.9104  -34.9373   23.5040 C   0  0  0  0  0  0
  -16.5366  -29.9114   23.6341 C   0  0  0  0  0  0
  -16.7294  -28.6532   23.0354 C   0  0  0  0  0  0
  -26.4562  -31.6509   25.0643 C   0  0  0  0  0  0
  -25.3701  -31.3705   26.1293 C   0  0  0  0  0  0
  -27.0427  -30.2894   24.6273 C   0  0  0  0  0  0
  -27.6084  -32.4271   25.7437 C   0  0  0  0  0  0
  -27.5593  -37.1750   24.8468 C   0  0  0  0  0  0
  -21.4305  -29.3052   22.3553 N   0  0  0  0  0  0
  -26.4290  -37.3716   23.9428 N   0  0  0  0  0  0
  -24.7412  -30.9998   22.0832 N   0  0  0  0  0  0
  -23.4190  -28.8058   23.3028 O   0  0  0  0  0  0
  -28.2337  -25.9051   20.2096 O   0  0  0  0  0  0
  -26.5716  -34.8893   22.4633 O   0  0  0  0  0  0
  -23.5656  -32.1255   23.6846 O   0  0  0  0  0  0
  -31.1133  -19.6801   17.3993 C   0  0  0  0  0  0
  -31.2469  -18.3076   17.3392 C   0  0  0  0  0  0
  -30.3805  -20.2419   18.4387 C   0  0  0  0  0  0
  -30.7191  -17.5179   18.3610 C   0  0  0  0  0  0
  -29.7184  -19.5398   19.4947 C   0  0  0  0  0  0
  -30.0110  -17.9604   19.5240 C   0  0  0  0  0  0
  -29.4636  -21.7377   21.0227 C   0  0  0  0  0  0
  -29.0184  -23.3339   21.2232 C   0  0  0  0  0  0
  -28.1105  -23.2653   19.0353 C   0  0  0  0  0  0
  -27.9390  -21.6330   19.3012 C   0  0  0  0  0  0
  -28.0604  -24.2733   20.2768 C   0  0  2  0  0  0
  -28.9334  -20.7907   20.1299 N   0  0  0  0  0  0
  -29.7462  -16.5731   20.3060 N   0  0  0  0  0  0
  -30.3545  -21.3605   21.7882 O   0  0  0  0  0  0
  -31.4635  -12.9494   19.2490 H   0  0  0  0  0  0
  -30.4342  -11.8841   20.1556 H   0  0  0  0  0  0
  -29.9214  -11.7635   17.6857 H   0  0  0  0  0  0
  -29.6146  -13.4818   17.6597 H   0  0  0  0  0  0
  -27.9948  -11.3111   19.0177 H   0  0  0  0  0  0
  -27.4285  -12.4418   17.8167 H   0  0  0  0  0  0
  -27.5262  -14.2714   19.3376 H   0  0  0  0  0  0
  -28.7876  -12.5497   21.5083 H   0  0  0  0  0  0
  -28.2864  -14.2156   21.6708 H   0  0  0  0  0  0
  -25.2827   -9.5681   22.4752 H   0  0  0  0  0  0
  -24.0035   -7.4651   22.7493 H   0  0  0  0  0  0
  -21.0857   -8.8831   19.8995 H   0  0  0  0  0  0
  -22.3758  -10.9695   19.6163 H   0  0  0  0  0  0
  -21.2044   -7.6143   23.9707 H   0  0  0  0  0  0
  -21.1487   -6.0502   25.9061 H   0  0  0  0  0  0
  -22.0596   -2.7608   23.2819 H   0  0  0  0  0  0
  -22.3998  -11.9882   22.4921 H   0  0  0  0  0  0
  -21.1006  -13.1224   22.2684 H   0  0  0  0  0  0
  -24.6216  -15.8497   20.5354 H   0  0  0  0  0  0
  -26.2325  -15.6498   20.0733 H   0  0  0  0  0  0
  -26.7331  -32.5190   23.0867 H   0  0  0  0  0  0
  -24.9994  -33.9499   25.0168 H   0  0  0  0  0  0
  -22.7798  -31.2771   21.3597 H   0  0  0  0  0  0
  -23.3792  -35.9525   23.3252 H   0  0  0  0  0  0
  -24.3611  -36.8921   22.2085 H   0  0  0  0  0  0
  -23.7219  -37.6383   23.6724 H   0  0  0  0  0  0
  -26.1932  -31.3933   20.6046 H   0  0  0  0  0  0
  -26.9019  -30.7208   22.0285 H   0  0  0  0  0  0
  -28.1439  -28.6396   21.2422 H   0  0  0  0  0  0
  -25.8617  -25.7340   19.0285 H   0  0  0  0  0  0
  -23.9668  -27.2602   18.9929 H   0  0  0  0  0  0
  -23.8478  -30.5325   19.3917 H   0  0  0  0  0  0
  -22.8042  -29.2195   19.8354 H   0  0  0  0  0  0
  -25.1314  -36.1806   25.0812 H   0  0  0  0  0  0
  -21.0015  -28.3379   24.1336 H   0  0  0  0  0  0
  -20.5707  -26.2376   23.3651 H   0  0  0  0  0  0
  -21.6665  -26.7467   22.1217 H   0  0  0  0  0  0
  -19.6963  -25.6288   21.1284 H   0  0  0  0  0  0
  -19.6736  -27.3171   20.6730 H   0  0  0  0  0  0
  -17.4225  -26.6666   21.4029 H   0  0  0  0  0  0
  -18.0373  -26.0128   22.9054 H   0  0  0  0  0  0
  -19.7963  -30.7291   24.2258 H   0  0  0  0  0  0
  -17.5047  -31.6308   24.5150 H   0  0  0  0  0  0
  -15.5378  -30.3013   23.7700 H   0  0  0  0  0  0
  -15.8679  -28.0853   22.7100 H   0  0  0  0  0  0
  -24.5920  -30.7033   25.7570 H   0  0  0  0  0  0
  -24.8841  -32.2877   26.4629 H   0  0  0  0  0  0
  -25.7947  -30.8917   27.0123 H   0  0  0  0  0  0
  -26.3048  -29.6588   24.1295 H   0  0  0  0  0  0
  -27.4043  -29.7227   25.4857 H   0  0  0  0  0  0
  -27.8961  -30.4122   23.9599 H   0  0  0  0  0  0
  -27.2717  -33.3629   26.1905 H   0  0  0  0  0  0
  -28.3957  -32.6716   25.0298 H   0  0  0  0  0  0
  -28.0667  -31.8437   26.5433 H   0  0  0  0  0  0
  -28.2544  -38.0103   24.7566 H   0  0  0  0  0  0
  -28.1145  -36.2631   24.6220 H   0  0  0  0  0  0
  -27.2316  -37.1315   25.8865 H   0  0  0  0  0  0
  -20.9545  -29.8714   21.6669 H   0  0  0  0  0  0
  -26.0152  -38.2781   24.1429 H   0  0  0  0  0  0
  -31.5387  -20.3072   16.6262 H   0  0  0  0  0  0
  -31.7644  -17.8512   16.5061 H   0  0  0  0  0  0
  -30.3161  -21.3191   18.3514 H   0  0  0  0  0  0
  -30.8856  -16.4736   18.1554 H   0  0  0  0  0  0
  -29.9717  -23.8614   21.2604 H   0  0  0  0  0  0
  -28.6271  -23.4170   22.2368 H   0  0  0  0  0  0
  -27.3346  -23.5790   18.3368 H   0  0  0  0  0  0
  -29.0473  -23.4257   18.4982 H   0  0  0  0  0  0
  -27.8433  -21.1509   18.3274 H   0  0  0  0  0  0
  -26.9589  -21.4876   19.7599 H   0  0  0  0  0  0
  -27.0565  -24.1550   20.6849 H   0  0  0  0  0  0
  -28.8187  -16.5126   20.7007 H   0  0  0  0  0  0
  1 25  1  0  0  0
  1 30  2  0  0  0
  1 83  1  0  0  0
  2  3  1  0  0  0
  2 25  1  0  0  0
  2 85  1  0  0  0
  2 86  1  0  0  0
  3  4  1  0  0  0
  3 87  1  0  0  0
  3 88  1  0  0  0
  4  5  1  0  0  0
  4 89  1  0  0  0
  4 90  1  0  0  0
  5  6  1  0  0  0
  5 26  1  0  0  0
  5 91  1  0  0  0
  6 25  1  0  0  0
  6 92  1  0  0  0
  6 93  1  0  0  0
  7  8  2  0  0  0
  7 26  1  0  0  0
  7 29  1  0  0  0
  8  9  1  0  0  0
  8 22  1  0  0  0
  9 10  1  0  0  0
  9 27  2  0  0  0
 10 11  2  0  0  0
 10 15  1  0  0  0
 11 12  1  0  0  0
 11 94  1  0  0  0
 12 13  2  0  0  0
 12 95  1  0  0  0
 13 14  1  0  0  0
 13 31  1  0  0  0
 14 15  2  0  0  0
 14 96  1  0  0  0
 15 97  1  0  0  0
 16 17  2  0  0  0
 16 21  1  0  0  0
 16 31  1  0  0  0
 17 18  1  0  0  0
 17 98  1  0  0  0
 18 19  2  0  0  0
 18 99  1  0  0  0
 19 20  1  0  0  0
 19 24  1  0  0  0
 20 21  2  0  0  0
 20100  1  0  0  0
 21 23  1  0  0  0
 22 28  1  0  0  0
 22 32  2  0  0  0
 26 27  1  0  0  0
 28101  1  0  0  0
 28102  1  0  0  0
 29103  1  0  0  0
 29104  1  0  0  0
 33 34  1  0  0  0
 33 66  1  0  0  0
 33 70  2  0  0  0
 34 36  1  0  0  0
 34 59  1  0  0  0
 34105  1  0  0  0
 35 44  2  0  0  0
 35 45  1  0  0  0
 35 68  1  0  0  0
 36 56  1  0  0  0
 36106  1  0  0  0
 37 39  1  0  0  0
 37 47  1  0  0  0
 37 66  1  0  0  0
 37107  1  0  0  0
 38 43  2  0  0  0
 38 46  1  0  0  0
 38 47  1  0  0  0
 39 64  1  0  0  0
 39 67  2  0  0  0
 40 52  1  0  0  0
 40 53  2  0  0  0
 40 58  1  0  0  0
 41108  1  0  0  0
 41109  1  0  0  0
 41110  1  0  0  0
 41 48  1  0  0  0
 42 43  1  0  0  0
 42 66  1  0  0  0
 42111  1  0  0  0
 42112  1  0  0  0
 43 44  1  0  0  0
 44113  1  0  0  0
 45 46  2  0  0  0
 45114  1  0  0  0
 46115  1  0  0  0
 47116  1  0  0  0
 47117  1  0  0  0
 48 56  1  0  0  0
 48 65  1  0  0  0
 48118  1  0  0  0
 49 50  1  0  0  0
 49 53  1  0  0  0
 49 64  1  0  0  0
 49119  1  0  0  0
 50 51  1  0  0  0
 50120  1  0  0  0
 50121  1  0  0  0
 51 52  1  0  0  0
 51122  1  0  0  0
 51123  1  0  0  0
 52124  1  0  0  0
 52125  1  0  0  0
 53 54  1  0  0  0
 54 55  2  0  0  0
 54126  1  0  0  0
 55 57  1  0  0  0
 55127  1  0  0  0
 56 69  2  0  0  0
 57 58  2  0  0  0
 57128  1  0  0  0
 58129  1  0  0  0
 59 60  1  0  0  0
 59 61  1  0  0  0
 59 62  1  0  0  0
 60130  1  0  0  0
 60131  1  0  0  0
 60132  1  0  0  0
 61133  1  0  0  0
 61134  1  0  0  0
 61135  1  0  0  0
 62136  1  0  0  0
 62137  1  0  0  0
 62138  1  0  0  0
 63 65  1  0  0  0
 63139  1  0  0  0
 63140  1  0  0  0
 63141  1  0  0  0
 64142  1  0  0  0
 65143  1  0  0  0
 68 81  1  0  0  0
 71 72  2  0  0  0
 71 73  1  0  0  0
 71144  1  0  0  0
 72 74  1  0  0  0
 72145  1  0  0  0
 73 75  2  0  0  0
 73146  1  0  0  0
 74 76  2  0  0  0
 74147  1  0  0  0
 75 76  1  0  0  0
 75 82  1  0  0  0
 76 83  1  0  0  0
 77 78  1  0  0  0
 77 82  1  0  0  0
 77 84  2  0  0  0
 78 81  1  0  0  0
 78148  1  0  0  0
 78149  1  0  0  0
 79 80  1  0  0  0
 79 81  1  0  0  0
 79150  1  0  0  0
 79151  1  0  0  0
 80 82  1  0  0  0
 80152  1  0  0  0
 80153  1  0  0  0
 81154  1  0  0  0
 83155  1  0  0  0
M  ISO  4   1 100  68 101  81 101  83 100
M  END
> <chiral flag>
0

> <version>
0

> <s_m_source_file>
/data/baiqing/PycharmProjects/Reinvent-master-3.2/result/LINK_invent/BTK/process_docking_weight1_custom_product_contain_oxygen_bond_distance_aromatic_linkinvent_7_9_3/rearranged_h_0025.sdf

> <i_m_source_file_index>
29

> <r_mmod_Potential_Energy-OPLS-2005>
1433.1533203125

> <r_mmod_Stretch_Energy-OPLS-2005>
537.378601074219

> <r_mmod_Bend_Energy-OPLS-2005>
581.203796386719

> <r_mmod_Torsional_Energy-OPLS-2005>
326.806213378906

> <r_mmod_Improper_Torsional_Energy-OPLS-2005>
7.46892738342285

> <r_mmod_Van_der_Waal_Energy-OPLS-2005>
158.637390136719

> <r_mmod_Electrostatic_Energy-OPLS-2005>
-365.741485595703

> <r_mmod_Solvation_Energy-OPLS-2005>
-233.857604980469

> <b_mmod_Minimization_Converged-OPLS-2005>
0

> <r_mmod_RMS_Derivative-OPLS-2005>
3.86185264587402

$$$$
29
                    3D
 Structure written by MMmdl.
161170  0  0  1  0            999 V2000
  -30.5178  -14.9218   20.4354 C   0  0  0  0  0  0
  -30.4485  -12.5670   19.4998 C   0  0  0  0  0  0
  -29.5281  -12.5377   18.2559 C   0  0  0  0  0  0
  -28.0584  -12.3234   18.6676 C   0  0  0  0  0  0
  -27.6372  -13.2391   19.8464 C   0  0  2  0  0  0
  -28.6775  -13.2275   20.9870 C   0  0  0  0  0  0
  -25.2498  -13.8183   20.5689 C   0  0  0  0  0  0
  -24.1806  -13.0441   20.9215 C   0  0  0  0  0  0
  -24.6407  -11.6919   20.8740 C   0  0  0  0  0  0
  -23.9083  -10.4303   21.0405 C   0  0  0  0  0  0
  -24.3631   -9.4208   21.9176 C   0  0  0  0  0  0
  -23.6299   -8.2244   22.0757 C   0  0  0  0  0  0
  -22.4280   -8.0296   21.3555 C   0  0  0  0  0  0
  -21.9924   -9.0274   20.4642 C   0  0  0  0  0  0
  -22.7260  -10.2150   20.3054 C   0  0  0  0  0  0
  -21.6880   -6.0732   22.5275 C   0  0  0  0  0  0
  -21.4026   -6.5632   23.8214 C   0  0  0  0  0  0
  -21.3673   -5.6779   24.9174 C   0  0  0  0  0  0
  -21.6060   -4.3044   24.7215 C   0  0  0  0  0  0
  -21.8827   -3.8133   23.4335 C   0  0  0  0  0  0
  -21.9204   -4.6953   22.3394 C   0  0  0  0  0  0
  -22.7835  -13.5201   21.1868 C   0  0  0  0  0  0
  -22.1675   -4.2148   21.0970 F   0  0  0  0  0  0
  -21.5627   -3.4529   25.7727 F   0  0  0  0  0  0
  -29.9624  -13.6449   20.4062 N   0  0  0  0  0  0
  -26.2918  -12.9400   20.3250 N   0  0  0  0  0  0
  -25.9332  -11.6537   20.5711 N   0  0  0  0  0  0
  -22.0497  -12.8197   22.0433 N   0  0  0  0  0  0
  -25.4178  -15.1901   20.4096 N   0  0  0  0  0  0
  -31.7051  -15.0427   20.1145 O   0  0  0  0  0  0
  -21.6663   -6.8887   21.4241 O   0  0  0  0  0  0
  -22.3519  -14.5511   20.6707 O   0  0  0  0  0  0
  -24.6423  -31.8480   23.1898 C   0  0  0  0  0  0
  -25.9202  -32.4720   23.8296 C   0  0  1  0  0  0
  -27.2216  -27.1619   20.1395 C   0  0  0  0  0  0
  -25.5977  -33.8530   24.2232 N   0  0  0  0  0  0
  -23.4447  -30.4639   21.5375 C   0  0  2  0  0  0
  -24.8922  -28.8919   20.1131 C   0  0  0  0  0  0
  -22.7576  -29.4539   22.4898 C   0  0  0  0  0  0
  -18.0311  -28.1371   22.8466 C   0  0  0  0  0  0
  -24.1490  -36.7254   23.2632 C   0  0  0  0  0  0
  -25.9994  -30.7242   21.3859 C   0  0  0  0  0  0
  -26.0689  -29.3375   20.7272 C   0  0  0  0  0  0
  -27.2376  -28.4900   20.7199 C   0  0  0  0  0  0
  -26.0201  -26.8106   19.4881 C   0  0  0  0  0  0
  -24.8781  -27.6390   19.4785 C   0  0  0  0  0  0
  -23.6690  -29.7946   20.1565 C   0  0  0  0  0  0
  -25.4125  -36.3061   24.0323 C   0  0  1  0  0  0
  -20.5913  -28.3690   23.1246 C   0  0  2  0  0  0
  -20.6787  -26.9401   22.5396 C   0  0  0  0  0  0
  -19.5771  -26.6352   21.5211 C   0  0  0  0  0  0
  -18.1947  -26.7905   22.1608 C   0  0  0  0  0  0
  -19.1558  -28.8856   23.2837 C   0  0  0  0  0  0
  -18.9477  -30.1453   23.8853 C   0  0  0  0  0  0
  -17.6470  -30.6564   24.0548 C   0  0  0  0  0  0
  -25.9081  -34.9429   23.5082 C   0  0  0  0  0  0
  -16.5360  -29.9049   23.6328 C   0  0  0  0  0  0
  -16.7292  -28.6469   23.0345 C   0  0  0  0  0  0
  -26.4520  -31.6557   25.0720 C   0  0  0  0  0  0
  -25.3692  -31.3738   26.1398 C   0  0  0  0  0  0
  -27.0382  -30.2963   24.6262 C   0  0  0  0  0  0
  -27.6082  -32.4274   25.7502 C   0  0  0  0  0  0
  -27.5597  -37.1785   24.8458 C   0  0  0  0  0  0
  -21.4273  -29.3024   22.3645 N   0  0  0  0  0  0
  -26.4298  -37.3775   23.9420 N   0  0  0  0  0  0
  -24.7152  -31.0326   22.0929 N   0  0  0  0  0  0
  -23.4221  -28.8080   23.3044 O   0  0  0  0  0  0
  -28.2982  -26.2100   20.1451 O   0  0  0  0  0  0
  -26.5648  -34.8917   22.4653 O   0  0  0  0  0  0
  -23.5537  -32.1353   23.7116 O   0  0  0  0  0  0
  -30.5168  -19.8745   19.9459 C   0  0  0  0  0  0
  -30.6251  -18.4223   19.9976 C   0  0  0  0  0  0
  -28.5324  -18.3375   21.1061 C   0  0  0  0  0  0
  -29.4173  -20.6552   20.4645 C   0  0  0  0  0  0
  -29.6445  -17.5604   20.5906 C   0  0  0  0  0  0
  -28.4219  -19.7979   21.0362 C   0  0  0  0  0  0
  -30.4266  -22.5964   21.5166 C   0  0  0  0  0  0
  -31.0934  -23.9664   21.2901 C   0  0  0  0  0  0
  -30.0620  -23.9507   18.9819 C   0  0  0  0  0  0
  -28.8821  -23.3782   19.7918 C   0  0  2  0  0  0
  -27.3986  -17.6000   21.8126 C   0  0  0  0  0  0
  -28.0795  -24.7043   20.4594 C   0  0  0  0  0  0
  -29.4600  -22.1870   20.6554 N   0  0  0  0  0  0
  -29.6599  -16.0246   20.6768 N   0  0  0  0  0  0
  -31.1660  -24.3944   19.8653 N   0  3  0  0  0  0
  -30.8036  -21.9141   22.4744 O   0  0  0  0  0  0
  -27.0366  -20.5768   21.7299 Cl  0  0  0  0  0  0
  -31.4850  -12.7295   19.1990 H   0  0  0  0  0  0
  -30.4352  -11.6008   20.0076 H   0  0  0  0  0  0
  -29.8404  -11.7473   17.5720 H   0  0  0  0  0  0
  -29.6250  -13.4759   17.7074 H   0  0  0  0  0  0
  -27.9461  -11.2759   18.9495 H   0  0  0  0  0  0
  -27.4035  -12.4800   17.8116 H   0  0  0  0  0  0
  -27.6105  -14.2494   19.4351 H   0  0  0  0  0  0
  -28.7587  -12.2357   21.4350 H   0  0  0  0  0  0
  -28.3728  -13.9027   21.7896 H   0  0  0  0  0  0
  -25.2806   -9.5690   22.4716 H   0  0  0  0  0  0
  -24.0046   -7.4637   22.7448 H   0  0  0  0  0  0
  -21.0883   -8.8781   19.8915 H   0  0  0  0  0  0
  -22.3739  -10.9684   19.6147 H   0  0  0  0  0  0
  -21.2018   -7.6146   23.9715 H   0  0  0  0  0  0
  -21.1496   -6.0509   25.9082 H   0  0  0  0  0  0
  -22.0587   -2.7590   23.2833 H   0  0  0  0  0  0
  -22.4150  -11.9883   22.4847 H   0  0  0  0  0  0
  -21.1089  -13.1174   22.2590 H   0  0  0  0  0  0
  -24.6438  -15.8371   20.5175 H   0  0  0  0  0  0
  -26.2506  -15.6286   20.0393 H   0  0  0  0  0  0
  -26.7276  -32.5324   23.1034 H   0  0  0  0  0  0
  -25.0196  -33.9678   25.0422 H   0  0  0  0  0  0
  -22.7452  -31.2890   21.3877 H   0  0  0  0  0  0
  -23.3806  -35.9533   23.3240 H   0  0  0  0  0  0
  -24.3590  -36.8928   22.2058 H   0  0  0  0  0  0
  -23.7169  -37.6406   23.6684 H   0  0  0  0  0  0
  -26.1569  -31.4808   20.6149 H   0  0  0  0  0  0
  -26.8695  -30.7708   22.0280 H   0  0  0  0  0  0
  -28.1383  -28.8330   21.2077 H   0  0  0  0  0  0
  -25.9472  -25.8614   18.9776 H   0  0  0  0  0  0
  -23.9821  -27.2984   18.9761 H   0  0  0  0  0  0
  -23.8096  -30.5721   19.4051 H   0  0  0  0  0  0
  -22.7827  -29.2409   19.8430 H   0  0  0  0  0  0
  -25.1310  -36.1915   25.0819 H   0  0  0  0  0  0
  -21.0013  -28.3262   24.1371 H   0  0  0  0  0  0
  -20.5690  -26.2317   23.3610 H   0  0  0  0  0  0
  -21.6656  -26.7405   22.1209 H   0  0  0  0  0  0
  -19.6939  -25.6263   21.1251 H   0  0  0  0  0  0
  -19.6705  -27.3153   20.6735 H   0  0  0  0  0  0
  -17.4229  -26.6664   21.3989 H   0  0  0  0  0  0
  -18.0326  -26.0044   22.8999 H   0  0  0  0  0  0
  -19.7952  -30.7284   24.2198 H   0  0  0  0  0  0
  -17.5013  -31.6243   24.5156 H   0  0  0  0  0  0
  -15.5353  -30.2931   23.7665 H   0  0  0  0  0  0
  -15.8699  -28.0775   22.7069 H   0  0  0  0  0  0
  -24.5909  -30.7051   25.7705 H   0  0  0  0  0  0
  -24.8832  -32.2912   26.4736 H   0  0  0  0  0  0
  -25.7966  -30.8974   27.0229 H   0  0  0  0  0  0
  -26.3003  -29.6684   24.1260 H   0  0  0  0  0  0
  -27.4018  -29.7259   25.4818 H   0  0  0  0  0  0
  -27.8895  -30.4240   23.9573 H   0  0  0  0  0  0
  -27.2737  -33.3590   26.2078 H   0  0  0  0  0  0
  -28.3908  -32.6781   25.0330 H   0  0  0  0  0  0
  -28.0726  -31.8372   26.5411 H   0  0  0  0  0  0
  -28.2583  -38.0115   24.7594 H   0  0  0  0  0  0
  -28.1131  -36.2662   24.6190 H   0  0  0  0  0  0
  -27.2330  -37.1320   25.8859 H   0  0  0  0  0  0
  -20.9484  -29.8770   21.6848 H   0  0  0  0  0  0
  -26.0174  -38.2847   24.1441 H   0  0  0  0  0  0
  -31.3558  -20.4061   19.5198 H   0  0  0  0  0  0
  -31.5114  -17.9665   19.5768 H   0  0  0  0  0  0
  -32.1063  -23.9387   21.6912 H   0  0  0  0  0  0
  -30.5558  -24.7160   21.8705 H   0  0  0  0  0  0
  -29.7492  -24.7699   18.3322 H   0  0  0  0  0  0
  -30.4551  -23.1767   18.3218 H   0  0  0  0  0  0
  -28.1957  -22.9287   19.0733 H   0  0  0  0  0  0
  -27.6243  -16.5635   22.0509 H   0  0  0  0  0  0
  -26.4993  -17.6233   21.1983 H   0  0  0  0  0  0
  -27.1642  -18.0779   22.7636 H   0  0  0  0  0  0
  -28.2018  -24.6354   21.5402 H   0  0  0  0  0  0
  -27.0197  -24.4886   20.3353 H   0  0  0  0  0  0
  -28.7623  -15.6670   20.9635 H   0  0  0  0  0  0
  -32.0259  -24.0594   19.4632 H   0  0  0  0  0  0
  -31.2150  -25.4002   19.8412 H   0  0  0  0  0  0
  1 25  1  0  0  0
  1 30  2  0  0  0
  1 84  1  0  0  0
  2  3  1  0  0  0
  2 25  1  0  0  0
  2 88  1  0  0  0
  2 89  1  0  0  0
  3  4  1  0  0  0
  3 90  1  0  0  0
  3 91  1  0  0  0
  4  5  1  0  0  0
  4 92  1  0  0  0
  4 93  1  0  0  0
  5  6  1  0  0  0
  5 26  1  0  0  0
  5 94  1  0  0  0
  6 25  1  0  0  0
  6 95  1  0  0  0
  6 96  1  0  0  0
  7  8  2  0  0  0
  7 26  1  0  0  0
  7 29  1  0  0  0
  8  9  1  0  0  0
  8 22  1  0  0  0
  9 10  1  0  0  0
  9 27  2  0  0  0
 10 11  2  0  0  0
 10 15  1  0  0  0
 11 12  1  0  0  0
 11 97  1  0  0  0
 12 13  2  0  0  0
 12 98  1  0  0  0
 13 14  1  0  0  0
 13 31  1  0  0  0
 14 15  2  0  0  0
 14 99  1  0  0  0
 15100  1  0  0  0
 16 17  2  0  0  0
 16 21  1  0  0  0
 16 31  1  0  0  0
 17 18  1  0  0  0
 17101  1  0  0  0
 18 19  2  0  0  0
 18102  1  0  0  0
 19 20  1  0  0  0
 19 24  1  0  0  0
 20 21  2  0  0  0
 20103  1  0  0  0
 21 23  1  0  0  0
 22 28  1  0  0  0
 22 32  2  0  0  0
 26 27  1  0  0  0
 28104  1  0  0  0
 28105  1  0  0  0
 29106  1  0  0  0
 29107  1  0  0  0
 33 34  1  0  0  0
 33 66  1  0  0  0
 33 70  2  0  0  0
 34 36  1  0  0  0
 34 59  1  0  0  0
 34108  1  0  0  0
 35 44  2  0  0  0
 35 45  1  0  0  0
 35 68  1  0  0  0
 36 56  1  0  0  0
 36109  1  0  0  0
 37 39  1  0  0  0
 37 47  1  0  0  0
 37 66  1  0  0  0
 37110  1  0  0  0
 38 43  2  0  0  0
 38 46  1  0  0  0
 38 47  1  0  0  0
 39 64  1  0  0  0
 39 67  2  0  0  0
 40 52  1  0  0  0
 40 53  2  0  0  0
 40 58  1  0  0  0
 41111  1  0  0  0
 41112  1  0  0  0
 41113  1  0  0  0
 41 48  1  0  0  0
 42 43  1  0  0  0
 42 66  1  0  0  0
 42114  1  0  0  0
 42115  1  0  0  0
 43 44  1  0  0  0
 44116  1  0  0  0
 45 46  2  0  0  0
 45117  1  0  0  0
 46118  1  0  0  0
 47119  1  0  0  0
 47120  1  0  0  0
 48 56  1  0  0  0
 48 65  1  0  0  0
 48121  1  0  0  0
 49 50  1  0  0  0
 49 53  1  0  0  0
 49 64  1  0  0  0
 49122  1  0  0  0
 50 51  1  0  0  0
 50123  1  0  0  0
 50124  1  0  0  0
 51 52  1  0  0  0
 51125  1  0  0  0
 51126  1  0  0  0
 52127  1  0  0  0
 52128  1  0  0  0
 53 54  1  0  0  0
 54 55  2  0  0  0
 54129  1  0  0  0
 55 57  1  0  0  0
 55130  1  0  0  0
 56 69  2  0  0  0
 57 58  2  0  0  0
 57131  1  0  0  0
 58132  1  0  0  0
 59 60  1  0  0  0
 59 61  1  0  0  0
 59 62  1  0  0  0
 60133  1  0  0  0
 60134  1  0  0  0
 60135  1  0  0  0
 61136  1  0  0  0
 61137  1  0  0  0
 61138  1  0  0  0
 62139  1  0  0  0
 62140  1  0  0  0
 62141  1  0  0  0
 63 65  1  0  0  0
 63142  1  0  0  0
 63143  1  0  0  0
 63144  1  0  0  0
 64145  1  0  0  0
 65146  1  0  0  0
 68 82  1  0  0  0
 71 72  2  0  0  0
 71 74  1  0  0  0
 71147  1  0  0  0
 72 75  1  0  0  0
 72148  1  0  0  0
 73 75  2  0  0  0
 73 76  1  0  0  0
 73 81  1  0  0  0
 74 76  2  0  0  0
 74 83  1  0  0  0
 75 84  1  0  0  0
 76 87  1  0  0  0
 77 78  1  0  0  0
 77 83  1  0  0  0
 77 86  2  0  0  0
 78 85  1  0  0  0
 78149  1  0  0  0
 78150  1  0  0  0
 79 80  1  0  0  0
 79 85  1  0  0  0
 79151  1  0  0  0
 79152  1  0  0  0
 80 82  1  0  0  0
 80 83  1  0  0  0
 80153  1  0  0  0
 81154  1  0  0  0
 81155  1  0  0  0
 81156  1  0  0  0
 82157  1  0  0  0
 82158  1  0  0  0
 84159  1  0  0  0
 85160  1  0  0  0
 85161  1  0  0  0
M  CHG  1  85   1
M  ISO  4   1 100  68 101  82 101  84 100
M  END
> <chiral flag>
0

> <version>
0

> <s_m_source_file>
/data/baiqing/PycharmProjects/Reinvent-master-3.2/result/LINK_invent/BTK/process_docking_weight1_custom_product_contain_oxygen_bond_distance_aromatic_linkinvent_7_9_3/rearranged_h_0025.sdf

> <i_m_source_file_index>
30

> <r_mmod_Potential_Energy-OPLS-2005>
278.716857910156

> <r_mmod_Stretch_Energy-OPLS-2005>
240.924285888672

> <r_mmod_Bend_Energy-OPLS-2005>
259.238525390625

> <r_mmod_Torsional_Energy-OPLS-2005>
381.07080078125

> <r_mmod_Improper_Torsional_Energy-OPLS-2005>
6.27689743041992

> <r_mmod_Van_der_Waal_Energy-OPLS-2005>
145.828826904297

> <r_mmod_Electrostatic_Energy-OPLS-2005>
-404.760467529297

> <r_mmod_Solvation_Energy-OPLS-2005>
-518.253845214844

> <b_mmod_Minimization_Converged-OPLS-2005>
0

> <r_mmod_RMS_Derivative-OPLS-2005>
3.27593445777893

$$$$
30
                    3D
 Structure written by MMmdl.
152161  0  0  1  0            999 V2000
  -30.6973  -14.8024   20.4845 C   0  0  0  0  0  0
  -30.4002  -12.5244   19.4671 C   0  0  0  0  0  0
  -29.4862  -12.4989   18.2294 C   0  0  0  0  0  0
  -28.0285  -12.2830   18.6666 C   0  0  0  0  0  0
  -27.6169  -13.2247   19.8255 C   0  0  2  0  0  0
  -28.6674  -13.2915   20.9558 C   0  0  0  0  0  0
  -25.2474  -13.8187   20.5737 C   0  0  0  0  0  0
  -24.1761  -13.0441   20.9244 C   0  0  0  0  0  0
  -24.6343  -11.6911   20.8786 C   0  0  0  0  0  0
  -23.9033  -10.4289   21.0435 C   0  0  0  0  0  0
  -24.3597   -9.4203   21.9196 C   0  0  0  0  0  0
  -23.6283   -8.2230   22.0757 C   0  0  0  0  0  0
  -22.4264   -8.0270   21.3546 C   0  0  0  0  0  0
  -21.9897   -9.0242   20.4645 C   0  0  0  0  0  0
  -22.7218  -10.2127   20.3068 C   0  0  0  0  0  0
  -21.6850   -6.0726   22.5278 C   0  0  0  0  0  0
  -21.4015   -6.5634   23.8210 C   0  0  0  0  0  0
  -21.3662   -5.6790   24.9172 C   0  0  0  0  0  0
  -21.6045   -4.3051   24.7230 C   0  0  0  0  0  0
  -21.8819   -3.8140   23.4350 C   0  0  0  0  0  0
  -21.9190   -4.6953   22.3400 C   0  0  0  0  0  0
  -22.7791  -13.5227   21.1892 C   0  0  0  0  0  0
  -22.1659   -4.2136   21.0978 F   0  0  0  0  0  0
  -21.5628   -3.4539   25.7747 F   0  0  0  0  0  0
  -29.9449  -13.6480   20.3320 N   0  0  0  0  0  0
  -26.2826  -12.9344   20.3251 N   0  0  0  0  0  0
  -25.9257  -11.6506   20.5782 N   0  0  0  0  0  0
  -22.0438  -12.8206   22.0441 N   0  0  0  0  0  0
  -25.4268  -15.1905   20.4169 N   0  0  0  0  0  0
  -31.9003  -14.7066   20.2289 O   0  0  0  0  0  0
  -21.6633   -6.8866   21.4238 O   0  0  0  0  0  0
  -22.3478  -14.5529   20.6736 O   0  0  0  0  0  0
  -24.6337  -31.8539   23.1991 C   0  0  0  0  0  0
  -25.9140  -32.4753   23.8338 C   0  0  1  0  0  0
  -27.2071  -27.2283   20.1329 C   0  0  0  0  0  0
  -25.5922  -33.8557   24.2254 N   0  0  0  0  0  0
  -23.4320  -30.4793   21.5432 C   0  0  2  0  0  0
  -24.8789  -28.9280   20.1068 C   0  0  0  0  0  0
  -22.7520  -29.4592   22.4894 C   0  0  0  0  0  0
  -18.0289  -28.1394   22.8493 C   0  0  0  0  0  0
  -24.1486  -36.7279   23.2647 C   0  0  0  0  0  0
  -25.9833  -30.7557   21.3876 C   0  0  0  0  0  0
  -26.0532  -29.3785   20.7239 C   0  0  0  0  0  0
  -27.2203  -28.5419   20.7257 C   0  0  0  0  0  0
  -26.0100  -26.8627   19.4756 C   0  0  0  0  0  0
  -24.8649  -27.6798   19.4698 C   0  0  0  0  0  0
  -23.6539  -29.8217   20.1567 C   0  0  0  0  0  0
  -25.4116  -36.3068   24.0329 C   0  0  1  0  0  0
  -20.5899  -28.3709   23.1271 C   0  0  2  0  0  0
  -20.6774  -26.9420   22.5416 C   0  0  0  0  0  0
  -19.5743  -26.6381   21.5230 C   0  0  0  0  0  0
  -18.1920  -26.7936   22.1635 C   0  0  0  0  0  0
  -19.1545  -28.8865   23.2876 C   0  0  0  0  0  0
  -18.9462  -30.1462   23.8903 C   0  0  0  0  0  0
  -17.6463  -30.6600   24.0564 C   0  0  0  0  0  0
  -25.9063  -34.9441   23.5100 C   0  0  0  0  0  0
  -16.5353  -29.9102   23.6333 C   0  0  0  0  0  0
  -16.7276  -28.6515   23.0366 C   0  0  0  0  0  0
  -26.4504  -31.6588   25.0741 C   0  0  0  0  0  0
  -25.3717  -31.3707   26.1440 C   0  0  0  0  0  0
  -27.0381  -30.3008   24.6259 C   0  0  0  0  0  0
  -27.6054  -32.4344   25.7505 C   0  0  0  0  0  0
  -27.5578  -37.1792   24.8465 C   0  0  0  0  0  0
  -21.4218  -29.3056   22.3655 N   0  0  0  0  0  0
  -26.4288  -37.3773   23.9410 N   0  0  0  0  0  0
  -24.7023  -31.0477   22.0991 N   0  0  0  0  0  0
  -23.4213  -28.8115   23.2985 O   0  0  0  0  0  0
  -28.2723  -26.2883   20.2112 O   0  0  0  0  0  0
  -26.5648  -34.8915   22.4676 O   0  0  0  0  0  0
  -23.5481  -32.1386   23.7265 O   0  0  0  0  0  0
  -31.0582  -19.7164   21.6898 C   0  0  0  0  0  0
  -30.3653  -20.9072   21.3259 C   0  0  0  0  0  0
  -28.6956  -19.5626   20.1709 C   0  0  0  0  0  0
  -29.4077  -18.3533   20.5480 C   0  0  0  0  0  0
  -30.5606  -18.4586   21.2820 C   0  0  0  0  0  0
  -29.1693  -20.8905   20.5547 C   0  0  0  0  0  0
  -29.1809  -16.8580   20.2535 C   0  0  0  0  0  0
  -31.1259  -17.0585   21.4896 C   0  0  0  0  0  0
  -28.9460  -23.5776   20.4664 C   0  0  0  0  0  0
  -27.9760  -24.8117   20.0059 C   0  0  0  0  0  0
  -30.2159  -16.0953   20.7823 N   0  0  0  0  0  0
  -28.4987  -22.1364   20.2000 N   0  0  0  0  0  0
  -28.2224  -16.4658   19.5845 O   0  0  0  0  0  0
  -31.4378  -12.6198   19.1449 H   0  0  0  0  0  0
  -30.3465  -11.5789   20.0089 H   0  0  0  0  0  0
  -29.7931  -11.7077   17.5437 H   0  0  0  0  0  0
  -29.5750  -13.4374   17.6799 H   0  0  0  0  0  0
  -27.9303  -11.2444   18.9836 H   0  0  0  0  0  0
  -27.3543  -12.4076   17.8182 H   0  0  0  0  0  0
  -27.5596  -14.1997   19.3566 H   0  0  0  0  0  0
  -28.7421  -12.3385   21.4819 H   0  0  0  0  0  0
  -28.3828  -14.0398   21.6973 H   0  0  0  0  0  0
  -25.2738   -9.5677   22.4774 H   0  0  0  0  0  0
  -23.9991   -7.4619   22.7472 H   0  0  0  0  0  0
  -21.0829   -8.8760   19.8945 H   0  0  0  0  0  0
  -22.3675  -10.9669   19.6181 H   0  0  0  0  0  0
  -21.2015   -7.6146   23.9708 H   0  0  0  0  0  0
  -21.1485   -6.0525   25.9077 H   0  0  0  0  0  0
  -22.0596   -2.7599   23.2858 H   0  0  0  0  0  0
  -22.4063  -11.9866   22.4816 H   0  0  0  0  0  0
  -21.1057  -13.1223   22.2663 H   0  0  0  0  0  0
  -24.6754  -15.8596   20.5425 H   0  0  0  0  0  0
  -26.2888  -15.6148   20.0842 H   0  0  0  0  0  0
  -26.7205  -32.5389   23.1074 H   0  0  0  0  0  0
  -25.0011  -33.9695   25.0353 H   0  0  0  0  0  0
  -22.7293  -31.3033   21.3998 H   0  0  0  0  0  0
  -23.3763  -35.9593   23.3299 H   0  0  0  0  0  0
  -24.3575  -36.8933   22.2065 H   0  0  0  0  0  0
  -23.7229  -37.6467   23.6692 H   0  0  0  0  0  0
  -26.1315  -31.5192   20.6230 H   0  0  0  0  0  0
  -26.8571  -30.7987   22.0261 H   0  0  0  0  0  0
  -28.1141  -28.8770   21.2336 H   0  0  0  0  0  0
  -25.9187  -25.9115   18.9739 H   0  0  0  0  0  0
  -23.9677  -27.3340   18.9746 H   0  0  0  0  0  0
  -23.7869  -30.6064   19.4108 H   0  0  0  0  0  0
  -22.7701  -29.2654   19.8402 H   0  0  0  0  0  0
  -25.1300  -36.1918   25.0824 H   0  0  0  0  0  0
  -20.9989  -28.3290   24.1396 H   0  0  0  0  0  0
  -20.5686  -26.2312   23.3623 H   0  0  0  0  0  0
  -21.6635  -26.7440   22.1196 H   0  0  0  0  0  0
  -19.6898  -25.6288   21.1269 H   0  0  0  0  0  0
  -19.6684  -27.3187   20.6758 H   0  0  0  0  0  0
  -17.4188  -26.6701   21.4035 H   0  0  0  0  0  0
  -18.0301  -26.0079   22.9029 H   0  0  0  0  0  0
  -19.7937  -30.7266   24.2292 H   0  0  0  0  0  0
  -17.5027  -31.6292   24.5142 H   0  0  0  0  0  0
  -15.5357  -30.3011   23.7662 H   0  0  0  0  0  0
  -15.8671  -28.0839   22.7093 H   0  0  0  0  0  0
  -24.5929  -30.7021   25.7747 H   0  0  0  0  0  0
  -24.8845  -32.2848   26.4856 H   0  0  0  0  0  0
  -25.8030  -30.8894   27.0226 H   0  0  0  0  0  0
  -26.2982  -29.6727   24.1288 H   0  0  0  0  0  0
  -27.4064  -29.7308   25.4800 H   0  0  0  0  0  0
  -27.8857  -30.4290   23.9525 H   0  0  0  0  0  0
  -27.2678  -33.3678   26.2024 H   0  0  0  0  0  0
  -28.3883  -32.6859   25.0332 H   0  0  0  0  0  0
  -28.0696  -31.8502   26.5467 H   0  0  0  0  0  0
  -28.2580  -38.0106   24.7543 H   0  0  0  0  0  0
  -28.1099  -36.2642   24.6264 H   0  0  0  0  0  0
  -27.2295  -37.1409   25.8868 H   0  0  0  0  0  0
  -20.9400  -29.8818   21.6895 H   0  0  0  0  0  0
  -26.0173  -38.2842   24.1428 H   0  0  0  0  0  0
  -31.9688  -19.7788   22.2699 H   0  0  0  0  0  0
  -30.7784  -21.8511   21.6522 H   0  0  0  0  0  0
  -27.7968  -19.4609   19.5799 H   0  0  0  0  0  0
  -31.1626  -16.8241   22.5547 H   0  0  0  0  0  0
  -32.1465  -17.0327   21.1043 H   0  0  0  0  0  0
  -29.1310  -23.6767   21.5370 H   0  0  0  0  0  0
  -29.9151  -23.7151   19.9851 H   0  0  0  0  0  0
  -27.0157  -24.6108   20.4830 H   0  0  0  0  0  0
  -27.8098  -24.6862   18.9351 H   0  0  0  0  0  0
  -27.6231  -22.0476   19.6883 H   0  0  0  0  0  0
  1 25  1  0  0  0
  1 30  2  0  0  0
  1 81  1  0  0  0
  2  3  1  0  0  0
  2 25  1  0  0  0
  2 84  1  0  0  0
  2 85  1  0  0  0
  3  4  1  0  0  0
  3 86  1  0  0  0
  3 87  1  0  0  0
  4  5  1  0  0  0
  4 88  1  0  0  0
  4 89  1  0  0  0
  5  6  1  0  0  0
  5 26  1  0  0  0
  5 90  1  0  0  0
  6 25  1  0  0  0
  6 91  1  0  0  0
  6 92  1  0  0  0
  7  8  2  0  0  0
  7 26  1  0  0  0
  7 29  1  0  0  0
  8  9  1  0  0  0
  8 22  1  0  0  0
  9 10  1  0  0  0
  9 27  2  0  0  0
 10 11  2  0  0  0
 10 15  1  0  0  0
 11 12  1  0  0  0
 11 93  1  0  0  0
 12 13  2  0  0  0
 12 94  1  0  0  0
 13 14  1  0  0  0
 13 31  1  0  0  0
 14 15  2  0  0  0
 14 95  1  0  0  0
 15 96  1  0  0  0
 16 17  2  0  0  0
 16 21  1  0  0  0
 16 31  1  0  0  0
 17 18  1  0  0  0
 17 97  1  0  0  0
 18 19  2  0  0  0
 18 98  1  0  0  0
 19 20  1  0  0  0
 19 24  1  0  0  0
 20 21  2  0  0  0
 20 99  1  0  0  0
 21 23  1  0  0  0
 22 28  1  0  0  0
 22 32  2  0  0  0
 26 27  1  0  0  0
 28100  1  0  0  0
 28101  1  0  0  0
 29102  1  0  0  0
 29103  1  0  0  0
 33 34  1  0  0  0
 33 66  1  0  0  0
 33 70  2  0  0  0
 34 36  1  0  0  0
 34 59  1  0  0  0
 34104  1  0  0  0
 35 44  2  0  0  0
 35 45  1  0  0  0
 35 68  1  0  0  0
 36 56  1  0  0  0
 36105  1  0  0  0
 37 39  1  0  0  0
 37 47  1  0  0  0
 37 66  1  0  0  0
 37106  1  0  0  0
 38 43  2  0  0  0
 38 46  1  0  0  0
 38 47  1  0  0  0
 39 64  1  0  0  0
 39 67  2  0  0  0
 40 52  1  0  0  0
 40 53  2  0  0  0
 40 58  1  0  0  0
 41107  1  0  0  0
 41108  1  0  0  0
 41109  1  0  0  0
 41 48  1  0  0  0
 42 43  1  0  0  0
 42 66  1  0  0  0
 42110  1  0  0  0
 42111  1  0  0  0
 43 44  1  0  0  0
 44112  1  0  0  0
 45 46  2  0  0  0
 45113  1  0  0  0
 46114  1  0  0  0
 47115  1  0  0  0
 47116  1  0  0  0
 48 56  1  0  0  0
 48 65  1  0  0  0
 48117  1  0  0  0
 49 50  1  0  0  0
 49 53  1  0  0  0
 49 64  1  0  0  0
 49118  1  0  0  0
 50 51  1  0  0  0
 50119  1  0  0  0
 50120  1  0  0  0
 51 52  1  0  0  0
 51121  1  0  0  0
 51122  1  0  0  0
 52123  1  0  0  0
 52124  1  0  0  0
 53 54  1  0  0  0
 54 55  2  0  0  0
 54125  1  0  0  0
 55 57  1  0  0  0
 55126  1  0  0  0
 56 69  2  0  0  0
 57 58  2  0  0  0
 57127  1  0  0  0
 58128  1  0  0  0
 59 60  1  0  0  0
 59 61  1  0  0  0
 59 62  1  0  0  0
 60129  1  0  0  0
 60130  1  0  0  0
 60131  1  0  0  0
 61132  1  0  0  0
 61133  1  0  0  0
 61134  1  0  0  0
 62135  1  0  0  0
 62136  1  0  0  0
 62137  1  0  0  0
 63 65  1  0  0  0
 63138  1  0  0  0
 63139  1  0  0  0
 63140  1  0  0  0
 64141  1  0  0  0
 65142  1  0  0  0
 68 80  1  0  0  0
 71 72  2  0  0  0
 71 75  1  0  0  0
 71143  1  0  0  0
 72 76  1  0  0  0
 72144  1  0  0  0
 73 74  1  0  0  0
 73 76  2  0  0  0
 73145  1  0  0  0
 74 75  2  0  0  0
 74 77  1  0  0  0
 75 78  1  0  0  0
 76 82  1  0  0  0
 77 81  1  0  0  0
 77 83  2  0  0  0
 78 81  1  0  0  0
 78146  1  0  0  0
 78147  1  0  0  0
 79 80  1  0  0  0
 79 82  1  0  0  0
 79148  1  0  0  0
 79149  1  0  0  0
 80150  1  0  0  0
 80151  1  0  0  0
 82152  1  0  0  0
M  ISO  4   1 100  68 101  80 101  81 100
M  END
> <chiral flag>
0

> <version>
0

> <s_m_source_file>
/data/baiqing/PycharmProjects/Reinvent-master-3.2/result/LINK_invent/BTK/process_docking_weight1_custom_product_contain_oxygen_bond_distance_aromatic_linkinvent_7_9_3/rearranged_h_0025.sdf

> <i_m_source_file_index>
31

> <r_mmod_Potential_Energy-OPLS-2005>
330.080718994141

> <r_mmod_Stretch_Energy-OPLS-2005>
140.74250793457

> <r_mmod_Bend_Energy-OPLS-2005>
273.834686279297

> <r_mmod_Torsional_Energy-OPLS-2005>
242.78694152832

> <r_mmod_Improper_Torsional_Energy-OPLS-2005>
3.76072311401367

> <r_mmod_Van_der_Waal_Energy-OPLS-2005>
139.69873046875

> <r_mmod_Electrostatic_Energy-OPLS-2005>
-395.613250732422

> <r_mmod_Solvation_Energy-OPLS-2005>
-199.99772644043

> <b_mmod_Minimization_Converged-OPLS-2005>
0

> <r_mmod_RMS_Derivative-OPLS-2005>
1.31744515895844

$$$$
31
                    3D
 Structure written by MMmdl.
172181  0  0  1  0            999 V2000
  -30.7460  -14.5813   20.5109 C   0  0  0  0  0  0
  -30.4126  -12.3595   19.4646 C   0  0  0  0  0  0
  -29.5019  -12.4936   18.2287 C   0  0  0  0  0  0
  -28.0263  -12.3479   18.6428 C   0  0  0  0  0  0
  -27.6548  -13.2328   19.8632 C   0  0  2  0  0  0
  -28.7006  -13.1363   21.0003 C   0  0  0  0  0  0
  -25.2541  -13.8240   20.5704 C   0  0  0  0  0  0
  -24.1811  -13.0484   20.9201 C   0  0  0  0  0  0
  -24.6401  -11.6959   20.8743 C   0  0  0  0  0  0
  -23.9060  -10.4333   21.0425 C   0  0  0  0  0  0
  -24.3605   -9.4238   21.9193 C   0  0  0  0  0  0
  -23.6286   -8.2258   22.0770 C   0  0  0  0  0  0
  -22.4263   -8.0291   21.3567 C   0  0  0  0  0  0
  -21.9897   -9.0273   20.4668 C   0  0  0  0  0  0
  -22.7224  -10.2163   20.3071 C   0  0  0  0  0  0
  -21.6843   -6.0729   22.5281 C   0  0  0  0  0  0
  -21.4010   -6.5633   23.8214 C   0  0  0  0  0  0
  -21.3663   -5.6793   24.9176 C   0  0  0  0  0  0
  -21.6039   -4.3053   24.7230 C   0  0  0  0  0  0
  -21.8811   -3.8136   23.4350 C   0  0  0  0  0  0
  -21.9186   -4.6958   22.3399 C   0  0  0  0  0  0
  -22.7812  -13.5268   21.1839 C   0  0  0  0  0  0
  -22.1648   -4.2157   21.0972 F   0  0  0  0  0  0
  -21.5654   -3.4533   25.7731 F   0  0  0  0  0  0
  -30.0267  -13.4169   20.4267 N   0  0  0  0  0  0
  -26.3002  -12.9463   20.3349 N   0  0  0  0  0  0
  -25.9341  -11.6598   20.5772 N   0  0  0  0  0  0
  -22.0394  -12.8325   22.0403 N   0  0  0  0  0  0
  -25.4251  -15.1962   20.4104 N   0  0  0  0  0  0
  -31.8649  -14.6464   19.9987 O   0  0  0  0  0  0
  -21.6636   -6.8871   21.4239 O   0  0  0  0  0  0
  -22.3508  -14.5553   20.6658 O   0  0  0  0  0  0
  -24.6259  -31.8637   23.2092 C   0  0  0  0  0  0
  -25.9130  -32.4810   23.8386 C   0  0  1  0  0  0
  -27.2203  -27.3433   20.1015 C   0  0  0  0  0  0
  -25.5983  -33.8611   24.2317 N   0  0  0  0  0  0
  -23.4193  -30.4920   21.5490 C   0  0  2  0  0  0
  -24.8670  -28.9661   20.1039 C   0  0  0  0  0  0
  -22.7467  -29.4662   22.4928 C   0  0  0  0  0  0
  -18.0297  -28.1397   22.8464 C   0  0  0  0  0  0
  -24.1506  -36.7290   23.2632 C   0  0  0  0  0  0
  -25.9615  -30.8014   21.3835 C   0  0  0  0  0  0
  -26.0353  -29.4341   20.7193 C   0  0  0  0  0  0
  -27.2146  -28.6305   20.7192 C   0  0  0  0  0  0
  -26.0328  -26.9500   19.4349 C   0  0  0  0  0  0
  -24.8686  -27.7296   19.4510 C   0  0  0  0  0  0
  -23.6323  -29.8368   20.1610 C   0  0  0  0  0  0
  -25.4130  -36.3102   24.0328 C   0  0  1  0  0  0
  -20.5896  -28.3714   23.1280 C   0  0  2  0  0  0
  -20.6817  -26.9439   22.5411 C   0  0  0  0  0  0
  -19.5791  -26.6389   21.5217 C   0  0  0  0  0  0
  -18.1953  -26.7951   22.1596 C   0  0  0  0  0  0
  -19.1543  -28.8868   23.2869 C   0  0  0  0  0  0
  -18.9461  -30.1473   23.8884 C   0  0  0  0  0  0
  -17.6457  -30.6597   24.0563 C   0  0  0  0  0  0
  -25.9047  -34.9464   23.5097 C   0  0  0  0  0  0
  -16.5347  -29.9078   23.6343 C   0  0  0  0  0  0
  -16.7282  -28.6507   23.0339 C   0  0  0  0  0  0
  -26.4491  -31.6628   25.0757 C   0  0  0  0  0  0
  -25.3689  -31.3806   26.1465 C   0  0  0  0  0  0
  -27.0338  -30.3059   24.6228 C   0  0  0  0  0  0
  -27.6070  -32.4335   25.7516 C   0  0  0  0  0  0
  -27.5589  -37.1814   24.8446 C   0  0  0  0  0  0
  -21.4181  -29.3059   22.3655 N   0  0  0  0  0  0
  -26.4309  -37.3797   23.9387 N   0  0  0  0  0  0
  -24.6876  -31.0661   22.1048 N   0  0  0  0  0  0
  -23.4184  -28.8170   23.2996 O   0  0  0  0  0  0
  -28.3093  -26.4567   20.1761 O   0  0  0  0  0  0
  -26.5539  -34.8924   22.4620 O   0  0  0  0  0  0
  -23.5427  -32.1428   23.7411 O   0  0  0  0  0  0
  -30.0360  -18.2269   20.6258 C   0  0  0  0  0  0
  -32.7476  -18.4814   21.2532 C   0  0  0  0  0  0
  -30.6645  -19.5192   20.4632 C   0  0  0  0  0  0
  -32.0624  -19.5876   20.7114 C   0  0  0  0  0  0
  -30.7661  -17.0532   21.0302 C   0  0  0  0  0  0
  -32.1100  -17.2499   21.4632 C   0  0  0  0  0  0
  -28.0776  -22.4265   20.4630 C   0  0  0  0  0  0
  -34.3707  -22.4295   20.8868 C   0  0  0  0  0  0
  -34.8055  -21.7357   19.5942 C   0  0  0  0  0  0
  -33.3973  -21.4494   21.5325 C   0  0  0  0  0  0
  -33.7355  -20.6724   19.3220 C   0  0  0  0  0  0
  -26.8323  -20.7036   18.2530 C   0  0  0  0  0  0
  -30.0246  -20.8714   19.9442 C   0  0  0  0  0  0
  -28.8656  -23.7979   20.4549 C   0  0  0  0  0  0
  -27.6779  -20.2092   19.4439 C   0  0  0  0  0  0
  -27.9613  -25.0261   20.0121 C   0  0  0  0  0  0
  -32.7737  -20.7662   20.4149 N   0  0  0  0  0  0
  -30.1644  -15.7159   21.0122 N   0  0  0  0  0  0
  -28.5858  -21.2250   20.0117 N   0  0  0  0  0  0
  -26.9013  -22.4728   20.8375 O   0  0  0  0  0  0
  -33.0124  -16.0428   22.3185 Cl  0  0  0  0  0  0
  -31.4648  -12.4105   19.1713 H   0  0  0  0  0  0
  -30.2910  -11.3757   19.9219 H   0  0  0  0  0  0
  -29.7608  -11.7321   17.4900 H   0  0  0  0  0  0
  -29.6611  -13.4614   17.7488 H   0  0  0  0  0  0
  -27.8569  -11.2962   18.8801 H   0  0  0  0  0  0
  -27.3704  -12.5752   17.8029 H   0  0  0  0  0  0
  -27.6682  -14.2601   19.4987 H   0  0  0  0  0  0
  -28.6969  -12.1442   21.4553 H   0  0  0  0  0  0
  -28.4631  -13.8391   21.8022 H   0  0  0  0  0  0
  -25.2740   -9.5745   22.4783 H   0  0  0  0  0  0
  -24.0009   -7.4657   22.7502 H   0  0  0  0  0  0
  -21.0830   -8.8783   19.8983 H   0  0  0  0  0  0
  -22.3663  -10.9691   19.6195 H   0  0  0  0  0  0
  -21.1997   -7.6134   23.9727 H   0  0  0  0  0  0
  -21.1496   -6.0511   25.9090 H   0  0  0  0  0  0
  -22.0592   -2.7606   23.2828 H   0  0  0  0  0  0
  -22.3933  -11.9997   22.4833 H   0  0  0  0  0  0
  -21.1021  -13.1466   22.2542 H   0  0  0  0  0  0
  -24.6606  -15.8510   20.5313 H   0  0  0  0  0  0
  -26.2778  -15.6332   20.0863 H   0  0  0  0  0  0
  -26.7196  -32.5493   23.1135 H   0  0  0  0  0  0
  -25.0301  -33.9769   25.0574 H   0  0  0  0  0  0
  -22.7157  -31.3159   21.4096 H   0  0  0  0  0  0
  -23.3787  -35.9601   23.3283 H   0  0  0  0  0  0
  -24.3609  -36.8904   22.2048 H   0  0  0  0  0  0
  -23.7238  -37.6493   23.6629 H   0  0  0  0  0  0
  -26.0901  -31.5727   20.6232 H   0  0  0  0  0  0
  -26.8433  -30.8485   22.0102 H   0  0  0  0  0  0
  -28.1017  -28.9753   21.2333 H   0  0  0  0  0  0
  -25.9570  -26.0173   18.8991 H   0  0  0  0  0  0
  -23.9810  -27.3756   18.9455 H   0  0  0  0  0  0
  -23.7415  -30.6157   19.4063 H   0  0  0  0  0  0
  -22.7559  -29.2584   19.8625 H   0  0  0  0  0  0
  -25.1318  -36.1961   25.0826 H   0  0  0  0  0  0
  -20.9991  -28.3319   24.1402 H   0  0  0  0  0  0
  -20.5796  -26.2303   23.3599 H   0  0  0  0  0  0
  -21.6681  -26.7529   22.1164 H   0  0  0  0  0  0
  -19.6970  -25.6286   21.1276 H   0  0  0  0  0  0
  -19.6773  -27.3179   20.6725 H   0  0  0  0  0  0
  -17.4253  -26.6721   21.3965 H   0  0  0  0  0  0
  -18.0326  -26.0094   22.8987 H   0  0  0  0  0  0
  -19.7936  -30.7301   24.2247 H   0  0  0  0  0  0
  -17.5010  -31.6282   24.5147 H   0  0  0  0  0  0
  -15.5347  -30.2961   23.7705 H   0  0  0  0  0  0
  -15.8686  -28.0835   22.7036 H   0  0  0  0  0  0
  -24.5858  -30.7168   25.7791 H   0  0  0  0  0  0
  -24.8871  -32.2990   26.4838 H   0  0  0  0  0  0
  -25.7978  -30.9018   27.0275 H   0  0  0  0  0  0
  -26.2940  -29.6818   24.1217 H   0  0  0  0  0  0
  -27.3997  -29.7337   25.4762 H   0  0  0  0  0  0
  -27.8813  -30.4359   23.9496 H   0  0  0  0  0  0
  -27.2726  -33.3645   26.2108 H   0  0  0  0  0  0
  -28.3884  -32.6882   25.0337 H   0  0  0  0  0  0
  -28.0730  -31.8433   26.5420 H   0  0  0  0  0  0
  -28.2606  -38.0117   24.7515 H   0  0  0  0  0  0
  -28.1091  -36.2649   24.6252 H   0  0  0  0  0  0
  -27.2284  -37.1436   25.8843 H   0  0  0  0  0  0
  -20.9348  -29.8756   21.6848 H   0  0  0  0  0  0
  -26.0193  -38.2873   24.1403 H   0  0  0  0  0  0
  -28.9894  -18.0887   20.4097 H   0  0  0  0  0  0
  -33.7934  -18.5714   21.5153 H   0  0  0  0  0  0
  -33.8561  -23.3598   20.6432 H   0  0  0  0  0  0
  -35.2074  -22.6732   21.5428 H   0  0  0  0  0  0
  -35.7785  -21.2600   19.7206 H   0  0  0  0  0  0
  -34.8948  -22.4433   18.7691 H   0  0  0  0  0  0
  -32.6542  -21.9689   22.1398 H   0  0  0  0  0  0
  -33.9295  -20.7456   22.1729 H   0  0  0  0  0  0
  -34.1877  -19.6822   19.2657 H   0  0  0  0  0  0
  -33.2339  -20.8593   18.3712 H   0  0  0  0  0  0
  -26.2130  -19.8934   17.8662 H   0  0  0  0  0  0
  -27.4695  -21.0390   17.4344 H   0  0  0  0  0  0
  -26.1605  -21.5212   18.5171 H   0  0  0  0  0  0
  -30.3372  -20.9956   18.9083 H   0  0  0  0  0  0
  -30.5161  -21.6735   20.4926 H   0  0  0  0  0  0
  -29.7420  -23.7365   19.8107 H   0  0  0  0  0  0
  -29.2283  -23.9589   21.4699 H   0  0  0  0  0  0
  -28.2507  -19.3833   19.0311 H   0  0  0  0  0  0
  -27.0403  -19.8026   20.2328 H   0  0  0  0  0  0
  -27.0209  -24.8925   20.5453 H   0  0  0  0  0  0
  -27.7604  -24.8712   18.9528 H   0  0  0  0  0  0
  -29.1878  -15.6455   21.2520 H   0  0  0  0  0  0
  1 25  1  0  0  0
  1 30  2  0  0  0
  1 88  1  0  0  0
  2  3  1  0  0  0
  2 25  1  0  0  0
  2 92  1  0  0  0
  2 93  1  0  0  0
  3  4  1  0  0  0
  3 94  1  0  0  0
  3 95  1  0  0  0
  4  5  1  0  0  0
  4 96  1  0  0  0
  4 97  1  0  0  0
  5  6  1  0  0  0
  5 26  1  0  0  0
  5 98  1  0  0  0
  6 25  1  0  0  0
  6 99  1  0  0  0
  6100  1  0  0  0
  7  8  2  0  0  0
  7 26  1  0  0  0
  7 29  1  0  0  0
  8  9  1  0  0  0
  8 22  1  0  0  0
  9 10  1  0  0  0
  9 27  2  0  0  0
 10 11  2  0  0  0
 10 15  1  0  0  0
 11 12  1  0  0  0
 11101  1  0  0  0
 12 13  2  0  0  0
 12102  1  0  0  0
 13 14  1  0  0  0
 13 31  1  0  0  0
 14 15  2  0  0  0
 14103  1  0  0  0
 15104  1  0  0  0
 16 17  2  0  0  0
 16 21  1  0  0  0
 16 31  1  0  0  0
 17 18  1  0  0  0
 17105  1  0  0  0
 18 19  2  0  0  0
 18106  1  0  0  0
 19 20  1  0  0  0
 19 24  1  0  0  0
 20 21  2  0  0  0
 20107  1  0  0  0
 21 23  1  0  0  0
 22 28  1  0  0  0
 22 32  2  0  0  0
 26 27  1  0  0  0
 28108  1  0  0  0
 28109  1  0  0  0
 29110  1  0  0  0
 29111  1  0  0  0
 33 34  1  0  0  0
 33 66  1  0  0  0
 33 70  2  0  0  0
 34 36  1  0  0  0
 34 59  1  0  0  0
 34112  1  0  0  0
 35 44  2  0  0  0
 35 45  1  0  0  0
 35 68  1  0  0  0
 36 56  1  0  0  0
 36113  1  0  0  0
 37 39  1  0  0  0
 37 47  1  0  0  0
 37 66  1  0  0  0
 37114  1  0  0  0
 38 43  2  0  0  0
 38 46  1  0  0  0
 38 47  1  0  0  0
 39 64  1  0  0  0
 39 67  2  0  0  0
 40 52  1  0  0  0
 40 53  2  0  0  0
 40 58  1  0  0  0
 41115  1  0  0  0
 41116  1  0  0  0
 41117  1  0  0  0
 41 48  1  0  0  0
 42 43  1  0  0  0
 42 66  1  0  0  0
 42118  1  0  0  0
 42119  1  0  0  0
 43 44  1  0  0  0
 44120  1  0  0  0
 45 46  2  0  0  0
 45121  1  0  0  0
 46122  1  0  0  0
 47123  1  0  0  0
 47124  1  0  0  0
 48 56  1  0  0  0
 48 65  1  0  0  0
 48125  1  0  0  0
 49 50  1  0  0  0
 49 53  1  0  0  0
 49 64  1  0  0  0
 49126  1  0  0  0
 50 51  1  0  0  0
 50127  1  0  0  0
 50128  1  0  0  0
 51 52  1  0  0  0
 51129  1  0  0  0
 51130  1  0  0  0
 52131  1  0  0  0
 52132  1  0  0  0
 53 54  1  0  0  0
 54 55  2  0  0  0
 54133  1  0  0  0
 55 57  1  0  0  0
 55134  1  0  0  0
 56 69  2  0  0  0
 57 58  2  0  0  0
 57135  1  0  0  0
 58136  1  0  0  0
 59 60  1  0  0  0
 59 61  1  0  0  0
 59 62  1  0  0  0
 60137  1  0  0  0
 60138  1  0  0  0
 60139  1  0  0  0
 61140  1  0  0  0
 61141  1  0  0  0
 61142  1  0  0  0
 62143  1  0  0  0
 62144  1  0  0  0
 62145  1  0  0  0
 63 65  1  0  0  0
 63146  1  0  0  0
 63147  1  0  0  0
 63148  1  0  0  0
 64149  1  0  0  0
 65150  1  0  0  0
 68 86  1  0  0  0
 71 73  2  0  0  0
 71 75  1  0  0  0
 71151  1  0  0  0
 72 74  2  0  0  0
 72 76  1  0  0  0
 72152  1  0  0  0
 73 74  1  0  0  0
 73 83  1  0  0  0
 74 87  1  0  0  0
 75 76  2  0  0  0
 75 88  1  0  0  0
 76 91  1  0  0  0
 77 84  1  0  0  0
 77 89  1  0  0  0
 77 90  2  0  0  0
 78 79  1  0  0  0
 78 80  1  0  0  0
 78153  1  0  0  0
 78154  1  0  0  0
 79 81  1  0  0  0
 79155  1  0  0  0
 79156  1  0  0  0
 80 87  1  0  0  0
 80157  1  0  0  0
 80158  1  0  0  0
 81 87  1  0  0  0
 81159  1  0  0  0
 81160  1  0  0  0
 82 85  1  0  0  0
 82161  1  0  0  0
 82162  1  0  0  0
 82163  1  0  0  0
 83 89  1  0  0  0
 83164  1  0  0  0
 83165  1  0  0  0
 84 86  1  0  0  0
 84166  1  0  0  0
 84167  1  0  0  0
 85 89  1  0  0  0
 85168  1  0  0  0
 85169  1  0  0  0
 86170  1  0  0  0
 86171  1  0  0  0
 88172  1  0  0  0
M  ISO  4   1 100  68 101  86 101  88 100
M  END
> <chiral flag>
0

> <version>
0

> <s_m_source_file>
/data/baiqing/PycharmProjects/Reinvent-master-3.2/result/LINK_invent/BTK/process_docking_weight1_custom_product_contain_oxygen_bond_distance_aromatic_linkinvent_7_9_3/rearranged_h_0025.sdf

> <i_m_source_file_index>
32

> <r_mmod_Potential_Energy-OPLS-2005>
207.981719970703

> <r_mmod_Stretch_Energy-OPLS-2005>
86.6794967651367

> <r_mmod_Bend_Energy-OPLS-2005>
190.118682861328

> <r_mmod_Torsional_Energy-OPLS-2005>
347.848693847656

> <r_mmod_Improper_Torsional_Energy-OPLS-2005>
9.4067211151123

> <r_mmod_Van_der_Waal_Energy-OPLS-2005>
186.757736206055

> <r_mmod_Electrostatic_Energy-OPLS-2005>
-424.450317382812

> <r_mmod_Solvation_Energy-OPLS-2005>
-233.058929443359

> <b_mmod_Minimization_Converged-OPLS-2005>
0

> <r_mmod_RMS_Derivative-OPLS-2005>
4.22485542297363

$$$$
32
                    3D
 Structure written by MMmdl.
163172  0  0  1  0            999 V2000
  -30.5796  -14.7489   20.4734 C   0  0  0  0  0  0
  -30.4464  -12.4672   19.4471 C   0  0  0  0  0  0
  -29.5084  -12.5078   18.2204 C   0  0  0  0  0  0
  -28.0341  -12.3320   18.6414 C   0  0  0  0  0  0
  -27.6417  -13.2234   19.8503 C   0  0  2  0  0  0
  -28.6935  -13.1402   20.9756 C   0  0  0  0  0  0
  -25.2524  -13.8170   20.5725 C   0  0  0  0  0  0
  -24.1811  -13.0421   20.9231 C   0  0  0  0  0  0
  -24.6396  -11.6899   20.8752 C   0  0  0  0  0  0
  -23.9061  -10.4283   21.0408 C   0  0  0  0  0  0
  -24.3613   -9.4205   21.9186 C   0  0  0  0  0  0
  -23.6292   -8.2240   22.0753 C   0  0  0  0  0  0
  -22.4274   -8.0280   21.3550 C   0  0  0  0  0  0
  -21.9907   -9.0251   20.4650 C   0  0  0  0  0  0
  -22.7230  -10.2131   20.3063 C   0  0  0  0  0  0
  -21.6850   -6.0733   22.5275 C   0  0  0  0  0  0
  -21.4008   -6.5637   23.8209 C   0  0  0  0  0  0
  -21.3659   -5.6791   24.9174 C   0  0  0  0  0  0
  -21.6046   -4.3053   24.7220 C   0  0  0  0  0  0
  -21.8822   -3.8147   23.4341 C   0  0  0  0  0  0
  -21.9193   -4.6962   22.3401 C   0  0  0  0  0  0
  -22.7832  -13.5217   21.1887 C   0  0  0  0  0  0
  -22.1663   -4.2152   21.0979 F   0  0  0  0  0  0
  -21.5634   -3.4539   25.7731 F   0  0  0  0  0  0
  -29.9837  -13.5126   20.3822 N   0  0  0  0  0  0
  -26.2941  -12.9353   20.3296 N   0  0  0  0  0  0
  -25.9320  -11.6507   20.5747 N   0  0  0  0  0  0
  -22.0465  -12.8213   22.0429 N   0  0  0  0  0  0
  -25.4188  -15.1898   20.4173 N   0  0  0  0  0  0
  -31.7852  -14.8790   20.2423 O   0  0  0  0  0  0
  -21.6637   -6.8878   21.4241 O   0  0  0  0  0  0
  -22.3527  -14.5532   20.6735 O   0  0  0  0  0  0
  -24.6279  -31.8538   23.1938 C   0  0  0  0  0  0
  -25.9108  -32.4745   23.8293 C   0  0  1  0  0  0
  -27.2298  -27.2689   20.1473 C   0  0  0  0  0  0
  -25.5896  -33.8549   24.2211 N   0  0  0  0  0  0
  -23.4254  -30.4735   21.5353 C   0  0  2  0  0  0
  -24.8769  -28.9121   20.1159 C   0  0  0  0  0  0
  -22.7494  -29.4590   22.4880 C   0  0  0  0  0  0
  -18.0302  -28.1392   22.8483 C   0  0  0  0  0  0
  -24.1483  -36.7279   23.2650 C   0  0  0  0  0  0
  -25.9682  -30.7727   21.3704 C   0  0  0  0  0  0
  -26.0453  -29.3921   20.7204 C   0  0  0  0  0  0
  -27.2267  -28.5855   20.7188 C   0  0  0  0  0  0
  -26.0387  -26.8446   19.5244 C   0  0  0  0  0  0
  -24.8777  -27.6454   19.5070 C   0  0  0  0  0  0
  -23.6463  -29.7978   20.1551 C   0  0  0  0  0  0
  -25.4109  -36.3055   24.0326 C   0  0  1  0  0  0
  -20.5903  -28.3690   23.1266 C   0  0  2  0  0  0
  -20.6786  -26.9407   22.5408 C   0  0  0  0  0  0
  -19.5759  -26.6369   21.5224 C   0  0  0  0  0  0
  -18.1938  -26.7930   22.1631 C   0  0  0  0  0  0
  -19.1563  -28.8852   23.2871 C   0  0  0  0  0  0
  -18.9495  -30.1457   23.8888 C   0  0  0  0  0  0
  -17.6500  -30.6594   24.0559 C   0  0  0  0  0  0
  -25.9047  -34.9437   23.5075 C   0  0  0  0  0  0
  -16.5382  -29.9098   23.6338 C   0  0  0  0  0  0
  -16.7292  -28.6521   23.0350 C   0  0  0  0  0  0
  -26.4489  -31.6592   25.0694 C   0  0  0  0  0  0
  -25.3707  -31.3765   26.1415 C   0  0  0  0  0  0
  -27.0360  -30.3010   24.6185 C   0  0  0  0  0  0
  -27.6012  -32.4365   25.7483 C   0  0  0  0  0  0
  -27.5568  -37.1785   24.8469 C   0  0  0  0  0  0
  -21.4204  -29.3037   22.3646 N   0  0  0  0  0  0
  -26.4279  -37.3754   23.9417 N   0  0  0  0  0  0
  -24.6927  -31.0519   22.0900 N   0  0  0  0  0  0
  -23.4215  -28.8143   23.2979 O   0  0  0  0  0  0
  -28.3489  -26.4139   20.1408 O   0  0  0  0  0  0
  -26.5652  -34.8924   22.4659 O   0  0  0  0  0  0
  -23.5430  -32.1346   23.7236 O   0  0  0  0  0  0
  -29.4217  -18.4315   20.3439 C   0  0  0  0  0  0
  -29.8544  -18.5932   23.0737 C   0  0  0  0  0  0
  -29.2309  -19.7329   20.9809 C   0  0  0  0  0  0
  -29.3982  -19.7452   22.3940 C   0  0  0  0  0  0
  -29.8092  -17.2104   21.0467 C   0  0  0  0  0  0
  -30.0512  -17.3513   22.4363 C   0  0  0  0  0  0
  -31.1737  -23.7850   19.9343 C   0  0  0  0  0  0
  -30.0113  -24.1154   19.0085 C   0  0  0  0  0  0
  -30.7315  -22.4809   20.6001 C   0  0  0  0  0  0
  -28.7725  -23.7178   19.8231 C   0  0  2  0  0  0
  -29.0290  -20.9455   23.2577 C   0  0  0  0  0  0
  -28.7275  -21.0518   20.2058 C   0  0  0  0  0  0
  -28.2496  -25.0076   20.6695 C   0  0  0  0  0  0
  -29.7262  -15.8440   20.4729 N   0  0  0  0  0  0
  -29.2418  -22.4548   20.5991 N   0  3  1  0  0  0
  -30.4585  -16.0018   23.4413 Cl  0  0  0  0  0  0
  -31.4790  -12.6319   19.1337 H   0  0  0  0  0  0
  -30.4259  -11.4864   19.9242 H   0  0  0  0  0  0
  -29.7870  -11.7309   17.5076 H   0  0  0  0  0  0
  -29.6314  -13.4572   17.6969 H   0  0  0  0  0  0
  -27.8894  -11.2820   18.8956 H   0  0  0  0  0  0
  -27.3739  -12.5334   17.7968 H   0  0  0  0  0  0
  -27.6348  -14.2468   19.4787 H   0  0  0  0  0  0
  -28.7401  -12.1321   21.3906 H   0  0  0  0  0  0
  -28.4343  -13.8014   21.8044 H   0  0  0  0  0  0
  -25.2754   -9.5683   22.4768 H   0  0  0  0  0  0
  -23.9999   -7.4628   22.7471 H   0  0  0  0  0  0
  -21.0837   -8.8776   19.8956 H   0  0  0  0  0  0
  -22.3684  -10.9682   19.6185 H   0  0  0  0  0  0
  -21.1992   -7.6142   23.9718 H   0  0  0  0  0  0
  -21.1479   -6.0515   25.9077 H   0  0  0  0  0  0
  -22.0600   -2.7611   23.2838 H   0  0  0  0  0  0
  -22.4063  -11.9860   22.4807 H   0  0  0  0  0  0
  -21.1091  -13.1258   22.2645 H   0  0  0  0  0  0
  -24.6494  -15.8358   20.5571 H   0  0  0  0  0  0
  -26.2527  -15.6437   20.0703 H   0  0  0  0  0  0
  -26.7177  -32.5404   23.1044 H   0  0  0  0  0  0
  -24.9996  -33.9690   25.0319 H   0  0  0  0  0  0
  -22.7216  -31.2950   21.3824 H   0  0  0  0  0  0
  -23.3751  -35.9611   23.3313 H   0  0  0  0  0  0
  -24.3558  -36.8898   22.2063 H   0  0  0  0  0  0
  -23.7238  -37.6480   23.6684 H   0  0  0  0  0  0
  -26.1012  -31.5316   20.5975 H   0  0  0  0  0  0
  -26.8480  -30.8260   22.0012 H   0  0  0  0  0  0
  -28.1266  -28.9529   21.1920 H   0  0  0  0  0  0
  -26.0021  -25.8743   19.0503 H   0  0  0  0  0  0
  -23.9824  -27.2693   19.0326 H   0  0  0  0  0  0
  -23.7703  -30.5693   19.3940 H   0  0  0  0  0  0
  -22.7667  -29.2277   19.8486 H   0  0  0  0  0  0
  -25.1287  -36.1891   25.0817 H   0  0  0  0  0  0
  -21.0013  -28.3281   24.1383 H   0  0  0  0  0  0
  -20.5690  -26.2306   23.3617 H   0  0  0  0  0  0
  -21.6649  -26.7418   22.1204 H   0  0  0  0  0  0
  -19.6917  -25.6281   21.1257 H   0  0  0  0  0  0
  -19.6702  -27.3185   20.6763 H   0  0  0  0  0  0
  -17.4203  -26.6694   21.4031 H   0  0  0  0  0  0
  -18.0326  -26.0068   22.9020 H   0  0  0  0  0  0
  -19.7980  -30.7266   24.2246 H   0  0  0  0  0  0
  -17.5069  -31.6278   24.5167 H   0  0  0  0  0  0
  -15.5391  -30.3008   23.7665 H   0  0  0  0  0  0
  -15.8689  -28.0842   22.7065 H   0  0  0  0  0  0
  -24.5862  -30.7131   25.7751 H   0  0  0  0  0  0
  -24.8937  -32.2963   26.4817 H   0  0  0  0  0  0
  -25.8004  -30.8956   27.0207 H   0  0  0  0  0  0
  -26.2955  -29.6732   24.1213 H   0  0  0  0  0  0
  -27.4070  -29.7288   25.4703 H   0  0  0  0  0  0
  -27.8800  -30.4310   23.9405 H   0  0  0  0  0  0
  -27.2579  -33.3668   26.2026 H   0  0  0  0  0  0
  -28.3840  -32.6924   25.0332 H   0  0  0  0  0  0
  -28.0663  -31.8522   26.5435 H   0  0  0  0  0  0
  -28.2571  -38.0092   24.7502 H   0  0  0  0  0  0
  -28.1071  -36.2615   24.6301 H   0  0  0  0  0  0
  -27.2289  -37.1439   25.8873 H   0  0  0  0  0  0
  -20.9387  -29.8762   21.6860 H   0  0  0  0  0  0
  -26.0157  -38.2816   24.1445 H   0  0  0  0  0  0
  -29.2096  -18.3586   19.2869 H   0  0  0  0  0  0
  -29.9908  -18.6373   24.1455 H   0  0  0  0  0  0
  -31.2999  -24.5704   20.6807 H   0  0  0  0  0  0
  -32.1209  -23.6811   19.4020 H   0  0  0  0  0  0
  -30.0758  -23.4964   18.1126 H   0  0  0  0  0  0
  -30.0111  -25.1559   18.6816 H   0  0  0  0  0  0
  -31.1401  -22.3816   21.6056 H   0  0  0  0  0  0
  -31.1267  -21.6456   20.0197 H   0  0  0  0  0  0
  -27.9759  -23.4436   19.1303 H   0  0  0  0  0  0
  -28.1391  -21.4554   22.8864 H   0  0  0  0  0  0
  -29.8510  -21.6545   23.3333 H   0  0  0  0  0  0
  -28.7916  -20.6271   24.2746 H   0  0  0  0  0  0
  -27.6394  -21.0720   20.2833 H   0  0  0  0  0  0
  -28.9375  -20.9143   19.1440 H   0  0  0  0  0  0
  -28.8334  -25.0362   21.5898 H   0  0  0  0  0  0
  -27.2313  -24.8115   21.0091 H   0  0  0  0  0  0
  -28.7817  -15.5741   20.2538 H   0  0  0  0  0  0
  -28.9460  -22.5774   21.5556 H   0  0  0  0  0  0
  1 25  1  0  0  0
  1 30  2  0  0  0
  1 84  1  0  0  0
  2  3  1  0  0  0
  2 25  1  0  0  0
  2 87  1  0  0  0
  2 88  1  0  0  0
  3  4  1  0  0  0
  3 89  1  0  0  0
  3 90  1  0  0  0
  4  5  1  0  0  0
  4 91  1  0  0  0
  4 92  1  0  0  0
  5  6  1  0  0  0
  5 26  1  0  0  0
  5 93  1  0  0  0
  6 25  1  0  0  0
  6 94  1  0  0  0
  6 95  1  0  0  0
  7  8  2  0  0  0
  7 26  1  0  0  0
  7 29  1  0  0  0
  8  9  1  0  0  0
  8 22  1  0  0  0
  9 10  1  0  0  0
  9 27  2  0  0  0
 10 11  2  0  0  0
 10 15  1  0  0  0
 11 12  1  0  0  0
 11 96  1  0  0  0
 12 13  2  0  0  0
 12 97  1  0  0  0
 13 14  1  0  0  0
 13 31  1  0  0  0
 14 15  2  0  0  0
 14 98  1  0  0  0
 15 99  1  0  0  0
 16 17  2  0  0  0
 16 21  1  0  0  0
 16 31  1  0  0  0
 17 18  1  0  0  0
 17100  1  0  0  0
 18 19  2  0  0  0
 18101  1  0  0  0
 19 20  1  0  0  0
 19 24  1  0  0  0
 20 21  2  0  0  0
 20102  1  0  0  0
 21 23  1  0  0  0
 22 28  1  0  0  0
 22 32  2  0  0  0
 26 27  1  0  0  0
 28103  1  0  0  0
 28104  1  0  0  0
 29105  1  0  0  0
 29106  1  0  0  0
 33 34  1  0  0  0
 33 66  1  0  0  0
 33 70  2  0  0  0
 34 36  1  0  0  0
 34 59  1  0  0  0
 34107  1  0  0  0
 35 44  2  0  0  0
 35 45  1  0  0  0
 35 68  1  0  0  0
 36 56  1  0  0  0
 36108  1  0  0  0
 37 39  1  0  0  0
 37 47  1  0  0  0
 37 66  1  0  0  0
 37109  1  0  0  0
 38 43  2  0  0  0
 38 46  1  0  0  0
 38 47  1  0  0  0
 39 64  1  0  0  0
 39 67  2  0  0  0
 40 52  1  0  0  0
 40 53  2  0  0  0
 40 58  1  0  0  0
 41110  1  0  0  0
 41111  1  0  0  0
 41112  1  0  0  0
 41 48  1  0  0  0
 42 43  1  0  0  0
 42 66  1  0  0  0
 42113  1  0  0  0
 42114  1  0  0  0
 43 44  1  0  0  0
 44115  1  0  0  0
 45 46  2  0  0  0
 45116  1  0  0  0
 46117  1  0  0  0
 47118  1  0  0  0
 47119  1  0  0  0
 48 56  1  0  0  0
 48 65  1  0  0  0
 48120  1  0  0  0
 49 50  1  0  0  0
 49 53  1  0  0  0
 49 64  1  0  0  0
 49121  1  0  0  0
 50 51  1  0  0  0
 50122  1  0  0  0
 50123  1  0  0  0
 51 52  1  0  0  0
 51124  1  0  0  0
 51125  1  0  0  0
 52126  1  0  0  0
 52127  1  0  0  0
 53 54  1  0  0  0
 54 55  2  0  0  0
 54128  1  0  0  0
 55 57  1  0  0  0
 55129  1  0  0  0
 56 69  2  0  0  0
 57 58  2  0  0  0
 57130  1  0  0  0
 58131  1  0  0  0
 59 60  1  0  0  0
 59 61  1  0  0  0
 59 62  1  0  0  0
 60132  1  0  0  0
 60133  1  0  0  0
 60134  1  0  0  0
 61135  1  0  0  0
 61136  1  0  0  0
 61137  1  0  0  0
 62138  1  0  0  0
 62139  1  0  0  0
 62140  1  0  0  0
 63 65  1  0  0  0
 63141  1  0  0  0
 63142  1  0  0  0
 63143  1  0  0  0
 64144  1  0  0  0
 65145  1  0  0  0
 68 83  1  0  0  0
 71 73  2  0  0  0
 71 75  1  0  0  0
 71146  1  0  0  0
 72 74  2  0  0  0
 72 76  1  0  0  0
 72147  1  0  0  0
 73 74  1  0  0  0
 73 82  1  0  0  0
 74 81  1  0  0  0
 75 76  2  0  0  0
 75 84  1  0  0  0
 76 86  1  0  0  0
 77 78  1  0  0  0
 77 79  1  0  0  0
 77148  1  0  0  0
 77149  1  0  0  0
 78 80  1  0  0  0
 78150  1  0  0  0
 78151  1  0  0  0
 79 85  1  0  0  0
 79152  1  0  0  0
 79153  1  0  0  0
 80 83  1  0  0  0
 80 85  1  0  0  0
 80154  1  0  0  0
 81155  1  0  0  0
 81156  1  0  0  0
 81157  1  0  0  0
 82158  1  0  0  0
 82159  1  0  0  0
 82 85  1  0  0  0
 83160  1  0  0  0
 83161  1  0  0  0
 84162  1  0  0  0
 85163  1  0  0  0
M  CHG  1  85   1
M  ISO  4   1 100  68 101  83 101  84 100
M  END
> <chiral flag>
0

> <version>
0

> <s_m_source_file>
/data/baiqing/PycharmProjects/Reinvent-master-3.2/result/LINK_invent/BTK/process_docking_weight1_custom_product_contain_oxygen_bond_distance_aromatic_linkinvent_7_9_3/rearranged_h_0025.sdf

> <i_m_source_file_index>
33

> <r_mmod_Potential_Energy-OPLS-2005>
206.05436706543

> <r_mmod_Stretch_Energy-OPLS-2005>
129.881622314453

> <r_mmod_Bend_Energy-OPLS-2005>
188.872573852539

> <r_mmod_Torsional_Energy-OPLS-2005>
336.286254882812

> <r_mmod_Improper_Torsional_Energy-OPLS-2005>
12.2174129486084

> <r_mmod_Van_der_Waal_Energy-OPLS-2005>
130.510482788086

> <r_mmod_Electrostatic_Energy-OPLS-2005>
-235.888549804688

> <r_mmod_Solvation_Energy-OPLS-2005>
-439.4521484375

> <b_mmod_Minimization_Converged-OPLS-2005>
0

> <r_mmod_RMS_Derivative-OPLS-2005>
2.04164934158325

$$$$
33
                    3D
 Structure written by MMmdl.
152161  0  0  1  0            999 V2000
  -30.5452  -14.7061   20.4375 C   0  0  0  0  0  0
  -30.4532  -12.4227   19.4407 C   0  0  0  0  0  0
  -29.5051  -12.4922   18.2228 C   0  0  0  0  0  0
  -28.0311  -12.3223   18.6456 C   0  0  0  0  0  0
  -27.6462  -13.2061   19.8581 C   0  0  2  0  0  0
  -28.7005  -13.0761   20.9818 C   0  0  0  0  0  0
  -25.2482  -13.8066   20.5695 C   0  0  0  0  0  0
  -24.1797  -13.0367   20.9258 C   0  0  0  0  0  0
  -24.6371  -11.6854   20.8799 C   0  0  0  0  0  0
  -23.9052  -10.4264   21.0443 C   0  0  0  0  0  0
  -24.3598   -9.4185   21.9223 C   0  0  0  0  0  0
  -23.6270   -8.2221   22.0762 C   0  0  0  0  0  0
  -22.4262   -8.0258   21.3539 C   0  0  0  0  0  0
  -21.9907   -9.0250   20.4663 C   0  0  0  0  0  0
  -22.7226  -10.2130   20.3081 C   0  0  0  0  0  0
  -21.6827   -6.0726   22.5280 C   0  0  0  0  0  0
  -21.4022   -6.5648   23.8211 C   0  0  0  0  0  0
  -21.3652   -5.6802   24.9175 C   0  0  0  0  0  0
  -21.6035   -4.3062   24.7243 C   0  0  0  0  0  0
  -21.8811   -3.8148   23.4367 C   0  0  0  0  0  0
  -21.9201   -4.6960   22.3410 C   0  0  0  0  0  0
  -22.7828  -13.5193   21.1876 C   0  0  0  0  0  0
  -22.1651   -4.2134   21.0986 F   0  0  0  0  0  0
  -21.5627   -3.4545   25.7757 F   0  0  0  0  0  0
  -30.0050  -13.4460   20.4053 N   0  0  0  0  0  0
  -26.2945  -12.9275   20.3349 N   0  0  0  0  0  0
  -25.9307  -11.6460   20.5850 N   0  0  0  0  0  0
  -22.0455  -12.8221   22.0440 N   0  0  0  0  0  0
  -25.3998  -15.1766   20.4025 N   0  0  0  0  0  0
  -31.7337  -14.9004   20.1481 O   0  0  0  0  0  0
  -21.6603   -6.8860   21.4228 O   0  0  0  0  0  0
  -22.3550  -14.5532   20.6735 O   0  0  0  0  0  0
  -24.6316  -31.8537   23.2004 C   0  0  0  0  0  0
  -25.9142  -32.4740   23.8315 C   0  0  1  0  0  0
  -27.2034  -27.2553   20.1146 C   0  0  0  0  0  0
  -25.5948  -33.8546   24.2246 N   0  0  0  0  0  0
  -23.4269  -30.4831   21.5446 C   0  0  2  0  0  0
  -24.8668  -28.9296   20.1069 C   0  0  0  0  0  0
  -22.7490  -29.4585   22.4909 C   0  0  0  0  0  0
  -18.0310  -28.1372   22.8495 C   0  0  0  0  0  0
  -24.1504  -36.7271   23.2662 C   0  0  0  0  0  0
  -25.9757  -30.7632   21.3817 C   0  0  0  0  0  0
  -26.0419  -29.3891   20.7151 C   0  0  0  0  0  0
  -27.2092  -28.5618   20.7132 C   0  0  0  0  0  0
  -26.0000  -26.8563   19.4951 C   0  0  0  0  0  0
  -24.8524  -27.6729   19.4873 C   0  0  0  0  0  0
  -23.6429  -29.8215   20.1571 C   0  0  0  0  0  0
  -25.4145  -36.3079   24.0330 C   0  0  1  0  0  0
  -20.5899  -28.3682   23.1275 C   0  0  2  0  0  0
  -20.6781  -26.9406   22.5406 C   0  0  0  0  0  0
  -19.5758  -26.6384   21.5208 C   0  0  0  0  0  0
  -18.1946  -26.7925   22.1623 C   0  0  0  0  0  0
  -19.1560  -28.8851   23.2870 C   0  0  0  0  0  0
  -18.9473  -30.1446   23.8894 C   0  0  0  0  0  0
  -17.6463  -30.6585   24.0558 C   0  0  0  0  0  0
  -25.9050  -34.9441   23.5086 C   0  0  0  0  0  0
  -16.5358  -29.9077   23.6326 C   0  0  0  0  0  0
  -16.7277  -28.6482   23.0364 C   0  0  0  0  0  0
  -26.4521  -31.6583   25.0710 C   0  0  0  0  0  0
  -25.3726  -31.3722   26.1412 C   0  0  0  0  0  0
  -27.0400  -30.3016   24.6229 C   0  0  0  0  0  0
  -27.6055  -32.4342   25.7490 C   0  0  0  0  0  0
  -27.5524  -37.1866   24.8520 C   0  0  0  0  0  0
  -21.4203  -29.3039   22.3657 N   0  0  0  0  0  0
  -26.4334  -37.3720   23.9328 N   0  0  0  0  0  0
  -24.6968  -31.0521   22.0979 N   0  0  0  0  0  0
  -23.4202  -28.8138   23.2991 O   0  0  0  0  0  0
  -28.2893  -26.3526   20.2075 O   0  0  0  0  0  0
  -26.5621  -34.8903   22.4651 O   0  0  0  0  0  0
  -23.5469  -32.1363   23.7309 O   0  0  0  0  0  0
  -30.3547  -19.5413   20.5358 C   0  0  0  0  0  0
  -30.5964  -18.1263   20.6329 C   0  0  0  0  0  0
  -29.0997  -20.1593   20.2066 C   0  0  0  0  0  0
  -29.5601  -17.1816   20.4104 C   0  0  0  0  0  0
  -28.3157  -17.7565   20.0555 C   0  0  0  0  0  0
  -28.0866  -19.1705   19.9529 C   0  0  0  0  0  0
  -29.7707  -22.7664   19.8117 C   0  0  0  0  0  0
  -27.8033  -22.5074   20.4037 C   0  0  0  0  0  0
  -28.4651  -23.5680   19.4441 C   0  0  1  0  0  0
  -28.4376  -25.1920   19.2761 C   0  0  0  0  0  0
  -28.9605  -21.6404   20.0496 N   0  0  0  0  0  0
  -29.6183  -15.7129   20.5734 N   0  0  0  0  0  0
  -30.9693  -22.9400   19.8622 O   0  0  0  0  0  0
  -27.3019  -16.9083   19.7612 F   0  0  0  0  0  0
  -26.5095  -19.6441   19.4108 Cl  0  0  0  0  0  0
  -31.4810  -12.5913   19.1195 H   0  0  0  0  0  0
  -30.4368  -11.4296   19.8933 H   0  0  0  0  0  0
  -29.7693  -11.7274   17.4926 H   0  0  0  0  0  0
  -29.6269  -13.4530   17.7165 H   0  0  0  0  0  0
  -27.8864  -11.2699   18.8991 H   0  0  0  0  0  0
  -27.3667  -12.5280   17.8058 H   0  0  0  0  0  0
  -27.6455  -14.2338   19.4978 H   0  0  0  0  0  0
  -28.7347  -12.0543   21.3643 H   0  0  0  0  0  0
  -28.4466  -13.7093   21.8362 H   0  0  0  0  0  0
  -25.2728   -9.5660   22.4824 H   0  0  0  0  0  0
  -23.9953   -7.4615   22.7509 H   0  0  0  0  0  0
  -21.0814   -8.8804   19.8983 H   0  0  0  0  0  0
  -22.3683  -10.9700   19.6212 H   0  0  0  0  0  0
  -21.1991   -7.6152   23.9710 H   0  0  0  0  0  0
  -21.1478   -6.0539   25.9082 H   0  0  0  0  0  0
  -22.0593   -2.7607   23.2880 H   0  0  0  0  0  0
  -22.4019  -11.9867   22.4823 H   0  0  0  0  0  0
  -21.1101  -13.1340   22.2659 H   0  0  0  0  0  0
  -24.6257  -15.8219   20.5240 H   0  0  0  0  0  0
  -26.2193  -15.6420   20.0207 H   0  0  0  0  0  0
  -26.7200  -32.5397   23.1032 H   0  0  0  0  0  0
  -25.0163  -33.9674   25.0454 H   0  0  0  0  0  0
  -22.7245  -31.3050   21.4017 H   0  0  0  0  0  0
  -23.3688  -35.9688   23.3540 H   0  0  0  0  0  0
  -24.3508  -36.8660   22.2016 H   0  0  0  0  0  0
  -23.7364  -37.6590   23.6536 H   0  0  0  0  0  0
  -26.1289  -31.5259   20.6161 H   0  0  0  0  0  0
  -26.8485  -30.8005   22.0220 H   0  0  0  0  0  0
  -28.1103  -28.9075   21.2041 H   0  0  0  0  0  0
  -25.8937  -25.8794   19.0568 H   0  0  0  0  0  0
  -23.9425  -27.3092   19.0207 H   0  0  0  0  0  0
  -23.7740  -30.6030   19.4084 H   0  0  0  0  0  0
  -22.7583  -29.2589   19.8465 H   0  0  0  0  0  0
  -25.1355  -36.1949   25.0817 H   0  0  0  0  0  0
  -20.9993  -28.3255   24.1386 H   0  0  0  0  0  0
  -20.5685  -26.2292   23.3605 H   0  0  0  0  0  0
  -21.6646  -26.7432   22.1184 H   0  0  0  0  0  0
  -19.6914  -25.6292   21.1231 H   0  0  0  0  0  0
  -19.6702  -27.3193   20.6733 H   0  0  0  0  0  0
  -17.4209  -26.6692   21.4012 H   0  0  0  0  0  0
  -18.0335  -26.0056   22.9004 H   0  0  0  0  0  0
  -19.7941  -30.7258   24.2264 H   0  0  0  0  0  0
  -17.5021  -31.6271   24.5149 H   0  0  0  0  0  0
  -15.5350  -30.2973   23.7647 H   0  0  0  0  0  0
  -15.8689  -28.0784   22.7098 H   0  0  0  0  0  0
  -24.6062  -30.6875   25.7772 H   0  0  0  0  0  0
  -24.8726  -32.2857   26.4631 H   0  0  0  0  0  0
  -25.8060  -30.9122   27.0304 H   0  0  0  0  0  0
  -26.3012  -29.6735   24.1267 H   0  0  0  0  0  0
  -27.4102  -29.7313   25.4758 H   0  0  0  0  0  0
  -27.8863  -30.4306   23.9484 H   0  0  0  0  0  0
  -27.2693  -33.3731   26.1909 H   0  0  0  0  0  0
  -28.3954  -32.6755   25.0354 H   0  0  0  0  0  0
  -28.0626  -31.8556   26.5533 H   0  0  0  0  0  0
  -28.2790  -37.9907   24.7212 H   0  0  0  0  0  0
  -28.0785  -36.2442   24.6877 H   0  0  0  0  0  0
  -27.2181  -37.2127   25.8913 H   0  0  0  0  0  0
  -20.9395  -29.8744   21.6863 H   0  0  0  0  0  0
  -26.0257  -38.2850   24.1102 H   0  0  0  0  0  0
  -31.1961  -20.1945   20.7172 H   0  0  0  0  0  0
  -31.5861  -17.7740   20.8873 H   0  0  0  0  0  0
  -26.8239  -22.1759   20.0593 H   0  0  0  0  0  0
  -27.7757  -22.7899   21.4620 H   0  0  0  0  0  0
  -28.1585  -23.2294   18.4507 H   0  0  0  0  0  0
  -27.8176  -25.3882   18.4010 H   0  0  0  0  0  0
  -29.4228  -25.4198   18.8716 H   0  0  0  0  0  0
  -28.6976  -15.3097   20.6586 H   0  0  0  0  0  0
  1 25  1  0  0  0
  1 30  2  0  0  0
  1 82  1  0  0  0
  2  3  1  0  0  0
  2 25  1  0  0  0
  2 86  1  0  0  0
  2 87  1  0  0  0
  3  4  1  0  0  0
  3 88  1  0  0  0
  3 89  1  0  0  0
  4  5  1  0  0  0
  4 90  1  0  0  0
  4 91  1  0  0  0
  5  6  1  0  0  0
  5 26  1  0  0  0
  5 92  1  0  0  0
  6 25  1  0  0  0
  6 93  1  0  0  0
  6 94  1  0  0  0
  7  8  2  0  0  0
  7 26  1  0  0  0
  7 29  1  0  0  0
  8  9  1  0  0  0
  8 22  1  0  0  0
  9 10  1  0  0  0
  9 27  2  0  0  0
 10 11  2  0  0  0
 10 15  1  0  0  0
 11 12  1  0  0  0
 11 95  1  0  0  0
 12 13  2  0  0  0
 12 96  1  0  0  0
 13 14  1  0  0  0
 13 31  1  0  0  0
 14 15  2  0  0  0
 14 97  1  0  0  0
 15 98  1  0  0  0
 16 17  2  0  0  0
 16 21  1  0  0  0
 16 31  1  0  0  0
 17 18  1  0  0  0
 17 99  1  0  0  0
 18 19  2  0  0  0
 18100  1  0  0  0
 19 20  1  0  0  0
 19 24  1  0  0  0
 20 21  2  0  0  0
 20101  1  0  0  0
 21 23  1  0  0  0
 22 28  1  0  0  0
 22 32  2  0  0  0
 26 27  1  0  0  0
 28102  1  0  0  0
 28103  1  0  0  0
 29104  1  0  0  0
 29105  1  0  0  0
 33 34  1  0  0  0
 33 66  1  0  0  0
 33 70  2  0  0  0
 34 36  1  0  0  0
 34 59  1  0  0  0
 34106  1  0  0  0
 35 44  2  0  0  0
 35 45  1  0  0  0
 35 68  1  0  0  0
 36 56  1  0  0  0
 36107  1  0  0  0
 37 39  1  0  0  0
 37 47  1  0  0  0
 37 66  1  0  0  0
 37108  1  0  0  0
 38 43  2  0  0  0
 38 46  1  0  0  0
 38 47  1  0  0  0
 39 64  1  0  0  0
 39 67  2  0  0  0
 40 52  1  0  0  0
 40 53  2  0  0  0
 40 58  1  0  0  0
 41109  1  0  0  0
 41110  1  0  0  0
 41111  1  0  0  0
 41 48  1  0  0  0
 42 43  1  0  0  0
 42 66  1  0  0  0
 42112  1  0  0  0
 42113  1  0  0  0
 43 44  1  0  0  0
 44114  1  0  0  0
 45 46  2  0  0  0
 45115  1  0  0  0
 46116  1  0  0  0
 47117  1  0  0  0
 47118  1  0  0  0
 48 56  1  0  0  0
 48 65  1  0  0  0
 48119  1  0  0  0
 49 50  1  0  0  0
 49 53  1  0  0  0
 49 64  1  0  0  0
 49120  1  0  0  0
 50 51  1  0  0  0
 50121  1  0  0  0
 50122  1  0  0  0
 51 52  1  0  0  0
 51123  1  0  0  0
 51124  1  0  0  0
 52125  1  0  0  0
 52126  1  0  0  0
 53 54  1  0  0  0
 54 55  2  0  0  0
 54127  1  0  0  0
 55 57  1  0  0  0
 55128  1  0  0  0
 56 69  2  0  0  0
 57 58  2  0  0  0
 57129  1  0  0  0
 58130  1  0  0  0
 59 60  1  0  0  0
 59 61  1  0  0  0
 59 62  1  0  0  0
 60131  1  0  0  0
 60132  1  0  0  0
 60133  1  0  0  0
 61134  1  0  0  0
 61135  1  0  0  0
 61136  1  0  0  0
 62137  1  0  0  0
 62138  1  0  0  0
 62139  1  0  0  0
 63 65  1  0  0  0
 63140  1  0  0  0
 63141  1  0  0  0
 63142  1  0  0  0
 64143  1  0  0  0
 65144  1  0  0  0
 68 80  1  0  0  0
 71 72  2  0  0  0
 71 73  1  0  0  0
 71145  1  0  0  0
 72 74  1  0  0  0
 72146  1  0  0  0
 73 76  2  0  0  0
 73 81  1  0  0  0
 74 75  2  0  0  0
 74 82  1  0  0  0
 75 76  1  0  0  0
 75 84  1  0  0  0
 76 85  1  0  0  0
 77 79  1  0  0  0
 77 81  1  0  0  0
 77 83  2  0  0  0
 78 79  1  0  0  0
 78 81  1  0  0  0
 78147  1  0  0  0
 78148  1  0  0  0
 79 80  1  0  0  0
 79149  1  0  0  0
 80150  1  0  0  0
 80151  1  0  0  0
 82152  1  0  0  0
M  ISO  4   1 100  68 101  80 101  82 100
M  END
> <chiral flag>
0

> <version>
0

> <s_m_source_file>
/data/baiqing/PycharmProjects/Reinvent-master-3.2/result/LINK_invent/BTK/process_docking_weight1_custom_product_contain_oxygen_bond_distance_aromatic_linkinvent_7_9_3/rearranged_h_0025.sdf

> <i_m_source_file_index>
34

> <r_mmod_Potential_Energy-OPLS-2005>
259.989379882812

> <r_mmod_Stretch_Energy-OPLS-2005>
109.200454711914

> <r_mmod_Bend_Energy-OPLS-2005>
302.065338134766

> <r_mmod_Torsional_Energy-OPLS-2005>
228.220642089844

> <r_mmod_Improper_Torsional_Energy-OPLS-2005>
7.48442411422729

> <r_mmod_Van_der_Waal_Energy-OPLS-2005>
148.307815551758

> <r_mmod_Electrostatic_Energy-OPLS-2005>
-402.633392333984

> <r_mmod_Solvation_Energy-OPLS-2005>
-216.346115112305

> <b_mmod_Minimization_Converged-OPLS-2005>
0

> <r_mmod_RMS_Derivative-OPLS-2005>
7.1294322013855

$$$$
34
                    3D
 Structure written by MMmdl.
159168  0  0  1  0            999 V2000
  -30.5178  -14.9027   20.4502 C   0  0  0  0  0  0
  -30.4553  -12.5575   19.4920 C   0  0  0  0  0  0
  -29.5266  -12.5353   18.2534 C   0  0  0  0  0  0
  -28.0560  -12.3265   18.6665 C   0  0  0  0  0  0
  -27.6405  -13.2377   19.8507 C   0  0  2  0  0  0
  -28.6849  -13.2043   20.9886 C   0  0  0  0  0  0
  -25.2467  -13.8170   20.5622 C   0  0  0  0  0  0
  -24.1792  -13.0417   20.9213 C   0  0  0  0  0  0
  -24.6407  -11.6904   20.8765 C   0  0  0  0  0  0
  -23.9084  -10.4282   21.0418 C   0  0  0  0  0  0
  -24.3628   -9.4194   21.9195 C   0  0  0  0  0  0
  -23.6294   -8.2234   22.0760 C   0  0  0  0  0  0
  -22.4278   -8.0279   21.3546 C   0  0  0  0  0  0
  -21.9920   -9.0257   20.4650 C   0  0  0  0  0  0
  -22.7257  -10.2131   20.3063 C   0  0  0  0  0  0
  -21.6850   -6.0736   22.5279 C   0  0  0  0  0  0
  -21.4016   -6.5640   23.8214 C   0  0  0  0  0  0
  -21.3659   -5.6792   24.9175 C   0  0  0  0  0  0
  -21.6041   -4.3055   24.7225 C   0  0  0  0  0  0
  -21.8819   -3.8147   23.4346 C   0  0  0  0  0  0
  -21.9192   -4.6964   22.3402 C   0  0  0  0  0  0
  -22.7814  -13.5201   21.1868 C   0  0  0  0  0  0
  -22.1660   -4.2149   21.0980 F   0  0  0  0  0  0
  -21.5627   -3.4539   25.7738 F   0  0  0  0  0  0
  -29.9721  -13.6231   20.4113 N   0  0  0  0  0  0
  -26.2929  -12.9404   20.3263 N   0  0  0  0  0  0
  -25.9344  -11.6545   20.5769 N   0  0  0  0  0  0
  -22.0461  -12.8201   22.0432 N   0  0  0  0  0  0
  -25.4048  -15.1876   20.3867 N   0  0  0  0  0  0
  -31.6968  -15.0493   20.1072 O   0  0  0  0  0  0
  -21.6636   -6.8880   21.4241 O   0  0  0  0  0  0
  -22.3498  -14.5505   20.6710 O   0  0  0  0  0  0
  -24.6420  -31.8461   23.1901 C   0  0  0  0  0  0
  -25.9199  -32.4706   23.8283 C   0  0  1  0  0  0
  -27.2205  -27.1562   20.1461 C   0  0  0  0  0  0
  -25.5951  -33.8511   24.2198 N   0  0  0  0  0  0
  -23.4444  -30.4666   21.5359 C   0  0  2  0  0  0
  -24.8934  -28.8965   20.1133 C   0  0  0  0  0  0
  -22.7558  -29.4561   22.4872 C   0  0  0  0  0  0
  -18.0303  -28.1398   22.8478 C   0  0  0  0  0  0
  -24.1492  -36.7263   23.2641 C   0  0  0  0  0  0
  -25.9997  -30.7261   21.3861 C   0  0  0  0  0  0
  -26.0716  -29.3391   20.7281 C   0  0  0  0  0  0
  -27.2369  -28.4861   20.7257 C   0  0  0  0  0  0
  -26.0140  -26.8120   19.4954 C   0  0  0  0  0  0
  -24.8766  -27.6451   19.4821 C   0  0  0  0  0  0
  -23.6696  -29.7967   20.1553 C   0  0  0  0  0  0
  -25.4123  -36.3038   24.0314 C   0  0  1  0  0  0
  -20.5914  -28.3723   23.1239 C   0  0  2  0  0  0
  -20.6789  -26.9428   22.5404 C   0  0  0  0  0  0
  -19.5762  -26.6385   21.5212 C   0  0  0  0  0  0
  -18.1944  -26.7936   22.1625 C   0  0  0  0  0  0
  -19.1559  -28.8878   23.2852 C   0  0  0  0  0  0
  -18.9476  -30.1474   23.8878 C   0  0  0  0  0  0
  -17.6473  -30.6594   24.0561 C   0  0  0  0  0  0
  -25.9072  -34.9413   23.5065 C   0  0  0  0  0  0
  -16.5364  -29.9087   23.6335 C   0  0  0  0  0  0
  -16.7287  -28.6506   23.0357 C   0  0  0  0  0  0
  -26.4523  -31.6568   25.0720 C   0  0  0  0  0  0
  -25.3710  -31.3749   26.1415 C   0  0  0  0  0  0
  -27.0388  -30.2966   24.6291 C   0  0  0  0  0  0
  -27.6051  -32.4334   25.7509 C   0  0  0  0  0  0
  -27.5575  -37.1788   24.8464 C   0  0  0  0  0  0
  -21.4253  -29.3053   22.3616 N   0  0  0  0  0  0
  -26.4287  -37.3749   23.9405 N   0  0  0  0  0  0
  -24.7152  -31.0334   22.0926 N   0  0  0  0  0  0
  -23.4208  -28.8108   23.3016 O   0  0  0  0  0  0
  -28.2869  -26.1893   20.1911 O   0  0  0  0  0  0
  -26.5659  -34.8907   22.4644 O   0  0  0  0  0  0
  -23.5543  -32.1330   23.7132 O   0  0  0  0  0  0
  -30.1243  -19.9307   20.0511 C   0  0  0  0  0  0
  -30.3830  -18.4847   20.0517 C   0  0  0  0  0  0
  -28.1808  -19.5606   21.3142 C   0  0  0  0  0  0
  -28.4249  -18.1381   21.3346 C   0  0  0  0  0  0
  -29.0003  -20.5606   20.6986 C   0  0  0  0  0  0
  -29.5462  -17.5017   20.6992 C   0  0  0  0  0  0
  -29.7511  -23.2602   22.6011 C   0  0  0  0  0  0
  -30.2238  -23.7489   21.2294 C   0  0  0  0  0  0
  -28.5873  -22.2999   22.3109 C   0  0  0  0  0  0
  -29.0759  -23.3740   20.2966 C   0  0  2  0  0  0
  -27.4176  -17.3120   22.1230 C   0  0  0  0  0  0
  -27.9918  -24.6671   20.2743 C   0  0  0  0  0  0
  -28.6404  -22.0007   20.8765 N   0  0  0  0  0  0
  -29.6479  -15.9742   20.7463 N   0  0  0  0  0  0
  -31.4871  -12.7301   19.1817 H   0  0  0  0  0  0
  -30.4534  -11.5892   19.9951 H   0  0  0  0  0  0
  -29.8367  -11.7509   17.5618 H   0  0  0  0  0  0
  -29.6216  -13.4766   17.7098 H   0  0  0  0  0  0
  -27.9394  -11.2802   18.9514 H   0  0  0  0  0  0
  -27.3952  -12.4853   17.8136 H   0  0  0  0  0  0
  -27.6214  -14.2525   19.4526 H   0  0  0  0  0  0
  -28.7590  -12.2041   21.4182 H   0  0  0  0  0  0
  -28.3881  -13.8614   21.8071 H   0  0  0  0  0  0
  -25.2771   -9.5664   22.4774 H   0  0  0  0  0  0
  -23.9997   -7.4623   22.7480 H   0  0  0  0  0  0
  -21.0850   -8.8784   19.8955 H   0  0  0  0  0  0
  -22.3722  -10.9674   19.6173 H   0  0  0  0  0  0
  -21.2012   -7.6149   23.9719 H   0  0  0  0  0  0
  -21.1479   -6.0521   25.9078 H   0  0  0  0  0  0
  -22.0598   -2.7609   23.2846 H   0  0  0  0  0  0
  -22.4079  -11.9868   22.4830 H   0  0  0  0  0  0
  -21.1080  -13.1230   22.2638 H   0  0  0  0  0  0
  -24.6159  -15.8202   20.4614 H   0  0  0  0  0  0
  -26.2161  -15.6186   19.9639 H   0  0  0  0  0  0
  -26.7266  -32.5318   23.1015 H   0  0  0  0  0  0
  -25.0065  -33.9626   25.0323 H   0  0  0  0  0  0
  -22.7461  -31.2922   21.3827 H   0  0  0  0  0  0
  -23.3755  -35.9594   23.3294 H   0  0  0  0  0  0
  -24.3579  -36.8907   22.2058 H   0  0  0  0  0  0
  -23.7248  -37.6456   23.6686 H   0  0  0  0  0  0
  -26.1534  -31.4811   20.6140 H   0  0  0  0  0  0
  -26.8710  -30.7756   22.0276 H   0  0  0  0  0  0
  -28.1364  -28.8228   21.2218 H   0  0  0  0  0  0
  -25.9119  -25.8651   18.9903 H   0  0  0  0  0  0
  -23.9784  -27.3021   18.9869 H   0  0  0  0  0  0
  -23.8053  -30.5714   19.3998 H   0  0  0  0  0  0
  -22.7847  -29.2384   19.8448 H   0  0  0  0  0  0
  -25.1311  -36.1866   25.0806 H   0  0  0  0  0  0
  -21.0007  -28.3313   24.1360 H   0  0  0  0  0  0
  -20.5687  -26.2336   23.3622 H   0  0  0  0  0  0
  -21.6654  -26.7439   22.1200 H   0  0  0  0  0  0
  -19.6924  -25.6290   21.1257 H   0  0  0  0  0  0
  -19.6697  -27.3182   20.6732 H   0  0  0  0  0  0
  -17.4211  -26.6678   21.4030 H   0  0  0  0  0  0
  -18.0345  -26.0083   22.9028 H   0  0  0  0  0  0
  -19.7952  -30.7295   24.2240 H   0  0  0  0  0  0
  -17.5027  -31.6271   24.5168 H   0  0  0  0  0  0
  -15.5364  -30.2984   23.7671 H   0  0  0  0  0  0
  -15.8687  -28.0818   22.7084 H   0  0  0  0  0  0
  -24.5901  -30.7083   25.7736 H   0  0  0  0  0  0
  -24.8882  -32.2927   26.4784 H   0  0  0  0  0  0
  -25.7997  -30.8964   27.0228 H   0  0  0  0  0  0
  -26.3003  -29.6691   24.1288 H   0  0  0  0  0  0
  -27.3992  -29.7261   25.4862 H   0  0  0  0  0  0
  -27.8914  -30.4204   23.9612 H   0  0  0  0  0  0
  -27.2641  -33.3649   26.2038 H   0  0  0  0  0  0
  -28.3891  -32.6871   25.0361 H   0  0  0  0  0  0
  -28.0689  -31.8492   26.5467 H   0  0  0  0  0  0
  -28.2586  -38.0090   24.7508 H   0  0  0  0  0  0
  -28.1077  -36.2619   24.6296 H   0  0  0  0  0  0
  -27.2292  -37.1442   25.8867 H   0  0  0  0  0  0
  -20.9461  -29.8762   21.6793 H   0  0  0  0  0  0
  -26.0154  -38.2817   24.1406 H   0  0  0  0  0  0
  -30.8372  -20.5674   19.5477 H   0  0  0  0  0  0
  -31.2603  -18.1332   19.5278 H   0  0  0  0  0  0
  -27.2992  -19.9053   21.8363 H   0  0  0  0  0  0
  -29.4148  -24.0870   23.2285 H   0  0  0  0  0  0
  -30.5629  -22.7570   23.1285 H   0  0  0  0  0  0
  -31.1262  -23.2099   20.9365 H   0  0  0  0  0  0
  -30.4601  -24.8139   21.2137 H   0  0  0  0  0  0
  -27.6318  -22.7714   22.5454 H   0  0  0  0  0  0
  -28.6668  -21.4285   22.9633 H   0  0  0  0  0  0
  -29.4681  -23.2351   19.2877 H   0  0  0  0  0  0
  -27.6114  -17.4150   23.1908 H   0  0  0  0  0  0
  -27.4318  -16.2509   21.8877 H   0  0  0  0  0  0
  -26.4035  -17.6659   21.9339 H   0  0  0  0  0  0
  -27.3709  -24.5757   21.1651 H   0  0  0  0  0  0
  -27.3260  -24.4193   19.4511 H   0  0  0  0  0  0
  -28.7820  -15.5736   21.0704 H   0  0  0  0  0  0
  1 25  1  0  0  0
  1 30  2  0  0  0
  1 84  1  0  0  0
  2  3  1  0  0  0
  2 25  1  0  0  0
  2 85  1  0  0  0
  2 86  1  0  0  0
  3  4  1  0  0  0
  3 87  1  0  0  0
  3 88  1  0  0  0
  4  5  1  0  0  0
  4 89  1  0  0  0
  4 90  1  0  0  0
  5  6  1  0  0  0
  5 26  1  0  0  0
  5 91  1  0  0  0
  6 25  1  0  0  0
  6 92  1  0  0  0
  6 93  1  0  0  0
  7  8  2  0  0  0
  7 26  1  0  0  0
  7 29  1  0  0  0
  8  9  1  0  0  0
  8 22  1  0  0  0
  9 10  1  0  0  0
  9 27  2  0  0  0
 10 11  2  0  0  0
 10 15  1  0  0  0
 11 12  1  0  0  0
 11 94  1  0  0  0
 12 13  2  0  0  0
 12 95  1  0  0  0
 13 14  1  0  0  0
 13 31  1  0  0  0
 14 15  2  0  0  0
 14 96  1  0  0  0
 15 97  1  0  0  0
 16 17  2  0  0  0
 16 21  1  0  0  0
 16 31  1  0  0  0
 17 18  1  0  0  0
 17 98  1  0  0  0
 18 19  2  0  0  0
 18 99  1  0  0  0
 19 20  1  0  0  0
 19 24  1  0  0  0
 20 21  2  0  0  0
 20100  1  0  0  0
 21 23  1  0  0  0
 22 28  1  0  0  0
 22 32  2  0  0  0
 26 27  1  0  0  0
 28101  1  0  0  0
 28102  1  0  0  0
 29103  1  0  0  0
 29104  1  0  0  0
 33 34  1  0  0  0
 33 66  1  0  0  0
 33 70  2  0  0  0
 34 36  1  0  0  0
 34 59  1  0  0  0
 34105  1  0  0  0
 35 44  2  0  0  0
 35 45  1  0  0  0
 35 68  1  0  0  0
 36 56  1  0  0  0
 36106  1  0  0  0
 37 39  1  0  0  0
 37 47  1  0  0  0
 37 66  1  0  0  0
 37107  1  0  0  0
 38 43  2  0  0  0
 38 46  1  0  0  0
 38 47  1  0  0  0
 39 64  1  0  0  0
 39 67  2  0  0  0
 40 52  1  0  0  0
 40 53  2  0  0  0
 40 58  1  0  0  0
 41108  1  0  0  0
 41109  1  0  0  0
 41110  1  0  0  0
 41 48  1  0  0  0
 42 43  1  0  0  0
 42 66  1  0  0  0
 42111  1  0  0  0
 42112  1  0  0  0
 43 44  1  0  0  0
 44113  1  0  0  0
 45 46  2  0  0  0
 45114  1  0  0  0
 46115  1  0  0  0
 47116  1  0  0  0
 47117  1  0  0  0
 48 56  1  0  0  0
 48 65  1  0  0  0
 48118  1  0  0  0
 49 50  1  0  0  0
 49 53  1  0  0  0
 49 64  1  0  0  0
 49119  1  0  0  0
 50 51  1  0  0  0
 50120  1  0  0  0
 50121  1  0  0  0
 51 52  1  0  0  0
 51122  1  0  0  0
 51123  1  0  0  0
 52124  1  0  0  0
 52125  1  0  0  0
 53 54  1  0  0  0
 54 55  2  0  0  0
 54126  1  0  0  0
 55 57  1  0  0  0
 55127  1  0  0  0
 56 69  2  0  0  0
 57 58  2  0  0  0
 57128  1  0  0  0
 58129  1  0  0  0
 59 60  1  0  0  0
 59 61  1  0  0  0
 59 62  1  0  0  0
 60130  1  0  0  0
 60131  1  0  0  0
 60132  1  0  0  0
 61133  1  0  0  0
 61134  1  0  0  0
 61135  1  0  0  0
 62136  1  0  0  0
 62137  1  0  0  0
 62138  1  0  0  0
 63 65  1  0  0  0
 63139  1  0  0  0
 63140  1  0  0  0
 63141  1  0  0  0
 64142  1  0  0  0
 65143  1  0  0  0
 68 82  1  0  0  0
 71 72  2  0  0  0
 71 75  1  0  0  0
 71144  1  0  0  0
 72 76  1  0  0  0
 72145  1  0  0  0
 73 74  1  0  0  0
 73 75  2  0  0  0
 73146  1  0  0  0
 74 76  2  0  0  0
 74 81  1  0  0  0
 75 83  1  0  0  0
 76 84  1  0  0  0
 77 78  1  0  0  0
 77 79  1  0  0  0
 77147  1  0  0  0
 77148  1  0  0  0
 78 80  1  0  0  0
 78149  1  0  0  0
 78150  1  0  0  0
 79 83  1  0  0  0
 79151  1  0  0  0
 79152  1  0  0  0
 80 82  1  0  0  0
 80 83  1  0  0  0
 80153  1  0  0  0
 81154  1  0  0  0
 81155  1  0  0  0
 81156  1  0  0  0
 82157  1  0  0  0
 82158  1  0  0  0
 84159  1  0  0  0
M  ISO  4   1 100  68 101  82 101  84 100
M  END
> <chiral flag>
0

> <version>
0

> <s_m_source_file>
/data/baiqing/PycharmProjects/Reinvent-master-3.2/result/LINK_invent/BTK/process_docking_weight1_custom_product_contain_oxygen_bond_distance_aromatic_linkinvent_7_9_3/rearranged_h_0025.sdf

> <i_m_source_file_index>
35

> <r_mmod_Potential_Energy-OPLS-2005>
525.8740234375

> <r_mmod_Stretch_Energy-OPLS-2005>
215.388748168945

> <r_mmod_Bend_Energy-OPLS-2005>
326.907745361328

> <r_mmod_Torsional_Energy-OPLS-2005>
288.145843505859

> <r_mmod_Improper_Torsional_Energy-OPLS-2005>
8.48526477813721

> <r_mmod_Van_der_Waal_Energy-OPLS-2005>
136.326721191406

> <r_mmod_Electrostatic_Energy-OPLS-2005>
-394.623840332031

> <r_mmod_Solvation_Energy-OPLS-2005>
-221.111541748047

> <b_mmod_Minimization_Converged-OPLS-2005>
0

> <r_mmod_RMS_Derivative-OPLS-2005>
0.334328323602676

$$$$
35
                    3D
 Structure written by MMmdl.
169178  0  0  1  0            999 V2000
  -30.7519  -14.5926   20.2012 C   0  0  0  0  0  0
  -31.6558  -12.8527   18.9555 C   0  0  0  0  0  0
  -30.7117  -12.4586   17.2855 C   0  0  0  0  0  0
  -27.7287  -12.0563   18.2995 C   0  0  0  0  0  0
  -27.6600  -12.9065   19.9799 C   0  0  2  0  0  0
  -29.1594  -13.0323   21.0085 C   0  0  0  0  0  0
  -25.1033  -14.4093   20.8714 C   0  0  0  0  0  0
  -23.8344  -13.5973   21.0816 C   0  0  0  0  0  0
  -24.0738  -12.2746   21.3011 C   0  0  0  0  0  0
  -23.7186  -10.7448   21.1819 C   0  0  0  0  0  0
  -24.1017   -9.7001   22.1012 C   0  0  0  0  0  0
  -23.5433   -8.4042   22.1257 C   0  0  0  0  0  0
  -22.4441   -8.1014   21.3070 C   0  0  0  0  0  0
  -22.0596   -9.0712   20.3566 C   0  0  0  0  0  0
  -22.6974  -10.3411   20.2796 C   0  0  0  0  0  0
  -21.7170   -6.1020   22.4983 C   0  0  0  0  0  0
  -21.4178   -6.5875   23.7931 C   0  0  0  0  0  0
  -21.3665   -5.7025   24.8929 C   0  0  0  0  0  0
  -21.6018   -4.3276   24.7060 C   0  0  0  0  0  0
  -21.8810   -3.8360   23.4207 C   0  0  0  0  0  0
  -21.9284   -4.7155   22.3228 C   0  0  0  0  0  0
  -22.4117  -13.9790   21.1662 C   0  0  0  0  0  0
  -22.1748   -4.2194   21.0856 F   0  0  0  0  0  0
  -21.5481   -3.4772   25.7601 F   0  0  0  0  0  0
  -30.7393  -13.3180   20.4069 N   0  0  0  0  0  0
  -26.3365  -13.8480   20.6612 N   0  0  0  0  0  0
  -24.8913  -13.3771   21.1431 N   0  0  0  0  0  0
  -21.6719  -13.2066   21.9553 N   0  0  0  0  0  0
  -26.6262  -14.8771   20.7092 N   0  0  0  0  0  0
  -31.7740  -15.2607   20.2653 O   0  0  0  0  0  0
  -21.7289   -6.9166   21.3812 O   0  0  0  0  0  0
  -22.0333  -14.9524   20.5587 O   0  0  0  0  0  0
  -24.7113  -31.7677   23.1385 C   0  0  0  0  0  0
  -25.9610  -32.4261   23.7955 C   0  0  1  0  0  0
  -26.7108  -26.2223   20.3172 C   0  0  0  0  0  0
  -25.6083  -33.8128   24.1779 N   0  0  0  0  0  0
  -23.5238  -30.3933   21.5054 C   0  0  2  0  0  0
  -24.8941  -28.6890   20.0885 C   0  0  0  0  0  0
  -22.7803  -29.4173   22.4596 C   0  0  0  0  0  0
  -18.0322  -28.1435   22.8434 C   0  0  0  0  0  0
  -24.1498  -36.7096   23.2646 C   0  0  0  0  0  0
  -26.1097  -30.3235   21.4765 C   0  0  0  0  0  0
  -26.0685  -28.8579   20.8234 C   0  0  0  0  0  0
  -26.9854  -27.6437   20.9079 C   0  0  0  0  0  0
  -25.6522  -26.4136   19.4150 C   0  0  0  0  0  0
  -24.7663  -27.5194   19.3361 C   0  0  0  0  0  0
  -23.7698  -29.7328   20.1208 C   0  0  0  0  0  0
  -25.4156  -36.2792   24.0244 C   0  0  1  0  0  0
  -20.5967  -28.3783   23.1099 C   0  0  2  0  0  0
  -20.6783  -26.9420   22.5402 C   0  0  0  0  0  0
  -19.5754  -26.6349   21.5225 C   0  0  0  0  0  0
  -18.1934  -26.7954   22.1617 C   0  0  0  0  0  0
  -19.1595  -28.8939   23.2745 C   0  0  0  0  0  0
  -18.9491  -30.1519   23.8800 C   0  0  0  0  0  0
  -17.6478  -30.6606   24.0540 C   0  0  0  0  0  0
  -25.9174  -34.9188   23.4863 C   0  0  0  0  0  0
  -16.5366  -29.9081   23.6354 C   0  0  0  0  0  0
  -16.7299  -28.6512   23.0356 C   0  0  0  0  0  0
  -26.4659  -31.6468   25.0738 C   0  0  0  0  0  0
  -25.3603  -31.3917   26.1264 C   0  0  0  0  0  0
  -27.0645  -30.2752   24.6978 C   0  0  0  0  0  0
  -27.6067  -32.4416   25.7522 C   0  0  0  0  0  0
  -27.5566  -37.1693   24.8448 C   0  0  0  0  0  0
  -21.4438  -29.3006   22.3402 N   0  0  0  0  0  0
  -26.4248  -37.3597   23.9419 N   0  0  0  0  0  0
  -24.8152  -30.8776   22.0860 N   0  0  0  0  0  0
  -23.4193  -28.7730   23.2950 O   0  0  0  0  0  0
  -27.1868  -24.6648   20.4085 O   0  0  0  0  0  0
  -26.5842  -34.8825   22.4502 O   0  0  0  0  0  0
  -23.6105  -32.1005   23.6150 O   0  0  0  0  0  0
  -28.9138  -11.1057   16.3951 C   0  0  0  0  0  0
  -29.4617  -10.5101   17.8030 C   0  0  0  0  0  0
  -28.5685  -12.6620   16.0836 C   0  0  0  0  0  0
  -29.7027  -11.5622   19.0468 C   0  0  0  0  0  0
  -28.5534  -13.8902   17.1342 C   0  0  0  0  0  0
  -29.3604  -13.6075   18.5322 C   0  0  0  0  0  0
  -25.4036  -15.9832   18.8592 C   0  0  0  0  0  0
  -26.2795  -22.7354   20.5860 C   0  0  0  0  0  0
  -26.4669  -13.6539   22.9864 C   0  0  0  0  0  0
  -26.4246  -11.7619   21.5706 C   0  0  0  0  0  0
  -25.9381  -15.8829   22.6568 C   0  0  0  0  0  0
  -25.4724  -12.3557   19.1537 C   0  0  0  0  0  0
  -25.6243  -17.0836   20.7091 C   0  0  1  0  0  0
  -26.9361  -14.5346   17.2694 C   0  0  0  0  0  0
  -26.5728  -20.7117   20.4299 C   0  0  0  0  0  0
  -25.6775  -14.3271   18.3686 N   0  0  0  0  0  0
  -29.8096  -14.7876   19.2678 N   0  0  0  0  0  0
  -25.6838  -19.0329   20.7387 N   0  3  0  0  0  0
  -24.9770  -16.7121   17.9554 O   0  0  0  0  0  0
  -25.0991  -22.8839   20.9111 O   0  0  0  0  0  0
  -32.4610  -13.5520   18.7100 H   0  0  0  0  0  0
  -32.2233  -11.9643   19.2332 H   0  0  0  0  0  0
  -31.2638  -11.6718   16.7473 H   0  0  0  0  0  0
  -30.9025  -13.3141   16.6285 H   0  0  0  0  0  0
  -27.4241  -11.0363   18.5938 H   0  0  0  0  0  0
  -26.9562  -12.1564   17.5296 H   0  0  0  0  0  0
  -27.4826  -13.6019   19.2855 H   0  0  0  0  0  0
  -29.2697  -12.1497   21.6459 H   0  0  0  0  0  0
  -28.9722  -13.8010   21.7544 H   0  0  0  0  0  0
  -24.6968   -9.9127   22.9721 H   0  0  0  0  0  0
  -23.8825   -7.7099   22.8784 H   0  0  0  0  0  0
  -21.2469   -8.8540   19.6777 H   0  0  0  0  0  0
  -22.3161  -11.0596   19.5645 H   0  0  0  0  0  0
  -21.2308   -7.6402   23.9415 H   0  0  0  0  0  0
  -21.1386   -6.0816   25.8774 H   0  0  0  0  0  0
  -22.0502   -2.7804   23.2752 H   0  0  0  0  0  0
  -22.0972  -12.4785   22.5104 H   0  0  0  0  0  0
  -20.6823  -13.3594   22.0130 H   0  0  0  0  0  0
  -26.7232  -15.5215   21.4835 H   0  0  0  0  0  0
  -27.4269  -14.2582   20.7715 H   0  0  0  0  0  0
  -26.7691  -32.4548   23.0635 H   0  0  0  0  0  0
  -25.0087  -33.9120   24.9835 H   0  0  0  0  0  0
  -22.8668  -31.2480   21.3325 H   0  0  0  0  0  0
  -23.3793  -35.9386   23.3173 H   0  0  0  0  0  0
  -24.3567  -36.8926   22.2090 H   0  0  0  0  0  0
  -23.7212  -37.6203   23.6842 H   0  0  0  0  0  0
  -26.4002  -31.0121   20.6820 H   0  0  0  0  0  0
  -26.9460  -30.3468   22.1606 H   0  0  0  0  0  0
  -27.8476  -27.7370   21.5531 H   0  0  0  0  0  0
  -25.3684  -25.5527   18.8260 H   0  0  0  0  0  0
  -23.9031  -27.4143   18.6921 H   0  0  0  0  0  0
  -24.0233  -30.5045   19.3926 H   0  0  0  0  0  0
  -22.8474  -29.2779   19.7555 H   0  0  0  0  0  0
  -25.1368  -36.1508   25.0729 H   0  0  0  0  0  0
  -21.0027  -28.3422   24.1234 H   0  0  0  0  0  0
  -20.5653  -26.2396   23.3676 H   0  0  0  0  0  0
  -21.6634  -26.7351   22.1206 H   0  0  0  0  0  0
  -19.6899  -25.6235   21.1316 H   0  0  0  0  0  0
  -19.6716  -27.3108   20.6716 H   0  0  0  0  0  0
  -17.4206  -26.6682   21.4017 H   0  0  0  0  0  0
  -18.0305  -26.0136   22.9049 H   0  0  0  0  0  0
  -19.7958  -30.7360   24.2135 H   0  0  0  0  0  0
  -17.5015  -31.6274   24.5163 H   0  0  0  0  0  0
  -15.5357  -30.2946   23.7750 H   0  0  0  0  0  0
  -15.8691  -28.0811   22.7120 H   0  0  0  0  0  0
  -24.5793  -30.7293   25.7509 H   0  0  0  0  0  0
  -24.8796  -32.3188   26.4396 H   0  0  0  0  0  0
  -25.7638  -30.9214   27.0235 H   0  0  0  0  0  0
  -26.3386  -29.6169   24.2196 H   0  0  0  0  0  0
  -27.4080  -29.7466   25.5880 H   0  0  0  0  0  0
  -27.9393  -30.3765   24.0553 H   0  0  0  0  0  0
  -27.2596  -33.3835   26.1778 H   0  0  0  0  0  0
  -28.3998  -32.6785   25.0416 H   0  0  0  0  0  0
  -28.0606  -31.8775   26.5678 H   0  0  0  0  0  0
  -28.2473  -38.0092   24.7576 H   0  0  0  0  0  0
  -28.1175  -36.2617   24.6168 H   0  0  0  0  0  0
  -27.2302  -37.1187   25.8849 H   0  0  0  0  0  0
  -20.9763  -29.8728   21.6511 H   0  0  0  0  0  0
  -26.0048  -38.2624   24.1468 H   0  0  0  0  0  0
  -28.7560  -10.3911   15.6017 H   0  0  0  0  0  0
  -29.6579   -9.4531   17.9318 H   0  0  0  0  0  0
  -28.0572  -12.8255   15.1418 H   0  0  0  0  0  0
  -30.1370  -11.1040   19.9322 H   0  0  0  0  0  0
  -27.4846  -13.6771   23.3518 H   0  0  0  0  0  0
  -25.9285  -13.3409   23.8766 H   0  0  0  0  0  0
  -26.0691  -10.9239   22.0905 H   0  0  0  0  0  0
  -27.3867  -11.2339   21.5291 H   0  0  0  0  0  0
  -26.7083  -16.4324   23.1915 H   0  0  0  0  0  0
  -25.0437  -16.0520   23.2668 H   0  0  0  0  0  0
  -24.3973  -12.2970   19.0056 H   0  0  0  0  0  0
  -25.4383  -11.4722   18.5096 H   0  0  0  0  0  0
  -24.5289  -17.1125   20.8485 H   0  0  0  0  0  0
  -26.4535  -14.2962   16.3247 H   0  0  0  0  0  0
  -27.1175  -15.6014   17.1979 H   0  0  0  0  0  0
  -27.5468  -20.5675   20.8659 H   0  0  0  0  0  0
  -26.7660  -20.6361   19.3680 H   0  0  0  0  0  0
  -29.7263  -15.6975   18.8421 H   0  0  0  0  0  0
  -25.3770  -19.1945   21.6753 H   0  0  0  0  0  0
  -24.8490  -19.2178   20.2145 H   0  0  0  0  0  0
  1 25  1  0  0  0
  1 30  2  0  0  0
  1 87  1  0  0  0
  2  3  1  0  0  0
  2 25  1  0  0  0
  2 91  1  0  0  0
  2 92  1  0  0  0
  3  4  1  0  0  0
  3 93  1  0  0  0
  3 94  1  0  0  0
  4  5  1  0  0  0
  4 95  1  0  0  0
  4 96  1  0  0  0
  5  6  1  0  0  0
  5 26  1  0  0  0
  5 97  1  0  0  0
  6 25  1  0  0  0
  6 98  1  0  0  0
  6 99  1  0  0  0
  7  8  2  0  0  0
  7 26  1  0  0  0
  7 29  1  0  0  0
  8  9  1  0  0  0
  8 22  1  0  0  0
  9 10  1  0  0  0
  9 27  2  0  0  0
 10 11  2  0  0  0
 10 15  1  0  0  0
 11 12  1  0  0  0
 11100  1  0  0  0
 12 13  2  0  0  0
 12101  1  0  0  0
 13 14  1  0  0  0
 13 31  1  0  0  0
 14 15  2  0  0  0
 14102  1  0  0  0
 15103  1  0  0  0
 16 17  2  0  0  0
 16 21  1  0  0  0
 16 31  1  0  0  0
 17 18  1  0  0  0
 17104  1  0  0  0
 18 19  2  0  0  0
 18105  1  0  0  0
 19 20  1  0  0  0
 19 24  1  0  0  0
 20 21  2  0  0  0
 20106  1  0  0  0
 21 23  1  0  0  0
 22 28  1  0  0  0
 22 32  2  0  0  0
 26 27  1  0  0  0
 28107  1  0  0  0
 28108  1  0  0  0
 29109  1  0  0  0
 29110  1  0  0  0
 33 34  1  0  0  0
 33 66  1  0  0  0
 33 70  2  0  0  0
 34 36  1  0  0  0
 34 59  1  0  0  0
 34111  1  0  0  0
 35 44  2  0  0  0
 35 45  1  0  0  0
 35 68  1  0  0  0
 36 56  1  0  0  0
 36112  1  0  0  0
 37 39  1  0  0  0
 37 47  1  0  0  0
 37 66  1  0  0  0
 37113  1  0  0  0
 38 43  2  0  0  0
 38 46  1  0  0  0
 38 47  1  0  0  0
 39 64  1  0  0  0
 39 67  2  0  0  0
 40 52  1  0  0  0
 40 53  2  0  0  0
 40 58  1  0  0  0
 41114  1  0  0  0
 41115  1  0  0  0
 41116  1  0  0  0
 41 48  1  0  0  0
 42 43  1  0  0  0
 42 66  1  0  0  0
 42117  1  0  0  0
 42118  1  0  0  0
 43 44  1  0  0  0
 44119  1  0  0  0
 45 46  2  0  0  0
 45120  1  0  0  0
 46121  1  0  0  0
 47122  1  0  0  0
 47123  1  0  0  0
 48 56  1  0  0  0
 48 65  1  0  0  0
 48124  1  0  0  0
 49 50  1  0  0  0
 49 53  1  0  0  0
 49 64  1  0  0  0
 49125  1  0  0  0
 50 51  1  0  0  0
 50126  1  0  0  0
 50127  1  0  0  0
 51 52  1  0  0  0
 51128  1  0  0  0
 51129  1  0  0  0
 52130  1  0  0  0
 52131  1  0  0  0
 53 54  1  0  0  0
 54 55  2  0  0  0
 54132  1  0  0  0
 55 57  1  0  0  0
 55133  1  0  0  0
 56 69  2  0  0  0
 57 58  2  0  0  0
 57134  1  0  0  0
 58135  1  0  0  0
 59 60  1  0  0  0
 59 61  1  0  0  0
 59 62  1  0  0  0
 60136  1  0  0  0
 60137  1  0  0  0
 60138  1  0  0  0
 61139  1  0  0  0
 61140  1  0  0  0
 61141  1  0  0  0
 62142  1  0  0  0
 62143  1  0  0  0
 62144  1  0  0  0
 63 65  1  0  0  0
 63145  1  0  0  0
 63146  1  0  0  0
 63147  1  0  0  0
 64148  1  0  0  0
 65149  1  0  0  0
 68 78  1  0  0  0
 71 72  2  0  0  0
 71 73  1  0  0  0
 71150  1  0  0  0
 72 74  1  0  0  0
 72151  1  0  0  0
 73 75  2  0  0  0
 73152  1  0  0  0
 74 76  2  0  0  0
 74153  1  0  0  0
 75 76  1  0  0  0
 75 84  1  0  0  0
 76 87  1  0  0  0
 77 83  1  0  0  0
 77 86  1  0  0  0
 77 89  2  0  0  0
 78 85  1  0  0  0
 78 90  2  0  0  0
 79 80  1  0  0  0
 79 81  1  0  0  0
 79154  1  0  0  0
 79155  1  0  0  0
 80 82  1  0  0  0
 80156  1  0  0  0
 80157  1  0  0  0
 81 83  1  0  0  0
 81158  1  0  0  0
 81159  1  0  0  0
 82 86  1  0  0  0
 82160  1  0  0  0
 82161  1  0  0  0
 83 88  1  0  0  0
 83162  1  0  0  0
 84 86  1  0  0  0
 84163  1  0  0  0
 84164  1  0  0  0
 85 88  1  0  0  0
 85165  1  0  0  0
 85166  1  0  0  0
 87167  1  0  0  0
 88168  1  0  0  0
 88169  1  0  0  0
M  CHG  1  88   1
M  ISO  4   1 100  68 101  78 101  87 100
M  END
> <chiral flag>
0

> <version>
0

> <s_m_source_file>
/data/baiqing/PycharmProjects/Reinvent-master-3.2/result/LINK_invent/BTK/process_docking_weight1_custom_product_contain_oxygen_bond_distance_aromatic_linkinvent_7_9_3/rearranged_h_0025.sdf

> <i_m_source_file_index>
36

> <r_mmod_Potential_Energy-OPLS-2005>
24346.234375

> <r_mmod_Stretch_Energy-OPLS-2005>
12970.736328125

> <r_mmod_Bend_Energy-OPLS-2005>
3314.91064453125

> <r_mmod_Torsional_Energy-OPLS-2005>
655.71337890625

> <r_mmod_Improper_Torsional_Energy-OPLS-2005>
78.8840255737305

> <r_mmod_Van_der_Waal_Energy-OPLS-2005>
5535.408203125

> <r_mmod_Electrostatic_Energy-OPLS-2005>
-444.704864501953

> <r_mmod_Solvation_Energy-OPLS-2005>
-486.880279541016

> <b_mmod_Minimization_Converged-OPLS-2005>
0

> <r_mmod_RMS_Derivative-OPLS-2005>
26.2445755004883

$$$$
36
                    3D
 Structure written by MMmdl.
168178  0  0  1  0            999 V2000
  -30.8039  -14.3789   20.6339 C   0  0  0  0  0  0
  -30.4045  -12.2847   19.3940 C   0  0  0  0  0  0
  -29.4777  -12.5272   18.1907 C   0  0  0  0  0  0
  -28.0028  -12.3925   18.6131 C   0  0  0  0  0  0
  -27.6680  -13.2150   19.8872 C   0  0  2  0  0  0
  -28.7208  -12.9765   20.9976 C   0  0  0  0  0  0
  -25.2620  -13.8190   20.5735 C   0  0  0  0  0  0
  -24.1867  -13.0448   20.9204 C   0  0  0  0  0  0
  -24.6431  -11.6924   20.8744 C   0  0  0  0  0  0
  -23.9097  -10.4299   21.0407 C   0  0  0  0  0  0
  -24.3629   -9.4197   21.9181 C   0  0  0  0  0  0
  -23.6295   -8.2232   22.0744 C   0  0  0  0  0  0
  -22.4276   -8.0286   21.3544 C   0  0  0  0  0  0
  -21.9929   -9.0267   20.4642 C   0  0  0  0  0  0
  -22.7270  -10.2145   20.3053 C   0  0  0  0  0  0
  -21.6854   -6.0746   22.5282 C   0  0  0  0  0  0
  -21.4017   -6.5645   23.8219 C   0  0  0  0  0  0
  -21.3652   -5.6792   24.9176 C   0  0  0  0  0  0
  -21.6036   -4.3058   24.7226 C   0  0  0  0  0  0
  -21.8818   -3.8154   23.4348 C   0  0  0  0  0  0
  -21.9193   -4.6971   22.3403 C   0  0  0  0  0  0
  -22.7872  -13.5225   21.1848 C   0  0  0  0  0  0
  -22.1661   -4.2160   21.0981 F   0  0  0  0  0  0
  -21.5622   -3.4537   25.7736 F   0  0  0  0  0  0
  -30.0526  -13.2597   20.4398 N   0  0  0  0  0  0
  -26.3083  -12.9377   20.3491 N   0  0  0  0  0  0
  -25.9371  -11.6530   20.5825 N   0  0  0  0  0  0
  -22.0510  -12.8215   22.0393 N   0  0  0  0  0  0
  -25.4334  -15.1906   20.4109 N   0  0  0  0  0  0
  -31.8248  -14.5775   19.9751 O   0  0  0  0  0  0
  -21.6635   -6.8892   21.4247 O   0  0  0  0  0  0
  -22.3550  -14.5525   20.6690 O   0  0  0  0  0  0
  -24.6191  -31.8666   23.2079 C   0  0  0  0  0  0
  -25.9106  -32.4801   23.8362 C   0  0  1  0  0  0
  -27.2346  -27.4289   20.0707 C   0  0  0  0  0  0
  -25.5963  -33.8603   24.2313 N   0  0  0  0  0  0
  -23.4074  -30.4953   21.5468 C   0  0  2  0  0  0
  -24.8482  -28.9593   20.1142 C   0  0  0  0  0  0
  -22.7438  -29.4682   22.4939 C   0  0  0  0  0  0
  -18.0313  -28.1392   22.8487 C   0  0  0  0  0  0
  -24.1505  -36.7281   23.2642 C   0  0  0  0  0  0
  -25.9419  -30.8246   21.3699 C   0  0  0  0  0  0
  -26.0095  -29.4621   20.7099 C   0  0  0  0  0  0
  -27.1986  -28.6983   20.6954 C   0  0  0  0  0  0
  -26.0391  -26.9265   19.5061 C   0  0  0  0  0  0
  -24.8549  -27.6870   19.5181 C   0  0  0  0  0  0
  -23.6143  -29.8330   20.1596 C   0  0  0  0  0  0
  -25.4123  -36.3102   24.0362 C   0  0  1  0  0  0
  -20.5905  -28.3693   23.1309 C   0  0  2  0  0  0
  -20.6807  -26.9425   22.5432 C   0  0  0  0  0  0
  -19.5777  -26.6403   21.5239 C   0  0  0  0  0  0
  -18.1944  -26.7958   22.1613 C   0  0  0  0  0  0
  -19.1563  -28.8852   23.2900 C   0  0  0  0  0  0
  -18.9478  -30.1456   23.8916 C   0  0  0  0  0  0
  -17.6480  -30.6593   24.0567 C   0  0  0  0  0  0
  -25.9088  -34.9479   23.5145 C   0  0  0  0  0  0
  -16.5366  -29.9097   23.6332 C   0  0  0  0  0  0
  -16.7301  -28.6522   23.0332 C   0  0  0  0  0  0
  -26.4515  -31.6590   25.0714 C   0  0  0  0  0  0
  -25.3770  -31.3708   26.1449 C   0  0  0  0  0  0
  -27.0386  -30.3038   24.6115 C   0  0  0  0  0  0
  -27.6084  -32.4310   25.7462 C   0  0  0  0  0  0
  -27.5615  -37.1747   24.8436 C   0  0  0  0  0  0
  -21.4166  -29.3052   22.3691 N   0  0  0  0  0  0
  -26.4278  -37.3808   23.9482 N   0  0  0  0  0  0
  -24.6749  -31.0756   22.0986 N   0  0  0  0  0  0
  -23.4212  -28.8222   23.2988 O   0  0  0  0  0  0
  -28.4251  -26.7233   20.0707 O   0  0  0  0  0  0
  -26.5614  -34.8931   22.4684 O   0  0  0  0  0  0
  -23.5375  -32.1434   23.7434 O   0  0  0  0  0  0
  -28.7216  -20.6615   22.4548 C   0  0  0  0  0  0
  -28.5535  -22.0014   22.0556 C   0  0  0  0  0  0
  -28.7275  -19.6188   21.5041 C   0  0  0  0  0  0
  -28.3740  -22.3342   20.6980 C   0  0  0  0  0  0
  -28.5898  -19.9438   20.1305 C   0  0  0  0  0  0
  -28.4073  -21.2931   19.7276 C   0  0  0  0  0  0
  -32.2638  -17.1068   21.5391 C   0  0  0  0  0  0
  -30.9398  -16.8893   21.3597 C   0  0  0  0  0  0
  -32.7764  -16.8765   22.9614 C   0  0  0  0  0  0
  -31.0401  -15.0604   23.0833 C   0  0  0  0  0  0
  -30.4519  -17.3845   23.7638 C   0  0  0  0  0  0
  -30.4417  -15.4528   21.6890 C   0  0  2  0  0  0
  -31.5862  -16.3279   23.7985 C   0  0  2  0  0  0
  -28.8177  -18.1740   22.0008 C   0  0  0  0  0  0
  -29.1749  -24.3994   19.6638 C   0  0  0  0  0  0
  -28.6780  -25.7310   19.0600 C   0  0  0  0  0  0
  -28.1194  -23.6822   20.3752 N   0  0  0  0  0  0
  -30.2101  -17.7769   22.3377 N   0  3  2  0  0  0
  -28.6140  -18.6850   18.9359 Cl  0  0  0  0  0  0
  -28.1586  -21.6509   18.0494 Cl  0  0  0  0  0  0
  -31.4488  -12.3488   19.0841 H   0  0  0  0  0  0
  -30.2794  -11.2698   19.7732 H   0  0  0  0  0  0
  -29.7019  -11.8220   17.3905 H   0  0  0  0  0  0
  -29.6571  -13.5236   17.7831 H   0  0  0  0  0  0
  -27.8034  -11.3354   18.7912 H   0  0  0  0  0  0
  -27.3472  -12.6927   17.7946 H   0  0  0  0  0  0
  -27.7192  -14.2675   19.6076 H   0  0  0  0  0  0
  -28.6847  -11.9378   21.3247 H   0  0  0  0  0  0
  -28.4927  -13.5608   21.8860 H   0  0  0  0  0  0
  -25.2778   -9.5658   22.4758 H   0  0  0  0  0  0
  -24.0009   -7.4616   22.7457 H   0  0  0  0  0  0
  -21.0860   -8.8788   19.8941 H   0  0  0  0  0  0
  -22.3738  -10.9678   19.6152 H   0  0  0  0  0  0
  -21.2011   -7.6155   23.9729 H   0  0  0  0  0  0
  -21.1469   -6.0521   25.9082 H   0  0  0  0  0  0
  -22.0604   -2.7617   23.2844 H   0  0  0  0  0  0
  -22.4110  -11.9864   22.4772 H   0  0  0  0  0  0
  -21.1121  -13.1225   22.2581 H   0  0  0  0  0  0
  -24.6580  -15.8419   20.4819 H   0  0  0  0  0  0
  -26.2775  -15.6191   20.0528 H   0  0  0  0  0  0
  -26.7156  -32.5472   23.1094 H   0  0  0  0  0  0
  -25.0192  -33.9748   25.0504 H   0  0  0  0  0  0
  -22.7026  -31.3172   21.4038 H   0  0  0  0  0  0
  -23.3818  -35.9551   23.3248 H   0  0  0  0  0  0
  -24.3631  -36.8945   22.2065 H   0  0  0  0  0  0
  -23.7171  -37.6448   23.6660 H   0  0  0  0  0  0
  -26.0800  -31.5966   20.6121 H   0  0  0  0  0  0
  -26.8227  -30.8544   22.0006 H   0  0  0  0  0  0
  -28.0986  -29.0822   21.1553 H   0  0  0  0  0  0
  -25.9819  -25.9373   19.0790 H   0  0  0  0  0  0
  -23.9510  -27.2873   19.0838 H   0  0  0  0  0  0
  -23.7300  -30.6107   19.4034 H   0  0  0  0  0  0
  -22.7364  -29.2636   19.8545 H   0  0  0  0  0  0
  -25.1269  -36.1945   25.0839 H   0  0  0  0  0  0
  -20.9979  -28.3223   24.1427 H   0  0  0  0  0  0
  -20.5756  -26.2276   23.3602 H   0  0  0  0  0  0
  -21.6656  -26.7500   22.1164 H   0  0  0  0  0  0
  -19.6963  -25.6337   21.1216 H   0  0  0  0  0  0
  -19.6703  -27.3249   20.6800 H   0  0  0  0  0  0
  -17.4231  -26.6755   21.3981 H   0  0  0  0  0  0
  -18.0269  -26.0103   22.8989 H   0  0  0  0  0  0
  -19.7965  -30.7270   24.2235 H   0  0  0  0  0  0
  -17.5056  -31.6258   24.5186 H   0  0  0  0  0  0
  -15.5373  -30.2988   23.7688 H   0  0  0  0  0  0
  -15.8703  -28.0860   22.6995 H   0  0  0  0  0  0
  -24.5934  -30.7060   25.7777 H   0  0  0  0  0  0
  -24.8979  -32.2888   26.4864 H   0  0  0  0  0  0
  -25.8128  -30.8879   27.0202 H   0  0  0  0  0  0
  -26.2937  -29.6712   24.1265 H   0  0  0  0  0  0
  -27.4311  -29.7332   25.4538 H   0  0  0  0  0  0
  -27.8694  -30.4412   23.9193 H   0  0  0  0  0  0
  -27.2722  -33.3611   26.2033 H   0  0  0  0  0  0
  -28.3885  -32.6849   25.0284 H   0  0  0  0  0  0
  -28.0759  -31.8438   26.5366 H   0  0  0  0  0  0
  -28.2491  -38.0182   24.7724 H   0  0  0  0  0  0
  -28.1251  -36.2732   24.5950 H   0  0  0  0  0  0
  -27.2376  -37.1032   25.8833 H   0  0  0  0  0  0
  -20.9298  -29.8766   21.6908 H   0  0  0  0  0  0
  -26.0169  -38.2860   24.1584 H   0  0  0  0  0  0
  -28.8226  -20.4363   23.5072 H   0  0  0  0  0  0
  -28.5393  -22.7751   22.8118 H   0  0  0  0  0  0
  -32.9329  -16.5920   20.8643 H   0  0  0  0  0  0
  -33.1831  -17.7975   23.3818 H   0  0  0  0  0  0
  -33.5937  -16.1531   22.9393 H   0  0  0  0  0  0
  -31.8509  -14.3370   22.9791 H   0  0  0  0  0  0
  -30.2803  -14.5678   23.6917 H   0  0  0  0  0  0
  -30.7345  -18.2691   24.3350 H   0  0  0  0  0  0
  -29.5553  -16.9803   24.2334 H   0  0  0  0  0  0
  -29.3570  -15.4973   21.7612 H   0  0  0  0  0  0
  -31.8952  -16.1009   24.8202 H   0  0  0  0  0  0
  -28.3836  -17.4829   21.2787 H   0  0  0  0  0  0
  -28.1725  -18.0945   22.8773 H   0  0  0  0  0  0
  -30.0108  -24.5869   20.3398 H   0  0  0  0  0  0
  -29.5645  -23.7743   18.8599 H   0  0  0  0  0  0
  -27.8640  -25.5379   18.3655 H   0  0  0  0  0  0
  -29.4751  -26.1308   18.4322 H   0  0  0  0  0  0
  -27.7778  -24.2309   21.1568 H   0  0  0  0  0  0
  -30.6918  -18.6605   22.2850 H   0  0  0  0  0  0
  1 25  1  0  0  0
  1 30  2  0  0  0
  1 82  1  0  0  0
  2  3  1  0  0  0
  2 25  1  0  0  0
  2 91  1  0  0  0
  2 92  1  0  0  0
  3  4  1  0  0  0
  3 93  1  0  0  0
  3 94  1  0  0  0
  4  5  1  0  0  0
  4 95  1  0  0  0
  4 96  1  0  0  0
  5  6  1  0  0  0
  5 26  1  0  0  0
  5 97  1  0  0  0
  6 25  1  0  0  0
  6 98  1  0  0  0
  6 99  1  0  0  0
  7  8  2  0  0  0
  7 26  1  0  0  0
  7 29  1  0  0  0
  8  9  1  0  0  0
  8 22  1  0  0  0
  9 10  1  0  0  0
  9 27  2  0  0  0
 10 11  2  0  0  0
 10 15  1  0  0  0
 11 12  1  0  0  0
 11100  1  0  0  0
 12 13  2  0  0  0
 12101  1  0  0  0
 13 14  1  0  0  0
 13 31  1  0  0  0
 14 15  2  0  0  0
 14102  1  0  0  0
 15103  1  0  0  0
 16 17  2  0  0  0
 16 21  1  0  0  0
 16 31  1  0  0  0
 17 18  1  0  0  0
 17104  1  0  0  0
 18 19  2  0  0  0
 18105  1  0  0  0
 19 20  1  0  0  0
 19 24  1  0  0  0
 20 21  2  0  0  0
 20106  1  0  0  0
 21 23  1  0  0  0
 22 28  1  0  0  0
 22 32  2  0  0  0
 26 27  1  0  0  0
 28107  1  0  0  0
 28108  1  0  0  0
 29109  1  0  0  0
 29110  1  0  0  0
 33 34  1  0  0  0
 33 66  1  0  0  0
 33 70  2  0  0  0
 34 36  1  0  0  0
 34 59  1  0  0  0
 34111  1  0  0  0
 35 44  2  0  0  0
 35 45  1  0  0  0
 35 68  1  0  0  0
 36 56  1  0  0  0
 36112  1  0  0  0
 37 39  1  0  0  0
 37 47  1  0  0  0
 37 66  1  0  0  0
 37113  1  0  0  0
 38 43  2  0  0  0
 38 46  1  0  0  0
 38 47  1  0  0  0
 39 64  1  0  0  0
 39 67  2  0  0  0
 40 52  1  0  0  0
 40 53  2  0  0  0
 40 58  1  0  0  0
 41114  1  0  0  0
 41115  1  0  0  0
 41116  1  0  0  0
 41 48  1  0  0  0
 42 43  1  0  0  0
 42 66  1  0  0  0
 42117  1  0  0  0
 42118  1  0  0  0
 43 44  1  0  0  0
 44119  1  0  0  0
 45 46  2  0  0  0
 45120  1  0  0  0
 46121  1  0  0  0
 47122  1  0  0  0
 47123  1  0  0  0
 48 56  1  0  0  0
 48 65  1  0  0  0
 48124  1  0  0  0
 49 50  1  0  0  0
 49 53  1  0  0  0
 49 64  1  0  0  0
 49125  1  0  0  0
 50 51  1  0  0  0
 50126  1  0  0  0
 50127  1  0  0  0
 51 52  1  0  0  0
 51128  1  0  0  0
 51129  1  0  0  0
 52130  1  0  0  0
 52131  1  0  0  0
 53 54  1  0  0  0
 54 55  2  0  0  0
 54132  1  0  0  0
 55 57  1  0  0  0
 55133  1  0  0  0
 56 69  2  0  0  0
 57 58  2  0  0  0
 57134  1  0  0  0
 58135  1  0  0  0
 59 60  1  0  0  0
 59 61  1  0  0  0
 59 62  1  0  0  0
 60136  1  0  0  0
 60137  1  0  0  0
 60138  1  0  0  0
 61139  1  0  0  0
 61140  1  0  0  0
 61141  1  0  0  0
 62142  1  0  0  0
 62143  1  0  0  0
 62144  1  0  0  0
 63 65  1  0  0  0
 63145  1  0  0  0
 63146  1  0  0  0
 63147  1  0  0  0
 64148  1  0  0  0
 65149  1  0  0  0
 68 86  1  0  0  0
 71 72  2  0  0  0
 71 73  1  0  0  0
 71150  1  0  0  0
 72 74  1  0  0  0
 72151  1  0  0  0
 73 75  2  0  0  0
 73 84  1  0  0  0
 74 76  2  0  0  0
 74 87  1  0  0  0
 75 76  1  0  0  0
 75 89  1  0  0  0
 76 90  1  0  0  0
 77 78  2  0  0  0
 77 79  1  0  0  0
 77152  1  0  0  0
 78 82  1  0  0  0
 78 88  1  0  0  0
 79153  1  0  0  0
 79154  1  0  0  0
 79 83  1  0  0  0
 80 82  1  0  0  0
 80 83  1  0  0  0
 80155  1  0  0  0
 80156  1  0  0  0
 81 83  1  0  0  0
 81 88  1  0  0  0
 81157  1  0  0  0
 81158  1  0  0  0
 82159  1  0  0  0
 83160  1  0  0  0
 84161  1  0  0  0
 84162  1  0  0  0
 84 88  1  0  0  0
 85 86  1  0  0  0
 85 87  1  0  0  0
 85163  1  0  0  0
 85164  1  0  0  0
 86165  1  0  0  0
 86166  1  0  0  0
 87167  1  0  0  0
 88168  1  0  0  0
M  CHG  1  88   1
M  ISO  4   1 100  68 101  82 100  86 101
M  END
> <chiral flag>
0

> <version>
0

> <s_m_source_file>
/data/baiqing/PycharmProjects/Reinvent-master-3.2/result/LINK_invent/BTK/process_docking_weight1_custom_product_contain_oxygen_bond_distance_aromatic_linkinvent_7_9_3/rearranged_h_0025.sdf

> <i_m_source_file_index>
37

> <r_mmod_Potential_Energy-OPLS-2005>
181.581497192383

> <r_mmod_Stretch_Energy-OPLS-2005>
47.7571716308594

> <r_mmod_Bend_Energy-OPLS-2005>
151.519607543945

> <r_mmod_Torsional_Energy-OPLS-2005>
373.279083251953

> <r_mmod_Improper_Torsional_Energy-OPLS-2005>
18.5567302703857

> <r_mmod_Van_der_Waal_Energy-OPLS-2005>
194.810470581055

> <r_mmod_Electrostatic_Energy-OPLS-2005>
-172.551849365234

> <r_mmod_Solvation_Energy-OPLS-2005>
-443.1943359375

> <b_mmod_Minimization_Converged-OPLS-2005>
0

> <r_mmod_RMS_Derivative-OPLS-2005>
3.95320463180542

$$$$
37
                    3D
 Structure written by MMmdl.
158167  0  0  1  0            999 V2000
  -30.5637  -14.7060   20.5977 C   0  0  0  0  0  0
  -30.4466  -12.4533   19.4938 C   0  0  0  0  0  0
  -29.5378  -12.5810   18.2487 C   0  0  0  0  0  0
  -28.0559  -12.3861   18.6291 C   0  0  0  0  0  0
  -27.6516  -13.2325   19.8650 C   0  0  2  0  0  0
  -28.6737  -13.0820   21.0146 C   0  0  0  0  0  0
  -25.2489  -13.8186   20.5632 C   0  0  0  0  0  0
  -24.1799  -13.0430   20.9097 C   0  0  0  0  0  0
  -24.6386  -11.6892   20.8669 C   0  0  0  0  0  0
  -23.9079  -10.4283   21.0367 C   0  0  0  0  0  0
  -24.3636   -9.4220   21.9185 C   0  0  0  0  0  0
  -23.6299   -8.2246   22.0770 C   0  0  0  0  0  0
  -22.4282   -8.0260   21.3545 C   0  0  0  0  0  0
  -21.9909   -9.0225   20.4667 C   0  0  0  0  0  0
  -22.7242  -10.2106   20.3050 C   0  0  0  0  0  0
  -21.6849   -6.0711   22.5263 C   0  0  0  0  0  0
  -21.4049   -6.5620   23.8206 C   0  0  0  0  0  0
  -21.3687   -5.6780   24.9155 C   0  0  0  0  0  0
  -21.6032   -4.3029   24.7222 C   0  0  0  0  0  0
  -21.8819   -3.8120   23.4339 C   0  0  0  0  0  0
  -21.9199   -4.6935   22.3399 C   0  0  0  0  0  0
  -22.7809  -13.5186   21.1803 C   0  0  0  0  0  0
  -22.1652   -4.2124   21.0975 F   0  0  0  0  0  0
  -21.5626   -3.4511   25.7736 F   0  0  0  0  0  0
  -29.9966  -13.4575   20.4883 N   0  0  0  0  0  0
  -26.2918  -12.9414   20.3165 N   0  0  0  0  0  0
  -25.9311  -11.6547   20.5629 N   0  0  0  0  0  0
  -22.0432  -12.8239   22.0381 N   0  0  0  0  0  0
  -25.4097  -15.1944   20.4123 N   0  0  0  0  0  0
  -31.7053  -14.9203   20.1703 O   0  0  0  0  0  0
  -21.6619   -6.8863   21.4249 O   0  0  0  0  0  0
  -22.3504  -14.5472   20.6619 O   0  0  0  0  0  0
  -24.6244  -31.8574   23.1879 C   0  0  0  0  0  0
  -25.9103  -32.4761   23.8170 C   0  0  1  0  0  0
  -27.2338  -27.2993   20.1483 C   0  0  0  0  0  0
  -25.5908  -33.8549   24.2116 N   0  0  0  0  0  0
  -23.4144  -30.4732   21.5370 C   0  0  2  0  0  0
  -24.8650  -28.9055   20.1262 C   0  0  0  0  0  0
  -22.7435  -29.4628   22.4966 C   0  0  0  0  0  0
  -18.0303  -28.1388   22.8537 C   0  0  0  0  0  0
  -24.1483  -36.7260   23.2629 C   0  0  0  0  0  0
  -25.9529  -30.7834   21.3583 C   0  0  0  0  0  0
  -26.0295  -29.4012   20.7235 C   0  0  0  0  0  0
  -27.2170  -28.6113   20.7194 C   0  0  0  0  0  0
  -26.0511  -26.8521   19.5323 C   0  0  0  0  0  0
  -24.8780  -27.6387   19.5198 C   0  0  0  0  0  0
  -23.6262  -29.7787   20.1619 C   0  0  0  0  0  0
  -25.4119  -36.3052   24.0288 C   0  0  1  0  0  0
  -20.5900  -28.3662   23.1329 C   0  0  2  0  0  0
  -20.6812  -26.9391   22.5437 C   0  0  0  0  0  0
  -19.5776  -26.6403   21.5234 C   0  0  0  0  0  0
  -18.1957  -26.7950   22.1632 C   0  0  0  0  0  0
  -19.1557  -28.8853   23.2928 C   0  0  0  0  0  0
  -18.9459  -30.1479   23.8891 C   0  0  0  0  0  0
  -17.6453  -30.6597   24.0575 C   0  0  0  0  0  0
  -25.9083  -34.9450   23.5029 C   0  0  0  0  0  0
  -16.5348  -29.9086   23.6363 C   0  0  0  0  0  0
  -16.7289  -28.6514   23.0385 C   0  0  0  0  0  0
  -26.4473  -31.6629   25.0577 C   0  0  0  0  0  0
  -25.3690  -31.3858   26.1292 C   0  0  0  0  0  0
  -27.0315  -30.3025   24.6096 C   0  0  0  0  0  0
  -27.5956  -32.4424   25.7423 C   0  0  0  0  0  0
  -27.5583  -37.1771   24.8446 C   0  0  0  0  0  0
  -21.4171  -29.2974   22.3665 N   0  0  0  0  0  0
  -26.4266  -37.3777   23.9420 N   0  0  0  0  0  0
  -24.6813  -31.0575   22.0829 N   0  0  0  0  0  0
  -23.4174  -28.8255   23.3086 O   0  0  0  0  0  0
  -28.3984  -26.5350   20.0157 O   0  0  0  0  0  0
  -26.5665  -34.8949   22.4606 O   0  0  0  0  0  0
  -23.5431  -32.1327   23.7254 O   0  0  0  0  0  0
  -30.5603  -19.4775   20.7345 C   0  0  0  0  0  0
  -30.7558  -18.0594   20.8423 C   0  0  0  0  0  0
  -28.3947  -17.8060   21.1932 C   0  0  0  0  0  0
  -29.2763  -20.1056   20.7635 C   0  0  0  0  0  0
  -29.6608  -17.1670   21.0290 C   0  0  0  0  0  0
  -28.1892  -19.2169   21.0292 C   0  0  0  0  0  0
  -29.1025  -21.5851   20.2930 C   0  0  0  0  0  0
  -26.7377  -23.1504   22.5927 C   0  0  0  0  0  0
  -26.5247  -23.9853   21.3281 C   0  0  0  0  0  0
  -28.0854  -22.4481   22.4201 C   0  0  0  0  0  0
  -27.8173  -23.8686   20.4967 C   0  0  1  0  0  0
  -28.6658  -25.2197   20.6528 C   0  0  0  0  0  0
  -28.4405  -22.5692   21.0099 N   0  0  0  0  0  0
  -29.7367  -15.6917   21.1097 N   0  0  0  0  0  0
  -29.5598  -21.8576   19.1795 O   0  0  0  0  0  0
  -26.5554  -19.7958   21.0700 Cl  0  0  0  0  0  0
  -31.4958  -12.5920   19.2225 H   0  0  0  0  0  0
  -30.3814  -11.4443   19.9089 H   0  0  0  0  0  0
  -29.8323  -11.8643   17.4825 H   0  0  0  0  0  0
  -29.6795  -13.5681   17.8036 H   0  0  0  0  0  0
  -27.8959  -11.3275   18.8342 H   0  0  0  0  0  0
  -27.4181  -12.6330   17.7796 H   0  0  0  0  0  0
  -27.6663  -14.2743   19.5419 H   0  0  0  0  0  0
  -28.6883  -12.0547   21.3851 H   0  0  0  0  0  0
  -28.3781  -13.6903   21.8739 H   0  0  0  0  0  0
  -25.2787   -9.5651   22.4757 H   0  0  0  0  0  0
  -23.9975   -7.4632   22.7513 H   0  0  0  0  0  0
  -21.0806   -8.8755   19.9000 H   0  0  0  0  0  0
  -22.3703  -10.9630   19.6125 H   0  0  0  0  0  0
  -21.2085   -7.6153   23.9714 H   0  0  0  0  0  0
  -21.1510   -6.0499   25.9063 H   0  0  0  0  0  0
  -22.0598   -2.7574   23.2827 H   0  0  0  0  0  0
  -22.4023  -11.9912   22.4853 H   0  0  0  0  0  0
  -21.1088  -13.1307   22.2578 H   0  0  0  0  0  0
  -24.6193  -15.8225   20.5107 H   0  0  0  0  0  0
  -26.2504  -15.6563   20.0935 H   0  0  0  0  0  0
  -26.7178  -32.5447   23.0914 H   0  0  0  0  0  0
  -25.0042  -33.9616   25.0254 H   0  0  0  0  0  0
  -22.7097  -31.2887   21.3791 H   0  0  0  0  0  0
  -23.3750  -35.9598   23.3299 H   0  0  0  0  0  0
  -24.3564  -36.8881   22.2051 H   0  0  0  0  0  0
  -23.7245  -37.6453   23.6680 H   0  0  0  0  0  0
  -26.0808  -31.5407   20.5843 H   0  0  0  0  0  0
  -26.8360  -30.8413   21.9873 H   0  0  0  0  0  0
  -28.1224  -29.0046   21.1580 H   0  0  0  0  0  0
  -26.0449  -25.8919   19.0412 H   0  0  0  0  0  0
  -23.9892  -27.2525   19.0366 H   0  0  0  0  0  0
  -23.7072  -30.5253   19.3697 H   0  0  0  0  0  0
  -22.7552  -29.1738   19.8972 H   0  0  0  0  0  0
  -25.1340  -36.1818   25.0776 H   0  0  0  0  0  0
  -20.9993  -28.3248   24.1430 H   0  0  0  0  0  0
  -20.5738  -26.2249   23.3616 H   0  0  0  0  0  0
  -21.6685  -26.7478   22.1164 H   0  0  0  0  0  0
  -19.6894  -25.6320   21.1237 H   0  0  0  0  0  0
  -19.6697  -27.3260   20.6797 H   0  0  0  0  0  0
  -17.4212  -26.6737   21.4020 H   0  0  0  0  0  0
  -18.0306  -26.0086   22.9006 H   0  0  0  0  0  0
  -19.7938  -30.7344   24.2182 H   0  0  0  0  0  0
  -17.5013  -31.6272   24.5174 H   0  0  0  0  0  0
  -15.5357  -30.2965   23.7724 H   0  0  0  0  0  0
  -15.8707  -28.0840   22.7079 H   0  0  0  0  0  0
  -24.5790  -30.7281   25.7633 H   0  0  0  0  0  0
  -24.8948  -32.3088   26.4637 H   0  0  0  0  0  0
  -25.7925  -30.9055   27.0097 H   0  0  0  0  0  0
  -26.2870  -29.6801   24.1084 H   0  0  0  0  0  0
  -27.3943  -29.7272   25.4623 H   0  0  0  0  0  0
  -27.8786  -30.4264   23.9337 H   0  0  0  0  0  0
  -27.2415  -33.3666   26.1993 H   0  0  0  0  0  0
  -28.3791  -32.7082   25.0329 H   0  0  0  0  0  0
  -28.0599  -31.8571   26.5378 H   0  0  0  0  0  0
  -28.2568  -38.0121   24.7620 H   0  0  0  0  0  0
  -28.1107  -36.2653   24.6113 H   0  0  0  0  0  0
  -27.2306  -37.1243   25.8847 H   0  0  0  0  0  0
  -20.9358  -29.8534   21.6752 H   0  0  0  0  0  0
  -26.0112  -38.2809   24.1510 H   0  0  0  0  0  0
  -31.4274  -20.1019   20.5863 H   0  0  0  0  0  0
  -31.7630  -17.6620   20.7794 H   0  0  0  0  0  0
  -27.5249  -17.1992   21.4182 H   0  0  0  0  0  0
  -25.9192  -22.4351   22.7204 H   0  0  0  0  0  0
  -26.7433  -23.7781   23.4837 H   0  0  0  0  0  0
  -26.2703  -25.0152   21.5923 H   0  0  0  0  0  0
  -25.6846  -23.5839   20.7618 H   0  0  0  0  0  0
  -28.0761  -21.4351   22.8175 H   0  0  0  0  0  0
  -28.8552  -22.9862   22.9755 H   0  0  0  0  0  0
  -27.5584  -23.7431   19.4451 H   0  0  0  0  0  0
  -29.6423  -24.9715   20.2334 H   0  0  0  0  0  0
  -28.8653  -25.4078   21.7085 H   0  0  0  0  0  0
  -28.8766  -15.2806   21.4331 H   0  0  0  0  0  0
  1 25  1  0  0  0
  1 30  2  0  0  0
  1 84  1  0  0  0
  2  3  1  0  0  0
  2 25  1  0  0  0
  2 87  1  0  0  0
  2 88  1  0  0  0
  3  4  1  0  0  0
  3 89  1  0  0  0
  3 90  1  0  0  0
  4  5  1  0  0  0
  4 91  1  0  0  0
  4 92  1  0  0  0
  5  6  1  0  0  0
  5 26  1  0  0  0
  5 93  1  0  0  0
  6 25  1  0  0  0
  6 94  1  0  0  0
  6 95  1  0  0  0
  7  8  2  0  0  0
  7 26  1  0  0  0
  7 29  1  0  0  0
  8  9  1  0  0  0
  8 22  1  0  0  0
  9 10  1  0  0  0
  9 27  2  0  0  0
 10 11  2  0  0  0
 10 15  1  0  0  0
 11 12  1  0  0  0
 11 96  1  0  0  0
 12 13  2  0  0  0
 12 97  1  0  0  0
 13 14  1  0  0  0
 13 31  1  0  0  0
 14 15  2  0  0  0
 14 98  1  0  0  0
 15 99  1  0  0  0
 16 17  2  0  0  0
 16 21  1  0  0  0
 16 31  1  0  0  0
 17 18  1  0  0  0
 17100  1  0  0  0
 18 19  2  0  0  0
 18101  1  0  0  0
 19 20  1  0  0  0
 19 24  1  0  0  0
 20 21  2  0  0  0
 20102  1  0  0  0
 21 23  1  0  0  0
 22 28  1  0  0  0
 22 32  2  0  0  0
 26 27  1  0  0  0
 28103  1  0  0  0
 28104  1  0  0  0
 29105  1  0  0  0
 29106  1  0  0  0
 33 34  1  0  0  0
 33 66  1  0  0  0
 33 70  2  0  0  0
 34 36  1  0  0  0
 34 59  1  0  0  0
 34107  1  0  0  0
 35 44  2  0  0  0
 35 45  1  0  0  0
 35 68  1  0  0  0
 36 56  1  0  0  0
 36108  1  0  0  0
 37 39  1  0  0  0
 37 47  1  0  0  0
 37 66  1  0  0  0
 37109  1  0  0  0
 38 43  2  0  0  0
 38 46  1  0  0  0
 38 47  1  0  0  0
 39 64  1  0  0  0
 39 67  2  0  0  0
 40 52  1  0  0  0
 40 53  2  0  0  0
 40 58  1  0  0  0
 41110  1  0  0  0
 41111  1  0  0  0
 41112  1  0  0  0
 41 48  1  0  0  0
 42 43  1  0  0  0
 42 66  1  0  0  0
 42113  1  0  0  0
 42114  1  0  0  0
 43 44  1  0  0  0
 44115  1  0  0  0
 45 46  2  0  0  0
 45116  1  0  0  0
 46117  1  0  0  0
 47118  1  0  0  0
 47119  1  0  0  0
 48 56  1  0  0  0
 48 65  1  0  0  0
 48120  1  0  0  0
 49 50  1  0  0  0
 49 53  1  0  0  0
 49 64  1  0  0  0
 49121  1  0  0  0
 50 51  1  0  0  0
 50122  1  0  0  0
 50123  1  0  0  0
 51 52  1  0  0  0
 51124  1  0  0  0
 51125  1  0  0  0
 52126  1  0  0  0
 52127  1  0  0  0
 53 54  1  0  0  0
 54 55  2  0  0  0
 54128  1  0  0  0
 55 57  1  0  0  0
 55129  1  0  0  0
 56 69  2  0  0  0
 57 58  2  0  0  0
 57130  1  0  0  0
 58131  1  0  0  0
 59 60  1  0  0  0
 59 61  1  0  0  0
 59 62  1  0  0  0
 60132  1  0  0  0
 60133  1  0  0  0
 60134  1  0  0  0
 61135  1  0  0  0
 61136  1  0  0  0
 61137  1  0  0  0
 62138  1  0  0  0
 62139  1  0  0  0
 62140  1  0  0  0
 63 65  1  0  0  0
 63141  1  0  0  0
 63142  1  0  0  0
 63143  1  0  0  0
 64144  1  0  0  0
 65145  1  0  0  0
 68 82  1  0  0  0
 71 72  2  0  0  0
 71 74  1  0  0  0
 71146  1  0  0  0
 72 75  1  0  0  0
 72147  1  0  0  0
 73 75  2  0  0  0
 73 76  1  0  0  0
 73148  1  0  0  0
 74 76  2  0  0  0
 74 77  1  0  0  0
 75 84  1  0  0  0
 76 86  1  0  0  0
 77 83  1  0  0  0
 77 85  2  0  0  0
 78 79  1  0  0  0
 78 80  1  0  0  0
 78149  1  0  0  0
 78150  1  0  0  0
 79 81  1  0  0  0
 79151  1  0  0  0
 79152  1  0  0  0
 80 83  1  0  0  0
 80153  1  0  0  0
 80154  1  0  0  0
 81 82  1  0  0  0
 81 83  1  0  0  0
 81155  1  0  0  0
 82156  1  0  0  0
 82157  1  0  0  0
 84158  1  0  0  0
M  ISO  4   1 100  68 101  82 101  84 100
M  END
> <chiral flag>
0

> <version>
0

> <s_m_source_file>
/data/baiqing/PycharmProjects/Reinvent-master-3.2/result/LINK_invent/BTK/process_docking_weight1_custom_product_contain_oxygen_bond_distance_aromatic_linkinvent_7_9_3/rearranged_h_0025.sdf

> <i_m_source_file_index>
38

> <r_mmod_Potential_Energy-OPLS-2005>
325.392608642578

> <r_mmod_Stretch_Energy-OPLS-2005>
100.828079223633

> <r_mmod_Bend_Energy-OPLS-2005>
213.320709228516

> <r_mmod_Torsional_Energy-OPLS-2005>
363.438018798828

> <r_mmod_Improper_Torsional_Energy-OPLS-2005>
6.02646493911743

> <r_mmod_Van_der_Waal_Energy-OPLS-2005>
122.918258666992

> <r_mmod_Electrostatic_Energy-OPLS-2005>
-322.155731201172

> <r_mmod_Solvation_Energy-OPLS-2005>
-220.713531494141

> <b_mmod_Minimization_Converged-OPLS-2005>
0

> <r_mmod_RMS_Derivative-OPLS-2005>
8.1452522277832

$$$$
38
                    3D
 Structure written by MMmdl.
159168  0  0  1  0            999 V2000
  -30.5188  -14.9086   20.4364 C   0  0  0  0  0  0
  -30.4510  -12.5598   19.4891 C   0  0  0  0  0  0
  -29.5250  -12.5331   18.2503 C   0  0  0  0  0  0
  -28.0548  -12.3242   18.6641 C   0  0  0  0  0  0
  -27.6384  -13.2376   19.8460 C   0  0  2  0  0  0
  -28.6824  -13.2158   20.9826 C   0  0  0  0  0  0
  -25.2510  -13.8195   20.5713 C   0  0  0  0  0  0
  -24.1807  -13.0435   20.9221 C   0  0  0  0  0  0
  -24.6401  -11.6913   20.8739 C   0  0  0  0  0  0
  -23.9077  -10.4290   21.0398 C   0  0  0  0  0  0
  -24.3627   -9.4209   21.9176 C   0  0  0  0  0  0
  -23.6305   -8.2243   22.0748 C   0  0  0  0  0  0
  -22.4286   -8.0279   21.3542 C   0  0  0  0  0  0
  -21.9923   -9.0250   20.4639 C   0  0  0  0  0  0
  -22.7247  -10.2132   20.3049 C   0  0  0  0  0  0
  -21.6858   -6.0737   22.5281 C   0  0  0  0  0  0
  -21.4016   -6.5638   23.8213 C   0  0  0  0  0  0
  -21.3661   -5.6790   24.9173 C   0  0  0  0  0  0
  -21.6047   -4.3053   24.7225 C   0  0  0  0  0  0
  -21.8816   -3.8147   23.4348 C   0  0  0  0  0  0
  -21.9197   -4.6964   22.3402 C   0  0  0  0  0  0
  -22.7826  -13.5214   21.1878 C   0  0  0  0  0  0
  -22.1661   -4.2150   21.0980 F   0  0  0  0  0  0
  -21.5631   -3.4536   25.7736 F   0  0  0  0  0  0
  -29.9667  -13.6317   20.4005 N   0  0  0  0  0  0
  -26.2927  -12.9405   20.3258 N   0  0  0  0  0  0
  -25.9334  -11.6546   20.5727 N   0  0  0  0  0  0
  -22.0468  -12.8199   22.0427 N   0  0  0  0  0  0
  -25.4194  -15.1926   20.4143 N   0  0  0  0  0  0
  -31.7078  -15.0313   20.1253 O   0  0  0  0  0  0
  -21.6647   -6.8881   21.4240 O   0  0  0  0  0  0
  -22.3505  -14.5506   20.6708 O   0  0  0  0  0  0
  -24.6408  -31.8465   23.1899 C   0  0  0  0  0  0
  -25.9186  -32.4712   23.8283 C   0  0  1  0  0  0
  -27.2235  -27.1610   20.1554 C   0  0  0  0  0  0
  -25.5948  -33.8518   24.2211 N   0  0  0  0  0  0
  -23.4442  -30.4642   21.5353 C   0  0  2  0  0  0
  -24.8953  -28.8921   20.1158 C   0  0  0  0  0  0
  -22.7558  -29.4551   22.4878 C   0  0  0  0  0  0
  -18.0301  -28.1400   22.8474 C   0  0  0  0  0  0
  -24.1489  -36.7258   23.2641 C   0  0  0  0  0  0
  -25.9973  -30.7296   21.3838 C   0  0  0  0  0  0
  -26.0714  -29.3404   20.7310 C   0  0  0  0  0  0
  -27.2386  -28.4915   20.7317 C   0  0  0  0  0  0
  -26.0243  -26.8093   19.4991 C   0  0  0  0  0  0
  -24.8829  -27.6392   19.4845 C   0  0  0  0  0  0
  -23.6702  -29.7909   20.1556 C   0  0  0  0  0  0
  -25.4124  -36.3047   24.0318 C   0  0  1  0  0  0
  -20.5911  -28.3717   23.1246 C   0  0  2  0  0  0
  -20.6789  -26.9425   22.5404 C   0  0  0  0  0  0
  -19.5764  -26.6384   21.5213 C   0  0  0  0  0  0
  -18.1946  -26.7938   22.1621 C   0  0  0  0  0  0
  -19.1558  -28.8876   23.2851 C   0  0  0  0  0  0
  -18.9473  -30.1473   23.8876 C   0  0  0  0  0  0
  -17.6469  -30.6594   24.0559 C   0  0  0  0  0  0
  -25.9068  -34.9418   23.5073 C   0  0  0  0  0  0
  -16.5361  -29.9088   23.6336 C   0  0  0  0  0  0
  -16.7285  -28.6509   23.0350 C   0  0  0  0  0  0
  -26.4524  -31.6560   25.0704 C   0  0  0  0  0  0
  -25.3713  -31.3725   26.1393 C   0  0  0  0  0  0
  -27.0387  -30.2965   24.6250 C   0  0  0  0  0  0
  -27.6067  -32.4308   25.7493 C   0  0  0  0  0  0
  -27.5578  -37.1789   24.8467 C   0  0  0  0  0  0
  -21.4252  -29.3047   22.3624 N   0  0  0  0  0  0
  -26.4291  -37.3756   23.9409 N   0  0  0  0  0  0
  -24.7139  -31.0338   22.0925 N   0  0  0  0  0  0
  -23.4209  -28.8099   23.3024 O   0  0  0  0  0  0
  -28.2939  -26.2023   20.1757 O   0  0  0  0  0  0
  -26.5648  -34.8910   22.4649 O   0  0  0  0  0  0
  -23.5531  -32.1328   23.7127 O   0  0  0  0  0  0
  -28.5561  -18.1822   21.3768 C   0  0  0  0  0  0
  -30.1076  -19.9431   19.9290 C   0  0  0  0  0  0
  -28.3048  -19.6066   21.4176 C   0  0  0  0  0  0
  -29.0721  -20.5880   20.6973 C   0  0  0  0  0  0
  -29.5952  -17.5289   20.6410 C   0  0  0  0  0  0
  -30.3627  -18.4993   19.8930 C   0  0  0  0  0  0
  -30.7659  -23.2251   21.7382 C   0  0  0  0  0  0
  -30.4489  -23.7072   20.3176 C   0  0  0  0  0  0
  -29.5469  -22.3961   22.1658 C   0  0  0  0  0  0
  -28.9728  -23.3602   20.1208 C   0  0  2  0  0  0
  -27.1607  -20.0787   22.3030 C   0  0  0  0  0  0
  -28.0506  -24.7131   20.5345 C   0  0  0  0  0  0
  -28.8397  -22.0446   20.9361 N   0  0  0  0  0  0
  -29.6508  -15.9958   20.6900 N   0  0  0  0  0  0
  -31.6424  -17.9548   18.8703 Cl  0  0  0  0  0  0
  -31.4830  -12.7303   19.1783 H   0  0  0  0  0  0
  -30.4472  -11.5933   19.9957 H   0  0  0  0  0  0
  -29.8359  -11.7464   17.5621 H   0  0  0  0  0  0
  -29.6203  -13.4718   17.7016 H   0  0  0  0  0  0
  -27.9399  -11.2774   18.9494 H   0  0  0  0  0  0
  -27.3947  -12.4814   17.8104 H   0  0  0  0  0  0
  -27.6157  -14.2498   19.4419 H   0  0  0  0  0  0
  -28.7595  -12.2198   21.4212 H   0  0  0  0  0  0
  -28.3851  -13.8827   21.7929 H   0  0  0  0  0  0
  -25.2772   -9.5688   22.4748 H   0  0  0  0  0  0
  -24.0016   -7.4634   22.7464 H   0  0  0  0  0  0
  -21.0855   -8.8761   19.8949 H   0  0  0  0  0  0
  -22.3697  -10.9666   19.6154 H   0  0  0  0  0  0
  -21.2004   -7.6145   23.9718 H   0  0  0  0  0  0
  -21.1487   -6.0518   25.9075 H   0  0  0  0  0  0
  -22.0600   -2.7610   23.2845 H   0  0  0  0  0  0
  -22.4100  -11.9882   22.4845 H   0  0  0  0  0  0
  -21.1068  -13.1194   22.2598 H   0  0  0  0  0  0
  -24.6473  -15.8407   20.5261 H   0  0  0  0  0  0
  -26.2518  -15.6339   20.0464 H   0  0  0  0  0  0
  -26.7254  -32.5339   23.1017 H   0  0  0  0  0  0
  -25.0083  -33.9640   25.0350 H   0  0  0  0  0  0
  -22.7457  -31.2890   21.3799 H   0  0  0  0  0  0
  -23.3762  -35.9576   23.3294 H   0  0  0  0  0  0
  -24.3572  -36.8897   22.2055 H   0  0  0  0  0  0
  -23.7228  -37.6448   23.6677 H   0  0  0  0  0  0
  -26.1430  -31.4833   20.6086 H   0  0  0  0  0  0
  -26.8711  -30.7859   22.0209 H   0  0  0  0  0  0
  -28.1388  -28.8326   21.2237 H   0  0  0  0  0  0
  -25.9519  -25.8577   18.9937 H   0  0  0  0  0  0
  -23.9876  -27.2945   18.9856 H   0  0  0  0  0  0
  -23.8041  -30.5630   19.3969 H   0  0  0  0  0  0
  -22.7867  -29.2286   19.8471 H   0  0  0  0  0  0
  -25.1311  -36.1887   25.0810 H   0  0  0  0  0  0
  -20.9999  -28.3306   24.1368 H   0  0  0  0  0  0
  -20.5696  -26.2330   23.3619 H   0  0  0  0  0  0
  -21.6657  -26.7445   22.1199 H   0  0  0  0  0  0
  -19.6930  -25.6291   21.1259 H   0  0  0  0  0  0
  -19.6708  -27.3180   20.6734 H   0  0  0  0  0  0
  -17.4217  -26.6673   21.4025 H   0  0  0  0  0  0
  -18.0349  -26.0089   22.9029 H   0  0  0  0  0  0
  -19.7946  -30.7296   24.2243 H   0  0  0  0  0  0
  -17.5019  -31.6273   24.5161 H   0  0  0  0  0  0
  -15.5360  -30.2981   23.7672 H   0  0  0  0  0  0
  -15.8685  -28.0821   22.7077 H   0  0  0  0  0  0
  -24.5909  -30.7062   25.7698 H   0  0  0  0  0  0
  -24.8873  -32.2892   26.4772 H   0  0  0  0  0  0
  -25.7989  -30.8925   27.0203 H   0  0  0  0  0  0
  -26.2994  -29.6693   24.1253 H   0  0  0  0  0  0
  -27.4020  -29.7258   25.4808 H   0  0  0  0  0  0
  -27.8893  -30.4223   23.9547 H   0  0  0  0  0  0
  -27.2684  -33.3628   26.2032 H   0  0  0  0  0  0
  -28.3904  -32.6832   25.0336 H   0  0  0  0  0  0
  -28.0704  -31.8448   26.5440 H   0  0  0  0  0  0
  -28.2595  -38.0088   24.7519 H   0  0  0  0  0  0
  -28.1079  -36.2618   24.6294 H   0  0  0  0  0  0
  -27.2290  -37.1435   25.8868 H   0  0  0  0  0  0
  -20.9465  -29.8749   21.6788 H   0  0  0  0  0  0
  -26.0164  -38.2826   24.1414 H   0  0  0  0  0  0
  -27.9029  -17.5506   21.9615 H   0  0  0  0  0  0
  -30.7658  -20.5757   19.3529 H   0  0  0  0  0  0
  -30.9304  -24.0559   22.4255 H   0  0  0  0  0  0
  -31.6713  -22.6163   21.7378 H   0  0  0  0  0  0
  -31.0551  -23.1531   19.5996 H   0  0  0  0  0  0
  -30.6606  -24.7670   20.1697 H   0  0  0  0  0  0
  -28.8853  -22.9863   22.8017 H   0  0  0  0  0  0
  -29.8578  -21.5349   22.7624 H   0  0  0  0  0  0
  -28.7983  -23.1441   19.0661 H   0  0  0  0  0  0
  -26.4942  -19.2599   22.5736 H   0  0  0  0  0  0
  -26.5600  -20.8336   21.7949 H   0  0  0  0  0  0
  -27.5487  -20.5144   23.2237 H   0  0  0  0  0  0
  -28.0217  -24.7378   21.6232 H   0  0  0  0  0  0
  -27.0283  -24.4565   20.2634 H   0  0  0  0  0  0
  -28.7721  -15.6162   21.0037 H   0  0  0  0  0  0
  1 25  1  0  0  0
  1 30  2  0  0  0
  1 84  1  0  0  0
  2  3  1  0  0  0
  2 25  1  0  0  0
  2 86  1  0  0  0
  2 87  1  0  0  0
  3  4  1  0  0  0
  3 88  1  0  0  0
  3 89  1  0  0  0
  4  5  1  0  0  0
  4 90  1  0  0  0
  4 91  1  0  0  0
  5  6  1  0  0  0
  5 26  1  0  0  0
  5 92  1  0  0  0
  6 25  1  0  0  0
  6 93  1  0  0  0
  6 94  1  0  0  0
  7  8  2  0  0  0
  7 26  1  0  0  0
  7 29  1  0  0  0
  8  9  1  0  0  0
  8 22  1  0  0  0
  9 10  1  0  0  0
  9 27  2  0  0  0
 10 11  2  0  0  0
 10 15  1  0  0  0
 11 12  1  0  0  0
 11 95  1  0  0  0
 12 13  2  0  0  0
 12 96  1  0  0  0
 13 14  1  0  0  0
 13 31  1  0  0  0
 14 15  2  0  0  0
 14 97  1  0  0  0
 15 98  1  0  0  0
 16 17  2  0  0  0
 16 21  1  0  0  0
 16 31  1  0  0  0
 17 18  1  0  0  0
 17 99  1  0  0  0
 18 19  2  0  0  0
 18100  1  0  0  0
 19 20  1  0  0  0
 19 24  1  0  0  0
 20 21  2  0  0  0
 20101  1  0  0  0
 21 23  1  0  0  0
 22 28  1  0  0  0
 22 32  2  0  0  0
 26 27  1  0  0  0
 28102  1  0  0  0
 28103  1  0  0  0
 29104  1  0  0  0
 29105  1  0  0  0
 33 34  1  0  0  0
 33 66  1  0  0  0
 33 70  2  0  0  0
 34 36  1  0  0  0
 34 59  1  0  0  0
 34106  1  0  0  0
 35 44  2  0  0  0
 35 45  1  0  0  0
 35 68  1  0  0  0
 36 56  1  0  0  0
 36107  1  0  0  0
 37 39  1  0  0  0
 37 47  1  0  0  0
 37 66  1  0  0  0
 37108  1  0  0  0
 38 43  2  0  0  0
 38 46  1  0  0  0
 38 47  1  0  0  0
 39 64  1  0  0  0
 39 67  2  0  0  0
 40 52  1  0  0  0
 40 53  2  0  0  0
 40 58  1  0  0  0
 41109  1  0  0  0
 41110  1  0  0  0
 41111  1  0  0  0
 41 48  1  0  0  0
 42 43  1  0  0  0
 42 66  1  0  0  0
 42112  1  0  0  0
 42113  1  0  0  0
 43 44  1  0  0  0
 44114  1  0  0  0
 45 46  2  0  0  0
 45115  1  0  0  0
 46116  1  0  0  0
 47117  1  0  0  0
 47118  1  0  0  0
 48 56  1  0  0  0
 48 65  1  0  0  0
 48119  1  0  0  0
 49 50  1  0  0  0
 49 53  1  0  0  0
 49 64  1  0  0  0
 49120  1  0  0  0
 50 51  1  0  0  0
 50121  1  0  0  0
 50122  1  0  0  0
 51 52  1  0  0  0
 51123  1  0  0  0
 51124  1  0  0  0
 52125  1  0  0  0
 52126  1  0  0  0
 53 54  1  0  0  0
 54 55  2  0  0  0
 54127  1  0  0  0
 55 57  1  0  0  0
 55128  1  0  0  0
 56 69  2  0  0  0
 57 58  2  0  0  0
 57129  1  0  0  0
 58130  1  0  0  0
 59 60  1  0  0  0
 59 61  1  0  0  0
 59 62  1  0  0  0
 60131  1  0  0  0
 60132  1  0  0  0
 60133  1  0  0  0
 61134  1  0  0  0
 61135  1  0  0  0
 61136  1  0  0  0
 62137  1  0  0  0
 62138  1  0  0  0
 62139  1  0  0  0
 63 65  1  0  0  0
 63140  1  0  0  0
 63141  1  0  0  0
 63142  1  0  0  0
 64143  1  0  0  0
 65144  1  0  0  0
 68 82  1  0  0  0
 71 73  2  0  0  0
 71 75  1  0  0  0
 71145  1  0  0  0
 72 74  2  0  0  0
 72 76  1  0  0  0
 72146  1  0  0  0
 73 74  1  0  0  0
 73 81  1  0  0  0
 74 83  1  0  0  0
 75 76  2  0  0  0
 75 84  1  0  0  0
 76 85  1  0  0  0
 77 78  1  0  0  0
 77 79  1  0  0  0
 77147  1  0  0  0
 77148  1  0  0  0
 78 80  1  0  0  0
 78149  1  0  0  0
 78150  1  0  0  0
 79 83  1  0  0  0
 79151  1  0  0  0
 79152  1  0  0  0
 80 82  1  0  0  0
 80 83  1  0  0  0
 80153  1  0  0  0
 81154  1  0  0  0
 81155  1  0  0  0
 81156  1  0  0  0
 82157  1  0  0  0
 82158  1  0  0  0
 84159  1  0  0  0
M  ISO  4   1 100  68 101  82 101  84 100
M  END
> <chiral flag>
0

> <version>
0

> <s_m_source_file>
/data/baiqing/PycharmProjects/Reinvent-master-3.2/result/LINK_invent/BTK/process_docking_weight1_custom_product_contain_oxygen_bond_distance_aromatic_linkinvent_7_9_3/rearranged_h_0025.sdf

> <i_m_source_file_index>
39

> <r_mmod_Potential_Energy-OPLS-2005>
521.452026367188

> <r_mmod_Stretch_Energy-OPLS-2005>
215.623901367188

> <r_mmod_Bend_Energy-OPLS-2005>
317.029144287109

> <r_mmod_Torsional_Energy-OPLS-2005>
310.472961425781

> <r_mmod_Improper_Torsional_Energy-OPLS-2005>
9.26522254943848

> <r_mmod_Van_der_Waal_Energy-OPLS-2005>
128.908340454102

> <r_mmod_Electrostatic_Energy-OPLS-2005>
-403.697845458984

> <r_mmod_Solvation_Energy-OPLS-2005>
-220.963455200195

> <b_mmod_Minimization_Converged-OPLS-2005>
0

> <r_mmod_RMS_Derivative-OPLS-2005>
1.16180515289307

$$$$
39
                    3D
 Structure written by MMmdl.
174184  0  0  1  0            999 V2000
  -30.6310  -14.6662   20.4964 C   0  0  0  0  0  0
  -30.4363  -12.4125   19.4574 C   0  0  0  0  0  0
  -29.5073  -12.5254   18.2278 C   0  0  0  0  0  0
  -28.0288  -12.3631   18.6363 C   0  0  0  0  0  0
  -27.6449  -13.2314   19.8654 C   0  0  2  0  0  0
  -28.6950  -13.1011   20.9936 C   0  0  0  0  0  0
  -25.2369  -13.7965   20.5680 C   0  0  0  0  0  0
  -24.1729  -13.0212   20.9234 C   0  0  0  0  0  0
  -24.6420  -11.6756   20.8768 C   0  0  0  0  0  0
  -23.9096  -10.4160   21.0396 C   0  0  0  0  0  0
  -24.3636   -9.4097   21.9186 C   0  0  0  0  0  0
  -23.6279   -8.2154   22.0750 C   0  0  0  0  0  0
  -22.4251   -8.0234   21.3549 C   0  0  0  0  0  0
  -21.9911   -9.0191   20.4630 C   0  0  0  0  0  0
  -22.7282  -10.2029   20.3013 C   0  0  0  0  0  0
  -21.6801   -6.0724   22.5282 C   0  0  0  0  0  0
  -21.3964   -6.5633   23.8217 C   0  0  0  0  0  0
  -21.3643   -5.6796   24.9183 C   0  0  0  0  0  0
  -21.6038   -4.3058   24.7236 C   0  0  0  0  0  0
  -21.8817   -3.8141   23.4364 C   0  0  0  0  0  0
  -21.9171   -4.6956   22.3419 C   0  0  0  0  0  0
  -22.7744  -13.4997   21.1880 C   0  0  0  0  0  0
  -22.1675   -4.2152   21.1004 F   0  0  0  0  0  0
  -21.5637   -3.4552   25.7756 F   0  0  0  0  0  0
  -30.0121  -13.4434   20.4276 N   0  0  0  0  0  0
  -26.2944  -12.9331   20.3356 N   0  0  0  0  0  0
  -25.9374  -11.6460   20.5807 N   0  0  0  0  0  0
  -22.0415  -12.7996   22.0456 N   0  0  0  0  0  0
  -25.3499  -15.1671   20.4003 N   0  0  0  0  0  0
  -31.7987  -14.8095   20.1239 O   0  0  0  0  0  0
  -21.6596   -6.8856   21.4240 O   0  0  0  0  0  0
  -22.3523  -14.5366   20.6766 O   0  0  0  0  0  0
  -24.6266  -31.8574   23.2032 C   0  0  0  0  0  0
  -25.9108  -32.4758   23.8368 C   0  0  1  0  0  0
  -27.2454  -27.3379   20.1252 C   0  0  0  0  0  0
  -25.5939  -33.8558   24.2304 N   0  0  0  0  0  0
  -23.4202  -30.4791   21.5441 C   0  0  2  0  0  0
  -24.8714  -28.9249   20.1210 C   0  0  0  0  0  0
  -22.7453  -29.4632   22.4961 C   0  0  0  0  0  0
  -18.0266  -28.1395   22.8487 C   0  0  0  0  0  0
  -24.1492  -36.7273   23.2646 C   0  0  0  0  0  0
  -25.9582  -30.7952   21.3691 C   0  0  0  0  0  0
  -26.0369  -29.4204   20.7184 C   0  0  0  0  0  0
  -27.2277  -28.6397   20.7057 C   0  0  0  0  0  0
  -26.0565  -26.8791   19.5171 C   0  0  0  0  0  0
  -24.8808  -27.6574   19.5137 C   0  0  0  0  0  0
  -23.6369  -29.8021   20.1640 C   0  0  0  0  0  0
  -25.4111  -36.3070   24.0347 C   0  0  1  0  0  0
  -20.5871  -28.3701   23.1272 C   0  0  2  0  0  0
  -20.6769  -26.9420   22.5410 C   0  0  0  0  0  0
  -19.5752  -26.6395   21.5204 C   0  0  0  0  0  0
  -18.1923  -26.7947   22.1605 C   0  0  0  0  0  0
  -19.1524  -28.8861   23.2882 C   0  0  0  0  0  0
  -18.9445  -30.1463   23.8908 C   0  0  0  0  0  0
  -17.6450  -30.6609   24.0568 C   0  0  0  0  0  0
  -25.9043  -34.9435   23.5117 C   0  0  0  0  0  0
  -16.5338  -29.9107   23.6341 C   0  0  0  0  0  0
  -16.7253  -28.6515   23.0371 C   0  0  0  0  0  0
  -26.4514  -31.6568   25.0725 C   0  0  0  0  0  0
  -25.3769  -31.3630   26.1451 C   0  0  0  0  0  0
  -27.0391  -30.3010   24.6173 C   0  0  0  0  0  0
  -27.6085  -32.4293   25.7491 C   0  0  0  0  0  0
  -27.5571  -37.1793   24.8470 C   0  0  0  0  0  0
  -21.4169  -29.3053   22.3665 N   0  0  0  0  0  0
  -26.4283  -37.3773   23.9416 N   0  0  0  0  0  0
  -24.6870  -31.0615   22.0962 N   0  0  0  0  0  0
  -23.4157  -28.8163   23.3047 O   0  0  0  0  0  0
  -28.3964  -26.5431   20.1027 O   0  0  0  0  0  0
  -26.5613  -34.8902   22.4680 O   0  0  0  0  0  0
  -23.5430  -32.1337   23.7376 O   0  0  0  0  0  0
  -31.2403  -19.3061   20.3307 C   0  0  0  0  0  0
  -31.1762  -17.8844   20.4792 C   0  0  0  0  0  0
  -28.8811  -19.4645   20.6191 C   0  0  0  0  0  0
  -28.8016  -18.0493   20.7711 C   0  0  0  0  0  0
  -30.0890  -20.1568   20.3714 C   0  0  0  0  0  0
  -29.9495  -17.1955   20.6847 C   0  0  0  0  0  0
  -29.1827  -22.5646   20.4732 C   0  0  0  0  0  0
  -31.2923  -23.4300   18.6937 C   0  0  0  0  0  0
  -26.1840  -18.1507   17.4562 C   0  0  0  0  0  0
  -24.9511  -18.4970   18.2965 C   0  0  0  0  0  0
  -30.5813  -24.4953   19.5249 C   0  0  0  0  0  0
  -31.3813  -22.0930   19.4475 C   0  0  0  0  0  0
  -27.1530  -17.4362   18.4157 C   0  0  0  0  0  0
  -25.4970  -18.5741   19.7217 C   0  0  0  0  0  0
  -29.1582  -24.0276   19.8428 C   0  0  2  0  0  0
  -27.4015  -17.5005   20.9791 C   0  0  0  0  0  0
  -28.3282  -25.1556   20.6072 C   0  0  0  0  0  0
  -30.1385  -21.6198   20.0981 N   0  0  0  0  0  0
  -29.8229  -15.7296   20.8218 N   0  0  0  0  0  0
  -26.5420  -17.5346   19.7651 N   0  3  0  0  0  0
  -28.3058  -22.3065   21.3034 O   0  0  0  0  0  0
  -31.4764  -12.5365   19.1524 H   0  0  0  0  0  0
  -30.3748  -11.4195   19.9054 H   0  0  0  0  0  0
  -29.7741  -11.7761   17.4809 H   0  0  0  0  0  0
  -29.6519  -13.4964   17.7503 H   0  0  0  0  0  0
  -27.8621  -11.3086   18.8598 H   0  0  0  0  0  0
  -27.3774  -12.5995   17.7953 H   0  0  0  0  0  0
  -27.6432  -14.2684   19.5275 H   0  0  0  0  0  0
  -28.7063  -12.0818   21.3819 H   0  0  0  0  0  0
  -28.4400  -13.7398   21.8413 H   0  0  0  0  0  0
  -25.2773   -9.5575   22.4766 H   0  0  0  0  0  0
  -23.9974   -7.4533   22.7460 H   0  0  0  0  0  0
  -21.0858   -8.8693   19.8928 H   0  0  0  0  0  0
  -22.3787  -10.9548   19.6073 H   0  0  0  0  0  0
  -21.1946   -7.6136   23.9726 H   0  0  0  0  0  0
  -21.1481   -6.0531   25.9094 H   0  0  0  0  0  0
  -22.0626   -2.7606   23.2864 H   0  0  0  0  0  0
  -22.4045  -11.9631   22.4801 H   0  0  0  0  0  0
  -21.1001  -13.0943   22.2616 H   0  0  0  0  0  0
  -24.5785  -15.3219   19.7543 H   0  0  0  0  0  0
  -24.9291  -15.5038   21.2622 H   0  0  0  0  0  0
  -26.7183  -32.5437   23.1135 H   0  0  0  0  0  0
  -25.0157  -33.9712   25.0497 H   0  0  0  0  0  0
  -22.7163  -31.3007   21.3935 H   0  0  0  0  0  0
  -23.3772  -35.9591   23.3303 H   0  0  0  0  0  0
  -24.3580  -36.8887   22.2060 H   0  0  0  0  0  0
  -23.7231  -37.6464   23.6668 H   0  0  0  0  0  0
  -26.0828  -31.5568   20.5977 H   0  0  0  0  0  0
  -26.8399  -30.8491   21.9963 H   0  0  0  0  0  0
  -28.1290  -29.0219   21.1643 H   0  0  0  0  0  0
  -26.0321  -25.9082   19.0438 H   0  0  0  0  0  0
  -23.9849  -27.2715   19.0464 H   0  0  0  0  0  0
  -23.7538  -30.5707   19.4003 H   0  0  0  0  0  0
  -22.7608  -29.2256   19.8625 H   0  0  0  0  0  0
  -25.1301  -36.1926   25.0849 H   0  0  0  0  0  0
  -20.9945  -28.3280   24.1399 H   0  0  0  0  0  0
  -20.5665  -26.2301   23.3615 H   0  0  0  0  0  0
  -21.6631  -26.7461   22.1187 H   0  0  0  0  0  0
  -19.6907  -25.6302   21.1239 H   0  0  0  0  0  0
  -19.6700  -27.3209   20.6740 H   0  0  0  0  0  0
  -17.4188  -26.6700   21.4011 H   0  0  0  0  0  0
  -18.0326  -26.0083   22.8988 H   0  0  0  0  0  0
  -19.7920  -30.7280   24.2281 H   0  0  0  0  0  0
  -17.5002  -31.6292   24.5165 H   0  0  0  0  0  0
  -15.5342  -30.3014   23.7686 H   0  0  0  0  0  0
  -15.8637  -28.0835   22.7125 H   0  0  0  0  0  0
  -24.6034  -30.6877   25.7773 H   0  0  0  0  0  0
  -24.8858  -32.2738   26.4884 H   0  0  0  0  0  0
  -25.8133  -30.8832   27.0217 H   0  0  0  0  0  0
  -26.2956  -29.6695   24.1291 H   0  0  0  0  0  0
  -27.4202  -29.7334   25.4673 H   0  0  0  0  0  0
  -27.8769  -30.4321   23.9321 H   0  0  0  0  0  0
  -27.2747  -33.3634   26.2022 H   0  0  0  0  0  0
  -28.3930  -32.6757   25.0322 H   0  0  0  0  0  0
  -28.0715  -31.8422   26.5437 H   0  0  0  0  0  0
  -28.2579  -38.0106   24.7546 H   0  0  0  0  0  0
  -28.1084  -36.2633   24.6276 H   0  0  0  0  0  0
  -27.2278  -37.1400   25.8870 H   0  0  0  0  0  0
  -20.9366  -29.8726   21.6823 H   0  0  0  0  0  0
  -26.0161  -38.2832   24.1466 H   0  0  0  0  0  0
  -32.2227  -19.7265   20.1717 H   0  0  0  0  0  0
  -32.1000  -17.3276   20.4249 H   0  0  0  0  0  0
  -27.9601  -20.0222   20.6557 H   0  0  0  0  0  0
  -32.2959  -23.7645   18.4285 H   0  0  0  0  0  0
  -30.7625  -23.2831   17.7499 H   0  0  0  0  0  0
  -26.6433  -19.0692   17.0877 H   0  0  0  0  0  0
  -25.9383  -17.5370   16.5888 H   0  0  0  0  0  0
  -24.2149  -17.6947   18.2235 H   0  0  0  0  0  0
  -24.4641  -19.4205   17.9785 H   0  0  0  0  0  0
  -30.5547  -25.4297   18.9616 H   0  0  0  0  0  0
  -31.1293  -24.7009   20.4464 H   0  0  0  0  0  0
  -32.1536  -22.1659   20.2156 H   0  0  0  0  0  0
  -31.7294  -21.3499   18.7294 H   0  0  0  0  0  0
  -28.1290  -17.9127   18.3375 H   0  0  0  0  0  0
  -27.2860  -16.3866   18.1534 H   0  0  0  0  0  0
  -24.7251  -18.4041   20.4743 H   0  0  0  0  0  0
  -25.9316  -19.5581   19.8993 H   0  0  0  0  0  0
  -28.6531  -23.8965   18.8858 H   0  0  0  0  0  0
  -26.9184  -18.0509   21.7875 H   0  0  0  0  0  0
  -27.4523  -16.4755   21.3416 H   0  0  0  0  0  0
  -28.6859  -25.1974   21.6372 H   0  0  0  0  0  0
  -27.2912  -24.8264   20.6834 H   0  0  0  0  0  0
  -28.9102  -15.4084   21.1040 H   0  0  0  0  0  0
  -26.0214  -16.6585   19.8688 H   0  0  0  0  0  0
  1 25  1  0  0  0
  1 30  2  0  0  0
  1 89  1  0  0  0
  2  3  1  0  0  0
  2 25  1  0  0  0
  2 92  1  0  0  0
  2 93  1  0  0  0
  3  4  1  0  0  0
  3 94  1  0  0  0
  3 95  1  0  0  0
  4  5  1  0  0  0
  4 96  1  0  0  0
  4 97  1  0  0  0
  5  6  1  0  0  0
  5 26  1  0  0  0
  5 98  1  0  0  0
  6 25  1  0  0  0
  6 99  1  0  0  0
  6100  1  0  0  0
  7  8  2  0  0  0
  7 26  1  0  0  0
  7 29  1  0  0  0
  8  9  1  0  0  0
  8 22  1  0  0  0
  9 10  1  0  0  0
  9 27  2  0  0  0
 10 11  2  0  0  0
 10 15  1  0  0  0
 11 12  1  0  0  0
 11101  1  0  0  0
 12 13  2  0  0  0
 12102  1  0  0  0
 13 14  1  0  0  0
 13 31  1  0  0  0
 14 15  2  0  0  0
 14103  1  0  0  0
 15104  1  0  0  0
 16 17  2  0  0  0
 16 21  1  0  0  0
 16 31  1  0  0  0
 17 18  1  0  0  0
 17105  1  0  0  0
 18 19  2  0  0  0
 18106  1  0  0  0
 19 20  1  0  0  0
 19 24  1  0  0  0
 20 21  2  0  0  0
 20107  1  0  0  0
 21 23  1  0  0  0
 22 28  1  0  0  0
 22 32  2  0  0  0
 26 27  1  0  0  0
 28108  1  0  0  0
 28109  1  0  0  0
 29110  1  0  0  0
 29111  1  0  0  0
 33 34  1  0  0  0
 33 66  1  0  0  0
 33 70  2  0  0  0
 34 36  1  0  0  0
 34 59  1  0  0  0
 34112  1  0  0  0
 35 44  2  0  0  0
 35 45  1  0  0  0
 35 68  1  0  0  0
 36 56  1  0  0  0
 36113  1  0  0  0
 37 39  1  0  0  0
 37 47  1  0  0  0
 37 66  1  0  0  0
 37114  1  0  0  0
 38 43  2  0  0  0
 38 46  1  0  0  0
 38 47  1  0  0  0
 39 64  1  0  0  0
 39 67  2  0  0  0
 40 52  1  0  0  0
 40 53  2  0  0  0
 40 58  1  0  0  0
 41115  1  0  0  0
 41116  1  0  0  0
 41117  1  0  0  0
 41 48  1  0  0  0
 42 43  1  0  0  0
 42 66  1  0  0  0
 42118  1  0  0  0
 42119  1  0  0  0
 43 44  1  0  0  0
 44120  1  0  0  0
 45 46  2  0  0  0
 45121  1  0  0  0
 46122  1  0  0  0
 47123  1  0  0  0
 47124  1  0  0  0
 48 56  1  0  0  0
 48 65  1  0  0  0
 48125  1  0  0  0
 49 50  1  0  0  0
 49 53  1  0  0  0
 49 64  1  0  0  0
 49126  1  0  0  0
 50 51  1  0  0  0
 50127  1  0  0  0
 50128  1  0  0  0
 51 52  1  0  0  0
 51129  1  0  0  0
 51130  1  0  0  0
 52131  1  0  0  0
 52132  1  0  0  0
 53 54  1  0  0  0
 54 55  2  0  0  0
 54133  1  0  0  0
 55 57  1  0  0  0
 55134  1  0  0  0
 56 69  2  0  0  0
 57 58  2  0  0  0
 57135  1  0  0  0
 58136  1  0  0  0
 59 60  1  0  0  0
 59 61  1  0  0  0
 59 62  1  0  0  0
 60137  1  0  0  0
 60138  1  0  0  0
 60139  1  0  0  0
 61140  1  0  0  0
 61141  1  0  0  0
 61142  1  0  0  0
 62143  1  0  0  0
 62144  1  0  0  0
 62145  1  0  0  0
 63 65  1  0  0  0
 63146  1  0  0  0
 63147  1  0  0  0
 63148  1  0  0  0
 64149  1  0  0  0
 65150  1  0  0  0
 68 87  1  0  0  0
 71 72  2  0  0  0
 71 75  1  0  0  0
 71151  1  0  0  0
 72 76  1  0  0  0
 72152  1  0  0  0
 73 74  1  0  0  0
 73 75  2  0  0  0
 73153  1  0  0  0
 74 76  2  0  0  0
 74 86  1  0  0  0
 75 88  1  0  0  0
 76 89  1  0  0  0
 77 85  1  0  0  0
 77 88  1  0  0  0
 77 91  2  0  0  0
 78 81  1  0  0  0
 78 82  1  0  0  0
 78154  1  0  0  0
 78155  1  0  0  0
 79 80  1  0  0  0
 79 83  1  0  0  0
 79156  1  0  0  0
 79157  1  0  0  0
 80 84  1  0  0  0
 80158  1  0  0  0
 80159  1  0  0  0
 81 85  1  0  0  0
 81160  1  0  0  0
 81161  1  0  0  0
 82 88  1  0  0  0
 82162  1  0  0  0
 82163  1  0  0  0
 83 90  1  0  0  0
 83164  1  0  0  0
 83165  1  0  0  0
 84 90  1  0  0  0
 84166  1  0  0  0
 84167  1  0  0  0
 85 87  1  0  0  0
 85168  1  0  0  0
 86169  1  0  0  0
 86170  1  0  0  0
 86 90  1  0  0  0
 87171  1  0  0  0
 87172  1  0  0  0
 89173  1  0  0  0
 90174  1  0  0  0
M  CHG  1  90   1
M  ISO  4   1 100  68 101  87 101  89 100
M  END
> <chiral flag>
0

> <version>
0

> <s_m_source_file>
/data/baiqing/PycharmProjects/Reinvent-master-3.2/result/LINK_invent/BTK/process_docking_weight1_custom_product_contain_oxygen_bond_distance_aromatic_linkinvent_7_9_3/rearranged_h_0025.sdf

> <i_m_source_file_index>
40

> <r_mmod_Potential_Energy-OPLS-2005>
152.231353759766

> <r_mmod_Stretch_Energy-OPLS-2005>
95.8191070556641

> <r_mmod_Bend_Energy-OPLS-2005>
192.495162963867

> <r_mmod_Torsional_Energy-OPLS-2005>
366.827667236328

> <r_mmod_Improper_Torsional_Energy-OPLS-2005>
12.6090459823608

> <r_mmod_Van_der_Waal_Energy-OPLS-2005>
166.377853393555

> <r_mmod_Electrostatic_Energy-OPLS-2005>
-297.364654541016

> <r_mmod_Solvation_Energy-OPLS-2005>
-431.546722412109

> <b_mmod_Minimization_Converged-OPLS-2005>
0

> <r_mmod_RMS_Derivative-OPLS-2005>
2.64382338523865

$$$$
40
                    3D
 Structure written by MMmdl.
171180  0  0  1  0            999 V2000
  -30.6732  -14.4547   20.5324 C   0  0  0  0  0  0
  -30.4248  -12.2819   19.4176 C   0  0  0  0  0  0
  -29.4919  -12.4759   18.2029 C   0  0  0  0  0  0
  -28.0103  -12.3653   18.6131 C   0  0  0  0  0  0
  -27.6634  -13.2003   19.8741 C   0  0  2  0  0  0
  -28.7030  -12.9591   20.9913 C   0  0  0  0  0  0
  -25.2621  -13.8139   20.5698 C   0  0  0  0  0  0
  -24.1850  -13.0427   20.9149 C   0  0  0  0  0  0
  -24.6386  -11.6889   20.8690 C   0  0  0  0  0  0
  -23.9048  -10.4286   21.0364 C   0  0  0  0  0  0
  -24.3595   -9.4220   21.9156 C   0  0  0  0  0  0
  -23.6284   -8.2255   22.0746 C   0  0  0  0  0  0
  -22.4269   -8.0278   21.3540 C   0  0  0  0  0  0
  -21.9884   -9.0244   20.4649 C   0  0  0  0  0  0
  -22.7203  -10.2122   20.3049 C   0  0  0  0  0  0
  -21.6855   -6.0714   22.5261 C   0  0  0  0  0  0
  -21.4007   -6.5615   23.8189 C   0  0  0  0  0  0
  -21.3675   -5.6774   24.9161 C   0  0  0  0  0  0
  -21.6059   -4.3037   24.7217 C   0  0  0  0  0  0
  -21.8828   -3.8130   23.4340 C   0  0  0  0  0  0
  -21.9194   -4.6945   22.3388 C   0  0  0  0  0  0
  -22.7877  -13.5250   21.1814 C   0  0  0  0  0  0
  -22.1671   -4.2132   21.0966 F   0  0  0  0  0  0
  -21.5648   -3.4515   25.7735 F   0  0  0  0  0  0
  -30.0363  -13.2590   20.4442 N   0  0  0  0  0  0
  -26.3039  -12.9296   20.3359 N   0  0  0  0  0  0
  -25.9309  -11.6461   20.5710 N   0  0  0  0  0  0
  -22.0504  -12.8266   22.0383 N   0  0  0  0  0  0
  -25.4392  -15.1851   20.4150 N   0  0  0  0  0  0
  -31.8184  -14.6483   20.1103 O   0  0  0  0  0  0
  -21.6663   -6.8855   21.4220 O   0  0  0  0  0  0
  -22.3574  -14.5561   20.6665 O   0  0  0  0  0  0
  -24.6125  -31.8686   23.2111 C   0  0  0  0  0  0
  -25.9017  -32.4829   23.8406 C   0  0  1  0  0  0
  -27.2408  -27.4565   20.0973 C   0  0  0  0  0  0
  -25.5884  -33.8628   24.2338 N   0  0  0  0  0  0
  -23.4009  -30.4902   21.5507 C   0  0  2  0  0  0
  -24.8492  -28.9529   20.1205 C   0  0  0  0  0  0
  -22.7393  -29.4663   22.5010 C   0  0  0  0  0  0
  -18.0266  -28.1383   22.8494 C   0  0  0  0  0  0
  -24.1483  -36.7329   23.2638 C   0  0  0  0  0  0
  -25.9260  -30.8406   21.3604 C   0  0  0  0  0  0
  -26.0067  -29.4742   20.7123 C   0  0  0  0  0  0
  -27.2079  -28.7336   20.6964 C   0  0  0  0  0  0
  -26.0707  -26.9391   19.5044 C   0  0  0  0  0  0
  -24.8746  -27.6830   19.5148 C   0  0  0  0  0  0
  -23.6100  -29.8176   20.1669 C   0  0  0  0  0  0
  -25.4099  -36.3120   24.0341 C   0  0  1  0  0  0
  -20.5852  -28.3661   23.1325 C   0  0  2  0  0  0
  -20.6761  -26.9402   22.5421 C   0  0  0  0  0  0
  -19.5745  -26.6391   21.5212 C   0  0  0  0  0  0
  -18.1919  -26.7936   22.1617 C   0  0  0  0  0  0
  -19.1513  -28.8833   23.2911 C   0  0  0  0  0  0
  -18.9443  -30.1434   23.8923 C   0  0  0  0  0  0
  -17.6449  -30.6586   24.0563 C   0  0  0  0  0  0
  -25.9025  -34.9482   23.5134 C   0  0  0  0  0  0
  -16.5342  -29.9092   23.6322 C   0  0  0  0  0  0
  -16.7253  -28.6511   23.0345 C   0  0  0  0  0  0
  -26.4469  -31.6602   25.0719 C   0  0  0  0  0  0
  -25.3756  -31.3698   26.1485 C   0  0  0  0  0  0
  -27.0291  -30.3049   24.6070 C   0  0  0  0  0  0
  -27.6062  -32.4316   25.7460 C   0  0  0  0  0  0
  -27.5578  -37.1812   24.8459 C   0  0  0  0  0  0
  -21.4126  -29.3029   22.3737 N   0  0  0  0  0  0
  -26.4289  -37.3798   23.9407 N   0  0  0  0  0  0
  -24.6642  -31.0802   22.0999 N   0  0  0  0  0  0
  -23.4171  -28.8194   23.3039 O   0  0  0  0  0  0
  -28.4140  -26.7448   20.0385 O   0  0  0  0  0  0
  -26.5593  -34.8928   22.4699 O   0  0  0  0  0  0
  -23.5322  -32.1425   23.7525 O   0  0  0  0  0  0
  -29.6058  -19.3135   19.1556 C   0  0  0  0  0  0
  -29.7283  -18.1659   18.3540 C   0  0  0  0  0  0
  -29.6908  -17.9142   21.1555 C   0  0  0  0  0  0
  -29.5722  -19.1938   20.5598 C   0  0  0  0  0  0
  -29.8416  -16.7562   20.3567 C   0  0  0  0  0  0
  -29.8316  -16.8945   18.9447 C   0  0  0  0  0  0
  -30.5901  -21.1579   21.5846 C   0  0  0  0  0  0
  -28.1350  -22.2781   20.4914 C   0  0  0  0  0  0
  -28.1037  -20.9902   21.3503 C   0  0  2  0  0  0
  -30.6004  -22.4480   20.7219 C   0  0  2  0  0  0
  -27.6098  -21.2467   22.7825 C   0  0  0  0  0  0
  -31.8030  -23.3057   21.1738 C   0  0  0  0  0  0
  -29.2299  -25.9866   22.1347 C   0  0  0  0  0  0
  -29.2098  -24.4651   20.0703 C   0  0  0  0  0  0
  -28.4787  -25.5755   20.8603 C   0  0  2  0  0  0
  -29.4074  -20.3280   21.3693 N   0  0  0  0  0  0
  -29.9126  -15.4701   20.9741 N   0  0  0  0  0  0
  -29.2875  -23.1671   20.8170 N   0  3  1  0  0  0
  -29.8740  -15.8131   18.1336 F   0  0  0  0  0  0
  -31.4674  -12.3886   19.1123 H   0  0  0  0  0  0
  -30.3341  -11.2685   19.8093 H   0  0  0  0  0  0
  -29.7167  -11.7363   17.4334 H   0  0  0  0  0  0
  -29.6750  -13.4463   17.7432 H   0  0  0  0  0  0
  -27.7971  -11.3124   18.7977 H   0  0  0  0  0  0
  -27.3714  -12.6635   17.7812 H   0  0  0  0  0  0
  -27.7112  -14.2495   19.5809 H   0  0  0  0  0  0
  -28.6697  -11.9176   21.3151 H   0  0  0  0  0  0
  -28.4698  -13.5472   21.8803 H   0  0  0  0  0  0
  -25.2724   -9.5726   22.4734 H   0  0  0  0  0  0
  -23.9997   -7.4667   22.7485 H   0  0  0  0  0  0
  -21.0803   -8.8768   19.8970 H   0  0  0  0  0  0
  -22.3639  -10.9667   19.6184 H   0  0  0  0  0  0
  -21.1998   -7.6118   23.9674 H   0  0  0  0  0  0
  -21.1489   -6.0513   25.9057 H   0  0  0  0  0  0
  -22.0599   -2.7593   23.2849 H   0  0  0  0  0  0
  -22.4080  -11.9917   22.4787 H   0  0  0  0  0  0
  -21.1140  -13.1344   22.2591 H   0  0  0  0  0  0
  -24.6832  -15.8482   20.5453 H   0  0  0  0  0  0
  -26.2999  -15.6198   20.1079 H   0  0  0  0  0  0
  -26.7090  -32.5559   23.1177 H   0  0  0  0  0  0
  -25.0031  -33.9795   25.0483 H   0  0  0  0  0  0
  -22.6885  -31.3056   21.4104 H   0  0  0  0  0  0
  -23.3739  -35.9669   23.3322 H   0  0  0  0  0  0
  -24.3582  -36.8925   22.2050 H   0  0  0  0  0  0
  -23.7248  -37.6544   23.6646 H   0  0  0  0  0  0
  -26.0302  -31.6043   20.5891 H   0  0  0  0  0  0
  -26.8174  -30.9004   21.9734 H   0  0  0  0  0  0
  -28.1075  -29.1368   21.1397 H   0  0  0  0  0  0
  -26.0868  -25.9710   19.0226 H   0  0  0  0  0  0
  -23.9852  -27.2783   19.0515 H   0  0  0  0  0  0
  -23.7150  -30.5898   19.4040 H   0  0  0  0  0  0
  -22.7367  -29.2332   19.8733 H   0  0  0  0  0  0
  -25.1275  -36.1995   25.0836 H   0  0  0  0  0  0
  -20.9931  -28.3228   24.1449 H   0  0  0  0  0  0
  -20.5659  -26.2265   23.3598 H   0  0  0  0  0  0
  -21.6639  -26.7447   22.1226 H   0  0  0  0  0  0
  -19.6914  -25.6306   21.1227 H   0  0  0  0  0  0
  -19.6693  -27.3203   20.6748 H   0  0  0  0  0  0
  -17.4195  -26.6666   21.4022 H   0  0  0  0  0  0
  -18.0320  -26.0067   22.8998 H   0  0  0  0  0  0
  -19.7914  -30.7237   24.2315 H   0  0  0  0  0  0
  -17.5007  -31.6266   24.5156 H   0  0  0  0  0  0
  -15.5348  -30.3002   23.7637 H   0  0  0  0  0  0
  -15.8653  -28.0836   22.7057 H   0  0  0  0  0  0
  -24.5918  -30.7052   25.7836 H   0  0  0  0  0  0
  -24.8960  -32.2844   26.4974 H   0  0  0  0  0  0
  -25.8127  -30.8843   27.0218 H   0  0  0  0  0  0
  -26.2808  -29.6804   24.1171 H   0  0  0  0  0  0
  -27.4124  -29.7293   25.4506 H   0  0  0  0  0  0
  -27.8621  -30.4386   23.9163 H   0  0  0  0  0  0
  -27.2699  -33.3603   26.2082 H   0  0  0  0  0  0
  -28.3832  -32.6895   25.0252 H   0  0  0  0  0  0
  -28.0773  -31.8415   26.5330 H   0  0  0  0  0  0
  -28.2607  -38.0098   24.7506 H   0  0  0  0  0  0
  -28.1067  -36.2639   24.6285 H   0  0  0  0  0  0
  -27.2306  -37.1460   25.8863 H   0  0  0  0  0  0
  -20.9282  -29.8753   21.6965 H   0  0  0  0  0  0
  -26.0192  -38.2881   24.1412 H   0  0  0  0  0  0
  -29.5223  -20.2768   18.6752 H   0  0  0  0  0  0
  -29.7264  -18.2539   17.2784 H   0  0  0  0  0  0
  -29.6565  -17.8231   22.2318 H   0  0  0  0  0  0
  -30.6266  -21.4211   22.6423 H   0  0  0  0  0  0
  -31.4951  -20.5791   21.3912 H   0  0  0  0  0  0
  -27.1938  -22.8173   20.6076 H   0  0  0  0  0  0
  -28.1918  -22.0062   19.4370 H   0  0  0  0  0  0
  -27.3794  -20.3149   20.8885 H   0  0  0  0  0  0
  -30.7571  -22.1662   19.6789 H   0  0  0  0  0  0
  -28.2765  -21.9025   23.3431 H   0  0  0  0  0  0
  -27.5295  -20.3097   23.3355 H   0  0  0  0  0  0
  -26.6183  -21.7014   22.7826 H   0  0  0  0  0  0
  -31.6497  -23.7208   22.1703 H   0  0  0  0  0  0
  -32.0312  -24.1249   20.4948 H   0  0  0  0  0  0
  -32.7079  -22.6986   21.2169 H   0  0  0  0  0  0
  -29.3388  -25.1565   22.8312 H   0  0  0  0  0  0
  -28.7031  -26.7845   22.6585 H   0  0  0  0  0  0
  -30.2275  -26.3551   21.8954 H   0  0  0  0  0  0
  -30.1882  -24.8454   19.7900 H   0  0  0  0  0  0
  -28.7028  -24.3063   19.1176 H   0  0  0  0  0  0
  -27.4804  -25.2256   21.1308 H   0  0  0  0  0  0
  -29.0947  -15.1974   21.4960 H   0  0  0  0  0  0
  -29.1859  -23.3849   21.7962 H   0  0  0  0  0  0
  1 25  1  0  0  0
  1 30  2  0  0  0
  1 87  1  0  0  0
  2  3  1  0  0  0
  2 25  1  0  0  0
  2 90  1  0  0  0
  2 91  1  0  0  0
  3  4  1  0  0  0
  3 92  1  0  0  0
  3 93  1  0  0  0
  4  5  1  0  0  0
  4 94  1  0  0  0
  4 95  1  0  0  0
  5  6  1  0  0  0
  5 26  1  0  0  0
  5 96  1  0  0  0
  6 25  1  0  0  0
  6 97  1  0  0  0
  6 98  1  0  0  0
  7  8  2  0  0  0
  7 26  1  0  0  0
  7 29  1  0  0  0
  8  9  1  0  0  0
  8 22  1  0  0  0
  9 10  1  0  0  0
  9 27  2  0  0  0
 10 11  2  0  0  0
 10 15  1  0  0  0
 11 12  1  0  0  0
 11 99  1  0  0  0
 12 13  2  0  0  0
 12100  1  0  0  0
 13 14  1  0  0  0
 13 31  1  0  0  0
 14 15  2  0  0  0
 14101  1  0  0  0
 15102  1  0  0  0
 16 17  2  0  0  0
 16 21  1  0  0  0
 16 31  1  0  0  0
 17 18  1  0  0  0
 17103  1  0  0  0
 18 19  2  0  0  0
 18104  1  0  0  0
 19 20  1  0  0  0
 19 24  1  0  0  0
 20 21  2  0  0  0
 20105  1  0  0  0
 21 23  1  0  0  0
 22 28  1  0  0  0
 22 32  2  0  0  0
 26 27  1  0  0  0
 28106  1  0  0  0
 28107  1  0  0  0
 29108  1  0  0  0
 29109  1  0  0  0
 33 34  1  0  0  0
 33 66  1  0  0  0
 33 70  2  0  0  0
 34 36  1  0  0  0
 34 59  1  0  0  0
 34110  1  0  0  0
 35 44  2  0  0  0
 35 45  1  0  0  0
 35 68  1  0  0  0
 36 56  1  0  0  0
 36111  1  0  0  0
 37 39  1  0  0  0
 37 47  1  0  0  0
 37 66  1  0  0  0
 37112  1  0  0  0
 38 43  2  0  0  0
 38 46  1  0  0  0
 38 47  1  0  0  0
 39 64  1  0  0  0
 39 67  2  0  0  0
 40 52  1  0  0  0
 40 53  2  0  0  0
 40 58  1  0  0  0
 41113  1  0  0  0
 41114  1  0  0  0
 41115  1  0  0  0
 41 48  1  0  0  0
 42 43  1  0  0  0
 42 66  1  0  0  0
 42116  1  0  0  0
 42117  1  0  0  0
 43 44  1  0  0  0
 44118  1  0  0  0
 45 46  2  0  0  0
 45119  1  0  0  0
 46120  1  0  0  0
 47121  1  0  0  0
 47122  1  0  0  0
 48 56  1  0  0  0
 48 65  1  0  0  0
 48123  1  0  0  0
 49 50  1  0  0  0
 49 53  1  0  0  0
 49 64  1  0  0  0
 49124  1  0  0  0
 50 51  1  0  0  0
 50125  1  0  0  0
 50126  1  0  0  0
 51 52  1  0  0  0
 51127  1  0  0  0
 51128  1  0  0  0
 52129  1  0  0  0
 52130  1  0  0  0
 53 54  1  0  0  0
 54 55  2  0  0  0
 54131  1  0  0  0
 55 57  1  0  0  0
 55132  1  0  0  0
 56 69  2  0  0  0
 57 58  2  0  0  0
 57133  1  0  0  0
 58134  1  0  0  0
 59 60  1  0  0  0
 59 61  1  0  0  0
 59 62  1  0  0  0
 60135  1  0  0  0
 60136  1  0  0  0
 60137  1  0  0  0
 61138  1  0  0  0
 61139  1  0  0  0
 61140  1  0  0  0
 62141  1  0  0  0
 62142  1  0  0  0
 62143  1  0  0  0
 63 65  1  0  0  0
 63144  1  0  0  0
 63145  1  0  0  0
 63146  1  0  0  0
 64147  1  0  0  0
 65148  1  0  0  0
 68 85  1  0  0  0
 71 72  2  0  0  0
 71 74  1  0  0  0
 71149  1  0  0  0
 72 76  1  0  0  0
 72150  1  0  0  0
 73 74  2  0  0  0
 73 75  1  0  0  0
 73151  1  0  0  0
 74 86  1  0  0  0
 75 76  2  0  0  0
 75 87  1  0  0  0
 76 89  1  0  0  0
 77 80  1  0  0  0
 77 86  1  0  0  0
 77152  1  0  0  0
 77153  1  0  0  0
 78 79  1  0  0  0
 78 88  1  0  0  0
 78154  1  0  0  0
 78155  1  0  0  0
 79 81  1  0  0  0
 79 86  1  0  0  0
 79156  1  0  0  0
 80 82  1  0  0  0
 80 88  1  0  0  0
 80157  1  0  0  0
 81158  1  0  0  0
 81159  1  0  0  0
 81160  1  0  0  0
 82161  1  0  0  0
 82162  1  0  0  0
 82163  1  0  0  0
 83164  1  0  0  0
 83165  1  0  0  0
 83166  1  0  0  0
 83 85  1  0  0  0
 84 85  1  0  0  0
 84167  1  0  0  0
 84168  1  0  0  0
 84 88  1  0  0  0
 85169  1  0  0  0
 87170  1  0  0  0
 88171  1  0  0  0
M  CHG  1  88   1
M  ISO  4   1 100  68 101  85 101  87 100
M  END
> <chiral flag>
0

> <version>
0

> <s_m_source_file>
/data/baiqing/PycharmProjects/Reinvent-master-3.2/result/LINK_invent/BTK/process_docking_weight1_custom_product_contain_oxygen_bond_distance_aromatic_linkinvent_7_9_3/rearranged_h_0025.sdf

> <i_m_source_file_index>
41

> <r_mmod_Potential_Energy-OPLS-2005>
-36.4032821655273

> <r_mmod_Stretch_Energy-OPLS-2005>
37.467155456543

> <r_mmod_Bend_Energy-OPLS-2005>
101.162651062012

> <r_mmod_Torsional_Energy-OPLS-2005>
375.001068115234

> <r_mmod_Improper_Torsional_Energy-OPLS-2005>
7.84368944168091

> <r_mmod_Van_der_Waal_Energy-OPLS-2005>
150.654663085938

> <r_mmod_Electrostatic_Energy-OPLS-2005>
-300.320037841797

> <r_mmod_Solvation_Energy-OPLS-2005>
-419.347106933594

> <b_mmod_Minimization_Converged-OPLS-2005>
0

> <r_mmod_RMS_Derivative-OPLS-2005>
2.26969528198242

$$$$
41
                    3D
 Structure written by MMmdl.
162171  0  0  1  0            999 V2000
  -30.5175  -14.9154   20.4451 C   0  0  0  0  0  0
  -30.4522  -12.5654   19.4977 C   0  0  0  0  0  0
  -29.5270  -12.5376   18.2566 C   0  0  0  0  0  0
  -28.0572  -12.3269   18.6697 C   0  0  0  0  0  0
  -27.6404  -13.2401   19.8516 C   0  0  2  0  0  0
  -28.6822  -13.2171   20.9916 C   0  0  0  0  0  0
  -25.2467  -13.8186   20.5570 C   0  0  0  0  0  0
  -24.1792  -13.0440   20.9190 C   0  0  0  0  0  0
  -24.6405  -11.6924   20.8767 C   0  0  0  0  0  0
  -23.9076  -10.4298   21.0428 C   0  0  0  0  0  0
  -24.3624   -9.4207   21.9198 C   0  0  0  0  0  0
  -23.6299   -8.2242   22.0758 C   0  0  0  0  0  0
  -22.4279   -8.0285   21.3550 C   0  0  0  0  0  0
  -21.9920   -9.0261   20.4654 C   0  0  0  0  0  0
  -22.7251  -10.2142   20.3072 C   0  0  0  0  0  0
  -21.6854   -6.0736   22.5282 C   0  0  0  0  0  0
  -21.4011   -6.5637   23.8214 C   0  0  0  0  0  0
  -21.3657   -5.6792   24.9178 C   0  0  0  0  0  0
  -21.6045   -4.3054   24.7226 C   0  0  0  0  0  0
  -21.8818   -3.8147   23.4346 C   0  0  0  0  0  0
  -21.9191   -4.6965   22.3404 C   0  0  0  0  0  0
  -22.7817  -13.5226   21.1865 C   0  0  0  0  0  0
  -22.1663   -4.2151   21.0979 F   0  0  0  0  0  0
  -21.5628   -3.4537   25.7735 F   0  0  0  0  0  0
  -29.9684  -13.6359   20.4136 N   0  0  0  0  0  0
  -26.2932  -12.9417   20.3276 N   0  0  0  0  0  0
  -25.9344  -11.6557   20.5786 N   0  0  0  0  0  0
  -22.0465  -12.8226   22.0430 N   0  0  0  0  0  0
  -25.4076  -15.1881   20.3733 N   0  0  0  0  0  0
  -31.6935  -15.0528   20.0897 O   0  0  0  0  0  0
  -21.6642   -6.8884   21.4241 O   0  0  0  0  0  0
  -22.3500  -14.5531   20.6715 O   0  0  0  0  0  0
  -24.6452  -31.8434   23.1889 C   0  0  0  0  0  0
  -25.9217  -32.4690   23.8278 C   0  0  1  0  0  0
  -27.2157  -27.1299   20.1488 C   0  0  0  0  0  0
  -25.5962  -33.8495   24.2192 N   0  0  0  0  0  0
  -23.4490  -30.4643   21.5344 C   0  0  2  0  0  0
  -24.8989  -28.8938   20.1098 C   0  0  0  0  0  0
  -22.7579  -29.4540   22.4856 C   0  0  0  0  0  0
  -18.0305  -28.1401   22.8472 C   0  0  0  0  0  0
  -24.1484  -36.7240   23.2641 C   0  0  0  0  0  0
  -26.0067  -30.7154   21.3898 C   0  0  0  0  0  0
  -26.0778  -29.3270   20.7296 C   0  0  0  0  0  0
  -27.2375  -28.4614   20.7327 C   0  0  0  0  0  0
  -26.0091  -26.8051   19.4863 C   0  0  0  0  0  0
  -24.8781  -27.6466   19.4719 C   0  0  0  0  0  0
  -23.6764  -29.7967   20.1532 C   0  0  0  0  0  0
  -25.4119  -36.3027   24.0316 C   0  0  1  0  0  0
  -20.5918  -28.3720   23.1233 C   0  0  2  0  0  0
  -20.6781  -26.9420   22.5410 C   0  0  0  0  0  0
  -19.5761  -26.6389   21.5207 C   0  0  0  0  0  0
  -18.1941  -26.7941   22.1614 C   0  0  0  0  0  0
  -19.1562  -28.8880   23.2844 C   0  0  0  0  0  0
  -18.9478  -30.1474   23.8870 C   0  0  0  0  0  0
  -17.6473  -30.6591   24.0562 C   0  0  0  0  0  0
  -25.9072  -34.9403   23.5063 C   0  0  0  0  0  0
  -16.5363  -29.9084   23.6341 C   0  0  0  0  0  0
  -16.7289  -28.6508   23.0355 C   0  0  0  0  0  0
  -26.4534  -31.6561   25.0722 C   0  0  0  0  0  0
  -25.3720  -31.3766   26.1420 C   0  0  0  0  0  0
  -27.0386  -30.2951   24.6311 C   0  0  0  0  0  0
  -27.6071  -32.4322   25.7502 C   0  0  0  0  0  0
  -27.5573  -37.1778   24.8463 C   0  0  0  0  0  0
  -21.4269  -29.3041   22.3602 N   0  0  0  0  0  0
  -26.4277  -37.3746   23.9414 N   0  0  0  0  0  0
  -24.7199  -31.0287   22.0926 N   0  0  0  0  0  0
  -23.4221  -28.8092   23.3010 O   0  0  0  0  0  0
  -28.2533  -26.1252   20.2226 O   0  0  0  0  0  0
  -26.5653  -34.8902   22.4640 O   0  0  0  0  0  0
  -23.5568  -32.1315   23.7101 O   0  0  0  0  0  0
  -28.2155  -19.6000   21.2295 C   0  0  0  0  0  0
  -30.3793  -18.4832   19.9153 C   0  0  0  0  0  0
  -28.9758  -20.5594   20.4826 C   0  0  0  0  0  0
  -29.5856  -17.5313   20.6521 C   0  0  0  0  0  0
  -28.5014  -18.1752   21.3329 C   0  0  0  0  0  0
  -30.0935  -19.9188   19.8321 C   0  0  0  0  0  0
  -28.9111  -23.3339   20.3174 C   0  0  0  0  0  0
  -27.3636  -17.5420   25.3698 C   0  0  0  0  0  0
  -26.9186  -16.2049   24.7804 C   0  0  0  0  0  0
  -27.3784  -18.5340   24.1950 C   0  0  0  0  0  0
  -26.0387  -16.6018   23.5993 C   0  0  0  0  0  0
  -26.7417  -17.8165   22.9840 C   0  0  0  0  0  0
  -27.8895  -24.6168   20.0518 C   0  0  0  0  0  0
  -28.4431  -21.9943   20.3190 N   0  0  0  0  0  0
  -29.6711  -16.0028   20.7585 N   0  0  0  0  0  0
  -30.1051  -23.5717   20.5163 O   0  0  0  0  0  0
  -27.7372  -17.3101   22.0955 O   0  0  0  0  0  0
  -30.8953  -20.6786   19.0488 F   0  0  0  0  0  0
  -31.4848  -12.7342   19.1885 H   0  0  0  0  0  0
  -30.4474  -11.5984   20.0036 H   0  0  0  0  0  0
  -29.8399  -11.7514   17.5682 H   0  0  0  0  0  0
  -29.6215  -13.4767   17.7094 H   0  0  0  0  0  0
  -27.9425  -11.2809   18.9564 H   0  0  0  0  0  0
  -27.3966  -12.4826   17.8160 H   0  0  0  0  0  0
  -27.6199  -14.2537   19.4503 H   0  0  0  0  0  0
  -28.7578  -12.2207   21.4295 H   0  0  0  0  0  0
  -28.3806  -13.8826   21.8020 H   0  0  0  0  0  0
  -25.2767   -9.5680   22.4772 H   0  0  0  0  0  0
  -24.0008   -7.4628   22.7470 H   0  0  0  0  0  0
  -21.0854   -8.8785   19.8953 H   0  0  0  0  0  0
  -22.3711  -10.9685   19.6181 H   0  0  0  0  0  0
  -21.2000   -7.6146   23.9717 H   0  0  0  0  0  0
  -21.1480   -6.0521   25.9080 H   0  0  0  0  0  0
  -22.0595   -2.7610   23.2845 H   0  0  0  0  0  0
  -22.4074  -11.9890   22.4833 H   0  0  0  0  0  0
  -21.1084  -13.1255   22.2623 H   0  0  0  0  0  0
  -24.6326  -15.8344   20.4636 H   0  0  0  0  0  0
  -26.2564  -15.6325   20.0497 H   0  0  0  0  0  0
  -26.7282  -32.5296   23.1005 H   0  0  0  0  0  0
  -25.0098  -33.9610   25.0333 H   0  0  0  0  0  0
  -22.7516  -31.2907   21.3817 H   0  0  0  0  0  0
  -23.3755  -35.9563   23.3297 H   0  0  0  0  0  0
  -24.3567  -36.8878   22.2056 H   0  0  0  0  0  0
  -23.7224  -37.6431   23.6675 H   0  0  0  0  0  0
  -26.1634  -31.4706   20.6183 H   0  0  0  0  0  0
  -26.8761  -30.7646   22.0339 H   0  0  0  0  0  0
  -28.1332  -28.7860   21.2429 H   0  0  0  0  0  0
  -25.8939  -25.8562   18.9869 H   0  0  0  0  0  0
  -23.9793  -27.3113   18.9723 H   0  0  0  0  0  0
  -23.8157  -30.5725   19.3995 H   0  0  0  0  0  0
  -22.7907  -29.2414   19.8398 H   0  0  0  0  0  0
  -25.1305  -36.1851   25.0806 H   0  0  0  0  0  0
  -21.0008  -28.3308   24.1355 H   0  0  0  0  0  0
  -20.5653  -26.2335   23.3631 H   0  0  0  0  0  0
  -21.6651  -26.7412   22.1224 H   0  0  0  0  0  0
  -19.6917  -25.6297   21.1248 H   0  0  0  0  0  0
  -19.6704  -27.3191   20.6728 H   0  0  0  0  0  0
  -17.4214  -26.6694   21.4012 H   0  0  0  0  0  0
  -18.0331  -26.0091   22.9014 H   0  0  0  0  0  0
  -19.7952  -30.7299   24.2232 H   0  0  0  0  0  0
  -17.5025  -31.6266   24.5174 H   0  0  0  0  0  0
  -15.5362  -30.2975   23.7684 H   0  0  0  0  0  0
  -15.8692  -28.0819   22.7077 H   0  0  0  0  0  0
  -24.5919  -30.7078   25.7766 H   0  0  0  0  0  0
  -24.8877  -32.2947   26.4752 H   0  0  0  0  0  0
  -25.8012  -30.9027   27.0255 H   0  0  0  0  0  0
  -26.3001  -29.6683   24.1300 H   0  0  0  0  0  0
  -27.3964  -29.7243   25.4889 H   0  0  0  0  0  0
  -27.8928  -30.4170   23.9651 H   0  0  0  0  0  0
  -27.2671  -33.3646   26.2018 H   0  0  0  0  0  0
  -28.3911  -32.6844   25.0350 H   0  0  0  0  0  0
  -28.0701  -31.8483   26.5466 H   0  0  0  0  0  0
  -28.2588  -38.0077   24.7508 H   0  0  0  0  0  0
  -28.1069  -36.2606   24.6283 H   0  0  0  0  0  0
  -27.2295  -37.1423   25.8868 H   0  0  0  0  0  0
  -20.9483  -29.8757   21.6783 H   0  0  0  0  0  0
  -26.0140  -38.2811   24.1436 H   0  0  0  0  0  0
  -27.3519  -19.9953   21.7399 H   0  0  0  0  0  0
  -31.2241  -18.1106   19.3556 H   0  0  0  0  0  0
  -28.3322  -17.4685   25.8657 H   0  0  0  0  0  0
  -26.6399  -17.8712   26.1173 H   0  0  0  0  0  0
  -26.3981  -15.5755   25.5032 H   0  0  0  0  0  0
  -27.7867  -15.6506   24.4195 H   0  0  0  0  0  0
  -28.3934  -18.8722   23.9849 H   0  0  0  0  0  0
  -26.7986  -19.4205   24.4550 H   0  0  0  0  0  0
  -25.0512  -16.8925   23.9607 H   0  0  0  0  0  0
  -25.8998  -15.7826   22.8964 H   0  0  0  0  0  0
  -26.0184  -18.4328   22.4482 H   0  0  0  0  0  0
  -27.0082  -24.4269   20.6653 H   0  0  0  0  0  0
  -27.5703  -24.4864   19.0179 H   0  0  0  0  0  0
  -27.4358  -22.0011   20.2384 H   0  0  0  0  0  0
  -28.8135  -15.6444   21.1531 H   0  0  0  0  0  0
  1 25  1  0  0  0
  1 30  2  0  0  0
  1 85  1  0  0  0
  2  3  1  0  0  0
  2 25  1  0  0  0
  2 89  1  0  0  0
  2 90  1  0  0  0
  3  4  1  0  0  0
  3 91  1  0  0  0
  3 92  1  0  0  0
  4  5  1  0  0  0
  4 93  1  0  0  0
  4 94  1  0  0  0
  5  6  1  0  0  0
  5 26  1  0  0  0
  5 95  1  0  0  0
  6 25  1  0  0  0
  6 96  1  0  0  0
  6 97  1  0  0  0
  7  8  2  0  0  0
  7 26  1  0  0  0
  7 29  1  0  0  0
  8  9  1  0  0  0
  8 22  1  0  0  0
  9 10  1  0  0  0
  9 27  2  0  0  0
 10 11  2  0  0  0
 10 15  1  0  0  0
 11 12  1  0  0  0
 11 98  1  0  0  0
 12 13  2  0  0  0
 12 99  1  0  0  0
 13 14  1  0  0  0
 13 31  1  0  0  0
 14 15  2  0  0  0
 14100  1  0  0  0
 15101  1  0  0  0
 16 17  2  0  0  0
 16 21  1  0  0  0
 16 31  1  0  0  0
 17 18  1  0  0  0
 17102  1  0  0  0
 18 19  2  0  0  0
 18103  1  0  0  0
 19 20  1  0  0  0
 19 24  1  0  0  0
 20 21  2  0  0  0
 20104  1  0  0  0
 21 23  1  0  0  0
 22 28  1  0  0  0
 22 32  2  0  0  0
 26 27  1  0  0  0
 28105  1  0  0  0
 28106  1  0  0  0
 29107  1  0  0  0
 29108  1  0  0  0
 33 34  1  0  0  0
 33 66  1  0  0  0
 33 70  2  0  0  0
 34 36  1  0  0  0
 34 59  1  0  0  0
 34109  1  0  0  0
 35 44  2  0  0  0
 35 45  1  0  0  0
 35 68  1  0  0  0
 36 56  1  0  0  0
 36110  1  0  0  0
 37 39  1  0  0  0
 37 47  1  0  0  0
 37 66  1  0  0  0
 37111  1  0  0  0
 38 43  2  0  0  0
 38 46  1  0  0  0
 38 47  1  0  0  0
 39 64  1  0  0  0
 39 67  2  0  0  0
 40 52  1  0  0  0
 40 53  2  0  0  0
 40 58  1  0  0  0
 41112  1  0  0  0
 41113  1  0  0  0
 41114  1  0  0  0
 41 48  1  0  0  0
 42 43  1  0  0  0
 42 66  1  0  0  0
 42115  1  0  0  0
 42116  1  0  0  0
 43 44  1  0  0  0
 44117  1  0  0  0
 45 46  2  0  0  0
 45118  1  0  0  0
 46119  1  0  0  0
 47120  1  0  0  0
 47121  1  0  0  0
 48 56  1  0  0  0
 48 65  1  0  0  0
 48122  1  0  0  0
 49 50  1  0  0  0
 49 53  1  0  0  0
 49 64  1  0  0  0
 49123  1  0  0  0
 50 51  1  0  0  0
 50124  1  0  0  0
 50125  1  0  0  0
 51 52  1  0  0  0
 51126  1  0  0  0
 51127  1  0  0  0
 52128  1  0  0  0
 52129  1  0  0  0
 53 54  1  0  0  0
 54 55  2  0  0  0
 54130  1  0  0  0
 55 57  1  0  0  0
 55131  1  0  0  0
 56 69  2  0  0  0
 57 58  2  0  0  0
 57132  1  0  0  0
 58133  1  0  0  0
 59 60  1  0  0  0
 59 61  1  0  0  0
 59 62  1  0  0  0
 60134  1  0  0  0
 60135  1  0  0  0
 60136  1  0  0  0
 61137  1  0  0  0
 61138  1  0  0  0
 61139  1  0  0  0
 62140  1  0  0  0
 62141  1  0  0  0
 62142  1  0  0  0
 63 65  1  0  0  0
 63143  1  0  0  0
 63144  1  0  0  0
 63145  1  0  0  0
 64146  1  0  0  0
 65147  1  0  0  0
 68 83  1  0  0  0
 71 73  2  0  0  0
 71 75  1  0  0  0
 71148  1  0  0  0
 72 74  1  0  0  0
 72 76  2  0  0  0
 72149  1  0  0  0
 73 76  1  0  0  0
 73 84  1  0  0  0
 74 75  2  0  0  0
 74 85  1  0  0  0
 75 87  1  0  0  0
 76 88  1  0  0  0
 77 83  1  0  0  0
 77 84  1  0  0  0
 77 86  2  0  0  0
 78 79  1  0  0  0
 78 80  1  0  0  0
 78150  1  0  0  0
 78151  1  0  0  0
 79 81  1  0  0  0
 79152  1  0  0  0
 79153  1  0  0  0
 80 82  1  0  0  0
 80154  1  0  0  0
 80155  1  0  0  0
 81 82  1  0  0  0
 81156  1  0  0  0
 81157  1  0  0  0
 82 87  1  0  0  0
 82158  1  0  0  0
 83159  1  0  0  0
 83160  1  0  0  0
 84161  1  0  0  0
 85162  1  0  0  0
M  ISO  4   1 100  68 101  83 101  85 100
M  END
> <chiral flag>
0

> <version>
0

> <s_m_source_file>
/data/baiqing/PycharmProjects/Reinvent-master-3.2/result/LINK_invent/BTK/process_docking_weight1_custom_product_contain_oxygen_bond_distance_aromatic_linkinvent_7_9_3/rearranged_h_0025.sdf

> <i_m_source_file_index>
42

> <r_mmod_Potential_Energy-OPLS-2005>
461.400665283203

> <r_mmod_Stretch_Energy-OPLS-2005>
227.284378051758

> <r_mmod_Bend_Energy-OPLS-2005>
306.795135498047

> <r_mmod_Torsional_Energy-OPLS-2005>
287.5986328125

> <r_mmod_Improper_Torsional_Energy-OPLS-2005>
4.22969722747803

> <r_mmod_Van_der_Waal_Energy-OPLS-2005>
126.110015869141

> <r_mmod_Electrostatic_Energy-OPLS-2005>
-426.880767822266

> <r_mmod_Solvation_Energy-OPLS-2005>
-249.43212890625

> <b_mmod_Minimization_Converged-OPLS-2005>
0

> <r_mmod_RMS_Derivative-OPLS-2005>
0.924414396286011

$$$$
42
                    3D
 Structure written by MMmdl.
153162  0  0  1  0            999 V2000
  -30.6263  -14.7343   20.4783 C   0  0  0  0  0  0
  -30.4599  -12.4582   19.4692 C   0  0  0  0  0  0
  -29.5284  -12.5244   18.2378 C   0  0  0  0  0  0
  -28.0510  -12.3485   18.6439 C   0  0  0  0  0  0
  -27.6577  -13.2307   19.8587 C   0  0  2  0  0  0
  -28.7059  -13.1396   20.9936 C   0  0  0  0  0  0
  -25.2583  -13.8210   20.5668 C   0  0  0  0  0  0
  -24.1846  -13.0458   20.9194 C   0  0  0  0  0  0
  -24.6411  -11.6937   20.8706 C   0  0  0  0  0  0
  -23.9055  -10.4329   21.0389 C   0  0  0  0  0  0
  -24.3613   -9.4241   21.9162 C   0  0  0  0  0  0
  -23.6303   -8.2268   22.0747 C   0  0  0  0  0  0
  -22.4282   -8.0290   21.3549 C   0  0  0  0  0  0
  -21.9892   -9.0261   20.4662 C   0  0  0  0  0  0
  -22.7213  -10.2150   20.3062 C   0  0  0  0  0  0
  -21.6862   -6.0727   22.5277 C   0  0  0  0  0  0
  -21.4014   -6.5627   23.8208 C   0  0  0  0  0  0
  -21.3662   -5.6781   24.9172 C   0  0  0  0  0  0
  -21.6038   -4.3040   24.7216 C   0  0  0  0  0  0
  -21.8827   -3.8130   23.4340 C   0  0  0  0  0  0
  -21.9197   -4.6953   22.3397 C   0  0  0  0  0  0
  -22.7873  -13.5255   21.1849 C   0  0  0  0  0  0
  -22.1673   -4.2142   21.0983 F   0  0  0  0  0  0
  -21.5628   -3.4526   25.7726 F   0  0  0  0  0  0
  -30.0198  -13.4974   20.4269 N   0  0  0  0  0  0
  -26.3024  -12.9407   20.3281 N   0  0  0  0  0  0
  -25.9354  -11.6541   20.5709 N   0  0  0  0  0  0
  -22.0482  -12.8299   22.0423 N   0  0  0  0  0  0
  -25.4252  -15.1931   20.4083 N   0  0  0  0  0  0
  -31.7876  -14.8772   20.0815 O   0  0  0  0  0  0
  -21.6655   -6.8875   21.4245 O   0  0  0  0  0  0
  -22.3567  -14.5544   20.6672 O   0  0  0  0  0  0
  -24.6252  -31.8573   23.1953 C   0  0  0  0  0  0
  -25.9052  -32.4786   23.8318 C   0  0  1  0  0  0
  -27.2467  -27.2944   20.1015 C   0  0  0  0  0  0
  -25.5840  -33.8579   24.2270 N   0  0  0  0  0  0
  -23.4238  -30.4794   21.5385 C   0  0  2  0  0  0
  -24.8750  -28.9256   20.1077 C   0  0  0  0  0  0
  -22.7436  -29.4649   22.4893 C   0  0  0  0  0  0
  -18.0293  -28.1416   22.8517 C   0  0  0  0  0  0
  -24.1465  -36.7317   23.2635 C   0  0  0  0  0  0
  -25.9665  -30.7781   21.3683 C   0  0  0  0  0  0
  -26.0438  -29.3983   20.7178 C   0  0  0  0  0  0
  -27.2255  -28.5922   20.7142 C   0  0  0  0  0  0
  -26.0520  -26.8876   19.4616 C   0  0  0  0  0  0
  -24.8828  -27.6737   19.4728 C   0  0  0  0  0  0
  -23.6365  -29.8008   20.1605 C   0  0  0  0  0  0
  -25.4084  -36.3107   24.0346 C   0  0  1  0  0  0
  -20.5883  -28.3721   23.1275 C   0  0  2  0  0  0
  -20.6776  -26.9432   22.5425 C   0  0  0  0  0  0
  -19.5750  -26.6417   21.5232 C   0  0  0  0  0  0
  -18.1931  -26.7958   22.1642 C   0  0  0  0  0  0
  -19.1543  -28.8883   23.2904 C   0  0  0  0  0  0
  -18.9467  -30.1488   23.8924 C   0  0  0  0  0  0
  -17.6464  -30.6610   24.0589 C   0  0  0  0  0  0
  -25.9040  -34.9469   23.5143 C   0  0  0  0  0  0
  -16.5360  -29.9113   23.6327 C   0  0  0  0  0  0
  -16.7282  -28.6528   23.0353 C   0  0  0  0  0  0
  -26.4418  -31.6600   25.0695 C   0  0  0  0  0  0
  -25.3639  -31.3781   26.1433 C   0  0  0  0  0  0
  -27.0239  -30.3017   24.6136 C   0  0  0  0  0  0
  -27.6023  -32.4290   25.7429 C   0  0  0  0  0  0
  -27.5598  -37.1775   24.8432 C   0  0  0  0  0  0
  -21.4144  -29.3070   22.3626 N   0  0  0  0  0  0
  -26.4265  -37.3796   23.9443 N   0  0  0  0  0  0
  -24.6932  -31.0527   22.0925 N   0  0  0  0  0  0
  -23.4128  -28.8200   23.2995 O   0  0  0  0  0  0
  -28.3749  -26.4385   20.1464 O   0  0  0  0  0  0
  -26.5628  -34.8937   22.4723 O   0  0  0  0  0  0
  -23.5395  -32.1410   23.7235 O   0  0  0  0  0  0
  -28.8429  -19.4869   21.1635 C   0  0  0  0  0  0
  -30.8070  -18.0260   19.8607 C   0  0  0  0  0  0
  -29.7007  -20.2745   20.3410 C   0  0  0  0  0  0
  -29.9088  -17.2761   20.6714 C   0  0  0  0  0  0
  -28.9251  -18.0667   21.3162 C   0  0  0  0  0  0
  -30.6972  -19.4563   19.6973 C   0  0  0  0  0  0
  -29.7805  -22.7272   19.1772 C   0  0  0  0  0  0
  -29.1150  -22.7381   21.2372 C   0  0  0  0  0  0
  -29.3468  -23.8859   20.1703 C   0  0  0  0  0  0
  -28.2364  -24.9905   19.7879 C   0  0  0  0  0  0
  -29.4823  -21.7468   20.2231 N   0  0  0  0  0  0
  -29.8489  -15.8052   20.8609 N   0  0  0  0  0  0
  -28.0124  -17.4403   22.0998 F   0  0  0  0  0  0
  -31.8573  -20.2019   18.6557 Cl  0  0  0  0  0  0
  -31.4933  -12.6092   19.1543 H   0  0  0  0  0  0
  -30.4342  -11.4723   19.9349 H   0  0  0  0  0  0
  -29.8166  -11.7664   17.5094 H   0  0  0  0  0  0
  -29.6547  -13.4863   17.7379 H   0  0  0  0  0  0
  -27.8978  -11.2957   18.8817 H   0  0  0  0  0  0
  -27.4027  -12.5689   17.7952 H   0  0  0  0  0  0
  -27.6601  -14.2603   19.4979 H   0  0  0  0  0  0
  -28.7368  -12.1330   21.4121 H   0  0  0  0  0  0
  -28.4343  -13.7982   21.8199 H   0  0  0  0  0  0
  -25.2761   -9.5717   22.4729 H   0  0  0  0  0  0
  -24.0005   -7.4660   22.7474 H   0  0  0  0  0  0
  -21.0794   -8.8774   19.9000 H   0  0  0  0  0  0
  -22.3633  -10.9681   19.6175 H   0  0  0  0  0  0
  -21.2013   -7.6140   23.9704 H   0  0  0  0  0  0
  -21.1477   -6.0515   25.9075 H   0  0  0  0  0  0
  -22.0603   -2.7594   23.2838 H   0  0  0  0  0  0
  -22.4065  -11.9970   22.4856 H   0  0  0  0  0  0
  -21.1116  -13.1394   22.2611 H   0  0  0  0  0  0
  -24.6620  -15.8468   20.5539 H   0  0  0  0  0  0
  -26.2604  -15.6339   20.0429 H   0  0  0  0  0  0
  -26.7117  -32.5461   23.1072 H   0  0  0  0  0  0
  -24.9845  -33.9721   25.0314 H   0  0  0  0  0  0
  -22.7258  -31.3058   21.3867 H   0  0  0  0  0  0
  -23.3758  -35.9616   23.3219 H   0  0  0  0  0  0
  -24.3605  -36.9010   22.2073 H   0  0  0  0  0  0
  -23.7179  -37.6480   23.6699 H   0  0  0  0  0  0
  -26.0767  -31.5294   20.5833 H   0  0  0  0  0  0
  -26.8560  -30.8500   21.9842 H   0  0  0  0  0  0
  -28.1120  -28.9512   21.2162 H   0  0  0  0  0  0
  -25.9946  -25.9388   18.9484 H   0  0  0  0  0  0
  -23.9898  -27.3054   18.9840 H   0  0  0  0  0  0
  -23.7311  -30.5681   19.3923 H   0  0  0  0  0  0
  -22.7610  -29.2127   19.8778 H   0  0  0  0  0  0
  -25.1254  -36.1954   25.0839 H   0  0  0  0  0  0
  -21.0050  -28.3342   24.1365 H   0  0  0  0  0  0
  -20.5674  -26.2336   23.3650 H   0  0  0  0  0  0
  -21.6650  -26.7457   22.1225 H   0  0  0  0  0  0
  -19.6900  -25.6324   21.1265 H   0  0  0  0  0  0
  -19.6695  -27.3240   20.6774 H   0  0  0  0  0  0
  -17.4202  -26.6749   21.4033 H   0  0  0  0  0  0
  -18.0308  -26.0117   22.9057 H   0  0  0  0  0  0
  -19.7945  -30.7321   24.2288 H   0  0  0  0  0  0
  -17.5015  -31.6293   24.5198 H   0  0  0  0  0  0
  -15.5354  -30.3026   23.7650 H   0  0  0  0  0  0
  -15.8686  -28.0878   22.7015 H   0  0  0  0  0  0
  -24.5779  -30.7157   25.7784 H   0  0  0  0  0  0
  -24.8846  -32.2964   26.4839 H   0  0  0  0  0  0
  -25.7933  -30.8971   27.0234 H   0  0  0  0  0  0
  -26.2821  -29.6788   24.1115 H   0  0  0  0  0  0
  -27.3899  -29.7237   25.4638 H   0  0  0  0  0  0
  -27.8691  -30.4323   23.9372 H   0  0  0  0  0  0
  -27.2704  -33.3615   26.2006 H   0  0  0  0  0  0
  -28.3801  -32.6803   25.0206 H   0  0  0  0  0  0
  -28.0701  -31.8385   26.5321 H   0  0  0  0  0  0
  -28.2536  -38.0144   24.7613 H   0  0  0  0  0  0
  -28.1171  -36.2705   24.6061 H   0  0  0  0  0  0
  -27.2360  -37.1179   25.8832 H   0  0  0  0  0  0
  -20.9300  -29.8732   21.6805 H   0  0  0  0  0  0
  -26.0156  -38.2853   24.1532 H   0  0  0  0  0  0
  -28.0444  -19.9913   21.6871 H   0  0  0  0  0  0
  -31.5900  -17.5085   19.3264 H   0  0  0  0  0  0
  -30.8391  -22.7679   18.9151 H   0  0  0  0  0  0
  -29.1450  -22.6240   18.2966 H   0  0  0  0  0  0
  -28.0927  -22.6419   21.6003 H   0  0  0  0  0  0
  -29.8359  -22.7570   22.0608 H   0  0  0  0  0  0
  -30.2601  -24.4148   20.4458 H   0  0  0  0  0  0
  -27.2898  -24.6435   20.2022 H   0  0  0  0  0  0
  -28.1053  -24.9653   18.7027 H   0  0  0  0  0  0
  -28.9925  -15.5117   21.3071 H   0  0  0  0  0  0
  1 25  1  0  0  0
  1 30  2  0  0  0
  1 82  1  0  0  0
  2  3  1  0  0  0
  2 25  1  0  0  0
  2 85  1  0  0  0
  2 86  1  0  0  0
  3  4  1  0  0  0
  3 87  1  0  0  0
  3 88  1  0  0  0
  4  5  1  0  0  0
  4 89  1  0  0  0
  4 90  1  0  0  0
  5  6  1  0  0  0
  5 26  1  0  0  0
  5 91  1  0  0  0
  6 25  1  0  0  0
  6 92  1  0  0  0
  6 93  1  0  0  0
  7  8  2  0  0  0
  7 26  1  0  0  0
  7 29  1  0  0  0
  8  9  1  0  0  0
  8 22  1  0  0  0
  9 10  1  0  0  0
  9 27  2  0  0  0
 10 11  2  0  0  0
 10 15  1  0  0  0
 11 12  1  0  0  0
 11 94  1  0  0  0
 12 13  2  0  0  0
 12 95  1  0  0  0
 13 14  1  0  0  0
 13 31  1  0  0  0
 14 15  2  0  0  0
 14 96  1  0  0  0
 15 97  1  0  0  0
 16 17  2  0  0  0
 16 21  1  0  0  0
 16 31  1  0  0  0
 17 18  1  0  0  0
 17 98  1  0  0  0
 18 19  2  0  0  0
 18 99  1  0  0  0
 19 20  1  0  0  0
 19 24  1  0  0  0
 20 21  2  0  0  0
 20100  1  0  0  0
 21 23  1  0  0  0
 22 28  1  0  0  0
 22 32  2  0  0  0
 26 27  1  0  0  0
 28101  1  0  0  0
 28102  1  0  0  0
 29103  1  0  0  0
 29104  1  0  0  0
 33 34  1  0  0  0
 33 66  1  0  0  0
 33 70  2  0  0  0
 34 36  1  0  0  0
 34 59  1  0  0  0
 34105  1  0  0  0
 35 44  2  0  0  0
 35 45  1  0  0  0
 35 68  1  0  0  0
 36 56  1  0  0  0
 36106  1  0  0  0
 37 39  1  0  0  0
 37 47  1  0  0  0
 37 66  1  0  0  0
 37107  1  0  0  0
 38 43  2  0  0  0
 38 46  1  0  0  0
 38 47  1  0  0  0
 39 64  1  0  0  0
 39 67  2  0  0  0
 40 52  1  0  0  0
 40 53  2  0  0  0
 40 58  1  0  0  0
 41108  1  0  0  0
 41109  1  0  0  0
 41110  1  0  0  0
 41 48  1  0  0  0
 42 43  1  0  0  0
 42 66  1  0  0  0
 42111  1  0  0  0
 42112  1  0  0  0
 43 44  1  0  0  0
 44113  1  0  0  0
 45 46  2  0  0  0
 45114  1  0  0  0
 46115  1  0  0  0
 47116  1  0  0  0
 47117  1  0  0  0
 48 56  1  0  0  0
 48 65  1  0  0  0
 48118  1  0  0  0
 49 50  1  0  0  0
 49 53  1  0  0  0
 49 64  1  0  0  0
 49119  1  0  0  0
 50 51  1  0  0  0
 50120  1  0  0  0
 50121  1  0  0  0
 51 52  1  0  0  0
 51122  1  0  0  0
 51123  1  0  0  0
 52124  1  0  0  0
 52125  1  0  0  0
 53 54  1  0  0  0
 54 55  2  0  0  0
 54126  1  0  0  0
 55 57  1  0  0  0
 55127  1  0  0  0
 56 69  2  0  0  0
 57 58  2  0  0  0
 57128  1  0  0  0
 58129  1  0  0  0
 59 60  1  0  0  0
 59 61  1  0  0  0
 59 62  1  0  0  0
 60130  1  0  0  0
 60131  1  0  0  0
 60132  1  0  0  0
 61133  1  0  0  0
 61134  1  0  0  0
 61135  1  0  0  0
 62136  1  0  0  0
 62137  1  0  0  0
 62138  1  0  0  0
 63 65  1  0  0  0
 63139  1  0  0  0
 63140  1  0  0  0
 63141  1  0  0  0
 64142  1  0  0  0
 65143  1  0  0  0
 68 80  1  0  0  0
 71 73  2  0  0  0
 71 75  1  0  0  0
 71144  1  0  0  0
 72 74  1  0  0  0
 72 76  2  0  0  0
 72145  1  0  0  0
 73 76  1  0  0  0
 73 81  1  0  0  0
 74 75  2  0  0  0
 74 82  1  0  0  0
 75 83  1  0  0  0
 76 84  1  0  0  0
 77 79  1  0  0  0
 77 81  1  0  0  0
 77146  1  0  0  0
 77147  1  0  0  0
 78 79  1  0  0  0
 78 81  1  0  0  0
 78148  1  0  0  0
 78149  1  0  0  0
 79 80  1  0  0  0
 79150  1  0  0  0
 80151  1  0  0  0
 80152  1  0  0  0
 82153  1  0  0  0
M  ISO  4   1 100  68 101  80 101  82 100
M  END
> <chiral flag>
0

> <version>
0

> <s_m_source_file>
/data/baiqing/PycharmProjects/Reinvent-master-3.2/result/LINK_invent/BTK/process_docking_weight1_custom_product_contain_oxygen_bond_distance_aromatic_linkinvent_7_9_3/rearranged_h_0025.sdf

> <i_m_source_file_index>
43

> <r_mmod_Potential_Energy-OPLS-2005>
217.799545288086

> <r_mmod_Stretch_Energy-OPLS-2005>
108.34684753418

> <r_mmod_Bend_Energy-OPLS-2005>
249.524856567383

> <r_mmod_Torsional_Energy-OPLS-2005>
248.484848022461

> <r_mmod_Improper_Torsional_Energy-OPLS-2005>
3.75372409820557

> <r_mmod_Van_der_Waal_Energy-OPLS-2005>
136.414443969727

> <r_mmod_Electrostatic_Energy-OPLS-2005>
-383.588012695312

> <r_mmod_Solvation_Energy-OPLS-2005>
-216.550354003906

> <b_mmod_Minimization_Converged-OPLS-2005>
0

> <r_mmod_RMS_Derivative-OPLS-2005>
4.29668235778809

$$$$
43
                    3D
 Structure written by MMmdl.
159168  0  0  1  0            999 V2000
  -30.6105  -14.5621   20.4688 C   0  0  0  0  0  0
  -30.4288  -12.3254   19.4456 C   0  0  0  0  0  0
  -29.5025  -12.5099   18.2230 C   0  0  0  0  0  0
  -28.0219  -12.3559   18.6301 C   0  0  0  0  0  0
  -27.6538  -13.2061   19.8750 C   0  0  2  0  0  0
  -28.6997  -13.0105   20.9999 C   0  0  0  0  0  0
  -25.2547  -13.8124   20.5737 C   0  0  0  0  0  0
  -24.1789  -13.0385   20.9121 C   0  0  0  0  0  0
  -24.6367  -11.6861   20.8698 C   0  0  0  0  0  0
  -23.9042  -10.4248   21.0387 C   0  0  0  0  0  0
  -24.3586   -9.4188   21.9186 C   0  0  0  0  0  0
  -23.6253   -8.2236   22.0773 C   0  0  0  0  0  0
  -22.4247   -8.0266   21.3544 C   0  0  0  0  0  0
  -21.9883   -9.0237   20.4646 C   0  0  0  0  0  0
  -22.7215  -10.2101   20.3050 C   0  0  0  0  0  0
  -21.6850   -6.0714   22.5263 C   0  0  0  0  0  0
  -21.4027   -6.5618   23.8198 C   0  0  0  0  0  0
  -21.3664   -5.6771   24.9158 C   0  0  0  0  0  0
  -21.6041   -4.3037   24.7221 C   0  0  0  0  0  0
  -21.8809   -3.8134   23.4347 C   0  0  0  0  0  0
  -21.9183   -4.6943   22.3399 C   0  0  0  0  0  0
  -22.7814  -13.5182   21.1785 C   0  0  0  0  0  0
  -22.1638   -4.2125   21.0975 F   0  0  0  0  0  0
  -21.5615   -3.4535   25.7749 F   0  0  0  0  0  0
  -30.0254  -13.3282   20.4413 N   0  0  0  0  0  0
  -26.2984  -12.9297   20.3396 N   0  0  0  0  0  0
  -25.9304  -11.6444   20.5759 N   0  0  0  0  0  0
  -22.0460  -12.8200   22.0354 N   0  0  0  0  0  0
  -25.4213  -15.1875   20.4374 N   0  0  0  0  0  0
  -31.7619  -14.7662   20.0758 O   0  0  0  0  0  0
  -21.6609   -6.8864   21.4237 O   0  0  0  0  0  0
  -22.3531  -14.5505   20.6649 O   0  0  0  0  0  0
  -24.6184  -31.8627   23.2055 C   0  0  0  0  0  0
  -25.9081  -32.4777   23.8336 C   0  0  1  0  0  0
  -27.2083  -27.3728   20.0670 C   0  0  0  0  0  0
  -25.5922  -33.8569   24.2286 N   0  0  0  0  0  0
  -23.4041  -30.4898   21.5496 C   0  0  2  0  0  0
  -24.8442  -28.9514   20.1061 C   0  0  0  0  0  0
  -22.7403  -29.4646   22.4970 C   0  0  0  0  0  0
  -18.0274  -28.1383   22.8498 C   0  0  0  0  0  0
  -24.1465  -36.7253   23.2614 C   0  0  0  0  0  0
  -25.9387  -30.8022   21.3668 C   0  0  0  0  0  0
  -26.0083  -29.4306   20.7179 C   0  0  0  0  0  0
  -27.1897  -28.6429   20.7078 C   0  0  0  0  0  0
  -26.0219  -26.9236   19.4504 C   0  0  0  0  0  0
  -24.8509  -27.7012   19.4703 C   0  0  0  0  0  0
  -23.6093  -29.8253   20.1628 C   0  0  0  0  0  0
  -25.4076  -36.3061   24.0327 C   0  0  1  0  0  0
  -20.5853  -28.3673   23.1308 C   0  0  2  0  0  0
  -20.6754  -26.9395   22.5429 C   0  0  0  0  0  0
  -19.5730  -26.6405   21.5214 C   0  0  0  0  0  0
  -18.1907  -26.7930   22.1622 C   0  0  0  0  0  0
  -19.1512  -28.8851   23.2913 C   0  0  0  0  0  0
  -18.9450  -30.1458   23.8945 C   0  0  0  0  0  0
  -17.6448  -30.6589   24.0587 C   0  0  0  0  0  0
  -25.9058  -34.9445   23.5117 C   0  0  0  0  0  0
  -16.5350  -29.9099   23.6327 C   0  0  0  0  0  0
  -16.7270  -28.6505   23.0379 C   0  0  0  0  0  0
  -26.4504  -31.6538   25.0658 C   0  0  0  0  0  0
  -25.3744  -31.3651   26.1398 C   0  0  0  0  0  0
  -27.0297  -30.2956   24.6008 C   0  0  0  0  0  0
  -27.6120  -32.4229   25.7400 C   0  0  0  0  0  0
  -27.5584  -37.1722   24.8424 C   0  0  0  0  0  0
  -21.4117  -29.3049   22.3718 N   0  0  0  0  0  0
  -26.4209  -37.3793   23.9501 N   0  0  0  0  0  0
  -24.6733  -31.0683   22.0991 N   0  0  0  0  0  0
  -23.4165  -28.8188   23.3018 O   0  0  0  0  0  0
  -28.3518  -26.5854   20.0760 O   0  0  0  0  0  0
  -26.5641  -34.8917   22.4685 O   0  0  0  0  0  0
  -23.5383  -32.1439   23.7431 O   0  0  0  0  0  0
  -28.2468  -18.9748   20.6728 C   0  0  0  0  0  0
  -30.4994  -17.6816   19.6090 C   0  0  0  0  0  0
  -29.1292  -19.7502   19.8786 C   0  0  0  0  0  0
  -29.6291  -16.9392   20.4467 C   0  0  0  0  0  0
  -28.4927  -17.6096   20.9482 C   0  0  0  0  0  0
  -30.2598  -19.0607   19.3341 C   0  0  0  0  0  0
  -28.7809  -23.1478   18.1754 C   0  0  0  0  0  0
  -28.4654  -23.4463   20.6394 C   0  0  0  0  0  0
  -28.5356  -21.6192   18.3437 C   0  0  0  0  0  0
  -28.1876  -21.9127   20.7199 C   0  0  0  0  0  0
  -28.1245  -24.0589   19.2611 C   0  0  0  0  0  0
  -28.5600  -25.5685   19.0535 C   0  0  0  0  0  0
  -28.9075  -21.1549   19.6837 N   0  0  0  0  0  0
  -29.7608  -15.5530   20.8319 N   0  0  0  0  0  0
  -27.6213  -16.9176   21.7200 F   0  0  0  0  0  0
  -31.4159  -19.9015   18.3587 Cl  0  0  0  0  0  0
  -31.4756  -12.4297   19.1548 H   0  0  0  0  0  0
  -30.3312  -11.3198   19.8601 H   0  0  0  0  0  0
  -29.7573  -11.7915   17.4447 H   0  0  0  0  0  0
  -29.6576  -13.4996   17.7878 H   0  0  0  0  0  0
  -27.8419  -11.2989   18.8373 H   0  0  0  0  0  0
  -27.3708  -12.6162   17.7942 H   0  0  0  0  0  0
  -27.6789  -14.2491   19.5592 H   0  0  0  0  0  0
  -28.6822  -11.9813   21.3587 H   0  0  0  0  0  0
  -28.4615  -13.6200   21.8739 H   0  0  0  0  0  0
  -25.2716   -9.5637   22.4776 H   0  0  0  0  0  0
  -23.9922   -7.4623   22.7535 H   0  0  0  0  0  0
  -21.0796   -8.8770   19.8963 H   0  0  0  0  0  0
  -22.3687  -10.9639   19.6166 H   0  0  0  0  0  0
  -21.2050   -7.6124   23.9707 H   0  0  0  0  0  0
  -21.1476   -6.0501   25.9052 H   0  0  0  0  0  0
  -22.0595   -2.7595   23.2861 H   0  0  0  0  0  0
  -22.4028  -11.9823   22.4706 H   0  0  0  0  0  0
  -21.1102  -13.1294   22.2564 H   0  0  0  0  0  0
  -24.6612  -15.8259   20.6423 H   0  0  0  0  0  0
  -26.3088  -15.6612   20.3332 H   0  0  0  0  0  0
  -26.7121  -32.5441   23.1064 H   0  0  0  0  0  0
  -25.0103  -33.9737   25.0457 H   0  0  0  0  0  0
  -22.6936  -31.3082   21.4129 H   0  0  0  0  0  0
  -23.3825  -35.9467   23.3061 H   0  0  0  0  0  0
  -24.3639  -36.9125   22.2084 H   0  0  0  0  0  0
  -23.7066  -37.6312   23.6798 H   0  0  0  0  0  0
  -26.0443  -31.5563   20.5845 H   0  0  0  0  0  0
  -26.8312  -30.8722   21.9750 H   0  0  0  0  0  0
  -28.0864  -29.0050   21.1911 H   0  0  0  0  0  0
  -25.9775  -25.9690   18.9489 H   0  0  0  0  0  0
  -23.9605  -27.3340   18.9830 H   0  0  0  0  0  0
  -23.7030  -30.6021   19.4022 H   0  0  0  0  0  0
  -22.7297  -29.2474   19.8718 H   0  0  0  0  0  0
  -25.1214  -36.1889   25.0798 H   0  0  0  0  0  0
  -20.9967  -28.3268   24.1421 H   0  0  0  0  0  0
  -20.5654  -26.2281   23.3629 H   0  0  0  0  0  0
  -21.6630  -26.7421   22.1224 H   0  0  0  0  0  0
  -19.6894  -25.6335   21.1204 H   0  0  0  0  0  0
  -19.6657  -27.3251   20.6763 H   0  0  0  0  0  0
  -17.4172  -26.6746   21.4031 H   0  0  0  0  0  0
  -18.0275  -26.0034   22.8975 H   0  0  0  0  0  0
  -19.7929  -30.7269   24.2337 H   0  0  0  0  0  0
  -17.4996  -31.6266   24.5190 H   0  0  0  0  0  0
  -15.5356  -30.3023   23.7606 H   0  0  0  0  0  0
  -15.8672  -28.0833   22.7098 H   0  0  0  0  0  0
  -24.6052  -30.6823   25.7771 H   0  0  0  0  0  0
  -24.8766  -32.2785   26.4650 H   0  0  0  0  0  0
  -25.8098  -30.9023   27.0260 H   0  0  0  0  0  0
  -26.2810  -29.6733   24.1092 H   0  0  0  0  0  0
  -27.4122  -29.7160   25.4422 H   0  0  0  0  0  0
  -27.8614  -30.4270   23.9083 H   0  0  0  0  0  0
  -27.2882  -33.3683   26.1744 H   0  0  0  0  0  0
  -28.4040  -32.6495   25.0254 H   0  0  0  0  0  0
  -28.0592  -31.8419   26.5479 H   0  0  0  0  0  0
  -28.2396  -38.0214   24.7796 H   0  0  0  0  0  0
  -28.1300  -36.2800   24.5825 H   0  0  0  0  0  0
  -27.2393  -37.0838   25.8823 H   0  0  0  0  0  0
  -20.9283  -29.8816   21.6975 H   0  0  0  0  0  0
  -26.0075  -38.2786   24.1782 H   0  0  0  0  0  0
  -27.3589  -19.4185   21.0976 H   0  0  0  0  0  0
  -31.3692  -17.2088   19.1783 H   0  0  0  0  0  0
  -28.4356  -23.4545   17.1861 H   0  0  0  0  0  0
  -29.8599  -23.3120   18.1761 H   0  0  0  0  0  0
  -29.5090  -23.6454   20.8820 H   0  0  0  0  0  0
  -27.8745  -23.9588   21.4023 H   0  0  0  0  0  0
  -29.0798  -21.0693   17.5742 H   0  0  0  0  0  0
  -27.4784  -21.4043   18.1758 H   0  0  0  0  0  0
  -27.1168  -21.7434   20.5867 H   0  0  0  0  0  0
  -28.4412  -21.5443   21.7145 H   0  0  0  0  0  0
  -27.0429  -23.9892   19.1376 H   0  0  0  0  0  0
  -28.1619  -25.9266   18.1009 H   0  0  0  0  0  0
  -29.6387  -25.5760   18.9017 H   0  0  0  0  0  0
  -28.9327  -15.1995   21.2841 H   0  0  0  0  0  0
  1 25  1  0  0  0
  1 30  2  0  0  0
  1 84  1  0  0  0
  2  3  1  0  0  0
  2 25  1  0  0  0
  2 87  1  0  0  0
  2 88  1  0  0  0
  3  4  1  0  0  0
  3 89  1  0  0  0
  3 90  1  0  0  0
  4  5  1  0  0  0
  4 91  1  0  0  0
  4 92  1  0  0  0
  5  6  1  0  0  0
  5 26  1  0  0  0
  5 93  1  0  0  0
  6 25  1  0  0  0
  6 94  1  0  0  0
  6 95  1  0  0  0
  7  8  2  0  0  0
  7 26  1  0  0  0
  7 29  1  0  0  0
  8  9  1  0  0  0
  8 22  1  0  0  0
  9 10  1  0  0  0
  9 27  2  0  0  0
 10 11  2  0  0  0
 10 15  1  0  0  0
 11 12  1  0  0  0
 11 96  1  0  0  0
 12 13  2  0  0  0
 12 97  1  0  0  0
 13 14  1  0  0  0
 13 31  1  0  0  0
 14 15  2  0  0  0
 14 98  1  0  0  0
 15 99  1  0  0  0
 16 17  2  0  0  0
 16 21  1  0  0  0
 16 31  1  0  0  0
 17 18  1  0  0  0
 17100  1  0  0  0
 18 19  2  0  0  0
 18101  1  0  0  0
 19 20  1  0  0  0
 19 24  1  0  0  0
 20 21  2  0  0  0
 20102  1  0  0  0
 21 23  1  0  0  0
 22 28  1  0  0  0
 22 32  2  0  0  0
 26 27  1  0  0  0
 28103  1  0  0  0
 28104  1  0  0  0
 29105  1  0  0  0
 29106  1  0  0  0
 33 34  1  0  0  0
 33 66  1  0  0  0
 33 70  2  0  0  0
 34 36  1  0  0  0
 34 59  1  0  0  0
 34107  1  0  0  0
 35 44  2  0  0  0
 35 45  1  0  0  0
 35 68  1  0  0  0
 36 56  1  0  0  0
 36108  1  0  0  0
 37 39  1  0  0  0
 37 47  1  0  0  0
 37 66  1  0  0  0
 37109  1  0  0  0
 38 43  2  0  0  0
 38 46  1  0  0  0
 38 47  1  0  0  0
 39 64  1  0  0  0
 39 67  2  0  0  0
 40 52  1  0  0  0
 40 53  2  0  0  0
 40 58  1  0  0  0
 41110  1  0  0  0
 41111  1  0  0  0
 41112  1  0  0  0
 41 48  1  0  0  0
 42 43  1  0  0  0
 42 66  1  0  0  0
 42113  1  0  0  0
 42114  1  0  0  0
 43 44  1  0  0  0
 44115  1  0  0  0
 45 46  2  0  0  0
 45116  1  0  0  0
 46117  1  0  0  0
 47118  1  0  0  0
 47119  1  0  0  0
 48 56  1  0  0  0
 48 65  1  0  0  0
 48120  1  0  0  0
 49 50  1  0  0  0
 49 53  1  0  0  0
 49 64  1  0  0  0
 49121  1  0  0  0
 50 51  1  0  0  0
 50122  1  0  0  0
 50123  1  0  0  0
 51 52  1  0  0  0
 51124  1  0  0  0
 51125  1  0  0  0
 52126  1  0  0  0
 52127  1  0  0  0
 53 54  1  0  0  0
 54 55  2  0  0  0
 54128  1  0  0  0
 55 57  1  0  0  0
 55129  1  0  0  0
 56 69  2  0  0  0
 57 58  2  0  0  0
 57130  1  0  0  0
 58131  1  0  0  0
 59 60  1  0  0  0
 59 61  1  0  0  0
 59 62  1  0  0  0
 60132  1  0  0  0
 60133  1  0  0  0
 60134  1  0  0  0
 61135  1  0  0  0
 61136  1  0  0  0
 61137  1  0  0  0
 62138  1  0  0  0
 62139  1  0  0  0
 62140  1  0  0  0
 63 65  1  0  0  0
 63141  1  0  0  0
 63142  1  0  0  0
 63143  1  0  0  0
 64144  1  0  0  0
 65145  1  0  0  0
 68 82  1  0  0  0
 71 73  2  0  0  0
 71 75  1  0  0  0
 71146  1  0  0  0
 72 74  1  0  0  0
 72 76  2  0  0  0
 72147  1  0  0  0
 73 76  1  0  0  0
 73 83  1  0  0  0
 74 75  2  0  0  0
 74 84  1  0  0  0
 75 85  1  0  0  0
 76 86  1  0  0  0
 77 79  1  0  0  0
 77 81  1  0  0  0
 77148  1  0  0  0
 77149  1  0  0  0
 78 80  1  0  0  0
 78 81  1  0  0  0
 78150  1  0  0  0
 78151  1  0  0  0
 79 83  1  0  0  0
 79152  1  0  0  0
 79153  1  0  0  0
 80 83  1  0  0  0
 80154  1  0  0  0
 80155  1  0  0  0
 81 82  1  0  0  0
 81156  1  0  0  0
 82157  1  0  0  0
 82158  1  0  0  0
 84159  1  0  0  0
M  ISO  4   1 100  68 101  82 101  84 100
M  END
> <chiral flag>
0

> <version>
0

> <s_m_source_file>
/data/baiqing/PycharmProjects/Reinvent-master-3.2/result/LINK_invent/BTK/process_docking_weight1_custom_product_contain_oxygen_bond_distance_aromatic_linkinvent_7_9_3/rearranged_h_0025.sdf

> <i_m_source_file_index>
44

> <r_mmod_Potential_Energy-OPLS-2005>
38.2433738708496

> <r_mmod_Stretch_Energy-OPLS-2005>
55.8408546447754

> <r_mmod_Bend_Energy-OPLS-2005>
142.384033203125

> <r_mmod_Torsional_Energy-OPLS-2005>
256.137176513672

> <r_mmod_Improper_Torsional_Energy-OPLS-2005>
8.31649684906006

> <r_mmod_Van_der_Waal_Energy-OPLS-2005>
152.727386474609

> <r_mmod_Electrostatic_Energy-OPLS-2005>
-396.325958251953

> <r_mmod_Solvation_Energy-OPLS-2005>
-210.599349975586

> <b_mmod_Minimization_Converged-OPLS-2005>
0

> <r_mmod_RMS_Derivative-OPLS-2005>
4.14679336547852

$$$$
44
                    3D
 Structure written by MMmdl.
166175  0  0  1  0            999 V2000
  -30.5679  -14.9365   20.4002 C   0  0  0  0  0  0
  -30.4306  -12.5771   19.5076 C   0  0  0  0  0  0
  -29.5199  -12.5211   18.2592 C   0  0  0  0  0  0
  -28.0523  -12.3134   18.6754 C   0  0  0  0  0  0
  -27.6262  -13.2512   19.8356 C   0  0  2  0  0  0
  -28.6663  -13.2929   20.9764 C   0  0  0  0  0  0
  -25.2440  -13.8221   20.5711 C   0  0  0  0  0  0
  -24.1765  -13.0441   20.9245 C   0  0  0  0  0  0
  -24.6387  -11.6927   20.8765 C   0  0  0  0  0  0
  -23.9077  -10.4293   21.0414 C   0  0  0  0  0  0
  -24.3627   -9.4205   21.9188 C   0  0  0  0  0  0
  -23.6299   -8.2241   22.0755 C   0  0  0  0  0  0
  -22.4280   -8.0283   21.3545 C   0  0  0  0  0  0
  -21.9916   -9.0260   20.4649 C   0  0  0  0  0  0
  -22.7249  -10.2137   20.3061 C   0  0  0  0  0  0
  -21.6854   -6.0738   22.5280 C   0  0  0  0  0  0
  -21.4017   -6.5642   23.8213 C   0  0  0  0  0  0
  -21.3658   -5.6794   24.9174 C   0  0  0  0  0  0
  -21.6042   -4.3057   24.7224 C   0  0  0  0  0  0
  -21.8819   -3.8150   23.4345 C   0  0  0  0  0  0
  -21.9191   -4.6966   22.3401 C   0  0  0  0  0  0
  -22.7784  -13.5212   21.1887 C   0  0  0  0  0  0
  -22.1659   -4.2152   21.0978 F   0  0  0  0  0  0
  -21.5623   -3.4540   25.7736 F   0  0  0  0  0  0
  -29.9455  -13.6885   20.3778 N   0  0  0  0  0  0
  -26.2861  -12.9462   20.3230 N   0  0  0  0  0  0
  -25.9319  -11.6592   20.5746 N   0  0  0  0  0  0
  -22.0422  -12.8209   22.0438 N   0  0  0  0  0  0
  -25.4093  -15.1948   20.4111 N   0  0  0  0  0  0
  -31.7768  -14.9548   20.1483 O   0  0  0  0  0  0
  -21.6642   -6.8882   21.4242 O   0  0  0  0  0  0
  -22.3476  -14.5513   20.6717 O   0  0  0  0  0  0
  -24.6439  -31.8442   23.1881 C   0  0  0  0  0  0
  -25.9211  -32.4694   23.8270 C   0  0  1  0  0  0
  -27.2124  -27.1337   20.1510 C   0  0  0  0  0  0
  -25.5956  -33.8501   24.2188 N   0  0  0  0  0  0
  -23.4469  -30.4644   21.5339 C   0  0  2  0  0  0
  -24.8950  -28.8913   20.1091 C   0  0  0  0  0  0
  -22.7570  -29.4550   22.4857 C   0  0  0  0  0  0
  -18.0305  -28.1397   22.8477 C   0  0  0  0  0  0
  -24.1491  -36.7256   23.2642 C   0  0  0  0  0  0
  -26.0033  -30.7174   21.3865 C   0  0  0  0  0  0
  -26.0732  -29.3286   20.7277 C   0  0  0  0  0  0
  -27.2332  -28.4664   20.7307 C   0  0  0  0  0  0
  -26.0084  -26.7993   19.4922 C   0  0  0  0  0  0
  -24.8756  -27.6402   19.4759 C   0  0  0  0  0  0
  -23.6729  -29.7950   20.1528 C   0  0  0  0  0  0
  -25.4122  -36.3033   24.0317 C   0  0  1  0  0  0
  -20.5919  -28.3727   23.1233 C   0  0  2  0  0  0
  -20.6792  -26.9430   22.5403 C   0  0  0  0  0  0
  -19.5764  -26.6382   21.5214 C   0  0  0  0  0  0
  -18.1945  -26.7934   22.1626 C   0  0  0  0  0  0
  -19.1563  -28.8880   23.2846 C   0  0  0  0  0  0
  -18.9480  -30.1473   23.8874 C   0  0  0  0  0  0
  -17.6477  -30.6593   24.0560 C   0  0  0  0  0  0
  -25.9073  -34.9407   23.5063 C   0  0  0  0  0  0
  -16.5368  -29.9088   23.6334 C   0  0  0  0  0  0
  -16.7290  -28.6506   23.0356 C   0  0  0  0  0  0
  -26.4530  -31.6565   25.0714 C   0  0  0  0  0  0
  -25.3713  -31.3758   26.1410 C   0  0  0  0  0  0
  -27.0399  -30.2961   24.6297 C   0  0  0  0  0  0
  -27.6052  -32.4337   25.7503 C   0  0  0  0  0  0
  -27.5575  -37.1784   24.8465 C   0  0  0  0  0  0
  -21.4262  -29.3050   22.3604 N   0  0  0  0  0  0
  -26.4284  -37.3747   23.9410 N   0  0  0  0  0  0
  -24.7180  -31.0299   22.0912 N   0  0  0  0  0  0
  -23.4213  -28.8095   23.3007 O   0  0  0  0  0  0
  -28.2597  -26.1431   20.2265 O   0  0  0  0  0  0
  -26.5660  -34.8907   22.4641 O   0  0  0  0  0  0
  -23.5560  -32.1316   23.7104 O   0  0  0  0  0  0
  -29.9922  -17.6284   19.9932 C   0  0  0  0  0  0
  -30.7787  -19.0814   18.0715 C   0  0  0  0  0  0
  -31.4379  -16.8001   18.0336 C   0  0  0  0  0  0
  -31.7285  -19.6710   15.7363 C   0  0  0  0  0  0
  -33.1791  -17.9095   16.4361 C   0  0  0  0  0  0
  -30.9218  -18.6817   16.5996 C   0  0  1  0  0  0
  -31.7454  -17.4115   16.6587 C   0  0  2  0  0  0
  -28.6113  -21.6624   20.2296 C   0  0  0  0  0  0
  -28.9801  -23.3089   20.3996 C   0  0  0  0  0  0
  -29.6774  -20.3987   20.5621 C   0  0  0  0  0  0
  -27.9691  -24.6187   20.0660 C   0  0  0  0  0  0
  -30.7319  -17.8210   18.8420 N   0  0  0  0  0  0
  -29.7928  -16.2873   20.5121 N   0  0  0  0  0  0
  -29.3752  -18.8162   20.5460 N   0  3  0  0  0  0
  -33.0453  -19.0433   15.5062 N   0  3  0  0  0  0
  -31.4688  -12.7126   19.1999 H   0  0  0  0  0  0
  -30.4063  -11.6288   20.0473 H   0  0  0  0  0  0
  -29.8388  -11.7172   17.5943 H   0  0  0  0  0  0
  -29.6143  -13.4461   17.6886 H   0  0  0  0  0  0
  -27.9480  -11.2739   18.9888 H   0  0  0  0  0  0
  -27.3900  -12.4400   17.8179 H   0  0  0  0  0  0
  -27.5857  -14.2503   19.4008 H   0  0  0  0  0  0
  -28.7464  -12.3229   21.4703 H   0  0  0  0  0  0
  -28.3657  -14.0073   21.7444 H   0  0  0  0  0  0
  -25.2769   -9.5681   22.4768 H   0  0  0  0  0  0
  -24.0004   -7.4633   22.7476 H   0  0  0  0  0  0
  -21.0843   -8.8788   19.8961 H   0  0  0  0  0  0
  -22.3705  -10.9681   19.6176 H   0  0  0  0  0  0
  -21.2016   -7.6151   23.9720 H   0  0  0  0  0  0
  -21.1476   -6.0521   25.9077 H   0  0  0  0  0  0
  -22.0598   -2.7613   23.2843 H   0  0  0  0  0  0
  -22.4041  -11.9885   22.4853 H   0  0  0  0  0  0
  -21.1035  -13.1234   22.2624 H   0  0  0  0  0  0
  -24.6300  -15.8374   20.5082 H   0  0  0  0  0  0
  -26.2296  -15.6303   20.0120 H   0  0  0  0  0  0
  -26.7275  -32.5301   23.0998 H   0  0  0  0  0  0
  -25.0082  -33.9612   25.0324 H   0  0  0  0  0  0
  -22.7494  -31.2906   21.3806 H   0  0  0  0  0  0
  -23.3759  -35.9581   23.3290 H   0  0  0  0  0  0
  -24.3573  -36.8904   22.2058 H   0  0  0  0  0  0
  -23.7241  -37.6446   23.6688 H   0  0  0  0  0  0
  -26.1597  -31.4716   20.6140 H   0  0  0  0  0  0
  -26.8735  -30.7667   22.0294 H   0  0  0  0  0  0
  -28.1301  -28.7958   21.2361 H   0  0  0  0  0  0
  -25.9066  -25.8435   19.0011 H   0  0  0  0  0  0
  -23.9762  -27.2999   18.9809 H   0  0  0  0  0  0
  -23.8125  -30.5705   19.3987 H   0  0  0  0  0  0
  -22.7868  -29.2401   19.8398 H   0  0  0  0  0  0
  -25.1309  -36.1859   25.0809 H   0  0  0  0  0  0
  -21.0011  -28.3321   24.1355 H   0  0  0  0  0  0
  -20.5690  -26.2344   23.3625 H   0  0  0  0  0  0
  -21.6658  -26.7437   22.1199 H   0  0  0  0  0  0
  -19.6925  -25.6286   21.1259 H   0  0  0  0  0  0
  -19.6696  -27.3180   20.6733 H   0  0  0  0  0  0
  -17.4213  -26.6677   21.4029 H   0  0  0  0  0  0
  -18.0343  -26.0081   22.9030 H   0  0  0  0  0  0
  -19.7956  -30.7293   24.2237 H   0  0  0  0  0  0
  -17.5032  -31.6269   24.5168 H   0  0  0  0  0  0
  -15.5368  -30.2987   23.7666 H   0  0  0  0  0  0
  -15.8690  -28.0816   22.7088 H   0  0  0  0  0  0
  -24.5891  -30.7108   25.7733 H   0  0  0  0  0  0
  -24.8907  -32.2946   26.4780 H   0  0  0  0  0  0
  -25.7996  -30.8966   27.0223 H   0  0  0  0  0  0
  -26.3021  -29.6678   24.1297 H   0  0  0  0  0  0
  -27.4008  -29.7265   25.4871 H   0  0  0  0  0  0
  -27.8929  -30.4201   23.9621 H   0  0  0  0  0  0
  -27.2634  -33.3655   26.2022 H   0  0  0  0  0  0
  -28.3893  -32.6873   25.0355 H   0  0  0  0  0  0
  -28.0688  -31.8505   26.5471 H   0  0  0  0  0  0
  -28.2583  -38.0089   24.7514 H   0  0  0  0  0  0
  -28.1081  -36.2618   24.6290 H   0  0  0  0  0  0
  -27.2291  -37.1427   25.8868 H   0  0  0  0  0  0
  -20.9476  -29.8769   21.6786 H   0  0  0  0  0  0
  -26.0151  -38.2815   24.1415 H   0  0  0  0  0  0
  -29.8669  -19.6675   18.1705 H   0  0  0  0  0  0
  -31.6293  -19.6748   18.4083 H   0  0  0  0  0  0
  -32.3708  -16.5012   18.5080 H   0  0  0  0  0  0
  -30.8023  -15.9262   17.8953 H   0  0  0  0  0  0
  -31.8431  -20.6379   16.2285 H   0  0  0  0  0  0
  -31.2415  -19.8518   14.7774 H   0  0  0  0  0  0
  -33.8391  -17.1349   16.0438 H   0  0  0  0  0  0
  -33.6129  -18.2736   17.3688 H   0  0  0  0  0  0
  -29.9353  -18.4986   16.1698 H   0  0  0  0  0  0
  -31.4559  -16.7373   15.8507 H   0  0  0  0  0  0
  -28.2879  -21.5274   19.1977 H   0  0  0  0  0  0
  -27.7126  -21.4781   20.8180 H   0  0  0  0  0  0
  -29.8832  -23.4748   19.8123 H   0  0  0  0  0  0
  -29.3020  -23.4380   21.4329 H   0  0  0  0  0  0
  -29.9757  -20.5713   21.5969 H   0  0  0  0  0  0
  -30.6030  -20.6008   20.0312 H   0  0  0  0  0  0
  -27.0580  -24.4343   20.6367 H   0  0  0  0  0  0
  -27.6791  -24.4921   19.0226 H   0  0  0  0  0  0
  -28.8949  -16.2387   20.9615 H   0  0  0  0  0  0
  -28.6919  -18.6068   21.2632 H   0  0  0  0  0  0
  -33.7994  -19.7028   15.6121 H   0  0  0  0  0  0
  -33.0709  -18.6926   14.5621 H   0  0  0  0  0  0
  1 25  1  0  0  0
  1 30  2  0  0  0
  1 83  1  0  0  0
  2  3  1  0  0  0
  2 25  1  0  0  0
  2 86  1  0  0  0
  2 87  1  0  0  0
  3  4  1  0  0  0
  3 88  1  0  0  0
  3 89  1  0  0  0
  4  5  1  0  0  0
  4 90  1  0  0  0
  4 91  1  0  0  0
  5  6  1  0  0  0
  5 26  1  0  0  0
  5 92  1  0  0  0
  6 25  1  0  0  0
  6 93  1  0  0  0
  6 94  1  0  0  0
  7  8  2  0  0  0
  7 26  1  0  0  0
  7 29  1  0  0  0
  8  9  1  0  0  0
  8 22  1  0  0  0
  9 10  1  0  0  0
  9 27  2  0  0  0
 10 11  2  0  0  0
 10 15  1  0  0  0
 11 12  1  0  0  0
 11 95  1  0  0  0
 12 13  2  0  0  0
 12 96  1  0  0  0
 13 14  1  0  0  0
 13 31  1  0  0  0
 14 15  2  0  0  0
 14 97  1  0  0  0
 15 98  1  0  0  0
 16 17  2  0  0  0
 16 21  1  0  0  0
 16 31  1  0  0  0
 17 18  1  0  0  0
 17 99  1  0  0  0
 18 19  2  0  0  0
 18100  1  0  0  0
 19 20  1  0  0  0
 19 24  1  0  0  0
 20 21  2  0  0  0
 20101  1  0  0  0
 21 23  1  0  0  0
 22 28  1  0  0  0
 22 32  2  0  0  0
 26 27  1  0  0  0
 28102  1  0  0  0
 28103  1  0  0  0
 29104  1  0  0  0
 29105  1  0  0  0
 33 34  1  0  0  0
 33 66  1  0  0  0
 33 70  2  0  0  0
 34 36  1  0  0  0
 34 59  1  0  0  0
 34106  1  0  0  0
 35 44  2  0  0  0
 35 45  1  0  0  0
 35 68  1  0  0  0
 36 56  1  0  0  0
 36107  1  0  0  0
 37 39  1  0  0  0
 37 47  1  0  0  0
 37 66  1  0  0  0
 37108  1  0  0  0
 38 43  2  0  0  0
 38 46  1  0  0  0
 38 47  1  0  0  0
 39 64  1  0  0  0
 39 67  2  0  0  0
 40 52  1  0  0  0
 40 53  2  0  0  0
 40 58  1  0  0  0
 41109  1  0  0  0
 41110  1  0  0  0
 41111  1  0  0  0
 41 48  1  0  0  0
 42 43  1  0  0  0
 42 66  1  0  0  0
 42112  1  0  0  0
 42113  1  0  0  0
 43 44  1  0  0  0
 44114  1  0  0  0
 45 46  2  0  0  0
 45115  1  0  0  0
 46116  1  0  0  0
 47117  1  0  0  0
 47118  1  0  0  0
 48 56  1  0  0  0
 48 65  1  0  0  0
 48119  1  0  0  0
 49 50  1  0  0  0
 49 53  1  0  0  0
 49 64  1  0  0  0
 49120  1  0  0  0
 50 51  1  0  0  0
 50121  1  0  0  0
 50122  1  0  0  0
 51 52  1  0  0  0
 51123  1  0  0  0
 51124  1  0  0  0
 52125  1  0  0  0
 52126  1  0  0  0
 53 54  1  0  0  0
 54 55  2  0  0  0
 54127  1  0  0  0
 55 57  1  0  0  0
 55128  1  0  0  0
 56 69  2  0  0  0
 57 58  2  0  0  0
 57129  1  0  0  0
 58130  1  0  0  0
 59 60  1  0  0  0
 59 61  1  0  0  0
 59 62  1  0  0  0
 60131  1  0  0  0
 60132  1  0  0  0
 60133  1  0  0  0
 61134  1  0  0  0
 61135  1  0  0  0
 61136  1  0  0  0
 62137  1  0  0  0
 62138  1  0  0  0
 62139  1  0  0  0
 63 65  1  0  0  0
 63140  1  0  0  0
 63141  1  0  0  0
 63142  1  0  0  0
 64143  1  0  0  0
 65144  1  0  0  0
 68 81  1  0  0  0
 71 82  1  0  0  0
 71 83  1  0  0  0
 71 84  2  0  0  0
 72 82  1  0  0  0
 72145  1  0  0  0
 72146  1  0  0  0
 72 76  1  0  0  0
 73 82  1  0  0  0
 73147  1  0  0  0
 73148  1  0  0  0
 73 77  1  0  0  0
 74 76  1  0  0  0
 74 85  1  0  0  0
 74149  1  0  0  0
 74150  1  0  0  0
 75 77  1  0  0  0
 75 85  1  0  0  0
 75151  1  0  0  0
 75152  1  0  0  0
 76 77  1  0  0  0
 76153  1  0  0  0
 77154  1  0  0  0
 78 79  1  0  0  0
 78 80  1  0  0  0
 78155  1  0  0  0
 78156  1  0  0  0
 79 81  1  0  0  0
 79157  1  0  0  0
 79158  1  0  0  0
 80 84  1  0  0  0
 80159  1  0  0  0
 80160  1  0  0  0
 81161  1  0  0  0
 81162  1  0  0  0
 83163  1  0  0  0
 84164  1  0  0  0
 85165  1  0  0  0
 85166  1  0  0  0
M  CHG  2  84   1  85   1
M  ISO  4   1 100  68 101  81 101  83 100
M  END
> <chiral flag>
0

> <version>
0

> <s_m_source_file>
/data/baiqing/PycharmProjects/Reinvent-master-3.2/result/LINK_invent/BTK/process_docking_weight1_custom_product_contain_oxygen_bond_distance_aromatic_linkinvent_7_9_3/rearranged_h_0025.sdf

> <i_m_source_file_index>
45

> <r_mmod_Potential_Energy-OPLS-2005>
505.428466796875

> <r_mmod_Stretch_Energy-OPLS-2005>
291.931396484375

> <r_mmod_Bend_Energy-OPLS-2005>
325.844573974609

> <r_mmod_Torsional_Energy-OPLS-2005>
400.126556396484

> <r_mmod_Improper_Torsional_Energy-OPLS-2005>
5.76252317428589

> <r_mmod_Van_der_Waal_Energy-OPLS-2005>
134.856094360352

> <r_mmod_Electrostatic_Energy-OPLS-2005>
82.9816741943359

> <r_mmod_Solvation_Energy-OPLS-2005>
-926.181701660156

> <b_mmod_Minimization_Converged-OPLS-2005>
0

> <r_mmod_RMS_Derivative-OPLS-2005>
0.632107198238373

$$$$
45
                    3D
 Structure written by MMmdl.
152160  0  0  1  0            999 V2000
  -30.6380  -14.6278   20.5102 C   0  0  0  0  0  0
  -30.4372  -12.3869   19.4540 C   0  0  0  0  0  0
  -29.5074  -12.5093   18.2262 C   0  0  0  0  0  0
  -28.0301  -12.3499   18.6375 C   0  0  0  0  0  0
  -27.6548  -13.2185   19.8678 C   0  0  2  0  0  0
  -28.7002  -13.0696   20.9970 C   0  0  0  0  0  0
  -25.2526  -13.8144   20.5630 C   0  0  0  0  0  0
  -24.1809  -13.0412   20.9162 C   0  0  0  0  0  0
  -24.6399  -11.6894   20.8741 C   0  0  0  0  0  0
  -23.9069  -10.4280   21.0407 C   0  0  0  0  0  0
  -24.3618   -9.4198   21.9187 C   0  0  0  0  0  0
  -23.6291   -8.2236   22.0756 C   0  0  0  0  0  0
  -22.4273   -8.0276   21.3545 C   0  0  0  0  0  0
  -21.9910   -9.0250   20.4647 C   0  0  0  0  0  0
  -22.7241  -10.2127   20.3056 C   0  0  0  0  0  0
  -21.6851   -6.0733   22.5279 C   0  0  0  0  0  0
  -21.4013   -6.5638   23.8212 C   0  0  0  0  0  0
  -21.3659   -5.6792   24.9175 C   0  0  0  0  0  0
  -21.6044   -4.3055   24.7226 C   0  0  0  0  0  0
  -21.8820   -3.8146   23.4347 C   0  0  0  0  0  0
  -21.9192   -4.6962   22.3403 C   0  0  0  0  0  0
  -22.7834  -13.5210   21.1837 C   0  0  0  0  0  0
  -22.1661   -4.2148   21.0980 F   0  0  0  0  0  0
  -21.5630   -3.4538   25.7738 F   0  0  0  0  0  0
  -30.0190  -13.4070   20.4362 N   0  0  0  0  0  0
  -26.2996  -12.9354   20.3348 N   0  0  0  0  0  0
  -25.9339  -11.6505   20.5790 N   0  0  0  0  0  0
  -22.0489  -12.8208   22.0409 N   0  0  0  0  0  0
  -25.4157  -15.1845   20.3962 N   0  0  0  0  0  0
  -31.7927  -14.7852   20.1046 O   0  0  0  0  0  0
  -21.6636   -6.8876   21.4241 O   0  0  0  0  0  0
  -22.3510  -14.5518   20.6695 O   0  0  0  0  0  0
  -24.6257  -31.8611   23.2040 C   0  0  0  0  0  0
  -25.9108  -32.4786   23.8364 C   0  0  1  0  0  0
  -27.2252  -27.3289   20.1112 C   0  0  0  0  0  0
  -25.5928  -33.8586   24.2291 N   0  0  0  0  0  0
  -23.4185  -30.4861   21.5469 C   0  0  2  0  0  0
  -24.8641  -28.9451   20.1119 C   0  0  0  0  0  0
  -22.7472  -29.4632   22.4943 C   0  0  0  0  0  0
  -18.0287  -28.1382   22.8486 C   0  0  0  0  0  0
  -24.1489  -36.7297   23.2639 C   0  0  0  0  0  0
  -25.9596  -30.7955   21.3733 C   0  0  0  0  0  0
  -26.0343  -29.4245   20.7140 C   0  0  0  0  0  0
  -27.2180  -28.6290   20.7030 C   0  0  0  0  0  0
  -26.0274  -26.9019   19.4886 C   0  0  0  0  0  0
  -24.8623  -27.6885   19.4911 C   0  0  0  0  0  0
  -23.6321  -29.8239   20.1614 C   0  0  0  0  0  0
  -25.4113  -36.3088   24.0331 C   0  0  1  0  0  0
  -20.5887  -28.3688   23.1284 C   0  0  2  0  0  0
  -20.6776  -26.9412   22.5407 C   0  0  0  0  0  0
  -19.5752  -26.6385   21.5209 C   0  0  0  0  0  0
  -18.1932  -26.7926   22.1623 C   0  0  0  0  0  0
  -19.1539  -28.8851   23.2881 C   0  0  0  0  0  0
  -18.9462  -30.1453   23.8898 C   0  0  0  0  0  0
  -17.6462  -30.6586   24.0562 C   0  0  0  0  0  0
  -25.9050  -34.9456   23.5110 C   0  0  0  0  0  0
  -16.5353  -29.9085   23.6329 C   0  0  0  0  0  0
  -16.7274  -28.6502   23.0350 C   0  0  0  0  0  0
  -26.4496  -31.6589   25.0728 C   0  0  0  0  0  0
  -25.3732  -31.3718   26.1456 C   0  0  0  0  0  0
  -27.0337  -30.3016   24.6167 C   0  0  0  0  0  0
  -27.6059  -32.4319   25.7498 C   0  0  0  0  0  0
  -27.5580  -37.1805   24.8466 C   0  0  0  0  0  0
  -21.4187  -29.3045   22.3682 N   0  0  0  0  0  0
  -26.4293  -37.3781   23.9408 N   0  0  0  0  0  0
  -24.6869  -31.0634   22.0985 N   0  0  0  0  0  0
  -23.4201  -28.8167   23.3015 O   0  0  0  0  0  0
  -28.3468  -26.4840   20.1570 O   0  0  0  0  0  0
  -26.5616  -34.8921   22.4675 O   0  0  0  0  0  0
  -23.5422  -32.1403   23.7374 O   0  0  0  0  0  0
  -31.0402  -17.8223   20.1646 C   0  0  0  0  0  0
  -28.8684  -19.3583   21.0604 C   0  0  0  0  0  0
  -29.9528  -17.1265   20.7560 C   0  0  0  0  0  0
  -29.9559  -20.0544   20.4760 C   0  0  0  0  0  0
  -28.8742  -17.9389   21.2082 C   0  0  0  0  0  0
  -31.0441  -19.2434   20.0356 C   0  0  0  0  0  0
  -29.2773  -23.9931   20.3314 C   0  0  0  0  0  0
  -28.8871  -22.4456   20.3283 C   0  0  0  0  0  0
  -28.1070  -25.0274   20.0541 C   0  0  0  0  0  0
  -29.8548  -15.6723   20.9170 N   0  0  0  0  0  0
  -30.0279  -21.4845   20.3484 N   0  0  0  0  0  0
  -27.5224  -17.1907   21.9803 Cl  0  0  0  0  0  0
  -32.4261  -19.9945   19.3153 Cl  0  0  0  0  0  0
  -31.4791  -12.5063   19.1515 H   0  0  0  0  0  0
  -30.3673  -11.3904   19.8927 H   0  0  0  0  0  0
  -29.7694  -11.7594   17.4787 H   0  0  0  0  0  0
  -29.6525  -13.4799   17.7491 H   0  0  0  0  0  0
  -27.8645  -11.2965   18.8661 H   0  0  0  0  0  0
  -27.3761  -12.5838   17.7967 H   0  0  0  0  0  0
  -27.6738  -14.2553   19.5312 H   0  0  0  0  0  0
  -28.7081  -12.0476   21.3786 H   0  0  0  0  0  0
  -28.4458  -13.7008   21.8498 H   0  0  0  0  0  0
  -25.2764   -9.5674   22.4760 H   0  0  0  0  0  0
  -23.9998   -7.4627   22.7476 H   0  0  0  0  0  0
  -21.0841   -8.8771   19.8953 H   0  0  0  0  0  0
  -22.3703  -10.9666   19.6164 H   0  0  0  0  0  0
  -21.2004   -7.6147   23.9715 H   0  0  0  0  0  0
  -21.1480   -6.0522   25.9077 H   0  0  0  0  0  0
  -22.0600   -2.7608   23.2847 H   0  0  0  0  0  0
  -22.4111  -11.9870   22.4793 H   0  0  0  0  0  0
  -21.1113  -13.1239   22.2630 H   0  0  0  0  0  0
  -24.6553  -15.8384   20.5424 H   0  0  0  0  0  0
  -26.2854  -15.6408   20.1552 H   0  0  0  0  0  0
  -26.7177  -32.5460   23.1115 H   0  0  0  0  0  0
  -25.0078  -33.9732   25.0438 H   0  0  0  0  0  0
  -22.7118  -31.3066   21.4059 H   0  0  0  0  0  0
  -23.3751  -35.9631   23.3306 H   0  0  0  0  0  0
  -24.3581  -36.8911   22.2053 H   0  0  0  0  0  0
  -23.7244  -37.6501   23.6656 H   0  0  0  0  0  0
  -26.0895  -31.5603   20.6062 H   0  0  0  0  0  0
  -26.8408  -30.8435   22.0014 H   0  0  0  0  0  0
  -28.1159  -28.9935   21.1823 H   0  0  0  0  0  0
  -25.9545  -25.9444   18.9971 H   0  0  0  0  0  0
  -23.9655  -27.3148   19.0162 H   0  0  0  0  0  0
  -23.7509  -30.6016   19.4062 H   0  0  0  0  0  0
  -22.7521  -29.2536   19.8586 H   0  0  0  0  0  0
  -25.1292  -36.1945   25.0824 H   0  0  0  0  0  0
  -20.9979  -28.3261   24.1404 H   0  0  0  0  0  0
  -20.5679  -26.2297   23.3606 H   0  0  0  0  0  0
  -21.6645  -26.7444   22.1199 H   0  0  0  0  0  0
  -19.6914  -25.6297   21.1236 H   0  0  0  0  0  0
  -19.6687  -27.3198   20.6741 H   0  0  0  0  0  0
  -17.4200  -26.6671   21.4027 H   0  0  0  0  0  0
  -18.0335  -26.0067   22.9020 H   0  0  0  0  0  0
  -19.7939  -30.7267   24.2268 H   0  0  0  0  0  0
  -17.5018  -31.6266   24.5165 H   0  0  0  0  0  0
  -15.5354  -30.2988   23.7652 H   0  0  0  0  0  0
  -15.8673  -28.0822   22.7064 H   0  0  0  0  0  0
  -24.5913  -30.7059   25.7786 H   0  0  0  0  0  0
  -24.8915  -32.2879   26.4882 H   0  0  0  0  0  0
  -25.8062  -30.8898   27.0230 H   0  0  0  0  0  0
  -26.2907  -29.6769   24.1196 H   0  0  0  0  0  0
  -27.4051  -29.7267   25.4660 H   0  0  0  0  0  0
  -27.8769  -30.4311   23.9377 H   0  0  0  0  0  0
  -27.2674  -33.3619   26.2076 H   0  0  0  0  0  0
  -28.3869  -32.6877   25.0325 H   0  0  0  0  0  0
  -28.0727  -31.8441   26.5411 H   0  0  0  0  0  0
  -28.2601  -38.0098   24.7508 H   0  0  0  0  0  0
  -28.1071  -36.2629   24.6299 H   0  0  0  0  0  0
  -27.2296  -37.1462   25.8869 H   0  0  0  0  0  0
  -20.9362  -29.8776   21.6901 H   0  0  0  0  0  0
  -26.0176  -38.2857   24.1405 H   0  0  0  0  0  0
  -31.8977  -17.2788   19.7998 H   0  0  0  0  0  0
  -28.0171  -19.9092   21.4295 H   0  0  0  0  0  0
  -30.0529  -24.1651   19.5846 H   0  0  0  0  0  0
  -29.7321  -24.2337   21.2927 H   0  0  0  0  0  0
  -28.2950  -22.2354   19.4360 H   0  0  0  0  0  0
  -28.2331  -22.2449   21.1781 H   0  0  0  0  0  0
  -27.7574  -24.8131   19.0441 H   0  0  0  0  0  0
  -27.2866  -24.7748   20.7280 H   0  0  0  0  0  0
  -28.9667  -15.3737   21.2925 H   0  0  0  0  0  0
  -30.8910  -21.8166   19.9228 H   0  0  0  0  0  0
  1 25  1  0  0  0
  1 30  2  0  0  0
  1 80  1  0  0  0
  2  3  1  0  0  0
  2 25  1  0  0  0
  2 84  1  0  0  0
  2 85  1  0  0  0
  3  4  1  0  0  0
  3 86  1  0  0  0
  3 87  1  0  0  0
  4  5  1  0  0  0
  4 88  1  0  0  0
  4 89  1  0  0  0
  5  6  1  0  0  0
  5 26  1  0  0  0
  5 90  1  0  0  0
  6 25  1  0  0  0
  6 91  1  0  0  0
  6 92  1  0  0  0
  7  8  2  0  0  0
  7 26  1  0  0  0
  7 29  1  0  0  0
  8  9  1  0  0  0
  8 22  1  0  0  0
  9 10  1  0  0  0
  9 27  2  0  0  0
 10 11  2  0  0  0
 10 15  1  0  0  0
 11 12  1  0  0  0
 11 93  1  0  0  0
 12 13  2  0  0  0
 12 94  1  0  0  0
 13 14  1  0  0  0
 13 31  1  0  0  0
 14 15  2  0  0  0
 14 95  1  0  0  0
 15 96  1  0  0  0
 16 17  2  0  0  0
 16 21  1  0  0  0
 16 31  1  0  0  0
 17 18  1  0  0  0
 17 97  1  0  0  0
 18 19  2  0  0  0
 18 98  1  0  0  0
 19 20  1  0  0  0
 19 24  1  0  0  0
 20 21  2  0  0  0
 20 99  1  0  0  0
 21 23  1  0  0  0
 22 28  1  0  0  0
 22 32  2  0  0  0
 26 27  1  0  0  0
 28100  1  0  0  0
 28101  1  0  0  0
 29102  1  0  0  0
 29103  1  0  0  0
 33 34  1  0  0  0
 33 66  1  0  0  0
 33 70  2  0  0  0
 34 36  1  0  0  0
 34 59  1  0  0  0
 34104  1  0  0  0
 35 44  2  0  0  0
 35 45  1  0  0  0
 35 68  1  0  0  0
 36 56  1  0  0  0
 36105  1  0  0  0
 37 39  1  0  0  0
 37 47  1  0  0  0
 37 66  1  0  0  0
 37106  1  0  0  0
 38 43  2  0  0  0
 38 46  1  0  0  0
 38 47  1  0  0  0
 39 64  1  0  0  0
 39 67  2  0  0  0
 40 52  1  0  0  0
 40 53  2  0  0  0
 40 58  1  0  0  0
 41107  1  0  0  0
 41108  1  0  0  0
 41109  1  0  0  0
 41 48  1  0  0  0
 42 43  1  0  0  0
 42 66  1  0  0  0
 42110  1  0  0  0
 42111  1  0  0  0
 43 44  1  0  0  0
 44112  1  0  0  0
 45 46  2  0  0  0
 45113  1  0  0  0
 46114  1  0  0  0
 47115  1  0  0  0
 47116  1  0  0  0
 48 56  1  0  0  0
 48 65  1  0  0  0
 48117  1  0  0  0
 49 50  1  0  0  0
 49 53  1  0  0  0
 49 64  1  0  0  0
 49118  1  0  0  0
 50 51  1  0  0  0
 50119  1  0  0  0
 50120  1  0  0  0
 51 52  1  0  0  0
 51121  1  0  0  0
 51122  1  0  0  0
 52123  1  0  0  0
 52124  1  0  0  0
 53 54  1  0  0  0
 54 55  2  0  0  0
 54125  1  0  0  0
 55 57  1  0  0  0
 55126  1  0  0  0
 56 69  2  0  0  0
 57 58  2  0  0  0
 57127  1  0  0  0
 58128  1  0  0  0
 59 60  1  0  0  0
 59 61  1  0  0  0
 59 62  1  0  0  0
 60129  1  0  0  0
 60130  1  0  0  0
 60131  1  0  0  0
 61132  1  0  0  0
 61133  1  0  0  0
 61134  1  0  0  0
 62135  1  0  0  0
 62136  1  0  0  0
 62137  1  0  0  0
 63 65  1  0  0  0
 63138  1  0  0  0
 63139  1  0  0  0
 63140  1  0  0  0
 64141  1  0  0  0
 65142  1  0  0  0
 68 79  1  0  0  0
 71 73  2  0  0  0
 71 76  1  0  0  0
 71143  1  0  0  0
 72 74  1  0  0  0
 72 75  2  0  0  0
 72144  1  0  0  0
 73 75  1  0  0  0
 73 80  1  0  0  0
 74 76  2  0  0  0
 74 81  1  0  0  0
 75 82  1  0  0  0
 76 83  1  0  0  0
 77 78  1  0  0  0
 77 79  1  0  0  0
 77145  1  0  0  0
 77146  1  0  0  0
 78 81  1  0  0  0
 78147  1  0  0  0
 78148  1  0  0  0
 79149  1  0  0  0
 79150  1  0  0  0
 80151  1  0  0  0
 81152  1  0  0  0
M  ISO  4   1 100  68 101  79 101  80 100
M  END
> <chiral flag>
0

> <version>
0

> <s_m_source_file>
/data/baiqing/PycharmProjects/Reinvent-master-3.2/result/LINK_invent/BTK/process_docking_weight1_custom_product_contain_oxygen_bond_distance_aromatic_linkinvent_7_9_3/rearranged_h_0025.sdf

> <i_m_source_file_index>
46

> <r_mmod_Potential_Energy-OPLS-2005>
30.0563697814941

> <r_mmod_Stretch_Energy-OPLS-2005>
74.5470123291016

> <r_mmod_Bend_Energy-OPLS-2005>
143.231781005859

> <r_mmod_Torsional_Energy-OPLS-2005>
201.566787719727

> <r_mmod_Improper_Torsional_Energy-OPLS-2005>
4.67950773239136

> <r_mmod_Van_der_Waal_Energy-OPLS-2005>
145.471252441406

> <r_mmod_Electrostatic_Energy-OPLS-2005>
-374.126190185547

> <r_mmod_Solvation_Energy-OPLS-2005>
-209.408950805664

> <b_mmod_Minimization_Converged-OPLS-2005>
0

> <r_mmod_RMS_Derivative-OPLS-2005>
0.1581791639328

$$$$
46
                    3D
 Structure written by MMmdl.
155164  0  0  1  0            999 V2000
  -30.5284  -14.9149   20.4500 C   0  0  0  0  0  0
  -30.4553  -12.5652   19.4975 C   0  0  0  0  0  0
  -29.5263  -12.5305   18.2590 C   0  0  0  0  0  0
  -28.0582  -12.3167   18.6764 C   0  0  0  0  0  0
  -27.6407  -13.2385   19.8512 C   0  0  2  0  0  0
  -28.6854  -13.2234   20.9899 C   0  0  0  0  0  0
  -25.2492  -13.8172   20.5677 C   0  0  0  0  0  0
  -24.1798  -13.0421   20.9211 C   0  0  0  0  0  0
  -24.6407  -11.6903   20.8749 C   0  0  0  0  0  0
  -23.9080  -10.4279   21.0409 C   0  0  0  0  0  0
  -24.3623   -9.4196   21.9192 C   0  0  0  0  0  0
  -23.6291   -8.2238   22.0758 C   0  0  0  0  0  0
  -22.4273   -8.0277   21.3545 C   0  0  0  0  0  0
  -21.9914   -9.0253   20.4648 C   0  0  0  0  0  0
  -22.7249  -10.2129   20.3060 C   0  0  0  0  0  0
  -21.6855   -6.0735   22.5275 C   0  0  0  0  0  0
  -21.4014   -6.5638   23.8208 C   0  0  0  0  0  0
  -21.3658   -5.6790   24.9169 C   0  0  0  0  0  0
  -21.6043   -4.3053   24.7220 C   0  0  0  0  0  0
  -21.8821   -3.8145   23.4342 C   0  0  0  0  0  0
  -21.9192   -4.6960   22.3397 C   0  0  0  0  0  0
  -22.7818  -13.5204   21.1863 C   0  0  0  0  0  0
  -22.1661   -4.2146   21.0977 F   0  0  0  0  0  0
  -21.5627   -3.4539   25.7735 F   0  0  0  0  0  0
  -29.9727  -13.6380   20.4099 N   0  0  0  0  0  0
  -26.2940  -12.9404   20.3289 N   0  0  0  0  0  0
  -25.9347  -11.6541   20.5773 N   0  0  0  0  0  0
  -22.0467  -12.8201   22.0430 N   0  0  0  0  0  0
  -25.4127  -15.1886   20.4012 N   0  0  0  0  0  0
  -31.7077  -15.0484   20.1037 O   0  0  0  0  0  0
  -21.6636   -6.8878   21.4240 O   0  0  0  0  0  0
  -22.3497  -14.5512   20.6713 O   0  0  0  0  0  0
  -24.6421  -31.8448   23.1902 C   0  0  0  0  0  0
  -25.9195  -32.4702   23.8281 C   0  0  1  0  0  0
  -27.2177  -27.1342   20.1595 C   0  0  0  0  0  0
  -25.5954  -33.8512   24.2204 N   0  0  0  0  0  0
  -23.4461  -30.4648   21.5351 C   0  0  2  0  0  0
  -24.8966  -28.8932   20.1162 C   0  0  0  0  0  0
  -22.7566  -29.4550   22.4865 C   0  0  0  0  0  0
  -18.0300  -28.1389   22.8471 C   0  0  0  0  0  0
  -24.1486  -36.7247   23.2647 C   0  0  0  0  0  0
  -26.0025  -30.7169   21.3928 C   0  0  0  0  0  0
  -26.0727  -29.3262   20.7414 C   0  0  0  0  0  0
  -27.2332  -28.4628   20.7487 C   0  0  0  0  0  0
  -26.0251  -26.8249   19.4694 C   0  0  0  0  0  0
  -24.8867  -27.6555   19.4626 C   0  0  0  0  0  0
  -23.6737  -29.7954   20.1549 C   0  0  0  0  0  0
  -25.4118  -36.3033   24.0325 C   0  0  1  0  0  0
  -20.5915  -28.3708   23.1232 C   0  0  2  0  0  0
  -20.6784  -26.9416   22.5398 C   0  0  0  0  0  0
  -19.5764  -26.6375   21.5203 C   0  0  0  0  0  0
  -18.1942  -26.7923   22.1615 C   0  0  0  0  0  0
  -19.1559  -28.8865   23.2843 C   0  0  0  0  0  0
  -18.9484  -30.1465   23.8869 C   0  0  0  0  0  0
  -17.6485  -30.6587   24.0559 C   0  0  0  0  0  0
  -25.9071  -34.9411   23.5069 C   0  0  0  0  0  0
  -16.5373  -29.9083   23.6345 C   0  0  0  0  0  0
  -16.7287  -28.6502   23.0357 C   0  0  0  0  0  0
  -26.4524  -31.6570   25.0715 C   0  0  0  0  0  0
  -25.3711  -31.3754   26.1413 C   0  0  0  0  0  0
  -27.0393  -30.2974   24.6277 C   0  0  0  0  0  0
  -27.6064  -32.4329   25.7495 C   0  0  0  0  0  0
  -27.5571  -37.1785   24.8475 C   0  0  0  0  0  0
  -21.4254  -29.3047   22.3617 N   0  0  0  0  0  0
  -26.4279  -37.3748   23.9418 N   0  0  0  0  0  0
  -24.7166  -31.0305   22.0941 N   0  0  0  0  0  0
  -23.4215  -28.8087   23.3001 O   0  0  0  0  0  0
  -28.2861  -26.1608   20.1838 O   0  0  0  0  0  0
  -26.5652  -34.8909   22.4644 O   0  0  0  0  0  0
  -23.5540  -32.1330   23.7116 O   0  0  0  0  0  0
  -30.1599  -19.9163   19.8834 C   0  0  0  0  0  0
  -30.4215  -18.4745   19.9554 C   0  0  0  0  0  0
  -28.3018  -19.6427   21.2993 C   0  0  0  0  0  0
  -28.5660  -18.2219   21.4004 C   0  0  0  0  0  0
  -29.0515  -20.5835   20.5234 C   0  0  0  0  0  0
  -29.6175  -17.5353   20.6978 C   0  0  0  0  0  0
  -27.3302  -22.3283   19.8737 C   0  0  0  0  0  0
  -27.0390  -23.8356   19.6782 C   0  0  0  0  0  0
  -29.2133  -23.4298   20.5036 C   0  0  0  0  0  0
  -28.0818  -24.6340   20.4815 C   0  0  1  0  0  0
  -27.6407  -17.4294   22.3101 C   0  0  0  0  0  0
  -28.5674  -22.0375   20.3383 N   0  0  0  0  0  0
  -29.6784  -16.0024   20.7548 N   0  0  0  0  0  0
  -26.4668  -21.4899   19.5943 O   0  0  0  0  0  0
  -31.4865  -12.7350   19.1838 H   0  0  0  0  0  0
  -30.4568  -11.6011   20.0096 H   0  0  0  0  0  0
  -29.8386  -11.7417   17.5737 H   0  0  0  0  0  0
  -29.6152  -13.4677   17.7081 H   0  0  0  0  0  0
  -27.9502  -11.2723   18.9736 H   0  0  0  0  0  0
  -27.3938  -12.4594   17.8234 H   0  0  0  0  0  0
  -27.6173  -14.2486   19.4419 H   0  0  0  0  0  0
  -28.7619  -12.2304   21.4351 H   0  0  0  0  0  0
  -28.3862  -13.8940   21.7970 H   0  0  0  0  0  0
  -25.2769   -9.5673   22.4764 H   0  0  0  0  0  0
  -23.9995   -7.4632   22.7486 H   0  0  0  0  0  0
  -21.0842   -8.8779   19.8954 H   0  0  0  0  0  0
  -22.3714  -10.9670   19.6166 H   0  0  0  0  0  0
  -21.2009   -7.6146   23.9713 H   0  0  0  0  0  0
  -21.1476   -6.0518   25.9073 H   0  0  0  0  0  0
  -22.0600   -2.7606   23.2842 H   0  0  0  0  0  0
  -22.4079  -11.9855   22.4808 H   0  0  0  0  0  0
  -21.1090  -13.1235   22.2651 H   0  0  0  0  0  0
  -24.6383  -15.8346   20.5067 H   0  0  0  0  0  0
  -26.2456  -15.6282   20.0333 H   0  0  0  0  0  0
  -26.7258  -32.5310   23.1006 H   0  0  0  0  0  0
  -25.0108  -33.9634   25.0358 H   0  0  0  0  0  0
  -22.7482  -31.2903   21.3807 H   0  0  0  0  0  0
  -23.3756  -35.9574   23.3309 H   0  0  0  0  0  0
  -24.3569  -36.8864   22.2064 H   0  0  0  0  0  0
  -23.7234  -37.6445   23.6671 H   0  0  0  0  0  0
  -26.1562  -31.4647   20.6142 H   0  0  0  0  0  0
  -26.8757  -30.7708   22.0315 H   0  0  0  0  0  0
  -28.1276  -28.7932   21.2571 H   0  0  0  0  0  0
  -25.9391  -25.9169   18.9017 H   0  0  0  0  0  0
  -24.0000  -27.3298   18.9364 H   0  0  0  0  0  0
  -23.8132  -30.5705   19.4003 H   0  0  0  0  0  0
  -22.7895  -29.2366   19.8411 H   0  0  0  0  0  0
  -25.1301  -36.1865   25.0814 H   0  0  0  0  0  0
  -21.0002  -28.3286   24.1358 H   0  0  0  0  0  0
  -20.5669  -26.2325   23.3610 H   0  0  0  0  0  0
  -21.6649  -26.7410   22.1199 H   0  0  0  0  0  0
  -19.6931  -25.6284   21.1244 H   0  0  0  0  0  0
  -19.6704  -27.3176   20.6721 H   0  0  0  0  0  0
  -17.4211  -26.6666   21.4020 H   0  0  0  0  0  0
  -18.0347  -26.0065   22.9012 H   0  0  0  0  0  0
  -19.7968  -30.7279   24.2224 H   0  0  0  0  0  0
  -17.5048  -31.6263   24.5159 H   0  0  0  0  0  0
  -15.5379  -30.2983   23.7681 H   0  0  0  0  0  0
  -15.8683  -28.0815   22.7094 H   0  0  0  0  0  0
  -24.5907  -30.7077   25.7739 H   0  0  0  0  0  0
  -24.8881  -32.2933   26.4776 H   0  0  0  0  0  0
  -25.7993  -30.8980   27.0235 H   0  0  0  0  0  0
  -26.3001  -29.6705   24.1275 H   0  0  0  0  0  0
  -27.4027  -29.7259   25.4828 H   0  0  0  0  0  0
  -27.8894  -30.4240   23.9570 H   0  0  0  0  0  0
  -27.2674  -33.3675   26.1983 H   0  0  0  0  0  0
  -28.3917  -32.6812   25.0342 H   0  0  0  0  0  0
  -28.0674  -31.8504   26.5486 H   0  0  0  0  0  0
  -28.2583  -38.0088   24.7507 H   0  0  0  0  0  0
  -28.1066  -36.2613   24.6301 H   0  0  0  0  0  0
  -27.2288  -37.1424   25.8879 H   0  0  0  0  0  0
  -20.9467  -29.8784   21.6816 H   0  0  0  0  0  0
  -26.0144  -38.2812   24.1433 H   0  0  0  0  0  0
  -30.8101  -20.5109   19.2565 H   0  0  0  0  0  0
  -31.2520  -18.0860   19.3830 H   0  0  0  0  0  0
  -27.4451  -20.0253   21.8363 H   0  0  0  0  0  0
  -26.0224  -24.0470   20.0093 H   0  0  0  0  0  0
  -27.1212  -24.0511   18.6138 H   0  0  0  0  0  0
  -29.7964  -23.4649   21.4245 H   0  0  0  0  0  0
  -29.9127  -23.5700   19.6792 H   0  0  0  0  0  0
  -27.6939  -24.6586   21.5012 H   0  0  0  0  0  0
  -27.2892  -18.0487   23.1351 H   0  0  0  0  0  0
  -28.1363  -16.5684   22.7583 H   0  0  0  0  0  0
  -26.7697  -17.0854   21.7570 H   0  0  0  0  0  0
  -28.8062  -15.6233   21.0884 H   0  0  0  0  0  0
  1 25  1  0  0  0
  1 30  2  0  0  0
  1 83  1  0  0  0
  2  3  1  0  0  0
  2 25  1  0  0  0
  2 85  1  0  0  0
  2 86  1  0  0  0
  3  4  1  0  0  0
  3 87  1  0  0  0
  3 88  1  0  0  0
  4  5  1  0  0  0
  4 89  1  0  0  0
  4 90  1  0  0  0
  5  6  1  0  0  0
  5 26  1  0  0  0
  5 91  1  0  0  0
  6 25  1  0  0  0
  6 92  1  0  0  0
  6 93  1  0  0  0
  7  8  2  0  0  0
  7 26  1  0  0  0
  7 29  1  0  0  0
  8  9  1  0  0  0
  8 22  1  0  0  0
  9 10  1  0  0  0
  9 27  2  0  0  0
 10 11  2  0  0  0
 10 15  1  0  0  0
 11 12  1  0  0  0
 11 94  1  0  0  0
 12 13  2  0  0  0
 12 95  1  0  0  0
 13 14  1  0  0  0
 13 31  1  0  0  0
 14 15  2  0  0  0
 14 96  1  0  0  0
 15 97  1  0  0  0
 16 17  2  0  0  0
 16 21  1  0  0  0
 16 31  1  0  0  0
 17 18  1  0  0  0
 17 98  1  0  0  0
 18 19  2  0  0  0
 18 99  1  0  0  0
 19 20  1  0  0  0
 19 24  1  0  0  0
 20 21  2  0  0  0
 20100  1  0  0  0
 21 23  1  0  0  0
 22 28  1  0  0  0
 22 32  2  0  0  0
 26 27  1  0  0  0
 28101  1  0  0  0
 28102  1  0  0  0
 29103  1  0  0  0
 29104  1  0  0  0
 33 34  1  0  0  0
 33 66  1  0  0  0
 33 70  2  0  0  0
 34 36  1  0  0  0
 34 59  1  0  0  0
 34105  1  0  0  0
 35 44  2  0  0  0
 35 45  1  0  0  0
 35 68  1  0  0  0
 36 56  1  0  0  0
 36106  1  0  0  0
 37 39  1  0  0  0
 37 47  1  0  0  0
 37 66  1  0  0  0
 37107  1  0  0  0
 38 43  2  0  0  0
 38 46  1  0  0  0
 38 47  1  0  0  0
 39 64  1  0  0  0
 39 67  2  0  0  0
 40 52  1  0  0  0
 40 53  2  0  0  0
 40 58  1  0  0  0
 41108  1  0  0  0
 41109  1  0  0  0
 41110  1  0  0  0
 41 48  1  0  0  0
 42 43  1  0  0  0
 42 66  1  0  0  0
 42111  1  0  0  0
 42112  1  0  0  0
 43 44  1  0  0  0
 44113  1  0  0  0
 45 46  2  0  0  0
 45114  1  0  0  0
 46115  1  0  0  0
 47116  1  0  0  0
 47117  1  0  0  0
 48 56  1  0  0  0
 48 65  1  0  0  0
 48118  1  0  0  0
 49 50  1  0  0  0
 49 53  1  0  0  0
 49 64  1  0  0  0
 49119  1  0  0  0
 50 51  1  0  0  0
 50120  1  0  0  0
 50121  1  0  0  0
 51 52  1  0  0  0
 51122  1  0  0  0
 51123  1  0  0  0
 52124  1  0  0  0
 52125  1  0  0  0
 53 54  1  0  0  0
 54 55  2  0  0  0
 54126  1  0  0  0
 55 57  1  0  0  0
 55127  1  0  0  0
 56 69  2  0  0  0
 57 58  2  0  0  0
 57128  1  0  0  0
 58129  1  0  0  0
 59 60  1  0  0  0
 59 61  1  0  0  0
 59 62  1  0  0  0
 60130  1  0  0  0
 60131  1  0  0  0
 60132  1  0  0  0
 61133  1  0  0  0
 61134  1  0  0  0
 61135  1  0  0  0
 62136  1  0  0  0
 62137  1  0  0  0
 62138  1  0  0  0
 63 65  1  0  0  0
 63139  1  0  0  0
 63140  1  0  0  0
 63141  1  0  0  0
 64142  1  0  0  0
 65143  1  0  0  0
 68 80  1  0  0  0
 71 72  2  0  0  0
 71 75  1  0  0  0
 71144  1  0  0  0
 72 76  1  0  0  0
 72145  1  0  0  0
 73 74  1  0  0  0
 73 75  2  0  0  0
 73146  1  0  0  0
 74 76  2  0  0  0
 74 81  1  0  0  0
 75 82  1  0  0  0
 76 83  1  0  0  0
 77 78  1  0  0  0
 77 82  1  0  0  0
 77 84  2  0  0  0
 78 80  1  0  0  0
 78147  1  0  0  0
 78148  1  0  0  0
 79 80  1  0  0  0
 79 82  1  0  0  0
 79149  1  0  0  0
 79150  1  0  0  0
 80151  1  0  0  0
 81152  1  0  0  0
 81153  1  0  0  0
 81154  1  0  0  0
 83155  1  0  0  0
M  ISO  4   1 100  68 101  80 101  83 100
M  END
> <chiral flag>
0

> <version>
0

> <s_m_source_file>
/data/baiqing/PycharmProjects/Reinvent-master-3.2/result/LINK_invent/BTK/process_docking_weight1_custom_product_contain_oxygen_bond_distance_aromatic_linkinvent_7_9_3/rearranged_h_0025.sdf

> <i_m_source_file_index>
47

> <r_mmod_Potential_Energy-OPLS-2005>
512.842163085938

> <r_mmod_Stretch_Energy-OPLS-2005>
220.88655090332

> <r_mmod_Bend_Energy-OPLS-2005>
301.493530273438

> <r_mmod_Torsional_Energy-OPLS-2005>
288.87744140625

> <r_mmod_Improper_Torsional_Energy-OPLS-2005>
4.01838874816895

> <r_mmod_Van_der_Waal_Energy-OPLS-2005>
131.96337890625

> <r_mmod_Electrostatic_Energy-OPLS-2005>
-389.085113525391

> <r_mmod_Solvation_Energy-OPLS-2005>
-222.154067993164

> <b_mmod_Minimization_Converged-OPLS-2005>
0

> <r_mmod_RMS_Derivative-OPLS-2005>
1.47068321704865

$$$$
47
                    3D
 Structure written by MMmdl.
158167  0  0  1  0            999 V2000
  -30.5964  -14.7671   20.4533 C   0  0  0  0  0  0
  -30.4271  -12.4626   19.4972 C   0  0  0  0  0  0
  -29.5172  -12.4955   18.2495 C   0  0  0  0  0  0
  -28.0396  -12.3188   18.6602 C   0  0  0  0  0  0
  -27.6354  -13.2351   19.8452 C   0  0  2  0  0  0
  -28.6710  -13.1941   20.9880 C   0  0  0  0  0  0
  -25.2444  -13.8235   20.5744 C   0  0  0  0  0  0
  -24.1720  -13.0455   20.9221 C   0  0  0  0  0  0
  -24.6325  -11.6942   20.8737 C   0  0  0  0  0  0
  -23.9041  -10.4291   21.0415 C   0  0  0  0  0  0
  -24.3585   -9.4211   21.9201 C   0  0  0  0  0  0
  -23.6259   -8.2248   22.0761 C   0  0  0  0  0  0
  -22.4240   -8.0290   21.3557 C   0  0  0  0  0  0
  -21.9870   -9.0261   20.4670 C   0  0  0  0  0  0
  -22.7214  -10.2132   20.3083 C   0  0  0  0  0  0
  -21.6834   -6.0740   22.5278 C   0  0  0  0  0  0
  -21.4025   -6.5635   23.8220 C   0  0  0  0  0  0
  -21.3649   -5.6781   24.9162 C   0  0  0  0  0  0
  -21.6026   -4.3044   24.7219 C   0  0  0  0  0  0
  -21.8821   -3.8154   23.4348 C   0  0  0  0  0  0
  -21.9193   -4.6975   22.3402 C   0  0  0  0  0  0
  -22.7747  -13.5254   21.1912 C   0  0  0  0  0  0
  -22.1686   -4.2165   21.0987 F   0  0  0  0  0  0
  -21.5572   -3.4521   25.7727 F   0  0  0  0  0  0
  -29.9740  -13.5394   20.4124 N   0  0  0  0  0  0
  -26.2852  -12.9432   20.3239 N   0  0  0  0  0  0
  -25.9262  -11.6584   20.5753 N   0  0  0  0  0  0
  -22.0407  -12.8227   22.0472 N   0  0  0  0  0  0
  -25.4187  -15.1964   20.4272 N   0  0  0  0  0  0
  -31.7955  -14.8207   20.1549 O   0  0  0  0  0  0
  -21.6617   -6.8889   21.4240 O   0  0  0  0  0  0
  -22.3441  -14.5586   20.6816 O   0  0  0  0  0  0
  -24.6275  -31.8588   23.1953 C   0  0  0  0  0  0
  -25.9117  -32.4773   23.8294 C   0  0  1  0  0  0
  -27.2251  -27.2814   20.1564 C   0  0  0  0  0  0
  -25.5927  -33.8570   24.2249 N   0  0  0  0  0  0
  -23.4247  -30.4752   21.5402 C   0  0  2  0  0  0
  -24.8727  -28.9139   20.1192 C   0  0  0  0  0  0
  -22.7490  -29.4626   22.4939 C   0  0  0  0  0  0
  -18.0297  -28.1365   22.8474 C   0  0  0  0  0  0
  -24.1485  -36.7279   23.2633 C   0  0  0  0  0  0
  -25.9641  -30.7801   21.3660 C   0  0  0  0  0  0
  -26.0419  -29.3995   20.7195 C   0  0  0  0  0  0
  -27.2247  -28.5985   20.7185 C   0  0  0  0  0  0
  -26.0377  -26.8442   19.5375 C   0  0  0  0  0  0
  -24.8759  -27.6438   19.5131 C   0  0  0  0  0  0
  -23.6415  -29.7975   20.1584 C   0  0  0  0  0  0
  -25.4108  -36.3070   24.0324 C   0  0  1  0  0  0
  -20.5893  -28.3709   23.1304 C   0  0  2  0  0  0
  -20.6822  -26.9427   22.5450 C   0  0  0  0  0  0
  -19.5818  -26.6385   21.5236 C   0  0  0  0  0  0
  -18.1973  -26.7907   22.1606 C   0  0  0  0  0  0
  -19.1539  -28.8850   23.2883 C   0  0  0  0  0  0
  -18.9440  -30.1443   23.8909 C   0  0  0  0  0  0
  -17.6439  -30.6571   24.0557 C   0  0  0  0  0  0
  -25.9059  -34.9443   23.5092 C   0  0  0  0  0  0
  -16.5355  -29.9047   23.6305 C   0  0  0  0  0  0
  -16.7269  -28.6465   23.0326 C   0  0  0  0  0  0
  -26.4475  -31.6583   25.0685 C   0  0  0  0  0  0
  -25.3704  -31.3768   26.1428 C   0  0  0  0  0  0
  -27.0313  -30.2998   24.6160 C   0  0  0  0  0  0
  -27.6035  -32.4312   25.7473 C   0  0  0  0  0  0
  -27.5572  -37.1790   24.8460 C   0  0  0  0  0  0
  -21.4196  -29.3086   22.3706 N   0  0  0  0  0  0
  -26.4278  -37.3767   23.9410 N   0  0  0  0  0  0
  -24.6923  -31.0550   22.0923 N   0  0  0  0  0  0
  -23.4217  -28.8156   23.3015 O   0  0  0  0  0  0
  -28.3376  -26.4260   20.1395 O   0  0  0  0  0  0
  -26.5628  -34.8926   22.4663 O   0  0  0  0  0  0
  -23.5433  -32.1400   23.7269 O   0  0  0  0  0  0
  -30.6828  -20.0398   19.3954 C   0  0  0  0  0  0
  -31.1644  -17.6459   19.4225 C   0  0  0  0  0  0
  -29.2665  -18.5194   20.6783 C   0  0  0  0  0  0
  -29.5405  -19.8962   20.2139 C   0  0  0  0  0  0
  -30.0740  -17.3563   20.2771 C   0  0  0  0  0  0
  -31.4752  -18.9493   19.0104 C   0  0  0  0  0  0
  -27.4456  -21.3448   20.5206 C   0  0  0  0  0  0
  -27.0281  -22.8118   20.7373 C   0  0  0  0  0  0
  -29.3599  -22.5820   20.4599 C   0  0  0  0  0  0
  -28.2100  -23.6647   20.2451 C   0  0  2  0  0  0
  -28.1370  -18.2676   21.6662 C   0  0  0  0  0  0
  -28.3064  -25.1449   20.9040 C   0  0  0  0  0  0
  -28.7873  -21.1745   20.4711 N   0  0  0  0  0  0
  -29.8274  -15.9211   20.6551 N   0  0  0  0  0  0
  -26.5928  -20.4638   20.3894 O   0  0  0  0  0  0
  -32.5548  -19.1564   18.2156 F   0  0  0  0  0  0
  -31.4726  -12.5704   19.2088 H   0  0  0  0  0  0
  -30.3631  -11.4959   19.9964 H   0  0  0  0  0  0
  -29.8109  -11.7105   17.5500 H   0  0  0  0  0  0
  -29.6530  -13.4405   17.7196 H   0  0  0  0  0  0
  -27.8973  -11.2721   18.9434 H   0  0  0  0  0  0
  -27.3832  -12.4949   17.8086 H   0  0  0  0  0  0
  -27.6263  -14.2500   19.4434 H   0  0  0  0  0  0
  -28.7015  -12.2053   21.4456 H   0  0  0  0  0  0
  -28.3968  -13.8905   21.7827 H   0  0  0  0  0  0
  -25.2730   -9.5643   22.4780 H   0  0  0  0  0  0
  -23.9968   -7.4591   22.7431 H   0  0  0  0  0  0
  -21.0837   -8.8770   19.8949 H   0  0  0  0  0  0
  -22.3699  -10.9655   19.6173 H   0  0  0  0  0  0
  -21.2071   -7.6144   23.9743 H   0  0  0  0  0  0
  -21.1446   -6.0503   25.9066 H   0  0  0  0  0  0
  -22.0624   -2.7634   23.2842 H   0  0  0  0  0  0
  -22.4014  -11.9891   22.4868 H   0  0  0  0  0  0
  -21.1030  -13.1222   22.2764 H   0  0  0  0  0  0
  -24.6597  -15.8586   20.5550 H   0  0  0  0  0  0
  -26.2706  -15.6366   20.1034 H   0  0  0  0  0  0
  -26.7202  -32.5431   23.1045 H   0  0  0  0  0  0
  -25.0054  -33.9692   25.0382 H   0  0  0  0  0  0
  -22.7201  -31.2951   21.3925 H   0  0  0  0  0  0
  -23.3735  -35.9615   23.3276 H   0  0  0  0  0  0
  -24.3579  -36.8936   22.2053 H   0  0  0  0  0  0
  -23.7240  -37.6482   23.6663 H   0  0  0  0  0  0
  -26.0847  -31.5367   20.5884 H   0  0  0  0  0  0
  -26.8474  -30.8421   21.9918 H   0  0  0  0  0  0
  -28.1275  -28.9739   21.1812 H   0  0  0  0  0  0
  -26.0077  -25.8634   19.0845 H   0  0  0  0  0  0
  -23.9796  -27.2626   19.0437 H   0  0  0  0  0  0
  -23.7621  -30.5711   19.3982 H   0  0  0  0  0  0
  -22.7608  -29.2258   19.8603 H   0  0  0  0  0  0
  -25.1272  -36.1906   25.0809 H   0  0  0  0  0  0
  -20.9971  -28.3302   24.1428 H   0  0  0  0  0  0
  -20.5697  -26.2320   23.3660 H   0  0  0  0  0  0
  -21.6689  -26.7476   22.1251 H   0  0  0  0  0  0
  -19.7017  -25.6305   21.1247 H   0  0  0  0  0  0
  -19.6747  -27.3197   20.6781 H   0  0  0  0  0  0
  -17.4253  -26.6645   21.4006 H   0  0  0  0  0  0
  -18.0352  -26.0050   22.9005 H   0  0  0  0  0  0
  -19.7907  -30.7262   24.2307 H   0  0  0  0  0  0
  -17.4966  -31.6243   24.5178 H   0  0  0  0  0  0
  -15.5343  -30.2927   23.7598 H   0  0  0  0  0  0
  -15.8684  -28.0761   22.7020 H   0  0  0  0  0  0
  -24.5857  -30.7133   25.7758 H   0  0  0  0  0  0
  -24.8920  -32.2975   26.4782 H   0  0  0  0  0  0
  -25.8025  -30.9000   27.0236 H   0  0  0  0  0  0
  -26.2913  -29.6761   24.1150 H   0  0  0  0  0  0
  -27.3958  -29.7225   25.4656 H   0  0  0  0  0  0
  -27.8779  -30.4229   23.9408 H   0  0  0  0  0  0
  -27.2633  -33.3598   26.2033 H   0  0  0  0  0  0
  -28.3859  -32.6899   25.0336 H   0  0  0  0  0  0
  -28.0671  -31.8462   26.5419 H   0  0  0  0  0  0
  -28.2579  -38.0096   24.7504 H   0  0  0  0  0  0
  -28.1086  -36.2635   24.6265 H   0  0  0  0  0  0
  -27.2309  -37.1417   25.8871 H   0  0  0  0  0  0
  -20.9367  -29.8852   21.6958 H   0  0  0  0  0  0
  -26.0157  -38.2834   24.1431 H   0  0  0  0  0  0
  -30.9852  -20.9972   19.0046 H   0  0  0  0  0  0
  -31.8088  -16.8745   19.0431 H   0  0  0  0  0  0
  -26.8624  -22.9582   21.8059 H   0  0  0  0  0  0
  -26.1007  -23.0453   20.2146 H   0  0  0  0  0  0
  -29.8629  -22.7512   21.4127 H   0  0  0  0  0  0
  -30.1128  -22.7353   19.6876 H   0  0  0  0  0  0
  -28.0814  -23.8036   19.1707 H   0  0  0  0  0  0
  -27.9328  -19.1528   22.2690 H   0  0  0  0  0  0
  -28.4025  -17.4775   22.3674 H   0  0  0  0  0  0
  -27.2190  -17.9830   21.1501 H   0  0  0  0  0  0
  -29.2350  -25.1610   21.4738 H   0  0  0  0  0  0
  -27.5422  -25.2357   21.6759 H   0  0  0  0  0  0
  -28.9071  -15.7313   21.0200 H   0  0  0  0  0  0
  1 25  1  0  0  0
  1 30  2  0  0  0
  1 84  1  0  0  0
  2  3  1  0  0  0
  2 25  1  0  0  0
  2 87  1  0  0  0
  2 88  1  0  0  0
  3  4  1  0  0  0
  3 89  1  0  0  0
  3 90  1  0  0  0
  4  5  1  0  0  0
  4 91  1  0  0  0
  4 92  1  0  0  0
  5  6  1  0  0  0
  5 26  1  0  0  0
  5 93  1  0  0  0
  6 25  1  0  0  0
  6 94  1  0  0  0
  6 95  1  0  0  0
  7  8  2  0  0  0
  7 26  1  0  0  0
  7 29  1  0  0  0
  8  9  1  0  0  0
  8 22  1  0  0  0
  9 10  1  0  0  0
  9 27  2  0  0  0
 10 11  2  0  0  0
 10 15  1  0  0  0
 11 12  1  0  0  0
 11 96  1  0  0  0
 12 13  2  0  0  0
 12 97  1  0  0  0
 13 14  1  0  0  0
 13 31  1  0  0  0
 14 15  2  0  0  0
 14 98  1  0  0  0
 15 99  1  0  0  0
 16 17  2  0  0  0
 16 21  1  0  0  0
 16 31  1  0  0  0
 17 18  1  0  0  0
 17100  1  0  0  0
 18 19  2  0  0  0
 18101  1  0  0  0
 19 20  1  0  0  0
 19 24  1  0  0  0
 20 21  2  0  0  0
 20102  1  0  0  0
 21 23  1  0  0  0
 22 28  1  0  0  0
 22 32  2  0  0  0
 26 27  1  0  0  0
 28103  1  0  0  0
 28104  1  0  0  0
 29105  1  0  0  0
 29106  1  0  0  0
 33 34  1  0  0  0
 33 66  1  0  0  0
 33 70  2  0  0  0
 34 36  1  0  0  0
 34 59  1  0  0  0
 34107  1  0  0  0
 35 44  2  0  0  0
 35 45  1  0  0  0
 35 68  1  0  0  0
 36 56  1  0  0  0
 36108  1  0  0  0
 37 39  1  0  0  0
 37 47  1  0  0  0
 37 66  1  0  0  0
 37109  1  0  0  0
 38 43  2  0  0  0
 38 46  1  0  0  0
 38 47  1  0  0  0
 39 64  1  0  0  0
 39 67  2  0  0  0
 40 52  1  0  0  0
 40 53  2  0  0  0
 40 58  1  0  0  0
 41110  1  0  0  0
 41111  1  0  0  0
 41112  1  0  0  0
 41 48  1  0  0  0
 42 43  1  0  0  0
 42 66  1  0  0  0
 42113  1  0  0  0
 42114  1  0  0  0
 43 44  1  0  0  0
 44115  1  0  0  0
 45 46  2  0  0  0
 45116  1  0  0  0
 46117  1  0  0  0
 47118  1  0  0  0
 47119  1  0  0  0
 48 56  1  0  0  0
 48 65  1  0  0  0
 48120  1  0  0  0
 49 50  1  0  0  0
 49 53  1  0  0  0
 49 64  1  0  0  0
 49121  1  0  0  0
 50 51  1  0  0  0
 50122  1  0  0  0
 50123  1  0  0  0
 51 52  1  0  0  0
 51124  1  0  0  0
 51125  1  0  0  0
 52126  1  0  0  0
 52127  1  0  0  0
 53 54  1  0  0  0
 54 55  2  0  0  0
 54128  1  0  0  0
 55 57  1  0  0  0
 55129  1  0  0  0
 56 69  2  0  0  0
 57 58  2  0  0  0
 57130  1  0  0  0
 58131  1  0  0  0
 59 60  1  0  0  0
 59 61  1  0  0  0
 59 62  1  0  0  0
 60132  1  0  0  0
 60133  1  0  0  0
 60134  1  0  0  0
 61135  1  0  0  0
 61136  1  0  0  0
 61137  1  0  0  0
 62138  1  0  0  0
 62139  1  0  0  0
 62140  1  0  0  0
 63 65  1  0  0  0
 63141  1  0  0  0
 63142  1  0  0  0
 63143  1  0  0  0
 64144  1  0  0  0
 65145  1  0  0  0
 68 82  1  0  0  0
 71 74  2  0  0  0
 71 76  1  0  0  0
 71146  1  0  0  0
 72 75  1  0  0  0
 72 76  2  0  0  0
 72147  1  0  0  0
 73 74  1  0  0  0
 73 75  2  0  0  0
 73 81  1  0  0  0
 74 83  1  0  0  0
 75 84  1  0  0  0
 76 86  1  0  0  0
 77 78  1  0  0  0
 77 83  1  0  0  0
 77 85  2  0  0  0
 78 80  1  0  0  0
 78148  1  0  0  0
 78149  1  0  0  0
 79 80  1  0  0  0
 79 83  1  0  0  0
 79150  1  0  0  0
 79151  1  0  0  0
 80 82  1  0  0  0
 80152  1  0  0  0
 81153  1  0  0  0
 81154  1  0  0  0
 81155  1  0  0  0
 82156  1  0  0  0
 82157  1  0  0  0
 84158  1  0  0  0
M  ISO  4   1 100  68 101  82 101  84 100
M  END
> <chiral flag>
0

> <version>
0

> <s_m_source_file>
/data/baiqing/PycharmProjects/Reinvent-master-3.2/result/LINK_invent/BTK/process_docking_weight1_custom_product_contain_oxygen_bond_distance_aromatic_linkinvent_7_9_3/rearranged_h_0025.sdf

> <i_m_source_file_index>
48

> <r_mmod_Potential_Energy-OPLS-2005>
281.78369140625

> <r_mmod_Stretch_Energy-OPLS-2005>
135.029403686523

> <r_mmod_Bend_Energy-OPLS-2005>
206.507293701172

> <r_mmod_Torsional_Energy-OPLS-2005>
304.129302978516

> <r_mmod_Improper_Torsional_Energy-OPLS-2005>
4.31087064743042

> <r_mmod_Van_der_Waal_Energy-OPLS-2005>
139.926391601562

> <r_mmod_Electrostatic_Energy-OPLS-2005>
-378.288055419922

> <r_mmod_Solvation_Energy-OPLS-2005>
-213.925109863281

> <b_mmod_Minimization_Converged-OPLS-2005>
0

> <r_mmod_RMS_Derivative-OPLS-2005>
4.98250865936279

$$$$
48
                    3D
 Structure written by MMmdl.
155164  0  0  1  0            999 V2000
  -30.5376  -14.9110   20.4152 C   0  0  0  0  0  0
  -30.4461  -12.5565   19.4948 C   0  0  0  0  0  0
  -29.5256  -12.5427   18.2510 C   0  0  0  0  0  0
  -28.0531  -12.3379   18.6589 C   0  0  0  0  0  0
  -27.6391  -13.2454   19.8470 C   0  0  2  0  0  0
  -28.6846  -13.2295   20.9851 C   0  0  0  0  0  0
  -25.2492  -13.8212   20.5688 C   0  0  0  0  0  0
  -24.1798  -13.0446   20.9221 C   0  0  0  0  0  0
  -24.6399  -11.6928   20.8732 C   0  0  0  0  0  0
  -23.9085  -10.4293   21.0391 C   0  0  0  0  0  0
  -24.3632   -9.4215   21.9176 C   0  0  0  0  0  0
  -23.6306   -8.2249   22.0738 C   0  0  0  0  0  0
  -22.4288   -8.0280   21.3527 C   0  0  0  0  0  0
  -21.9922   -9.0260   20.4632 C   0  0  0  0  0  0
  -22.7247  -10.2140   20.3047 C   0  0  0  0  0  0
  -21.6860   -6.0735   22.5280 C   0  0  0  0  0  0
  -21.4012   -6.5633   23.8208 C   0  0  0  0  0  0
  -21.3671   -5.6785   24.9175 C   0  0  0  0  0  0
  -21.6046   -4.3052   24.7218 C   0  0  0  0  0  0
  -21.8823   -3.8141   23.4338 C   0  0  0  0  0  0
  -21.9191   -4.6963   22.3400 C   0  0  0  0  0  0
  -22.7815  -13.5227   21.1874 C   0  0  0  0  0  0
  -22.1661   -4.2157   21.0973 F   0  0  0  0  0  0
  -21.5643   -3.4530   25.7727 F   0  0  0  0  0  0
  -29.9711  -13.6379   20.4025 N   0  0  0  0  0  0
  -26.2934  -12.9443   20.3264 N   0  0  0  0  0  0
  -25.9349  -11.6573   20.5740 N   0  0  0  0  0  0
  -22.0458  -12.8210   22.0424 N   0  0  0  0  0  0
  -25.4167  -15.1932   20.4062 N   0  0  0  0  0  0
  -31.7184  -15.0187   20.0666 O   0  0  0  0  0  0
  -21.6640   -6.8881   21.4235 O   0  0  0  0  0  0
  -22.3502  -14.5522   20.6704 O   0  0  0  0  0  0
  -24.6440  -31.8445   23.1896 C   0  0  0  0  0  0
  -25.9215  -32.4689   23.8291 C   0  0  1  0  0  0
  -27.2265  -27.1500   20.1323 C   0  0  0  0  0  0
  -25.5977  -33.8502   24.2205 N   0  0  0  0  0  0
  -23.4468  -30.4634   21.5334 C   0  0  2  0  0  0
  -24.8985  -28.8928   20.1095 C   0  0  0  0  0  0
  -22.7562  -29.4559   22.4869 C   0  0  0  0  0  0
  -18.0295  -28.1398   22.8476 C   0  0  0  0  0  0
  -24.1499  -36.7243   23.2638 C   0  0  0  0  0  0
  -26.0027  -30.7208   21.3884 C   0  0  0  0  0  0
  -26.0758  -29.3337   20.7272 C   0  0  0  0  0  0
  -27.2396  -28.4759   20.7250 C   0  0  0  0  0  0
  -26.0251  -26.8142   19.4698 C   0  0  0  0  0  0
  -24.8854  -27.6452   19.4676 C   0  0  0  0  0  0
  -23.6733  -29.7910   20.1537 C   0  0  0  0  0  0
  -25.4127  -36.3021   24.0314 C   0  0  1  0  0  0
  -20.5911  -28.3733   23.1241 C   0  0  2  0  0  0
  -20.6789  -26.9436   22.5407 C   0  0  0  0  0  0
  -19.5768  -26.6383   21.5216 C   0  0  0  0  0  0
  -18.1942  -26.7939   22.1615 C   0  0  0  0  0  0
  -19.1552  -28.8886   23.2846 C   0  0  0  0  0  0
  -18.9468  -30.1481   23.8878 C   0  0  0  0  0  0
  -17.6462  -30.6591   24.0567 C   0  0  0  0  0  0
  -25.9085  -34.9400   23.5059 C   0  0  0  0  0  0
  -16.5351  -29.9086   23.6343 C   0  0  0  0  0  0
  -16.7277  -28.6507   23.0360 C   0  0  0  0  0  0
  -26.4535  -31.6561   25.0733 C   0  0  0  0  0  0
  -25.3721  -31.3760   26.1428 C   0  0  0  0  0  0
  -27.0377  -30.2946   24.6322 C   0  0  0  0  0  0
  -27.6088  -32.4313   25.7497 C   0  0  0  0  0  0
  -27.5582  -37.1767   24.8438 C   0  0  0  0  0  0
  -21.4255  -29.3064   22.3614 N   0  0  0  0  0  0
  -26.4268  -37.3751   23.9417 N   0  0  0  0  0  0
  -24.7170  -31.0306   22.0924 N   0  0  0  0  0  0
  -23.4195  -28.8102   23.3025 O   0  0  0  0  0  0
  -28.2913  -26.1786   20.2002 O   0  0  0  0  0  0
  -26.5659  -34.8900   22.4631 O   0  0  0  0  0  0
  -23.5553  -32.1326   23.7107 O   0  0  0  0  0  0
  -29.3861  -19.6218   19.0282 C   0  0  0  0  0  0
  -29.6239  -18.1979   19.1986 C   0  0  0  0  0  0
  -29.6486  -18.5228   21.5159 C   0  0  0  0  0  0
  -29.4406  -19.9647   21.3617 C   0  0  0  0  0  0
  -29.2287  -20.6134   20.0780 C   0  0  0  0  0  0
  -29.7494  -17.5492   20.4644 C   0  0  0  0  0  0
  -28.4586  -22.6182   18.5980 C   0  0  0  0  0  0
  -28.2846  -24.1635   18.5386 C   0  0  0  0  0  0
  -28.8669  -23.3913   20.6733 C   0  0  0  0  0  0
  -28.0789  -24.6491   19.9758 C   0  0  1  0  0  0
  -29.4333  -20.7861   22.6495 C   0  0  0  0  0  0
  -28.8761  -22.1154   19.7960 N   0  0  0  0  0  0
  -29.7263  -16.0349   20.7042 N   0  0  0  0  0  0
  -28.1953  -21.9548   17.5909 O   0  0  0  0  0  0
  -29.8380  -20.0800   23.7061 F   0  0  0  0  0  0
  -30.2645  -21.8229   22.5493 F   0  0  0  0  0  0
  -28.1976  -21.2173   22.8990 F   0  0  0  0  0  0
  -31.4830  -12.7069   19.1923 H   0  0  0  0  0  0
  -30.4254  -11.5903   20.0010 H   0  0  0  0  0  0
  -29.8365  -11.7614   17.5559 H   0  0  0  0  0  0
  -29.6266  -13.4866   17.7126 H   0  0  0  0  0  0
  -27.9279  -11.2904   18.9328 H   0  0  0  0  0  0
  -27.3955  -12.5118   17.8051 H   0  0  0  0  0  0
  -27.6161  -14.2596   19.4474 H   0  0  0  0  0  0
  -28.7563  -12.2377   21.4359 H   0  0  0  0  0  0
  -28.3919  -13.9104   21.7861 H   0  0  0  0  0  0
  -25.2785   -9.5697   22.4751 H   0  0  0  0  0  0
  -24.0029   -7.4634   22.7448 H   0  0  0  0  0  0
  -21.0860   -8.8766   19.8937 H   0  0  0  0  0  0
  -22.3701  -10.9675   19.6155 H   0  0  0  0  0  0
  -21.1991   -7.6138   23.9726 H   0  0  0  0  0  0
  -21.1498   -6.0503   25.9079 H   0  0  0  0  0  0
  -22.0590   -2.7608   23.2828 H   0  0  0  0  0  0
  -22.4073  -11.9894   22.4857 H   0  0  0  0  0  0
  -21.1063  -13.1214   22.2590 H   0  0  0  0  0  0
  -24.6431  -15.8418   20.4986 H   0  0  0  0  0  0
  -26.2488  -15.6245   20.0257 H   0  0  0  0  0  0
  -26.7284  -32.5300   23.1022 H   0  0  0  0  0  0
  -25.0137  -33.9640   25.0358 H   0  0  0  0  0  0
  -22.7504  -31.2891   21.3755 H   0  0  0  0  0  0
  -23.3786  -35.9543   23.3226 H   0  0  0  0  0  0
  -24.3611  -36.8949   22.2068 H   0  0  0  0  0  0
  -23.7217  -37.6398   23.6730 H   0  0  0  0  0  0
  -26.1608  -31.4790   20.6190 H   0  0  0  0  0  0
  -26.8719  -30.7695   22.0329 H   0  0  0  0  0  0
  -28.1355  -28.8059   21.2323 H   0  0  0  0  0  0
  -25.9360  -25.8697   18.9558 H   0  0  0  0  0  0
  -23.9890  -27.3058   18.9664 H   0  0  0  0  0  0
  -23.8083  -30.5625   19.3955 H   0  0  0  0  0  0
  -22.7913  -29.2271   19.8458 H   0  0  0  0  0  0
  -25.1319  -36.1828   25.0803 H   0  0  0  0  0  0
  -21.0002  -28.3322   24.1367 H   0  0  0  0  0  0
  -20.5684  -26.2348   23.3636 H   0  0  0  0  0  0
  -21.6654  -26.7449   22.1205 H   0  0  0  0  0  0
  -19.6927  -25.6288   21.1278 H   0  0  0  0  0  0
  -19.6703  -27.3179   20.6745 H   0  0  0  0  0  0
  -17.4215  -26.6696   21.4006 H   0  0  0  0  0  0
  -18.0313  -26.0069   22.9004 H   0  0  0  0  0  0
  -19.7940  -30.7303   24.2234 H   0  0  0  0  0  0
  -17.5013  -31.6275   24.5171 H   0  0  0  0  0  0
  -15.5355  -30.2983   23.7690 H   0  0  0  0  0  0
  -15.8669  -28.0824   22.7095 H   0  0  0  0  0  0
  -24.5893  -30.7115   25.7750 H   0  0  0  0  0  0
  -24.8920  -32.2938   26.4835 H   0  0  0  0  0  0
  -25.8003  -30.8939   27.0221 H   0  0  0  0  0  0
  -26.2980  -29.6671   24.1330 H   0  0  0  0  0  0
  -27.3955  -29.7265   25.4920 H   0  0  0  0  0  0
  -27.8916  -30.4158   23.9652 H   0  0  0  0  0  0
  -27.2711  -33.3633   26.2042 H   0  0  0  0  0  0
  -28.3908  -32.6833   25.0321 H   0  0  0  0  0  0
  -28.0736  -31.8445   26.5425 H   0  0  0  0  0  0
  -28.2534  -38.0134   24.7584 H   0  0  0  0  0  0
  -28.1141  -36.2671   24.6119 H   0  0  0  0  0  0
  -27.2322  -37.1228   25.8843 H   0  0  0  0  0  0
  -20.9464  -29.8769   21.6788 H   0  0  0  0  0  0
  -26.0115  -38.2791   24.1496 H   0  0  0  0  0  0
  -29.3137  -19.9304   17.9973 H   0  0  0  0  0  0
  -29.6573  -17.5815   18.3091 H   0  0  0  0  0  0
  -29.7226  -18.1323   22.5188 H   0  0  0  0  0  0
  -27.4630  -24.4491   17.8836 H   0  0  0  0  0  0
  -29.2008  -24.5906   18.1285 H   0  0  0  0  0  0
  -28.4063  -23.1973   21.6367 H   0  0  0  0  0  0
  -29.9036  -23.6764   20.8568 H   0  0  0  0  0  0
  -27.0359  -24.4605   20.2321 H   0  0  0  0  0  0
  -28.8682  -15.7299   21.1390 H   0  0  0  0  0  0
  1 25  1  0  0  0
  1 30  2  0  0  0
  1 83  1  0  0  0
  2  3  1  0  0  0
  2 25  1  0  0  0
  2 88  1  0  0  0
  2 89  1  0  0  0
  3  4  1  0  0  0
  3 90  1  0  0  0
  3 91  1  0  0  0
  4  5  1  0  0  0
  4 92  1  0  0  0
  4 93  1  0  0  0
  5  6  1  0  0  0
  5 26  1  0  0  0
  5 94  1  0  0  0
  6 25  1  0  0  0
  6 95  1  0  0  0
  6 96  1  0  0  0
  7  8  2  0  0  0
  7 26  1  0  0  0
  7 29  1  0  0  0
  8  9  1  0  0  0
  8 22  1  0  0  0
  9 10  1  0  0  0
  9 27  2  0  0  0
 10 11  2  0  0  0
 10 15  1  0  0  0
 11 12  1  0  0  0
 11 97  1  0  0  0
 12 13  2  0  0  0
 12 98  1  0  0  0
 13 14  1  0  0  0
 13 31  1  0  0  0
 14 15  2  0  0  0
 14 99  1  0  0  0
 15100  1  0  0  0
 16 17  2  0  0  0
 16 21  1  0  0  0
 16 31  1  0  0  0
 17 18  1  0  0  0
 17101  1  0  0  0
 18 19  2  0  0  0
 18102  1  0  0  0
 19 20  1  0  0  0
 19 24  1  0  0  0
 20 21  2  0  0  0
 20103  1  0  0  0
 21 23  1  0  0  0
 22 28  1  0  0  0
 22 32  2  0  0  0
 26 27  1  0  0  0
 28104  1  0  0  0
 28105  1  0  0  0
 29106  1  0  0  0
 29107  1  0  0  0
 33 34  1  0  0  0
 33 66  1  0  0  0
 33 70  2  0  0  0
 34 36  1  0  0  0
 34 59  1  0  0  0
 34108  1  0  0  0
 35 44  2  0  0  0
 35 45  1  0  0  0
 35 68  1  0  0  0
 36 56  1  0  0  0
 36109  1  0  0  0
 37 39  1  0  0  0
 37 47  1  0  0  0
 37 66  1  0  0  0
 37110  1  0  0  0
 38 43  2  0  0  0
 38 46  1  0  0  0
 38 47  1  0  0  0
 39 64  1  0  0  0
 39 67  2  0  0  0
 40 52  1  0  0  0
 40 53  2  0  0  0
 40 58  1  0  0  0
 41111  1  0  0  0
 41112  1  0  0  0
 41113  1  0  0  0
 41 48  1  0  0  0
 42 43  1  0  0  0
 42 66  1  0  0  0
 42114  1  0  0  0
 42115  1  0  0  0
 43 44  1  0  0  0
 44116  1  0  0  0
 45 46  2  0  0  0
 45117  1  0  0  0
 46118  1  0  0  0
 47119  1  0  0  0
 47120  1  0  0  0
 48 56  1  0  0  0
 48 65  1  0  0  0
 48121  1  0  0  0
 49 50  1  0  0  0
 49 53  1  0  0  0
 49 64  1  0  0  0
 49122  1  0  0  0
 50 51  1  0  0  0
 50123  1  0  0  0
 50124  1  0  0  0
 51 52  1  0  0  0
 51125  1  0  0  0
 51126  1  0  0  0
 52127  1  0  0  0
 52128  1  0  0  0
 53 54  1  0  0  0
 54 55  2  0  0  0
 54129  1  0  0  0
 55 57  1  0  0  0
 55130  1  0  0  0
 56 69  2  0  0  0
 57 58  2  0  0  0
 57131  1  0  0  0
 58132  1  0  0  0
 59 60  1  0  0  0
 59 61  1  0  0  0
 59 62  1  0  0  0
 60133  1  0  0  0
 60134  1  0  0  0
 60135  1  0  0  0
 61136  1  0  0  0
 61137  1  0  0  0
 61138  1  0  0  0
 62139  1  0  0  0
 62140  1  0  0  0
 62141  1  0  0  0
 63 65  1  0  0  0
 63142  1  0  0  0
 63143  1  0  0  0
 63144  1  0  0  0
 64145  1  0  0  0
 65146  1  0  0  0
 68 80  1  0  0  0
 71 72  2  0  0  0
 71 75  1  0  0  0
 71147  1  0  0  0
 72 76  1  0  0  0
 72148  1  0  0  0
 73 74  1  0  0  0
 73 76  2  0  0  0
 73149  1  0  0  0
 74 75  2  0  0  0
 74 81  1  0  0  0
 75 82  1  0  0  0
 76 83  1  0  0  0
 77 78  1  0  0  0
 77 82  1  0  0  0
 77 84  2  0  0  0
 78 80  1  0  0  0
 78150  1  0  0  0
 78151  1  0  0  0
 79 80  1  0  0  0
 79 82  1  0  0  0
 79152  1  0  0  0
 79153  1  0  0  0
 80154  1  0  0  0
 81 85  1  0  0  0
 81 86  1  0  0  0
 81 87  1  0  0  0
 83155  1  0  0  0
M  ISO  4   1 100  68 101  80 101  83 100
M  END
> <chiral flag>
0

> <version>
0

> <s_m_source_file>
/data/baiqing/PycharmProjects/Reinvent-master-3.2/result/LINK_invent/BTK/process_docking_weight1_custom_product_contain_oxygen_bond_distance_aromatic_linkinvent_7_9_3/rearranged_h_0025.sdf

> <i_m_source_file_index>
49

> <r_mmod_Potential_Energy-OPLS-2005>
535.37451171875

> <r_mmod_Stretch_Energy-OPLS-2005>
231.826675415039

> <r_mmod_Bend_Energy-OPLS-2005>
290.125366210938

> <r_mmod_Torsional_Energy-OPLS-2005>
279.831298828125

> <r_mmod_Improper_Torsional_Energy-OPLS-2005>
4.68109369277954

> <r_mmod_Van_der_Waal_Energy-OPLS-2005>
143.923690795898

> <r_mmod_Electrostatic_Energy-OPLS-2005>
-366.523773193359

> <r_mmod_Solvation_Energy-OPLS-2005>
-219.425399780273

> <b_mmod_Minimization_Converged-OPLS-2005>
0

> <r_mmod_RMS_Derivative-OPLS-2005>
2.63804626464844

$$$$
49
                    3D
 Structure written by MMmdl.
165174  0  0  1  0            999 V2000
  -30.5797  -14.7525   20.4289 C   0  0  0  0  0  0
  -30.4377  -12.4525   19.4778 C   0  0  0  0  0  0
  -29.5161  -12.5065   18.2378 C   0  0  0  0  0  0
  -28.0401  -12.3323   18.6452 C   0  0  0  0  0  0
  -27.6418  -13.2306   19.8465 C   0  0  2  0  0  0
  -28.6823  -13.1573   20.9856 C   0  0  0  0  0  0
  -25.2512  -13.8204   20.5679 C   0  0  0  0  0  0
  -24.1804  -13.0447   20.9192 C   0  0  0  0  0  0
  -24.6382  -11.6921   20.8723 C   0  0  0  0  0  0
  -23.9058  -10.4300   21.0409 C   0  0  0  0  0  0
  -24.3617   -9.4214   21.9185 C   0  0  0  0  0  0
  -23.6295   -8.2251   22.0759 C   0  0  0  0  0  0
  -22.4278   -8.0293   21.3545 C   0  0  0  0  0  0
  -21.9901   -9.0261   20.4645 C   0  0  0  0  0  0
  -22.7229  -10.2142   20.3053 C   0  0  0  0  0  0
  -21.6858   -6.0736   22.5279 C   0  0  0  0  0  0
  -21.4015   -6.5632   23.8217 C   0  0  0  0  0  0
  -21.3660   -5.6777   24.9173 C   0  0  0  0  0  0
  -21.6046   -4.3040   24.7215 C   0  0  0  0  0  0
  -21.8821   -3.8136   23.4332 C   0  0  0  0  0  0
  -21.9198   -4.6960   22.3393 C   0  0  0  0  0  0
  -22.7830  -13.5243   21.1853 C   0  0  0  0  0  0
  -22.1670   -4.2156   21.0968 F   0  0  0  0  0  0
  -21.5624   -3.4518   25.7722 F   0  0  0  0  0  0
  -29.9868  -13.5101   20.4121 N   0  0  0  0  0  0
  -26.2922  -12.9406   20.3231 N   0  0  0  0  0  0
  -25.9319  -11.6544   20.5707 N   0  0  0  0  0  0
  -22.0461  -12.8250   22.0399 N   0  0  0  0  0  0
  -25.4199  -15.1937   20.4138 N   0  0  0  0  0  0
  -31.7753  -14.8596   20.1389 O   0  0  0  0  0  0
  -21.6645   -6.8886   21.4246 O   0  0  0  0  0  0
  -22.3525  -14.5550   20.6698 O   0  0  0  0  0  0
  -24.6288  -31.8525   23.1955 C   0  0  0  0  0  0
  -25.9105  -32.4741   23.8312 C   0  0  1  0  0  0
  -27.2252  -27.2525   20.1584 C   0  0  0  0  0  0
  -25.5921  -33.8543   24.2246 N   0  0  0  0  0  0
  -23.4282  -30.4698   21.5377 C   0  0  2  0  0  0
  -24.8789  -28.9015   20.1253 C   0  0  0  0  0  0
  -22.7493  -29.4577   22.4904 C   0  0  0  0  0  0
  -18.0303  -28.1385   22.8464 C   0  0  0  0  0  0
  -24.1489  -36.7280   23.2636 C   0  0  0  0  0  0
  -25.9716  -30.7625   21.3762 C   0  0  0  0  0  0
  -26.0477  -29.3777   20.7346 C   0  0  0  0  0  0
  -27.2258  -28.5662   20.7361 C   0  0  0  0  0  0
  -26.0353  -26.8304   19.5339 C   0  0  0  0  0  0
  -24.8767  -27.6349   19.5160 C   0  0  0  0  0  0
  -23.6509  -29.7912   20.1596 C   0  0  0  0  0  0
  -25.4113  -36.3052   24.0323 C   0  0  1  0  0  0
  -20.5890  -28.3676   23.1264 C   0  0  2  0  0  0
  -20.6775  -26.9389   22.5404 C   0  0  0  0  0  0
  -19.5759  -26.6364   21.5196 C   0  0  0  0  0  0
  -18.1943  -26.7929   22.1609 C   0  0  0  0  0  0
  -19.1549  -28.8851   23.2863 C   0  0  0  0  0  0
  -18.9469  -30.1458   23.8880 C   0  0  0  0  0  0
  -17.6463  -30.6572   24.0550 C   0  0  0  0  0  0
  -25.9048  -34.9423   23.5081 C   0  0  0  0  0  0
  -16.5357  -29.9068   23.6330 C   0  0  0  0  0  0
  -16.7290  -28.6496   23.0334 C   0  0  0  0  0  0
  -26.4498  -31.6567   25.0698 C   0  0  0  0  0  0
  -25.3736  -31.3730   26.1431 C   0  0  0  0  0  0
  -27.0328  -30.2978   24.6159 C   0  0  0  0  0  0
  -27.6042  -32.4310   25.7489 C   0  0  0  0  0  0
  -27.5580  -37.1787   24.8459 C   0  0  0  0  0  0
  -21.4195  -29.3033   22.3659 N   0  0  0  0  0  0
  -26.4288  -37.3748   23.9404 N   0  0  0  0  0  0
  -24.6955  -31.0469   22.0948 N   0  0  0  0  0  0
  -23.4193  -28.8111   23.2997 O   0  0  0  0  0  0
  -28.3580  -26.4129   20.0851 O   0  0  0  0  0  0
  -26.5592  -34.8898   22.4639 O   0  0  0  0  0  0
  -23.5424  -32.1357   23.7232 O   0  0  0  0  0  0
  -29.2422  -18.4246   20.6507 C   0  0  0  0  0  0
  -30.0461  -18.6844   18.0169 C   0  0  0  0  0  0
  -29.0924  -19.7361   20.0186 C   0  0  0  0  0  0
  -29.4827  -19.8068   18.6591 C   0  0  0  0  0  0
  -29.7788  -17.2320   19.9954 C   0  0  0  0  0  0
  -30.1719  -17.4251   18.6380 C   0  0  0  0  0  0
  -28.0228  -21.2523   17.3330 C   0  0  0  0  0  0
  -28.1251  -23.5871   20.2574 C   0  0  0  0  0  0
  -28.1209  -22.4261   16.3777 C   0  0  0  0  0  0
  -29.6284  -22.5713   16.1597 C   0  0  0  0  0  0
  -30.2898  -21.7615   17.2853 C   0  0  0  0  0  0
  -30.1937  -22.6303   21.2058 C   0  0  0  0  0  0
  -28.3741  -20.9965   20.6999 C   0  0  0  0  0  0
  -28.5180  -25.0713   20.7719 C   0  0  0  0  0  0
  -29.2233  -20.9532   17.8615 N   0  0  0  0  0  0
  -29.7714  -15.8700   20.6184 N   0  0  0  0  0  0
  -28.8701  -22.4522   20.6093 N   0  0  0  0  0  0
  -26.9561  -20.6783   17.5700 O   0  0  0  0  0  0
  -27.0851  -23.4514   19.6022 O   0  0  0  0  0  0
  -30.6883  -16.1444   17.5950 Cl  0  0  0  0  0  0
  -31.4791  -12.5867   19.1772 H   0  0  0  0  0  0
  -30.3885  -11.4718   19.9546 H   0  0  0  0  0  0
  -29.7985  -11.7377   17.5192 H   0  0  0  0  0  0
  -29.6446  -13.4620   17.7263 H   0  0  0  0  0  0
  -27.8936  -11.2821   18.9034 H   0  0  0  0  0  0
  -27.3915  -12.5310   17.7912 H   0  0  0  0  0  0
  -27.6359  -14.2507   19.4633 H   0  0  0  0  0  0
  -28.7139  -12.1551   21.4159 H   0  0  0  0  0  0
  -28.4189  -13.8343   21.8002 H   0  0  0  0  0  0
  -25.2775   -9.5689   22.4743 H   0  0  0  0  0  0
  -23.9998   -7.4635   22.7485 H   0  0  0  0  0  0
  -21.0822   -8.8777   19.8960 H   0  0  0  0  0  0
  -22.3690  -10.9673   19.6142 H   0  0  0  0  0  0
  -21.2013   -7.6138   23.9721 H   0  0  0  0  0  0
  -21.1484   -6.0509   25.9080 H   0  0  0  0  0  0
  -22.0605   -2.7595   23.2838 H   0  0  0  0  0  0
  -22.4058  -11.9902   22.4793 H   0  0  0  0  0  0
  -21.1095  -13.1329   22.2614 H   0  0  0  0  0  0
  -24.6470  -15.8430   20.5207 H   0  0  0  0  0  0
  -26.2591  -15.6341   20.0605 H   0  0  0  0  0  0
  -26.7163  -32.5398   23.1045 H   0  0  0  0  0  0
  -25.0119  -33.9687   25.0419 H   0  0  0  0  0  0
  -22.7241  -31.2909   21.3826 H   0  0  0  0  0  0
  -23.3750  -35.9616   23.3292 H   0  0  0  0  0  0
  -24.3586  -36.8908   22.2055 H   0  0  0  0  0  0
  -23.7239  -37.6475   23.6667 H   0  0  0  0  0  0
  -26.0977  -31.5115   20.5942 H   0  0  0  0  0  0
  -26.8548  -30.8262   22.0011 H   0  0  0  0  0  0
  -28.1310  -28.9304   21.2034 H   0  0  0  0  0  0
  -26.0011  -25.8595   19.0585 H   0  0  0  0  0  0
  -23.9811  -27.2630   19.0368 H   0  0  0  0  0  0
  -23.7785  -30.5590   19.3955 H   0  0  0  0  0  0
  -22.7730  -29.2202   19.8533 H   0  0  0  0  0  0
  -25.1285  -36.1913   25.0814 H   0  0  0  0  0  0
  -20.9974  -28.3259   24.1382 H   0  0  0  0  0  0
  -20.5644  -26.2280   23.3603 H   0  0  0  0  0  0
  -21.6650  -26.7392   22.1220 H   0  0  0  0  0  0
  -19.6906  -25.6273   21.1235 H   0  0  0  0  0  0
  -19.6707  -27.3166   20.6723 H   0  0  0  0  0  0
  -17.4196  -26.6657   21.4036 H   0  0  0  0  0  0
  -18.0361  -26.0090   22.9026 H   0  0  0  0  0  0
  -19.7945  -30.7279   24.2230 H   0  0  0  0  0  0
  -17.5018  -31.6253   24.5151 H   0  0  0  0  0  0
  -15.5357  -30.2944   23.7677 H   0  0  0  0  0  0
  -15.8699  -28.0808   22.7031 H   0  0  0  0  0  0
  -24.5912  -30.7066   25.7796 H   0  0  0  0  0  0
  -24.8935  -32.2908   26.4838 H   0  0  0  0  0  0
  -25.8077  -30.8942   27.0217 H   0  0  0  0  0  0
  -26.2896  -29.6742   24.1178 H   0  0  0  0  0  0
  -27.4014  -29.7217   25.4657 H   0  0  0  0  0  0
  -27.8776  -30.4259   23.9387 H   0  0  0  0  0  0
  -27.2647  -33.3617   26.2053 H   0  0  0  0  0  0
  -28.3888  -32.6861   25.0353 H   0  0  0  0  0  0
  -28.0671  -31.8435   26.5428 H   0  0  0  0  0  0
  -28.2567  -38.0108   24.7494 H   0  0  0  0  0  0
  -28.1098  -36.2627   24.6292 H   0  0  0  0  0  0
  -27.2289  -37.1439   25.8858 H   0  0  0  0  0  0
  -20.9362  -29.8783   21.6898 H   0  0  0  0  0  0
  -26.0169  -38.2815   24.1424 H   0  0  0  0  0  0
  -28.8857  -18.3167   21.6658 H   0  0  0  0  0  0
  -30.3073  -18.7606   16.9707 H   0  0  0  0  0  0
  -27.6995  -23.3116   16.8533 H   0  0  0  0  0  0
  -27.5788  -22.2384   15.4502 H   0  0  0  0  0  0
  -29.9473  -23.6144   16.1634 H   0  0  0  0  0  0
  -29.8991  -22.1491   15.1908 H   0  0  0  0  0  0
  -30.6930  -22.4224   18.0535 H   0  0  0  0  0  0
  -31.1062  -21.1446   16.9105 H   0  0  0  0  0  0
  -30.1017  -22.9819   22.2340 H   0  0  0  0  0  0
  -30.7903  -23.3538   20.6484 H   0  0  0  0  0  0
  -30.7583  -21.6967   21.2201 H   0  0  0  0  0  0
  -28.2961  -20.7689   21.7638 H   0  0  0  0  0  0
  -27.3409  -20.9756   20.3508 H   0  0  0  0  0  0
  -27.4910  -25.1206   21.1256 H   0  0  0  0  0  0
  -28.9841  -24.9644   19.7899 H   0  0  0  0  0  0
  -28.9210  -15.6551   21.1141 H   0  0  0  0  0  0
  1 25  1  0  0  0
  1 30  2  0  0  0
  1 86  1  0  0  0
  2  3  1  0  0  0
  2 25  1  0  0  0
  2 91  1  0  0  0
  2 92  1  0  0  0
  3  4  1  0  0  0
  3 93  1  0  0  0
  3 94  1  0  0  0
  4  5  1  0  0  0
  4 95  1  0  0  0
  4 96  1  0  0  0
  5  6  1  0  0  0
  5 26  1  0  0  0
  5 97  1  0  0  0
  6 25  1  0  0  0
  6 98  1  0  0  0
  6 99  1  0  0  0
  7  8  2  0  0  0
  7 26  1  0  0  0
  7 29  1  0  0  0
  8  9  1  0  0  0
  8 22  1  0  0  0
  9 10  1  0  0  0
  9 27  2  0  0  0
 10 11  2  0  0  0
 10 15  1  0  0  0
 11 12  1  0  0  0
 11100  1  0  0  0
 12 13  2  0  0  0
 12101  1  0  0  0
 13 14  1  0  0  0
 13 31  1  0  0  0
 14 15  2  0  0  0
 14102  1  0  0  0
 15103  1  0  0  0
 16 17  2  0  0  0
 16 21  1  0  0  0
 16 31  1  0  0  0
 17 18  1  0  0  0
 17104  1  0  0  0
 18 19  2  0  0  0
 18105  1  0  0  0
 19 20  1  0  0  0
 19 24  1  0  0  0
 20 21  2  0  0  0
 20106  1  0  0  0
 21 23  1  0  0  0
 22 28  1  0  0  0
 22 32  2  0  0  0
 26 27  1  0  0  0
 28107  1  0  0  0
 28108  1  0  0  0
 29109  1  0  0  0
 29110  1  0  0  0
 33 34  1  0  0  0
 33 66  1  0  0  0
 33 70  2  0  0  0
 34 36  1  0  0  0
 34 59  1  0  0  0
 34111  1  0  0  0
 35 44  2  0  0  0
 35 45  1  0  0  0
 35 68  1  0  0  0
 36 56  1  0  0  0
 36112  1  0  0  0
 37 39  1  0  0  0
 37 47  1  0  0  0
 37 66  1  0  0  0
 37113  1  0  0  0
 38 43  2  0  0  0
 38 46  1  0  0  0
 38 47  1  0  0  0
 39 64  1  0  0  0
 39 67  2  0  0  0
 40 52  1  0  0  0
 40 53  2  0  0  0
 40 58  1  0  0  0
 41114  1  0  0  0
 41115  1  0  0  0
 41116  1  0  0  0
 41 48  1  0  0  0
 42 43  1  0  0  0
 42 66  1  0  0  0
 42117  1  0  0  0
 42118  1  0  0  0
 43 44  1  0  0  0
 44119  1  0  0  0
 45 46  2  0  0  0
 45120  1  0  0  0
 46121  1  0  0  0
 47122  1  0  0  0
 47123  1  0  0  0
 48 56  1  0  0  0
 48 65  1  0  0  0
 48124  1  0  0  0
 49 50  1  0  0  0
 49 53  1  0  0  0
 49 64  1  0  0  0
 49125  1  0  0  0
 50 51  1  0  0  0
 50126  1  0  0  0
 50127  1  0  0  0
 51 52  1  0  0  0
 51128  1  0  0  0
 51129  1  0  0  0
 52130  1  0  0  0
 52131  1  0  0  0
 53 54  1  0  0  0
 54 55  2  0  0  0
 54132  1  0  0  0
 55 57  1  0  0  0
 55133  1  0  0  0
 56 69  2  0  0  0
 57 58  2  0  0  0
 57134  1  0  0  0
 58135  1  0  0  0
 59 60  1  0  0  0
 59 61  1  0  0  0
 59 62  1  0  0  0
 60136  1  0  0  0
 60137  1  0  0  0
 60138  1  0  0  0
 61139  1  0  0  0
 61140  1  0  0  0
 61141  1  0  0  0
 62142  1  0  0  0
 62143  1  0  0  0
 62144  1  0  0  0
 63 65  1  0  0  0
 63145  1  0  0  0
 63146  1  0  0  0
 63147  1  0  0  0
 64148  1  0  0  0
 65149  1  0  0  0
 68 84  1  0  0  0
 71 73  2  0  0  0
 71 75  1  0  0  0
 71150  1  0  0  0
 72 74  2  0  0  0
 72 76  1  0  0  0
 72151  1  0  0  0
 73 74  1  0  0  0
 73 83  1  0  0  0
 74 85  1  0  0  0
 75 76  2  0  0  0
 75 86  1  0  0  0
 76 90  1  0  0  0
 77 79  1  0  0  0
 77 85  1  0  0  0
 77 88  2  0  0  0
 78 84  1  0  0  0
 78 87  1  0  0  0
 78 89  2  0  0  0
 79 80  1  0  0  0
 79152  1  0  0  0
 79153  1  0  0  0
 80 81  1  0  0  0
 80154  1  0  0  0
 80155  1  0  0  0
 81 85  1  0  0  0
 81156  1  0  0  0
 81157  1  0  0  0
 82 87  1  0  0  0
 82158  1  0  0  0
 82159  1  0  0  0
 82160  1  0  0  0
 83 87  1  0  0  0
 83161  1  0  0  0
 83162  1  0  0  0
 84163  1  0  0  0
 84164  1  0  0  0
 86165  1  0  0  0
M  ISO  4   1 100  68 101  84 101  86 100
M  END
> <chiral flag>
0

> <version>
0

> <s_m_source_file>
/data/baiqing/PycharmProjects/Reinvent-master-3.2/result/LINK_invent/BTK/process_docking_weight1_custom_product_contain_oxygen_bond_distance_aromatic_linkinvent_7_9_3/rearranged_h_0025.sdf

> <i_m_source_file_index>
50

> <r_mmod_Potential_Energy-OPLS-2005>
536.23486328125

> <r_mmod_Stretch_Energy-OPLS-2005>
141.238494873047

> <r_mmod_Bend_Energy-OPLS-2005>
423.602844238281

> <r_mmod_Torsional_Energy-OPLS-2005>
362.700561523438

> <r_mmod_Improper_Torsional_Energy-OPLS-2005>
7.79153442382812

> <r_mmod_Van_der_Waal_Energy-OPLS-2005>
127.200942993164

> <r_mmod_Electrostatic_Energy-OPLS-2005>
-363.169921875

> <r_mmod_Solvation_Energy-OPLS-2005>
-247.42448425293

> <b_mmod_Minimization_Converged-OPLS-2005>
0

> <r_mmod_RMS_Derivative-OPLS-2005>
2.74909067153931

$$$$
50
                    3D
 Structure written by MMmdl.
179188  0  0  1  0            999 V2000
  -30.6437  -14.5208   20.5837 C   0  0  0  0  0  0
  -30.4416  -12.3395   19.4230 C   0  0  0  0  0  0
  -29.5037  -12.5149   18.2077 C   0  0  0  0  0  0
  -28.0231  -12.3633   18.6160 C   0  0  0  0  0  0
  -27.6624  -13.1966   19.8751 C   0  0  2  0  0  0
  -28.7044  -12.9664   20.9934 C   0  0  0  0  0  0
  -25.2596  -13.8116   20.5661 C   0  0  0  0  0  0
  -24.1843  -13.0425   20.9159 C   0  0  0  0  0  0
  -24.6374  -11.6879   20.8713 C   0  0  0  0  0  0
  -23.9035  -10.4290   21.0383 C   0  0  0  0  0  0
  -24.3596   -9.4211   21.9166 C   0  0  0  0  0  0
  -23.6279   -8.2248   22.0744 C   0  0  0  0  0  0
  -22.4260   -8.0276   21.3540 C   0  0  0  0  0  0
  -21.9893   -9.0243   20.4634 C   0  0  0  0  0  0
  -22.7207  -10.2117   20.3041 C   0  0  0  0  0  0
  -21.6851   -6.0726   22.5277 C   0  0  0  0  0  0
  -21.4017   -6.5632   23.8209 C   0  0  0  0  0  0
  -21.3662   -5.6788   24.9176 C   0  0  0  0  0  0
  -21.6047   -4.3053   24.7236 C   0  0  0  0  0  0
  -21.8820   -3.8138   23.4354 C   0  0  0  0  0  0
  -21.9196   -4.6950   22.3408 C   0  0  0  0  0  0
  -22.7872  -13.5234   21.1839 C   0  0  0  0  0  0
  -22.1660   -4.2136   21.0980 F   0  0  0  0  0  0
  -21.5632   -3.4538   25.7749 F   0  0  0  0  0  0
  -30.0279  -13.3120   20.4454 N   0  0  0  0  0  0
  -26.3025  -12.9275   20.3339 N   0  0  0  0  0  0
  -25.9297  -11.6444   20.5735 N   0  0  0  0  0  0
  -22.0515  -12.8227   22.0390 N   0  0  0  0  0  0
  -25.4337  -15.1841   20.4036 N   0  0  0  0  0  0
  -31.7828  -14.7445   20.1577 O   0  0  0  0  0  0
  -21.6633   -6.8865   21.4233 O   0  0  0  0  0  0
  -22.3574  -14.5556   20.6702 O   0  0  0  0  0  0
  -24.6199  -31.8657   23.2018 C   0  0  0  0  0  0
  -25.9038  -32.4832   23.8382 C   0  0  1  0  0  0
  -27.2326  -27.3639   20.1289 C   0  0  0  0  0  0
  -25.5868  -33.8624   24.2294 N   0  0  0  0  0  0
  -23.4182  -30.4763   21.5475 C   0  0  2  0  0  0
  -24.8688  -28.9314   20.1209 C   0  0  0  0  0  0
  -22.7489  -29.4577   22.4992 C   0  0  0  0  0  0
  -18.0277  -28.1402   22.8459 C   0  0  0  0  0  0
  -24.1485  -36.7298   23.2620 C   0  0  0  0  0  0
  -25.9478  -30.8111   21.3604 C   0  0  0  0  0  0
  -26.0324  -29.4352   20.7163 C   0  0  0  0  0  0
  -27.2235  -28.6635   20.7040 C   0  0  0  0  0  0
  -26.0500  -26.8831   19.5347 C   0  0  0  0  0  0
  -24.8752  -27.6594   19.5225 C   0  0  0  0  0  0
  -23.6345  -29.8031   20.1657 C   0  0  0  0  0  0
  -25.4116  -36.3110   24.0310 C   0  0  1  0  0  0
  -20.5880  -28.3660   23.1294 C   0  0  2  0  0  0
  -20.6789  -26.9376   22.5420 C   0  0  0  0  0  0
  -19.5773  -26.6386   21.5207 C   0  0  0  0  0  0
  -18.1936  -26.7953   22.1601 C   0  0  0  0  0  0
  -19.1537  -28.8858   23.2876 C   0  0  0  0  0  0
  -18.9453  -30.1472   23.8881 C   0  0  0  0  0  0
  -17.6450  -30.6599   24.0547 C   0  0  0  0  0  0
  -25.9027  -34.9471   23.5108 C   0  0  0  0  0  0
  -16.5338  -29.9082   23.6321 C   0  0  0  0  0  0
  -16.7267  -28.6522   23.0299 C   0  0  0  0  0  0
  -26.4445  -31.6628   25.0723 C   0  0  0  0  0  0
  -25.3667  -31.3756   26.1444 C   0  0  0  0  0  0
  -27.0270  -30.3080   24.6097 C   0  0  0  0  0  0
  -27.6043  -32.4336   25.7472 C   0  0  0  0  0  0
  -27.5592  -37.1793   24.8448 C   0  0  0  0  0  0
  -21.4205  -29.3020   22.3731 N   0  0  0  0  0  0
  -26.4307  -37.3780   23.9392 N   0  0  0  0  0  0
  -24.6813  -31.0661   22.0964 N   0  0  0  0  0  0
  -23.4201  -28.8099   23.3067 O   0  0  0  0  0  0
  -28.3762  -26.5804   20.1075 O   0  0  0  0  0  0
  -26.5574  -34.8908   22.4661 O   0  0  0  0  0  0
  -23.5359  -32.1441   23.7343 O   0  0  0  0  0  0
  -29.9812  -17.9676   20.6274 C   0  0  0  0  0  0
  -30.5011  -18.3122   23.3621 C   0  0  0  0  0  0
  -30.1000  -19.2931   21.1508 C   0  0  0  0  0  0
  -30.3480  -19.4531   22.5377 C   0  0  0  0  0  0
  -30.1229  -16.8244   21.4665 C   0  0  0  0  0  0
  -30.3868  -17.0126   22.8365 C   0  0  0  0  0  0
  -30.8578  -22.7582   25.1355 C   0  0  0  0  0  0
  -29.4499  -22.4323   24.6215 C   0  0  0  0  0  0
  -31.8953  -22.5087   24.0317 C   0  0  0  0  0  0
  -29.3853  -20.9950   24.0800 C   0  0  0  0  0  0
  -31.8009  -21.0666   23.5106 C   0  0  0  0  0  0
  -29.7270  -23.2716   17.8616 C   0  0  0  0  0  0
  -30.9549  -24.5717   19.4540 C   0  0  0  0  0  0
  -30.0650  -20.5352   20.2241 C   0  0  0  0  0  0
  -28.8893  -22.7192   20.8764 C   0  0  0  0  0  0
  -28.3232  -25.2919   20.7938 C   0  0  0  0  0  0
  -28.5840  -23.9742   19.9549 C   0  0  1  0  0  0
  -30.4358  -20.7440   23.0866 N   0  0  0  0  0  0
  -29.8214  -15.4991   21.0205 N   0  0  0  0  0  0
  -29.6231  -24.2502   18.9413 N   0  0  0  0  0  0
  -28.8175  -21.3634   20.2317 N   0  3  0  0  0  0
  -30.4918  -15.9406   23.6618 F   0  0  0  0  0  0
  -31.4838  -12.4738   19.1254 H   0  0  0  0  0  0
  -30.3711  -11.3249   19.8201 H   0  0  0  0  0  0
  -29.7528  -11.7870   17.4346 H   0  0  0  0  0  0
  -29.6578  -13.5000   17.7619 H   0  0  0  0  0  0
  -27.8373  -11.3054   18.8074 H   0  0  0  0  0  0
  -27.3748  -12.6414   17.7838 H   0  0  0  0  0  0
  -27.7054  -14.2456   19.5812 H   0  0  0  0  0  0
  -28.6954  -11.9209   21.3079 H   0  0  0  0  0  0
  -28.4603  -13.5383   21.8899 H   0  0  0  0  0  0
  -25.2736   -9.5706   22.4736 H   0  0  0  0  0  0
  -24.0000   -7.4644   22.7465 H   0  0  0  0  0  0
  -21.0831   -8.8742   19.8937 H   0  0  0  0  0  0
  -22.3654  -10.9653   19.6158 H   0  0  0  0  0  0
  -21.2003   -7.6141   23.9715 H   0  0  0  0  0  0
  -21.1481   -6.0517   25.9079 H   0  0  0  0  0  0
  -22.0597   -2.7599   23.2861 H   0  0  0  0  0  0
  -22.4139  -11.9884   22.4773 H   0  0  0  0  0  0
  -21.1131  -13.1238   22.2590 H   0  0  0  0  0  0
  -24.6637  -15.8364   20.4994 H   0  0  0  0  0  0
  -26.2804  -15.6191   20.0608 H   0  0  0  0  0  0
  -26.7118  -32.5552   23.1160 H   0  0  0  0  0  0
  -25.0072  -33.9814   25.0478 H   0  0  0  0  0  0
  -22.7090  -31.2913   21.3907 H   0  0  0  0  0  0
  -23.3747  -35.9624   23.3311 H   0  0  0  0  0  0
  -24.3572  -36.8928   22.2032 H   0  0  0  0  0  0
  -23.7257  -37.6511   23.6646 H   0  0  0  0  0  0
  -26.0425  -31.5594   20.5737 H   0  0  0  0  0  0
  -26.8415  -30.8931   21.9668 H   0  0  0  0  0  0
  -28.1309  -29.0483   21.1498 H   0  0  0  0  0  0
  -26.0352  -25.9020   19.0823 H   0  0  0  0  0  0
  -23.9786  -27.2687   19.0618 H   0  0  0  0  0  0
  -23.7535  -30.5711   19.3998 H   0  0  0  0  0  0
  -22.7647  -29.2173   19.8662 H   0  0  0  0  0  0
  -25.1295  -36.2017   25.0801 H   0  0  0  0  0  0
  -20.9937  -28.3222   24.1428 H   0  0  0  0  0  0
  -20.5737  -26.2219   23.3600 H   0  0  0  0  0  0
  -21.6641  -26.7434   22.1159 H   0  0  0  0  0  0
  -19.6922  -25.6286   21.1257 H   0  0  0  0  0  0
  -19.6795  -27.3178   20.6724 H   0  0  0  0  0  0
  -17.4223  -26.6650   21.3995 H   0  0  0  0  0  0
  -18.0344  -26.0128   22.9034 H   0  0  0  0  0  0
  -19.7917  -30.7304   24.2264 H   0  0  0  0  0  0
  -17.4988  -31.6285   24.5139 H   0  0  0  0  0  0
  -15.5348  -30.2968   23.7723 H   0  0  0  0  0  0
  -15.8647  -28.0899   22.6949 H   0  0  0  0  0  0
  -24.5860  -30.7079   25.7754 H   0  0  0  0  0  0
  -24.8779  -32.2904   26.4811 H   0  0  0  0  0  0
  -25.7957  -30.8994   27.0265 H   0  0  0  0  0  0
  -26.2814  -29.6895   24.1080 H   0  0  0  0  0  0
  -27.3977  -29.7300   25.4573 H   0  0  0  0  0  0
  -27.8666  -30.4405   23.9265 H   0  0  0  0  0  0
  -27.2708  -33.3683   26.1985 H   0  0  0  0  0  0
  -28.3864  -32.6843   25.0282 H   0  0  0  0  0  0
  -28.0665  -31.8492   26.5448 H   0  0  0  0  0  0
  -28.2559  -38.0123   24.7542 H   0  0  0  0  0  0
  -28.1183  -36.2674   24.6289 H   0  0  0  0  0  0
  -27.2308  -37.1435   25.8842 H   0  0  0  0  0  0
  -20.9428  -29.8837   21.6986 H   0  0  0  0  0  0
  -26.0236  -38.2855   24.1470 H   0  0  0  0  0  0
  -29.7758  -17.8211   19.5763 H   0  0  0  0  0  0
  -30.6944  -18.4250   24.4183 H   0  0  0  0  0  0
  -31.0849  -22.1243   25.9932 H   0  0  0  0  0  0
  -30.9094  -23.7900   25.4847 H   0  0  0  0  0  0
  -29.1657  -23.1465   23.8494 H   0  0  0  0  0  0
  -28.7229  -22.5519   25.4258 H   0  0  0  0  0  0
  -32.8968  -22.6939   24.4224 H   0  0  0  0  0  0
  -31.7507  -23.2132   23.2117 H   0  0  0  0  0  0
  -28.4067  -20.8205   23.6278 H   0  0  0  0  0  0
  -29.4706  -20.2966   24.9133 H   0  0  0  0  0  0
  -32.1326  -20.3771   24.2888 H   0  0  0  0  0  0
  -32.4901  -20.9398   22.6738 H   0  0  0  0  0  0
  -30.3620  -23.6641   17.0654 H   0  0  0  0  0  0
  -28.7520  -23.0471   17.4239 H   0  0  0  0  0  0
  -30.1878  -22.3405   18.1862 H   0  0  0  0  0  0
  -31.5814  -24.9410   18.6388 H   0  0  0  0  0  0
  -31.4544  -23.7051   19.8882 H   0  0  0  0  0  0
  -30.9254  -25.3627   20.2032 H   0  0  0  0  0  0
  -30.2423  -20.1947   19.2040 H   0  0  0  0  0  0
  -30.9290  -21.1629   20.4514 H   0  0  0  0  0  0
  -28.1253  -22.6892   21.6546 H   0  0  0  0  0  0
  -29.8271  -22.8543   21.4154 H   0  0  0  0  0  0
  -29.0880  -25.3501   21.5709 H   0  0  0  0  0  0
  -27.3852  -25.1813   21.3420 H   0  0  0  0  0  0
  -27.6581  -23.7743   19.4121 H   0  0  0  0  0  0
  -28.9166  -15.1536   21.3047 H   0  0  0  0  0  0
  -28.0836  -20.8241   20.6634 H   0  0  0  0  0  0
  -28.5413  -21.5019   19.2746 H   0  0  0  0  0  0
  1 25  1  0  0  0
  1 30  2  0  0  0
  1 89  1  0  0  0
  2  3  1  0  0  0
  2 25  1  0  0  0
  2 93  1  0  0  0
  2 94  1  0  0  0
  3  4  1  0  0  0
  3 95  1  0  0  0
  3 96  1  0  0  0
  4  5  1  0  0  0
  4 97  1  0  0  0
  4 98  1  0  0  0
  5  6  1  0  0  0
  5 26  1  0  0  0
  5 99  1  0  0  0
  6 25  1  0  0  0
  6100  1  0  0  0
  6101  1  0  0  0
  7  8  2  0  0  0
  7 26  1  0  0  0
  7 29  1  0  0  0
  8  9  1  0  0  0
  8 22  1  0  0  0
  9 10  1  0  0  0
  9 27  2  0  0  0
 10 11  2  0  0  0
 10 15  1  0  0  0
 11 12  1  0  0  0
 11102  1  0  0  0
 12 13  2  0  0  0
 12103  1  0  0  0
 13 14  1  0  0  0
 13 31  1  0  0  0
 14 15  2  0  0  0
 14104  1  0  0  0
 15105  1  0  0  0
 16 17  2  0  0  0
 16 21  1  0  0  0
 16 31  1  0  0  0
 17 18  1  0  0  0
 17106  1  0  0  0
 18 19  2  0  0  0
 18107  1  0  0  0
 19 20  1  0  0  0
 19 24  1  0  0  0
 20 21  2  0  0  0
 20108  1  0  0  0
 21 23  1  0  0  0
 22 28  1  0  0  0
 22 32  2  0  0  0
 26 27  1  0  0  0
 28109  1  0  0  0
 28110  1  0  0  0
 29111  1  0  0  0
 29112  1  0  0  0
 33 34  1  0  0  0
 33 66  1  0  0  0
 33 70  2  0  0  0
 34 36  1  0  0  0
 34 59  1  0  0  0
 34113  1  0  0  0
 35 44  2  0  0  0
 35 45  1  0  0  0
 35 68  1  0  0  0
 36 56  1  0  0  0
 36114  1  0  0  0
 37 39  1  0  0  0
 37 47  1  0  0  0
 37 66  1  0  0  0
 37115  1  0  0  0
 38 43  2  0  0  0
 38 46  1  0  0  0
 38 47  1  0  0  0
 39 64  1  0  0  0
 39 67  2  0  0  0
 40 52  1  0  0  0
 40 53  2  0  0  0
 40 58  1  0  0  0
 41116  1  0  0  0
 41117  1  0  0  0
 41118  1  0  0  0
 41 48  1  0  0  0
 42 43  1  0  0  0
 42 66  1  0  0  0
 42119  1  0  0  0
 42120  1  0  0  0
 43 44  1  0  0  0
 44121  1  0  0  0
 45 46  2  0  0  0
 45122  1  0  0  0
 46123  1  0  0  0
 47124  1  0  0  0
 47125  1  0  0  0
 48 56  1  0  0  0
 48 65  1  0  0  0
 48126  1  0  0  0
 49 50  1  0  0  0
 49 53  1  0  0  0
 49 64  1  0  0  0
 49127  1  0  0  0
 50 51  1  0  0  0
 50128  1  0  0  0
 50129  1  0  0  0
 51 52  1  0  0  0
 51130  1  0  0  0
 51131  1  0  0  0
 52132  1  0  0  0
 52133  1  0  0  0
 53 54  1  0  0  0
 54 55  2  0  0  0
 54134  1  0  0  0
 55 57  1  0  0  0
 55135  1  0  0  0
 56 69  2  0  0  0
 57 58  2  0  0  0
 57136  1  0  0  0
 58137  1  0  0  0
 59 60  1  0  0  0
 59 61  1  0  0  0
 59 62  1  0  0  0
 60138  1  0  0  0
 60139  1  0  0  0
 60140  1  0  0  0
 61141  1  0  0  0
 61142  1  0  0  0
 61143  1  0  0  0
 62144  1  0  0  0
 62145  1  0  0  0
 62146  1  0  0  0
 63 65  1  0  0  0
 63147  1  0  0  0
 63148  1  0  0  0
 63149  1  0  0  0
 64150  1  0  0  0
 65151  1  0  0  0
 68 86  1  0  0  0
 71 73  2  0  0  0
 71 75  1  0  0  0
 71152  1  0  0  0
 72 74  2  0  0  0
 72 76  1  0  0  0
 72153  1  0  0  0
 73 74  1  0  0  0
 73 84  1  0  0  0
 74 88  1  0  0  0
 75 76  2  0  0  0
 75 89  1  0  0  0
 76 92  1  0  0  0
 77 78  1  0  0  0
 77 79  1  0  0  0
 77154  1  0  0  0
 77155  1  0  0  0
 78 80  1  0  0  0
 78156  1  0  0  0
 78157  1  0  0  0
 79 81  1  0  0  0
 79158  1  0  0  0
 79159  1  0  0  0
 80 88  1  0  0  0
 80160  1  0  0  0
 80161  1  0  0  0
 81 88  1  0  0  0
 81162  1  0  0  0
 81163  1  0  0  0
 82 90  1  0  0  0
 82164  1  0  0  0
 82165  1  0  0  0
 82166  1  0  0  0
 83 90  1  0  0  0
 83167  1  0  0  0
 83168  1  0  0  0
 83169  1  0  0  0
 84 91  1  0  0  0
 84170  1  0  0  0
 84171  1  0  0  0
 85 91  1  0  0  0
 85172  1  0  0  0
 85173  1  0  0  0
 85 87  1  0  0  0
 86 87  1  0  0  0
 86174  1  0  0  0
 86175  1  0  0  0
 87 90  1  0  0  0
 87176  1  0  0  0
 89177  1  0  0  0
 91178  1  0  0  0
 91179  1  0  0  0
M  CHG  1  91   1
M  ISO  4   1 100  68 101  86 101  89 100
M  END
> <chiral flag>
0

> <version>
0

> <s_m_source_file>
/data/baiqing/PycharmProjects/Reinvent-master-3.2/result/LINK_invent/BTK/process_docking_weight1_custom_product_contain_oxygen_bond_distance_aromatic_linkinvent_7_9_3/rearranged_h_0025.sdf

> <i_m_source_file_index>
51

> <r_mmod_Potential_Energy-OPLS-2005>
-112.240829467773

> <r_mmod_Stretch_Energy-OPLS-2005>
56.9930114746094

> <r_mmod_Bend_Energy-OPLS-2005>
129.131164550781

> <r_mmod_Torsional_Energy-OPLS-2005>
333.511749267578

> <r_mmod_Improper_Torsional_Energy-OPLS-2005>
11.4916915893555

> <r_mmod_Van_der_Waal_Energy-OPLS-2005>
143.86296081543

> <r_mmod_Electrostatic_Energy-OPLS-2005>
-347.109161376953

> <r_mmod_Solvation_Energy-OPLS-2005>
-463.859130859375

> <b_mmod_Minimization_Converged-OPLS-2005>
0

> <r_mmod_RMS_Derivative-OPLS-2005>
4.31653690338135

$$$$
51
                    3D
 Structure written by MMmdl.
169179  0  0  1  0            999 V2000
  -30.6578  -14.5707   20.5072 C   0  0  0  0  0  0
  -30.4297  -12.3553   19.4417 C   0  0  0  0  0  0
  -29.5016  -12.5001   18.2193 C   0  0  0  0  0  0
  -28.0252  -12.3410   18.6370 C   0  0  0  0  0  0
  -27.6535  -13.2122   19.8678 C   0  0  2  0  0  0
  -28.6934  -13.0502   20.9955 C   0  0  0  0  0  0
  -25.2506  -13.8143   20.5576 C   0  0  0  0  0  0
  -24.1788  -13.0413   20.9121 C   0  0  0  0  0  0
  -24.6381  -11.6882   20.8751 C   0  0  0  0  0  0
  -23.9074  -10.4243   21.0458 C   0  0  0  0  0  0
  -24.3617   -9.4136   21.9223 C   0  0  0  0  0  0
  -23.6267   -8.2180   22.0771 C   0  0  0  0  0  0
  -22.4254   -8.0235   21.3538 C   0  0  0  0  0  0
  -21.9906   -9.0222   20.4658 C   0  0  0  0  0  0
  -22.7255  -10.2092   20.3091 C   0  0  0  0  0  0
  -21.6820   -6.0698   22.5278 C   0  0  0  0  0  0
  -21.3995   -6.5609   23.8210 C   0  0  0  0  0  0
  -21.3670   -5.6779   24.9192 C   0  0  0  0  0  0
  -21.6047   -4.3030   24.7257 C   0  0  0  0  0  0
  -21.8805   -3.8102   23.4386 C   0  0  0  0  0  0
  -21.9184   -4.6919   22.3438 C   0  0  0  0  0  0
  -22.7814  -13.5205   21.1817 C   0  0  0  0  0  0
  -22.1627   -4.2093   21.1014 F   0  0  0  0  0  0
  -21.5695   -3.4528   25.7789 F   0  0  0  0  0  0
  -30.0133  -13.3693   20.4292 N   0  0  0  0  0  0
  -26.2958  -12.9339   20.3300 N   0  0  0  0  0  0
  -25.9318  -11.6489   20.5803 N   0  0  0  0  0  0
  -22.0496  -12.8208   22.0427 N   0  0  0  0  0  0
  -25.4208  -15.1851   20.3909 N   0  0  0  0  0  0
  -31.8203  -14.7121   20.1248 O   0  0  0  0  0  0
  -21.6599   -6.8832   21.4234 O   0  0  0  0  0  0
  -22.3509  -14.5480   20.6604 O   0  0  0  0  0  0
  -24.6191  -31.8598   23.2017 C   0  0  0  0  0  0
  -25.9057  -32.4756   23.8329 C   0  0  1  0  0  0
  -27.2224  -27.3465   20.1297 C   0  0  0  0  0  0
  -25.5892  -33.8560   24.2250 N   0  0  0  0  0  0
  -23.4101  -30.4838   21.5432 C   0  0  2  0  0  0
  -24.8574  -28.9339   20.1162 C   0  0  0  0  0  0
  -22.7404  -29.4646   22.4949 C   0  0  0  0  0  0
  -18.0281  -28.1356   22.8445 C   0  0  0  0  0  0
  -24.1491  -36.7300   23.2648 C   0  0  0  0  0  0
  -25.9463  -30.8018   21.3683 C   0  0  0  0  0  0
  -26.0205  -29.4292   20.7155 C   0  0  0  0  0  0
  -27.2040  -28.6441   20.7132 C   0  0  0  0  0  0
  -26.0394  -26.8865   19.5098 C   0  0  0  0  0  0
  -24.8638  -27.6663   19.5072 C   0  0  0  0  0  0
  -23.6246  -29.8132   20.1600 C   0  0  0  0  0  0
  -25.4124  -36.3066   24.0325 C   0  0  1  0  0  0
  -20.5853  -28.3653   23.1235 C   0  0  2  0  0  0
  -20.6765  -26.9370   22.5359 C   0  0  0  0  0  0
  -19.5709  -26.6239   21.5203 C   0  0  0  0  0  0
  -18.1906  -26.7867   22.1630 C   0  0  0  0  0  0
  -19.1541  -28.8832   23.2820 C   0  0  0  0  0  0
  -18.9477  -30.1444   23.8829 C   0  0  0  0  0  0
  -17.6488  -30.6575   24.0529 C   0  0  0  0  0  0
  -25.9050  -34.9437   23.5091 C   0  0  0  0  0  0
  -16.5371  -29.9034   23.6356 C   0  0  0  0  0  0
  -16.7281  -28.6459   23.0347 C   0  0  0  0  0  0
  -26.4465  -31.6566   25.0694 C   0  0  0  0  0  0
  -25.3742  -31.3695   26.1453 C   0  0  0  0  0  0
  -27.0317  -30.3013   24.6118 C   0  0  0  0  0  0
  -27.5983  -32.4313   25.7464 C   0  0  0  0  0  0
  -27.5573  -37.1821   24.8474 C   0  0  0  0  0  0
  -21.4132  -29.3035   22.3666 N   0  0  0  0  0  0
  -26.4297  -37.3766   23.9402 N   0  0  0  0  0  0
  -24.6775  -31.0649   22.0949 N   0  0  0  0  0  0
  -23.4141  -28.8234   23.3062 O   0  0  0  0  0  0
  -28.3778  -26.5695   20.2130 O   0  0  0  0  0  0
  -26.5650  -34.8907   22.4671 O   0  0  0  0  0  0
  -23.5379  -32.1366   23.7384 O   0  0  0  0  0  0
  -27.9601  -17.9393   21.2152 C   0  0  0  0  0  0
  -26.9693  -18.9407   21.1910 C   0  0  0  0  0  0
  -29.5567  -19.5560   20.3630 C   0  0  0  0  0  0
  -29.2615  -18.2097   20.7563 C   0  0  0  0  0  0
  -28.5682  -20.5979   20.3415 C   0  0  0  0  0  0
  -27.2421  -20.2458   20.7123 C   0  0  0  0  0  0
  -24.1825  -21.3649   19.2171 C   0  0  0  0  0  0
  -23.9815  -21.9563   20.6069 C   0  0  0  0  0  0
  -25.6987  -21.1761   19.1297 C   0  0  0  0  0  0
  -25.0561  -21.2367   21.4119 C   0  0  0  0  0  0
  -29.6389  -24.4059   20.3229 C   0  0  0  0  0  0
  -27.6495  -24.1075   20.7373 C   0  0  0  0  0  0
  -28.3730  -25.1480   19.8582 C   0  0  1  0  0  0
  -30.3269  -17.0778   20.6670 C   0  0  0  0  0  0
  -28.9094  -22.0299   19.7909 C   0  0  0  0  0  0
  -26.2003  -21.1685   20.5057 N   0  0  0  0  0  0
  -29.8965  -15.6546   20.8205 N   0  0  0  0  0  0
  -28.8431  -23.2216   20.7245 N   0  3  1  0  0  0
  -31.4709  -12.4690   19.1360 H   0  0  0  0  0  0
  -30.3553  -11.3556   19.8714 H   0  0  0  0  0  0
  -29.7569  -11.7564   17.4651 H   0  0  0  0  0  0
  -29.6577  -13.4728   17.7508 H   0  0  0  0  0  0
  -27.8658  -11.2880   18.8704 H   0  0  0  0  0  0
  -27.3696  -12.5668   17.7955 H   0  0  0  0  0  0
  -27.6829  -14.2508   19.5347 H   0  0  0  0  0  0
  -28.6852  -12.0258   21.3734 H   0  0  0  0  0  0
  -28.4459  -13.6861   21.8460 H   0  0  0  0  0  0
  -25.2768   -9.5547   22.4808 H   0  0  0  0  0  0
  -23.9938   -7.4531   22.7482 H   0  0  0  0  0  0
  -21.0842   -8.8725   19.8973 H   0  0  0  0  0  0
  -22.3712  -10.9627   19.6181 H   0  0  0  0  0  0
  -21.1933   -7.6108   23.9675 H   0  0  0  0  0  0
  -21.1541   -6.0542   25.9096 H   0  0  0  0  0  0
  -22.0587   -2.7557   23.2923 H   0  0  0  0  0  0
  -22.4117  -11.9867   22.4807 H   0  0  0  0  0  0
  -21.1126  -13.1187   22.2692 H   0  0  0  0  0  0
  -24.6340  -15.8258   20.4187 H   0  0  0  0  0  0
  -26.2568  -15.6035   20.0009 H   0  0  0  0  0  0
  -26.7104  -32.5469   23.1067 H   0  0  0  0  0  0
  -24.9989  -33.9710   25.0367 H   0  0  0  0  0  0
  -22.7010  -31.3007   21.4009 H   0  0  0  0  0  0
  -23.3724  -35.9656   23.3339 H   0  0  0  0  0  0
  -24.3574  -36.8927   22.2053 H   0  0  0  0  0  0
  -23.7269  -37.6527   23.6665 H   0  0  0  0  0  0
  -26.0721  -31.5627   20.5991 H   0  0  0  0  0  0
  -26.8297  -30.8496   21.9932 H   0  0  0  0  0  0
  -28.0965  -29.0190   21.1909 H   0  0  0  0  0  0
  -25.9970  -25.9125   19.0451 H   0  0  0  0  0  0
  -23.9678  -27.2757   19.0447 H   0  0  0  0  0  0
  -23.7478  -30.5921   19.4069 H   0  0  0  0  0  0
  -22.7430  -29.2448   19.8518 H   0  0  0  0  0  0
  -25.1295  -36.1921   25.0818 H   0  0  0  0  0  0
  -20.9889  -28.3207   24.1377 H   0  0  0  0  0  0
  -20.5733  -26.2252   23.3562 H   0  0  0  0  0  0
  -21.6619  -26.7437   22.1134 H   0  0  0  0  0  0
  -19.6660  -27.2900   20.6620 H   0  0  0  0  0  0
  -19.6829  -25.6093   21.1386 H   0  0  0  0  0  0
  -17.4115  -26.6566   21.4087 H   0  0  0  0  0  0
  -18.0306  -26.0054   22.9048 H   0  0  0  0  0  0
  -19.7976  -30.7291   24.2093 H   0  0  0  0  0  0
  -17.4993  -31.6270   24.5087 H   0  0  0  0  0  0
  -15.5383  -30.2905   23.7740 H   0  0  0  0  0  0
  -15.8663  -28.0777   22.7107 H   0  0  0  0  0  0
  -24.5854  -30.7094   25.7818 H   0  0  0  0  0  0
  -24.9008  -32.2868   26.4965 H   0  0  0  0  0  0
  -25.8114  -30.8808   27.0172 H   0  0  0  0  0  0
  -26.2887  -29.6767   24.1144 H   0  0  0  0  0  0
  -27.4069  -29.7231   25.4570 H   0  0  0  0  0  0
  -27.8700  -30.4350   23.9275 H   0  0  0  0  0  0
  -27.2523  -33.3572   26.2072 H   0  0  0  0  0  0
  -28.3760  -32.6979   25.0284 H   0  0  0  0  0  0
  -28.0672  -31.8445   26.5393 H   0  0  0  0  0  0
  -28.2596  -38.0110   24.7464 H   0  0  0  0  0  0
  -28.1056  -36.2632   24.6336 H   0  0  0  0  0  0
  -27.2287  -37.1495   25.8882 H   0  0  0  0  0  0
  -20.9337  -29.8665   21.6776 H   0  0  0  0  0  0
  -26.0170  -38.2837   24.1408 H   0  0  0  0  0  0
  -27.6859  -16.9510   21.5595 H   0  0  0  0  0  0
  -25.9757  -18.6504   21.4981 H   0  0  0  0  0  0
  -30.5585  -19.7812   20.0246 H   0  0  0  0  0  0
  -23.7743  -21.9812   18.4142 H   0  0  0  0  0  0
  -23.6962  -20.3922   19.1659 H   0  0  0  0  0  0
  -22.9771  -21.8031   21.0053 H   0  0  0  0  0  0
  -24.1786  -23.0292   20.5847 H   0  0  0  0  0  0
  -26.1392  -22.0131   18.5877 H   0  0  0  0  0  0
  -25.9556  -20.2637   18.5885 H   0  0  0  0  0  0
  -24.6731  -20.2547   21.6862 H   0  0  0  0  0  0
  -25.2868  -21.7714   22.3348 H   0  0  0  0  0  0
  -30.1052  -24.8819   21.1877 H   0  0  0  0  0  0
  -30.3732  -24.2341   19.5355 H   0  0  0  0  0  0
  -26.7554  -23.6913   20.2829 H   0  0  0  0  0  0
  -27.4357  -24.4748   21.7402 H   0  0  0  0  0  0
  -28.1935  -24.9838   18.7954 H   0  0  0  0  0  0
  -31.1159  -17.2825   21.3927 H   0  0  0  0  0  0
  -30.7967  -17.1762   19.6870 H   0  0  0  0  0  0
  -28.3334  -22.2448   18.8922 H   0  0  0  0  0  0
  -29.9377  -21.9680   19.4341 H   0  0  0  0  0  0
  -28.9442  -15.4754   21.0962 H   0  0  0  0  0  0
  -29.0984  -22.9235   21.6551 H   0  0  0  0  0  0
  1 25  1  0  0  0
  1 30  2  0  0  0
  1 87  1  0  0  0
  2  3  1  0  0  0
  2 25  1  0  0  0
  2 89  1  0  0  0
  2 90  1  0  0  0
  3  4  1  0  0  0
  3 91  1  0  0  0
  3 92  1  0  0  0
  4  5  1  0  0  0
  4 93  1  0  0  0
  4 94  1  0  0  0
  5  6  1  0  0  0
  5 26  1  0  0  0
  5 95  1  0  0  0
  6 25  1  0  0  0
  6 96  1  0  0  0
  6 97  1  0  0  0
  7  8  2  0  0  0
  7 26  1  0  0  0
  7 29  1  0  0  0
  8  9  1  0  0  0
  8 22  1  0  0  0
  9 10  1  0  0  0
  9 27  2  0  0  0
 10 11  2  0  0  0
 10 15  1  0  0  0
 11 12  1  0  0  0
 11 98  1  0  0  0
 12 13  2  0  0  0
 12 99  1  0  0  0
 13 14  1  0  0  0
 13 31  1  0  0  0
 14 15  2  0  0  0
 14100  1  0  0  0
 15101  1  0  0  0
 16 17  2  0  0  0
 16 21  1  0  0  0
 16 31  1  0  0  0
 17 18  1  0  0  0
 17102  1  0  0  0
 18 19  2  0  0  0
 18103  1  0  0  0
 19 20  1  0  0  0
 19 24  1  0  0  0
 20 21  2  0  0  0
 20104  1  0  0  0
 21 23  1  0  0  0
 22 28  1  0  0  0
 22 32  2  0  0  0
 26 27  1  0  0  0
 28105  1  0  0  0
 28106  1  0  0  0
 29107  1  0  0  0
 29108  1  0  0  0
 33 34  1  0  0  0
 33 66  1  0  0  0
 33 70  2  0  0  0
 34 36  1  0  0  0
 34 59  1  0  0  0
 34109  1  0  0  0
 35 44  2  0  0  0
 35 45  1  0  0  0
 35 68  1  0  0  0
 36 56  1  0  0  0
 36110  1  0  0  0
 37 39  1  0  0  0
 37 47  1  0  0  0
 37 66  1  0  0  0
 37111  1  0  0  0
 38 43  2  0  0  0
 38 46  1  0  0  0
 38 47  1  0  0  0
 39 64  1  0  0  0
 39 67  2  0  0  0
 40 52  1  0  0  0
 40 53  2  0  0  0
 40 58  1  0  0  0
 41112  1  0  0  0
 41113  1  0  0  0
 41114  1  0  0  0
 41 48  1  0  0  0
 42 43  1  0  0  0
 42 66  1  0  0  0
 42115  1  0  0  0
 42116  1  0  0  0
 43 44  1  0  0  0
 44117  1  0  0  0
 45 46  2  0  0  0
 45118  1  0  0  0
 46119  1  0  0  0
 47120  1  0  0  0
 47121  1  0  0  0
 48 56  1  0  0  0
 48 65  1  0  0  0
 48122  1  0  0  0
 49 50  1  0  0  0
 49 53  1  0  0  0
 49 64  1  0  0  0
 49123  1  0  0  0
 50 51  1  0  0  0
 50124  1  0  0  0
 50125  1  0  0  0
 51 52  1  0  0  0
 51126  1  0  0  0
 51127  1  0  0  0
 52128  1  0  0  0
 52129  1  0  0  0
 53 54  1  0  0  0
 54 55  2  0  0  0
 54130  1  0  0  0
 55 57  1  0  0  0
 55131  1  0  0  0
 56 69  2  0  0  0
 57 58  2  0  0  0
 57132  1  0  0  0
 58133  1  0  0  0
 59 60  1  0  0  0
 59 61  1  0  0  0
 59 62  1  0  0  0
 60134  1  0  0  0
 60135  1  0  0  0
 60136  1  0  0  0
 61137  1  0  0  0
 61138  1  0  0  0
 61139  1  0  0  0
 62140  1  0  0  0
 62141  1  0  0  0
 62142  1  0  0  0
 63 65  1  0  0  0
 63143  1  0  0  0
 63144  1  0  0  0
 63145  1  0  0  0
 64146  1  0  0  0
 65147  1  0  0  0
 68 83  1  0  0  0
 71 72  2  0  0  0
 71 74  1  0  0  0
 71148  1  0  0  0
 72 76  1  0  0  0
 72149  1  0  0  0
 73 74  2  0  0  0
 73 75  1  0  0  0
 73150  1  0  0  0
 74 84  1  0  0  0
 75 76  2  0  0  0
 75 85  1  0  0  0
 76 86  1  0  0  0
 77 78  1  0  0  0
 77 79  1  0  0  0
 77151  1  0  0  0
 77152  1  0  0  0
 78 80  1  0  0  0
 78153  1  0  0  0
 78154  1  0  0  0
 79 86  1  0  0  0
 79155  1  0  0  0
 79156  1  0  0  0
 80 86  1  0  0  0
 80157  1  0  0  0
 80158  1  0  0  0
 81 83  1  0  0  0
 81 88  1  0  0  0
 81159  1  0  0  0
 81160  1  0  0  0
 82 83  1  0  0  0
 82 88  1  0  0  0
 82161  1  0  0  0
 82162  1  0  0  0
 83163  1  0  0  0
 84 87  1  0  0  0
 84164  1  0  0  0
 84165  1  0  0  0
 85166  1  0  0  0
 85167  1  0  0  0
 85 88  1  0  0  0
 87168  1  0  0  0
 88169  1  0  0  0
M  CHG  1  88   1
M  ISO  4   1 100  68 101  83 101  87 100
M  END
> <chiral flag>
0

> <version>
0

> <s_m_source_file>
/data/baiqing/PycharmProjects/Reinvent-master-3.2/result/LINK_invent/BTK/process_docking_weight1_custom_product_contain_oxygen_bond_distance_aromatic_linkinvent_7_9_3/rearranged_h_0025.sdf

> <i_m_source_file_index>
52

> <r_mmod_Potential_Energy-OPLS-2005>
-169.693634033203

> <r_mmod_Stretch_Energy-OPLS-2005>
64.3991546630859

> <r_mmod_Bend_Energy-OPLS-2005>
176.576095581055

> <r_mmod_Torsional_Energy-OPLS-2005>
289.423248291016

> <r_mmod_Improper_Torsional_Energy-OPLS-2005>
10.7147541046143

> <r_mmod_Van_der_Waal_Energy-OPLS-2005>
137.467758178711

> <r_mmod_Electrostatic_Energy-OPLS-2005>
-438.731872558594

> <r_mmod_Solvation_Energy-OPLS-2005>
-443.692901611328

> <b_mmod_Minimization_Converged-OPLS-2005>
0

> <r_mmod_RMS_Derivative-OPLS-2005>
5.15112209320068

$$$$
52
                    3D
 Structure written by MMmdl.
162171  0  0  1  0            999 V2000
  -30.6815  -14.5427   20.5943 C   0  0  0  0  0  0
  -30.4213  -12.3653   19.4328 C   0  0  0  0  0  0
  -29.4888  -12.5270   18.2118 C   0  0  0  0  0  0
  -28.0095  -12.3668   18.6169 C   0  0  0  0  0  0
  -27.6524  -13.1973   19.8757 C   0  0  2  0  0  0
  -28.6942  -12.9458   20.9849 C   0  0  0  0  0  0
  -25.2522  -13.8115   20.5621 C   0  0  0  0  0  0
  -24.1795  -13.0415   20.9184 C   0  0  0  0  0  0
  -24.6343  -11.6885   20.8751 C   0  0  0  0  0  0
  -23.9001  -10.4285   21.0433 C   0  0  0  0  0  0
  -24.3557   -9.4207   21.9207 C   0  0  0  0  0  0
  -23.6253   -8.2228   22.0773 C   0  0  0  0  0  0
  -22.4247   -8.0263   21.3549 C   0  0  0  0  0  0
  -21.9869   -9.0241   20.4652 C   0  0  0  0  0  0
  -22.7173  -10.2132   20.3077 C   0  0  0  0  0  0
  -21.6859   -6.0717   22.5273 C   0  0  0  0  0  0
  -21.4022   -6.5631   23.8201 C   0  0  0  0  0  0
  -21.3671   -5.6789   24.9166 C   0  0  0  0  0  0
  -21.6044   -4.3049   24.7221 C   0  0  0  0  0  0
  -21.8837   -3.8131   23.4344 C   0  0  0  0  0  0
  -21.9197   -4.6943   22.3397 C   0  0  0  0  0  0
  -22.7832  -13.5244   21.1843 C   0  0  0  0  0  0
  -22.1676   -4.2135   21.0986 F   0  0  0  0  0  0
  -21.5617   -3.4528   25.7731 F   0  0  0  0  0  0
  -30.0068  -13.3528   20.4563 N   0  0  0  0  0  0
  -26.2950  -12.9268   20.3364 N   0  0  0  0  0  0
  -25.9259  -11.6433   20.5777 N   0  0  0  0  0  0
  -22.0451  -12.8289   22.0425 N   0  0  0  0  0  0
  -25.4170  -15.1825   20.3909 N   0  0  0  0  0  0
  -31.8113  -14.6518   20.1041 O   0  0  0  0  0  0
  -21.6639   -6.8846   21.4231 O   0  0  0  0  0  0
  -22.3536  -14.5536   20.6649 O   0  0  0  0  0  0
  -24.6121  -31.8667   23.2079 C   0  0  0  0  0  0
  -25.9008  -32.4823   23.8403 C   0  0  1  0  0  0
  -27.2461  -27.4332   20.1271 C   0  0  0  0  0  0
  -25.5871  -33.8625   24.2328 N   0  0  0  0  0  0
  -23.4041  -30.4853   21.5481 C   0  0  2  0  0  0
  -24.8553  -28.9425   20.1261 C   0  0  0  0  0  0
  -22.7423  -29.4632   22.4996 C   0  0  0  0  0  0
  -18.0276  -28.1401   22.8515 C   0  0  0  0  0  0
  -24.1479  -36.7329   23.2633 C   0  0  0  0  0  0
  -25.9293  -30.8327   21.3614 C   0  0  0  0  0  0
  -26.0109  -29.4602   20.7251 C   0  0  0  0  0  0
  -27.2095  -28.7128   20.7252 C   0  0  0  0  0  0
  -26.0777  -26.9239   19.5251 C   0  0  0  0  0  0
  -24.8809  -27.6696   19.5245 C   0  0  0  0  0  0
  -23.6171  -29.8101   20.1653 C   0  0  0  0  0  0
  -25.4098  -36.3121   24.0332 C   0  0  1  0  0  0
  -20.5867  -28.3663   23.1352 C   0  0  2  0  0  0
  -20.6762  -26.9403   22.5433 C   0  0  0  0  0  0
  -19.5730  -26.6398   21.5236 C   0  0  0  0  0  0
  -18.1918  -26.7945   22.1651 C   0  0  0  0  0  0
  -19.1528  -28.8856   23.2918 C   0  0  0  0  0  0
  -18.9449  -30.1481   23.8906 C   0  0  0  0  0  0
  -17.6456  -30.6604   24.0583 C   0  0  0  0  0  0
  -25.9031  -34.9489   23.5133 C   0  0  0  0  0  0
  -16.5348  -29.9111   23.6351 C   0  0  0  0  0  0
  -16.7267  -28.6531   23.0352 C   0  0  0  0  0  0
  -26.4476  -31.6590   25.0715 C   0  0  0  0  0  0
  -25.3764  -31.3673   26.1463 C   0  0  0  0  0  0
  -27.0280  -30.3033   24.6062 C   0  0  0  0  0  0
  -27.6064  -32.4314   25.7466 C   0  0  0  0  0  0
  -27.5571  -37.1821   24.8456 C   0  0  0  0  0  0
  -21.4141  -29.3016   22.3766 N   0  0  0  0  0  0
  -26.4285  -37.3800   23.9404 N   0  0  0  0  0  0
  -24.6678  -31.0769   22.0992 N   0  0  0  0  0  0
  -23.4195  -28.8173   23.3031 O   0  0  0  0  0  0
  -28.4162  -26.7106   20.0719 O   0  0  0  0  0  0
  -26.5612  -34.8930   22.4711 O   0  0  0  0  0  0
  -23.5315  -32.1413   23.7474 O   0  0  0  0  0  0
  -31.0763  -20.8184   21.9763 C   0  0  0  0  0  0
  -31.8818  -19.6955   22.2231 C   0  0  0  0  0  0
  -30.4666  -18.2942   20.7832 C   0  0  0  0  0  0
  -29.9739  -20.7195   21.1050 C   0  0  0  0  0  0
  -31.6002  -18.4536   21.6256 C   0  0  0  0  0  0
  -29.6680  -19.4524   20.5226 C   0  0  0  0  0  0
  -29.1357  -15.3762   23.3432 C   0  0  0  0  0  0
  -28.8937  -16.8242   23.0218 C   0  0  0  0  0  0
  -28.9161  -15.7991   21.8988 C   0  0  0  0  0  0
  -30.1548  -16.9239   20.1114 C   0  0  0  0  0  0
  -28.7734  -24.2958   20.4375 C   0  0  0  0  0  0
  -29.2922  -23.1787   21.3863 C   0  0  0  0  0  0
  -28.5980  -25.6976   21.0756 C   0  0  0  0  0  0
  -29.1897  -21.8464   20.7709 N   0  0  0  0  0  0
  -30.0034  -15.6937   20.9502 N   0  0  0  0  0  0
  -32.6840  -17.1527   21.9617 Cl  0  0  0  0  0  0
  -28.3007  -19.3615   19.4575 Cl  0  0  0  0  0  0
  -31.4608  -12.4802   19.1216 H   0  0  0  0  0  0
  -30.3474  -11.3509   19.8284 H   0  0  0  0  0  0
  -29.7419  -11.7987   17.4393 H   0  0  0  0  0  0
  -29.6371  -13.5133   17.7680 H   0  0  0  0  0  0
  -27.8235  -11.3088   18.8023 H   0  0  0  0  0  0
  -27.3574  -12.6404   17.7878 H   0  0  0  0  0  0
  -27.7028  -14.2472   19.5881 H   0  0  0  0  0  0
  -28.7126  -11.8853   21.2390 H   0  0  0  0  0  0
  -28.4140  -13.4120   21.9196 H   0  0  0  0  0  0
  -25.2701   -9.5713   22.4783 H   0  0  0  0  0  0
  -23.9968   -7.4640   22.7519 H   0  0  0  0  0  0
  -21.0789   -8.8735   19.8974 H   0  0  0  0  0  0
  -22.3602  -10.9663   19.6188 H   0  0  0  0  0  0
  -21.2029   -7.6144   23.9697 H   0  0  0  0  0  0
  -21.1484   -6.0528   25.9069 H   0  0  0  0  0  0
  -22.0607   -2.7588   23.2852 H   0  0  0  0  0  0
  -22.4003  -11.9935   22.4821 H   0  0  0  0  0  0
  -21.1077  -13.1370   22.2596 H   0  0  0  0  0  0
  -24.6330  -15.8198   20.4738 H   0  0  0  0  0  0
  -26.2457  -15.6195   20.0112 H   0  0  0  0  0  0
  -26.7088  -32.5560   23.1190 H   0  0  0  0  0  0
  -25.0026  -33.9788   25.0470 H   0  0  0  0  0  0
  -22.6935  -31.3015   21.4059 H   0  0  0  0  0  0
  -23.3743  -35.9661   23.3322 H   0  0  0  0  0  0
  -24.3568  -36.8924   22.2041 H   0  0  0  0  0  0
  -23.7245  -37.6544   23.6645 H   0  0  0  0  0  0
  -26.0346  -31.5905   20.5853 H   0  0  0  0  0  0
  -26.8197  -30.8975   21.9744 H   0  0  0  0  0  0
  -28.1049  -29.1108   21.1817 H   0  0  0  0  0  0
  -26.0994  -25.9517   19.0530 H   0  0  0  0  0  0
  -23.9945  -27.2644   19.0557 H   0  0  0  0  0  0
  -23.7318  -30.5816   19.4046 H   0  0  0  0  0  0
  -22.7441  -29.2276   19.8646 H   0  0  0  0  0  0
  -25.1293  -36.1993   25.0830 H   0  0  0  0  0  0
  -20.9975  -28.3233   24.1463 H   0  0  0  0  0  0
  -20.5668  -26.2272   23.3616 H   0  0  0  0  0  0
  -21.6646  -26.7456   22.1248 H   0  0  0  0  0  0
  -19.6876  -25.6313   21.1259 H   0  0  0  0  0  0
  -19.6659  -27.3244   20.6801 H   0  0  0  0  0  0
  -17.4197  -26.6741   21.4039 H   0  0  0  0  0  0
  -18.0293  -26.0054   22.9011 H   0  0  0  0  0  0
  -19.7914  -30.7310   24.2257 H   0  0  0  0  0  0
  -17.5007  -31.6263   24.5213 H   0  0  0  0  0  0
  -15.5355  -30.3018   23.7654 H   0  0  0  0  0  0
  -15.8665  -28.0858   22.7044 H   0  0  0  0  0  0
  -24.5964  -30.6978   25.7822 H   0  0  0  0  0  0
  -24.8917  -32.2804   26.4919 H   0  0  0  0  0  0
  -25.8129  -30.8860   27.0217 H   0  0  0  0  0  0
  -26.2772  -29.6814   24.1162 H   0  0  0  0  0  0
  -27.4101  -29.7250   25.4489 H   0  0  0  0  0  0
  -27.8607  -30.4367   23.9149 H   0  0  0  0  0  0
  -27.2699  -33.3614   26.2063 H   0  0  0  0  0  0
  -28.3860  -32.6877   25.0281 H   0  0  0  0  0  0
  -28.0749  -31.8421   26.5354 H   0  0  0  0  0  0
  -28.2635  -38.0081   24.7526 H   0  0  0  0  0  0
  -28.1044  -36.2641   24.6297 H   0  0  0  0  0  0
  -27.2293  -37.1474   25.8854 H   0  0  0  0  0  0
  -20.9296  -29.8758   21.7020 H   0  0  0  0  0  0
  -26.0186  -38.2881   24.1416 H   0  0  0  0  0  0
  -31.3435  -21.7484   22.4519 H   0  0  0  0  0  0
  -32.7416  -19.7913   22.8697 H   0  0  0  0  0  0
  -28.3337  -14.8375   23.8450 H   0  0  0  0  0  0
  -30.1400  -15.0997   23.6535 H   0  0  0  0  0  0
  -29.7333  -17.4863   23.1926 H   0  0  0  0  0  0
  -27.9237  -17.2445   23.2829 H   0  0  0  0  0  0
  -27.9272  -15.6200   21.4830 H   0  0  0  0  0  0
  -30.9193  -16.7941   19.3450 H   0  0  0  0  0  0
  -29.2328  -16.9822   19.5390 H   0  0  0  0  0  0
  -27.8185  -24.0044   20.0027 H   0  0  0  0  0  0
  -29.4732  -24.3770   19.6045 H   0  0  0  0  0  0
  -28.7131  -23.1737   22.3109 H   0  0  0  0  0  0
  -30.3202  -23.4108   21.6646 H   0  0  0  0  0  0
  -29.4934  -25.9628   21.6385 H   0  0  0  0  0  0
  -27.7773  -25.6780   21.7963 H   0  0  0  0  0  0
  -28.4011  -21.6721   20.1541 H   0  0  0  0  0  0
  1 25  1  0  0  0
  1 30  2  0  0  0
  1 85  1  0  0  0
  2  3  1  0  0  0
  2 25  1  0  0  0
  2 88  1  0  0  0
  2 89  1  0  0  0
  3  4  1  0  0  0
  3 90  1  0  0  0
  3 91  1  0  0  0
  4  5  1  0  0  0
  4 92  1  0  0  0
  4 93  1  0  0  0
  5  6  1  0  0  0
  5 26  1  0  0  0
  5 94  1  0  0  0
  6 25  1  0  0  0
  6 95  1  0  0  0
  6 96  1  0  0  0
  7  8  2  0  0  0
  7 26  1  0  0  0
  7 29  1  0  0  0
  8  9  1  0  0  0
  8 22  1  0  0  0
  9 10  1  0  0  0
  9 27  2  0  0  0
 10 11  2  0  0  0
 10 15  1  0  0  0
 11 12  1  0  0  0
 11 97  1  0  0  0
 12 13  2  0  0  0
 12 98  1  0  0  0
 13 14  1  0  0  0
 13 31  1  0  0  0
 14 15  2  0  0  0
 14 99  1  0  0  0
 15100  1  0  0  0
 16 17  2  0  0  0
 16 21  1  0  0  0
 16 31  1  0  0  0
 17 18  1  0  0  0
 17101  1  0  0  0
 18 19  2  0  0  0
 18102  1  0  0  0
 19 20  1  0  0  0
 19 24  1  0  0  0
 20 21  2  0  0  0
 20103  1  0  0  0
 21 23  1  0  0  0
 22 28  1  0  0  0
 22 32  2  0  0  0
 26 27  1  0  0  0
 28104  1  0  0  0
 28105  1  0  0  0
 29106  1  0  0  0
 29107  1  0  0  0
 33 34  1  0  0  0
 33 66  1  0  0  0
 33 70  2  0  0  0
 34 36  1  0  0  0
 34 59  1  0  0  0
 34108  1  0  0  0
 35 44  2  0  0  0
 35 45  1  0  0  0
 35 68  1  0  0  0
 36 56  1  0  0  0
 36109  1  0  0  0
 37 39  1  0  0  0
 37 47  1  0  0  0
 37 66  1  0  0  0
 37110  1  0  0  0
 38 43  2  0  0  0
 38 46  1  0  0  0
 38 47  1  0  0  0
 39 64  1  0  0  0
 39 67  2  0  0  0
 40 52  1  0  0  0
 40 53  2  0  0  0
 40 58  1  0  0  0
 41111  1  0  0  0
 41112  1  0  0  0
 41113  1  0  0  0
 41 48  1  0  0  0
 42 43  1  0  0  0
 42 66  1  0  0  0
 42114  1  0  0  0
 42115  1  0  0  0
 43 44  1  0  0  0
 44116  1  0  0  0
 45 46  2  0  0  0
 45117  1  0  0  0
 46118  1  0  0  0
 47119  1  0  0  0
 47120  1  0  0  0
 48 56  1  0  0  0
 48 65  1  0  0  0
 48121  1  0  0  0
 49 50  1  0  0  0
 49 53  1  0  0  0
 49 64  1  0  0  0
 49122  1  0  0  0
 50 51  1  0  0  0
 50123  1  0  0  0
 50124  1  0  0  0
 51 52  1  0  0  0
 51125  1  0  0  0
 51126  1  0  0  0
 52127  1  0  0  0
 52128  1  0  0  0
 53 54  1  0  0  0
 54 55  2  0  0  0
 54129  1  0  0  0
 55 57  1  0  0  0
 55130  1  0  0  0
 56 69  2  0  0  0
 57 58  2  0  0  0
 57131  1  0  0  0
 58132  1  0  0  0
 59 60  1  0  0  0
 59 61  1  0  0  0
 59 62  1  0  0  0
 60133  1  0  0  0
 60134  1  0  0  0
 60135  1  0  0  0
 61136  1  0  0  0
 61137  1  0  0  0
 61138  1  0  0  0
 62139  1  0  0  0
 62140  1  0  0  0
 62141  1  0  0  0
 63 65  1  0  0  0
 63142  1  0  0  0
 63143  1  0  0  0
 63144  1  0  0  0
 64145  1  0  0  0
 65146  1  0  0  0
 68 83  1  0  0  0
 71 72  2  0  0  0
 71 74  1  0  0  0
 71147  1  0  0  0
 72 75  1  0  0  0
 72148  1  0  0  0
 73 75  2  0  0  0
 73 76  1  0  0  0
 73 80  1  0  0  0
 74 76  2  0  0  0
 74 84  1  0  0  0
 75 86  1  0  0  0
 76 87  1  0  0  0
 77 78  1  0  0  0
 77 79  1  0  0  0
 77149  1  0  0  0
 77150  1  0  0  0
 78 79  1  0  0  0
 78151  1  0  0  0
 78152  1  0  0  0
 79 85  1  0  0  0
 79153  1  0  0  0
 80 85  1  0  0  0
 80154  1  0  0  0
 80155  1  0  0  0
 81 82  1  0  0  0
 81 83  1  0  0  0
 81156  1  0  0  0
 81157  1  0  0  0
 82 84  1  0  0  0
 82158  1  0  0  0
 82159  1  0  0  0
 83160  1  0  0  0
 83161  1  0  0  0
 84162  1  0  0  0
M  ISO  4   1 100  68 101  83 101  85 100
M  END
> <chiral flag>
0

> <version>
0

> <s_m_source_file>
/data/baiqing/PycharmProjects/Reinvent-master-3.2/result/LINK_invent/BTK/process_docking_weight1_custom_product_contain_oxygen_bond_distance_aromatic_linkinvent_7_9_3/rearranged_h_0025.sdf

> <i_m_source_file_index>
53

> <r_mmod_Potential_Energy-OPLS-2005>
257.168151855469

> <r_mmod_Stretch_Energy-OPLS-2005>
52.7564582824707

> <r_mmod_Bend_Energy-OPLS-2005>
138.677429199219

> <r_mmod_Torsional_Energy-OPLS-2005>
357.259918212891

> <r_mmod_Improper_Torsional_Energy-OPLS-2005>
10.3113355636597

> <r_mmod_Van_der_Waal_Energy-OPLS-2005>
157.235641479492

> <r_mmod_Electrostatic_Energy-OPLS-2005>
-283.252685546875

> <r_mmod_Solvation_Energy-OPLS-2005>
-192.254974365234

> <b_mmod_Minimization_Converged-OPLS-2005>
0

> <r_mmod_RMS_Derivative-OPLS-2005>
3.69577574729919

$$$$
53
                    3D
 Structure written by MMmdl.
154163  0  0  1  0            999 V2000
  -30.5907  -14.7303   20.4806 C   0  0  0  0  0  0
  -30.4477  -12.4464   19.4665 C   0  0  0  0  0  0
  -29.5161  -12.5134   18.2340 C   0  0  0  0  0  0
  -28.0396  -12.3407   18.6462 C   0  0  0  0  0  0
  -27.6503  -13.2257   19.8598 C   0  0  2  0  0  0
  -28.6969  -13.1180   20.9911 C   0  0  0  0  0  0
  -25.2535  -13.8169   20.5704 C   0  0  0  0  0  0
  -24.1813  -13.0418   20.9180 C   0  0  0  0  0  0
  -24.6402  -11.6901   20.8729 C   0  0  0  0  0  0
  -23.9076  -10.4279   21.0400 C   0  0  0  0  0  0
  -24.3624   -9.4200   21.9185 C   0  0  0  0  0  0
  -23.6295   -8.2239   22.0751 C   0  0  0  0  0  0
  -22.4276   -8.0280   21.3543 C   0  0  0  0  0  0
  -21.9917   -9.0251   20.4641 C   0  0  0  0  0  0
  -22.7248  -10.2125   20.3048 C   0  0  0  0  0  0
  -21.6855   -6.0741   22.5285 C   0  0  0  0  0  0
  -21.4012   -6.5643   23.8219 C   0  0  0  0  0  0
  -21.3659   -5.6793   24.9180 C   0  0  0  0  0  0
  -21.6046   -4.3056   24.7226 C   0  0  0  0  0  0
  -21.8819   -3.8151   23.4346 C   0  0  0  0  0  0
  -21.9191   -4.6970   22.3405 C   0  0  0  0  0  0
  -22.7837  -13.5208   21.1859 C   0  0  0  0  0  0
  -22.1668   -4.2159   21.0982 F   0  0  0  0  0  0
  -21.5626   -3.4537   25.7737 F   0  0  0  0  0  0
  -30.0040  -13.4848   20.4221 N   0  0  0  0  0  0
  -26.2985  -12.9376   20.3328 N   0  0  0  0  0  0
  -25.9341  -11.6519   20.5755 N   0  0  0  0  0  0
  -22.0481  -12.8191   22.0408 N   0  0  0  0  0  0
  -25.4199  -15.1893   20.4213 N   0  0  0  0  0  0
  -31.7636  -14.8878   20.1276 O   0  0  0  0  0  0
  -21.6636   -6.8882   21.4245 O   0  0  0  0  0  0
  -22.3517  -14.5523   20.6724 O   0  0  0  0  0  0
  -24.6297  -31.8558   23.1969 C   0  0  0  0  0  0
  -25.9114  -32.4769   23.8315 C   0  0  1  0  0  0
  -27.2320  -27.2703   20.1235 C   0  0  0  0  0  0
  -25.5916  -33.8567   24.2252 N   0  0  0  0  0  0
  -23.4270  -30.4759   21.5403 C   0  0  2  0  0  0
  -24.8749  -28.9193   20.1135 C   0  0  0  0  0  0
  -22.7497  -29.4608   22.4920 C   0  0  0  0  0  0
  -18.0299  -28.1401   22.8497 C   0  0  0  0  0  0
  -24.1483  -36.7276   23.2640 C   0  0  0  0  0  0
  -25.9707  -30.7713   21.3735 C   0  0  0  0  0  0
  -26.0454  -29.3926   20.7189 C   0  0  0  0  0  0
  -27.2240  -28.5806   20.7110 C   0  0  0  0  0  0
  -26.0305  -26.8557   19.5029 C   0  0  0  0  0  0
  -24.8721  -27.6599   19.4962 C   0  0  0  0  0  0
  -23.6450  -29.8051   20.1586 C   0  0  0  0  0  0
  -25.4116  -36.3082   24.0332 C   0  0  1  0  0  0
  -20.5898  -28.3702   23.1279 C   0  0  2  0  0  0
  -20.6776  -26.9421   22.5405 C   0  0  0  0  0  0
  -19.5744  -26.6409   21.5207 C   0  0  0  0  0  0
  -18.1934  -26.7948   22.1630 C   0  0  0  0  0  0
  -19.1553  -28.8871   23.2882 C   0  0  0  0  0  0
  -18.9475  -30.1476   23.8896 C   0  0  0  0  0  0
  -17.6473  -30.6599   24.0580 C   0  0  0  0  0  0
  -25.9050  -34.9451   23.5097 C   0  0  0  0  0  0
  -16.5368  -29.9096   23.6342 C   0  0  0  0  0  0
  -16.7287  -28.6516   23.0364 C   0  0  0  0  0  0
  -26.4483  -31.6595   25.0702 C   0  0  0  0  0  0
  -25.3704  -31.3746   26.1426 C   0  0  0  0  0  0
  -27.0314  -30.3021   24.6157 C   0  0  0  0  0  0
  -27.6049  -32.4324   25.7467 C   0  0  0  0  0  0
  -27.5584  -37.1797   24.8474 C   0  0  0  0  0  0
  -21.4207  -29.3044   22.3663 N   0  0  0  0  0  0
  -26.4293  -37.3784   23.9418 N   0  0  0  0  0  0
  -24.6948  -31.0532   22.0937 N   0  0  0  0  0  0
  -23.4200  -28.8171   23.3039 O   0  0  0  0  0  0
  -28.3604  -26.4174   20.1746 O   0  0  0  0  0  0
  -26.5637  -34.8922   22.4673 O   0  0  0  0  0  0
  -23.5445  -32.1373   23.7273 O   0  0  0  0  0  0
  -30.8263  -19.5348   20.4419 C   0  0  0  0  0  0
  -30.9193  -18.0973   20.4260 C   0  0  0  0  0  0
  -28.4906  -19.4060   20.9228 C   0  0  0  0  0  0
  -29.6147  -20.2517   20.7085 C   0  0  0  0  0  0
  -29.7927  -17.2638   20.6827 C   0  0  0  0  0  0
  -28.5793  -17.9749   20.9089 C   0  0  0  0  0  0
  -27.9368  -23.8512   20.8383 C   0  0  0  0  0  0
  -29.6108  -24.1284   19.7664 C   0  0  0  0  0  0
  -28.2914  -24.9624   19.7989 C   0  0  2  0  0  0
  -29.5971  -21.8298   21.0075 C   0  0  0  0  0  0
  -29.7474  -15.7837   20.7743 N   0  0  0  0  0  0
  -28.8693  -22.8910   20.1632 N   0  3  1  0  0  0
  -27.4598  -17.2529   21.1508 F   0  0  0  0  0  0
  -31.4862  -12.5880   19.1615 H   0  0  0  0  0  0
  -30.4042  -11.4594   19.9303 H   0  0  0  0  0  0
  -29.7934  -11.7452   17.5104 H   0  0  0  0  0  0
  -29.6466  -13.4710   17.7275 H   0  0  0  0  0  0
  -27.8903  -11.2896   18.8961 H   0  0  0  0  0  0
  -27.3836  -12.5481   17.7998 H   0  0  0  0  0  0
  -27.6526  -14.2545   19.4995 H   0  0  0  0  0  0
  -28.7273  -12.1030   21.3903 H   0  0  0  0  0  0
  -28.4305  -13.7609   21.8313 H   0  0  0  0  0  0
  -25.2763   -9.5684   22.4765 H   0  0  0  0  0  0
  -24.0010   -7.4628   22.7468 H   0  0  0  0  0  0
  -21.0854   -8.8767   19.8944 H   0  0  0  0  0  0
  -22.3709  -10.9666   19.6158 H   0  0  0  0  0  0
  -21.2001   -7.6149   23.9727 H   0  0  0  0  0  0
  -21.1487   -6.0521   25.9084 H   0  0  0  0  0  0
  -22.0595   -2.7615   23.2841 H   0  0  0  0  0  0
  -22.4083  -11.9832   22.4775 H   0  0  0  0  0  0
  -21.1101  -13.1224   22.2625 H   0  0  0  0  0  0
  -24.6597  -15.8397   20.5848 H   0  0  0  0  0  0
  -26.2966  -15.6593   20.2305 H   0  0  0  0  0  0
  -26.7185  -32.5446   23.1062 H   0  0  0  0  0  0
  -25.0052  -33.9701   25.0388 H   0  0  0  0  0  0
  -22.7239  -31.2981   21.3923 H   0  0  0  0  0  0
  -23.3761  -35.9594   23.3313 H   0  0  0  0  0  0
  -24.3566  -36.8885   22.2051 H   0  0  0  0  0  0
  -23.7203  -37.6465   23.6655 H   0  0  0  0  0  0
  -26.1057  -31.5286   20.6000 H   0  0  0  0  0  0
  -26.8483  -30.8248   22.0054 H   0  0  0  0  0  0
  -28.1224  -28.9416   21.1914 H   0  0  0  0  0  0
  -25.9489  -25.8913   19.0270 H   0  0  0  0  0  0
  -23.9732  -27.2937   19.0184 H   0  0  0  0  0  0
  -23.7689  -30.5760   19.3972 H   0  0  0  0  0  0
  -22.7648  -29.2346   19.8582 H   0  0  0  0  0  0
  -25.1295  -36.1933   25.0826 H   0  0  0  0  0  0
  -21.0003  -28.3272   24.1395 H   0  0  0  0  0  0
  -20.5662  -26.2304   23.3600 H   0  0  0  0  0  0
  -21.6646  -26.7440   22.1204 H   0  0  0  0  0  0
  -19.6886  -25.6323   21.1225 H   0  0  0  0  0  0
  -19.6684  -27.3228   20.6740 H   0  0  0  0  0  0
  -17.4200  -26.6718   21.4036 H   0  0  0  0  0  0
  -18.0342  -26.0084   22.9018 H   0  0  0  0  0  0
  -19.7951  -30.7298   24.2260 H   0  0  0  0  0  0
  -17.5030  -31.6276   24.5188 H   0  0  0  0  0  0
  -15.5369  -30.3000   23.7659 H   0  0  0  0  0  0
  -15.8692  -28.0830   22.7080 H   0  0  0  0  0  0
  -24.5897  -30.7073   25.7769 H   0  0  0  0  0  0
  -24.8865  -32.2908   26.4829 H   0  0  0  0  0  0
  -25.8023  -30.8957   27.0220 H   0  0  0  0  0  0
  -26.2879  -29.6790   24.1180 H   0  0  0  0  0  0
  -27.4009  -29.7275   25.4656 H   0  0  0  0  0  0
  -27.8756  -30.4320   23.9378 H   0  0  0  0  0  0
  -27.2690  -33.3646   26.2019 H   0  0  0  0  0  0
  -28.3870  -32.6846   25.0293 H   0  0  0  0  0  0
  -28.0697  -31.8448   26.5393 H   0  0  0  0  0  0
  -28.2619  -38.0082   24.7540 H   0  0  0  0  0  0
  -28.1064  -36.2621   24.6292 H   0  0  0  0  0  0
  -27.2304  -37.1438   25.8875 H   0  0  0  0  0  0
  -20.9395  -29.8758   21.6863 H   0  0  0  0  0  0
  -26.0178  -38.2857   24.1430 H   0  0  0  0  0  0
  -31.7401  -20.0969   20.3022 H   0  0  0  0  0  0
  -31.8842  -17.6422   20.2522 H   0  0  0  0  0  0
  -27.5363  -19.8519   21.1627 H   0  0  0  0  0  0
  -26.8946  -23.5322   20.8251 H   0  0  0  0  0  0
  -28.2508  -24.1082   21.8529 H   0  0  0  0  0  0
  -30.3370  -24.4553   20.5133 H   0  0  0  0  0  0
  -30.0740  -24.0568   18.7823 H   0  0  0  0  0  0
  -27.7740  -24.8156   18.8498 H   0  0  0  0  0  0
  -30.6408  -22.1395   21.0678 H   0  0  0  0  0  0
  -29.2344  -21.9311   22.0301 H   0  0  0  0  0  0
  -28.8319  -15.4550   21.0415 H   0  0  0  0  0  0
  -28.4341  -22.4713   19.3573 H   0  0  0  0  0  0
  1 25  1  0  0  0
  1 30  2  0  0  0
  1 81  1  0  0  0
  2  3  1  0  0  0
  2 25  1  0  0  0
  2 84  1  0  0  0
  2 85  1  0  0  0
  3  4  1  0  0  0
  3 86  1  0  0  0
  3 87  1  0  0  0
  4  5  1  0  0  0
  4 88  1  0  0  0
  4 89  1  0  0  0
  5  6  1  0  0  0
  5 26  1  0  0  0
  5 90  1  0  0  0
  6 25  1  0  0  0
  6 91  1  0  0  0
  6 92  1  0  0  0
  7  8  2  0  0  0
  7 26  1  0  0  0
  7 29  1  0  0  0
  8  9  1  0  0  0
  8 22  1  0  0  0
  9 10  1  0  0  0
  9 27  2  0  0  0
 10 11  2  0  0  0
 10 15  1  0  0  0
 11 12  1  0  0  0
 11 93  1  0  0  0
 12 13  2  0  0  0
 12 94  1  0  0  0
 13 14  1  0  0  0
 13 31  1  0  0  0
 14 15  2  0  0  0
 14 95  1  0  0  0
 15 96  1  0  0  0
 16 17  2  0  0  0
 16 21  1  0  0  0
 16 31  1  0  0  0
 17 18  1  0  0  0
 17 97  1  0  0  0
 18 19  2  0  0  0
 18 98  1  0  0  0
 19 20  1  0  0  0
 19 24  1  0  0  0
 20 21  2  0  0  0
 20 99  1  0  0  0
 21 23  1  0  0  0
 22 28  1  0  0  0
 22 32  2  0  0  0
 26 27  1  0  0  0
 28100  1  0  0  0
 28101  1  0  0  0
 29102  1  0  0  0
 29103  1  0  0  0
 33 34  1  0  0  0
 33 66  1  0  0  0
 33 70  2  0  0  0
 34 36  1  0  0  0
 34 59  1  0  0  0
 34104  1  0  0  0
 35 44  2  0  0  0
 35 45  1  0  0  0
 35 68  1  0  0  0
 36 56  1  0  0  0
 36105  1  0  0  0
 37 39  1  0  0  0
 37 47  1  0  0  0
 37 66  1  0  0  0
 37106  1  0  0  0
 38 43  2  0  0  0
 38 46  1  0  0  0
 38 47  1  0  0  0
 39 64  1  0  0  0
 39 67  2  0  0  0
 40 52  1  0  0  0
 40 53  2  0  0  0
 40 58  1  0  0  0
 41107  1  0  0  0
 41108  1  0  0  0
 41109  1  0  0  0
 41 48  1  0  0  0
 42 43  1  0  0  0
 42 66  1  0  0  0
 42110  1  0  0  0
 42111  1  0  0  0
 43 44  1  0  0  0
 44112  1  0  0  0
 45 46  2  0  0  0
 45113  1  0  0  0
 46114  1  0  0  0
 47115  1  0  0  0
 47116  1  0  0  0
 48 56  1  0  0  0
 48 65  1  0  0  0
 48117  1  0  0  0
 49 50  1  0  0  0
 49 53  1  0  0  0
 49 64  1  0  0  0
 49118  1  0  0  0
 50 51  1  0  0  0
 50119  1  0  0  0
 50120  1  0  0  0
 51 52  1  0  0  0
 51121  1  0  0  0
 51122  1  0  0  0
 52123  1  0  0  0
 52124  1  0  0  0
 53 54  1  0  0  0
 54 55  2  0  0  0
 54125  1  0  0  0
 55 57  1  0  0  0
 55126  1  0  0  0
 56 69  2  0  0  0
 57 58  2  0  0  0
 57127  1  0  0  0
 58128  1  0  0  0
 59 60  1  0  0  0
 59 61  1  0  0  0
 59 62  1  0  0  0
 60129  1  0  0  0
 60130  1  0  0  0
 60131  1  0  0  0
 61132  1  0  0  0
 61133  1  0  0  0
 61134  1  0  0  0
 62135  1  0  0  0
 62136  1  0  0  0
 62137  1  0  0  0
 63 65  1  0  0  0
 63138  1  0  0  0
 63139  1  0  0  0
 63140  1  0  0  0
 64141  1  0  0  0
 65142  1  0  0  0
 68 79  1  0  0  0
 71 72  2  0  0  0
 71 74  1  0  0  0
 71143  1  0  0  0
 72 75  1  0  0  0
 72144  1  0  0  0
 73 74  2  0  0  0
 73 76  1  0  0  0
 73145  1  0  0  0
 74 80  1  0  0  0
 75 76  2  0  0  0
 75 81  1  0  0  0
 76 83  1  0  0  0
 77 79  1  0  0  0
 77 82  1  0  0  0
 77146  1  0  0  0
 77147  1  0  0  0
 78 79  1  0  0  0
 78 82  1  0  0  0
 78148  1  0  0  0
 78149  1  0  0  0
 79150  1  0  0  0
 80151  1  0  0  0
 80152  1  0  0  0
 80 82  1  0  0  0
 81153  1  0  0  0
 82154  1  0  0  0
M  CHG  1  82   1
M  ISO  4   1 100  68 101  79 101  81 100
M  END
> <chiral flag>
0

> <version>
0

> <s_m_source_file>
/data/baiqing/PycharmProjects/Reinvent-master-3.2/result/LINK_invent/BTK/process_docking_weight1_custom_product_contain_oxygen_bond_distance_aromatic_linkinvent_7_9_3/rearranged_h_0025.sdf

> <i_m_source_file_index>
54

> <r_mmod_Potential_Energy-OPLS-2005>
-73.8546829223633

> <r_mmod_Stretch_Energy-OPLS-2005>
108.146133422852

> <r_mmod_Bend_Energy-OPLS-2005>
204.100677490234

> <r_mmod_Torsional_Energy-OPLS-2005>
221.635940551758

> <r_mmod_Improper_Torsional_Energy-OPLS-2005>
5.54265260696411

> <r_mmod_Van_der_Waal_Energy-OPLS-2005>
138.279815673828

> <r_mmod_Electrostatic_Energy-OPLS-2005>
-343.905212402344

> <r_mmod_Solvation_Energy-OPLS-2005>
-483.321197509766

> <b_mmod_Minimization_Converged-OPLS-2005>
0

> <r_mmod_RMS_Derivative-OPLS-2005>
1.6571741104126

$$$$
54
                    3D
 Structure written by MMmdl.
153161  0  0  1  0            999 V2000
  -30.3795  -15.2803   20.3719 C   0  0  0  0  0  0
  -30.4631  -12.8198   19.5107 C   0  0  0  0  0  0
  -29.5398  -12.5926   18.2819 C   0  0  0  0  0  0
  -28.0826  -12.3182   18.7006 C   0  0  0  0  0  0
  -27.6260  -13.2623   19.8407 C   0  0  2  0  0  0
  -28.6793  -13.3276   20.9657 C   0  0  0  0  0  0
  -25.2436  -13.8212   20.5710 C   0  0  0  0  0  0
  -24.1773  -13.0437   20.9232 C   0  0  0  0  0  0
  -24.6414  -11.6921   20.8771 C   0  0  0  0  0  0
  -23.9105  -10.4283   21.0404 C   0  0  0  0  0  0
  -24.3646   -9.4186   21.9188 C   0  0  0  0  0  0
  -23.6285   -8.2248   22.0759 C   0  0  0  0  0  0
  -22.4264   -8.0311   21.3550 C   0  0  0  0  0  0
  -21.9922   -9.0295   20.4657 C   0  0  0  0  0  0
  -22.7279  -10.2145   20.3050 C   0  0  0  0  0  0
  -21.6856   -6.0740   22.5260 C   0  0  0  0  0  0
  -21.4035   -6.5632   23.8212 C   0  0  0  0  0  0
  -21.3651   -5.6766   24.9164 C   0  0  0  0  0  0
  -21.6048   -4.3042   24.7200 C   0  0  0  0  0  0
  -21.8823   -3.8150   23.4319 C   0  0  0  0  0  0
  -21.9187   -4.6971   22.3378 C   0  0  0  0  0  0
  -22.7774  -13.5220   21.1820 C   0  0  0  0  0  0
  -22.1656   -4.2169   21.0959 F   0  0  0  0  0  0
  -21.5598   -3.4516   25.7705 F   0  0  0  0  0  0
  -29.8883  -13.9306   20.3618 N   0  0  0  0  0  0
  -26.2887  -12.9468   20.3254 N   0  0  0  0  0  0
  -25.9358  -11.6595   20.5741 N   0  0  0  0  0  0
  -22.0398  -12.8289   22.0397 N   0  0  0  0  0  0
  -25.3999  -15.1960   20.4103 N   0  0  0  0  0  0
  -31.5876  -15.3181   20.0822 O   0  0  0  0  0  0
  -21.6633   -6.8896   21.4233 O   0  0  0  0  0  0
  -22.3479  -14.5508   20.6605 O   0  0  0  0  0  0
  -24.6659  -31.8239   23.1691 C   0  0  0  0  0  0
  -25.9343  -32.4583   23.8153 C   0  0  1  0  0  0
  -27.2193  -26.9354   20.1703 C   0  0  0  0  0  0
  -25.6000  -33.8389   24.2085 N   0  0  0  0  0  0
  -23.4773  -30.4332   21.5227 C   0  0  2  0  0  0
  -24.9263  -28.8189   20.1170 C   0  0  0  0  0  0
  -22.7667  -29.4437   22.4828 C   0  0  0  0  0  0
  -18.0314  -28.1401   22.8472 C   0  0  0  0  0  0
  -24.1462  -36.7209   23.2653 C   0  0  0  0  0  0
  -26.0465  -30.6312   21.3948 C   0  0  0  0  0  0
  -26.1133  -29.2215   20.7405 C   0  0  0  0  0  0
  -27.2580  -28.3023   20.7369 C   0  0  0  0  0  0
  -25.9996  -26.6830   19.5026 C   0  0  0  0  0  0
  -24.8933  -27.5689   19.4791 C   0  0  0  0  0  0
  -23.7125  -29.7458   20.1496 C   0  0  0  0  0  0
  -25.4103  -36.2985   24.0319 C   0  0  1  0  0  0
  -20.5949  -28.3738   23.1203 C   0  0  2  0  0  0
  -20.6813  -26.9423   22.5417 C   0  0  0  0  0  0
  -19.5783  -26.6376   21.5235 C   0  0  0  0  0  0
  -18.1953  -26.7929   22.1635 C   0  0  0  0  0  0
  -19.1585  -28.8896   23.2811 C   0  0  0  0  0  0
  -18.9501  -30.1501   23.8830 C   0  0  0  0  0  0
  -17.6497  -30.6598   24.0553 C   0  0  0  0  0  0
  -25.9080  -34.9362   23.5019 C   0  0  0  0  0  0
  -16.5377  -29.9075   23.6361 C   0  0  0  0  0  0
  -16.7304  -28.6505   23.0360 C   0  0  0  0  0  0
  -26.4592  -31.6510   25.0667 C   0  0  0  0  0  0
  -25.3732  -31.3812   26.1339 C   0  0  0  0  0  0
  -27.0503  -30.2866   24.6412 C   0  0  0  0  0  0
  -27.6021  -32.4356   25.7502 C   0  0  0  0  0  0
  -27.5559  -37.1764   24.8479 C   0  0  0  0  0  0
  -21.4344  -29.3025   22.3566 N   0  0  0  0  0  0
  -26.4263  -37.3724   23.9426 N   0  0  0  0  0  0
  -24.7518  -30.9891   22.0839 N   0  0  0  0  0  0
  -23.4224  -28.8029   23.3082 O   0  0  0  0  0  0
  -28.2406  -25.8498   20.1819 O   0  0  0  0  0  0
  -26.5685  -34.8914   22.4607 O   0  0  0  0  0  0
  -23.5728  -32.1202   23.6791 O   0  0  0  0  0  0
  -30.4069  -18.6359   21.8538 C   0  0  0  0  0  0
  -29.7459  -18.1328   22.9915 C   0  0  0  0  0  0
  -28.5143  -16.5675   21.5711 C   0  0  0  0  0  0
  -29.5184  -16.7277   20.5939 C   0  0  0  0  0  0
  -29.8777  -18.2579   20.6059 C   0  0  0  0  0  0
  -28.6992  -17.2008   22.8181 C   0  0  0  0  0  0
  -28.3965  -19.1392   18.8675 C   0  0  0  0  0  0
  -28.9068  -22.7046   19.9978 C   0  0  0  0  0  0
  -28.7915  -21.0120   20.6153 C   0  0  0  0  0  0
  -28.0008  -24.2267   20.3570 C   0  0  0  0  0  0
  -29.2272  -19.5371   20.0048 N   0  0  0  0  0  0
  -27.7090  -16.7566   24.1584 Cl  0  0  0  0  0  0
  -31.4664  -13.0612   19.1557 H   0  0  0  0  0  0
  -30.5901  -11.9008   20.0857 H   0  0  0  0  0  0
  -29.9178  -11.7717   17.6713 H   0  0  0  0  0  0
  -29.5689  -13.4814   17.6498 H   0  0  0  0  0  0
  -28.0244  -11.2833   19.0400 H   0  0  0  0  0  0
  -27.4156  -12.3980   17.8421 H   0  0  0  0  0  0
  -27.5686  -14.2541   19.3896 H   0  0  0  0  0  0
  -28.8748  -12.3220   21.3474 H   0  0  0  0  0  0
  -28.3402  -13.8575   21.8507 H   0  0  0  0  0  0
  -25.2793   -9.5651   22.4777 H   0  0  0  0  0  0
  -23.9970   -7.4636   22.7496 H   0  0  0  0  0  0
  -21.0838   -8.8855   19.8969 H   0  0  0  0  0  0
  -22.3771  -10.9698   19.6165 H   0  0  0  0  0  0
  -21.2079   -7.6157   23.9735 H   0  0  0  0  0  0
  -21.1442   -6.0487   25.9063 H   0  0  0  0  0  0
  -22.0617   -2.7612   23.2797 H   0  0  0  0  0  0
  -22.3961  -11.9989   22.4890 H   0  0  0  0  0  0
  -21.1016  -13.1349   22.2509 H   0  0  0  0  0  0
  -24.6221  -15.8338   20.5373 H   0  0  0  0  0  0
  -26.2233  -15.6479   20.0360 H   0  0  0  0  0  0
  -26.7381  -32.5140   23.0836 H   0  0  0  0  0  0
  -25.0151  -33.9441   25.0246 H   0  0  0  0  0  0
  -22.7927  -31.2654   21.3522 H   0  0  0  0  0  0
  -23.3744  -35.9524   23.3292 H   0  0  0  0  0  0
  -24.3558  -36.8866   22.2082 H   0  0  0  0  0  0
  -23.7181  -37.6384   23.6688 H   0  0  0  0  0  0
  -26.2233  -31.3707   20.6119 H   0  0  0  0  0  0
  -26.9097  -30.6896   22.0458 H   0  0  0  0  0  0
  -28.1653  -28.6172   21.2343 H   0  0  0  0  0  0
  -25.8753  -25.7371   18.9963 H   0  0  0  0  0  0
  -23.9879  -27.2548   18.9743 H   0  0  0  0  0  0
  -23.8631  -30.5107   19.3871 H   0  0  0  0  0  0
  -22.8218  -29.1971   19.8371 H   0  0  0  0  0  0
  -25.1286  -36.1801   25.0812 H   0  0  0  0  0  0
  -21.0017  -28.3330   24.1338 H   0  0  0  0  0  0
  -20.5746  -26.2340   23.3651 H   0  0  0  0  0  0
  -21.6663  -26.7435   22.1198 H   0  0  0  0  0  0
  -19.6944  -25.6285   21.1273 H   0  0  0  0  0  0
  -19.6708  -27.3183   20.6759 H   0  0  0  0  0  0
  -17.4237  -26.6684   21.4014 H   0  0  0  0  0  0
  -18.0315  -26.0073   22.9033 H   0  0  0  0  0  0
  -19.7980  -30.7342   24.2127 H   0  0  0  0  0  0
  -17.5051  -31.6270   24.5176 H   0  0  0  0  0  0
  -15.5377  -30.2966   23.7743 H   0  0  0  0  0  0
  -15.8691  -28.0830   22.7077 H   0  0  0  0  0  0
  -24.5874  -30.7162   25.7720 H   0  0  0  0  0  0
  -24.8989  -32.3063   26.4625 H   0  0  0  0  0  0
  -25.8013  -30.9109   27.0195 H   0  0  0  0  0  0
  -26.3201  -29.6508   24.1374 H   0  0  0  0  0  0
  -27.3987  -29.7237   25.5087 H   0  0  0  0  0  0
  -27.9147  -30.4035   23.9861 H   0  0  0  0  0  0
  -27.2464  -33.3659   26.1940 H   0  0  0  0  0  0
  -28.3910  -32.6913   25.0414 H   0  0  0  0  0  0
  -28.0561  -31.8579   26.5567 H   0  0  0  0  0  0
  -28.2581  -38.0056   24.7533 H   0  0  0  0  0  0
  -28.1044  -36.2598   24.6275 H   0  0  0  0  0  0
  -27.2297  -37.1384   25.8888 H   0  0  0  0  0  0
  -20.9618  -29.8672   21.6651 H   0  0  0  0  0  0
  -26.0123  -38.2786   24.1429 H   0  0  0  0  0  0
  -30.9682  -19.5543   21.9698 H   0  0  0  0  0  0
  -29.9409  -18.5632   23.9630 H   0  0  0  0  0  0
  -27.8196  -15.7529   21.5422 H   0  0  0  0  0  0
  -28.9740  -19.1327   17.9429 H   0  0  0  0  0  0
  -27.5489  -19.8146   18.7291 H   0  0  0  0  0  0
  -27.9749  -18.1410   18.9983 H   0  0  0  0  0  0
  -29.9405  -22.9795   20.2099 H   0  0  0  0  0  0
  -28.8859  -22.6127   18.9115 H   0  0  0  0  0  0
  -27.7204  -20.8872   20.7890 H   0  0  0  0  0  0
  -29.1869  -21.0549   21.6321 H   0  0  0  0  0  0
  -27.8083  -24.1573   21.4271 H   0  0  0  0  0  0
  -27.0207  -24.0531   19.9129 H   0  0  0  0  0  0
  1 25  1  0  0  0
  1 30  2  0  0  0
  1 74  1  0  0  0
  2  3  1  0  0  0
  2 25  1  0  0  0
  2 83  1  0  0  0
  2 84  1  0  0  0
  3  4  1  0  0  0
  3 85  1  0  0  0
  3 86  1  0  0  0
  4  5  1  0  0  0
  4 87  1  0  0  0
  4 88  1  0  0  0
  5  6  1  0  0  0
  5 26  1  0  0  0
  5 89  1  0  0  0
  6 25  1  0  0  0
  6 90  1  0  0  0
  6 91  1  0  0  0
  7  8  2  0  0  0
  7 26  1  0  0  0
  7 29  1  0  0  0
  8  9  1  0  0  0
  8 22  1  0  0  0
  9 10  1  0  0  0
  9 27  2  0  0  0
 10 11  2  0  0  0
 10 15  1  0  0  0
 11 12  1  0  0  0
 11 92  1  0  0  0
 12 13  2  0  0  0
 12 93  1  0  0  0
 13 14  1  0  0  0
 13 31  1  0  0  0
 14 15  2  0  0  0
 14 94  1  0  0  0
 15 95  1  0  0  0
 16 17  2  0  0  0
 16 21  1  0  0  0
 16 31  1  0  0  0
 17 18  1  0  0  0
 17 96  1  0  0  0
 18 19  2  0  0  0
 18 97  1  0  0  0
 19 20  1  0  0  0
 19 24  1  0  0  0
 20 21  2  0  0  0
 20 98  1  0  0  0
 21 23  1  0  0  0
 22 28  1  0  0  0
 22 32  2  0  0  0
 26 27  1  0  0  0
 28 99  1  0  0  0
 28100  1  0  0  0
 29101  1  0  0  0
 29102  1  0  0  0
 33 34  1  0  0  0
 33 66  1  0  0  0
 33 70  2  0  0  0
 34 36  1  0  0  0
 34 59  1  0  0  0
 34103  1  0  0  0
 35 44  2  0  0  0
 35 45  1  0  0  0
 35 68  1  0  0  0
 36 56  1  0  0  0
 36104  1  0  0  0
 37 39  1  0  0  0
 37 47  1  0  0  0
 37 66  1  0  0  0
 37105  1  0  0  0
 38 43  2  0  0  0
 38 46  1  0  0  0
 38 47  1  0  0  0
 39 64  1  0  0  0
 39 67  2  0  0  0
 40 52  1  0  0  0
 40 53  2  0  0  0
 40 58  1  0  0  0
 41106  1  0  0  0
 41107  1  0  0  0
 41108  1  0  0  0
 41 48  1  0  0  0
 42 43  1  0  0  0
 42 66  1  0  0  0
 42109  1  0  0  0
 42110  1  0  0  0
 43 44  1  0  0  0
 44111  1  0  0  0
 45 46  2  0  0  0
 45112  1  0  0  0
 46113  1  0  0  0
 47114  1  0  0  0
 47115  1  0  0  0
 48 56  1  0  0  0
 48 65  1  0  0  0
 48116  1  0  0  0
 49 50  1  0  0  0
 49 53  1  0  0  0
 49 64  1  0  0  0
 49117  1  0  0  0
 50 51  1  0  0  0
 50118  1  0  0  0
 50119  1  0  0  0
 51 52  1  0  0  0
 51120  1  0  0  0
 51121  1  0  0  0
 52122  1  0  0  0
 52123  1  0  0  0
 53 54  1  0  0  0
 54 55  2  0  0  0
 54124  1  0  0  0
 55 57  1  0  0  0
 55125  1  0  0  0
 56 69  2  0  0  0
 57 58  2  0  0  0
 57126  1  0  0  0
 58127  1  0  0  0
 59 60  1  0  0  0
 59 61  1  0  0  0
 59 62  1  0  0  0
 60128  1  0  0  0
 60129  1  0  0  0
 60130  1  0  0  0
 61131  1  0  0  0
 61132  1  0  0  0
 61133  1  0  0  0
 62134  1  0  0  0
 62135  1  0  0  0
 62136  1  0  0  0
 63 65  1  0  0  0
 63137  1  0  0  0
 63138  1  0  0  0
 63139  1  0  0  0
 64140  1  0  0  0
 65141  1  0  0  0
 68 80  1  0  0  0
 71 72  2  0  0  0
 71 75  1  0  0  0
 71142  1  0  0  0
 72 76  1  0  0  0
 72143  1  0  0  0
 73 74  1  0  0  0
 73 76  2  0  0  0
 73144  1  0  0  0
 74 75  2  0  0  0
 75 81  1  0  0  0
 76 82  1  0  0  0
 77 81  1  0  0  0
 77145  1  0  0  0
 77146  1  0  0  0
 77147  1  0  0  0
 78 79  1  0  0  0
 78 80  1  0  0  0
 78148  1  0  0  0
 78149  1  0  0  0
 79 81  1  0  0  0
 79150  1  0  0  0
 79151  1  0  0  0
 80152  1  0  0  0
 80153  1  0  0  0
M  ISO  4   1 100  68 101  74 100  80 101
M  END
> <chiral flag>
0

> <version>
0

> <s_m_source_file>
/data/baiqing/PycharmProjects/Reinvent-master-3.2/result/LINK_invent/BTK/process_docking_weight1_custom_product_contain_oxygen_bond_distance_aromatic_linkinvent_7_9_3/rearranged_h_0025.sdf

> <i_m_source_file_index>
55

> <r_mmod_Potential_Energy-OPLS-2005>
1630.73156738281

> <r_mmod_Stretch_Energy-OPLS-2005>
620.006408691406

> <r_mmod_Bend_Energy-OPLS-2005>
480.668640136719

> <r_mmod_Torsional_Energy-OPLS-2005>
431.925415039062

> <r_mmod_Improper_Torsional_Energy-OPLS-2005>
31.0377216339111

> <r_mmod_Van_der_Waal_Energy-OPLS-2005>
136.919570922852

> <r_mmod_Electrostatic_Energy-OPLS-2005>
-305.359588623047

> <r_mmod_Solvation_Energy-OPLS-2005>
-210.558517456055

> <b_mmod_Minimization_Converged-OPLS-2005>
0

> <r_mmod_RMS_Derivative-OPLS-2005>
4.16375017166138

$$$$
55
                    3D
 Structure written by MMmdl.
166175  0  0  1  0            999 V2000
  -30.4436  -14.7436   20.5911 C   0  0  0  0  0  0
  -30.4797  -12.4990   19.4253 C   0  0  0  0  0  0
  -29.5225  -12.5782   18.2078 C   0  0  0  0  0  0
  -28.0423  -12.3687   18.6136 C   0  0  0  0  0  0
  -27.6584  -13.1936   19.8792 C   0  0  2  0  0  0
  -28.7078  -12.9563   20.9908 C   0  0  0  0  0  0
  -25.2579  -13.8030   20.5534 C   0  0  0  0  0  0
  -24.1886  -13.0348   20.9128 C   0  0  0  0  0  0
  -24.6404  -11.6815   20.8690 C   0  0  0  0  0  0
  -23.9045  -10.4243   21.0408 C   0  0  0  0  0  0
  -24.3622   -9.4166   21.9186 C   0  0  0  0  0  0
  -23.6306   -8.2196   22.0751 C   0  0  0  0  0  0
  -22.4262   -8.0278   21.3572 C   0  0  0  0  0  0
  -21.9920   -9.0225   20.4637 C   0  0  0  0  0  0
  -22.7232  -10.2098   20.3048 C   0  0  0  0  0  0
  -21.6845   -6.0722   22.5274 C   0  0  0  0  0  0
  -21.4020   -6.5643   23.8204 C   0  0  0  0  0  0
  -21.3652   -5.6805   24.9177 C   0  0  0  0  0  0
  -21.6027   -4.3064   24.7236 C   0  0  0  0  0  0
  -21.8814   -3.8146   23.4366 C   0  0  0  0  0  0
  -21.9207   -4.6951   22.3418 C   0  0  0  0  0  0
  -22.7913  -13.5193   21.1769 C   0  0  0  0  0  0
  -22.1656   -4.2169   21.0978 F   0  0  0  0  0  0
  -21.5624   -3.4543   25.7727 F   0  0  0  0  0  0
  -29.9936  -13.4467   20.4563 N   0  0  0  0  0  0
  -26.2989  -12.9168   20.3269 N   0  0  0  0  0  0
  -25.9327  -11.6343   20.5746 N   0  0  0  0  0  0
  -22.0556  -12.8201   22.0346 N   0  0  0  0  0  0
  -25.4124  -15.1715   20.3762 N   0  0  0  0  0  0
  -31.5643  -15.0654   20.1603 O   0  0  0  0  0  0
  -21.6614   -6.8894   21.4249 O   0  0  0  0  0  0
  -22.3544  -14.5506   20.6637 O   0  0  0  0  0  0
  -24.6385  -31.8565   23.1925 C   0  0  0  0  0  0
  -25.9200  -32.4757   23.8352 C   0  0  1  0  0  0
  -27.1774  -27.1915   20.1598 C   0  0  0  0  0  0
  -25.5948  -33.8497   24.2239 N   0  0  0  0  0  0
  -23.4247  -30.4975   21.5395 C   0  0  2  0  0  0
  -24.8722  -28.9415   20.1050 C   0  0  0  0  0  0
  -22.7346  -29.4624   22.4835 C   0  0  0  0  0  0
  -18.0168  -28.1640   22.8549 C   0  0  0  0  0  0
  -24.1492  -36.7274   23.2648 C   0  0  0  0  0  0
  -25.9885  -30.7485   21.3906 C   0  0  0  0  0  0
  -26.0494  -29.3759   20.7291 C   0  0  0  0  0  0
  -27.2018  -28.5119   20.7513 C   0  0  0  0  0  0
  -25.9846  -26.8693   19.4643 C   0  0  0  0  0  0
  -24.8564  -27.7049   19.4539 C   0  0  0  0  0  0
  -23.6457  -29.8300   20.1590 C   0  0  0  0  0  0
  -25.4145  -36.3055   24.0350 C   0  0  1  0  0  0
  -20.5781  -28.3709   23.1245 C   0  0  2  0  0  0
  -20.6546  -26.9516   22.4935 C   0  0  0  0  0  0
  -19.5410  -26.6727   21.4785 C   0  0  0  0  0  0
  -18.1749  -26.8308   22.1302 C   0  0  0  0  0  0
  -19.1491  -28.8881   23.2994 C   0  0  0  0  0  0
  -18.9633  -30.1407   23.9312 C   0  0  0  0  0  0
  -17.6629  -30.6432   24.1180 C   0  0  0  0  0  0
  -25.9139  -34.9444   23.5127 C   0  0  0  0  0  0
  -16.5489  -29.9075   23.6798 C   0  0  0  0  0  0
  -16.7170  -28.6563   23.0723 C   0  0  0  0  0  0
  -26.4516  -31.6577   25.0753 C   0  0  0  0  0  0
  -25.3713  -31.3703   26.1463 C   0  0  0  0  0  0
  -27.0375  -30.2982   24.6282 C   0  0  0  0  0  0
  -27.6072  -32.4314   25.7540 C   0  0  0  0  0  0
  -27.5567  -37.1814   24.8461 C   0  0  0  0  0  0
  -21.4019  -29.3273   22.3791 N   0  0  0  0  0  0
  -26.4268  -37.3771   23.9458 N   0  0  0  0  0  0
  -24.7018  -31.0476   22.0990 N   0  0  0  0  0  0
  -23.4082  -28.8015   23.2753 O   0  0  0  0  0  0
  -28.2328  -26.2369   20.2963 O   0  0  0  0  0  0
  -26.5626  -34.8927   22.4639 O   0  0  0  0  0  0
  -23.5523  -32.1434   23.7258 O   0  0  0  0  0  0
  -26.8134  -17.6782   22.3926 C   0  0  0  0  0  0
  -27.6590  -16.6573   22.0108 C   0  0  0  0  0  0
  -28.3470  -19.4494   21.6039 C   0  0  0  0  0  0
  -27.1098  -19.0449   22.2378 C   0  0  0  0  0  0
  -28.8876  -16.9065   21.4025 C   0  0  0  0  0  0
  -29.2191  -18.3236   21.1749 C   0  0  0  0  0  0
  -28.6253  -23.5531   20.8498 C   0  0  0  0  0  0
  -24.3818  -20.2761   24.4030 C   0  0  0  0  0  0
  -23.8309  -20.5112   22.9980 C   0  0  0  0  0  0
  -25.8285  -19.7710   24.1928 C   0  0  0  0  0  0
  -24.8009  -19.7063   22.1485 C   0  0  0  0  0  0
  -26.6897  -22.0295   20.6245 C   0  0  0  0  0  0
  -28.8106  -21.0227   21.5832 C   0  0  0  0  0  0
  -28.0581  -24.7658   19.9094 C   0  0  0  0  0  0
  -26.1223  -19.9056   22.7520 N   0  0  0  0  0  0
  -29.5045  -15.5578   21.2101 N   0  0  0  0  0  0
  -28.0956  -22.2472   20.9477 N   0  0  0  0  0  0
  -29.6659  -23.8068   21.4610 O   0  0  0  0  0  0
  -30.7144  -18.6688   20.3832 Cl  0  0  0  0  0  0
  -31.5042  -12.7311   19.1436 H   0  0  0  0  0  0
  -30.4996  -11.4844   19.8216 H   0  0  0  0  0  0
  -29.8078  -11.8460   17.4486 H   0  0  0  0  0  0
  -29.6222  -13.5542   17.7286 H   0  0  0  0  0  0
  -27.8840  -11.3042   18.7888 H   0  0  0  0  0  0
  -27.3873  -12.6407   17.7790 H   0  0  0  0  0  0
  -27.6962  -14.2456   19.5874 H   0  0  0  0  0  0
  -28.7740  -11.8857   21.1984 H   0  0  0  0  0  0
  -28.4178  -13.4085   21.9467 H   0  0  0  0  0  0
  -25.2804   -9.5622   22.4745 H   0  0  0  0  0  0
  -23.9996   -7.4600   22.7518 H   0  0  0  0  0  0
  -21.0836   -8.8796   19.8978 H   0  0  0  0  0  0
  -22.3755  -10.9651   19.6155 H   0  0  0  0  0  0
  -21.1999   -7.6156   23.9738 H   0  0  0  0  0  0
  -21.1474   -6.0516   25.9091 H   0  0  0  0  0  0
  -22.0608   -2.7627   23.2840 H   0  0  0  0  0  0
  -22.4196  -11.9858   22.4753 H   0  0  0  0  0  0
  -21.1185  -13.1272   22.2633 H   0  0  0  0  0  0
  -24.6286  -15.8031   20.4729 H   0  0  0  0  0  0
  -26.2569  -15.6361   20.0738 H   0  0  0  0  0  0
  -26.7263  -32.5330   23.1113 H   0  0  0  0  0  0
  -25.0151  -33.9681   25.0406 H   0  0  0  0  0  0
  -22.7377  -31.3324   21.3854 H   0  0  0  0  0  0
  -23.3759  -35.9562   23.3311 H   0  0  0  0  0  0
  -24.3547  -36.8894   22.2032 H   0  0  0  0  0  0
  -23.7217  -37.6490   23.6658 H   0  0  0  0  0  0
  -26.1511  -31.5029   20.6254 H   0  0  0  0  0  0
  -26.8549  -30.7848   22.0340 H   0  0  0  0  0  0
  -28.0959  -28.8345   21.2741 H   0  0  0  0  0  0
  -25.8536  -25.9520   18.9215 H   0  0  0  0  0  0
  -23.9522  -27.3652   18.9727 H   0  0  0  0  0  0
  -23.7748  -30.6042   19.3984 H   0  0  0  0  0  0
  -22.7633  -29.2707   19.8513 H   0  0  0  0  0  0
  -25.1311  -36.1944   25.0813 H   0  0  0  0  0  0
  -20.9858  -28.3031   24.1363 H   0  0  0  0  0  0
  -21.6416  -26.7474   22.0692 H   0  0  0  0  0  0
  -20.5104  -26.2238   23.2857 H   0  0  0  0  0  0
  -19.6409  -25.6756   21.0228 H   0  0  0  0  0  0
  -19.6175  -27.3975   20.6602 H   0  0  0  0  0  0
  -17.3927  -26.7282   21.3744 H   0  0  0  0  0  0
  -18.0214  -26.0352   22.8523 H   0  0  0  0  0  0
  -19.8194  -30.7266   24.2454 H   0  0  0  0  0  0
  -17.5271  -31.5964   24.5994 H   0  0  0  0  0  0
  -15.5575  -30.3040   23.8470 H   0  0  0  0  0  0
  -15.8476  -28.0927   22.7334 H   0  0  0  0  0  0
  -24.5907  -30.7047   25.7737 H   0  0  0  0  0  0
  -24.8890  -32.2866   26.4909 H   0  0  0  0  0  0
  -25.8027  -30.8848   27.0255 H   0  0  0  0  0  0
  -26.2961  -29.6761   24.1261 H   0  0  0  0  0  0
  -27.3977  -29.7220   25.4834 H   0  0  0  0  0  0
  -27.8891  -30.4245   23.9576 H   0  0  0  0  0  0
  -27.2690  -33.3645   26.2114 H   0  0  0  0  0  0
  -28.3913  -32.6885   25.0356 H   0  0  0  0  0  0
  -28.0766  -31.8456   26.5514 H   0  0  0  0  0  0
  -28.2628  -38.0074   24.7526 H   0  0  0  0  0  0
  -28.1055  -36.2643   24.6308 H   0  0  0  0  0  0
  -27.2295  -37.1450   25.8851 H   0  0  0  0  0  0
  -20.8985  -29.9461   21.7591 H   0  0  0  0  0  0
  -26.0202  -38.2850   24.1399 H   0  0  0  0  0  0
  -25.8839  -17.3648   22.8332 H   0  0  0  0  0  0
  -27.3112  -15.6546   22.2202 H   0  0  0  0  0  0
  -23.7782  -19.5138   24.8936 H   0  0  0  0  0  0
  -24.3298  -21.1795   25.0220 H   0  0  0  0  0  0
  -23.8474  -21.5588   22.6922 H   0  0  0  0  0  0
  -22.7970  -20.1763   22.9119 H   0  0  0  0  0  0
  -25.8800  -18.7367   24.5343 H   0  0  0  0  0  0
  -26.5377  -20.2913   24.8224 H   0  0  0  0  0  0
  -24.7625  -19.9905   21.0970 H   0  0  0  0  0  0
  -24.4787  -18.6639   22.1819 H   0  0  0  0  0  0
  -26.2524  -22.7391   19.9387 H   0  0  0  0  0  0
  -26.1253  -22.0963   21.5486 H   0  0  0  0  0  0
  -26.5401  -21.0378   20.1987 H   0  0  0  0  0  0
  -29.8406  -21.0566   21.2269 H   0  0  0  0  0  0
  -28.8881  -21.2819   22.6425 H   0  0  0  0  0  0
  -27.0581  -24.5412   19.6052 H   0  0  0  0  0  0
  -28.6587  -24.6950   18.9922 H   0  0  0  0  0  0
  -28.8174  -14.8866   21.5391 H   0  0  0  0  0  0
  1 25  1  0  0  0
  1 30  2  0  0  0
  1 86  1  0  0  0
  2  3  1  0  0  0
  2 25  1  0  0  0
  2 90  1  0  0  0
  2 91  1  0  0  0
  3  4  1  0  0  0
  3 92  1  0  0  0
  3 93  1  0  0  0
  4  5  1  0  0  0
  4 94  1  0  0  0
  4 95  1  0  0  0
  5  6  1  0  0  0
  5 26  1  0  0  0
  5 96  1  0  0  0
  6 25  1  0  0  0
  6 97  1  0  0  0
  6 98  1  0  0  0
  7  8  2  0  0  0
  7 26  1  0  0  0
  7 29  1  0  0  0
  8  9  1  0  0  0
  8 22  1  0  0  0
  9 10  1  0  0  0
  9 27  2  0  0  0
 10 11  2  0  0  0
 10 15  1  0  0  0
 11 12  1  0  0  0
 11 99  1  0  0  0
 12 13  2  0  0  0
 12100  1  0  0  0
 13 14  1  0  0  0
 13 31  1  0  0  0
 14 15  2  0  0  0
 14101  1  0  0  0
 15102  1  0  0  0
 16 17  2  0  0  0
 16 21  1  0  0  0
 16 31  1  0  0  0
 17 18  1  0  0  0
 17103  1  0  0  0
 18 19  2  0  0  0
 18104  1  0  0  0
 19 20  1  0  0  0
 19 24  1  0  0  0
 20 21  2  0  0  0
 20105  1  0  0  0
 21 23  1  0  0  0
 22 28  1  0  0  0
 22 32  2  0  0  0
 26 27  1  0  0  0
 28106  1  0  0  0
 28107  1  0  0  0
 29108  1  0  0  0
 29109  1  0  0  0
 33 34  1  0  0  0
 33 66  1  0  0  0
 33 70  2  0  0  0
 34 36  1  0  0  0
 34 59  1  0  0  0
 34110  1  0  0  0
 35 44  2  0  0  0
 35 45  1  0  0  0
 35 68  1  0  0  0
 36 56  1  0  0  0
 36111  1  0  0  0
 37 39  1  0  0  0
 37 47  1  0  0  0
 37 66  1  0  0  0
 37112  1  0  0  0
 38 43  2  0  0  0
 38 46  1  0  0  0
 38 47  1  0  0  0
 39 64  1  0  0  0
 39 67  2  0  0  0
 40 52  1  0  0  0
 40 53  2  0  0  0
 40 58  1  0  0  0
 41113  1  0  0  0
 41114  1  0  0  0
 41115  1  0  0  0
 41 48  1  0  0  0
 42 43  1  0  0  0
 42 66  1  0  0  0
 42116  1  0  0  0
 42117  1  0  0  0
 43 44  1  0  0  0
 44118  1  0  0  0
 45 46  2  0  0  0
 45119  1  0  0  0
 46120  1  0  0  0
 47121  1  0  0  0
 47122  1  0  0  0
 48 56  1  0  0  0
 48 65  1  0  0  0
 48123  1  0  0  0
 49 50  1  0  0  0
 49 53  1  0  0  0
 49 64  1  0  0  0
 49124  1  0  0  0
 50 51  1  0  0  0
 50125  1  0  0  0
 50126  1  0  0  0
 51 52  1  0  0  0
 51127  1  0  0  0
 51128  1  0  0  0
 52129  1  0  0  0
 52130  1  0  0  0
 53 54  1  0  0  0
 54 55  2  0  0  0
 54131  1  0  0  0
 55 57  1  0  0  0
 55132  1  0  0  0
 56 69  2  0  0  0
 57 58  2  0  0  0
 57133  1  0  0  0
 58134  1  0  0  0
 59 60  1  0  0  0
 59 61  1  0  0  0
 59 62  1  0  0  0
 60135  1  0  0  0
 60136  1  0  0  0
 60137  1  0  0  0
 61138  1  0  0  0
 61139  1  0  0  0
 61140  1  0  0  0
 62141  1  0  0  0
 62142  1  0  0  0
 62143  1  0  0  0
 63 65  1  0  0  0
 63144  1  0  0  0
 63145  1  0  0  0
 63146  1  0  0  0
 64147  1  0  0  0
 65148  1  0  0  0
 68 84  1  0  0  0
 71 72  2  0  0  0
 71 74  1  0  0  0
 71149  1  0  0  0
 72 75  1  0  0  0
 72150  1  0  0  0
 73 74  2  0  0  0
 73 76  1  0  0  0
 73 83  1  0  0  0
 74 85  1  0  0  0
 75 76  2  0  0  0
 75 86  1  0  0  0
 76 89  1  0  0  0
 77 84  1  0  0  0
 77 87  1  0  0  0
 77 88  2  0  0  0
 78 79  1  0  0  0
 78 80  1  0  0  0
 78151  1  0  0  0
 78152  1  0  0  0
 79 81  1  0  0  0
 79153  1  0  0  0
 79154  1  0  0  0
 80 85  1  0  0  0
 80155  1  0  0  0
 80156  1  0  0  0
 81 85  1  0  0  0
 81157  1  0  0  0
 81158  1  0  0  0
 82 87  1  0  0  0
 82159  1  0  0  0
 82160  1  0  0  0
 82161  1  0  0  0
 83 87  1  0  0  0
 83162  1  0  0  0
 83163  1  0  0  0
 84164  1  0  0  0
 84165  1  0  0  0
 86166  1  0  0  0
M  ISO  4   1 100  68 101  84 101  86 100
M  END
> <chiral flag>
0

> <version>
0

> <s_m_source_file>
/data/baiqing/PycharmProjects/Reinvent-master-3.2/result/LINK_invent/BTK/process_docking_weight1_custom_product_contain_oxygen_bond_distance_aromatic_linkinvent_7_9_3/rearranged_h_0025.sdf

> <i_m_source_file_index>
56

> <r_mmod_Potential_Energy-OPLS-2005>
554.947021484375

> <r_mmod_Stretch_Energy-OPLS-2005>
194.365051269531

> <r_mmod_Bend_Energy-OPLS-2005>
373.145324707031

> <r_mmod_Torsional_Energy-OPLS-2005>
314.508666992188

> <r_mmod_Improper_Torsional_Energy-OPLS-2005>
11.7787437438965

> <r_mmod_Van_der_Waal_Energy-OPLS-2005>
160.724945068359

> <r_mmod_Electrostatic_Energy-OPLS-2005>
-376.835083007812

> <r_mmod_Solvation_Energy-OPLS-2005>
-253.070343017578

> <b_mmod_Minimization_Converged-OPLS-2005>
0

> <r_mmod_RMS_Derivative-OPLS-2005>
19.2071056365967

$$$$
56
                    3D
 Structure written by MMmdl.
166175  0  0  1  0            999 V2000
  -30.6014  -14.7918   20.4295 C   0  0  0  0  0  0
  -30.4304  -12.4781   19.4676 C   0  0  0  0  0  0
  -29.5089  -12.5103   18.2292 C   0  0  0  0  0  0
  -28.0372  -12.3251   18.6506 C   0  0  0  0  0  0
  -27.6385  -13.2358   19.8446 C   0  0  2  0  0  0
  -28.6892  -13.1931   20.9761 C   0  0  0  0  0  0
  -25.2504  -13.8192   20.5705 C   0  0  0  0  0  0
  -24.1799  -13.0425   20.9197 C   0  0  0  0  0  0
  -24.6400  -11.6912   20.8733 C   0  0  0  0  0  0
  -23.9073  -10.4287   21.0398 C   0  0  0  0  0  0
  -24.3616   -9.4210   21.9185 C   0  0  0  0  0  0
  -23.6288   -8.2248   22.0764 C   0  0  0  0  0  0
  -22.4273   -8.0279   21.3546 C   0  0  0  0  0  0
  -21.9907   -9.0257   20.4653 C   0  0  0  0  0  0
  -22.7238  -10.2134   20.3063 C   0  0  0  0  0  0
  -21.6855   -6.0739   22.5283 C   0  0  0  0  0  0
  -21.4011   -6.5639   23.8217 C   0  0  0  0  0  0
  -21.3667   -5.6790   24.9177 C   0  0  0  0  0  0
  -21.6051   -4.3053   24.7224 C   0  0  0  0  0  0
  -21.8815   -3.8147   23.4342 C   0  0  0  0  0  0
  -21.9191   -4.6968   22.3403 C   0  0  0  0  0  0
  -22.7823  -13.5214   21.1861 C   0  0  0  0  0  0
  -22.1659   -4.2161   21.0976 F   0  0  0  0  0  0
  -21.5639   -3.4532   25.7734 F   0  0  0  0  0  0
  -29.9773  -13.5608   20.3748 N   0  0  0  0  0  0
  -26.2942  -12.9418   20.3284 N   0  0  0  0  0  0
  -25.9338  -11.6555   20.5741 N   0  0  0  0  0  0
  -22.0456  -12.8215   22.0412 N   0  0  0  0  0  0
  -25.4110  -15.1928   20.4149 N   0  0  0  0  0  0
  -31.7979  -14.8582   20.1333 O   0  0  0  0  0  0
  -21.6638   -6.8878   21.4244 O   0  0  0  0  0  0
  -22.3523  -14.5534   20.6727 O   0  0  0  0  0  0
  -24.6356  -31.8533   23.1918 C   0  0  0  0  0  0
  -25.9146  -32.4748   23.8303 C   0  0  1  0  0  0
  -27.2248  -27.2190   20.1283 C   0  0  0  0  0  0
  -25.5940  -33.8550   24.2243 N   0  0  0  0  0  0
  -23.4371  -30.4730   21.5370 C   0  0  2  0  0  0
  -24.8841  -28.9046   20.1172 C   0  0  0  0  0  0
  -22.7534  -29.4591   22.4872 C   0  0  0  0  0  0
  -18.0310  -28.1393   22.8452 C   0  0  0  0  0  0
  -24.1497  -36.7270   23.2648 C   0  0  0  0  0  0
  -25.9875  -30.7470   21.3820 C   0  0  0  0  0  0
  -26.0590  -29.3652   20.7254 C   0  0  0  0  0  0
  -27.2306  -28.5352   20.7163 C   0  0  0  0  0  0
  -26.0271  -26.8393   19.4844 C   0  0  0  0  0  0
  -24.8746  -27.6501   19.4886 C   0  0  0  0  0  0
  -23.6628  -29.8036   20.1567 C   0  0  0  0  0  0
  -25.4127  -36.3065   24.0331 C   0  0  1  0  0  0
  -20.5913  -28.3719   23.1227 C   0  0  2  0  0  0
  -20.6799  -26.9435   22.5383 C   0  0  0  0  0  0
  -19.5775  -26.6384   21.5195 C   0  0  0  0  0  0
  -18.1951  -26.7925   22.1604 C   0  0  0  0  0  0
  -19.1561  -28.8866   23.2840 C   0  0  0  0  0  0
  -18.9499  -30.1459   23.8889 C   0  0  0  0  0  0
  -17.6500  -30.6588   24.0552 C   0  0  0  0  0  0
  -25.9067  -34.9436   23.5086 C   0  0  0  0  0  0
  -16.5388  -29.9092   23.6328 C   0  0  0  0  0  0
  -16.7294  -28.6508   23.0340 C   0  0  0  0  0  0
  -26.4500  -31.6588   25.0711 C   0  0  0  0  0  0
  -25.3687  -31.3747   26.1408 C   0  0  0  0  0  0
  -27.0380  -30.3015   24.6211 C   0  0  0  0  0  0
  -27.6068  -32.4336   25.7471 C   0  0  0  0  0  0
  -27.5579  -37.1791   24.8469 C   0  0  0  0  0  0
  -21.4238  -29.3063   22.3619 N   0  0  0  0  0  0
  -26.4299  -37.3764   23.9406 N   0  0  0  0  0  0
  -24.7062  -31.0435   22.0931 N   0  0  0  0  0  0
  -23.4220  -28.8139   23.2992 O   0  0  0  0  0  0
  -28.3285  -26.3222   20.1469 O   0  0  0  0  0  0
  -26.5637  -34.8912   22.4651 O   0  0  0  0  0  0
  -23.5481  -32.1392   23.7155 O   0  0  0  0  0  0
  -29.4613  -18.5924   20.4246 C   0  0  0  0  0  0
  -31.5240  -18.8862   22.2062 C   0  0  0  0  0  0
  -29.7371  -19.9615   20.9039 C   0  0  0  0  0  0
  -30.7472  -20.0464   21.9313 C   0  0  0  0  0  0
  -30.1739  -17.3749   20.8400 C   0  0  0  0  0  0
  -31.2481  -17.6023   21.7203 C   0  0  0  0  0  0
  -29.3959  -23.9200   19.7625 C   0  0  0  0  0  0
  -30.7065  -23.1618   24.0484 C   0  0  0  0  0  0
  -31.2193  -22.0937   24.9910 C   0  0  0  0  0  0
  -30.1485  -22.3365   22.8998 C   0  0  0  0  0  0
  -31.6847  -20.9775   24.0527 C   0  0  0  0  0  0
  -30.7919  -22.0275   19.0445 C   0  0  0  0  0  0
  -28.9096  -21.2681   20.3776 C   0  0  0  0  0  0
  -28.1482  -24.8044   20.2560 C   0  0  0  0  0  0
  -31.0299  -21.1851   22.7484 N   0  0  0  0  0  0
  -29.8191  -15.9517   20.5172 N   0  0  0  0  0  0
  -29.6002  -22.5089   19.7709 N   0  0  0  0  0  0
  -30.2938  -24.6301   19.2929 O   0  0  0  0  0  0
  -31.9901  -16.5762   22.2001 F   0  0  0  0  0  0
  -31.4730  -12.5960   19.1678 H   0  0  0  0  0  0
  -30.3717  -11.5071   19.9617 H   0  0  0  0  0  0
  -29.7940  -11.7341   17.5172 H   0  0  0  0  0  0
  -29.6298  -13.4605   17.7066 H   0  0  0  0  0  0
  -27.9042  -11.2768   18.9229 H   0  0  0  0  0  0
  -27.3760  -12.5015   17.8016 H   0  0  0  0  0  0
  -27.6195  -14.2523   19.4511 H   0  0  0  0  0  0
  -28.7425  -12.1993   21.4243 H   0  0  0  0  0  0
  -28.4271  -13.8805   21.7824 H   0  0  0  0  0  0
  -25.2761   -9.5703   22.4760 H   0  0  0  0  0  0
  -24.0005   -7.4654   22.7500 H   0  0  0  0  0  0
  -21.0842   -8.8775   19.8963 H   0  0  0  0  0  0
  -22.3691  -10.9674   19.6181 H   0  0  0  0  0  0
  -21.1993   -7.6143   23.9725 H   0  0  0  0  0  0
  -21.1499   -6.0513   25.9084 H   0  0  0  0  0  0
  -22.0585   -2.7610   23.2831 H   0  0  0  0  0  0
  -22.4045  -11.9863   22.4786 H   0  0  0  0  0  0
  -21.1106  -13.1310   22.2663 H   0  0  0  0  0  0
  -24.6284  -15.8273   20.5283 H   0  0  0  0  0  0
  -26.2481  -15.6537   20.0824 H   0  0  0  0  0  0
  -26.7213  -32.5407   23.1049 H   0  0  0  0  0  0
  -25.0119  -33.9698   25.0406 H   0  0  0  0  0  0
  -22.7374  -31.2967   21.3812 H   0  0  0  0  0  0
  -23.3777  -35.9585   23.3319 H   0  0  0  0  0  0
  -24.3588  -36.8880   22.2061 H   0  0  0  0  0  0
  -23.7222  -37.6462   23.6663 H   0  0  0  0  0  0
  -26.1319  -31.5050   20.6111 H   0  0  0  0  0  0
  -26.8638  -30.7972   22.0172 H   0  0  0  0  0  0
  -28.1333  -28.8813   21.1994 H   0  0  0  0  0  0
  -25.9565  -25.8960   18.9656 H   0  0  0  0  0  0
  -23.9776  -27.2932   19.0024 H   0  0  0  0  0  0
  -23.8076  -30.5796   19.4032 H   0  0  0  0  0  0
  -22.7802  -29.2452   19.8395 H   0  0  0  0  0  0
  -25.1305  -36.1928   25.0824 H   0  0  0  0  0  0
  -21.0000  -28.3314   24.1349 H   0  0  0  0  0  0
  -20.5707  -26.2346   23.3598 H   0  0  0  0  0  0
  -21.6675  -26.7451   22.1193 H   0  0  0  0  0  0
  -19.6964  -25.6289   21.1247 H   0  0  0  0  0  0
  -19.6730  -27.3170   20.6705 H   0  0  0  0  0  0
  -17.4230  -26.6661   21.4003 H   0  0  0  0  0  0
  -18.0377  -26.0061   22.9002 H   0  0  0  0  0  0
  -19.7978  -30.7256   24.2276 H   0  0  0  0  0  0
  -17.5059  -31.6262   24.5167 H   0  0  0  0  0  0
  -15.5386  -30.3001   23.7644 H   0  0  0  0  0  0
  -15.8687  -28.0824   22.7067 H   0  0  0  0  0  0
  -24.5880  -30.7090   25.7697 H   0  0  0  0  0  0
  -24.8866  -32.2927   26.4783 H   0  0  0  0  0  0
  -25.7964  -30.8939   27.0217 H   0  0  0  0  0  0
  -26.2984  -29.6737   24.1238 H   0  0  0  0  0  0
  -27.4089  -29.7292   25.4719 H   0  0  0  0  0  0
  -27.8828  -30.4330   23.9451 H   0  0  0  0  0  0
  -27.2717  -33.3673   26.2002 H   0  0  0  0  0  0
  -28.3888  -32.6848   25.0287 H   0  0  0  0  0  0
  -28.0726  -31.8491   26.5417 H   0  0  0  0  0  0
  -28.2598  -38.0085   24.7523 H   0  0  0  0  0  0
  -28.1084  -36.2622   24.6310 H   0  0  0  0  0  0
  -27.2301  -37.1440   25.8872 H   0  0  0  0  0  0
  -20.9438  -29.8805   21.6827 H   0  0  0  0  0  0
  -26.0191  -38.2842   24.1410 H   0  0  0  0  0  0
  -28.6515  -18.4763   19.7184 H   0  0  0  0  0  0
  -32.3580  -18.9220   22.8898 H   0  0  0  0  0  0
  -31.5340  -23.7796   23.6943 H   0  0  0  0  0  0
  -29.9647  -23.8221   24.4989 H   0  0  0  0  0  0
  -30.3975  -21.7369   25.6133 H   0  0  0  0  0  0
  -32.0070  -22.4521   25.6543 H   0  0  0  0  0  0
  -30.1657  -22.9801   22.0358 H   0  0  0  0  0  0
  -29.1263  -22.0203   23.1135 H   0  0  0  0  0  0
  -31.4326  -20.0176   24.5095 H   0  0  0  0  0  0
  -32.7678  -21.0133   23.9253 H   0  0  0  0  0  0
  -31.0834  -22.6539   18.1982 H   0  0  0  0  0  0
  -30.6278  -21.0352   18.6210 H   0  0  0  0  0  0
  -31.6443  -21.9646   19.7219 H   0  0  0  0  0  0
  -28.2329  -21.5935   21.1648 H   0  0  0  0  0  0
  -28.2383  -20.9048   19.5990 H   0  0  0  0  0  0
  -27.2819  -24.4512   19.7023 H   0  0  0  0  0  0
  -27.9617  -24.5630   21.3026 H   0  0  0  0  0  0
  -28.8287  -15.7791   20.4676 H   0  0  0  0  0  0
  1 25  1  0  0  0
  1 30  2  0  0  0
  1 86  1  0  0  0
  2  3  1  0  0  0
  2 25  1  0  0  0
  2 90  1  0  0  0
  2 91  1  0  0  0
  3  4  1  0  0  0
  3 92  1  0  0  0
  3 93  1  0  0  0
  4  5  1  0  0  0
  4 94  1  0  0  0
  4 95  1  0  0  0
  5  6  1  0  0  0
  5 26  1  0  0  0
  5 96  1  0  0  0
  6 25  1  0  0  0
  6 97  1  0  0  0
  6 98  1  0  0  0
  7  8  2  0  0  0
  7 26  1  0  0  0
  7 29  1  0  0  0
  8  9  1  0  0  0
  8 22  1  0  0  0
  9 10  1  0  0  0
  9 27  2  0  0  0
 10 11  2  0  0  0
 10 15  1  0  0  0
 11 12  1  0  0  0
 11 99  1  0  0  0
 12 13  2  0  0  0
 12100  1  0  0  0
 13 14  1  0  0  0
 13 31  1  0  0  0
 14 15  2  0  0  0
 14101  1  0  0  0
 15102  1  0  0  0
 16 17  2  0  0  0
 16 21  1  0  0  0
 16 31  1  0  0  0
 17 18  1  0  0  0
 17103  1  0  0  0
 18 19  2  0  0  0
 18104  1  0  0  0
 19 20  1  0  0  0
 19 24  1  0  0  0
 20 21  2  0  0  0
 20105  1  0  0  0
 21 23  1  0  0  0
 22 28  1  0  0  0
 22 32  2  0  0  0
 26 27  1  0  0  0
 28106  1  0  0  0
 28107  1  0  0  0
 29108  1  0  0  0
 29109  1  0  0  0
 33 34  1  0  0  0
 33 66  1  0  0  0
 33 70  2  0  0  0
 34 36  1  0  0  0
 34 59  1  0  0  0
 34110  1  0  0  0
 35 44  2  0  0  0
 35 45  1  0  0  0
 35 68  1  0  0  0
 36 56  1  0  0  0
 36111  1  0  0  0
 37 39  1  0  0  0
 37 47  1  0  0  0
 37 66  1  0  0  0
 37112  1  0  0  0
 38 43  2  0  0  0
 38 46  1  0  0  0
 38 47  1  0  0  0
 39 64  1  0  0  0
 39 67  2  0  0  0
 40 52  1  0  0  0
 40 53  2  0  0  0
 40 58  1  0  0  0
 41113  1  0  0  0
 41114  1  0  0  0
 41115  1  0  0  0
 41 48  1  0  0  0
 42 43  1  0  0  0
 42 66  1  0  0  0
 42116  1  0  0  0
 42117  1  0  0  0
 43 44  1  0  0  0
 44118  1  0  0  0
 45 46  2  0  0  0
 45119  1  0  0  0
 46120  1  0  0  0
 47121  1  0  0  0
 47122  1  0  0  0
 48 56  1  0  0  0
 48 65  1  0  0  0
 48123  1  0  0  0
 49 50  1  0  0  0
 49 53  1  0  0  0
 49 64  1  0  0  0
 49124  1  0  0  0
 50 51  1  0  0  0
 50125  1  0  0  0
 50126  1  0  0  0
 51 52  1  0  0  0
 51127  1  0  0  0
 51128  1  0  0  0
 52129  1  0  0  0
 52130  1  0  0  0
 53 54  1  0  0  0
 54 55  2  0  0  0
 54131  1  0  0  0
 55 57  1  0  0  0
 55132  1  0  0  0
 56 69  2  0  0  0
 57 58  2  0  0  0
 57133  1  0  0  0
 58134  1  0  0  0
 59 60  1  0  0  0
 59 61  1  0  0  0
 59 62  1  0  0  0
 60135  1  0  0  0
 60136  1  0  0  0
 60137  1  0  0  0
 61138  1  0  0  0
 61139  1  0  0  0
 61140  1  0  0  0
 62141  1  0  0  0
 62142  1  0  0  0
 62143  1  0  0  0
 63 65  1  0  0  0
 63144  1  0  0  0
 63145  1  0  0  0
 63146  1  0  0  0
 64147  1  0  0  0
 65148  1  0  0  0
 68 84  1  0  0  0
 71 73  2  0  0  0
 71 75  1  0  0  0
 71149  1  0  0  0
 72 74  2  0  0  0
 72 76  1  0  0  0
 72150  1  0  0  0
 73 74  1  0  0  0
 73 83  1  0  0  0
 74 85  1  0  0  0
 75 76  2  0  0  0
 75 86  1  0  0  0
 76 89  1  0  0  0
 77 84  1  0  0  0
 77 87  1  0  0  0
 77 88  2  0  0  0
 78 79  1  0  0  0
 78 80  1  0  0  0
 78151  1  0  0  0
 78152  1  0  0  0
 79 81  1  0  0  0
 79153  1  0  0  0
 79154  1  0  0  0
 80 85  1  0  0  0
 80155  1  0  0  0
 80156  1  0  0  0
 81 85  1  0  0  0
 81157  1  0  0  0
 81158  1  0  0  0
 82 87  1  0  0  0
 82159  1  0  0  0
 82160  1  0  0  0
 82161  1  0  0  0
 83 87  1  0  0  0
 83162  1  0  0  0
 83163  1  0  0  0
 84164  1  0  0  0
 84165  1  0  0  0
 86166  1  0  0  0
M  ISO  4   1 100  68 101  84 101  86 100
M  END
> <chiral flag>
0

> <version>
0

> <s_m_source_file>
/data/baiqing/PycharmProjects/Reinvent-master-3.2/result/LINK_invent/BTK/process_docking_weight1_custom_product_contain_oxygen_bond_distance_aromatic_linkinvent_7_9_3/rearranged_h_0025.sdf

> <i_m_source_file_index>
57

> <r_mmod_Potential_Energy-OPLS-2005>
393.410278320312

> <r_mmod_Stretch_Energy-OPLS-2005>
182.247970581055

> <r_mmod_Bend_Energy-OPLS-2005>
262.315948486328

> <r_mmod_Torsional_Energy-OPLS-2005>
304.693725585938

> <r_mmod_Improper_Torsional_Energy-OPLS-2005>
11.3938055038452

> <r_mmod_Van_der_Waal_Energy-OPLS-2005>
169.602920532227

> <r_mmod_Electrostatic_Energy-OPLS-2005>
-377.108337402344

> <r_mmod_Solvation_Energy-OPLS-2005>
-265.987152099609

> <b_mmod_Minimization_Converged-OPLS-2005>
0

> <r_mmod_RMS_Derivative-OPLS-2005>
2.59171509742737

$$$$
57
                    3D
 Structure written by MMmdl.
159168  0  0  1  0            999 V2000
  -30.5370  -15.0258   20.4103 C   0  0  0  0  0  0
  -30.4375  -12.6378   19.5173 C   0  0  0  0  0  0
  -29.5259  -12.5423   18.2711 C   0  0  0  0  0  0
  -28.0646  -12.3106   18.6914 C   0  0  0  0  0  0
  -27.6278  -13.2573   19.8387 C   0  0  2  0  0  0
  -28.6670  -13.3319   20.9789 C   0  0  0  0  0  0
  -25.2459  -13.8229   20.5724 C   0  0  0  0  0  0
  -24.1781  -13.0445   20.9232 C   0  0  0  0  0  0
  -24.6404  -11.6931   20.8760 C   0  0  0  0  0  0
  -23.9090  -10.4296   21.0404 C   0  0  0  0  0  0
  -24.3636   -9.4210   21.9185 C   0  0  0  0  0  0
  -23.6304   -8.2249   22.0756 C   0  0  0  0  0  0
  -22.4287   -8.0286   21.3543 C   0  0  0  0  0  0
  -21.9928   -9.0258   20.4646 C   0  0  0  0  0  0
  -22.7260  -10.2134   20.3054 C   0  0  0  0  0  0
  -21.6862   -6.0741   22.5277 C   0  0  0  0  0  0
  -21.4012   -6.5644   23.8208 C   0  0  0  0  0  0
  -21.3656   -5.6797   24.9169 C   0  0  0  0  0  0
  -21.6045   -4.3060   24.7221 C   0  0  0  0  0  0
  -21.8822   -3.8153   23.4341 C   0  0  0  0  0  0
  -21.9194   -4.6970   22.3398 C   0  0  0  0  0  0
  -22.7802  -13.5210   21.1880 C   0  0  0  0  0  0
  -22.1669   -4.2157   21.0976 F   0  0  0  0  0  0
  -21.5626   -3.4542   25.7731 F   0  0  0  0  0  0
  -29.9375  -13.7576   20.3764 N   0  0  0  0  0  0
  -26.2885  -12.9476   20.3258 N   0  0  0  0  0  0
  -25.9344  -11.6599   20.5757 N   0  0  0  0  0  0
  -22.0462  -12.8181   22.0430 N   0  0  0  0  0  0
  -25.4126  -15.1954   20.4117 N   0  0  0  0  0  0
  -31.7428  -15.0466   20.1393 O   0  0  0  0  0  0
  -21.6647   -6.8884   21.4239 O   0  0  0  0  0  0
  -22.3483  -14.5515   20.6729 O   0  0  0  0  0  0
  -24.6481  -31.8380   23.1823 C   0  0  0  0  0  0
  -25.9221  -32.4660   23.8235 C   0  0  1  0  0  0
  -27.2110  -27.0769   20.1711 C   0  0  0  0  0  0
  -25.5938  -33.8467   24.2146 N   0  0  0  0  0  0
  -23.4545  -30.4572   21.5286 C   0  0  2  0  0  0
  -24.9032  -28.8722   20.1134 C   0  0  0  0  0  0
  -22.7575  -29.4536   22.4827 C   0  0  0  0  0  0
  -18.0313  -28.1406   22.8472 C   0  0  0  0  0  0
  -24.1487  -36.7242   23.2650 C   0  0  0  0  0  0
  -26.0127  -30.6961   21.3870 C   0  0  0  0  0  0
  -26.0819  -29.2993   20.7358 C   0  0  0  0  0  0
  -27.2366  -28.4202   20.7440 C   0  0  0  0  0  0
  -26.0080  -26.7695   19.4992 C   0  0  0  0  0  0
  -24.8825  -27.6226   19.4773 C   0  0  0  0  0  0
  -23.6838  -29.7824   20.1497 C   0  0  0  0  0  0
  -25.4111  -36.3003   24.0324 C   0  0  1  0  0  0
  -20.5926  -28.3730   23.1228 C   0  0  2  0  0  0
  -20.6790  -26.9431   22.5404 C   0  0  0  0  0  0
  -19.5767  -26.6392   21.5210 C   0  0  0  0  0  0
  -18.1946  -26.7943   22.1620 C   0  0  0  0  0  0
  -19.1576  -28.8880   23.2840 C   0  0  0  0  0  0
  -18.9501  -30.1473   23.8869 C   0  0  0  0  0  0
  -17.6502  -30.6597   24.0562 C   0  0  0  0  0  0
  -25.9090  -34.9391   23.5055 C   0  0  0  0  0  0
  -16.5383  -29.9102   23.6345 C   0  0  0  0  0  0
  -16.7300  -28.6524   23.0352 C   0  0  0  0  0  0
  -26.4522  -31.6540   25.0696 C   0  0  0  0  0  0
  -25.3692  -31.3737   26.1383 C   0  0  0  0  0  0
  -27.0387  -30.2938   24.6285 C   0  0  0  0  0  0
  -27.6039  -32.4315   25.7487 C   0  0  0  0  0  0
  -27.5560  -37.1750   24.8456 C   0  0  0  0  0  0
  -21.4265  -29.3056   22.3578 N   0  0  0  0  0  0
  -26.4248  -37.3733   23.9443 N   0  0  0  0  0  0
  -24.7257  -31.0187   22.0882 N   0  0  0  0  0  0
  -23.4193  -28.8109   23.3019 O   0  0  0  0  0  0
  -28.2527  -26.0595   20.2364 O   0  0  0  0  0  0
  -26.5687  -34.8911   22.4645 O   0  0  0  0  0  0
  -23.5582  -32.1285   23.6997 O   0  0  0  0  0  0
  -30.7556  -20.5846   19.7988 C   0  0  0  0  0  0
  -31.2948  -18.1565   19.8218 C   0  0  0  0  0  0
  -29.1423  -18.9588   20.6072 C   0  0  0  0  0  0
  -29.4673  -20.4219   20.3519 C   0  0  0  0  0  0
  -30.0455  -17.7726   20.3589 C   0  0  0  0  0  0
  -31.6325  -19.5031   19.5489 C   0  0  0  0  0  0
  -26.9056  -22.7991   21.9616 C   0  0  0  0  0  0
  -27.3408  -24.2680   21.7404 C   0  0  0  0  0  0
  -28.0728  -21.7838   21.9183 C   0  0  0  0  0  0
  -29.0488  -23.1862   20.1601 C   0  0  0  0  0  0
  -27.9728  -24.4990   20.3547 C   0  0  2  0  0  0
  -27.7628  -18.6075   21.1316 C   0  0  0  0  0  0
  -28.6910  -21.7042   20.5915 N   0  0  0  0  0  0
  -29.7771  -16.2432   20.5728 N   0  0  0  0  0  0
  -33.1872  -19.8445   18.8781 Cl  0  0  0  0  0  0
  -31.4733  -12.7886   19.2067 H   0  0  0  0  0  0
  -30.4315  -11.6974   20.0703 H   0  0  0  0  0  0
  -29.8601  -11.7380   17.6146 H   0  0  0  0  0  0
  -29.5992  -13.4637   17.6902 H   0  0  0  0  0  0
  -27.9805  -11.2744   19.0208 H   0  0  0  0  0  0
  -27.3975  -12.4141   17.8350 H   0  0  0  0  0  0
  -27.5781  -14.2492   19.3895 H   0  0  0  0  0  0
  -28.7704  -12.3713   21.4863 H   0  0  0  0  0  0
  -28.3516  -14.0490   21.7378 H   0  0  0  0  0  0
  -25.2778   -9.5689   22.4765 H   0  0  0  0  0  0
  -24.0014   -7.4640   22.7474 H   0  0  0  0  0  0
  -21.0870   -8.8775   19.8946 H   0  0  0  0  0  0
  -22.3721  -10.9674   19.6169 H   0  0  0  0  0  0
  -21.2007   -7.6154   23.9713 H   0  0  0  0  0  0
  -21.1473   -6.0526   25.9070 H   0  0  0  0  0  0
  -22.0606   -2.7615   23.2836 H   0  0  0  0  0  0
  -22.4102  -11.9833   22.4781 H   0  0  0  0  0  0
  -21.1074  -13.1184   22.2652 H   0  0  0  0  0  0
  -24.6355  -15.8416   20.4935 H   0  0  0  0  0  0
  -26.2464  -15.6245   20.0337 H   0  0  0  0  0  0
  -26.7271  -32.5251   23.0944 H   0  0  0  0  0  0
  -25.0005  -33.9564   25.0236 H   0  0  0  0  0  0
  -22.7624  -31.2861   21.3657 H   0  0  0  0  0  0
  -23.3766  -35.9549   23.3283 H   0  0  0  0  0  0
  -24.3585  -36.8914   22.2070 H   0  0  0  0  0  0
  -23.7246  -37.6429   23.6714 H   0  0  0  0  0  0
  -26.1645  -31.4411   20.6049 H   0  0  0  0  0  0
  -26.8851  -30.7575   22.0254 H   0  0  0  0  0  0
  -28.1317  -28.7417   21.2555 H   0  0  0  0  0  0
  -25.9004  -25.8243   18.9920 H   0  0  0  0  0  0
  -23.9856  -27.2926   18.9729 H   0  0  0  0  0  0
  -23.8286  -30.5545   19.3938 H   0  0  0  0  0  0
  -22.7957  -29.2311   19.8349 H   0  0  0  0  0  0
  -25.1295  -36.1789   25.0808 H   0  0  0  0  0  0
  -21.0016  -28.3312   24.1350 H   0  0  0  0  0  0
  -20.5692  -26.2326   23.3617 H   0  0  0  0  0  0
  -21.6651  -26.7430   22.1191 H   0  0  0  0  0  0
  -19.6941  -25.6308   21.1236 H   0  0  0  0  0  0
  -19.6715  -27.3193   20.6737 H   0  0  0  0  0  0
  -17.4214  -26.6695   21.4030 H   0  0  0  0  0  0
  -18.0339  -26.0100   22.9029 H   0  0  0  0  0  0
  -19.7987  -30.7291   24.2212 H   0  0  0  0  0  0
  -17.5072  -31.6279   24.5164 H   0  0  0  0  0  0
  -15.5388  -30.2998   23.7700 H   0  0  0  0  0  0
  -15.8696  -28.0841   22.7070 H   0  0  0  0  0  0
  -24.5908  -30.7044   25.7715 H   0  0  0  0  0  0
  -24.8843  -32.2913   26.4716 H   0  0  0  0  0  0
  -25.7975  -30.8987   27.0223 H   0  0  0  0  0  0
  -26.2994  -29.6670   24.1285 H   0  0  0  0  0  0
  -27.4018  -29.7227   25.4841 H   0  0  0  0  0  0
  -27.8896  -30.4204   23.9594 H   0  0  0  0  0  0
  -27.2625  -33.3656   26.1962 H   0  0  0  0  0  0
  -28.3891  -32.6806   25.0342 H   0  0  0  0  0  0
  -28.0648  -31.8506   26.5490 H   0  0  0  0  0  0
  -28.2499  -38.0109   24.7551 H   0  0  0  0  0  0
  -28.1126  -36.2644   24.6189 H   0  0  0  0  0  0
  -27.2295  -37.1274   25.8855 H   0  0  0  0  0  0
  -20.9468  -29.8770   21.6758 H   0  0  0  0  0  0
  -26.0113  -38.2785   24.1515 H   0  0  0  0  0  0
  -31.1135  -21.5749   19.5604 H   0  0  0  0  0  0
  -32.0382  -17.4114   19.5841 H   0  0  0  0  0  0
  -26.1468  -22.5212   21.2298 H   0  0  0  0  0  0
  -26.4193  -22.7234   22.9358 H   0  0  0  0  0  0
  -28.0535  -24.5569   22.5136 H   0  0  0  0  0  0
  -26.4731  -24.9157   21.8649 H   0  0  0  0  0  0
  -27.7032  -20.8236   22.2604 H   0  0  0  0  0  0
  -28.8350  -22.0758   22.6439 H   0  0  0  0  0  0
  -29.9600  -23.4452   20.7013 H   0  0  0  0  0  0
  -29.3389  -23.1572   19.1098 H   0  0  0  0  0  0
  -27.1998  -24.2871   19.6199 H   0  0  0  0  0  0
  -27.0162  -19.3170   20.7752 H   0  0  0  0  0  0
  -27.7620  -18.6023   22.2221 H   0  0  0  0  0  0
  -27.4495  -17.6219   20.7918 H   0  0  0  0  0  0
  -28.8275  -16.0410   20.8447 H   0  0  0  0  0  0
  1 25  1  0  0  0
  1 30  2  0  0  0
  1 84  1  0  0  0
  2  3  1  0  0  0
  2 25  1  0  0  0
  2 86  1  0  0  0
  2 87  1  0  0  0
  3  4  1  0  0  0
  3 88  1  0  0  0
  3 89  1  0  0  0
  4  5  1  0  0  0
  4 90  1  0  0  0
  4 91  1  0  0  0
  5  6  1  0  0  0
  5 26  1  0  0  0
  5 92  1  0  0  0
  6 25  1  0  0  0
  6 93  1  0  0  0
  6 94  1  0  0  0
  7  8  2  0  0  0
  7 26  1  0  0  0
  7 29  1  0  0  0
  8  9  1  0  0  0
  8 22  1  0  0  0
  9 10  1  0  0  0
  9 27  2  0  0  0
 10 11  2  0  0  0
 10 15  1  0  0  0
 11 12  1  0  0  0
 11 95  1  0  0  0
 12 13  2  0  0  0
 12 96  1  0  0  0
 13 14  1  0  0  0
 13 31  1  0  0  0
 14 15  2  0  0  0
 14 97  1  0  0  0
 15 98  1  0  0  0
 16 17  2  0  0  0
 16 21  1  0  0  0
 16 31  1  0  0  0
 17 18  1  0  0  0
 17 99  1  0  0  0
 18 19  2  0  0  0
 18100  1  0  0  0
 19 20  1  0  0  0
 19 24  1  0  0  0
 20 21  2  0  0  0
 20101  1  0  0  0
 21 23  1  0  0  0
 22 28  1  0  0  0
 22 32  2  0  0  0
 26 27  1  0  0  0
 28102  1  0  0  0
 28103  1  0  0  0
 29104  1  0  0  0
 29105  1  0  0  0
 33 34  1  0  0  0
 33 66  1  0  0  0
 33 70  2  0  0  0
 34 36  1  0  0  0
 34 59  1  0  0  0
 34106  1  0  0  0
 35 44  2  0  0  0
 35 45  1  0  0  0
 35 68  1  0  0  0
 36 56  1  0  0  0
 36107  1  0  0  0
 37 39  1  0  0  0
 37 47  1  0  0  0
 37 66  1  0  0  0
 37108  1  0  0  0
 38 43  2  0  0  0
 38 46  1  0  0  0
 38 47  1  0  0  0
 39 64  1  0  0  0
 39 67  2  0  0  0
 40 52  1  0  0  0
 40 53  2  0  0  0
 40 58  1  0  0  0
 41109  1  0  0  0
 41110  1  0  0  0
 41111  1  0  0  0
 41 48  1  0  0  0
 42 43  1  0  0  0
 42 66  1  0  0  0
 42112  1  0  0  0
 42113  1  0  0  0
 43 44  1  0  0  0
 44114  1  0  0  0
 45 46  2  0  0  0
 45115  1  0  0  0
 46116  1  0  0  0
 47117  1  0  0  0
 47118  1  0  0  0
 48 56  1  0  0  0
 48 65  1  0  0  0
 48119  1  0  0  0
 49 50  1  0  0  0
 49 53  1  0  0  0
 49 64  1  0  0  0
 49120  1  0  0  0
 50 51  1  0  0  0
 50121  1  0  0  0
 50122  1  0  0  0
 51 52  1  0  0  0
 51123  1  0  0  0
 51124  1  0  0  0
 52125  1  0  0  0
 52126  1  0  0  0
 53 54  1  0  0  0
 54 55  2  0  0  0
 54127  1  0  0  0
 55 57  1  0  0  0
 55128  1  0  0  0
 56 69  2  0  0  0
 57 58  2  0  0  0
 57129  1  0  0  0
 58130  1  0  0  0
 59 60  1  0  0  0
 59 61  1  0  0  0
 59 62  1  0  0  0
 60131  1  0  0  0
 60132  1  0  0  0
 60133  1  0  0  0
 61134  1  0  0  0
 61135  1  0  0  0
 61136  1  0  0  0
 62137  1  0  0  0
 62138  1  0  0  0
 62139  1  0  0  0
 63 65  1  0  0  0
 63140  1  0  0  0
 63141  1  0  0  0
 63142  1  0  0  0
 64143  1  0  0  0
 65144  1  0  0  0
 68 81  1  0  0  0
 71 74  2  0  0  0
 71 76  1  0  0  0
 71145  1  0  0  0
 72 75  1  0  0  0
 72 76  2  0  0  0
 72146  1  0  0  0
 73 74  1  0  0  0
 73 75  2  0  0  0
 73 82  1  0  0  0
 74 83  1  0  0  0
 75 84  1  0  0  0
 76 85  1  0  0  0
 77 78  1  0  0  0
 77 79  1  0  0  0
 77147  1  0  0  0
 77148  1  0  0  0
 78 81  1  0  0  0
 78149  1  0  0  0
 78150  1  0  0  0
 79 83  1  0  0  0
 79151  1  0  0  0
 79152  1  0  0  0
 80 81  1  0  0  0
 80 83  1  0  0  0
 80153  1  0  0  0
 80154  1  0  0  0
 81155  1  0  0  0
 82156  1  0  0  0
 82157  1  0  0  0
 82158  1  0  0  0
 84159  1  0  0  0
M  ISO  4   1 100  68 101  81 101  84 100
M  END
> <chiral flag>
0

> <version>
0

> <s_m_source_file>
/data/baiqing/PycharmProjects/Reinvent-master-3.2/result/LINK_invent/BTK/process_docking_weight1_custom_product_contain_oxygen_bond_distance_aromatic_linkinvent_7_9_3/rearranged_h_0025.sdf

> <i_m_source_file_index>
58

> <r_mmod_Potential_Energy-OPLS-2005>
668.777221679688

> <r_mmod_Stretch_Energy-OPLS-2005>
334.079071044922

> <r_mmod_Bend_Energy-OPLS-2005>
280.514801025391

> <r_mmod_Torsional_Energy-OPLS-2005>
242.597122192383

> <r_mmod_Improper_Torsional_Energy-OPLS-2005>
7.164710521698

> <r_mmod_Van_der_Waal_Energy-OPLS-2005>
135.977355957031

> <r_mmod_Electrostatic_Energy-OPLS-2005>
-357.355529785156

> <r_mmod_Solvation_Energy-OPLS-2005>
-221.493057250977

> <b_mmod_Minimization_Converged-OPLS-2005>
0

> <r_mmod_RMS_Derivative-OPLS-2005>
2.0611526966095

$$$$
58
                    3D
 Structure written by MMmdl.
176186  0  0  1  0            999 V2000
  -30.7293  -14.5227   20.4155 C   0  0  0  0  0  0
  -30.4276  -12.2908   19.4381 C   0  0  0  0  0  0
  -29.4887  -12.3566   18.2170 C   0  0  0  0  0  0
  -28.0093  -12.2946   18.6365 C   0  0  0  0  0  0
  -27.6524  -13.2045   19.8425 C   0  0  2  0  0  0
  -28.7106  -13.1049   20.9613 C   0  0  0  0  0  0
  -25.2577  -13.8182   20.5641 C   0  0  0  0  0  0
  -24.1827  -13.0483   20.9153 C   0  0  0  0  0  0
  -24.6381  -11.6935   20.8757 C   0  0  0  0  0  0
  -23.9043  -10.4326   21.0404 C   0  0  0  0  0  0
  -24.3588   -9.4245   21.9206 C   0  0  0  0  0  0
  -23.6294   -8.2268   22.0765 C   0  0  0  0  0  0
  -22.4280   -8.0301   21.3556 C   0  0  0  0  0  0
  -21.9906   -9.0267   20.4669 C   0  0  0  0  0  0
  -22.7200  -10.2163   20.3081 C   0  0  0  0  0  0
  -21.6851   -6.0755   22.5278 C   0  0  0  0  0  0
  -21.3996   -6.5652   23.8212 C   0  0  0  0  0  0
  -21.3647   -5.6788   24.9164 C   0  0  0  0  0  0
  -21.6038   -4.3051   24.7200 C   0  0  0  0  0  0
  -21.8803   -3.8167   23.4312 C   0  0  0  0  0  0
  -21.9182   -4.6994   22.3379 C   0  0  0  0  0  0
  -22.7840  -13.5310   21.1778 C   0  0  0  0  0  0
  -22.1661   -4.2196   21.0954 F   0  0  0  0  0  0
  -21.5632   -3.4512   25.7692 F   0  0  0  0  0  0
  -30.0249  -13.3588   20.3591 N   0  0  0  0  0  0
  -26.3000  -12.9342   20.3296 N   0  0  0  0  0  0
  -25.9319  -11.6523   20.5839 N   0  0  0  0  0  0
  -22.0423  -12.8324   22.0307 N   0  0  0  0  0  0
  -25.4310  -15.1896   20.3974 N   0  0  0  0  0  0
  -31.9482  -14.5715   20.2490 O   0  0  0  0  0  0
  -21.6647   -6.8895   21.4248 O   0  0  0  0  0  0
  -22.3569  -14.5648   20.6639 O   0  0  0  0  0  0
  -24.6181  -31.8659   23.2112 C   0  0  0  0  0  0
  -25.9068  -32.4799   23.8399 C   0  0  1  0  0  0
  -27.2412  -27.4278   20.0784 C   0  0  0  0  0  0
  -25.5927  -33.8607   24.2316 N   0  0  0  0  0  0
  -23.4025  -30.4946   21.5477 C   0  0  2  0  0  0
  -24.8468  -28.9529   20.1143 C   0  0  0  0  0  0
  -22.7435  -29.4686   22.4999 C   0  0  0  0  0  0
  -18.0336  -28.1371   22.8446 C   0  0  0  0  0  0
  -24.1483  -36.7323   23.2633 C   0  0  0  0  0  0
  -25.9338  -30.8260   21.3663 C   0  0  0  0  0  0
  -26.0055  -29.4581   20.7139 C   0  0  0  0  0  0
  -27.2024  -28.7039   20.6923 C   0  0  0  0  0  0
  -26.0522  -26.9253   19.4975 C   0  0  0  0  0  0
  -24.8666  -27.6863   19.5065 C   0  0  0  0  0  0
  -23.6086  -29.8203   20.1623 C   0  0  0  0  0  0
  -25.4109  -36.3108   24.0338 C   0  0  1  0  0  0
  -20.5918  -28.3666   23.1345 C   0  0  2  0  0  0
  -20.6833  -26.9467   22.5287 C   0  0  0  0  0  0
  -19.5814  -26.6529   21.5049 C   0  0  0  0  0  0
  -18.1982  -26.7975   22.1472 C   0  0  0  0  0  0
  -19.1573  -28.8807   23.2906 C   0  0  0  0  0  0
  -18.9502  -30.1426   23.8911 C   0  0  0  0  0  0
  -17.6506  -30.6560   24.0574 C   0  0  0  0  0  0
  -25.9052  -34.9474   23.5126 C   0  0  0  0  0  0
  -16.5396  -29.9064   23.6304 C   0  0  0  0  0  0
  -16.7321  -28.6488   23.0353 C   0  0  0  0  0  0
  -26.4487  -31.6588   25.0717 C   0  0  0  0  0  0
  -25.3755  -31.3705   26.1469 C   0  0  0  0  0  0
  -27.0312  -30.3040   24.6077 C   0  0  0  0  0  0
  -27.6078  -32.4284   25.7466 C   0  0  0  0  0  0
  -27.5592  -37.1806   24.8465 C   0  0  0  0  0  0
  -21.4149  -29.3138   22.3831 N   0  0  0  0  0  0
  -26.4298  -37.3792   23.9407 N   0  0  0  0  0  0
  -24.6695  -31.0797   22.0979 N   0  0  0  0  0  0
  -23.4235  -28.8150   23.2948 O   0  0  0  0  0  0
  -28.4482  -26.7518   20.0651 O   0  0  0  0  0  0
  -26.5605  -34.8931   22.4673 O   0  0  0  0  0  0
  -23.5406  -32.1412   23.7544 O   0  0  0  0  0  0
  -31.0986  -16.8657   17.0043 C   0  0  0  0  0  0
  -31.0074  -17.9720   17.7312 C   0  0  0  0  0  0
  -30.4188  -15.6942   17.6562 C   0  0  0  0  0  0
  -28.0083  -19.7089   23.8876 C   0  0  0  0  0  0
  -26.9021  -19.6994   22.8375 C   0  0  0  0  0  0
  -31.0291  -17.8225   20.2637 C   0  0  0  0  0  0
  -29.3015  -19.3355   23.1552 C   0  0  0  0  0  0
  -30.2191  -17.7451   18.9901 C   0  0  2  0  0  0
  -29.7486  -16.2786   18.9437 C   0  0  2  0  0  0
  -27.5866  -19.3886   21.5059 C   0  0  1  0  0  0
  -30.2853  -16.8229   21.1698 C   0  0  1  0  0  0
  -28.9426  -17.3590   21.7558 C   0  0  0  0  0  0
  -27.6858  -20.5520   20.4782 C   0  0  0  0  0  0
  -28.2959  -24.3340   20.5733 C   0  0  0  0  0  0
  -28.3455  -22.8967   19.9979 C   0  0  0  0  0  0
  -28.5551  -25.4293   19.5134 C   0  0  0  0  0  0
  -30.0026  -15.6634   20.2868 N   0  0  0  0  0  0
  -28.9047  -18.8311   21.8400 N   0  0  0  0  0  0
  -28.1705  -21.8386   21.0284 N   0  3  0  0  0  0
  -31.4672  -12.3829   19.1180 H   0  0  0  0  0  0
  -30.3542  -11.3218   19.9351 H   0  0  0  0  0  0
  -29.7071  -11.5304   17.5384 H   0  0  0  0  0  0
  -29.6667  -13.2487   17.6339 H   0  0  0  0  0  0
  -27.8025  -11.2571   18.8950 H   0  0  0  0  0  0
  -27.3710  -12.5236   17.7844 H   0  0  0  0  0  0
  -27.6659  -14.2249   19.4708 H   0  0  0  0  0  0
  -28.6937  -12.1159   21.4195 H   0  0  0  0  0  0
  -28.5000  -13.8236   21.7557 H   0  0  0  0  0  0
  -25.2707   -9.5735   22.4811 H   0  0  0  0  0  0
  -24.0026   -7.4669   22.7479 H   0  0  0  0  0  0
  -21.0838   -8.8739   19.8993 H   0  0  0  0  0  0
  -22.3616  -10.9704   19.6219 H   0  0  0  0  0  0
  -21.1988   -7.6162   23.9721 H   0  0  0  0  0  0
  -21.1476   -6.0519   25.9056 H   0  0  0  0  0  0
  -22.0588   -2.7638   23.2780 H   0  0  0  0  0  0
  -22.4035  -12.0060   22.4838 H   0  0  0  0  0  0
  -21.1021  -13.1353   22.2452 H   0  0  0  0  0  0
  -24.6637  -15.8427   20.5019 H   0  0  0  0  0  0
  -26.2834  -15.6204   20.0678 H   0  0  0  0  0  0
  -26.7109  -32.5487   23.1153 H   0  0  0  0  0  0
  -25.0043  -33.9708   25.0446 H   0  0  0  0  0  0
  -22.6909  -31.3126   21.4089 H   0  0  0  0  0  0
  -23.3730  -35.9671   23.3304 H   0  0  0  0  0  0
  -24.3571  -36.8917   22.2037 H   0  0  0  0  0  0
  -23.7230  -37.6536   23.6643 H   0  0  0  0  0  0
  -26.0483  -31.5927   20.5981 H   0  0  0  0  0  0
  -26.8212  -30.8789   21.9870 H   0  0  0  0  0  0
  -28.1029  -29.1005   21.1434 H   0  0  0  0  0  0
  -26.0067  -25.9556   19.0262 H   0  0  0  0  0  0
  -23.9744  -27.2920   19.0391 H   0  0  0  0  0  0
  -23.7007  -30.5830   19.3895 H   0  0  0  0  0  0
  -22.7355  -29.2295   19.8789 H   0  0  0  0  0  0
  -25.1265  -36.1989   25.0834 H   0  0  0  0  0  0
  -21.0048  -28.3135   24.1465 H   0  0  0  0  0  0
  -20.5836  -26.2262   23.3419 H   0  0  0  0  0  0
  -21.6711  -26.7620   22.1039 H   0  0  0  0  0  0
  -19.6738  -27.3485   20.6695 H   0  0  0  0  0  0
  -19.6978  -25.6516   21.0918 H   0  0  0  0  0  0
  -17.4306  -26.6828   21.3811 H   0  0  0  0  0  0
  -18.0413  -26.0025   22.8763 H   0  0  0  0  0  0
  -19.7980  -30.7221   24.2330 H   0  0  0  0  0  0
  -17.5075  -31.6208   24.5216 H   0  0  0  0  0  0
  -15.5401  -30.2944   23.7605 H   0  0  0  0  0  0
  -15.8740  -28.0795   22.7042 H   0  0  0  0  0  0
  -24.5919  -30.7049   25.7820 H   0  0  0  0  0  0
  -24.8967  -32.2868   26.4944 H   0  0  0  0  0  0
  -25.8142  -30.8854   27.0200 H   0  0  0  0  0  0
  -26.2838  -29.6802   24.1155 H   0  0  0  0  0  0
  -27.4107  -29.7291   25.4540 H   0  0  0  0  0  0
  -27.8694  -30.4357   23.9223 H   0  0  0  0  0  0
  -27.2693  -33.3553   26.2117 H   0  0  0  0  0  0
  -28.3875  -32.6853   25.0279 H   0  0  0  0  0  0
  -28.0766  -31.8332   26.5307 H   0  0  0  0  0  0
  -28.2606  -38.0107   24.7512 H   0  0  0  0  0  0
  -28.1075  -36.2629   24.6283 H   0  0  0  0  0  0
  -27.2316  -37.1469   25.8870 H   0  0  0  0  0  0
  -20.9281  -29.8867   21.7081 H   0  0  0  0  0  0
  -26.0205  -38.2888   24.1369 H   0  0  0  0  0  0
  -31.6095  -16.7876   16.0546 H   0  0  0  0  0  0
  -31.4296  -18.9314   17.4648 H   0  0  0  0  0  0
  -31.1793  -14.9348   17.8239 H   0  0  0  0  0  0
  -29.6715  -15.3053   16.9628 H   0  0  0  0  0  0
  -27.7937  -18.9897   24.6815 H   0  0  0  0  0  0
  -28.1002  -20.6895   24.3606 H   0  0  0  0  0  0
  -26.3335  -20.6279   22.8135 H   0  0  0  0  0  0
  -26.1939  -18.9008   23.0681 H   0  0  0  0  0  0
  -31.1215  -18.8342   20.6589 H   0  0  0  0  0  0
  -32.0453  -17.4644   20.0872 H   0  0  0  0  0  0
  -29.9187  -18.6371   23.7231 H   0  0  0  0  0  0
  -29.9099  -20.2312   23.0187 H   0  0  0  0  0  0
  -29.3608  -18.4114   19.0227 H   0  0  0  0  0  0
  -28.6687  -16.2720   18.7906 H   0  0  0  0  0  0
  -26.9819  -18.6380   20.9953 H   0  0  0  0  0  0
  -30.9419  -16.5548   21.9997 H   0  0  0  0  0  0
  -28.7241  -16.9018   22.7231 H   0  0  0  0  0  0
  -28.1424  -17.0071   21.1042 H   0  0  0  0  0  0
  -26.6964  -20.7169   20.0503 H   0  0  0  0  0  0
  -28.3203  -20.2526   19.6445 H   0  0  0  0  0  0
  -29.0397  -24.4323   21.3674 H   0  0  0  0  0  0
  -27.3251  -24.5081   21.0371 H   0  0  0  0  0  0
  -29.2878  -22.7239   19.4736 H   0  0  0  0  0  0
  -27.5563  -22.8089   19.2498 H   0  0  0  0  0  0
  -29.5813  -25.3245   19.1606 H   0  0  0  0  0  0
  -27.9454  -25.2904   18.6196 H   0  0  0  0  0  0
  -29.0544  -21.6713   21.4796 H   0  0  0  0  0  0
  -27.5137  -22.1497   21.7247 H   0  0  0  0  0  0
  1 25  1  0  0  0
  1 30  2  0  0  0
  1 87  1  0  0  0
  2  3  1  0  0  0
  2 25  1  0  0  0
  2 90  1  0  0  0
  2 91  1  0  0  0
  3  4  1  0  0  0
  3 92  1  0  0  0
  3 93  1  0  0  0
  4  5  1  0  0  0
  4 94  1  0  0  0
  4 95  1  0  0  0
  5  6  1  0  0  0
  5 26  1  0  0  0
  5 96  1  0  0  0
  6 25  1  0  0  0
  6 97  1  0  0  0
  6 98  1  0  0  0
  7  8  2  0  0  0
  7 26  1  0  0  0
  7 29  1  0  0  0
  8  9  1  0  0  0
  8 22  1  0  0  0
  9 10  1  0  0  0
  9 27  2  0  0  0
 10 11  2  0  0  0
 10 15  1  0  0  0
 11 12  1  0  0  0
 11 99  1  0  0  0
 12 13  2  0  0  0
 12100  1  0  0  0
 13 14  1  0  0  0
 13 31  1  0  0  0
 14 15  2  0  0  0
 14101  1  0  0  0
 15102  1  0  0  0
 16 17  2  0  0  0
 16 21  1  0  0  0
 16 31  1  0  0  0
 17 18  1  0  0  0
 17103  1  0  0  0
 18 19  2  0  0  0
 18104  1  0  0  0
 19 20  1  0  0  0
 19 24  1  0  0  0
 20 21  2  0  0  0
 20105  1  0  0  0
 21 23  1  0  0  0
 22 28  1  0  0  0
 22 32  2  0  0  0
 26 27  1  0  0  0
 28106  1  0  0  0
 28107  1  0  0  0
 29108  1  0  0  0
 29109  1  0  0  0
 33 34  1  0  0  0
 33 66  1  0  0  0
 33 70  2  0  0  0
 34 36  1  0  0  0
 34 59  1  0  0  0
 34110  1  0  0  0
 35 44  2  0  0  0
 35 45  1  0  0  0
 35 68  1  0  0  0
 36 56  1  0  0  0
 36111  1  0  0  0
 37 39  1  0  0  0
 37 47  1  0  0  0
 37 66  1  0  0  0
 37112  1  0  0  0
 38 43  2  0  0  0
 38 46  1  0  0  0
 38 47  1  0  0  0
 39 64  1  0  0  0
 39 67  2  0  0  0
 40 52  1  0  0  0
 40 53  2  0  0  0
 40 58  1  0  0  0
 41113  1  0  0  0
 41114  1  0  0  0
 41115  1  0  0  0
 41 48  1  0  0  0
 42 43  1  0  0  0
 42 66  1  0  0  0
 42116  1  0  0  0
 42117  1  0  0  0
 43 44  1  0  0  0
 44118  1  0  0  0
 45 46  2  0  0  0
 45119  1  0  0  0
 46120  1  0  0  0
 47121  1  0  0  0
 47122  1  0  0  0
 48 56  1  0  0  0
 48 65  1  0  0  0
 48123  1  0  0  0
 49 50  1  0  0  0
 49 53  1  0  0  0
 49 64  1  0  0  0
 49124  1  0  0  0
 50 51  1  0  0  0
 50125  1  0  0  0
 50126  1  0  0  0
 51 52  1  0  0  0
 51127  1  0  0  0
 51128  1  0  0  0
 52129  1  0  0  0
 52130  1  0  0  0
 53 54  1  0  0  0
 54 55  2  0  0  0
 54131  1  0  0  0
 55 57  1  0  0  0
 55132  1  0  0  0
 56 69  2  0  0  0
 57 58  2  0  0  0
 57133  1  0  0  0
 58134  1  0  0  0
 59 60  1  0  0  0
 59 61  1  0  0  0
 59 62  1  0  0  0
 60135  1  0  0  0
 60136  1  0  0  0
 60137  1  0  0  0
 61138  1  0  0  0
 61139  1  0  0  0
 61140  1  0  0  0
 62141  1  0  0  0
 62142  1  0  0  0
 62143  1  0  0  0
 63 65  1  0  0  0
 63144  1  0  0  0
 63145  1  0  0  0
 63146  1  0  0  0
 64147  1  0  0  0
 65148  1  0  0  0
 68 86  1  0  0  0
 71 72  2  0  0  0
 71 73  1  0  0  0
 71149  1  0  0  0
 72 78  1  0  0  0
 72150  1  0  0  0
 73151  1  0  0  0
 73152  1  0  0  0
 73 79  1  0  0  0
 74 75  1  0  0  0
 74 77  1  0  0  0
 74153  1  0  0  0
 74154  1  0  0  0
 75 80  1  0  0  0
 75155  1  0  0  0
 75156  1  0  0  0
 76 81  1  0  0  0
 76157  1  0  0  0
 76158  1  0  0  0
 76 78  1  0  0  0
 77 88  1  0  0  0
 77159  1  0  0  0
 77160  1  0  0  0
 78 79  1  0  0  0
 78161  1  0  0  0
 79 87  1  0  0  0
 79162  1  0  0  0
 80 83  1  0  0  0
 80 88  1  0  0  0
 80163  1  0  0  0
 81 82  1  0  0  0
 81 87  1  0  0  0
 81164  1  0  0  0
 82 88  1  0  0  0
 82165  1  0  0  0
 82166  1  0  0  0
 83 89  1  0  0  0
 83167  1  0  0  0
 83168  1  0  0  0
 84 85  1  0  0  0
 84 86  1  0  0  0
 84169  1  0  0  0
 84170  1  0  0  0
 85 89  1  0  0  0
 85171  1  0  0  0
 85172  1  0  0  0
 86173  1  0  0  0
 86174  1  0  0  0
 89175  1  0  0  0
 89176  1  0  0  0
M  CHG  1  89   1
M  ISO  4   1 100  68 101  86 101  87 100
M  END
> <chiral flag>
0

> <version>
0

> <s_m_source_file>
/data/baiqing/PycharmProjects/Reinvent-master-3.2/result/LINK_invent/BTK/process_docking_weight1_custom_product_contain_oxygen_bond_distance_aromatic_linkinvent_7_9_3/rearranged_h_0025.sdf

> <i_m_source_file_index>
59

> <r_mmod_Potential_Energy-OPLS-2005>
246.8408203125

> <r_mmod_Stretch_Energy-OPLS-2005>
45.645565032959

> <r_mmod_Bend_Energy-OPLS-2005>
206.870056152344

> <r_mmod_Torsional_Energy-OPLS-2005>
483.593048095703

> <r_mmod_Improper_Torsional_Energy-OPLS-2005>
13.9453248977661

> <r_mmod_Van_der_Waal_Energy-OPLS-2005>
126.755401611328

> <r_mmod_Electrostatic_Energy-OPLS-2005>
-227.377456665039

> <r_mmod_Solvation_Energy-OPLS-2005>
-438.164581298828

> <b_mmod_Minimization_Converged-OPLS-2005>
0

> <r_mmod_RMS_Derivative-OPLS-2005>
4.50186586380005

$$$$
59
                    3D
 Structure written by MMmdl.
158167  0  0  1  0            999 V2000
  -30.6190  -14.6388   20.5156 C   0  0  0  0  0  0
  -30.4412  -12.3939   19.4539 C   0  0  0  0  0  0
  -29.5096  -12.5148   18.2265 C   0  0  0  0  0  0
  -28.0315  -12.3534   18.6359 C   0  0  0  0  0  0
  -27.6556  -13.2170   19.8694 C   0  0  2  0  0  0
  -28.6999  -13.0586   20.9979 C   0  0  0  0  0  0
  -25.2538  -13.8149   20.5634 C   0  0  0  0  0  0
  -24.1815  -13.0420   20.9168 C   0  0  0  0  0  0
  -24.6398  -11.6897   20.8741 C   0  0  0  0  0  0
  -23.9067  -10.4282   21.0410 C   0  0  0  0  0  0
  -24.3618   -9.4200   21.9189 C   0  0  0  0  0  0
  -23.6292   -8.2236   22.0756 C   0  0  0  0  0  0
  -22.4275   -8.0277   21.3545 C   0  0  0  0  0  0
  -21.9912   -9.0251   20.4647 C   0  0  0  0  0  0
  -22.7241  -10.2129   20.3059 C   0  0  0  0  0  0
  -21.6851   -6.0737   22.5280 C   0  0  0  0  0  0
  -21.4011   -6.5641   23.8213 C   0  0  0  0  0  0
  -21.3659   -5.6794   24.9176 C   0  0  0  0  0  0
  -21.6045   -4.3057   24.7226 C   0  0  0  0  0  0
  -21.8818   -3.8148   23.4347 C   0  0  0  0  0  0
  -21.9191   -4.6965   22.3403 C   0  0  0  0  0  0
  -22.7840  -13.5219   21.1846 C   0  0  0  0  0  0
  -22.1660   -4.2153   21.0981 F   0  0  0  0  0  0
  -21.5630   -3.4540   25.7738 F   0  0  0  0  0  0
  -30.0181  -13.4078   20.4408 N   0  0  0  0  0  0
  -26.2999  -12.9347   20.3347 N   0  0  0  0  0  0
  -25.9335  -11.6499   20.5780 N   0  0  0  0  0  0
  -22.0492  -12.8213   22.0413 N   0  0  0  0  0  0
  -25.4191  -15.1851   20.3961 N   0  0  0  0  0  0
  -31.7675  -14.8192   20.0995 O   0  0  0  0  0  0
  -21.6634   -6.8879   21.4242 O   0  0  0  0  0  0
  -22.3518  -14.5526   20.6704 O   0  0  0  0  0  0
  -24.6262  -31.8600   23.2028 C   0  0  0  0  0  0
  -25.9106  -32.4783   23.8360 C   0  0  1  0  0  0
  -27.2281  -27.3218   20.1154 C   0  0  0  0  0  0
  -25.5918  -33.8582   24.2285 N   0  0  0  0  0  0
  -23.4201  -30.4836   21.5450 C   0  0  2  0  0  0
  -24.8672  -28.9390   20.1122 C   0  0  0  0  0  0
  -22.7478  -29.4621   22.4931 C   0  0  0  0  0  0
  -18.0289  -28.1386   22.8480 C   0  0  0  0  0  0
  -24.1488  -36.7296   23.2641 C   0  0  0  0  0  0
  -25.9609  -30.7925   21.3724 C   0  0  0  0  0  0
  -26.0365  -29.4196   20.7150 C   0  0  0  0  0  0
  -27.2199  -28.6236   20.7053 C   0  0  0  0  0  0
  -26.0326  -26.8929   19.4920 C   0  0  0  0  0  0
  -24.8671  -27.6807   19.4926 C   0  0  0  0  0  0
  -23.6356  -29.8193   20.1604 C   0  0  0  0  0  0
  -25.4112  -36.3088   24.0336 C   0  0  1  0  0  0
  -20.5888  -28.3689   23.1281 C   0  0  2  0  0  0
  -20.6774  -26.9411   22.5405 C   0  0  0  0  0  0
  -19.5751  -26.6387   21.5204 C   0  0  0  0  0  0
  -18.1931  -26.7927   22.1620 C   0  0  0  0  0  0
  -19.1540  -28.8852   23.2877 C   0  0  0  0  0  0
  -18.9466  -30.1451   23.8899 C   0  0  0  0  0  0
  -17.6466  -30.6585   24.0562 C   0  0  0  0  0  0
  -25.9051  -34.9455   23.5111 C   0  0  0  0  0  0
  -16.5356  -29.9087   23.6327 C   0  0  0  0  0  0
  -16.7276  -28.6504   23.0349 C   0  0  0  0  0  0
  -26.4490  -31.6589   25.0724 C   0  0  0  0  0  0
  -25.3725  -31.3722   26.1452 C   0  0  0  0  0  0
  -27.0331  -30.3020   24.6160 C   0  0  0  0  0  0
  -27.6054  -32.4316   25.7496 C   0  0  0  0  0  0
  -27.5580  -37.1803   24.8468 C   0  0  0  0  0  0
  -21.4190  -29.3046   22.3681 N   0  0  0  0  0  0
  -26.4291  -37.3779   23.9414 N   0  0  0  0  0  0
  -24.6880  -31.0614   22.0976 N   0  0  0  0  0  0
  -23.4201  -28.8154   23.3005 O   0  0  0  0  0  0
  -28.3508  -26.4786   20.1633 O   0  0  0  0  0  0
  -26.5618  -34.8922   22.4676 O   0  0  0  0  0  0
  -23.5426  -32.1392   23.7356 O   0  0  0  0  0  0
  -30.7923  -19.3184   20.1430 C   0  0  0  0  0  0
  -30.8476  -17.8885   20.1748 C   0  0  0  0  0  0
  -28.7434  -19.2824   21.4035 C   0  0  0  0  0  0
  -29.7410  -20.0558   20.7592 C   0  0  0  0  0  0
  -29.8563  -17.1186   20.8443 C   0  0  0  0  0  0
  -28.8014  -17.8594   21.4484 C   0  0  0  0  0  0
  -29.0704  -22.4528   20.2185 C   0  0  0  0  0  0
  -31.0719  -23.3894   22.0983 C   0  0  0  0  0  0
  -29.8935  -24.3153   21.8009 C   0  0  0  0  0  0
  -30.6278  -21.9191   22.0796 C   0  0  0  0  0  0
  -29.3237  -24.0176   20.4080 C   0  0  2  0  0  0
  -28.1324  -25.0143   20.0554 C   0  0  0  0  0  0
  -29.8063  -21.5133   20.9252 N   0  0  0  0  0  0
  -29.8177  -15.6576   20.9521 N   0  0  0  0  0  0
  -28.2292  -22.1008   19.3857 O   0  0  0  0  0  0
  -27.5607  -17.0180   22.3084 Cl  0  0  0  0  0  0
  -31.4826  -12.5220   19.1525 H   0  0  0  0  0  0
  -30.3778  -11.3950   19.8881 H   0  0  0  0  0  0
  -29.7730  -11.7665   17.4778 H   0  0  0  0  0  0
  -29.6532  -13.4863   17.7510 H   0  0  0  0  0  0
  -27.8644  -11.2991   18.8584 H   0  0  0  0  0  0
  -27.3787  -12.5926   17.7955 H   0  0  0  0  0  0
  -27.6767  -14.2556   19.5384 H   0  0  0  0  0  0
  -28.7107  -12.0319   21.3661 H   0  0  0  0  0  0
  -28.4408  -13.6759   21.8595 H   0  0  0  0  0  0
  -25.2765   -9.5675   22.4762 H   0  0  0  0  0  0
  -24.0002   -7.4626   22.7473 H   0  0  0  0  0  0
  -21.0845   -8.8770   19.8950 H   0  0  0  0  0  0
  -22.3703  -10.9669   19.6166 H   0  0  0  0  0  0
  -21.2001   -7.6148   23.9719 H   0  0  0  0  0  0
  -21.1483   -6.0523   25.9080 H   0  0  0  0  0  0
  -22.0598   -2.7611   23.2844 H   0  0  0  0  0  0
  -22.4111  -11.9875   22.4798 H   0  0  0  0  0  0
  -21.1115  -13.1243   22.2635 H   0  0  0  0  0  0
  -24.6586  -15.8408   20.5335 H   0  0  0  0  0  0
  -26.2863  -15.6358   20.1370 H   0  0  0  0  0  0
  -26.7174  -32.5462   23.1114 H   0  0  0  0  0  0
  -25.0061  -33.9728   25.0428 H   0  0  0  0  0  0
  -22.7140  -31.3041   21.4018 H   0  0  0  0  0  0
  -23.3749  -35.9630   23.3308 H   0  0  0  0  0  0
  -24.3581  -36.8911   22.2054 H   0  0  0  0  0  0
  -23.7241  -37.6502   23.6657 H   0  0  0  0  0  0
  -26.0882  -31.5548   20.6030 H   0  0  0  0  0  0
  -26.8432  -30.8446   21.9993 H   0  0  0  0  0  0
  -28.1173  -28.9886   21.1851 H   0  0  0  0  0  0
  -25.9680  -25.9323   19.0037 H   0  0  0  0  0  0
  -23.9708  -27.3065   19.0171 H   0  0  0  0  0  0
  -23.7568  -30.5962   19.4043 H   0  0  0  0  0  0
  -22.7558  -29.2499   19.8562 H   0  0  0  0  0  0
  -25.1288  -36.1946   25.0828 H   0  0  0  0  0  0
  -20.9980  -28.3262   24.1403 H   0  0  0  0  0  0
  -20.5676  -26.2298   23.3606 H   0  0  0  0  0  0
  -21.6642  -26.7441   22.1197 H   0  0  0  0  0  0
  -19.6917  -25.6301   21.1234 H   0  0  0  0  0  0
  -19.6690  -27.3197   20.6734 H   0  0  0  0  0  0
  -17.4197  -26.6673   21.4027 H   0  0  0  0  0  0
  -18.0335  -26.0071   22.9023 H   0  0  0  0  0  0
  -19.7946  -30.7257   24.2278 H   0  0  0  0  0  0
  -17.5027  -31.6270   24.5158 H   0  0  0  0  0  0
  -15.5358  -30.2991   23.7651 H   0  0  0  0  0  0
  -15.8676  -28.0826   22.7062 H   0  0  0  0  0  0
  -24.5908  -30.7058   25.7784 H   0  0  0  0  0  0
  -24.8898  -32.2882   26.4870 H   0  0  0  0  0  0
  -25.8049  -30.8912   27.0234 H   0  0  0  0  0  0
  -26.2898  -29.6778   24.1184 H   0  0  0  0  0  0
  -27.4046  -29.7267   25.4651 H   0  0  0  0  0  0
  -27.8762  -30.4323   23.9369 H   0  0  0  0  0  0
  -27.2671  -33.3621   26.2068 H   0  0  0  0  0  0
  -28.3868  -32.6862   25.0322 H   0  0  0  0  0  0
  -28.0715  -31.8437   26.5417 H   0  0  0  0  0  0
  -28.2593  -38.0103   24.7505 H   0  0  0  0  0  0
  -28.1074  -36.2628   24.6297 H   0  0  0  0  0  0
  -27.2295  -37.1457   25.8871 H   0  0  0  0  0  0
  -20.9367  -29.8788   21.6909 H   0  0  0  0  0  0
  -26.0178  -38.2859   24.1409 H   0  0  0  0  0  0
  -31.5987  -19.8563   19.6642 H   0  0  0  0  0  0
  -31.6784  -17.3934   19.6930 H   0  0  0  0  0  0
  -27.9389  -19.7842   21.9215 H   0  0  0  0  0  0
  -31.5052  -23.6316   23.0698 H   0  0  0  0  0  0
  -31.8633  -23.5464   21.3637 H   0  0  0  0  0  0
  -30.2249  -25.3533   21.8505 H   0  0  0  0  0  0
  -29.1179  -24.2001   22.5596 H   0  0  0  0  0  0
  -30.0443  -21.7155   22.9790 H   0  0  0  0  0  0
  -31.5112  -21.2822   22.1460 H   0  0  0  0  0  0
  -30.1153  -24.2438   19.6927 H   0  0  0  0  0  0
  -27.2830  -24.7463   20.6857 H   0  0  0  0  0  0
  -27.8341  -24.8002   19.0286 H   0  0  0  0  0  0
  -28.9553  -15.3210   21.3542 H   0  0  0  0  0  0
  1 25  1  0  0  0
  1 30  2  0  0  0
  1 84  1  0  0  0
  2  3  1  0  0  0
  2 25  1  0  0  0
  2 87  1  0  0  0
  2 88  1  0  0  0
  3  4  1  0  0  0
  3 89  1  0  0  0
  3 90  1  0  0  0
  4  5  1  0  0  0
  4 91  1  0  0  0
  4 92  1  0  0  0
  5  6  1  0  0  0
  5 26  1  0  0  0
  5 93  1  0  0  0
  6 25  1  0  0  0
  6 94  1  0  0  0
  6 95  1  0  0  0
  7  8  2  0  0  0
  7 26  1  0  0  0
  7 29  1  0  0  0
  8  9  1  0  0  0
  8 22  1  0  0  0
  9 10  1  0  0  0
  9 27  2  0  0  0
 10 11  2  0  0  0
 10 15  1  0  0  0
 11 12  1  0  0  0
 11 96  1  0  0  0
 12 13  2  0  0  0
 12 97  1  0  0  0
 13 14  1  0  0  0
 13 31  1  0  0  0
 14 15  2  0  0  0
 14 98  1  0  0  0
 15 99  1  0  0  0
 16 17  2  0  0  0
 16 21  1  0  0  0
 16 31  1  0  0  0
 17 18  1  0  0  0
 17100  1  0  0  0
 18 19  2  0  0  0
 18101  1  0  0  0
 19 20  1  0  0  0
 19 24  1  0  0  0
 20 21  2  0  0  0
 20102  1  0  0  0
 21 23  1  0  0  0
 22 28  1  0  0  0
 22 32  2  0  0  0
 26 27  1  0  0  0
 28103  1  0  0  0
 28104  1  0  0  0
 29105  1  0  0  0
 29106  1  0  0  0
 33 34  1  0  0  0
 33 66  1  0  0  0
 33 70  2  0  0  0
 34 36  1  0  0  0
 34 59  1  0  0  0
 34107  1  0  0  0
 35 44  2  0  0  0
 35 45  1  0  0  0
 35 68  1  0  0  0
 36 56  1  0  0  0
 36108  1  0  0  0
 37 39  1  0  0  0
 37 47  1  0  0  0
 37 66  1  0  0  0
 37109  1  0  0  0
 38 43  2  0  0  0
 38 46  1  0  0  0
 38 47  1  0  0  0
 39 64  1  0  0  0
 39 67  2  0  0  0
 40 52  1  0  0  0
 40 53  2  0  0  0
 40 58  1  0  0  0
 41110  1  0  0  0
 41111  1  0  0  0
 41112  1  0  0  0
 41 48  1  0  0  0
 42 43  1  0  0  0
 42 66  1  0  0  0
 42113  1  0  0  0
 42114  1  0  0  0
 43 44  1  0  0  0
 44115  1  0  0  0
 45 46  2  0  0  0
 45116  1  0  0  0
 46117  1  0  0  0
 47118  1  0  0  0
 47119  1  0  0  0
 48 56  1  0  0  0
 48 65  1  0  0  0
 48120  1  0  0  0
 49 50  1  0  0  0
 49 53  1  0  0  0
 49 64  1  0  0  0
 49121  1  0  0  0
 50 51  1  0  0  0
 50122  1  0  0  0
 50123  1  0  0  0
 51 52  1  0  0  0
 51124  1  0  0  0
 51125  1  0  0  0
 52126  1  0  0  0
 52127  1  0  0  0
 53 54  1  0  0  0
 54 55  2  0  0  0
 54128  1  0  0  0
 55 57  1  0  0  0
 55129  1  0  0  0
 56 69  2  0  0  0
 57 58  2  0  0  0
 57130  1  0  0  0
 58131  1  0  0  0
 59 60  1  0  0  0
 59 61  1  0  0  0
 59 62  1  0  0  0
 60132  1  0  0  0
 60133  1  0  0  0
 60134  1  0  0  0
 61135  1  0  0  0
 61136  1  0  0  0
 61137  1  0  0  0
 62138  1  0  0  0
 62139  1  0  0  0
 62140  1  0  0  0
 63 65  1  0  0  0
 63141  1  0  0  0
 63142  1  0  0  0
 63143  1  0  0  0
 64144  1  0  0  0
 65145  1  0  0  0
 68 82  1  0  0  0
 71 72  2  0  0  0
 71 74  1  0  0  0
 71146  1  0  0  0
 72 75  1  0  0  0
 72147  1  0  0  0
 73 74  2  0  0  0
 73 76  1  0  0  0
 73148  1  0  0  0
 74 83  1  0  0  0
 75 76  2  0  0  0
 75 84  1  0  0  0
 76 86  1  0  0  0
 77 81  1  0  0  0
 77 83  1  0  0  0
 77 85  2  0  0  0
 78 79  1  0  0  0
 78 80  1  0  0  0
 78149  1  0  0  0
 78150  1  0  0  0
 79 81  1  0  0  0
 79151  1  0  0  0
 79152  1  0  0  0
 80 83  1  0  0  0
 80153  1  0  0  0
 80154  1  0  0  0
 81 82  1  0  0  0
 81155  1  0  0  0
 82156  1  0  0  0
 82157  1  0  0  0
 84158  1  0  0  0
M  ISO  4   1 100  68 101  82 101  84 100
M  END
> <chiral flag>
0

> <version>
0

> <s_m_source_file>
/data/baiqing/PycharmProjects/Reinvent-master-3.2/result/LINK_invent/BTK/process_docking_weight1_custom_product_contain_oxygen_bond_distance_aromatic_linkinvent_7_9_3/rearranged_h_0025.sdf

> <i_m_source_file_index>
60

> <r_mmod_Potential_Energy-OPLS-2005>
141.129058837891

> <r_mmod_Stretch_Energy-OPLS-2005>
84.7834701538086

> <r_mmod_Bend_Energy-OPLS-2005>
143.143463134766

> <r_mmod_Torsional_Energy-OPLS-2005>
289.591125488281

> <r_mmod_Improper_Torsional_Energy-OPLS-2005>
4.8262996673584

> <r_mmod_Van_der_Waal_Energy-OPLS-2005>
147.409439086914

> <r_mmod_Electrostatic_Energy-OPLS-2005>
-365.110656738281

> <r_mmod_Solvation_Energy-OPLS-2005>
-210.466079711914

> <b_mmod_Minimization_Converged-OPLS-2005>
0

> <r_mmod_RMS_Derivative-OPLS-2005>
0.654363214969635

$$$$
60
                    3D
 Structure written by MMmdl.
160168  0  0  1  0            999 V2000
  -30.6119  -14.6409   20.5272 C   0  0  0  0  0  0
  -30.4452  -12.4007   19.4524 C   0  0  0  0  0  0
  -29.5101  -12.5122   18.2267 C   0  0  0  0  0  0
  -28.0328  -12.3489   18.6379 C   0  0  0  0  0  0
  -27.6570  -13.2150   19.8699 C   0  0  2  0  0  0
  -28.7000  -13.0516   20.9986 C   0  0  0  0  0  0
  -25.2563  -13.8164   20.5678 C   0  0  0  0  0  0
  -24.1821  -13.0431   20.9178 C   0  0  0  0  0  0
  -24.6394  -11.6908   20.8740 C   0  0  0  0  0  0
  -23.9057  -10.4288   21.0401 C   0  0  0  0  0  0
  -24.3609   -9.4207   21.9180 C   0  0  0  0  0  0
  -23.6285   -8.2241   22.0753 C   0  0  0  0  0  0
  -22.4266   -8.0279   21.3545 C   0  0  0  0  0  0
  -21.9901   -9.0253   20.4643 C   0  0  0  0  0  0
  -22.7229  -10.2132   20.3050 C   0  0  0  0  0  0
  -21.6849   -6.0728   22.5276 C   0  0  0  0  0  0
  -21.4008   -6.5632   23.8207 C   0  0  0  0  0  0
  -21.3664   -5.6788   24.9176 C   0  0  0  0  0  0
  -21.6042   -4.3052   24.7229 C   0  0  0  0  0  0
  -21.8825   -3.8140   23.4351 C   0  0  0  0  0  0
  -21.9191   -4.6952   22.3405 C   0  0  0  0  0  0
  -22.7848  -13.5231   21.1853 C   0  0  0  0  0  0
  -22.1659   -4.2137   21.0981 F   0  0  0  0  0  0
  -21.5636   -3.4538   25.7743 F   0  0  0  0  0  0
  -30.0163  -13.4087   20.4438 N   0  0  0  0  0  0
  -26.3003  -12.9349   20.3350 N   0  0  0  0  0  0
  -25.9323  -11.6502   20.5765 N   0  0  0  0  0  0
  -22.0487  -12.8226   22.0414 N   0  0  0  0  0  0
  -25.4264  -15.1881   20.4088 N   0  0  0  0  0  0
  -31.7563  -14.8286   20.1023 O   0  0  0  0  0  0
  -21.6635   -6.8875   21.4239 O   0  0  0  0  0  0
  -22.3526  -14.5534   20.6704 O   0  0  0  0  0  0
  -24.6238  -31.8601   23.2044 C   0  0  0  0  0  0
  -25.9089  -32.4787   23.8368 C   0  0  1  0  0  0
  -27.2257  -27.3236   20.1188 C   0  0  0  0  0  0
  -25.5914  -33.8591   24.2288 N   0  0  0  0  0  0
  -23.4184  -30.4827   21.5462 C   0  0  2  0  0  0
  -24.8674  -28.9412   20.1100 C   0  0  0  0  0  0
  -22.7468  -29.4609   22.4938 C   0  0  0  0  0  0
  -18.0278  -28.1382   22.8480 C   0  0  0  0  0  0
  -24.1487  -36.7294   23.2636 C   0  0  0  0  0  0
  -25.9606  -30.7876   21.3809 C   0  0  0  0  0  0
  -26.0340  -29.4177   20.7206 C   0  0  0  0  0  0
  -27.2145  -28.6193   20.7193 C   0  0  0  0  0  0
  -26.0396  -26.9050   19.4712 C   0  0  0  0  0  0
  -24.8711  -27.6888   19.4774 C   0  0  0  0  0  0
  -23.6348  -29.8188   20.1611 C   0  0  0  0  0  0
  -25.4115  -36.3093   24.0323 C   0  0  1  0  0  0
  -20.5876  -28.3681   23.1280 C   0  0  2  0  0  0
  -20.6773  -26.9403   22.5412 C   0  0  0  0  0  0
  -19.5757  -26.6386   21.5204 C   0  0  0  0  0  0
  -18.1929  -26.7932   22.1606 C   0  0  0  0  0  0
  -19.1532  -28.8846   23.2871 C   0  0  0  0  0  0
  -18.9459  -30.1452   23.8887 C   0  0  0  0  0  0
  -17.6456  -30.6580   24.0562 C   0  0  0  0  0  0
  -25.9051  -34.9461   23.5105 C   0  0  0  0  0  0
  -16.5347  -29.9079   23.6334 C   0  0  0  0  0  0
  -16.7267  -28.6502   23.0350 C   0  0  0  0  0  0
  -26.4486  -31.6602   25.0740 C   0  0  0  0  0  0
  -25.3720  -31.3731   26.1463 C   0  0  0  0  0  0
  -27.0337  -30.3024   24.6220 C   0  0  0  0  0  0
  -27.6057  -32.4339   25.7498 C   0  0  0  0  0  0
  -27.5587  -37.1791   24.8452 C   0  0  0  0  0  0
  -21.4180  -29.3033   22.3680 N   0  0  0  0  0  0
  -26.4296  -37.3784   23.9409 N   0  0  0  0  0  0
  -24.6858  -31.0606   22.1001 N   0  0  0  0  0  0
  -23.4196  -28.8143   23.3012 O   0  0  0  0  0  0
  -28.3439  -26.4770   20.1874 O   0  0  0  0  0  0
  -26.5621  -34.8918   22.4676 O   0  0  0  0  0  0
  -23.5397  -32.1416   23.7354 O   0  0  0  0  0  0
  -30.7641  -17.8789   20.1375 C   0  0  0  0  0  0
  -28.8268  -19.2786   21.5967 C   0  0  0  0  0  0
  -30.7200  -19.3110   20.1000 C   0  0  0  0  0  0
  -29.8517  -17.1121   20.9109 C   0  0  0  0  0  0
  -29.7448  -20.0520   20.8403 C   0  0  0  0  0  0
  -28.8730  -17.8552   21.6276 C   0  0  0  0  0  0
  -29.0197  -22.4501   20.3398 C   0  0  0  0  0  0
  -33.1237  -20.1191   19.9569 C   0  0  0  0  0  0
  -30.7704  -21.9834   21.9894 C   0  0  0  0  0  0
  -31.7643  -20.0253   19.2542 C   0  0  0  0  0  0
  -29.2195  -24.0101   20.5841 C   0  0  0  0  0  0
  -28.1444  -25.0209   19.9946 C   0  0  0  0  0  0
  -29.8140  -15.6501   20.9944 N   0  0  0  0  0  0
  -29.7963  -21.5134   21.0004 N   0  0  0  0  0  0
  -28.1605  -22.0990   19.5255 O   0  0  0  0  0  0
  -27.7123  -17.0148   22.5961 Cl  0  0  0  0  0  0
  -31.4844  -12.5400   19.1485 H   0  0  0  0  0  0
  -30.3940  -11.4014   19.8864 H   0  0  0  0  0  0
  -29.7742  -11.7599   17.4823 H   0  0  0  0  0  0
  -29.6502  -13.4811   17.7447 H   0  0  0  0  0  0
  -27.8691  -11.2947   18.8656 H   0  0  0  0  0  0
  -27.3774  -12.5813   17.7975 H   0  0  0  0  0  0
  -27.6800  -14.2535   19.5379 H   0  0  0  0  0  0
  -28.7141  -12.0209   21.3562 H   0  0  0  0  0  0
  -28.4381  -13.6582   21.8667 H   0  0  0  0  0  0
  -25.2758   -9.5680   22.4752 H   0  0  0  0  0  0
  -23.9992   -7.4634   22.7478 H   0  0  0  0  0  0
  -21.0831   -8.8774   19.8953 H   0  0  0  0  0  0
  -22.3692  -10.9670   19.6155 H   0  0  0  0  0  0
  -21.1995   -7.6138   23.9709 H   0  0  0  0  0  0
  -21.1479   -6.0519   25.9079 H   0  0  0  0  0  0
  -22.0599   -2.7598   23.2858 H   0  0  0  0  0  0
  -22.4097  -11.9887   22.4804 H   0  0  0  0  0  0
  -21.1107  -13.1257   22.2619 H   0  0  0  0  0  0
  -24.6665  -15.8462   20.5402 H   0  0  0  0  0  0
  -26.2929  -15.6350   20.1391 H   0  0  0  0  0  0
  -26.7157  -32.5446   23.1108 H   0  0  0  0  0  0
  -25.0056  -33.9751   25.0433 H   0  0  0  0  0  0
  -22.7113  -31.3017   21.4008 H   0  0  0  0  0  0
  -23.3757  -35.9611   23.3289 H   0  0  0  0  0  0
  -24.3574  -36.8944   22.2051 H   0  0  0  0  0  0
  -23.7226  -37.6485   23.6675 H   0  0  0  0  0  0
  -26.0995  -31.5494   20.6126 H   0  0  0  0  0  0
  -26.8388  -30.8312   22.0141 H   0  0  0  0  0  0
  -28.1069  -28.9729   21.2173 H   0  0  0  0  0  0
  -25.9877  -25.9541   18.9629 H   0  0  0  0  0  0
  -23.9780  -27.3200   18.9920 H   0  0  0  0  0  0
  -23.7542  -30.5937   19.4034 H   0  0  0  0  0  0
  -22.7565  -29.2450   19.8601 H   0  0  0  0  0  0
  -25.1291  -36.1946   25.0814 H   0  0  0  0  0  0
  -20.9958  -28.3263   24.1403 H   0  0  0  0  0  0
  -20.5674  -26.2284   23.3606 H   0  0  0  0  0  0
  -21.6647  -26.7445   22.1207 H   0  0  0  0  0  0
  -19.6926  -25.6298   21.1237 H   0  0  0  0  0  0
  -19.6716  -27.3191   20.6726 H   0  0  0  0  0  0
  -17.4208  -26.6671   21.3997 H   0  0  0  0  0  0
  -18.0330  -26.0068   22.8995 H   0  0  0  0  0  0
  -19.7935  -30.7261   24.2269 H   0  0  0  0  0  0
  -17.5015  -31.6265   24.5158 H   0  0  0  0  0  0
  -15.5350  -30.2973   23.7681 H   0  0  0  0  0  0
  -15.8665  -28.0821   22.7071 H   0  0  0  0  0  0
  -24.5890  -30.7095   25.7777 H   0  0  0  0  0  0
  -24.8901  -32.2885   26.4906 H   0  0  0  0  0  0
  -25.8033  -30.8890   27.0234 H   0  0  0  0  0  0
  -26.2922  -29.6760   24.1245 H   0  0  0  0  0  0
  -27.4026  -29.7302   25.4743 H   0  0  0  0  0  0
  -27.8801  -30.4312   23.9467 H   0  0  0  0  0  0
  -27.2691  -33.3644   26.2087 H   0  0  0  0  0  0
  -28.3852  -32.6902   25.0310 H   0  0  0  0  0  0
  -28.0747  -31.8462   26.5402 H   0  0  0  0  0  0
  -28.2584  -38.0111   24.7541 H   0  0  0  0  0  0
  -28.1117  -36.2641   24.6239 H   0  0  0  0  0  0
  -27.2311  -37.1401   25.8859 H   0  0  0  0  0  0
  -20.9355  -29.8756   21.6889 H   0  0  0  0  0  0
  -26.0178  -38.2859   24.1431 H   0  0  0  0  0  0
  -31.5247  -17.3701   19.5632 H   0  0  0  0  0  0
  -28.0875  -19.7827   22.2020 H   0  0  0  0  0  0
  -33.8593  -20.6043   19.3145 H   0  0  0  0  0  0
  -33.5069  -19.1308   20.2133 H   0  0  0  0  0  0
  -33.0587  -20.6987   20.8770 H   0  0  0  0  0  0
  -31.2949  -21.1526   22.4621 H   0  0  0  0  0  0
  -30.2828  -22.5341   22.7944 H   0  0  0  0  0  0
  -31.5248  -22.6230   21.5294 H   0  0  0  0  0  0
  -31.4194  -21.0214   18.9775 H   0  0  0  0  0  0
  -31.8788  -19.4883   18.3115 H   0  0  0  0  0  0
  -30.1985  -24.2778   20.1877 H   0  0  0  0  0  0
  -29.2667  -24.1890   21.6569 H   0  0  0  0  0  0
  -27.1907  -24.7340   20.4405 H   0  0  0  0  0  0
  -28.0505  -24.8423   18.9223 H   0  0  0  0  0  0
  -28.9659  -15.3057   21.4199 H   0  0  0  0  0  0
  1 25  1  0  0  0
  1 30  2  0  0  0
  1 83  1  0  0  0
  2  3  1  0  0  0
  2 25  1  0  0  0
  2 87  1  0  0  0
  2 88  1  0  0  0
  3  4  1  0  0  0
  3 89  1  0  0  0
  3 90  1  0  0  0
  4  5  1  0  0  0
  4 91  1  0  0  0
  4 92  1  0  0  0
  5  6  1  0  0  0
  5 26  1  0  0  0
  5 93  1  0  0  0
  6 25  1  0  0  0
  6 94  1  0  0  0
  6 95  1  0  0  0
  7  8  2  0  0  0
  7 26  1  0  0  0
  7 29  1  0  0  0
  8  9  1  0  0  0
  8 22  1  0  0  0
  9 10  1  0  0  0
  9 27  2  0  0  0
 10 11  2  0  0  0
 10 15  1  0  0  0
 11 12  1  0  0  0
 11 96  1  0  0  0
 12 13  2  0  0  0
 12 97  1  0  0  0
 13 14  1  0  0  0
 13 31  1  0  0  0
 14 15  2  0  0  0
 14 98  1  0  0  0
 15 99  1  0  0  0
 16 17  2  0  0  0
 16 21  1  0  0  0
 16 31  1  0  0  0
 17 18  1  0  0  0
 17100  1  0  0  0
 18 19  2  0  0  0
 18101  1  0  0  0
 19 20  1  0  0  0
 19 24  1  0  0  0
 20 21  2  0  0  0
 20102  1  0  0  0
 21 23  1  0  0  0
 22 28  1  0  0  0
 22 32  2  0  0  0
 26 27  1  0  0  0
 28103  1  0  0  0
 28104  1  0  0  0
 29105  1  0  0  0
 29106  1  0  0  0
 33 34  1  0  0  0
 33 66  1  0  0  0
 33 70  2  0  0  0
 34 36  1  0  0  0
 34 59  1  0  0  0
 34107  1  0  0  0
 35 44  2  0  0  0
 35 45  1  0  0  0
 35 68  1  0  0  0
 36 56  1  0  0  0
 36108  1  0  0  0
 37 39  1  0  0  0
 37 47  1  0  0  0
 37 66  1  0  0  0
 37109  1  0  0  0
 38 43  2  0  0  0
 38 46  1  0  0  0
 38 47  1  0  0  0
 39 64  1  0  0  0
 39 67  2  0  0  0
 40 52  1  0  0  0
 40 53  2  0  0  0
 40 58  1  0  0  0
 41110  1  0  0  0
 41111  1  0  0  0
 41112  1  0  0  0
 41 48  1  0  0  0
 42 43  1  0  0  0
 42 66  1  0  0  0
 42113  1  0  0  0
 42114  1  0  0  0
 43 44  1  0  0  0
 44115  1  0  0  0
 45 46  2  0  0  0
 45116  1  0  0  0
 46117  1  0  0  0
 47118  1  0  0  0
 47119  1  0  0  0
 48 56  1  0  0  0
 48 65  1  0  0  0
 48120  1  0  0  0
 49 50  1  0  0  0
 49 53  1  0  0  0
 49 64  1  0  0  0
 49121  1  0  0  0
 50 51  1  0  0  0
 50122  1  0  0  0
 50123  1  0  0  0
 51 52  1  0  0  0
 51124  1  0  0  0
 51125  1  0  0  0
 52126  1  0  0  0
 52127  1  0  0  0
 53 54  1  0  0  0
 54 55  2  0  0  0
 54128  1  0  0  0
 55 57  1  0  0  0
 55129  1  0  0  0
 56 69  2  0  0  0
 57 58  2  0  0  0
 57130  1  0  0  0
 58131  1  0  0  0
 59 60  1  0  0  0
 59 61  1  0  0  0
 59 62  1  0  0  0
 60132  1  0  0  0
 60133  1  0  0  0
 60134  1  0  0  0
 61135  1  0  0  0
 61136  1  0  0  0
 61137  1  0  0  0
 62138  1  0  0  0
 62139  1  0  0  0
 62140  1  0  0  0
 63 65  1  0  0  0
 63141  1  0  0  0
 63142  1  0  0  0
 63143  1  0  0  0
 64144  1  0  0  0
 65145  1  0  0  0
 68 82  1  0  0  0
 71 73  2  0  0  0
 71 74  1  0  0  0
 71146  1  0  0  0
 72 75  2  0  0  0
 72 76  1  0  0  0
 72147  1  0  0  0
 73 75  1  0  0  0
 73 80  1  0  0  0
 74 76  2  0  0  0
 74 83  1  0  0  0
 75 84  1  0  0  0
 76 86  1  0  0  0
 77 81  1  0  0  0
 77 84  1  0  0  0
 77 85  2  0  0  0
 78 80  1  0  0  0
 78148  1  0  0  0
 78149  1  0  0  0
 78150  1  0  0  0
 79 84  1  0  0  0
 79151  1  0  0  0
 79152  1  0  0  0
 79153  1  0  0  0
 80154  1  0  0  0
 80155  1  0  0  0
 81 82  1  0  0  0
 81156  1  0  0  0
 81157  1  0  0  0
 82158  1  0  0  0
 82159  1  0  0  0
 83160  1  0  0  0
M  ISO  4   1 100  68 101  82 101  83 100
M  END
> <chiral flag>
0

> <version>
0

> <s_m_source_file>
/data/baiqing/PycharmProjects/Reinvent-master-3.2/result/LINK_invent/BTK/process_docking_weight1_custom_product_contain_oxygen_bond_distance_aromatic_linkinvent_7_9_3/rearranged_h_0025.sdf

> <i_m_source_file_index>
61

> <r_mmod_Potential_Energy-OPLS-2005>
69.0406951904297

> <r_mmod_Stretch_Energy-OPLS-2005>
82.995002746582

> <r_mmod_Bend_Energy-OPLS-2005>
137.05534362793

> <r_mmod_Torsional_Energy-OPLS-2005>
275.856567382812

> <r_mmod_Improper_Torsional_Energy-OPLS-2005>
4.02750205993652

> <r_mmod_Van_der_Waal_Energy-OPLS-2005>
143.1943359375

> <r_mmod_Electrostatic_Energy-OPLS-2005>
-410.640960693359

> <r_mmod_Solvation_Energy-OPLS-2005>
-211.94987487793

> <b_mmod_Minimization_Converged-OPLS-2005>
0

> <r_mmod_RMS_Derivative-OPLS-2005>
1.52117455005646

$$$$
61
                    3D
 Structure written by MMmdl.
156165  0  0  1  0            999 V2000
  -30.5354  -14.9407   20.4313 C   0  0  0  0  0  0
  -30.4423  -12.5788   19.5064 C   0  0  0  0  0  0
  -29.5258  -12.5369   18.2607 C   0  0  0  0  0  0
  -28.0554  -12.3275   18.6704 C   0  0  0  0  0  0
  -27.6315  -13.2497   19.8442 C   0  0  2  0  0  0
  -28.6730  -13.2590   20.9844 C   0  0  0  0  0  0
  -25.2384  -13.8125   20.5602 C   0  0  0  0  0  0
  -24.1737  -13.0366   20.9189 C   0  0  0  0  0  0
  -24.6399  -11.6877   20.8753 C   0  0  0  0  0  0
  -23.9090  -10.4259   21.0412 C   0  0  0  0  0  0
  -24.3636   -9.4176   21.9192 C   0  0  0  0  0  0
  -23.6296   -8.2220   22.0757 C   0  0  0  0  0  0
  -22.4276   -8.0271   21.3545 C   0  0  0  0  0  0
  -21.9920   -9.0249   20.4645 C   0  0  0  0  0  0
  -22.7263  -10.2117   20.3053 C   0  0  0  0  0  0
  -21.6847   -6.0733   22.5287 C   0  0  0  0  0  0
  -21.4014   -6.5636   23.8222 C   0  0  0  0  0  0
  -21.3657   -5.6787   24.9182 C   0  0  0  0  0  0
  -21.6039   -4.3051   24.7228 C   0  0  0  0  0  0
  -21.8819   -3.8144   23.4349 C   0  0  0  0  0  0
  -21.9193   -4.6961   22.3406 C   0  0  0  0  0  0
  -22.7763  -13.5152   21.1869 C   0  0  0  0  0  0
  -22.1659   -4.2147   21.0982 F   0  0  0  0  0  0
  -21.5630   -3.4534   25.7741 F   0  0  0  0  0  0
  -29.9562  -13.6716   20.3981 N   0  0  0  0  0  0
  -26.2887  -12.9423   20.3256 N   0  0  0  0  0  0
  -25.9348  -11.6552   20.5776 N   0  0  0  0  0  0
  -22.0424  -12.8162   22.0449 N   0  0  0  0  0  0
  -25.3861  -15.1811   20.3886 N   0  0  0  0  0  0
  -31.7278  -15.0086   20.1239 O   0  0  0  0  0  0
  -21.6630   -6.8874   21.4248 O   0  0  0  0  0  0
  -22.3435  -14.5457   20.6722 O   0  0  0  0  0  0
  -24.6421  -31.8442   23.1865 C   0  0  0  0  0  0
  -25.9201  -32.4693   23.8254 C   0  0  1  0  0  0
  -27.2273  -27.1479   20.1700 C   0  0  0  0  0  0
  -25.5961  -33.8499   24.2187 N   0  0  0  0  0  0
  -23.4454  -30.4605   21.5317 C   0  0  2  0  0  0
  -24.8948  -28.8770   20.1203 C   0  0  0  0  0  0
  -22.7559  -29.4547   22.4874 C   0  0  0  0  0  0
  -18.0305  -28.1400   22.8484 C   0  0  0  0  0  0
  -24.1490  -36.7245   23.2642 C   0  0  0  0  0  0
  -25.9973  -30.7253   21.3775 C   0  0  0  0  0  0
  -26.0714  -29.3330   20.7285 C   0  0  0  0  0  0
  -27.2399  -28.4876   20.7261 C   0  0  0  0  0  0
  -26.0215  -26.7744   19.5423 C   0  0  0  0  0  0
  -24.8808  -27.6099   19.5122 C   0  0  0  0  0  0
  -23.6719  -29.7807   20.1541 C   0  0  0  0  0  0
  -25.4123  -36.3031   24.0318 C   0  0  1  0  0  0
  -20.5917  -28.3720   23.1249 C   0  0  2  0  0  0
  -20.6788  -26.9427   22.5412 C   0  0  0  0  0  0
  -19.5758  -26.6390   21.5222 C   0  0  0  0  0  0
  -18.1940  -26.7940   22.1632 C   0  0  0  0  0  0
  -19.1563  -28.8879   23.2858 C   0  0  0  0  0  0
  -18.9477  -30.1478   23.8882 C   0  0  0  0  0  0
  -17.6473  -30.6594   24.0566 C   0  0  0  0  0  0
  -25.9079  -34.9408   23.5063 C   0  0  0  0  0  0
  -16.5365  -29.9089   23.6337 C   0  0  0  0  0  0
  -16.7292  -28.6510   23.0354 C   0  0  0  0  0  0
  -26.4527  -31.6554   25.0686 C   0  0  0  0  0  0
  -25.3725  -31.3725   26.1385 C   0  0  0  0  0  0
  -27.0386  -30.2958   24.6241 C   0  0  0  0  0  0
  -27.6064  -32.4307   25.7475 C   0  0  0  0  0  0
  -27.5573  -37.1780   24.8475 C   0  0  0  0  0  0
  -21.4255  -29.3043   22.3618 N   0  0  0  0  0  0
  -26.4286  -37.3745   23.9417 N   0  0  0  0  0  0
  -24.7148  -31.0317   22.0877 N   0  0  0  0  0  0
  -23.4209  -28.8111   23.3030 O   0  0  0  0  0  0
  -28.3268  -26.2243   20.1627 O   0  0  0  0  0  0
  -26.5654  -34.8910   22.4634 O   0  0  0  0  0  0
  -23.5545  -32.1307   23.7102 O   0  0  0  0  0  0
  -30.6661  -19.9389   19.9800 C   0  0  0  0  0  0
  -28.3994  -19.8449   20.5520 C   0  0  0  0  0  0
  -29.4544  -20.7107   20.1224 C   0  0  0  0  0  0
  -29.7422  -17.6218   20.5040 C   0  0  0  0  0  0
  -30.8207  -18.5014   20.1359 C   0  0  0  0  0  0
  -28.5460  -18.4042   20.7467 C   0  0  0  0  0  0
  -27.9536  -22.0332   17.7158 C   0  0  0  0  0  0
  -27.3335  -23.0465   18.6799 C   0  0  0  0  0  0
  -29.4114  -21.8804   18.1866 C   0  0  0  0  0  0
  -28.5200  -23.4314   19.5517 C   0  0  2  0  0  0
  -28.2610  -24.7246   20.5754 C   0  0  0  0  0  0
  -29.4147  -22.1320   19.6443 N   0  0  0  0  0  0
  -29.7178  -16.0816   20.6585 N   0  0  0  0  0  0
  -32.4029  -17.8811   19.8369 Cl  0  0  0  0  0  0
  -27.1528  -17.5690   21.3182 Cl  0  0  0  0  0  0
  -31.4787  -12.7308   19.1996 H   0  0  0  0  0  0
  -30.4269  -11.6213   20.0297 H   0  0  0  0  0  0
  -29.8437  -11.7440   17.5827 H   0  0  0  0  0  0
  -29.6217  -13.4711   17.7052 H   0  0  0  0  0  0
  -27.9418  -11.2835   18.9642 H   0  0  0  0  0  0
  -27.3973  -12.4752   17.8131 H   0  0  0  0  0  0
  -27.5966  -14.2576   19.4294 H   0  0  0  0  0  0
  -28.7532  -12.2748   21.4478 H   0  0  0  0  0  0
  -28.3713  -13.9465   21.7761 H   0  0  0  0  0  0
  -25.2782   -9.5650   22.4767 H   0  0  0  0  0  0
  -24.0000   -7.4607   22.7478 H   0  0  0  0  0  0
  -21.0847   -8.8776   19.8954 H   0  0  0  0  0  0
  -22.3731  -10.9658   19.6158 H   0  0  0  0  0  0
  -21.2004   -7.6144   23.9724 H   0  0  0  0  0  0
  -21.1478   -6.0516   25.9085 H   0  0  0  0  0  0
  -22.0598   -2.7605   23.2850 H   0  0  0  0  0  0
  -22.4053  -11.9840   22.4860 H   0  0  0  0  0  0
  -21.1043  -13.1192   22.2659 H   0  0  0  0  0  0
  -24.6176  -15.8227   20.5442 H   0  0  0  0  0  0
  -26.2445  -15.6561   20.1441 H   0  0  0  0  0  0
  -26.7269  -32.5309   23.0986 H   0  0  0  0  0  0
  -25.0123  -33.9611   25.0345 H   0  0  0  0  0  0
  -22.7477  -31.2850   21.3731 H   0  0  0  0  0  0
  -23.3764  -35.9566   23.3300 H   0  0  0  0  0  0
  -24.3580  -36.8879   22.2062 H   0  0  0  0  0  0
  -23.7234  -37.6435   23.6675 H   0  0  0  0  0  0
  -26.1447  -31.4760   20.5998 H   0  0  0  0  0  0
  -26.8710  -30.7832   22.0151 H   0  0  0  0  0  0
  -28.1459  -28.8408   21.1986 H   0  0  0  0  0  0
  -25.9505  -25.8012   19.0802 H   0  0  0  0  0  0
  -23.9798  -27.2528   19.0329 H   0  0  0  0  0  0
  -23.8116  -30.5494   19.3929 H   0  0  0  0  0  0
  -22.7868  -29.2215   19.8452 H   0  0  0  0  0  0
  -25.1311  -36.1856   25.0809 H   0  0  0  0  0  0
  -21.0012  -28.3307   24.1369 H   0  0  0  0  0  0
  -20.5696  -26.2332   23.3626 H   0  0  0  0  0  0
  -21.6651  -26.7439   22.1201 H   0  0  0  0  0  0
  -19.6917  -25.6299   21.1253 H   0  0  0  0  0  0
  -19.6692  -27.3198   20.6750 H   0  0  0  0  0  0
  -17.4212  -26.6699   21.4029 H   0  0  0  0  0  0
  -18.0330  -26.0084   22.9030 H   0  0  0  0  0  0
  -19.7951  -30.7303   24.2240 H   0  0  0  0  0  0
  -17.5023  -31.6271   24.5170 H   0  0  0  0  0  0
  -15.5362  -30.2983   23.7669 H   0  0  0  0  0  0
  -15.8693  -28.0825   22.7067 H   0  0  0  0  0  0
  -24.5921  -30.7050   25.7705 H   0  0  0  0  0  0
  -24.8885  -32.2894   26.4759 H   0  0  0  0  0  0
  -25.8019  -30.8938   27.0197 H   0  0  0  0  0  0
  -26.2988  -29.6683   24.1252 H   0  0  0  0  0  0
  -27.4023  -29.7247   25.4796 H   0  0  0  0  0  0
  -27.8886  -30.4204   23.9526 H   0  0  0  0  0  0
  -27.2669  -33.3631   26.1999 H   0  0  0  0  0  0
  -28.3904  -32.6830   25.0321 H   0  0  0  0  0  0
  -28.0697  -31.8463   26.5437 H   0  0  0  0  0  0
  -28.2593  -38.0074   24.7515 H   0  0  0  0  0  0
  -28.1063  -36.2605   24.6305 H   0  0  0  0  0  0
  -27.2292  -37.1435   25.8878 H   0  0  0  0  0  0
  -20.9472  -29.8739   21.6782 H   0  0  0  0  0  0
  -26.0151  -38.2811   24.1423 H   0  0  0  0  0  0
  -31.5468  -20.4760   19.6594 H   0  0  0  0  0  0
  -27.4219  -20.2765   20.7079 H   0  0  0  0  0  0
  -27.9064  -22.3670   16.6784 H   0  0  0  0  0  0
  -27.4235  -21.0815   17.7798 H   0  0  0  0  0  0
  -26.5434  -22.5899   19.2772 H   0  0  0  0  0  0
  -26.9174  -23.9071   18.1561 H   0  0  0  0  0  0
  -30.0499  -22.6136   17.6888 H   0  0  0  0  0  0
  -29.7992  -20.9173   17.8464 H   0  0  0  0  0  0
  -29.1413  -24.0313   18.8816 H   0  0  0  0  0  0
  -29.0173  -24.6357   21.3560 H   0  0  0  0  0  0
  -27.3193  -24.5623   21.1010 H   0  0  0  0  0  0
  -28.7983  -15.7764   20.9388 H   0  0  0  0  0  0
  1 25  1  0  0  0
  1 30  2  0  0  0
  1 83  1  0  0  0
  2  3  1  0  0  0
  2 25  1  0  0  0
  2 86  1  0  0  0
  2 87  1  0  0  0
  3  4  1  0  0  0
  3 88  1  0  0  0
  3 89  1  0  0  0
  4  5  1  0  0  0
  4 90  1  0  0  0
  4 91  1  0  0  0
  5  6  1  0  0  0
  5 26  1  0  0  0
  5 92  1  0  0  0
  6 25  1  0  0  0
  6 93  1  0  0  0
  6 94  1  0  0  0
  7  8  2  0  0  0
  7 26  1  0  0  0
  7 29  1  0  0  0
  8  9  1  0  0  0
  8 22  1  0  0  0
  9 10  1  0  0  0
  9 27  2  0  0  0
 10 11  2  0  0  0
 10 15  1  0  0  0
 11 12  1  0  0  0
 11 95  1  0  0  0
 12 13  2  0  0  0
 12 96  1  0  0  0
 13 14  1  0  0  0
 13 31  1  0  0  0
 14 15  2  0  0  0
 14 97  1  0  0  0
 15 98  1  0  0  0
 16 17  2  0  0  0
 16 21  1  0  0  0
 16 31  1  0  0  0
 17 18  1  0  0  0
 17 99  1  0  0  0
 18 19  2  0  0  0
 18100  1  0  0  0
 19 20  1  0  0  0
 19 24  1  0  0  0
 20 21  2  0  0  0
 20101  1  0  0  0
 21 23  1  0  0  0
 22 28  1  0  0  0
 22 32  2  0  0  0
 26 27  1  0  0  0
 28102  1  0  0  0
 28103  1  0  0  0
 29104  1  0  0  0
 29105  1  0  0  0
 33 34  1  0  0  0
 33 66  1  0  0  0
 33 70  2  0  0  0
 34 36  1  0  0  0
 34 59  1  0  0  0
 34106  1  0  0  0
 35 44  2  0  0  0
 35 45  1  0  0  0
 35 68  1  0  0  0
 36 56  1  0  0  0
 36107  1  0  0  0
 37 39  1  0  0  0
 37 47  1  0  0  0
 37 66  1  0  0  0
 37108  1  0  0  0
 38 43  2  0  0  0
 38 46  1  0  0  0
 38 47  1  0  0  0
 39 64  1  0  0  0
 39 67  2  0  0  0
 40 52  1  0  0  0
 40 53  2  0  0  0
 40 58  1  0  0  0
 41109  1  0  0  0
 41110  1  0  0  0
 41111  1  0  0  0
 41 48  1  0  0  0
 42 43  1  0  0  0
 42 66  1  0  0  0
 42112  1  0  0  0
 42113  1  0  0  0
 43 44  1  0  0  0
 44114  1  0  0  0
 45 46  2  0  0  0
 45115  1  0  0  0
 46116  1  0  0  0
 47117  1  0  0  0
 47118  1  0  0  0
 48 56  1  0  0  0
 48 65  1  0  0  0
 48119  1  0  0  0
 49 50  1  0  0  0
 49 53  1  0  0  0
 49 64  1  0  0  0
 49120  1  0  0  0
 50 51  1  0  0  0
 50121  1  0  0  0
 50122  1  0  0  0
 51 52  1  0  0  0
 51123  1  0  0  0
 51124  1  0  0  0
 52125  1  0  0  0
 52126  1  0  0  0
 53 54  1  0  0  0
 54 55  2  0  0  0
 54127  1  0  0  0
 55 57  1  0  0  0
 55128  1  0  0  0
 56 69  2  0  0  0
 57 58  2  0  0  0
 57129  1  0  0  0
 58130  1  0  0  0
 59 60  1  0  0  0
 59 61  1  0  0  0
 59 62  1  0  0  0
 60131  1  0  0  0
 60132  1  0  0  0
 60133  1  0  0  0
 61134  1  0  0  0
 61135  1  0  0  0
 61136  1  0  0  0
 62137  1  0  0  0
 62138  1  0  0  0
 62139  1  0  0  0
 63 65  1  0  0  0
 63140  1  0  0  0
 63141  1  0  0  0
 63142  1  0  0  0
 64143  1  0  0  0
 65144  1  0  0  0
 68 81  1  0  0  0
 71 73  2  0  0  0
 71 75  1  0  0  0
 71145  1  0  0  0
 72 73  1  0  0  0
 72 76  2  0  0  0
 72146  1  0  0  0
 73 82  1  0  0  0
 74 75  2  0  0  0
 74 76  1  0  0  0
 74 83  1  0  0  0
 75 84  1  0  0  0
 76 85  1  0  0  0
 77 78  1  0  0  0
 77 79  1  0  0  0
 77147  1  0  0  0
 77148  1  0  0  0
 78 80  1  0  0  0
 78149  1  0  0  0
 78150  1  0  0  0
 79 82  1  0  0  0
 79151  1  0  0  0
 79152  1  0  0  0
 80 81  1  0  0  0
 80 82  1  0  0  0
 80153  1  0  0  0
 81154  1  0  0  0
 81155  1  0  0  0
 83156  1  0  0  0
M  ISO  4   1 100  68 101  81 101  83 100
M  END
> <chiral flag>
0

> <version>
0

> <s_m_source_file>
/data/baiqing/PycharmProjects/Reinvent-master-3.2/result/LINK_invent/BTK/process_docking_weight1_custom_product_contain_oxygen_bond_distance_aromatic_linkinvent_7_9_3/rearranged_h_0025.sdf

> <i_m_source_file_index>
62

> <r_mmod_Potential_Energy-OPLS-2005>
650.0146484375

> <r_mmod_Stretch_Energy-OPLS-2005>
236.087020874023

> <r_mmod_Bend_Energy-OPLS-2005>
437.575988769531

> <r_mmod_Torsional_Energy-OPLS-2005>
293.108245849609

> <r_mmod_Improper_Torsional_Energy-OPLS-2005>
11.8356647491455

> <r_mmod_Van_der_Waal_Energy-OPLS-2005>
140.637756347656

> <r_mmod_Electrostatic_Energy-OPLS-2005>
-412.026275634766

> <r_mmod_Solvation_Energy-OPLS-2005>
-232.120544433594

> <b_mmod_Minimization_Converged-OPLS-2005>
0

> <r_mmod_RMS_Derivative-OPLS-2005>
0.919323921203613

$$$$
62
                    3D
 Structure written by MMmdl.
156165  0  0  1  0            999 V2000
  -30.5231  -14.8986   20.4401 C   0  0  0  0  0  0
  -30.4517  -12.5535   19.4895 C   0  0  0  0  0  0
  -29.5248  -12.5288   18.2511 C   0  0  0  0  0  0
  -28.0537  -12.3245   18.6629 C   0  0  0  0  0  0
  -27.6396  -13.2369   19.8467 C   0  0  2  0  0  0
  -28.6833  -13.2103   20.9846 C   0  0  0  0  0  0
  -25.2522  -13.8195   20.5705 C   0  0  0  0  0  0
  -24.1819  -13.0440   20.9230 C   0  0  0  0  0  0
  -24.6411  -11.6917   20.8748 C   0  0  0  0  0  0
  -23.9075  -10.4293   21.0395 C   0  0  0  0  0  0
  -24.3623   -9.4204   21.9172 C   0  0  0  0  0  0
  -23.6292   -8.2242   22.0738 C   0  0  0  0  0  0
  -22.4272   -8.0283   21.3533 C   0  0  0  0  0  0
  -21.9913   -9.0259   20.4635 C   0  0  0  0  0  0
  -22.7246  -10.2139   20.3044 C   0  0  0  0  0  0
  -21.6852   -6.0734   22.5269 C   0  0  0  0  0  0
  -21.4016   -6.5632   23.8207 C   0  0  0  0  0  0
  -21.3662   -5.6780   24.9166 C   0  0  0  0  0  0
  -21.6044   -4.3045   24.7213 C   0  0  0  0  0  0
  -21.8821   -3.8142   23.4334 C   0  0  0  0  0  0
  -21.9194   -4.6962   22.3392 C   0  0  0  0  0  0
  -22.7840  -13.5225   21.1873 C   0  0  0  0  0  0
  -22.1661   -4.2145   21.0968 F   0  0  0  0  0  0
  -21.5628   -3.4528   25.7729 F   0  0  0  0  0  0
  -29.9688  -13.6234   20.4032 N   0  0  0  0  0  0
  -26.2936  -12.9404   20.3250 N   0  0  0  0  0  0
  -25.9340  -11.6546   20.5733 N   0  0  0  0  0  0
  -22.0472  -12.8224   22.0422 N   0  0  0  0  0  0
  -25.4217  -15.1919   20.4105 N   0  0  0  0  0  0
  -31.7106  -15.0205   20.1277 O   0  0  0  0  0  0
  -21.6631   -6.8885   21.4235 O   0  0  0  0  0  0
  -22.3531  -14.5524   20.6701 O   0  0  0  0  0  0
  -24.6416  -31.8464   23.1903 C   0  0  0  0  0  0
  -25.9199  -32.4705   23.8286 C   0  0  1  0  0  0
  -27.2178  -27.1636   20.1456 C   0  0  0  0  0  0
  -25.5950  -33.8509   24.2203 N   0  0  0  0  0  0
  -23.4426  -30.4675   21.5364 C   0  0  2  0  0  0
  -24.8911  -28.8995   20.1133 C   0  0  0  0  0  0
  -22.7553  -29.4558   22.4873 C   0  0  0  0  0  0
  -18.0301  -28.1388   22.8487 C   0  0  0  0  0  0
  -24.1489  -36.7260   23.2638 C   0  0  0  0  0  0
  -25.9973  -30.7303   21.3836 C   0  0  0  0  0  0
  -26.0692  -29.3432   20.7273 C   0  0  0  0  0  0
  -27.2353  -28.4929   20.7238 C   0  0  0  0  0  0
  -26.0138  -26.8188   19.4918 C   0  0  0  0  0  0
  -24.8748  -27.6494   19.4805 C   0  0  0  0  0  0
  -23.6664  -29.7984   20.1556 C   0  0  0  0  0  0
  -25.4119  -36.3037   24.0316 C   0  0  1  0  0  0
  -20.5915  -28.3708   23.1247 C   0  0  2  0  0  0
  -20.6784  -26.9414   22.5403 C   0  0  0  0  0  0
  -19.5756  -26.6375   21.5213 C   0  0  0  0  0  0
  -18.1940  -26.7929   22.1629 C   0  0  0  0  0  0
  -19.1557  -28.8866   23.2865 C   0  0  0  0  0  0
  -18.9469  -30.1459   23.8893 C   0  0  0  0  0  0
  -17.6467  -30.6588   24.0556 C   0  0  0  0  0  0
  -25.9070  -34.9412   23.5069 C   0  0  0  0  0  0
  -16.5360  -29.9084   23.6326 C   0  0  0  0  0  0
  -16.7286  -28.6497   23.0363 C   0  0  0  0  0  0
  -26.4527  -31.6557   25.0716 C   0  0  0  0  0  0
  -25.3706  -31.3747   26.1404 C   0  0  0  0  0  0
  -27.0383  -30.2954   24.6275 C   0  0  0  0  0  0
  -27.6067  -32.4305   25.7510 C   0  0  0  0  0  0
  -27.5573  -37.1786   24.8466 C   0  0  0  0  0  0
  -21.4247  -29.3044   22.3623 N   0  0  0  0  0  0
  -26.4286  -37.3744   23.9407 N   0  0  0  0  0  0
  -24.7139  -31.0351   22.0921 N   0  0  0  0  0  0
  -23.4211  -28.8098   23.3000 O   0  0  0  0  0  0
  -28.2856  -26.2010   20.1823 O   0  0  0  0  0  0
  -26.5659  -34.8908   22.4649 O   0  0  0  0  0  0
  -23.5541  -32.1324   23.7146 O   0  0  0  0  0  0
  -28.4417  -18.1506   21.1991 C   0  0  0  0  0  0
  -29.0332  -20.5774   20.6565 C   0  0  0  0  0  0
  -29.5848  -17.5187   20.6226 C   0  0  0  0  0  0
  -28.1713  -19.5667   21.2152 C   0  0  0  0  0  0
  -30.1789  -19.9555   20.0217 C   0  0  0  0  0  0
  -30.4425  -18.5052   20.0039 C   0  0  0  0  0  0
  -30.2155  -23.1374   22.3833 C   0  0  0  0  0  0
  -30.3469  -23.8070   21.0117 C   0  0  0  0  0  0
  -28.9273  -22.3143   22.3027 C   0  0  0  0  0  0
  -29.0776  -23.4005   20.2507 C   0  0  2  0  0  0
  -27.9992  -24.6872   20.3594 C   0  0  0  0  0  0
  -28.7156  -22.0283   20.8840 N   0  0  0  0  0  0
  -29.6557  -15.9849   20.6940 N   0  0  0  0  0  0
  -26.6853  -20.0414   21.9705 Cl  0  0  0  0  0  0
  -31.3247  -20.9913   19.2385 Cl  0  0  0  0  0  0
  -31.8533  -17.9507   19.1706 Cl  0  0  0  0  0  0
  -31.4829  -12.7236   19.1760 H   0  0  0  0  0  0
  -30.4496  -11.5866   19.9951 H   0  0  0  0  0  0
  -29.8349  -11.7426   17.5616 H   0  0  0  0  0  0
  -29.6226  -13.4693   17.7064 H   0  0  0  0  0  0
  -27.9350  -11.2789   18.9489 H   0  0  0  0  0  0
  -27.3949  -12.4838   17.8079 H   0  0  0  0  0  0
  -27.6187  -14.2501   19.4453 H   0  0  0  0  0  0
  -28.7575  -12.2153   21.4269 H   0  0  0  0  0  0
  -28.3876  -13.8796   21.7938 H   0  0  0  0  0  0
  -25.2765   -9.5681   22.4751 H   0  0  0  0  0  0
  -23.9999   -7.4628   22.7455 H   0  0  0  0  0  0
  -21.0846   -8.8776   19.8938 H   0  0  0  0  0  0
  -22.3698  -10.9674   19.6154 H   0  0  0  0  0  0
  -21.2005   -7.6137   23.9715 H   0  0  0  0  0  0
  -21.1486   -6.0501   25.9069 H   0  0  0  0  0  0
  -22.0603   -2.7604   23.2823 H   0  0  0  0  0  0
  -22.4096  -11.9906   22.4839 H   0  0  0  0  0  0
  -21.1077  -13.1237   22.2596 H   0  0  0  0  0  0
  -24.6461  -15.8376   20.5090 H   0  0  0  0  0  0
  -26.2425  -15.6202   20.0034 H   0  0  0  0  0  0
  -26.7269  -32.5328   23.1022 H   0  0  0  0  0  0
  -25.0057  -33.9625   25.0324 H   0  0  0  0  0  0
  -22.7442  -31.2930   21.3853 H   0  0  0  0  0  0
  -23.3751  -35.9592   23.3295 H   0  0  0  0  0  0
  -24.3564  -36.8895   22.2051 H   0  0  0  0  0  0
  -23.7249  -37.6459   23.6675 H   0  0  0  0  0  0
  -26.1477  -31.4840   20.6094 H   0  0  0  0  0  0
  -26.8701  -30.7818   22.0228 H   0  0  0  0  0  0
  -28.1371  -28.8324   21.2139 H   0  0  0  0  0  0
  -25.9182  -25.8756   18.9779 H   0  0  0  0  0  0
  -23.9776  -27.3072   18.9830 H   0  0  0  0  0  0
  -23.8001  -30.5731   19.4001 H   0  0  0  0  0  0
  -22.7821  -29.2383   19.8457 H   0  0  0  0  0  0
  -25.1304  -36.1867   25.0808 H   0  0  0  0  0  0
  -21.0019  -28.3291   24.1365 H   0  0  0  0  0  0
  -20.5673  -26.2320   23.3616 H   0  0  0  0  0  0
  -21.6649  -26.7416   22.1200 H   0  0  0  0  0  0
  -19.6913  -25.6279   21.1258 H   0  0  0  0  0  0
  -19.6697  -27.3174   20.6733 H   0  0  0  0  0  0
  -17.4207  -26.6673   21.4036 H   0  0  0  0  0  0
  -18.0342  -26.0073   22.9029 H   0  0  0  0  0  0
  -19.7941  -30.7272   24.2276 H   0  0  0  0  0  0
  -17.5015  -31.6271   24.5149 H   0  0  0  0  0  0
  -15.5358  -30.2984   23.7641 H   0  0  0  0  0  0
  -15.8687  -28.0799   22.7102 H   0  0  0  0  0  0
  -24.5902  -30.7084   25.7715 H   0  0  0  0  0  0
  -24.8879  -32.2931   26.4755 H   0  0  0  0  0  0
  -25.7971  -30.8963   27.0229 H   0  0  0  0  0  0
  -26.2992  -29.6690   24.1271 H   0  0  0  0  0  0
  -27.3991  -29.7241   25.4837 H   0  0  0  0  0  0
  -27.8903  -30.4196   23.9590 H   0  0  0  0  0  0
  -27.2674  -33.3622   26.2050 H   0  0  0  0  0  0
  -28.3910  -32.6826   25.0363 H   0  0  0  0  0  0
  -28.0701  -31.8448   26.5459 H   0  0  0  0  0  0
  -28.2588  -38.0084   24.7495 H   0  0  0  0  0  0
  -28.1069  -36.2607   24.6312 H   0  0  0  0  0  0
  -27.2284  -37.1462   25.8868 H   0  0  0  0  0  0
  -20.9444  -29.8770   21.6822 H   0  0  0  0  0  0
  -26.0155  -38.2815   24.1403 H   0  0  0  0  0  0
  -27.7044  -17.5167   21.6684 H   0  0  0  0  0  0
  -30.1744  -23.8620   23.1978 H   0  0  0  0  0  0
  -31.0715  -22.4858   22.5653 H   0  0  0  0  0  0
  -31.2362  -23.4387   20.5009 H   0  0  0  0  0  0
  -30.4596  -24.8894   21.0907 H   0  0  0  0  0  0
  -28.0833  -22.8910   22.6844 H   0  0  0  0  0  0
  -29.0062  -21.4293   22.9371 H   0  0  0  0  0  0
  -29.3214  -23.2551   19.1969 H   0  0  0  0  0  0
  -27.5479  -24.6332   21.3496 H   0  0  0  0  0  0
  -27.1969  -24.4072   19.6816 H   0  0  0  0  0  0
  -28.7788  -15.5997   21.0087 H   0  0  0  0  0  0
  1 25  1  0  0  0
  1 30  2  0  0  0
  1 83  1  0  0  0
  2  3  1  0  0  0
  2 25  1  0  0  0
  2 87  1  0  0  0
  2 88  1  0  0  0
  3  4  1  0  0  0
  3 89  1  0  0  0
  3 90  1  0  0  0
  4  5  1  0  0  0
  4 91  1  0  0  0
  4 92  1  0  0  0
  5  6  1  0  0  0
  5 26  1  0  0  0
  5 93  1  0  0  0
  6 25  1  0  0  0
  6 94  1  0  0  0
  6 95  1  0  0  0
  7  8  2  0  0  0
  7 26  1  0  0  0
  7 29  1  0  0  0
  8  9  1  0  0  0
  8 22  1  0  0  0
  9 10  1  0  0  0
  9 27  2  0  0  0
 10 11  2  0  0  0
 10 15  1  0  0  0
 11 12  1  0  0  0
 11 96  1  0  0  0
 12 13  2  0  0  0
 12 97  1  0  0  0
 13 14  1  0  0  0
 13 31  1  0  0  0
 14 15  2  0  0  0
 14 98  1  0  0  0
 15 99  1  0  0  0
 16 17  2  0  0  0
 16 21  1  0  0  0
 16 31  1  0  0  0
 17 18  1  0  0  0
 17100  1  0  0  0
 18 19  2  0  0  0
 18101  1  0  0  0
 19 20  1  0  0  0
 19 24  1  0  0  0
 20 21  2  0  0  0
 20102  1  0  0  0
 21 23  1  0  0  0
 22 28  1  0  0  0
 22 32  2  0  0  0
 26 27  1  0  0  0
 28103  1  0  0  0
 28104  1  0  0  0
 29105  1  0  0  0
 29106  1  0  0  0
 33 34  1  0  0  0
 33 66  1  0  0  0
 33 70  2  0  0  0
 34 36  1  0  0  0
 34 59  1  0  0  0
 34107  1  0  0  0
 35 44  2  0  0  0
 35 45  1  0  0  0
 35 68  1  0  0  0
 36 56  1  0  0  0
 36108  1  0  0  0
 37 39  1  0  0  0
 37 47  1  0  0  0
 37 66  1  0  0  0
 37109  1  0  0  0
 38 43  2  0  0  0
 38 46  1  0  0  0
 38 47  1  0  0  0
 39 64  1  0  0  0
 39 67  2  0  0  0
 40 52  1  0  0  0
 40 53  2  0  0  0
 40 58  1  0  0  0
 41110  1  0  0  0
 41111  1  0  0  0
 41112  1  0  0  0
 41 48  1  0  0  0
 42 43  1  0  0  0
 42 66  1  0  0  0
 42113  1  0  0  0
 42114  1  0  0  0
 43 44  1  0  0  0
 44115  1  0  0  0
 45 46  2  0  0  0
 45116  1  0  0  0
 46117  1  0  0  0
 47118  1  0  0  0
 47119  1  0  0  0
 48 56  1  0  0  0
 48 65  1  0  0  0
 48120  1  0  0  0
 49 50  1  0  0  0
 49 53  1  0  0  0
 49 64  1  0  0  0
 49121  1  0  0  0
 50 51  1  0  0  0
 50122  1  0  0  0
 50123  1  0  0  0
 51 52  1  0  0  0
 51124  1  0  0  0
 51125  1  0  0  0
 52126  1  0  0  0
 52127  1  0  0  0
 53 54  1  0  0  0
 54 55  2  0  0  0
 54128  1  0  0  0
 55 57  1  0  0  0
 55129  1  0  0  0
 56 69  2  0  0  0
 57 58  2  0  0  0
 57130  1  0  0  0
 58131  1  0  0  0
 59 60  1  0  0  0
 59 61  1  0  0  0
 59 62  1  0  0  0
 60132  1  0  0  0
 60133  1  0  0  0
 60134  1  0  0  0
 61135  1  0  0  0
 61136  1  0  0  0
 61137  1  0  0  0
 62138  1  0  0  0
 62139  1  0  0  0
 62140  1  0  0  0
 63 65  1  0  0  0
 63141  1  0  0  0
 63142  1  0  0  0
 63143  1  0  0  0
 64144  1  0  0  0
 65145  1  0  0  0
 68 81  1  0  0  0
 71 73  2  0  0  0
 71 74  1  0  0  0
 71146  1  0  0  0
 72 74  2  0  0  0
 72 75  1  0  0  0
 72 82  1  0  0  0
 73 76  1  0  0  0
 73 83  1  0  0  0
 74 84  1  0  0  0
 75 76  2  0  0  0
 75 85  1  0  0  0
 76 86  1  0  0  0
 77 78  1  0  0  0
 77 79  1  0  0  0
 77147  1  0  0  0
 77148  1  0  0  0
 78 80  1  0  0  0
 78149  1  0  0  0
 78150  1  0  0  0
 79 82  1  0  0  0
 79151  1  0  0  0
 79152  1  0  0  0
 80 81  1  0  0  0
 80 82  1  0  0  0
 80153  1  0  0  0
 81154  1  0  0  0
 81155  1  0  0  0
 83156  1  0  0  0
M  ISO  4   1 100  68 101  81 101  83 100
M  END
> <chiral flag>
0

> <version>
0

> <s_m_source_file>
/data/baiqing/PycharmProjects/Reinvent-master-3.2/result/LINK_invent/BTK/process_docking_weight1_custom_product_contain_oxygen_bond_distance_aromatic_linkinvent_7_9_3/rearranged_h_0025.sdf

> <i_m_source_file_index>
63

> <r_mmod_Potential_Energy-OPLS-2005>
622.874694824219

> <r_mmod_Stretch_Energy-OPLS-2005>
220.299163818359

> <r_mmod_Bend_Energy-OPLS-2005>
321.941802978516

> <r_mmod_Torsional_Energy-OPLS-2005>
299.432006835938

> <r_mmod_Improper_Torsional_Energy-OPLS-2005>
8.7952995300293

> <r_mmod_Van_der_Waal_Energy-OPLS-2005>
134.621765136719

> <r_mmod_Electrostatic_Energy-OPLS-2005>
-293.443115234375

> <r_mmod_Solvation_Energy-OPLS-2005>
-229.559265136719

> <b_mmod_Minimization_Converged-OPLS-2005>
0

> <r_mmod_RMS_Derivative-OPLS-2005>
1.2444384098053

$$$$
63
                    3D
 Structure written by MMmdl.
166175  0  0  1  0            999 V2000
  -30.7091  -14.4064   20.6045 C   0  0  0  0  0  0
  -30.4162  -12.2720   19.4160 C   0  0  0  0  0  0
  -29.4959  -12.5127   18.2037 C   0  0  0  0  0  0
  -28.0121  -12.3848   18.6077 C   0  0  0  0  0  0
  -27.6649  -13.2030   19.8809 C   0  0  2  0  0  0
  -28.6987  -12.9412   20.9965 C   0  0  0  0  0  0
  -25.2601  -13.8141   20.5737 C   0  0  0  0  0  0
  -24.1839  -13.0417   20.9169 C   0  0  0  0  0  0
  -24.6381  -11.6886   20.8720 C   0  0  0  0  0  0
  -23.9039  -10.4279   21.0403 C   0  0  0  0  0  0
  -24.3587   -9.4203   21.9182 C   0  0  0  0  0  0
  -23.6271   -8.2241   22.0751 C   0  0  0  0  0  0
  -22.4261   -8.0252   21.3545 C   0  0  0  0  0  0
  -21.9897   -9.0228   20.4664 C   0  0  0  0  0  0
  -22.7209  -10.2115   20.3078 C   0  0  0  0  0  0
  -21.6840   -6.0710   22.5283 C   0  0  0  0  0  0
  -21.4004   -6.5620   23.8213 C   0  0  0  0  0  0
  -21.3675   -5.6783   24.9181 C   0  0  0  0  0  0
  -21.6070   -4.3050   24.7244 C   0  0  0  0  0  0
  -21.8824   -3.8120   23.4366 C   0  0  0  0  0  0
  -21.9185   -4.6932   22.3407 C   0  0  0  0  0  0
  -22.7859  -13.5197   21.1822 C   0  0  0  0  0  0
  -22.1662   -4.2126   21.0988 F   0  0  0  0  0  0
  -21.5644   -3.4535   25.7755 F   0  0  0  0  0  0
  -30.0370  -13.2366   20.4561 N   0  0  0  0  0  0
  -26.3032  -12.9316   20.3381 N   0  0  0  0  0  0
  -25.9295  -11.6482   20.5715 N   0  0  0  0  0  0
  -22.0491  -12.8214   22.0380 N   0  0  0  0  0  0
  -25.4382  -15.1840   20.4191 N   0  0  0  0  0  0
  -31.8063  -14.6366   20.0929 O   0  0  0  0  0  0
  -21.6631   -6.8845   21.4245 O   0  0  0  0  0  0
  -22.3585  -14.5492   20.6632 O   0  0  0  0  0  0
  -24.6079  -31.8706   23.2104 C   0  0  0  0  0  0
  -25.8996  -32.4831   23.8367 C   0  0  1  0  0  0
  -27.2304  -27.4615   20.0685 C   0  0  0  0  0  0
  -25.5858  -33.8616   24.2292 N   0  0  0  0  0  0
  -23.3936  -30.4961   21.5512 C   0  0  2  0  0  0
  -24.8362  -28.9668   20.1121 C   0  0  0  0  0  0
  -22.7372  -29.4694   22.5002 C   0  0  0  0  0  0
  -18.0267  -28.1369   22.8512 C   0  0  0  0  0  0
  -24.1507  -36.7343   23.2628 C   0  0  0  0  0  0
  -25.9183  -30.8432   21.3553 C   0  0  0  0  0  0
  -25.9968  -29.4784   20.7072 C   0  0  0  0  0  0
  -27.1943  -28.7308   20.6864 C   0  0  0  0  0  0
  -26.0508  -26.9699   19.4557 C   0  0  0  0  0  0
  -24.8571  -27.7103   19.4871 C   0  0  0  0  0  0
  -23.5948  -29.8266   20.1658 C   0  0  0  0  0  0
  -25.4107  -36.3102   24.0330 C   0  0  1  0  0  0
  -20.5842  -28.3675   23.1328 C   0  0  2  0  0  0
  -20.6729  -26.9419   22.5420 C   0  0  0  0  0  0
  -19.5717  -26.6401   21.5195 C   0  0  0  0  0  0
  -18.1902  -26.7920   22.1623 C   0  0  0  0  0  0
  -19.1506  -28.8839   23.2920 C   0  0  0  0  0  0
  -18.9443  -30.1434   23.8946 C   0  0  0  0  0  0
  -17.6449  -30.6574   24.0575 C   0  0  0  0  0  0
  -25.9059  -34.9479   23.5133 C   0  0  0  0  0  0
  -16.5345  -29.9091   23.6308 C   0  0  0  0  0  0
  -16.7257  -28.6501   23.0349 C   0  0  0  0  0  0
  -26.4478  -31.6586   25.0655 C   0  0  0  0  0  0
  -25.3810  -31.3658   26.1452 C   0  0  0  0  0  0
  -27.0266  -30.3038   24.5928 C   0  0  0  0  0  0
  -27.6054  -32.4300   25.7424 C   0  0  0  0  0  0
  -27.5589  -37.1819   24.8465 C   0  0  0  0  0  0
  -21.4096  -29.3059   22.3735 N   0  0  0  0  0  0
  -26.4294  -37.3783   23.9420 N   0  0  0  0  0  0
  -24.6591  -31.0820   22.1004 N   0  0  0  0  0  0
  -23.4171  -28.8226   23.3012 O   0  0  0  0  0  0
  -28.4095  -26.7439   20.0943 O   0  0  0  0  0  0
  -26.5652  -34.8949   22.4708 O   0  0  0  0  0  0
  -23.5289  -32.1445   23.7552 O   0  0  0  0  0  0
  -29.8179  -21.3193   23.6543 C   0  0  0  0  0  0
  -29.8863  -19.9434   23.9523 C   0  0  0  0  0  0
  -27.8702  -19.5588   22.6460 C   0  0  0  0  0  0
  -28.7755  -21.8234   22.8464 C   0  0  0  0  0  0
  -28.9168  -19.0509   23.4493 C   0  0  0  0  0  0
  -27.8048  -20.9346   22.3463 C   0  0  0  0  0  0
  -29.4192  -24.5376   20.4735 C   0  0  0  0  0  0
  -30.7645  -24.6258   20.4278 C   0  0  0  0  0  0
  -27.4522  -24.5607   20.8030 C   0  0  0  0  0  0
  -28.3387  -25.3442   19.8017 C   0  0  1  0  0  0
  -31.7812  -23.7123   21.0885 C   0  0  0  0  0  0
  -28.6558  -23.3166   22.5701 C   0  0  0  0  0  0
  -28.7330  -16.7192   22.7204 C   0  0  0  0  0  0
  -29.9128  -15.7617   22.4901 C   0  0  0  0  0  0
  -29.0207  -17.6900   23.7702 N   0  0  0  0  0  0
  -29.9829  -15.4218   21.0768 N   0  0  0  0  0  0
  -28.5295  -23.6135   21.1207 N   0  3  2  0  0  0
  -26.8028  -21.4131   21.5689 F   0  0  0  0  0  0
  -31.4642  -12.3633   19.1230 H   0  0  0  0  0  0
  -30.2931  -11.2515   19.7852 H   0  0  0  0  0  0
  -29.7288  -11.8087   17.4047 H   0  0  0  0  0  0
  -29.6858  -13.5054   17.7966 H   0  0  0  0  0  0
  -27.8038  -11.3278   18.7780 H   0  0  0  0  0  0
  -27.3708  -12.6865   17.7783 H   0  0  0  0  0  0
  -27.7249  -14.2582   19.6097 H   0  0  0  0  0  0
  -28.6562  -11.8993   21.3178 H   0  0  0  0  0  0
  -28.4563  -13.5290   21.8816 H   0  0  0  0  0  0
  -25.2732   -9.5668   22.4777 H   0  0  0  0  0  0
  -23.9981   -7.4635   22.7457 H   0  0  0  0  0  0
  -21.0839   -8.8725   19.8990 H   0  0  0  0  0  0
  -22.3628  -10.9652   19.6205 H   0  0  0  0  0  0
  -21.1992   -7.6126   23.9697 H   0  0  0  0  0  0
  -21.1504   -6.0521   25.9082 H   0  0  0  0  0  0
  -22.0589   -2.7593   23.2867 H   0  0  0  0  0  0
  -22.4108  -11.9874   22.4807 H   0  0  0  0  0  0
  -21.1157  -13.1337   22.2643 H   0  0  0  0  0  0
  -24.6819  -15.8502   20.5338 H   0  0  0  0  0  0
  -26.3009  -15.6085   20.1032 H   0  0  0  0  0  0
  -26.7043  -32.5554   23.1118 H   0  0  0  0  0  0
  -24.9871  -33.9761   25.0336 H   0  0  0  0  0  0
  -22.6804  -31.3100   21.4109 H   0  0  0  0  0  0
  -23.3751  -35.9703   23.3278 H   0  0  0  0  0  0
  -24.3653  -36.8945   22.2057 H   0  0  0  0  0  0
  -23.7295  -37.6568   23.6634 H   0  0  0  0  0  0
  -26.0061  -31.6030   20.5775 H   0  0  0  0  0  0
  -26.8167  -30.9146   21.9575 H   0  0  0  0  0  0
  -28.0912  -29.1240   21.1450 H   0  0  0  0  0  0
  -26.0246  -26.0223   18.9380 H   0  0  0  0  0  0
  -23.9644  -27.3187   19.0169 H   0  0  0  0  0  0
  -23.6951  -30.5965   19.4005 H   0  0  0  0  0  0
  -22.7216  -29.2395   19.8755 H   0  0  0  0  0  0
  -25.1279  -36.1960   25.0820 H   0  0  0  0  0  0
  -20.9960  -28.3223   24.1437 H   0  0  0  0  0  0
  -20.5621  -26.2290   23.3602 H   0  0  0  0  0  0
  -21.6597  -26.7427   22.1239 H   0  0  0  0  0  0
  -19.6891  -25.6328   21.1186 H   0  0  0  0  0  0
  -19.6627  -27.3236   20.6739 H   0  0  0  0  0  0
  -17.4164  -26.6697   21.4022 H   0  0  0  0  0  0
  -18.0330  -26.0015   22.8985 H   0  0  0  0  0  0
  -19.7931  -30.7221   24.2329 H   0  0  0  0  0  0
  -17.5021  -31.6254   24.5173 H   0  0  0  0  0  0
  -15.5359  -30.3027   23.7578 H   0  0  0  0  0  0
  -15.8651  -28.0828   22.7041 H   0  0  0  0  0  0
  -24.5983  -30.6982   25.7834 H   0  0  0  0  0  0
  -24.9022  -32.2805   26.4956 H   0  0  0  0  0  0
  -25.8253  -30.8840   27.0173 H   0  0  0  0  0  0
  -26.2789  -29.6884   24.0913 H   0  0  0  0  0  0
  -27.3995  -29.7147   25.4312 H   0  0  0  0  0  0
  -27.8633  -30.4392   23.9065 H   0  0  0  0  0  0
  -27.2662  -33.3585   26.2034 H   0  0  0  0  0  0
  -28.3864  -32.6858   25.0252 H   0  0  0  0  0  0
  -28.0715  -31.8409   26.5322 H   0  0  0  0  0  0
  -28.2599  -38.0121   24.7470 H   0  0  0  0  0  0
  -28.1076  -36.2643   24.6297 H   0  0  0  0  0  0
  -27.2330  -37.1499   25.8877 H   0  0  0  0  0  0
  -20.9241  -29.8764   21.6947 H   0  0  0  0  0  0
  -26.0177  -38.2860   24.1410 H   0  0  0  0  0  0
  -30.5574  -21.9869   24.0719 H   0  0  0  0  0  0
  -30.6975  -19.5864   24.5725 H   0  0  0  0  0  0
  -27.0974  -18.9091   22.2587 H   0  0  0  0  0  0
  -31.1894  -25.4226   19.8340 H   0  0  0  0  0  0
  -26.5768  -24.0873   20.3609 H   0  0  0  0  0  0
  -27.1581  -25.1806   21.6529 H   0  0  0  0  0  0
  -28.1520  -25.1167   18.7500 H   0  0  0  0  0  0
  -32.3712  -23.2062   20.3241 H   0  0  0  0  0  0
  -31.3292  -22.9478   21.7177 H   0  0  0  0  0  0
  -32.4683  -24.3019   21.6987 H   0  0  0  0  0  0
  -29.4886  -23.8662   23.0068 H   0  0  0  0  0  0
  -27.7632  -23.6461   23.1047 H   0  0  0  0  0  0
  -27.8308  -16.1606   22.9733 H   0  0  0  0  0  0
  -28.5161  -17.2329   21.7831 H   0  0  0  0  0  0
  -29.8272  -14.8816   23.1299 H   0  0  0  0  0  0
  -30.8613  -16.2438   22.7399 H   0  0  0  0  0  0
  -29.7674  -17.4327   24.4122 H   0  0  0  0  0  0
  -30.1579  -16.2550   20.5343 H   0  0  0  0  0  0
  -28.4037  -22.7661   20.5851 H   0  0  0  0  0  0
  1 25  1  0  0  0
  1 30  2  0  0  0
  1 86  1  0  0  0
  2  3  1  0  0  0
  2 25  1  0  0  0
  2 89  1  0  0  0
  2 90  1  0  0  0
  3  4  1  0  0  0
  3 91  1  0  0  0
  3 92  1  0  0  0
  4  5  1  0  0  0
  4 93  1  0  0  0
  4 94  1  0  0  0
  5  6  1  0  0  0
  5 26  1  0  0  0
  5 95  1  0  0  0
  6 25  1  0  0  0
  6 96  1  0  0  0
  6 97  1  0  0  0
  7  8  2  0  0  0
  7 26  1  0  0  0
  7 29  1  0  0  0
  8  9  1  0  0  0
  8 22  1  0  0  0
  9 10  1  0  0  0
  9 27  2  0  0  0
 10 11  2  0  0  0
 10 15  1  0  0  0
 11 12  1  0  0  0
 11 98  1  0  0  0
 12 13  2  0  0  0
 12 99  1  0  0  0
 13 14  1  0  0  0
 13 31  1  0  0  0
 14 15  2  0  0  0
 14100  1  0  0  0
 15101  1  0  0  0
 16 17  2  0  0  0
 16 21  1  0  0  0
 16 31  1  0  0  0
 17 18  1  0  0  0
 17102  1  0  0  0
 18 19  2  0  0  0
 18103  1  0  0  0
 19 20  1  0  0  0
 19 24  1  0  0  0
 20 21  2  0  0  0
 20104  1  0  0  0
 21 23  1  0  0  0
 22 28  1  0  0  0
 22 32  2  0  0  0
 26 27  1  0  0  0
 28105  1  0  0  0
 28106  1  0  0  0
 29107  1  0  0  0
 29108  1  0  0  0
 33 34  1  0  0  0
 33 66  1  0  0  0
 33 70  2  0  0  0
 34 36  1  0  0  0
 34 59  1  0  0  0
 34109  1  0  0  0
 35 44  2  0  0  0
 35 45  1  0  0  0
 35 68  1  0  0  0
 36 56  1  0  0  0
 36110  1  0  0  0
 37 39  1  0  0  0
 37 47  1  0  0  0
 37 66  1  0  0  0
 37111  1  0  0  0
 38 43  2  0  0  0
 38 46  1  0  0  0
 38 47  1  0  0  0
 39 64  1  0  0  0
 39 67  2  0  0  0
 40 52  1  0  0  0
 40 53  2  0  0  0
 40 58  1  0  0  0
 41112  1  0  0  0
 41113  1  0  0  0
 41114  1  0  0  0
 41 48  1  0  0  0
 42 43  1  0  0  0
 42 66  1  0  0  0
 42115  1  0  0  0
 42116  1  0  0  0
 43 44  1  0  0  0
 44117  1  0  0  0
 45 46  2  0  0  0
 45118  1  0  0  0
 46119  1  0  0  0
 47120  1  0  0  0
 47121  1  0  0  0
 48 56  1  0  0  0
 48 65  1  0  0  0
 48122  1  0  0  0
 49 50  1  0  0  0
 49 53  1  0  0  0
 49 64  1  0  0  0
 49123  1  0  0  0
 50 51  1  0  0  0
 50124  1  0  0  0
 50125  1  0  0  0
 51 52  1  0  0  0
 51126  1  0  0  0
 51127  1  0  0  0
 52128  1  0  0  0
 52129  1  0  0  0
 53 54  1  0  0  0
 54 55  2  0  0  0
 54130  1  0  0  0
 55 57  1  0  0  0
 55131  1  0  0  0
 56 69  2  0  0  0
 57 58  2  0  0  0
 57132  1  0  0  0
 58133  1  0  0  0
 59 60  1  0  0  0
 59 61  1  0  0  0
 59 62  1  0  0  0
 60134  1  0  0  0
 60135  1  0  0  0
 60136  1  0  0  0
 61137  1  0  0  0
 61138  1  0  0  0
 61139  1  0  0  0
 62140  1  0  0  0
 62141  1  0  0  0
 62142  1  0  0  0
 63 65  1  0  0  0
 63143  1  0  0  0
 63144  1  0  0  0
 63145  1  0  0  0
 64146  1  0  0  0
 65147  1  0  0  0
 68 80  1  0  0  0
 71 72  2  0  0  0
 71 74  1  0  0  0
 71148  1  0  0  0
 72 75  1  0  0  0
 72149  1  0  0  0
 73 75  2  0  0  0
 73 76  1  0  0  0
 73150  1  0  0  0
 74 76  2  0  0  0
 74 82  1  0  0  0
 75 85  1  0  0  0
 76 88  1  0  0  0
 77 78  2  0  0  0
 77 80  1  0  0  0
 77 87  1  0  0  0
 78 81  1  0  0  0
 78151  1  0  0  0
 79 80  1  0  0  0
 79 87  1  0  0  0
 79152  1  0  0  0
 79153  1  0  0  0
 80154  1  0  0  0
 81155  1  0  0  0
 81156  1  0  0  0
 81157  1  0  0  0
 82158  1  0  0  0
 82159  1  0  0  0
 82 87  1  0  0  0
 83 84  1  0  0  0
 83 85  1  0  0  0
 83160  1  0  0  0
 83161  1  0  0  0
 84 86  1  0  0  0
 84162  1  0  0  0
 84163  1  0  0  0
 85164  1  0  0  0
 86165  1  0  0  0
 87166  1  0  0  0
M  CHG  1  87   1
M  ISO  4   1 100  68 101  80 101  86 100
M  END
> <chiral flag>
0

> <version>
0

> <s_m_source_file>
/data/baiqing/PycharmProjects/Reinvent-master-3.2/result/LINK_invent/BTK/process_docking_weight1_custom_product_contain_oxygen_bond_distance_aromatic_linkinvent_7_9_3/rearranged_h_0025.sdf

> <i_m_source_file_index>
64

> <r_mmod_Potential_Energy-OPLS-2005>
-231.049926757812

> <r_mmod_Stretch_Energy-OPLS-2005>
33.0030975341797

> <r_mmod_Bend_Energy-OPLS-2005>
135.865295410156

> <r_mmod_Torsional_Energy-OPLS-2005>
268.023010253906

> <r_mmod_Improper_Torsional_Energy-OPLS-2005>
15.1643533706665

> <r_mmod_Van_der_Waal_Energy-OPLS-2005>
157.75602722168

> <r_mmod_Electrostatic_Energy-OPLS-2005>
-406.740203857422

> <r_mmod_Solvation_Energy-OPLS-2005>
-443.061798095703

> <b_mmod_Minimization_Converged-OPLS-2005>
0

> <r_mmod_RMS_Derivative-OPLS-2005>
4.35913610458374

$$$$
64
                    3D
 Structure written by MMmdl.
193202  0  0  1  0            999 V2000
  -28.7826  -19.4395   20.2357 C   0  0  0  0  0  0
  -29.6911  -15.8603   19.5840 C   0  0  0  0  0  0
  -29.4317  -14.3649   18.6903 C   0  0  0  0  0  0
  -28.4639  -13.2852   19.2089 C   0  0  0  0  0  0
  -27.5152  -14.2004   19.9657 C   0  0  2  0  0  0
  -28.0880  -15.7291   20.7672 C   0  0  0  0  0  0
  -25.1178  -14.0136   20.6509 C   0  0  0  0  0  0
  -24.1547  -13.1033   20.9500 C   0  0  0  0  0  0
  -24.7458  -11.8039   20.8547 C   0  0  0  0  0  0
  -24.0268  -10.4782   20.9961 C   0  0  0  0  0  0
  -24.4383   -9.4633   21.8965 C   0  0  0  0  0  0
  -23.6828   -8.2732   22.0695 C   0  0  0  0  0  0
  -22.4789   -8.0687   21.3528 C   0  0  0  0  0  0
  -22.0646   -9.0681   20.4544 C   0  0  0  0  0  0
  -22.8216  -10.2476   20.2803 C   0  0  0  0  0  0
  -21.7051   -6.1008   22.5258 C   0  0  0  0  0  0
  -21.4165   -6.5803   23.8220 C   0  0  0  0  0  0
  -21.3712   -5.6884   24.9125 C   0  0  0  0  0  0
  -21.6027   -4.3145   24.7133 C   0  0  0  0  0  0
  -21.8787   -3.8313   23.4221 C   0  0  0  0  0  0
  -21.9250   -4.7194   22.3323 C   0  0  0  0  0  0
  -22.7248  -13.4763   21.1965 C   0  0  0  0  0  0
  -22.1698   -4.2368   21.0899 F   0  0  0  0  0  0
  -21.5584   -3.4588   25.7618 F   0  0  0  0  0  0
  -28.6815  -17.3384   20.1333 N   0  0  0  0  0  0
  -26.3061  -13.3791   20.4641 N   0  0  0  0  0  0
  -26.0784  -11.9831   20.5701 N   0  0  0  0  0  0
  -22.0304  -12.7418   22.0557 N   0  0  0  0  0  0
  -25.0671  -15.3846   20.4751 N   0  0  0  0  0  0
  -30.0064  -18.7956   20.1580 O   0  0  0  0  0  0
  -21.6985   -6.9317   21.4293 O   0  0  0  0  0  0
  -22.2437  -14.4859   20.6817 O   0  0  0  0  0  0
  -25.0044  -31.2713   22.9169 C   0  0  0  0  0  0
  -26.0575  -32.2224   23.6858 C   0  0  1  0  0  0
  -28.3202  -24.7663   20.1486 C   0  0  0  0  0  0
  -25.5619  -33.6277   23.9798 N   0  0  0  0  0  0
  -23.8936  -29.6262   21.1494 C   0  0  2  0  0  0
  -25.1908  -26.2836   20.1655 C   0  0  0  0  0  0
  -22.7544  -29.3670   22.3178 C   0  0  0  0  0  0
  -17.9722  -28.2455   22.7915 C   0  0  0  0  0  0
  -24.1467  -36.6267   23.2719 C   0  0  0  0  0  0
  -26.6364  -28.8227   22.4073 C   0  0  0  0  0  0
  -26.8606  -26.7802   21.7421 C   0  0  0  0  0  0
  -28.2492  -25.9610   21.5188 C   0  0  0  0  0  0
  -26.7434  -24.6812   18.8412 C   0  0  0  0  0  0
  -25.3604  -25.4547   18.9946 C   0  0  0  0  0  0
  -23.9535  -28.1167   19.8290 C   0  0  0  0  0  0
  -25.4169  -36.1573   24.0021 C   0  0  1  0  0  0
  -20.5122  -28.5339   23.1005 C   0  0  2  0  0  0
  -20.4487  -26.9988   23.0351 C   0  0  0  0  0  0
  -19.4985  -26.3256   22.0280 C   0  0  0  0  0  0
  -18.0834  -26.8963   22.0948 C   0  0  0  0  0  0
  -19.0914  -29.0252   23.2052 C   0  0  0  0  0  0
  -18.8828  -30.2513   23.8625 C   0  0  0  0  0  0
  -17.5795  -30.7282   24.0688 C   0  0  0  0  0  0
  -25.9272  -34.8041   23.4113 C   0  0  0  0  0  0
  -16.4755  -29.9610   23.6601 C   0  0  0  0  0  0
  -16.6725  -28.7205   23.0344 C   0  0  0  0  0  0
  -26.5137  -31.6741   25.0917 C   0  0  0  0  0  0
  -25.3438  -31.5095   26.0953 C   0  0  0  0  0  0
  -27.2125  -30.3377   24.9540 C   0  0  0  0  0  0
  -27.5779  -32.5856   25.7503 C   0  0  0  0  0  0
  -27.5403  -37.1178   24.8462 C   0  0  0  0  0  0
  -21.4157  -29.2614   22.1388 N   0  0  0  0  0  0
  -26.4080  -37.2681   23.9385 N   0  0  0  0  0  0
  -25.2565  -30.0229   22.1280 N   0  0  0  0  0  0
  -23.1712  -29.0137   23.4312 O   0  0  0  0  0  0
  -27.2254  -23.9044   19.1951 O   0  0  0  0  0  0
  -26.6623  -34.8439   22.4262 O   0  0  0  0  0  0
  -23.8653  -31.7707   23.1088 O   0  0  0  0  0  0
  -26.2559  -28.1920   20.1796 C   0  0  0  0  0  0
  -25.5575  -24.7090   22.3519 C   0  0  0  0  0  0
  -27.3390  -26.6562   19.5637 C   0  0  0  0  0  0
  -24.7323  -27.4725   21.9315 C   0  0  0  0  0  0
  -26.5237  -24.3341   21.1452 C   0  0  0  0  0  0
  -24.8560  -26.0909   22.7908 C   0  0  0  0  0  0
  -28.8516  -25.5068   18.1397 C   0  0  0  0  0  0
  -29.2556  -26.0096   16.9636 C   0  0  0  0  0  0
  -29.2153  -23.1734   18.7497 C   0  0  0  0  0  0
  -28.8383  -27.3547   16.4253 C   0  0  0  0  0  0
  -20.9782  -26.8558   19.1105 C   0  0  0  0  0  0
  -23.2558  -27.1932   26.5774 C   0  0  0  0  0  0
  -25.8804  -29.2677   28.9896 C   0  0  0  0  0  0
  -27.8407  -28.1689   27.9816 C   0  0  0  0  0  0
  -23.1970  -26.4562   21.6140 C   0  0  0  0  0  0
  -24.5109  -22.8547   20.3413 C   0  0  0  0  0  0
  -25.2724  -26.2722   25.2306 C   0  0  0  0  0  0
  -22.0925  -25.7869   19.1954 C   0  0  0  0  0  0
  -23.1685  -23.8088   20.2393 C   0  0  0  0  0  0
  -25.5953  -27.2166   27.6080 C   0  0  0  0  0  0
  -25.8390  -22.6880   19.3332 C   0  0  0  0  0  0
  -24.7722  -27.3050   26.2909 C   0  0  2  0  0  0
  -28.1195  -21.9443   20.2612 N   0  0  0  0  0  0
  -24.3471  -26.2086   24.1031 N   0  0  0  0  0  0
  -26.3919  -28.4455   27.8638 N   0  3  0  0  0  0
  -22.7683  -25.3352   20.4966 N   0  3  1  0  0  0
  -30.3520  -16.3777   18.8851 H   0  0  0  0  0  0
  -30.4138  -15.6477   20.3862 H   0  0  0  0  0  0
  -30.4004  -13.8953   18.5060 H   0  0  0  0  0  0
  -29.0650  -14.6600   17.7087 H   0  0  0  0  0  0
  -28.9437  -12.5917   19.9092 H   0  0  0  0  0  0
  -27.9806  -12.7144   18.4119 H   0  0  0  0  0  0
  -27.0570  -14.6793   19.0966 H   0  0  0  0  0  0
  -28.7050  -15.4374   21.6277 H   0  0  0  0  0  0
  -27.2365  -16.0947   21.3350 H   0  0  0  0  0  0
  -25.3410   -9.6054   22.4750 H   0  0  0  0  0  0
  -24.0414   -7.5177   22.7561 H   0  0  0  0  0  0
  -21.1549   -8.9282   19.8850 H   0  0  0  0  0  0
  -22.4589  -10.9999   19.5921 H   0  0  0  0  0  0
  -21.2238   -7.6316   23.9792 H   0  0  0  0  0  0
  -21.1546   -6.0587   25.9028 H   0  0  0  0  0  0
  -22.0501   -2.7784   23.2616 H   0  0  0  0  0  0
  -22.4403  -11.9327   22.5026 H   0  0  0  0  0  0
  -21.0790  -12.9944   22.2833 H   0  0  0  0  0  0
  -24.1898  -15.8975   20.5072 H   0  0  0  0  0  0
  -25.8503  -15.9520   20.1742 H   0  0  0  0  0  0
  -26.9303  -32.2947   23.0383 H   0  0  0  0  0  0
  -24.8924  -33.6788   24.7328 H   0  0  0  0  0  0
  -23.5813  -30.5386   20.6382 H   0  0  0  0  0  0
  -23.3739  -35.8561   23.2963 H   0  0  0  0  0  0
  -24.3561  -36.8485   22.2247 H   0  0  0  0  0  0
  -23.7297  -37.5229   23.7369 H   0  0  0  0  0  0
  -27.5726  -29.3240   22.1692 H   0  0  0  0  0  0
  -26.6358  -28.5388   23.4338 H   0  0  0  0  0  0
  -29.1452  -26.2606   22.0538 H   0  0  0  0  0  0
  -26.7103  -24.7179   17.6631 H   0  0  0  0  0  0
  -24.7366  -25.5149   18.1229 H   0  0  0  0  0  0
  -24.2615  -28.5308   18.8704 H   0  0  0  0  0  0
  -22.9516  -27.9787   19.5297 H   0  0  0  0  0  0
  -25.1567  -35.9851   25.0489 H   0  0  0  0  0  0
  -20.8726  -28.7497   24.1120 H   0  0  0  0  0  0
  -19.9291  -26.7685   23.9664 H   0  0  0  0  0  0
  -21.3414  -26.5146   23.3556 H   0  0  0  0  0  0
  -19.4185  -25.2736   22.3214 H   0  0  0  0  0  0
  -19.8334  -26.2288   21.0294 H   0  0  0  0  0  0
  -17.6398  -26.9692   21.1010 H   0  0  0  0  0  0
  -17.4360  -26.2032   22.6363 H   0  0  0  0  0  0
  -19.7257  -30.8360   24.2078 H   0  0  0  0  0  0
  -17.4272  -31.6896   24.5433 H   0  0  0  0  0  0
  -15.4678  -30.3257   23.8135 H   0  0  0  0  0  0
  -15.8191  -28.1356   22.7259 H   0  0  0  0  0  0
  -24.4193  -31.1749   25.6179 H   0  0  0  0  0  0
  -25.1267  -32.4507   26.6035 H   0  0  0  0  0  0
  -25.5791  -30.8092   26.8855 H   0  0  0  0  0  0
  -26.4651  -29.5613   25.0334 H   0  0  0  0  0  0
  -27.8911  -30.1417   25.7845 H   0  0  0  0  0  0
  -27.8424  -30.2890   24.0691 H   0  0  0  0  0  0
  -27.1945  -33.5868   25.9593 H   0  0  0  0  0  0
  -28.4608  -32.6900   25.1188 H   0  0  0  0  0  0
  -27.9112  -32.1880   26.7102 H   0  0  0  0  0  0
  -28.2049  -37.9752   24.7422 H   0  0  0  0  0  0
  -28.1203  -36.2205   24.6320 H   0  0  0  0  0  0
  -27.2125  -37.0765   25.8853 H   0  0  0  0  0  0
  -21.0373  -29.5651   21.2556 H   0  0  0  0  0  0
  -25.9568  -38.1566   24.1370 H   0  0  0  0  0  0
  -26.3336  -29.1890   19.7650 H   0  0  0  0  0  0
  -25.4300  -23.9235   23.0778 H   0  0  0  0  0  0
  -29.8561  -25.4033   16.3041 H   0  0  0  0  0  0
  -30.2797  -23.0932   18.9841 H   0  0  0  0  0  0
  -29.1285  -22.6407   17.8011 H   0  0  0  0  0  0
  -29.4621  -27.6423   15.5833 H   0  0  0  0  0  0
  -28.9718  -28.1074   17.1980 H   0  0  0  0  0  0
  -27.7924  -27.3325   16.1186 H   0  0  0  0  0  0
  -20.0113  -26.3797   19.0116 H   0  0  0  0  0  0
  -21.1044  -27.4369   18.1951 H   0  0  0  0  0  0
  -20.9315  -27.5836   19.9180 H   0  0  0  0  0  0
  -22.6580  -27.3944   25.6879 H   0  0  0  0  0  0
  -22.9429  -27.9375   27.3103 H   0  0  0  0  0  0
  -22.9817  -26.2062   26.9480 H   0  0  0  0  0  0
  -25.8389  -28.6978   29.9185 H   0  0  0  0  0  0
  -24.8789  -29.6438   28.7747 H   0  0  0  0  0  0
  -26.5204  -30.1349   29.1632 H   0  0  0  0  0  0
  -28.4123  -29.0911   28.0940 H   0  0  0  0  0  0
  -28.1998  -27.6583   27.0854 H   0  0  0  0  0  0
  -28.0438  -27.5276   28.8409 H   0  0  0  0  0  0
  -22.7936  -25.8035   22.3808 H   0  0  0  0  0  0
  -22.3775  -27.1140   21.4717 H   0  0  0  0  0  0
  -24.0547  -21.8829   20.1547 H   0  0  0  0  0  0
  -24.7562  -22.6416   21.3820 H   0  0  0  0  0  0
  -25.3740  -25.2847   25.6941 H   0  0  0  0  0  0
  -26.2699  -26.5652   24.8817 H   0  0  0  0  0  0
  -22.8361  -26.0763   18.4706 H   0  0  0  0  0  0
  -21.5948  -24.9472   18.7161 H   0  0  0  0  0  0
  -22.3827  -23.2623   20.7746 H   0  0  0  0  0  0
  -22.9730  -23.5855   19.1835 H   0  0  0  0  0  0
  -26.2586  -26.3506   27.5705 H   0  0  0  0  0  0
  -24.9473  -27.0136   28.4618 H   0  0  0  0  0  0
  -25.3681  -22.6984   18.3404 H   0  0  0  0  0  0
  -26.0914  -21.6259   19.3377 H   0  0  0  0  0  0
  -24.8951  -28.3063   25.8771 H   0  0  0  0  0  0
  -23.7308  -27.0204   24.1883 H   0  0  0  0  0  0
  -26.2870  -29.0124   27.0358 H   0  0  0  0  0  0
  -21.9330  -25.0664   21.0059 H   0  0  0  0  0  0
  1 25  1  0  0  0
  1 30  2  0  0  0
  1 93  1  0  0  0
  2  3  1  0  0  0
  2 25  1  0  0  0
  2 97  1  0  0  0
  2 98  1  0  0  0
  3  4  1  0  0  0
  3 99  1  0  0  0
  3100  1  0  0  0
  4  5  1  0  0  0
  4101  1  0  0  0
  4102  1  0  0  0
  5  6  1  0  0  0
  5 26  1  0  0  0
  5103  1  0  0  0
  6 25  1  0  0  0
  6104  1  0  0  0
  6105  1  0  0  0
  7  8  2  0  0  0
  7 26  1  0  0  0
  7 29  1  0  0  0
  8  9  1  0  0  0
  8 22  1  0  0  0
  9 10  1  0  0  0
  9 27  2  0  0  0
 10 11  2  0  0  0
 10 15  1  0  0  0
 11 12  1  0  0  0
 11106  1  0  0  0
 12 13  2  0  0  0
 12107  1  0  0  0
 13 14  1  0  0  0
 13 31  1  0  0  0
 14 15  2  0  0  0
 14108  1  0  0  0
 15109  1  0  0  0
 16 17  2  0  0  0
 16 21  1  0  0  0
 16 31  1  0  0  0
 17 18  1  0  0  0
 17110  1  0  0  0
 18 19  2  0  0  0
 18111  1  0  0  0
 19 20  1  0  0  0
 19 24  1  0  0  0
 20 21  2  0  0  0
 20112  1  0  0  0
 21 23  1  0  0  0
 22 28  1  0  0  0
 22 32  2  0  0  0
 26 27  1  0  0  0
 28113  1  0  0  0
 28114  1  0  0  0
 29115  1  0  0  0
 29116  1  0  0  0
 33 34  1  0  0  0
 33 66  1  0  0  0
 33 70  2  0  0  0
 34 36  1  0  0  0
 34 59  1  0  0  0
 34117  1  0  0  0
 35 44  2  0  0  0
 35 45  1  0  0  0
 35 68  1  0  0  0
 36 56  1  0  0  0
 36118  1  0  0  0
 37 39  1  0  0  0
 37 47  1  0  0  0
 37 66  1  0  0  0
 37119  1  0  0  0
 38 43  2  0  0  0
 38 46  1  0  0  0
 38 47  1  0  0  0
 39 64  1  0  0  0
 39 67  2  0  0  0
 40 52  1  0  0  0
 40 53  2  0  0  0
 40 58  1  0  0  0
 41120  1  0  0  0
 41121  1  0  0  0
 41122  1  0  0  0
 41 48  1  0  0  0
 42 43  1  0  0  0
 42 66  1  0  0  0
 42123  1  0  0  0
 42124  1  0  0  0
 43 44  1  0  0  0
 44125  1  0  0  0
 45 46  2  0  0  0
 45126  1  0  0  0
 46127  1  0  0  0
 47128  1  0  0  0
 47129  1  0  0  0
 48 56  1  0  0  0
 48 65  1  0  0  0
 48130  1  0  0  0
 49 50  1  0  0  0
 49 53  1  0  0  0
 49 64  1  0  0  0
 49131  1  0  0  0
 50 51  1  0  0  0
 50132  1  0  0  0
 50133  1  0  0  0
 51 52  1  0  0  0
 51134  1  0  0  0
 51135  1  0  0  0
 52136  1  0  0  0
 52137  1  0  0  0
 53 54  1  0  0  0
 54 55  2  0  0  0
 54138  1  0  0  0
 55 57  1  0  0  0
 55139  1  0  0  0
 56 69  2  0  0  0
 57 58  2  0  0  0
 57140  1  0  0  0
 58141  1  0  0  0
 59 60  1  0  0  0
 59 61  1  0  0  0
 59 62  1  0  0  0
 60142  1  0  0  0
 60143  1  0  0  0
 60144  1  0  0  0
 61145  1  0  0  0
 61146  1  0  0  0
 61147  1  0  0  0
 62148  1  0  0  0
 62149  1  0  0  0
 62150  1  0  0  0
 63 65  1  0  0  0
 63151  1  0  0  0
 63152  1  0  0  0
 63153  1  0  0  0
 64154  1  0  0  0
 65155  1  0  0  0
 68 91  1  0  0  0
 71 73  2  0  0  0
 71 74  1  0  0  0
 71156  1  0  0  0
 72 75  2  0  0  0
 72 76  1  0  0  0
 72157  1  0  0  0
 73 75  1  0  0  0
 73 77  1  0  0  0
 74 76  2  0  0  0
 74 85  1  0  0  0
 75 93  1  0  0  0
 76 94  1  0  0  0
 77 78  2  0  0  0
 77 79  1  0  0  0
 78 80  1  0  0  0
 78158  1  0  0  0
 79 93  1  0  0  0
 79159  1  0  0  0
 79160  1  0  0  0
 80161  1  0  0  0
 80162  1  0  0  0
 80163  1  0  0  0
 81 88  1  0  0  0
 81164  1  0  0  0
 81165  1  0  0  0
 81166  1  0  0  0
 82167  1  0  0  0
 82168  1  0  0  0
 82169  1  0  0  0
 82 92  1  0  0  0
 83170  1  0  0  0
 83171  1  0  0  0
 83172  1  0  0  0
 83 95  1  0  0  0
 84 95  1  0  0  0
 84173  1  0  0  0
 84174  1  0  0  0
 84175  1  0  0  0
 85176  1  0  0  0
 85177  1  0  0  0
 85 96  1  0  0  0
 86 89  1  0  0  0
 86 91  1  0  0  0
 86178  1  0  0  0
 86179  1  0  0  0
 87 92  1  0  0  0
 87 94  1  0  0  0
 87180  1  0  0  0
 87181  1  0  0  0
 88 96  1  0  0  0
 88182  1  0  0  0
 88183  1  0  0  0
 89 96  1  0  0  0
 89184  1  0  0  0
 89185  1  0  0  0
 90 92  1  0  0  0
 90 95  1  0  0  0
 90186  1  0  0  0
 90187  1  0  0  0
 91188  1  0  0  0
 91189  1  0  0  0
 92190  1  0  0  0
 94191  1  0  0  0
 95192  1  0  0  0
 96193  1  0  0  0
M  CHG  2  95   1  96   1
M  ISO  4   1 100  68 101  91 101  93 100
M  END
> <chiral flag>
0

> <version>
0

> <s_m_source_file>
/data/baiqing/PycharmProjects/Reinvent-master-3.2/result/LINK_invent/BTK/process_docking_weight1_custom_product_contain_oxygen_bond_distance_aromatic_linkinvent_7_9_3/rearranged_h_0025.sdf

> <i_m_source_file_index>
65

> <r_mmod_Potential_Energy-OPLS-2005>
52761.265625

> <r_mmod_Stretch_Energy-OPLS-2005>
25589.712890625

> <r_mmod_Bend_Energy-OPLS-2005>
3384.53515625

> <r_mmod_Torsional_Energy-OPLS-2005>
725.834899902344

> <r_mmod_Improper_Torsional_Energy-OPLS-2005>
97.5098190307617

> <r_mmod_Van_der_Waal_Energy-OPLS-2005>
6899.75390625

> <r_mmod_Electrostatic_Energy-OPLS-2005>
52.7726402282715

> <r_mmod_Solvation_Energy-OPLS-2005>
-843.95654296875

> <b_mmod_Minimization_Converged-OPLS-2005>
0

> <r_mmod_RMS_Derivative-OPLS-2005>
18.973705291748

$$$$
65
                    3D
 Structure written by MMmdl.
169177  0  0  1  0            999 V2000
  -30.7654  -14.5209   20.5523 C   0  0  0  0  0  0
  -30.4094  -12.3404   19.4302 C   0  0  0  0  0  0
  -29.4864  -12.4848   18.2060 C   0  0  0  0  0  0
  -28.0100  -12.3373   18.6214 C   0  0  0  0  0  0
  -27.6405  -13.1977   19.8586 C   0  0  2  0  0  0
  -28.7027  -13.0850   20.9801 C   0  0  0  0  0  0
  -25.2429  -13.7908   20.5622 C   0  0  0  0  0  0
  -24.1736  -13.0208   20.9168 C   0  0  0  0  0  0
  -24.6368  -11.6725   20.8765 C   0  0  0  0  0  0
  -23.9061  -10.4141   21.0391 C   0  0  0  0  0  0
  -24.3604   -9.4091   21.9194 C   0  0  0  0  0  0
  -23.6232   -8.2162   22.0790 C   0  0  0  0  0  0
  -22.4228   -8.0227   21.3549 C   0  0  0  0  0  0
  -21.9858   -9.0217   20.4668 C   0  0  0  0  0  0
  -22.7220  -10.2055   20.3056 C   0  0  0  0  0  0
  -21.6813   -6.0708   22.5281 C   0  0  0  0  0  0
  -21.4005   -6.5628   23.8208 C   0  0  0  0  0  0
  -21.3643   -5.6793   24.9165 C   0  0  0  0  0  0
  -21.6033   -4.3049   24.7221 C   0  0  0  0  0  0
  -21.8823   -3.8133   23.4353 C   0  0  0  0  0  0
  -21.9173   -4.6943   22.3404 C   0  0  0  0  0  0
  -22.7778  -13.5100   21.1807 C   0  0  0  0  0  0
  -22.1640   -4.2119   21.0968 F   0  0  0  0  0  0
  -21.5595   -3.4534   25.7738 F   0  0  0  0  0  0
  -30.0188  -13.3836   20.3946 N   0  0  0  0  0  0
  -26.2942  -12.9153   20.3385 N   0  0  0  0  0  0
  -25.9322  -11.6320   20.5875 N   0  0  0  0  0  0
  -22.0391  -12.8183   22.0387 N   0  0  0  0  0  0
  -25.3787  -15.1543   20.3901 N   0  0  0  0  0  0
  -31.9367  -14.5728   20.1717 O   0  0  0  0  0  0
  -21.6583   -6.8839   21.4248 O   0  0  0  0  0  0
  -22.3509  -14.5452   20.6688 O   0  0  0  0  0  0
  -24.6149  -31.8680   23.2108 C   0  0  0  0  0  0
  -25.9036  -32.4828   23.8415 C   0  0  1  0  0  0
  -27.2604  -27.4380   20.1216 C   0  0  0  0  0  0
  -25.5881  -33.8626   24.2342 N   0  0  0  0  0  0
  -23.4072  -30.4869   21.5499 C   0  0  2  0  0  0
  -24.8641  -28.9495   20.1215 C   0  0  0  0  0  0
  -22.7438  -29.4641   22.5000 C   0  0  0  0  0  0
  -18.0280  -28.1385   22.8504 C   0  0  0  0  0  0
  -24.1477  -36.7322   23.2642 C   0  0  0  0  0  0
  -25.9348  -30.8342   21.3680 C   0  0  0  0  0  0
  -26.0173  -29.4636   20.7273 C   0  0  0  0  0  0
  -27.2168  -28.7156   20.7310 C   0  0  0  0  0  0
  -26.0946  -26.9441   19.5004 C   0  0  0  0  0  0
  -24.8959  -27.6865   19.5036 C   0  0  0  0  0  0
  -23.6204  -29.8115   20.1667 C   0  0  0  0  0  0
  -25.4099  -36.3121   24.0347 C   0  0  1  0  0  0
  -20.5871  -28.3662   23.1328 C   0  0  2  0  0  0
  -20.6760  -26.9394   22.5425 C   0  0  0  0  0  0
  -19.5728  -26.6383   21.5231 C   0  0  0  0  0  0
  -18.1912  -26.7935   22.1636 C   0  0  0  0  0  0
  -19.1526  -28.8841   23.2918 C   0  0  0  0  0  0
  -18.9449  -30.1455   23.8921 C   0  0  0  0  0  0
  -17.6445  -30.6588   24.0565 C   0  0  0  0  0  0
  -25.9016  -34.9486   23.5144 C   0  0  0  0  0  0
  -16.5343  -29.9083   23.6325 C   0  0  0  0  0  0
  -16.7267  -28.6501   23.0349 C   0  0  0  0  0  0
  -26.4475  -31.6608   25.0742 C   0  0  0  0  0  0
  -25.3741  -31.3700   26.1485 C   0  0  0  0  0  0
  -27.0304  -30.3052   24.6108 C   0  0  0  0  0  0
  -27.6047  -32.4345   25.7501 C   0  0  0  0  0  0
  -27.5587  -37.1812   24.8467 C   0  0  0  0  0  0
  -21.4163  -29.3022   22.3735 N   0  0  0  0  0  0
  -26.4291  -37.3800   23.9419 N   0  0  0  0  0  0
  -24.6699  -31.0780   22.1017 N   0  0  0  0  0  0
  -23.4199  -28.8187   23.3055 O   0  0  0  0  0  0
  -28.4026  -26.6654   20.0545 O   0  0  0  0  0  0
  -26.5588  -34.8931   22.4709 O   0  0  0  0  0  0
  -23.5338  -32.1427   23.7497 O   0  0  0  0  0  0
  -27.0444  -17.5868   19.9973 C   0  0  0  0  0  0
  -27.1576  -17.6184   18.5962 C   0  0  0  0  0  0
  -29.1689  -16.2570   18.7341 C   0  0  0  0  0  0
  -27.9641  -16.8551   20.7788 C   0  0  0  0  0  0
  -29.0627  -16.2092   20.1481 C   0  0  0  0  0  0
  -28.2125  -16.9402   17.9618 C   0  0  0  0  0  0
  -30.1760  -24.0094   21.4223 C   0  0  0  0  0  0
  -27.7638  -16.8189   22.2852 C   0  0  0  0  0  0
  -29.0149  -24.9676   21.7656 C   0  0  0  0  0  0
  -31.5667  -19.3244   21.8036 C   0  0  0  0  0  0
  -30.7249  -20.6241   21.6780 C   0  0  0  0  0  0
  -30.9166  -18.1563   21.0220 C   0  0  0  0  0  0
  -31.3892  -21.9197   22.1915 C   0  0  0  0  0  0
  -30.9268  -16.7282   21.6724 C   0  0  0  0  0  0
  -29.1368  -26.4365   21.2684 C   0  0  0  0  0  0
  -30.4058  -23.0080   22.2919 N   0  0  0  0  0  0
  -30.1484  -15.6869   20.9223 N   0  0  0  0  0  0
  -30.8435  -24.1569   20.3975 O   0  0  0  0  0  0
  -28.3536  -16.9670   16.2430 Cl  0  0  0  0  0  0
  -31.4522  -12.4208   19.1212 H   0  0  0  0  0  0
  -30.3065  -11.3514   19.8833 H   0  0  0  0  0  0
  -29.7351  -11.7326   17.4582 H   0  0  0  0  0  0
  -29.6492  -13.4522   17.7287 H   0  0  0  0  0  0
  -27.8266  -11.2824   18.8320 H   0  0  0  0  0  0
  -27.3662  -12.5922   17.7798 H   0  0  0  0  0  0
  -27.6205  -14.2187   19.4981 H   0  0  0  0  0  0
  -28.7015  -12.0810   21.4083 H   0  0  0  0  0  0
  -28.4728  -13.7629   21.8032 H   0  0  0  0  0  0
  -25.2755   -9.5533   22.4750 H   0  0  0  0  0  0
  -23.9866   -7.4577   22.7569 H   0  0  0  0  0  0
  -21.0761   -8.8796   19.9027 H   0  0  0  0  0  0
  -22.3730  -10.9604   19.6154 H   0  0  0  0  0  0
  -21.2058   -7.6150   23.9695 H   0  0  0  0  0  0
  -21.1440   -6.0528   25.9066 H   0  0  0  0  0  0
  -22.0639   -2.7596   23.2876 H   0  0  0  0  0  0
  -22.3988  -11.9899   22.4870 H   0  0  0  0  0  0
  -21.1069  -13.1348   22.2634 H   0  0  0  0  0  0
  -24.5882  -15.7804   20.4884 H   0  0  0  0  0  0
  -26.2362  -15.6285   20.1285 H   0  0  0  0  0  0
  -26.7123  -32.5560   23.1201 H   0  0  0  0  0  0
  -25.0031  -33.9783   25.0488 H   0  0  0  0  0  0
  -22.6965  -31.3031   21.4054 H   0  0  0  0  0  0
  -23.3738  -35.9653   23.3308 H   0  0  0  0  0  0
  -24.3578  -36.8930   22.2056 H   0  0  0  0  0  0
  -23.7225  -37.6529   23.6647 H   0  0  0  0  0  0
  -26.0437  -31.5929   20.5916 H   0  0  0  0  0  0
  -26.8241  -30.8962   21.9843 H   0  0  0  0  0  0
  -28.1074  -29.1238   21.1884 H   0  0  0  0  0  0
  -26.1158  -25.9754   19.0231 H   0  0  0  0  0  0
  -24.0136  -27.2846   19.0257 H   0  0  0  0  0  0
  -23.7246  -30.5824   19.4020 H   0  0  0  0  0  0
  -22.7479  -29.2238   19.8747 H   0  0  0  0  0  0
  -25.1277  -36.1998   25.0841 H   0  0  0  0  0  0
  -20.9975  -28.3222   24.1444 H   0  0  0  0  0  0
  -20.5671  -26.2273   23.3613 H   0  0  0  0  0  0
  -21.6626  -26.7427   22.1206 H   0  0  0  0  0  0
  -19.6876  -25.6298   21.1250 H   0  0  0  0  0  0
  -19.6674  -27.3209   20.6773 H   0  0  0  0  0  0
  -17.4190  -26.6721   21.4030 H   0  0  0  0  0  0
  -18.0286  -26.0075   22.9022 H   0  0  0  0  0  0
  -19.7916  -30.7276   24.2306 H   0  0  0  0  0  0
  -17.4984  -31.6267   24.5164 H   0  0  0  0  0  0
  -15.5338  -30.2977   23.7631 H   0  0  0  0  0  0
  -15.8675  -28.0818   22.7044 H   0  0  0  0  0  0
  -24.5892  -30.7087   25.7814 H   0  0  0  0  0  0
  -24.8949  -32.2839   26.4994 H   0  0  0  0  0  0
  -25.8074  -30.8814   27.0214 H   0  0  0  0  0  0
  -26.2841  -29.6828   24.1152 H   0  0  0  0  0  0
  -27.4073  -29.7284   25.4566 H   0  0  0  0  0  0
  -27.8684  -30.4395   23.9261 H   0  0  0  0  0  0
  -27.2657  -33.3635   26.2102 H   0  0  0  0  0  0
  -28.3824  -32.6930   25.0305 H   0  0  0  0  0  0
  -28.0747  -31.8461   26.5392 H   0  0  0  0  0  0
  -28.2599  -38.0112   24.7511 H   0  0  0  0  0  0
  -28.1076  -36.2642   24.6281 H   0  0  0  0  0  0
  -27.2301  -37.1461   25.8866 H   0  0  0  0  0  0
  -20.9348  -29.8746   21.6939 H   0  0  0  0  0  0
  -26.0188  -38.2884   24.1399 H   0  0  0  0  0  0
  -26.2255  -18.1085   20.4756 H   0  0  0  0  0  0
  -26.4310  -18.1599   18.0085 H   0  0  0  0  0  0
  -30.0064  -15.8020   18.2248 H   0  0  0  0  0  0
  -28.1558  -15.8987   22.7157 H   0  0  0  0  0  0
  -26.7042  -16.8705   22.5379 H   0  0  0  0  0  0
  -28.2617  -17.6645   22.7568 H   0  0  0  0  0  0
  -28.9323  -24.9913   22.8524 H   0  0  0  0  0  0
  -28.0829  -24.5285   21.4096 H   0  0  0  0  0  0
  -31.6733  -19.0641   22.8570 H   0  0  0  0  0  0
  -32.5743  -19.4957   21.4225 H   0  0  0  0  0  0
  -29.7801  -20.4763   22.2055 H   0  0  0  0  0  0
  -30.4578  -20.7816   20.6320 H   0  0  0  0  0  0
  -31.3630  -18.1055   20.0260 H   0  0  0  0  0  0
  -29.8905  -18.4723   20.8544 H   0  0  0  0  0  0
  -32.2248  -22.2001   21.5449 H   0  0  0  0  0  0
  -31.8107  -21.7509   23.1836 H   0  0  0  0  0  0
  -30.5068  -16.7899   22.6748 H   0  0  0  0  0  0
  -31.9636  -16.4260   21.8258 H   0  0  0  0  0  0
  -30.1804  -26.6977   21.0925 H   0  0  0  0  0  0
  -28.8061  -27.0969   22.0716 H   0  0  0  0  0  0
  -29.8118  -22.9845   23.1100 H   0  0  0  0  0  0
  1 25  1  0  0  0
  1 30  2  0  0  0
  1 87  1  0  0  0
  2  3  1  0  0  0
  2 25  1  0  0  0
  2 90  1  0  0  0
  2 91  1  0  0  0
  3  4  1  0  0  0
  3 92  1  0  0  0
  3 93  1  0  0  0
  4  5  1  0  0  0
  4 94  1  0  0  0
  4 95  1  0  0  0
  5  6  1  0  0  0
  5 26  1  0  0  0
  5 96  1  0  0  0
  6 25  1  0  0  0
  6 97  1  0  0  0
  6 98  1  0  0  0
  7  8  2  0  0  0
  7 26  1  0  0  0
  7 29  1  0  0  0
  8  9  1  0  0  0
  8 22  1  0  0  0
  9 10  1  0  0  0
  9 27  2  0  0  0
 10 11  2  0  0  0
 10 15  1  0  0  0
 11 12  1  0  0  0
 11 99  1  0  0  0
 12 13  2  0  0  0
 12100  1  0  0  0
 13 14  1  0  0  0
 13 31  1  0  0  0
 14 15  2  0  0  0
 14101  1  0  0  0
 15102  1  0  0  0
 16 17  2  0  0  0
 16 21  1  0  0  0
 16 31  1  0  0  0
 17 18  1  0  0  0
 17103  1  0  0  0
 18 19  2  0  0  0
 18104  1  0  0  0
 19 20  1  0  0  0
 19 24  1  0  0  0
 20 21  2  0  0  0
 20105  1  0  0  0
 21 23  1  0  0  0
 22 28  1  0  0  0
 22 32  2  0  0  0
 26 27  1  0  0  0
 28106  1  0  0  0
 28107  1  0  0  0
 29108  1  0  0  0
 29109  1  0  0  0
 33 34  1  0  0  0
 33 66  1  0  0  0
 33 70  2  0  0  0
 34 36  1  0  0  0
 34 59  1  0  0  0
 34110  1  0  0  0
 35 44  2  0  0  0
 35 45  1  0  0  0
 35 68  1  0  0  0
 36 56  1  0  0  0
 36111  1  0  0  0
 37 39  1  0  0  0
 37 47  1  0  0  0
 37 66  1  0  0  0
 37112  1  0  0  0
 38 43  2  0  0  0
 38 46  1  0  0  0
 38 47  1  0  0  0
 39 64  1  0  0  0
 39 67  2  0  0  0
 40 52  1  0  0  0
 40 53  2  0  0  0
 40 58  1  0  0  0
 41113  1  0  0  0
 41114  1  0  0  0
 41115  1  0  0  0
 41 48  1  0  0  0
 42 43  1  0  0  0
 42 66  1  0  0  0
 42116  1  0  0  0
 42117  1  0  0  0
 43 44  1  0  0  0
 44118  1  0  0  0
 45 46  2  0  0  0
 45119  1  0  0  0
 46120  1  0  0  0
 47121  1  0  0  0
 47122  1  0  0  0
 48 56  1  0  0  0
 48 65  1  0  0  0
 48123  1  0  0  0
 49 50  1  0  0  0
 49 53  1  0  0  0
 49 64  1  0  0  0
 49124  1  0  0  0
 50 51  1  0  0  0
 50125  1  0  0  0
 50126  1  0  0  0
 51 52  1  0  0  0
 51127  1  0  0  0
 51128  1  0  0  0
 52129  1  0  0  0
 52130  1  0  0  0
 53 54  1  0  0  0
 54 55  2  0  0  0
 54131  1  0  0  0
 55 57  1  0  0  0
 55132  1  0  0  0
 56 69  2  0  0  0
 57 58  2  0  0  0
 57133  1  0  0  0
 58134  1  0  0  0
 59 60  1  0  0  0
 59 61  1  0  0  0
 59 62  1  0  0  0
 60135  1  0  0  0
 60136  1  0  0  0
 60137  1  0  0  0
 61138  1  0  0  0
 61139  1  0  0  0
 61140  1  0  0  0
 62141  1  0  0  0
 62142  1  0  0  0
 62143  1  0  0  0
 63 65  1  0  0  0
 63144  1  0  0  0
 63145  1  0  0  0
 63146  1  0  0  0
 64147  1  0  0  0
 65148  1  0  0  0
 68 85  1  0  0  0
 71 72  2  0  0  0
 71 74  1  0  0  0
 71149  1  0  0  0
 72 76  1  0  0  0
 72150  1  0  0  0
 73 75  1  0  0  0
 73 76  2  0  0  0
 73151  1  0  0  0
 74 75  2  0  0  0
 74 78  1  0  0  0
 75 87  1  0  0  0
 76 89  1  0  0  0
 77 79  1  0  0  0
 77 86  1  0  0  0
 77 88  2  0  0  0
 78152  1  0  0  0
 78153  1  0  0  0
 78154  1  0  0  0
 79 85  1  0  0  0
 79155  1  0  0  0
 79156  1  0  0  0
 80 81  1  0  0  0
 80 82  1  0  0  0
 80157  1  0  0  0
 80158  1  0  0  0
 81 83  1  0  0  0
 81159  1  0  0  0
 81160  1  0  0  0
 82 84  1  0  0  0
 82161  1  0  0  0
 82162  1  0  0  0
 83 86  1  0  0  0
 83163  1  0  0  0
 83164  1  0  0  0
 84 87  1  0  0  0
 84165  1  0  0  0
 84166  1  0  0  0
 85167  1  0  0  0
 85168  1  0  0  0
 86169  1  0  0  0
M  ISO  4   1 100  68 101  85 101  87 100
M  END
> <chiral flag>
0

> <version>
0

> <s_m_source_file>
/data/baiqing/PycharmProjects/Reinvent-master-3.2/result/LINK_invent/BTK/process_docking_weight1_custom_product_contain_oxygen_bond_distance_aromatic_linkinvent_7_9_3/rearranged_h_0025.sdf

> <i_m_source_file_index>
66

> <r_mmod_Potential_Energy-OPLS-2005>
94.3509521484375

> <r_mmod_Stretch_Energy-OPLS-2005>
46.8497657775879

> <r_mmod_Bend_Energy-OPLS-2005>
117.551139831543

> <r_mmod_Torsional_Energy-OPLS-2005>
289.450469970703

> <r_mmod_Improper_Torsional_Energy-OPLS-2005>
7.51434707641602

> <r_mmod_Van_der_Waal_Energy-OPLS-2005>
159.1044921875

> <r_mmod_Electrostatic_Energy-OPLS-2005>
-330.215728759766

> <r_mmod_Solvation_Energy-OPLS-2005>
-219.514190673828

> <b_mmod_Minimization_Converged-OPLS-2005>
0

> <r_mmod_RMS_Derivative-OPLS-2005>
3.41350173950195

$$$$
66
                    3D
 Structure written by MMmdl.
156165  0  0  1  0            999 V2000
  -30.6357  -14.6415   20.5172 C   0  0  0  0  0  0
  -30.4404  -12.3978   19.4560 C   0  0  0  0  0  0
  -29.5092  -12.5129   18.2282 C   0  0  0  0  0  0
  -28.0325  -12.3487   18.6400 C   0  0  0  0  0  0
  -27.6549  -13.2192   19.8681 C   0  0  2  0  0  0
  -28.7008  -13.0749   20.9978 C   0  0  0  0  0  0
  -25.2506  -13.8125   20.5595 C   0  0  0  0  0  0
  -24.1800  -13.0398   20.9156 C   0  0  0  0  0  0
  -24.6401  -11.6885   20.8745 C   0  0  0  0  0  0
  -23.9071  -10.4273   21.0409 C   0  0  0  0  0  0
  -24.3618   -9.4192   21.9189 C   0  0  0  0  0  0
  -23.6288   -8.2232   22.0758 C   0  0  0  0  0  0
  -22.4270   -8.0274   21.3546 C   0  0  0  0  0  0
  -21.9907   -9.0249   20.4649 C   0  0  0  0  0  0
  -22.7243  -10.2123   20.3057 C   0  0  0  0  0  0
  -21.6850   -6.0730   22.5278 C   0  0  0  0  0  0
  -21.4012   -6.5635   23.8211 C   0  0  0  0  0  0
  -21.3659   -5.6789   24.9175 C   0  0  0  0  0  0
  -21.6045   -4.3052   24.7226 C   0  0  0  0  0  0
  -21.8820   -3.8143   23.4348 C   0  0  0  0  0  0
  -21.9192   -4.6958   22.3403 C   0  0  0  0  0  0
  -22.7827  -13.5199   21.1835 C   0  0  0  0  0  0
  -22.1661   -4.2144   21.0981 F   0  0  0  0  0  0
  -21.5630   -3.4537   25.7740 F   0  0  0  0  0  0
  -30.0194  -13.4180   20.4380 N   0  0  0  0  0  0
  -26.2996  -12.9349   20.3348 N   0  0  0  0  0  0
  -25.9345  -11.6501   20.5804 N   0  0  0  0  0  0
  -22.0482  -12.8203   22.0412 N   0  0  0  0  0  0
  -25.4092  -15.1816   20.3864 N   0  0  0  0  0  0
  -31.7867  -14.8068   20.1044 O   0  0  0  0  0  0
  -21.6634   -6.8873   21.4241 O   0  0  0  0  0  0
  -22.3505  -14.5508   20.6697 O   0  0  0  0  0  0
  -24.6272  -31.8608   23.2041 C   0  0  0  0  0  0
  -25.9118  -32.4785   23.8365 C   0  0  1  0  0  0
  -27.2232  -27.3168   20.1102 C   0  0  0  0  0  0
  -25.5930  -33.8585   24.2289 N   0  0  0  0  0  0
  -23.4203  -30.4871   21.5477 C   0  0  2  0  0  0
  -24.8656  -28.9470   20.1134 C   0  0  0  0  0  0
  -22.7479  -29.4634   22.4939 C   0  0  0  0  0  0
  -18.0288  -28.1385   22.8486 C   0  0  0  0  0  0
  -24.1490  -36.7298   23.2637 C   0  0  0  0  0  0
  -25.9641  -30.7916   21.3762 C   0  0  0  0  0  0
  -26.0381  -29.4204   20.7155 C   0  0  0  0  0  0
  -27.2203  -28.6190   20.7026 C   0  0  0  0  0  0
  -26.0194  -26.9019   19.4883 C   0  0  0  0  0  0
  -24.8587  -27.6928   19.4918 C   0  0  0  0  0  0
  -23.6349  -29.8272   20.1622 C   0  0  0  0  0  0
  -25.4113  -36.3087   24.0328 C   0  0  1  0  0  0
  -20.5890  -28.3691   23.1279 C   0  0  2  0  0  0
  -20.6780  -26.9414   22.5407 C   0  0  0  0  0  0
  -19.5753  -26.6386   21.5211 C   0  0  0  0  0  0
  -18.1934  -26.7929   22.1626 C   0  0  0  0  0  0
  -19.1541  -28.8855   23.2879 C   0  0  0  0  0  0
  -18.9464  -30.1457   23.8896 C   0  0  0  0  0  0
  -17.6463  -30.6587   24.0564 C   0  0  0  0  0  0
  -25.9051  -34.9455   23.5107 C   0  0  0  0  0  0
  -16.5354  -29.9086   23.6331 C   0  0  0  0  0  0
  -16.7275  -28.6504   23.0350 C   0  0  0  0  0  0
  -26.4497  -31.6591   25.0733 C   0  0  0  0  0  0
  -25.3729  -31.3731   26.1458 C   0  0  0  0  0  0
  -27.0338  -30.3012   24.6189 C   0  0  0  0  0  0
  -27.6055  -32.4324   25.7506 C   0  0  0  0  0  0
  -27.5579  -37.1805   24.8464 C   0  0  0  0  0  0
  -21.4193  -29.3048   22.3677 N   0  0  0  0  0  0
  -26.4291  -37.3780   23.9406 N   0  0  0  0  0  0
  -24.6896  -31.0624   22.0993 N   0  0  0  0  0  0
  -23.4203  -28.8164   23.3011 O   0  0  0  0  0  0
  -28.3402  -26.4587   20.1488 O   0  0  0  0  0  0
  -26.5618  -34.8920   22.4673 O   0  0  0  0  0  0
  -23.5434  -32.1404   23.7367 O   0  0  0  0  0  0
  -31.0225  -17.8832   20.2892 C   0  0  0  0  0  0
  -29.8490  -20.0843   20.5538 C   0  0  0  0  0  0
  -29.9250  -17.1424   20.8043 C   0  0  0  0  0  0
  -30.9898  -19.3089   20.1838 C   0  0  0  0  0  0
  -28.7546  -19.3415   21.0756 C   0  0  0  0  0  0
  -28.8050  -17.9198   21.2152 C   0  0  0  0  0  0
  -30.0367  -23.7313   21.4247 C   0  0  0  0  0  0
  -30.6973  -22.3282   21.3135 C   0  0  0  0  0  0
  -28.7384  -22.3927   19.9823 C   0  0  0  0  0  0
  -29.2115  -23.8880   20.1412 C   0  0  1  0  0  0
  -28.0714  -24.9991   20.1016 C   0  0  0  0  0  0
  -29.8511  -21.5261   20.4315 N   0  0  0  0  0  0
  -29.8516  -15.6796   20.9438 N   0  0  0  0  0  0
  -32.0862  -19.9411   19.6954 F   0  0  0  0  0  0
  -27.6402  -19.9990   21.4876 F   0  0  0  0  0  0
  -27.4557  -17.1159   21.9368 Cl  0  0  0  0  0  0
  -31.4813  -12.5221   19.1524 H   0  0  0  0  0  0
  -30.3760  -11.4015   19.8964 H   0  0  0  0  0  0
  -29.7738  -11.7624   17.4822 H   0  0  0  0  0  0
  -29.6503  -13.4830   17.7490 H   0  0  0  0  0  0
  -27.8708  -11.2954   18.8720 H   0  0  0  0  0  0
  -27.3775  -12.5777   17.7986 H   0  0  0  0  0  0
  -27.6721  -14.2553   19.5294 H   0  0  0  0  0  0
  -28.7120  -12.0530   21.3797 H   0  0  0  0  0  0
  -28.4424  -13.7045   21.8505 H   0  0  0  0  0  0
  -25.2762   -9.5666   22.4764 H   0  0  0  0  0  0
  -23.9993   -7.4621   22.7477 H   0  0  0  0  0  0
  -21.0839   -8.8773   19.8953 H   0  0  0  0  0  0
  -22.3707  -10.9664   19.6166 H   0  0  0  0  0  0
  -21.2002   -7.6143   23.9714 H   0  0  0  0  0  0
  -21.1481   -6.0518   25.9077 H   0  0  0  0  0  0
  -22.0599   -2.7605   23.2851 H   0  0  0  0  0  0
  -22.4100  -11.9866   22.4801 H   0  0  0  0  0  0
  -21.1109  -13.1243   22.2637 H   0  0  0  0  0  0
  -24.6476  -15.8336   20.5339 H   0  0  0  0  0  0
  -26.2795  -15.6406   20.1534 H   0  0  0  0  0  0
  -26.7187  -32.5455   23.1116 H   0  0  0  0  0  0
  -25.0072  -33.9733   25.0429 H   0  0  0  0  0  0
  -22.7141  -31.3080   21.4070 H   0  0  0  0  0  0
  -23.3748  -35.9635   23.3305 H   0  0  0  0  0  0
  -24.3581  -36.8914   22.2051 H   0  0  0  0  0  0
  -23.7249  -37.6504   23.6657 H   0  0  0  0  0  0
  -26.0972  -31.5566   20.6099 H   0  0  0  0  0  0
  -26.8440  -30.8378   22.0062 H   0  0  0  0  0  0
  -28.1197  -28.9801   21.1815 H   0  0  0  0  0  0
  -25.9251  -25.9519   18.9888 H   0  0  0  0  0  0
  -23.9605  -27.3241   19.0157 H   0  0  0  0  0  0
  -23.7559  -30.6058   19.4081 H   0  0  0  0  0  0
  -22.7543  -29.2587   19.8574 H   0  0  0  0  0  0
  -25.1294  -36.1941   25.0821 H   0  0  0  0  0  0
  -20.9982  -28.3266   24.1399 H   0  0  0  0  0  0
  -20.5686  -26.2300   23.3606 H   0  0  0  0  0  0
  -21.6648  -26.7448   22.1196 H   0  0  0  0  0  0
  -19.6915  -25.6297   21.1239 H   0  0  0  0  0  0
  -19.6687  -27.3197   20.6742 H   0  0  0  0  0  0
  -17.4201  -26.6671   21.4031 H   0  0  0  0  0  0
  -18.0338  -26.0072   22.9024 H   0  0  0  0  0  0
  -19.7939  -30.7274   24.2263 H   0  0  0  0  0  0
  -17.5018  -31.6266   24.5166 H   0  0  0  0  0  0
  -15.5356  -30.2987   23.7657 H   0  0  0  0  0  0
  -15.8675  -28.0824   22.7064 H   0  0  0  0  0  0
  -24.5904  -30.7079   25.7788 H   0  0  0  0  0  0
  -24.8921  -32.2899   26.4880 H   0  0  0  0  0  0
  -25.8052  -30.8911   27.0236 H   0  0  0  0  0  0
  -26.2914  -29.6767   24.1205 H   0  0  0  0  0  0
  -27.4024  -29.7265   25.4696 H   0  0  0  0  0  0
  -27.8790  -30.4296   23.9423 H   0  0  0  0  0  0
  -27.2662  -33.3621   26.2087 H   0  0  0  0  0  0
  -28.3865  -32.6889   25.0336 H   0  0  0  0  0  0
  -28.0722  -31.8447   26.5422 H   0  0  0  0  0  0
  -28.2598  -38.0100   24.7507 H   0  0  0  0  0  0
  -28.1072  -36.2632   24.6294 H   0  0  0  0  0  0
  -27.2297  -37.1460   25.8867 H   0  0  0  0  0  0
  -20.9368  -29.8779   21.6895 H   0  0  0  0  0  0
  -26.0173  -38.2855   24.1404 H   0  0  0  0  0  0
  -31.9168  -17.3709   19.9688 H   0  0  0  0  0  0
  -30.7702  -24.5281   21.5528 H   0  0  0  0  0  0
  -29.3735  -23.7560   22.2907 H   0  0  0  0  0  0
  -30.8169  -21.8676   22.2959 H   0  0  0  0  0  0
  -31.6895  -22.4127   20.8669 H   0  0  0  0  0  0
  -28.4652  -22.1748   18.9486 H   0  0  0  0  0  0
  -27.8562  -22.2146   20.5984 H   0  0  0  0  0  0
  -29.9046  -24.1026   19.3262 H   0  0  0  0  0  0
  -27.3436  -24.7669   20.8808 H   0  0  0  0  0  0
  -27.5838  -24.7905   19.1516 H   0  0  0  0  0  0
  -28.9661  -15.3633   21.3117 H   0  0  0  0  0  0
  1 25  1  0  0  0
  1 30  2  0  0  0
  1 83  1  0  0  0
  2  3  1  0  0  0
  2 25  1  0  0  0
  2 87  1  0  0  0
  2 88  1  0  0  0
  3  4  1  0  0  0
  3 89  1  0  0  0
  3 90  1  0  0  0
  4  5  1  0  0  0
  4 91  1  0  0  0
  4 92  1  0  0  0
  5  6  1  0  0  0
  5 26  1  0  0  0
  5 93  1  0  0  0
  6 25  1  0  0  0
  6 94  1  0  0  0
  6 95  1  0  0  0
  7  8  2  0  0  0
  7 26  1  0  0  0
  7 29  1  0  0  0
  8  9  1  0  0  0
  8 22  1  0  0  0
  9 10  1  0  0  0
  9 27  2  0  0  0
 10 11  2  0  0  0
 10 15  1  0  0  0
 11 12  1  0  0  0
 11 96  1  0  0  0
 12 13  2  0  0  0
 12 97  1  0  0  0
 13 14  1  0  0  0
 13 31  1  0  0  0
 14 15  2  0  0  0
 14 98  1  0  0  0
 15 99  1  0  0  0
 16 17  2  0  0  0
 16 21  1  0  0  0
 16 31  1  0  0  0
 17 18  1  0  0  0
 17100  1  0  0  0
 18 19  2  0  0  0
 18101  1  0  0  0
 19 20  1  0  0  0
 19 24  1  0  0  0
 20 21  2  0  0  0
 20102  1  0  0  0
 21 23  1  0  0  0
 22 28  1  0  0  0
 22 32  2  0  0  0
 26 27  1  0  0  0
 28103  1  0  0  0
 28104  1  0  0  0
 29105  1  0  0  0
 29106  1  0  0  0
 33 34  1  0  0  0
 33 66  1  0  0  0
 33 70  2  0  0  0
 34 36  1  0  0  0
 34 59  1  0  0  0
 34107  1  0  0  0
 35 44  2  0  0  0
 35 45  1  0  0  0
 35 68  1  0  0  0
 36 56  1  0  0  0
 36108  1  0  0  0
 37 39  1  0  0  0
 37 47  1  0  0  0
 37 66  1  0  0  0
 37109  1  0  0  0
 38 43  2  0  0  0
 38 46  1  0  0  0
 38 47  1  0  0  0
 39 64  1  0  0  0
 39 67  2  0  0  0
 40 52  1  0  0  0
 40 53  2  0  0  0
 40 58  1  0  0  0
 41110  1  0  0  0
 41111  1  0  0  0
 41112  1  0  0  0
 41 48  1  0  0  0
 42 43  1  0  0  0
 42 66  1  0  0  0
 42113  1  0  0  0
 42114  1  0  0  0
 43 44  1  0  0  0
 44115  1  0  0  0
 45 46  2  0  0  0
 45116  1  0  0  0
 46117  1  0  0  0
 47118  1  0  0  0
 47119  1  0  0  0
 48 56  1  0  0  0
 48 65  1  0  0  0
 48120  1  0  0  0
 49 50  1  0  0  0
 49 53  1  0  0  0
 49 64  1  0  0  0
 49121  1  0  0  0
 50 51  1  0  0  0
 50122  1  0  0  0
 50123  1  0  0  0
 51 52  1  0  0  0
 51124  1  0  0  0
 51125  1  0  0  0
 52126  1  0  0  0
 52127  1  0  0  0
 53 54  1  0  0  0
 54 55  2  0  0  0
 54128  1  0  0  0
 55 57  1  0  0  0
 55129  1  0  0  0
 56 69  2  0  0  0
 57 58  2  0  0  0
 57130  1  0  0  0
 58131  1  0  0  0
 59 60  1  0  0  0
 59 61  1  0  0  0
 59 62  1  0  0  0
 60132  1  0  0  0
 60133  1  0  0  0
 60134  1  0  0  0
 61135  1  0  0  0
 61136  1  0  0  0
 61137  1  0  0  0
 62138  1  0  0  0
 62139  1  0  0  0
 62140  1  0  0  0
 63 65  1  0  0  0
 63141  1  0  0  0
 63142  1  0  0  0
 63143  1  0  0  0
 64144  1  0  0  0
 65145  1  0  0  0
 68 81  1  0  0  0
 71 73  2  0  0  0
 71 74  1  0  0  0
 71146  1  0  0  0
 72 74  2  0  0  0
 72 75  1  0  0  0
 72 82  1  0  0  0
 73 76  1  0  0  0
 73 83  1  0  0  0
 74 84  1  0  0  0
 75 76  2  0  0  0
 75 85  1  0  0  0
 76 86  1  0  0  0
 77 78  1  0  0  0
 77 80  1  0  0  0
 77147  1  0  0  0
 77148  1  0  0  0
 78 82  1  0  0  0
 78149  1  0  0  0
 78150  1  0  0  0
 79 80  1  0  0  0
 79 82  1  0  0  0
 79151  1  0  0  0
 79152  1  0  0  0
 80 81  1  0  0  0
 80153  1  0  0  0
 81154  1  0  0  0
 81155  1  0  0  0
 83156  1  0  0  0
M  ISO  4   1 100  68 101  81 101  83 100
M  END
> <chiral flag>
0

> <version>
0

> <s_m_source_file>
/data/baiqing/PycharmProjects/Reinvent-master-3.2/result/LINK_invent/BTK/process_docking_weight1_custom_product_contain_oxygen_bond_distance_aromatic_linkinvent_7_9_3/rearranged_h_0025.sdf

> <i_m_source_file_index>
67

> <r_mmod_Potential_Energy-OPLS-2005>
237.057693481445

> <r_mmod_Stretch_Energy-OPLS-2005>
79.210090637207

> <r_mmod_Bend_Energy-OPLS-2005>
188.467681884766

> <r_mmod_Torsional_Energy-OPLS-2005>
278.367401123047

> <r_mmod_Improper_Torsional_Energy-OPLS-2005>
5.56165170669556

> <r_mmod_Van_der_Waal_Energy-OPLS-2005>
143.464157104492

> <r_mmod_Electrostatic_Energy-OPLS-2005>
-293.037963867188

> <r_mmod_Solvation_Energy-OPLS-2005>
-213.665908813477

> <b_mmod_Minimization_Converged-OPLS-2005>
0

> <r_mmod_RMS_Derivative-OPLS-2005>
0.219777524471283

$$$$
67
                    3D
 Structure written by MMmdl.
156165  0  0  1  0            999 V2000
  -30.5141  -14.9027   20.4423 C   0  0  0  0  0  0
  -30.4549  -12.5560   19.4915 C   0  0  0  0  0  0
  -29.5268  -12.5320   18.2522 C   0  0  0  0  0  0
  -28.0560  -12.3227   18.6656 C   0  0  0  0  0  0
  -27.6397  -13.2356   19.8480 C   0  0  2  0  0  0
  -28.6834  -13.2072   20.9865 C   0  0  0  0  0  0
  -25.2508  -13.8188   20.5691 C   0  0  0  0  0  0
  -24.1808  -13.0433   20.9224 C   0  0  0  0  0  0
  -24.6403  -11.6911   20.8751 C   0  0  0  0  0  0
  -23.9073  -10.4291   21.0411 C   0  0  0  0  0  0
  -24.3621   -9.4203   21.9188 C   0  0  0  0  0  0
  -23.6291   -8.2240   22.0757 C   0  0  0  0  0  0
  -22.4273   -8.0282   21.3546 C   0  0  0  0  0  0
  -21.9912   -9.0257   20.4650 C   0  0  0  0  0  0
  -22.7245  -10.2132   20.3060 C   0  0  0  0  0  0
  -21.6853   -6.0735   22.5280 C   0  0  0  0  0  0
  -21.4016   -6.5638   23.8212 C   0  0  0  0  0  0
  -21.3658   -5.6791   24.9175 C   0  0  0  0  0  0
  -21.6045   -4.3053   24.7225 C   0  0  0  0  0  0
  -21.8815   -3.8145   23.4346 C   0  0  0  0  0  0
  -21.9192   -4.6962   22.3403 C   0  0  0  0  0  0
  -22.7827  -13.5217   21.1873 C   0  0  0  0  0  0
  -22.1659   -4.2147   21.0980 F   0  0  0  0  0  0
  -21.5630   -3.4538   25.7737 F   0  0  0  0  0  0
  -29.9698  -13.6233   20.4068 N   0  0  0  0  0  0
  -26.2930  -12.9396   20.3253 N   0  0  0  0  0  0
  -25.9334  -11.6537   20.5736 N   0  0  0  0  0  0
  -22.0467  -12.8216   22.0429 N   0  0  0  0  0  0
  -25.4184  -15.1912   20.4073 N   0  0  0  0  0  0
  -31.6986  -15.0476   20.1189 O   0  0  0  0  0  0
  -21.6639   -6.8879   21.4241 O   0  0  0  0  0  0
  -22.3515  -14.5522   20.6715 O   0  0  0  0  0  0
  -24.6418  -31.8459   23.1904 C   0  0  0  0  0  0
  -25.9195  -32.4708   23.8287 C   0  0  1  0  0  0
  -27.2199  -27.1555   20.1477 C   0  0  0  0  0  0
  -25.5945  -33.8513   24.2198 N   0  0  0  0  0  0
  -23.4444  -30.4660   21.5360 C   0  0  2  0  0  0
  -24.8936  -28.8953   20.1142 C   0  0  0  0  0  0
  -22.7557  -29.4559   22.4874 C   0  0  0  0  0  0
  -18.0302  -28.1396   22.8479 C   0  0  0  0  0  0
  -24.1491  -36.7264   23.2642 C   0  0  0  0  0  0
  -25.9994  -30.7255   21.3871 C   0  0  0  0  0  0
  -26.0713  -29.3378   20.7303 C   0  0  0  0  0  0
  -27.2362  -28.4845   20.7291 C   0  0  0  0  0  0
  -26.0165  -26.8135   19.4907 C   0  0  0  0  0  0
  -24.8777  -27.6453   19.4800 C   0  0  0  0  0  0
  -23.6701  -29.7959   20.1558 C   0  0  0  0  0  0
  -25.4122  -36.3039   24.0314 C   0  0  1  0  0  0
  -20.5913  -28.3720   23.1242 C   0  0  2  0  0  0
  -20.6788  -26.9427   22.5404 C   0  0  0  0  0  0
  -19.5760  -26.6384   21.5213 C   0  0  0  0  0  0
  -18.1941  -26.7935   22.1625 C   0  0  0  0  0  0
  -19.1557  -28.8875   23.2853 C   0  0  0  0  0  0
  -18.9475  -30.1473   23.8878 C   0  0  0  0  0  0
  -17.6472  -30.6593   24.0561 C   0  0  0  0  0  0
  -25.9071  -34.9413   23.5066 C   0  0  0  0  0  0
  -16.5364  -29.9087   23.6336 C   0  0  0  0  0  0
  -16.7286  -28.6505   23.0356 C   0  0  0  0  0  0
  -26.4518  -31.6574   25.0726 C   0  0  0  0  0  0
  -25.3702  -31.3764   26.1422 C   0  0  0  0  0  0
  -27.0380  -30.2970   24.6302 C   0  0  0  0  0  0
  -27.6046  -32.4341   25.7511 C   0  0  0  0  0  0
  -27.5574  -37.1790   24.8463 C   0  0  0  0  0  0
  -21.4250  -29.3052   22.3619 N   0  0  0  0  0  0
  -26.4286  -37.3749   23.9406 N   0  0  0  0  0  0
  -24.7149  -31.0333   22.0932 N   0  0  0  0  0  0
  -23.4208  -28.8106   23.3016 O   0  0  0  0  0  0
  -28.2866  -26.1896   20.1830 O   0  0  0  0  0  0
  -26.5658  -34.8906   22.4647 O   0  0  0  0  0  0
  -23.5540  -32.1328   23.7133 O   0  0  0  0  0  0
  -30.2517  -19.9481   20.2430 C   0  0  0  0  0  0
  -30.5131  -18.5042   20.2360 C   0  0  0  0  0  0
  -28.3028  -18.1246   20.9544 C   0  0  0  0  0  0
  -28.9993  -20.5582   20.6227 C   0  0  0  0  0  0
  -29.5443  -17.5042   20.6099 C   0  0  0  0  0  0
  -28.0389  -19.5438   20.9660 C   0  0  0  0  0  0
  -30.1084  -23.1666   22.3904 C   0  0  0  0  0  0
  -30.3421  -23.7074   20.9754 C   0  0  0  0  0  0
  -28.8723  -22.2603   22.2812 C   0  0  0  0  0  0
  -29.0534  -23.3674   20.2306 C   0  0  2  0  0  0
  -27.9996  -24.6761   20.3780 C   0  0  0  0  0  0
  -28.6763  -21.9983   20.8560 N   0  0  0  0  0  0
  -29.6315  -15.9778   20.6883 N   0  0  0  0  0  0
  -26.4527  -20.0287   21.4628 Cl  0  0  0  0  0  0
  -31.4874  -12.7283   19.1833 H   0  0  0  0  0  0
  -30.4518  -11.5891   19.9970 H   0  0  0  0  0  0
  -29.8371  -11.7469   17.5614 H   0  0  0  0  0  0
  -29.6222  -13.4728   17.7076 H   0  0  0  0  0  0
  -27.9408  -11.2765   18.9516 H   0  0  0  0  0  0
  -27.3946  -12.4797   17.8126 H   0  0  0  0  0  0
  -27.6185  -14.2481   19.4446 H   0  0  0  0  0  0
  -28.7576  -12.2095   21.4221 H   0  0  0  0  0  0
  -28.3869  -13.8707   21.8005 H   0  0  0  0  0  0
  -25.2764   -9.5676   22.4763 H   0  0  0  0  0  0
  -23.9998   -7.4630   22.7475 H   0  0  0  0  0  0
  -21.0843   -8.8779   19.8954 H   0  0  0  0  0  0
  -22.3706  -10.9673   19.6170 H   0  0  0  0  0  0
  -21.2010   -7.6146   23.9716 H   0  0  0  0  0  0
  -21.1485   -6.0522   25.9079 H   0  0  0  0  0  0
  -22.0595   -2.7607   23.2847 H   0  0  0  0  0  0
  -22.4079  -11.9885   22.4833 H   0  0  0  0  0  0
  -21.1083  -13.1246   22.2623 H   0  0  0  0  0  0
  -24.6358  -15.8311   20.4913 H   0  0  0  0  0  0
  -26.2331  -15.6180   19.9873 H   0  0  0  0  0  0
  -26.7261  -32.5323   23.1018 H   0  0  0  0  0  0
  -25.0061  -33.9632   25.0323 H   0  0  0  0  0  0
  -22.7459  -31.2913   21.3826 H   0  0  0  0  0  0
  -23.3753  -35.9596   23.3295 H   0  0  0  0  0  0
  -24.3576  -36.8908   22.2059 H   0  0  0  0  0  0
  -23.7250  -37.6458   23.6686 H   0  0  0  0  0  0
  -26.1518  -31.4797   20.6139 H   0  0  0  0  0  0
  -26.8713  -30.7768   22.0279 H   0  0  0  0  0  0
  -28.1354  -28.8203   21.2263 H   0  0  0  0  0  0
  -25.9241  -25.8720   18.9732 H   0  0  0  0  0  0
  -23.9809  -27.3050   18.9804 H   0  0  0  0  0  0
  -23.8061  -30.5702   19.3998 H   0  0  0  0  0  0
  -22.7855  -29.2369   19.8457 H   0  0  0  0  0  0
  -25.1311  -36.1866   25.0805 H   0  0  0  0  0  0
  -21.0002  -28.3308   24.1363 H   0  0  0  0  0  0
  -20.5685  -26.2333   23.3620 H   0  0  0  0  0  0
  -21.6654  -26.7435   22.1200 H   0  0  0  0  0  0
  -19.6923  -25.6288   21.1258 H   0  0  0  0  0  0
  -19.6696  -27.3181   20.6732 H   0  0  0  0  0  0
  -17.4210  -26.6676   21.4032 H   0  0  0  0  0  0
  -18.0344  -26.0083   22.9025 H   0  0  0  0  0  0
  -19.7950  -30.7295   24.2241 H   0  0  0  0  0  0
  -17.5024  -31.6271   24.5166 H   0  0  0  0  0  0
  -15.5363  -30.2983   23.7671 H   0  0  0  0  0  0
  -15.8686  -28.0818   22.7083 H   0  0  0  0  0  0
  -24.5882  -30.7111   25.7742 H   0  0  0  0  0  0
  -24.8888  -32.2948   26.4794 H   0  0  0  0  0  0
  -25.7984  -30.8971   27.0234 H   0  0  0  0  0  0
  -26.2996  -29.6699   24.1292 H   0  0  0  0  0  0
  -27.3973  -29.7266   25.4878 H   0  0  0  0  0  0
  -27.8912  -30.4209   23.9629 H   0  0  0  0  0  0
  -27.2633  -33.3655   26.2039 H   0  0  0  0  0  0
  -28.3883  -32.6880   25.0362 H   0  0  0  0  0  0
  -28.0683  -31.8501   26.5471 H   0  0  0  0  0  0
  -28.2585  -38.0092   24.7503 H   0  0  0  0  0  0
  -28.1076  -36.2621   24.6296 H   0  0  0  0  0  0
  -27.2291  -37.1442   25.8866 H   0  0  0  0  0  0
  -20.9459  -29.8763   21.6798 H   0  0  0  0  0  0
  -26.0153  -38.2817   24.1407 H   0  0  0  0  0  0
  -31.0703  -20.6037   19.9844 H   0  0  0  0  0  0
  -31.5009  -18.1732   19.9488 H   0  0  0  0  0  0
  -27.4854  -17.4840   21.2514 H   0  0  0  0  0  0
  -29.9304  -23.9719   23.1046 H   0  0  0  0  0  0
  -30.9811  -22.6099   22.7349 H   0  0  0  0  0  0
  -31.1806  -23.1826   20.5154 H   0  0  0  0  0  0
  -30.5770  -24.7726   20.9584 H   0  0  0  0  0  0
  -27.9900  -22.7671   22.6750 H   0  0  0  0  0  0
  -29.0019  -21.3594   22.8852 H   0  0  0  0  0  0
  -29.2803  -23.2280   19.1724 H   0  0  0  0  0  0
  -27.5885  -24.6317   21.3862 H   0  0  0  0  0  0
  -27.1635  -24.4027   19.7406 H   0  0  0  0  0  0
  -28.7460  -15.5791   20.9599 H   0  0  0  0  0  0
  1 25  1  0  0  0
  1 30  2  0  0  0
  1 83  1  0  0  0
  2  3  1  0  0  0
  2 25  1  0  0  0
  2 85  1  0  0  0
  2 86  1  0  0  0
  3  4  1  0  0  0
  3 87  1  0  0  0
  3 88  1  0  0  0
  4  5  1  0  0  0
  4 89  1  0  0  0
  4 90  1  0  0  0
  5  6  1  0  0  0
  5 26  1  0  0  0
  5 91  1  0  0  0
  6 25  1  0  0  0
  6 92  1  0  0  0
  6 93  1  0  0  0
  7  8  2  0  0  0
  7 26  1  0  0  0
  7 29  1  0  0  0
  8  9  1  0  0  0
  8 22  1  0  0  0
  9 10  1  0  0  0
  9 27  2  0  0  0
 10 11  2  0  0  0
 10 15  1  0  0  0
 11 12  1  0  0  0
 11 94  1  0  0  0
 12 13  2  0  0  0
 12 95  1  0  0  0
 13 14  1  0  0  0
 13 31  1  0  0  0
 14 15  2  0  0  0
 14 96  1  0  0  0
 15 97  1  0  0  0
 16 17  2  0  0  0
 16 21  1  0  0  0
 16 31  1  0  0  0
 17 18  1  0  0  0
 17 98  1  0  0  0
 18 19  2  0  0  0
 18 99  1  0  0  0
 19 20  1  0  0  0
 19 24  1  0  0  0
 20 21  2  0  0  0
 20100  1  0  0  0
 21 23  1  0  0  0
 22 28  1  0  0  0
 22 32  2  0  0  0
 26 27  1  0  0  0
 28101  1  0  0  0
 28102  1  0  0  0
 29103  1  0  0  0
 29104  1  0  0  0
 33 34  1  0  0  0
 33 66  1  0  0  0
 33 70  2  0  0  0
 34 36  1  0  0  0
 34 59  1  0  0  0
 34105  1  0  0  0
 35 44  2  0  0  0
 35 45  1  0  0  0
 35 68  1  0  0  0
 36 56  1  0  0  0
 36106  1  0  0  0
 37 39  1  0  0  0
 37 47  1  0  0  0
 37 66  1  0  0  0
 37107  1  0  0  0
 38 43  2  0  0  0
 38 46  1  0  0  0
 38 47  1  0  0  0
 39 64  1  0  0  0
 39 67  2  0  0  0
 40 52  1  0  0  0
 40 53  2  0  0  0
 40 58  1  0  0  0
 41108  1  0  0  0
 41109  1  0  0  0
 41110  1  0  0  0
 41 48  1  0  0  0
 42 43  1  0  0  0
 42 66  1  0  0  0
 42111  1  0  0  0
 42112  1  0  0  0
 43 44  1  0  0  0
 44113  1  0  0  0
 45 46  2  0  0  0
 45114  1  0  0  0
 46115  1  0  0  0
 47116  1  0  0  0
 47117  1  0  0  0
 48 56  1  0  0  0
 48 65  1  0  0  0
 48118  1  0  0  0
 49 50  1  0  0  0
 49 53  1  0  0  0
 49 64  1  0  0  0
 49119  1  0  0  0
 50 51  1  0  0  0
 50120  1  0  0  0
 50121  1  0  0  0
 51 52  1  0  0  0
 51122  1  0  0  0
 51123  1  0  0  0
 52124  1  0  0  0
 52125  1  0  0  0
 53 54  1  0  0  0
 54 55  2  0  0  0
 54126  1  0  0  0
 55 57  1  0  0  0
 55127  1  0  0  0
 56 69  2  0  0  0
 57 58  2  0  0  0
 57128  1  0  0  0
 58129  1  0  0  0
 59 60  1  0  0  0
 59 61  1  0  0  0
 59 62  1  0  0  0
 60130  1  0  0  0
 60131  1  0  0  0
 60132  1  0  0  0
 61133  1  0  0  0
 61134  1  0  0  0
 61135  1  0  0  0
 62136  1  0  0  0
 62137  1  0  0  0
 62138  1  0  0  0
 63 65  1  0  0  0
 63139  1  0  0  0
 63140  1  0  0  0
 63141  1  0  0  0
 64142  1  0  0  0
 65143  1  0  0  0
 68 81  1  0  0  0
 71 72  2  0  0  0
 71 74  1  0  0  0
 71144  1  0  0  0
 72 75  1  0  0  0
 72145  1  0  0  0
 73 75  2  0  0  0
 73 76  1  0  0  0
 73146  1  0  0  0
 74 76  2  0  0  0
 74 82  1  0  0  0
 75 83  1  0  0  0
 76 84  1  0  0  0
 77 78  1  0  0  0
 77 79  1  0  0  0
 77147  1  0  0  0
 77148  1  0  0  0
 78 80  1  0  0  0
 78149  1  0  0  0
 78150  1  0  0  0
 79 82  1  0  0  0
 79151  1  0  0  0
 79152  1  0  0  0
 80 81  1  0  0  0
 80 82  1  0  0  0
 80153  1  0  0  0
 81154  1  0  0  0
 81155  1  0  0  0
 83156  1  0  0  0
M  ISO  4   1 100  68 101  81 101  83 100
M  END
> <chiral flag>
0

> <version>
0

> <s_m_source_file>
/data/baiqing/PycharmProjects/Reinvent-master-3.2/result/LINK_invent/BTK/process_docking_weight1_custom_product_contain_oxygen_bond_distance_aromatic_linkinvent_7_9_3/rearranged_h_0025.sdf

> <i_m_source_file_index>
68

> <r_mmod_Potential_Energy-OPLS-2005>
587.363037109375

> <r_mmod_Stretch_Energy-OPLS-2005>
212.801223754883

> <r_mmod_Bend_Energy-OPLS-2005>
316.228485107422

> <r_mmod_Torsional_Energy-OPLS-2005>
302.075347900391

> <r_mmod_Improper_Torsional_Energy-OPLS-2005>
9.86344528198242

> <r_mmod_Van_der_Waal_Energy-OPLS-2005>
129.6513671875

> <r_mmod_Electrostatic_Energy-OPLS-2005>
-333.685729980469

> <r_mmod_Solvation_Energy-OPLS-2005>
-216.405960083008

> <b_mmod_Minimization_Converged-OPLS-2005>
0

> <r_mmod_RMS_Derivative-OPLS-2005>
0.620029389858246

$$$$
68
                    3D
 Structure written by MMmdl.
162171  0  0  1  0            999 V2000
  -30.7350  -14.4487   20.6318 C   0  0  0  0  0  0
  -30.4164  -12.3186   19.4147 C   0  0  0  0  0  0
  -29.4879  -12.5194   18.2019 C   0  0  0  0  0  0
  -28.0116  -12.3735   18.6166 C   0  0  0  0  0  0
  -27.6598  -13.2104   19.8754 C   0  0  2  0  0  0
  -28.7001  -12.9916   20.9960 C   0  0  0  0  0  0
  -25.2574  -13.8170   20.5680 C   0  0  0  0  0  0
  -24.1826  -13.0440   20.9172 C   0  0  0  0  0  0
  -24.6384  -11.6911   20.8733 C   0  0  0  0  0  0
  -23.9057  -10.4294   21.0400 C   0  0  0  0  0  0
  -24.3613   -9.4211   21.9178 C   0  0  0  0  0  0
  -23.6289   -8.2248   22.0752 C   0  0  0  0  0  0
  -22.4273   -8.0282   21.3542 C   0  0  0  0  0  0
  -21.9907   -9.0254   20.4645 C   0  0  0  0  0  0
  -22.7232  -10.2133   20.3049 C   0  0  0  0  0  0
  -21.6855   -6.0737   22.5276 C   0  0  0  0  0  0
  -21.4012   -6.5640   23.8209 C   0  0  0  0  0  0
  -21.3659   -5.6792   24.9173 C   0  0  0  0  0  0
  -21.6046   -4.3055   24.7224 C   0  0  0  0  0  0
  -21.8818   -3.8148   23.4344 C   0  0  0  0  0  0
  -21.9192   -4.6965   22.3401 C   0  0  0  0  0  0
  -22.7851  -13.5236   21.1842 C   0  0  0  0  0  0
  -22.1662   -4.2150   21.0977 F   0  0  0  0  0  0
  -21.5631   -3.4539   25.7738 F   0  0  0  0  0  0
  -30.0319  -13.2973   20.4459 N   0  0  0  0  0  0
  -26.3013  -12.9347   20.3370 N   0  0  0  0  0  0
  -25.9311  -11.6503   20.5763 N   0  0  0  0  0  0
  -22.0496  -12.8224   22.0401 N   0  0  0  0  0  0
  -25.4301  -15.1889   20.4093 N   0  0  0  0  0  0
  -31.8215  -14.6572   20.0853 O   0  0  0  0  0  0
  -21.6638   -6.8881   21.4239 O   0  0  0  0  0  0
  -22.3536  -14.5547   20.6701 O   0  0  0  0  0  0
  -24.6151  -31.8667   23.2102 C   0  0  0  0  0  0
  -25.9044  -32.4815   23.8392 C   0  0  1  0  0  0
  -27.2266  -27.4120   20.0954 C   0  0  0  0  0  0
  -25.5890  -33.8610   24.2315 N   0  0  0  0  0  0
  -23.4038  -30.4930   21.5506 C   0  0  2  0  0  0
  -24.8487  -28.9633   20.1097 C   0  0  0  0  0  0
  -22.7416  -29.4658   22.4970 C   0  0  0  0  0  0
  -18.0272  -28.1382   22.8482 C   0  0  0  0  0  0
  -24.1478  -36.7307   23.2644 C   0  0  0  0  0  0
  -25.9361  -30.8259   21.3682 C   0  0  0  0  0  0
  -26.0110  -29.4605   20.7120 C   0  0  0  0  0  0
  -27.2009  -28.6921   20.7034 C   0  0  0  0  0  0
  -26.0438  -26.9496   19.4666 C   0  0  0  0  0  0
  -24.8616  -27.7081   19.4832 C   0  0  0  0  0  0
  -23.6121  -29.8313   20.1628 C   0  0  0  0  0  0
  -25.4102  -36.3103   24.0340 C   0  0  1  0  0  0
  -20.5865  -28.3663   23.1302 C   0  0  2  0  0  0
  -20.6757  -26.9393   22.5413 C   0  0  0  0  0  0
  -19.5740  -26.6384   21.5204 C   0  0  0  0  0  0
  -18.1917  -26.7925   22.1620 C   0  0  0  0  0  0
  -19.1524  -28.8839   23.2884 C   0  0  0  0  0  0
  -18.9465  -30.1449   23.8888 C   0  0  0  0  0  0
  -17.6467  -30.6585   24.0568 C   0  0  0  0  0  0
  -25.9036  -34.9470   23.5128 C   0  0  0  0  0  0
  -16.5353  -29.9092   23.6338 C   0  0  0  0  0  0
  -16.7264  -28.6517   23.0336 C   0  0  0  0  0  0
  -26.4459  -31.6601   25.0729 C   0  0  0  0  0  0
  -25.3727  -31.3720   26.1483 C   0  0  0  0  0  0
  -27.0299  -30.3044   24.6122 C   0  0  0  0  0  0
  -27.6034  -32.4320   25.7490 C   0  0  0  0  0  0
  -27.5571  -37.1803   24.8469 C   0  0  0  0  0  0
  -21.4146  -29.3029   22.3709 N   0  0  0  0  0  0
  -26.4283  -37.3792   23.9417 N   0  0  0  0  0  0
  -24.6700  -31.0763   22.1006 N   0  0  0  0  0  0
  -23.4182  -28.8199   23.3012 O   0  0  0  0  0  0
  -28.3834  -26.6464   20.1422 O   0  0  0  0  0  0
  -26.5609  -34.8925   22.4697 O   0  0  0  0  0  0
  -23.5344  -32.1429   23.7489 O   0  0  0  0  0  0
  -30.8221  -18.7224   20.6768 C   0  0  0  0  0  0
  -30.4388  -20.0755   20.5316 C   0  0  0  0  0  0
  -30.2900  -17.9272   21.7140 C   0  0  0  0  0  0
  -28.9166  -19.8492   22.4140 C   0  0  0  0  0  0
  -29.5083  -20.6758   21.4151 C   0  0  0  0  0  0
  -29.3138  -18.4958   22.5602 C   0  0  0  0  0  0
  -29.3361  -24.3164   22.0355 C   0  0  0  0  0  0
  -29.7660  -22.8954   22.4008 C   0  0  0  0  0  0
  -29.2463  -22.8396   20.1054 C   0  0  0  0  0  0
  -29.3568  -24.3418   20.4994 C   0  0  1  0  0  0
  -27.8554  -20.3819   23.3679 C   0  0  0  0  0  0
  -30.8701  -16.5363   22.0060 C   0  0  0  0  0  0
  -28.2520  -25.2322   19.8745 C   0  0  0  0  0  0
  -29.2054  -22.0616   21.3489 N   0  0  0  0  0  0
  -30.1745  -15.3688   21.4385 N   0  0  0  0  0  0
  -28.7811  -17.7450   23.5558 F   0  0  0  0  0  0
  -31.4599  -12.4168   19.1106 H   0  0  0  0  0  0
  -30.3188  -11.3054   19.8081 H   0  0  0  0  0  0
  -29.7285  -11.7998   17.4184 H   0  0  0  0  0  0
  -29.6526  -13.5091   17.7723 H   0  0  0  0  0  0
  -27.8237  -11.3166   18.8104 H   0  0  0  0  0  0
  -27.3588  -12.6508   17.7878 H   0  0  0  0  0  0
  -27.7053  -14.2595   19.5821 H   0  0  0  0  0  0
  -28.6772  -11.9553   21.3361 H   0  0  0  0  0  0
  -28.4505  -13.5887   21.8736 H   0  0  0  0  0  0
  -25.2758   -9.5692   22.4750 H   0  0  0  0  0  0
  -24.0002   -7.4641   22.7469 H   0  0  0  0  0  0
  -21.0842   -8.8767   19.8949 H   0  0  0  0  0  0
  -22.3687  -10.9671   19.6158 H   0  0  0  0  0  0
  -21.2001   -7.6146   23.9714 H   0  0  0  0  0  0
  -21.1486   -6.0522   25.9075 H   0  0  0  0  0  0
  -22.0598   -2.7610   23.2842 H   0  0  0  0  0  0
  -22.4112  -11.9878   22.4780 H   0  0  0  0  0  0
  -21.1115  -13.1249   22.2615 H   0  0  0  0  0  0
  -24.6673  -15.8483   20.5203 H   0  0  0  0  0  0
  -26.2897  -15.6275   20.1028 H   0  0  0  0  0  0
  -26.7116  -32.5519   23.1152 H   0  0  0  0  0  0
  -25.0000  -33.9764   25.0431 H   0  0  0  0  0  0
  -22.6933  -31.3111   21.4126 H   0  0  0  0  0  0
  -23.3734  -35.9647   23.3325 H   0  0  0  0  0  0
  -24.3567  -36.8907   22.2056 H   0  0  0  0  0  0
  -23.7238  -37.6518   23.6651 H   0  0  0  0  0  0
  -26.0540  -31.5925   20.6009 H   0  0  0  0  0  0
  -26.8228  -30.8746   21.9888 H   0  0  0  0  0  0
  -28.0942  -29.0682   21.1820 H   0  0  0  0  0  0
  -26.0063  -25.9999   18.9539 H   0  0  0  0  0  0
  -23.9716  -27.3237   19.0043 H   0  0  0  0  0  0
  -23.7205  -30.6094   19.4058 H   0  0  0  0  0  0
  -22.7353  -29.2527   19.8650 H   0  0  0  0  0  0
  -25.1272  -36.1963   25.0834 H   0  0  0  0  0  0
  -20.9954  -28.3228   24.1425 H   0  0  0  0  0  0
  -20.5646  -26.2264   23.3599 H   0  0  0  0  0  0
  -21.6626  -26.7421   22.1208 H   0  0  0  0  0  0
  -19.6898  -25.6300   21.1222 H   0  0  0  0  0  0
  -19.6688  -27.3209   20.6740 H   0  0  0  0  0  0
  -17.4178  -26.6666   21.4032 H   0  0  0  0  0  0
  -18.0325  -26.0074   22.9029 H   0  0  0  0  0  0
  -19.7948  -30.7262   24.2243 H   0  0  0  0  0  0
  -17.5035  -31.6268   24.5166 H   0  0  0  0  0  0
  -15.5357  -30.2991   23.7679 H   0  0  0  0  0  0
  -15.8662  -28.0852   22.7029 H   0  0  0  0  0  0
  -24.5886  -30.7076   25.7829 H   0  0  0  0  0  0
  -24.8928  -32.2884   26.4934 H   0  0  0  0  0  0
  -25.8075  -30.8888   27.0242 H   0  0  0  0  0  0
  -26.2856  -29.6802   24.1163 H   0  0  0  0  0  0
  -27.4054  -29.7280   25.4586 H   0  0  0  0  0  0
  -27.8694  -30.4360   23.9290 H   0  0  0  0  0  0
  -27.2649  -33.3611   26.2086 H   0  0  0  0  0  0
  -28.3828  -32.6892   25.0308 H   0  0  0  0  0  0
  -28.0713  -31.8431   26.5388 H   0  0  0  0  0  0
  -28.2592  -38.0093   24.7493 H   0  0  0  0  0  0
  -28.1051  -36.2619   24.6304 H   0  0  0  0  0  0
  -27.2285  -37.1468   25.8870 H   0  0  0  0  0  0
  -20.9302  -29.8763   21.6946 H   0  0  0  0  0  0
  -26.0169  -38.2865   24.1433 H   0  0  0  0  0  0
  -31.5749  -18.3123   20.0189 H   0  0  0  0  0  0
  -30.9197  -20.6514   19.7559 H   0  0  0  0  0  0
  -29.9815  -25.0758   22.4783 H   0  0  0  0  0  0
  -28.3249  -24.4941   22.4048 H   0  0  0  0  0  0
  -29.4114  -22.6195   23.3943 H   0  0  0  0  0  0
  -30.8540  -22.8059   22.3983 H   0  0  0  0  0  0
  -30.0908  -22.5681   19.4728 H   0  0  0  0  0  0
  -28.3393  -22.6473   19.5300 H   0  0  0  0  0  0
  -30.3312  -24.7050   20.1673 H   0  0  0  0  0  0
  -27.3102  -21.2276   22.9500 H   0  0  0  0  0  0
  -28.3145  -20.6933   24.3058 H   0  0  0  0  0  0
  -27.1190  -19.6105   23.5944 H   0  0  0  0  0  0
  -30.8885  -16.4014   23.0882 H   0  0  0  0  0  0
  -31.9227  -16.5452   21.7177 H   0  0  0  0  0  0
  -27.3050  -24.8483   20.2572 H   0  0  0  0  0  0
  -28.2415  -25.0909   18.7929 H   0  0  0  0  0  0
  -29.2694  -15.1438   21.8231 H   0  0  0  0  0  0
  1 25  1  0  0  0
  1 30  2  0  0  0
  1 85  1  0  0  0
  2  3  1  0  0  0
  2 25  1  0  0  0
  2 87  1  0  0  0
  2 88  1  0  0  0
  3  4  1  0  0  0
  3 89  1  0  0  0
  3 90  1  0  0  0
  4  5  1  0  0  0
  4 91  1  0  0  0
  4 92  1  0  0  0
  5  6  1  0  0  0
  5 26  1  0  0  0
  5 93  1  0  0  0
  6 25  1  0  0  0
  6 94  1  0  0  0
  6 95  1  0  0  0
  7  8  2  0  0  0
  7 26  1  0  0  0
  7 29  1  0  0  0
  8  9  1  0  0  0
  8 22  1  0  0  0
  9 10  1  0  0  0
  9 27  2  0  0  0
 10 11  2  0  0  0
 10 15  1  0  0  0
 11 12  1  0  0  0
 11 96  1  0  0  0
 12 13  2  0  0  0
 12 97  1  0  0  0
 13 14  1  0  0  0
 13 31  1  0  0  0
 14 15  2  0  0  0
 14 98  1  0  0  0
 15 99  1  0  0  0
 16 17  2  0  0  0
 16 21  1  0  0  0
 16 31  1  0  0  0
 17 18  1  0  0  0
 17100  1  0  0  0
 18 19  2  0  0  0
 18101  1  0  0  0
 19 20  1  0  0  0
 19 24  1  0  0  0
 20 21  2  0  0  0
 20102  1  0  0  0
 21 23  1  0  0  0
 22 28  1  0  0  0
 22 32  2  0  0  0
 26 27  1  0  0  0
 28103  1  0  0  0
 28104  1  0  0  0
 29105  1  0  0  0
 29106  1  0  0  0
 33 34  1  0  0  0
 33 66  1  0  0  0
 33 70  2  0  0  0
 34 36  1  0  0  0
 34 59  1  0  0  0
 34107  1  0  0  0
 35 44  2  0  0  0
 35 45  1  0  0  0
 35 68  1  0  0  0
 36 56  1  0  0  0
 36108  1  0  0  0
 37 39  1  0  0  0
 37 47  1  0  0  0
 37 66  1  0  0  0
 37109  1  0  0  0
 38 43  2  0  0  0
 38 46  1  0  0  0
 38 47  1  0  0  0
 39 64  1  0  0  0
 39 67  2  0  0  0
 40 52  1  0  0  0
 40 53  2  0  0  0
 40 58  1  0  0  0
 41110  1  0  0  0
 41111  1  0  0  0
 41112  1  0  0  0
 41 48  1  0  0  0
 42 43  1  0  0  0
 42 66  1  0  0  0
 42113  1  0  0  0
 42114  1  0  0  0
 43 44  1  0  0  0
 44115  1  0  0  0
 45 46  2  0  0  0
 45116  1  0  0  0
 46117  1  0  0  0
 47118  1  0  0  0
 47119  1  0  0  0
 48 56  1  0  0  0
 48 65  1  0  0  0
 48120  1  0  0  0
 49 50  1  0  0  0
 49 53  1  0  0  0
 49 64  1  0  0  0
 49121  1  0  0  0
 50 51  1  0  0  0
 50122  1  0  0  0
 50123  1  0  0  0
 51 52  1  0  0  0
 51124  1  0  0  0
 51125  1  0  0  0
 52126  1  0  0  0
 52127  1  0  0  0
 53 54  1  0  0  0
 54 55  2  0  0  0
 54128  1  0  0  0
 55 57  1  0  0  0
 55129  1  0  0  0
 56 69  2  0  0  0
 57 58  2  0  0  0
 57130  1  0  0  0
 58131  1  0  0  0
 59 60  1  0  0  0
 59 61  1  0  0  0
 59 62  1  0  0  0
 60132  1  0  0  0
 60133  1  0  0  0
 60134  1  0  0  0
 61135  1  0  0  0
 61136  1  0  0  0
 61137  1  0  0  0
 62138  1  0  0  0
 62139  1  0  0  0
 62140  1  0  0  0
 63 65  1  0  0  0
 63141  1  0  0  0
 63142  1  0  0  0
 63143  1  0  0  0
 64144  1  0  0  0
 65145  1  0  0  0
 68 83  1  0  0  0
 71 72  2  0  0  0
 71 73  1  0  0  0
 71146  1  0  0  0
 72 75  1  0  0  0
 72147  1  0  0  0
 73 76  2  0  0  0
 73 82  1  0  0  0
 74 75  2  0  0  0
 74 76  1  0  0  0
 74 81  1  0  0  0
 75 84  1  0  0  0
 76 86  1  0  0  0
 77 78  1  0  0  0
 77 80  1  0  0  0
 77148  1  0  0  0
 77149  1  0  0  0
 78 84  1  0  0  0
 78150  1  0  0  0
 78151  1  0  0  0
 79 80  1  0  0  0
 79 84  1  0  0  0
 79152  1  0  0  0
 79153  1  0  0  0
 80 83  1  0  0  0
 80154  1  0  0  0
 81155  1  0  0  0
 81156  1  0  0  0
 81157  1  0  0  0
 82 85  1  0  0  0
 82158  1  0  0  0
 82159  1  0  0  0
 83160  1  0  0  0
 83161  1  0  0  0
 85162  1  0  0  0
M  ISO  4   1 100  68 101  83 101  85 100
M  END
> <chiral flag>
0

> <version>
0

> <s_m_source_file>
/data/baiqing/PycharmProjects/Reinvent-master-3.2/result/LINK_invent/BTK/process_docking_weight1_custom_product_contain_oxygen_bond_distance_aromatic_linkinvent_7_9_3/rearranged_h_0025.sdf

> <i_m_source_file_index>
69

> <r_mmod_Potential_Energy-OPLS-2005>
15.1524562835693

> <r_mmod_Stretch_Energy-OPLS-2005>
41.4470291137695

> <r_mmod_Bend_Energy-OPLS-2005>
131.883895874023

> <r_mmod_Torsional_Energy-OPLS-2005>
276.411804199219

> <r_mmod_Improper_Torsional_Energy-OPLS-2005>
6.6141414642334

> <r_mmod_Van_der_Waal_Energy-OPLS-2005>
159.342041015625

> <r_mmod_Electrostatic_Energy-OPLS-2005>
-405.963653564453

> <r_mmod_Solvation_Energy-OPLS-2005>
-208.357406616211

> <b_mmod_Minimization_Converged-OPLS-2005>
0

> <r_mmod_RMS_Derivative-OPLS-2005>
1.0603369474411

$$$$
69
                    3D
 Structure written by MMmdl.
175185  0  0  1  0            999 V2000
  -30.6408  -14.7290   20.4391 C   0  0  0  0  0  0
  -30.4246  -12.4406   19.4651 C   0  0  0  0  0  0
  -29.5100  -12.5195   18.2252 C   0  0  0  0  0  0
  -28.0294  -12.3633   18.6277 C   0  0  0  0  0  0
  -27.6399  -13.2467   19.8441 C   0  0  2  0  0  0
  -28.6903  -13.1746   20.9752 C   0  0  0  0  0  0
  -25.2465  -13.8232   20.5677 C   0  0  0  0  0  0
  -24.1788  -13.0449   20.9224 C   0  0  0  0  0  0
  -24.6412  -11.6941   20.8746 C   0  0  0  0  0  0
  -23.9101  -10.4299   21.0372 C   0  0  0  0  0  0
  -24.3637   -9.4210   21.9154 C   0  0  0  0  0  0
  -23.6299   -8.2243   22.0740 C   0  0  0  0  0  0
  -22.4274   -8.0274   21.3539 C   0  0  0  0  0  0
  -21.9922   -9.0261   20.4645 C   0  0  0  0  0  0
  -22.7268  -10.2133   20.3030 C   0  0  0  0  0  0
  -21.6862   -6.0724   22.5279 C   0  0  0  0  0  0
  -21.4025   -6.5633   23.8215 C   0  0  0  0  0  0
  -21.3667   -5.6782   24.9182 C   0  0  0  0  0  0
  -21.6034   -4.3045   24.7224 C   0  0  0  0  0  0
  -21.8824   -3.8133   23.4351 C   0  0  0  0  0  0
  -21.9198   -4.6954   22.3405 C   0  0  0  0  0  0
  -22.7792  -13.5198   21.1884 C   0  0  0  0  0  0
  -22.1657   -4.2141   21.0977 F   0  0  0  0  0  0
  -21.5632   -3.4528   25.7738 F   0  0  0  0  0  0
  -29.9933  -13.5136   20.3895 N   0  0  0  0  0  0
  -26.2927  -12.9481   20.3247 N   0  0  0  0  0  0
  -25.9353  -11.6610   20.5722 N   0  0  0  0  0  0
  -22.0427  -12.8189   22.0439 N   0  0  0  0  0  0
  -25.4064  -15.1959   20.4073 N   0  0  0  0  0  0
  -31.8329  -14.7825   20.1273 O   0  0  0  0  0  0
  -21.6644   -6.8873   21.4234 O   0  0  0  0  0  0
  -22.3451  -14.5486   20.6724 O   0  0  0  0  0  0
  -24.6308  -31.8565   23.1994 C   0  0  0  0  0  0
  -25.9146  -32.4767   23.8329 C   0  0  1  0  0  0
  -27.2275  -27.2816   20.1159 C   0  0  0  0  0  0
  -25.5955  -33.8560   24.2261 N   0  0  0  0  0  0
  -23.4240  -30.4829   21.5393 C   0  0  2  0  0  0
  -24.8721  -28.9269   20.1073 C   0  0  0  0  0  0
  -22.7488  -29.4635   22.4871 C   0  0  0  0  0  0
  -18.0296  -28.1405   22.8468 C   0  0  0  0  0  0
  -24.1485  -36.7280   23.2637 C   0  0  0  0  0  0
  -25.9678  -30.7765   21.3732 C   0  0  0  0  0  0
  -26.0392  -29.3982   20.7204 C   0  0  0  0  0  0
  -27.2117  -28.5809   20.7256 C   0  0  0  0  0  0
  -26.0453  -26.8838   19.4593 C   0  0  0  0  0  0
  -24.8769  -27.6746   19.4746 C   0  0  0  0  0  0
  -23.6440  -29.8162   20.1539 C   0  0  0  0  0  0
  -25.4112  -36.3070   24.0322 C   0  0  1  0  0  0
  -20.5903  -28.3700   23.1252 C   0  0  2  0  0  0
  -20.6772  -26.9416   22.5386 C   0  0  0  0  0  0
  -19.5752  -26.6396   21.5184 C   0  0  0  0  0  0
  -18.1939  -26.7949   22.1605 C   0  0  0  0  0  0
  -19.1552  -28.8865   23.2872 C   0  0  0  0  0  0
  -18.9478  -30.1468   23.8892 C   0  0  0  0  0  0
  -17.6477  -30.6598   24.0576 C   0  0  0  0  0  0
  -25.9054  -34.9450   23.5094 C   0  0  0  0  0  0
  -16.5366  -29.9109   23.6327 C   0  0  0  0  0  0
  -16.7286  -28.6535   23.0328 C   0  0  0  0  0  0
  -26.4518  -31.6604   25.0717 C   0  0  0  0  0  0
  -25.3746  -31.3691   26.1426 C   0  0  0  0  0  0
  -27.0343  -30.3045   24.6163 C   0  0  0  0  0  0
  -27.6106  -32.4295   25.7498 C   0  0  0  0  0  0
  -27.5569  -37.1801   24.8469 C   0  0  0  0  0  0
  -21.4194  -29.3072   22.3647 N   0  0  0  0  0  0
  -26.4279  -37.3784   23.9417 N   0  0  0  0  0  0
  -24.6939  -31.0552   22.0960 N   0  0  0  0  0  0
  -23.4205  -28.8161   23.2941 O   0  0  0  0  0  0
  -28.3471  -26.4275   20.2219 O   0  0  0  0  0  0
  -26.5619  -34.8929   22.4652 O   0  0  0  0  0  0
  -23.5463  -32.1367   23.7313 O   0  0  0  0  0  0
  -31.6094  -17.7035   20.7807 C   0  0  0  0  0  0
  -29.7362  -19.8596   20.5390 C   0  0  0  0  0  0
  -29.3275  -18.4518   20.4634 C   0  0  0  0  0  0
  -31.1204  -20.1265   20.7309 C   0  0  0  0  0  0
  -30.2614  -17.3355   20.5888 C   0  0  0  0  0  0
  -32.0383  -19.0428   20.8505 C   0  0  0  0  0  0
  -32.7343  -23.1362   22.0526 C   0  0  0  0  0  0
  -33.4907  -22.8667   20.7542 C   0  0  0  0  0  0
  -27.3688  -22.4639   18.0559 C   0  0  0  0  0  0
  -26.8158  -23.1676   19.3105 C   0  0  0  0  0  0
  -31.8488  -21.9049   22.2161 C   0  0  0  0  0  0
  -32.5420  -21.9845   19.9298 C   0  0  0  0  0  0
  -28.8486  -22.1696   18.3699 C   0  0  0  0  0  0
  -28.0661  -23.6236   20.0893 C   0  0  2  0  0  0
  -27.8506  -18.1317   20.2755 C   0  0  0  0  0  0
  -28.7228  -21.1030   20.5903 C   0  0  0  0  0  0
  -28.5374  -25.0966   19.5498 C   0  0  0  0  0  0
  -31.5295  -21.4761   20.8578 N   0  0  0  0  0  0
  -29.8847  -15.8864   20.6011 N   0  0  0  0  0  0
  -28.9922  -22.4149   19.8192 N   0  3  1  0  0  0
  -33.7246  -19.2937   21.1617 Cl  0  0  0  0  0  0
  -31.4691  -12.5424   19.1670 H   0  0  0  0  0  0
  -30.3438  -11.4630   19.9440 H   0  0  0  0  0  0
  -29.7852  -11.7524   17.5015 H   0  0  0  0  0  0
  -29.6565  -13.4763   17.7201 H   0  0  0  0  0  0
  -27.8566  -11.3124   18.8579 H   0  0  0  0  0  0
  -27.3882  -12.5957   17.7756 H   0  0  0  0  0  0
  -27.6308  -14.2722   19.4748 H   0  0  0  0  0  0
  -28.7186  -12.1749   21.4129 H   0  0  0  0  0  0
  -28.4367  -13.8608   21.7840 H   0  0  0  0  0  0
  -25.2789   -9.5689   22.4732 H   0  0  0  0  0  0
  -24.0021   -7.4636   22.7456 H   0  0  0  0  0  0
  -21.0848   -8.8775   19.8963 H   0  0  0  0  0  0
  -22.3714  -10.9654   19.6124 H   0  0  0  0  0  0
  -21.2015   -7.6140   23.9729 H   0  0  0  0  0  0
  -21.1485   -6.0502   25.9088 H   0  0  0  0  0  0
  -22.0597   -2.7589   23.2852 H   0  0  0  0  0  0
  -22.4035  -11.9870   22.4868 H   0  0  0  0  0  0
  -21.1022  -13.1182   22.2599 H   0  0  0  0  0  0
  -24.6270  -15.8375   20.5080 H   0  0  0  0  0  0
  -26.2293  -15.6336   20.0181 H   0  0  0  0  0  0
  -26.7211  -32.5419   23.1062 H   0  0  0  0  0  0
  -25.0105  -33.9693   25.0408 H   0  0  0  0  0  0
  -22.7208  -31.3063   21.3906 H   0  0  0  0  0  0
  -23.3756  -35.9609   23.3289 H   0  0  0  0  0  0
  -24.3591  -36.8910   22.2058 H   0  0  0  0  0  0
  -23.7214  -37.6469   23.6664 H   0  0  0  0  0  0
  -26.0951  -31.5332   20.5976 H   0  0  0  0  0  0
  -26.8523  -30.8361   21.9957 H   0  0  0  0  0  0
  -28.1005  -28.9323   21.2320 H   0  0  0  0  0  0
  -25.9907  -25.9482   18.9384 H   0  0  0  0  0  0
  -23.9824  -27.3041   18.9926 H   0  0  0  0  0  0
  -23.7836  -30.5962   19.4043 H   0  0  0  0  0  0
  -22.7609  -29.2597   19.8318 H   0  0  0  0  0  0
  -25.1292  -36.1912   25.0814 H   0  0  0  0  0  0
  -21.0015  -28.3274   24.1369 H   0  0  0  0  0  0
  -20.5626  -26.2321   23.3596 H   0  0  0  0  0  0
  -21.6647  -26.7422   22.1212 H   0  0  0  0  0  0
  -19.6918  -25.6308   21.1220 H   0  0  0  0  0  0
  -19.6703  -27.3201   20.6712 H   0  0  0  0  0  0
  -17.4202  -26.6685   21.4025 H   0  0  0  0  0  0
  -18.0373  -26.0103   22.9014 H   0  0  0  0  0  0
  -19.7955  -30.7290   24.2259 H   0  0  0  0  0  0
  -17.5035  -31.6276   24.5184 H   0  0  0  0  0  0
  -15.5367  -30.3015   23.7652 H   0  0  0  0  0  0
  -15.8686  -28.0869   22.7015 H   0  0  0  0  0  0
  -24.6015  -30.6946   25.7732 H   0  0  0  0  0  0
  -24.8809  -32.2800   26.4822 H   0  0  0  0  0  0
  -25.8087  -30.8911   27.0215 H   0  0  0  0  0  0
  -26.2892  -29.6814   24.1211 H   0  0  0  0  0  0
  -27.4066  -29.7318   25.4663 H   0  0  0  0  0  0
  -27.8771  -30.4350   23.9374 H   0  0  0  0  0  0
  -27.2813  -33.3652   26.2031 H   0  0  0  0  0  0
  -28.3979  -32.6732   25.0350 H   0  0  0  0  0  0
  -28.0709  -31.8400   26.5437 H   0  0  0  0  0  0
  -28.2584  -38.0103   24.7530 H   0  0  0  0  0  0
  -28.1053  -36.2630   24.6271 H   0  0  0  0  0  0
  -27.2287  -37.1430   25.8873 H   0  0  0  0  0  0
  -20.9357  -29.8843   21.6911 H   0  0  0  0  0  0
  -26.0144  -38.2851   24.1442 H   0  0  0  0  0  0
  -32.3664  -16.9503   20.9210 H   0  0  0  0  0  0
  -32.1150  -24.0274   21.9397 H   0  0  0  0  0  0
  -33.3969  -23.2887   22.9073 H   0  0  0  0  0  0
  -34.4132  -22.3249   20.9682 H   0  0  0  0  0  0
  -33.7648  -23.7899   20.2397 H   0  0  0  0  0  0
  -27.2831  -23.0914   17.1671 H   0  0  0  0  0  0
  -26.8086  -21.5492   17.8576 H   0  0  0  0  0  0
  -26.2498  -22.4552   19.9107 H   0  0  0  0  0  0
  -26.1104  -23.9480   19.0582 H   0  0  0  0  0  0
  -30.9499  -22.1509   22.7838 H   0  0  0  0  0  0
  -32.3756  -21.1220   22.7648 H   0  0  0  0  0  0
  -33.0837  -21.2011   19.3964 H   0  0  0  0  0  0
  -32.0481  -22.5882   19.1679 H   0  0  0  0  0  0
  -29.4920  -22.8690   17.8312 H   0  0  0  0  0  0
  -29.1566  -21.1661   18.0690 H   0  0  0  0  0  0
  -27.8672  -23.7001   21.1582 H   0  0  0  0  0  0
  -27.4920  -18.5254   19.3240 H   0  0  0  0  0  0
  -27.2521  -18.5648   21.0770 H   0  0  0  0  0  0
  -27.6536  -17.0627   20.2767 H   0  0  0  0  0  0
  -28.6389  -21.3713   21.6432 H   0  0  0  0  0  0
  -27.7309  -20.7507   20.3128 H   0  0  0  0  0  0
  -28.2405  -25.2073   18.5067 H   0  0  0  0  0  0
  -29.6249  -25.0357   19.4951 H   0  0  0  0  0  0
  -28.9028  -15.7008   20.7294 H   0  0  0  0  0  0
  -29.9544  -22.6481   20.0425 H   0  0  0  0  0  0
  1 25  1  0  0  0
  1 30  2  0  0  0
  1 89  1  0  0  0
  2  3  1  0  0  0
  2 25  1  0  0  0
  2 92  1  0  0  0
  2 93  1  0  0  0
  3  4  1  0  0  0
  3 94  1  0  0  0
  3 95  1  0  0  0
  4  5  1  0  0  0
  4 96  1  0  0  0
  4 97  1  0  0  0
  5  6  1  0  0  0
  5 26  1  0  0  0
  5 98  1  0  0  0
  6 25  1  0  0  0
  6 99  1  0  0  0
  6100  1  0  0  0
  7  8  2  0  0  0
  7 26  1  0  0  0
  7 29  1  0  0  0
  8  9  1  0  0  0
  8 22  1  0  0  0
  9 10  1  0  0  0
  9 27  2  0  0  0
 10 11  2  0  0  0
 10 15  1  0  0  0
 11 12  1  0  0  0
 11101  1  0  0  0
 12 13  2  0  0  0
 12102  1  0  0  0
 13 14  1  0  0  0
 13 31  1  0  0  0
 14 15  2  0  0  0
 14103  1  0  0  0
 15104  1  0  0  0
 16 17  2  0  0  0
 16 21  1  0  0  0
 16 31  1  0  0  0
 17 18  1  0  0  0
 17105  1  0  0  0
 18 19  2  0  0  0
 18106  1  0  0  0
 19 20  1  0  0  0
 19 24  1  0  0  0
 20 21  2  0  0  0
 20107  1  0  0  0
 21 23  1  0  0  0
 22 28  1  0  0  0
 22 32  2  0  0  0
 26 27  1  0  0  0
 28108  1  0  0  0
 28109  1  0  0  0
 29110  1  0  0  0
 29111  1  0  0  0
 33 34  1  0  0  0
 33 66  1  0  0  0
 33 70  2  0  0  0
 34 36  1  0  0  0
 34 59  1  0  0  0
 34112  1  0  0  0
 35 44  2  0  0  0
 35 45  1  0  0  0
 35 68  1  0  0  0
 36 56  1  0  0  0
 36113  1  0  0  0
 37 39  1  0  0  0
 37 47  1  0  0  0
 37 66  1  0  0  0
 37114  1  0  0  0
 38 43  2  0  0  0
 38 46  1  0  0  0
 38 47  1  0  0  0
 39 64  1  0  0  0
 39 67  2  0  0  0
 40 52  1  0  0  0
 40 53  2  0  0  0
 40 58  1  0  0  0
 41115  1  0  0  0
 41116  1  0  0  0
 41117  1  0  0  0
 41 48  1  0  0  0
 42 43  1  0  0  0
 42 66  1  0  0  0
 42118  1  0  0  0
 42119  1  0  0  0
 43 44  1  0  0  0
 44120  1  0  0  0
 45 46  2  0  0  0
 45121  1  0  0  0
 46122  1  0  0  0
 47123  1  0  0  0
 47124  1  0  0  0
 48 56  1  0  0  0
 48 65  1  0  0  0
 48125  1  0  0  0
 49 50  1  0  0  0
 49 53  1  0  0  0
 49 64  1  0  0  0
 49126  1  0  0  0
 50 51  1  0  0  0
 50127  1  0  0  0
 50128  1  0  0  0
 51 52  1  0  0  0
 51129  1  0  0  0
 51130  1  0  0  0
 52131  1  0  0  0
 52132  1  0  0  0
 53 54  1  0  0  0
 54 55  2  0  0  0
 54133  1  0  0  0
 55 57  1  0  0  0
 55134  1  0  0  0
 56 69  2  0  0  0
 57 58  2  0  0  0
 57135  1  0  0  0
 58136  1  0  0  0
 59 60  1  0  0  0
 59 61  1  0  0  0
 59 62  1  0  0  0
 60137  1  0  0  0
 60138  1  0  0  0
 60139  1  0  0  0
 61140  1  0  0  0
 61141  1  0  0  0
 61142  1  0  0  0
 62143  1  0  0  0
 62144  1  0  0  0
 62145  1  0  0  0
 63 65  1  0  0  0
 63146  1  0  0  0
 63147  1  0  0  0
 63148  1  0  0  0
 64149  1  0  0  0
 65150  1  0  0  0
 68 87  1  0  0  0
 71 75  2  0  0  0
 71 76  1  0  0  0
 71151  1  0  0  0
 72 73  2  0  0  0
 72 74  1  0  0  0
 72 86  1  0  0  0
 73 75  1  0  0  0
 73 85  1  0  0  0
 74 76  2  0  0  0
 74 88  1  0  0  0
 75 89  1  0  0  0
 76 91  1  0  0  0
 77 78  1  0  0  0
 77 81  1  0  0  0
 77152  1  0  0  0
 77153  1  0  0  0
 78 82  1  0  0  0
 78154  1  0  0  0
 78155  1  0  0  0
 79 80  1  0  0  0
 79 83  1  0  0  0
 79156  1  0  0  0
 79157  1  0  0  0
 80 84  1  0  0  0
 80158  1  0  0  0
 80159  1  0  0  0
 81 88  1  0  0  0
 81160  1  0  0  0
 81161  1  0  0  0
 82 88  1  0  0  0
 82162  1  0  0  0
 82163  1  0  0  0
 83 90  1  0  0  0
 83164  1  0  0  0
 83165  1  0  0  0
 84 87  1  0  0  0
 84 90  1  0  0  0
 84166  1  0  0  0
 85167  1  0  0  0
 85168  1  0  0  0
 85169  1  0  0  0
 86170  1  0  0  0
 86171  1  0  0  0
 86 90  1  0  0  0
 87172  1  0  0  0
 87173  1  0  0  0
 89174  1  0  0  0
 90175  1  0  0  0
M  CHG  1  90   1
M  ISO  4   1 100  68 101  87 101  89 100
M  END
> <chiral flag>
0

> <version>
0

> <s_m_source_file>
/data/baiqing/PycharmProjects/Reinvent-master-3.2/result/LINK_invent/BTK/process_docking_weight1_custom_product_contain_oxygen_bond_distance_aromatic_linkinvent_7_9_3/rearranged_h_0025.sdf

> <i_m_source_file_index>
70

> <r_mmod_Potential_Energy-OPLS-2005>
312.076019287109

> <r_mmod_Stretch_Energy-OPLS-2005>
137.624053955078

> <r_mmod_Bend_Energy-OPLS-2005>
253.665618896484

> <r_mmod_Torsional_Energy-OPLS-2005>
366.380157470703

> <r_mmod_Improper_Torsional_Energy-OPLS-2005>
11.1467752456665

> <r_mmod_Van_der_Waal_Energy-OPLS-2005>
142.564529418945

> <r_mmod_Electrostatic_Energy-OPLS-2005>
-265.577789306641

> <r_mmod_Solvation_Energy-OPLS-2005>
-410.033721923828

> <b_mmod_Minimization_Converged-OPLS-2005>
0

> <r_mmod_RMS_Derivative-OPLS-2005>
3.02565693855286

$$$$
70
                    3D
 Structure written by MMmdl.
150159  0  0  1  0            999 V2000
  -30.4989  -15.0141   20.4262 C   0  0  0  0  0  0
  -30.4526  -12.6283   19.5141 C   0  0  0  0  0  0
  -29.5356  -12.5553   18.2692 C   0  0  0  0  0  0
  -28.0647  -12.3464   18.6760 C   0  0  0  0  0  0
  -27.6349  -13.2589   19.8540 C   0  0  2  0  0  0
  -28.6804  -13.2793   20.9921 C   0  0  0  0  0  0
  -25.2435  -13.8195   20.5687 C   0  0  0  0  0  0
  -24.1761  -13.0416   20.9213 C   0  0  0  0  0  0
  -24.6411  -11.6910   20.8786 C   0  0  0  0  0  0
  -23.9092  -10.4284   21.0434 C   0  0  0  0  0  0
  -24.3628   -9.4197   21.9206 C   0  0  0  0  0  0
  -23.6275   -8.2243   22.0767 C   0  0  0  0  0  0
  -22.4267   -8.0294   21.3540 C   0  0  0  0  0  0
  -21.9916   -9.0282   20.4669 C   0  0  0  0  0  0
  -22.7263  -10.2144   20.3085 C   0  0  0  0  0  0
  -21.6844   -6.0737   22.5262 C   0  0  0  0  0  0
  -21.4019   -6.5623   23.8207 C   0  0  0  0  0  0
  -21.3669   -5.6781   24.9160 C   0  0  0  0  0  0
  -21.6050   -4.3039   24.7215 C   0  0  0  0  0  0
  -21.8808   -3.8140   23.4329 C   0  0  0  0  0  0
  -21.9182   -4.6954   22.3389 C   0  0  0  0  0  0
  -22.7775  -13.5213   21.1819 C   0  0  0  0  0  0
  -22.1657   -4.2145   21.0964 F   0  0  0  0  0  0
  -21.5613   -3.4520   25.7735 F   0  0  0  0  0  0
  -29.9522  -13.7229   20.4011 N   0  0  0  0  0  0
  -26.2915  -12.9473   20.3332 N   0  0  0  0  0  0
  -25.9368  -11.6598   20.5818 N   0  0  0  0  0  0
  -22.0385  -12.8280   22.0402 N   0  0  0  0  0  0
  -25.4027  -15.1900   20.3997 N   0  0  0  0  0  0
  -31.6890  -15.1142   20.1023 O   0  0  0  0  0  0
  -21.6630   -6.8882   21.4240 O   0  0  0  0  0  0
  -22.3480  -14.5504   20.6628 O   0  0  0  0  0  0
  -24.6468  -31.8351   23.1814 C   0  0  0  0  0  0
  -25.9207  -32.4634   23.8236 C   0  0  1  0  0  0
  -27.2293  -27.0784   20.1798 C   0  0  0  0  0  0
  -25.5935  -33.8443   24.2141 N   0  0  0  0  0  0
  -23.4564  -30.4504   21.5254 C   0  0  2  0  0  0
  -24.9117  -28.8610   20.1116 C   0  0  0  0  0  0
  -22.7588  -29.4475   22.4805 C   0  0  0  0  0  0
  -18.0312  -28.1393   22.8476 C   0  0  0  0  0  0
  -24.1489  -36.7260   23.2641 C   0  0  0  0  0  0
  -26.0159  -30.6911   21.3906 C   0  0  0  0  0  0
  -26.0892  -29.2969   20.7335 C   0  0  0  0  0  0
  -27.2486  -28.4252   20.7414 C   0  0  0  0  0  0
  -26.0232  -26.7464   19.5266 C   0  0  0  0  0  0
  -24.8950  -27.6016   19.4886 C   0  0  0  0  0  0
  -23.6905  -29.7710   20.1483 C   0  0  0  0  0  0
  -25.4113  -36.2997   24.0308 C   0  0  1  0  0  0
  -20.5920  -28.3712   23.1222 C   0  0  2  0  0  0
  -20.6786  -26.9401   22.5413 C   0  0  0  0  0  0
  -19.5757  -26.6362   21.5224 C   0  0  0  0  0  0
  -18.1942  -26.7932   22.1628 C   0  0  0  0  0  0
  -19.1566  -28.8872   23.2844 C   0  0  0  0  0  0
  -18.9491  -30.1474   23.8867 C   0  0  0  0  0  0
  -17.6482  -30.6589   24.0551 C   0  0  0  0  0  0
  -25.9082  -34.9371   23.5048 C   0  0  0  0  0  0
  -16.5371  -29.9084   23.6322 C   0  0  0  0  0  0
  -16.7294  -28.6496   23.0351 C   0  0  0  0  0  0
  -26.4507  -31.6545   25.0712 C   0  0  0  0  0  0
  -25.3686  -31.3815   26.1421 C   0  0  0  0  0  0
  -27.0375  -30.2913   24.6386 C   0  0  0  0  0  0
  -27.6008  -32.4351   25.7499 C   0  0  0  0  0  0
  -27.5573  -37.1760   24.8438 C   0  0  0  0  0  0
  -21.4264  -29.3039   22.3585 N   0  0  0  0  0  0
  -26.4267  -37.3720   23.9407 N   0  0  0  0  0  0
  -24.7258  -31.0165   22.0872 N   0  0  0  0  0  0
  -23.4203  -28.8027   23.2977 O   0  0  0  0  0  0
  -28.2904  -26.0857   20.2322 O   0  0  0  0  0  0
  -26.5701  -34.8877   22.4648 O   0  0  0  0  0  0
  -23.5567  -32.1248   23.7004 O   0  0  0  0  0  0
  -30.1815  -20.1614   19.9799 C   0  0  0  0  0  0
  -30.4610  -18.7078   20.0209 C   0  0  0  0  0  0
  -28.1823  -19.8199   21.0561 C   0  0  0  0  0  0
  -29.0031  -20.8555   20.4813 C   0  0  0  0  0  0
  -29.5857  -17.7044   20.5882 C   0  0  0  0  0  0
  -28.4338  -18.3848   21.1186 C   0  0  0  0  0  0
  -28.2486  -23.3155   19.3733 C   0  0  0  0  0  0
  -29.0939  -23.5472   21.2174 C   0  0  0  0  0  0
  -28.0692  -24.5276   20.4344 C   0  0  0  0  0  0
  -28.5349  -22.3494   20.4957 N   0  0  0  0  0  0
  -29.6571  -16.1451   20.6780 N   0  0  0  0  0  0
  -27.2452  -17.4224   21.9179 Cl  0  0  0  0  0  0
  -31.4831  -12.8018   19.2037 H   0  0  0  0  0  0
  -30.4613  -11.6766   20.0440 H   0  0  0  0  0  0
  -29.8558  -11.7522   17.6049 H   0  0  0  0  0  0
  -29.6303  -13.4808   17.6982 H   0  0  0  0  0  0
  -27.9434  -11.3003   18.9564 H   0  0  0  0  0  0
  -27.4152  -12.5104   17.8154 H   0  0  0  0  0  0
  -27.5961  -14.2675   19.4427 H   0  0  0  0  0  0
  -28.7759  -12.2958   21.4554 H   0  0  0  0  0  0
  -28.3724  -13.9632   21.7844 H   0  0  0  0  0  0
  -25.2761   -9.5646   22.4794 H   0  0  0  0  0  0
  -23.9956   -7.4626   22.7489 H   0  0  0  0  0  0
  -21.0833   -8.8851   19.8959 H   0  0  0  0  0  0
  -22.3746  -10.9709   19.6215 H   0  0  0  0  0  0
  -21.2018   -7.6132   23.9712 H   0  0  0  0  0  0
  -21.1507   -6.0500   25.9072 H   0  0  0  0  0  0
  -22.0574   -2.7593   23.2830 H   0  0  0  0  0  0
  -22.3937  -11.9933   22.4832 H   0  0  0  0  0  0
  -21.1026  -13.1388   22.2599 H   0  0  0  0  0  0
  -24.6412  -15.8438   20.5362 H   0  0  0  0  0  0
  -26.2618  -15.6447   20.1197 H   0  0  0  0  0  0
  -26.7285  -32.5228   23.0978 H   0  0  0  0  0  0
  -24.9967  -33.9541   25.0207 H   0  0  0  0  0  0
  -22.7623  -31.2773   21.3596 H   0  0  0  0  0  0
  -23.3718  -35.9629   23.3313 H   0  0  0  0  0  0
  -24.3573  -36.8878   22.2051 H   0  0  0  0  0  0
  -23.7291  -37.6476   23.6690 H   0  0  0  0  0  0
  -26.1850  -31.4401   20.6168 H   0  0  0  0  0  0
  -26.8806  -30.7421   22.0407 H   0  0  0  0  0  0
  -28.1458  -28.7543   21.2469 H   0  0  0  0  0  0
  -25.9360  -25.7757   19.0600 H   0  0  0  0  0  0
  -23.9988  -27.2587   18.9904 H   0  0  0  0  0  0
  -23.8366  -30.5404   19.3895 H   0  0  0  0  0  0
  -22.8058  -29.2164   19.8307 H   0  0  0  0  0  0
  -25.1299  -36.1816   25.0799 H   0  0  0  0  0  0
  -21.0028  -28.3325   24.1336 H   0  0  0  0  0  0
  -20.5640  -26.2339   23.3651 H   0  0  0  0  0  0
  -21.6656  -26.7365   22.1227 H   0  0  0  0  0  0
  -19.6901  -25.6262   21.1281 H   0  0  0  0  0  0
  -19.6697  -27.3146   20.6734 H   0  0  0  0  0  0
  -17.4204  -26.6664   21.4047 H   0  0  0  0  0  0
  -18.0324  -26.0094   22.9031 H   0  0  0  0  0  0
  -19.7971  -30.7300   24.2224 H   0  0  0  0  0  0
  -17.5034  -31.6267   24.5147 H   0  0  0  0  0  0
  -15.5367  -30.2969   23.7674 H   0  0  0  0  0  0
  -15.8693  -28.0802   22.7086 H   0  0  0  0  0  0
  -24.5789  -30.7245   25.7764 H   0  0  0  0  0  0
  -24.8989  -32.3046   26.4832 H   0  0  0  0  0  0
  -25.7946  -30.8973   27.0218 H   0  0  0  0  0  0
  -26.3008  -29.6631   24.1363 H   0  0  0  0  0  0
  -27.3878  -29.7244   25.5027 H   0  0  0  0  0  0
  -27.8973  -30.4101   23.9786 H   0  0  0  0  0  0
  -27.2525  -33.3607   26.2113 H   0  0  0  0  0  0
  -28.3791  -32.7004   25.0328 H   0  0  0  0  0  0
  -28.0729  -31.8491   26.5401 H   0  0  0  0  0  0
  -28.2550  -38.0089   24.7513 H   0  0  0  0  0  0
  -28.1116  -36.2629   24.6221 H   0  0  0  0  0  0
  -27.2330  -37.1346   25.8848 H   0  0  0  0  0  0
  -20.9489  -29.8798   21.6793 H   0  0  0  0  0  0
  -26.0131  -38.2781   24.1436 H   0  0  0  0  0  0
  -30.9392  -20.7803   19.5199 H   0  0  0  0  0  0
  -31.3901  -18.3716   19.5837 H   0  0  0  0  0  0
  -27.2504  -20.1431   21.4986 H   0  0  0  0  0  0
  -29.1061  -23.4424   18.7015 H   0  0  0  0  0  0
  -27.3434  -23.0803   18.8016 H   0  0  0  0  0  0
  -28.9586  -23.5327   22.3023 H   0  0  0  0  0  0
  -30.1462  -23.7270   20.9715 H   0  0  0  0  0  0
  -27.0899  -24.4219   20.9124 H   0  0  0  0  0  0
  -28.7681  -15.7959   21.0044 H   0  0  0  0  0  0
  1 25  1  0  0  0
  1 30  2  0  0  0
  1 81  1  0  0  0
  2  3  1  0  0  0
  2 25  1  0  0  0
  2 83  1  0  0  0
  2 84  1  0  0  0
  3  4  1  0  0  0
  3 85  1  0  0  0
  3 86  1  0  0  0
  4  5  1  0  0  0
  4 87  1  0  0  0
  4 88  1  0  0  0
  5  6  1  0  0  0
  5 26  1  0  0  0
  5 89  1  0  0  0
  6 25  1  0  0  0
  6 90  1  0  0  0
  6 91  1  0  0  0
  7  8  2  0  0  0
  7 26  1  0  0  0
  7 29  1  0  0  0
  8  9  1  0  0  0
  8 22  1  0  0  0
  9 10  1  0  0  0
  9 27  2  0  0  0
 10 11  2  0  0  0
 10 15  1  0  0  0
 11 12  1  0  0  0
 11 92  1  0  0  0
 12 13  2  0  0  0
 12 93  1  0  0  0
 13 14  1  0  0  0
 13 31  1  0  0  0
 14 15  2  0  0  0
 14 94  1  0  0  0
 15 95  1  0  0  0
 16 17  2  0  0  0
 16 21  1  0  0  0
 16 31  1  0  0  0
 17 18  1  0  0  0
 17 96  1  0  0  0
 18 19  2  0  0  0
 18 97  1  0  0  0
 19 20  1  0  0  0
 19 24  1  0  0  0
 20 21  2  0  0  0
 20 98  1  0  0  0
 21 23  1  0  0  0
 22 28  1  0  0  0
 22 32  2  0  0  0
 26 27  1  0  0  0
 28 99  1  0  0  0
 28100  1  0  0  0
 29101  1  0  0  0
 29102  1  0  0  0
 33 34  1  0  0  0
 33 66  1  0  0  0
 33 70  2  0  0  0
 34 36  1  0  0  0
 34 59  1  0  0  0
 34103  1  0  0  0
 35 44  2  0  0  0
 35 45  1  0  0  0
 35 68  1  0  0  0
 36 56  1  0  0  0
 36104  1  0  0  0
 37 39  1  0  0  0
 37 47  1  0  0  0
 37 66  1  0  0  0
 37105  1  0  0  0
 38 43  2  0  0  0
 38 46  1  0  0  0
 38 47  1  0  0  0
 39 64  1  0  0  0
 39 67  2  0  0  0
 40 52  1  0  0  0
 40 53  2  0  0  0
 40 58  1  0  0  0
 41106  1  0  0  0
 41107  1  0  0  0
 41108  1  0  0  0
 41 48  1  0  0  0
 42 43  1  0  0  0
 42 66  1  0  0  0
 42109  1  0  0  0
 42110  1  0  0  0
 43 44  1  0  0  0
 44111  1  0  0  0
 45 46  2  0  0  0
 45112  1  0  0  0
 46113  1  0  0  0
 47114  1  0  0  0
 47115  1  0  0  0
 48 56  1  0  0  0
 48 65  1  0  0  0
 48116  1  0  0  0
 49 50  1  0  0  0
 49 53  1  0  0  0
 49 64  1  0  0  0
 49117  1  0  0  0
 50 51  1  0  0  0
 50118  1  0  0  0
 50119  1  0  0  0
 51 52  1  0  0  0
 51120  1  0  0  0
 51121  1  0  0  0
 52122  1  0  0  0
 52123  1  0  0  0
 53 54  1  0  0  0
 54 55  2  0  0  0
 54124  1  0  0  0
 55 57  1  0  0  0
 55125  1  0  0  0
 56 69  2  0  0  0
 57 58  2  0  0  0
 57126  1  0  0  0
 58127  1  0  0  0
 59 60  1  0  0  0
 59 61  1  0  0  0
 59 62  1  0  0  0
 60128  1  0  0  0
 60129  1  0  0  0
 60130  1  0  0  0
 61131  1  0  0  0
 61132  1  0  0  0
 61133  1  0  0  0
 62134  1  0  0  0
 62135  1  0  0  0
 62136  1  0  0  0
 63 65  1  0  0  0
 63137  1  0  0  0
 63138  1  0  0  0
 63139  1  0  0  0
 64140  1  0  0  0
 65141  1  0  0  0
 68 79  1  0  0  0
 71 72  2  0  0  0
 71 74  1  0  0  0
 71142  1  0  0  0
 72 75  1  0  0  0
 72143  1  0  0  0
 73 74  2  0  0  0
 73 76  1  0  0  0
 73144  1  0  0  0
 74 80  1  0  0  0
 75 76  2  0  0  0
 75 81  1  0  0  0
 76 82  1  0  0  0
 77 79  1  0  0  0
 77 80  1  0  0  0
 77145  1  0  0  0
 77146  1  0  0  0
 78 79  1  0  0  0
 78 80  1  0  0  0
 78147  1  0  0  0
 78148  1  0  0  0
 79149  1  0  0  0
 81150  1  0  0  0
M  ISO  4   1 100  68 101  79 101  81 100
M  END
> <chiral flag>
0

> <version>
0

> <s_m_source_file>
/data/baiqing/PycharmProjects/Reinvent-master-3.2/result/LINK_invent/BTK/process_docking_weight1_custom_product_contain_oxygen_bond_distance_aromatic_linkinvent_7_9_3/rearranged_h_0025.sdf

> <i_m_source_file_index>
71

> <r_mmod_Potential_Energy-OPLS-2005>
681.669372558594

> <r_mmod_Stretch_Energy-OPLS-2005>
276.303894042969

> <r_mmod_Bend_Energy-OPLS-2005>
392.192047119141

> <r_mmod_Torsional_Energy-OPLS-2005>
255.152236938477

> <r_mmod_Improper_Torsional_Energy-OPLS-2005>
8.19526386260986

> <r_mmod_Van_der_Waal_Energy-OPLS-2005>
126.680152893066

> <r_mmod_Electrostatic_Energy-OPLS-2005>
-395.466217041016

> <r_mmod_Solvation_Energy-OPLS-2005>
-221.788757324219

> <b_mmod_Minimization_Converged-OPLS-2005>
0

> <r_mmod_RMS_Derivative-OPLS-2005>
4.12817668914795

$$$$
71
                    3D
 Structure written by MMmdl.
156165  0  0  1  0            999 V2000
  -30.5221  -14.9001   20.4480 C   0  0  0  0  0  0
  -30.4539  -12.5555   19.4929 C   0  0  0  0  0  0
  -29.5251  -12.5342   18.2545 C   0  0  0  0  0  0
  -28.0555  -12.3246   18.6690 C   0  0  0  0  0  0
  -27.6408  -13.2374   19.8521 C   0  0  2  0  0  0
  -28.6850  -13.2072   20.9902 C   0  0  0  0  0  0
  -25.2474  -13.8165   20.5632 C   0  0  0  0  0  0
  -24.1787  -13.0414   20.9189 C   0  0  0  0  0  0
  -24.6402  -11.6901   20.8751 C   0  0  0  0  0  0
  -23.9078  -10.4281   21.0410 C   0  0  0  0  0  0
  -24.3624   -9.4197   21.9189 C   0  0  0  0  0  0
  -23.6293   -8.2236   22.0758 C   0  0  0  0  0  0
  -22.4276   -8.0278   21.3545 C   0  0  0  0  0  0
  -21.9915   -9.0253   20.4647 C   0  0  0  0  0  0
  -22.7249  -10.2128   20.3058 C   0  0  0  0  0  0
  -21.6852   -6.0734   22.5279 C   0  0  0  0  0  0
  -21.4013   -6.5638   23.8212 C   0  0  0  0  0  0
  -21.3659   -5.6792   24.9174 C   0  0  0  0  0  0
  -21.6044   -4.3054   24.7225 C   0  0  0  0  0  0
  -21.8819   -3.8145   23.4346 C   0  0  0  0  0  0
  -21.9192   -4.6962   22.3402 C   0  0  0  0  0  0
  -22.7812  -13.5201   21.1858 C   0  0  0  0  0  0
  -22.1661   -4.2147   21.0980 F   0  0  0  0  0  0
  -21.5629   -3.4538   25.7738 F   0  0  0  0  0  0
  -29.9728  -13.6224   20.4121 N   0  0  0  0  0  0
  -26.2935  -12.9398   20.3284 N   0  0  0  0  0  0
  -25.9344  -11.6538   20.5772 N   0  0  0  0  0  0
  -22.0468  -12.8196   22.0427 N   0  0  0  0  0  0
  -25.4086  -15.1868   20.3936 N   0  0  0  0  0  0
  -31.6986  -15.0444   20.0972 O   0  0  0  0  0  0
  -21.6638   -6.8877   21.4241 O   0  0  0  0  0  0
  -22.3487  -14.5506   20.6711 O   0  0  0  0  0  0
  -24.6422  -31.8461   23.1897 C   0  0  0  0  0  0
  -25.9200  -32.4706   23.8281 C   0  0  1  0  0  0
  -27.2208  -27.1541   20.1503 C   0  0  0  0  0  0
  -25.5953  -33.8511   24.2198 N   0  0  0  0  0  0
  -23.4450  -30.4661   21.5355 C   0  0  2  0  0  0
  -24.8946  -28.8953   20.1136 C   0  0  0  0  0  0
  -22.7564  -29.4559   22.4870 C   0  0  0  0  0  0
  -18.0307  -28.1397   22.8476 C   0  0  0  0  0  0
  -24.1490  -36.7260   23.2643 C   0  0  0  0  0  0
  -26.0001  -30.7255   21.3865 C   0  0  0  0  0  0
  -26.0722  -29.3378   20.7296 C   0  0  0  0  0  0
  -27.2370  -28.4842   20.7296 C   0  0  0  0  0  0
  -26.0172  -26.8121   19.4931 C   0  0  0  0  0  0
  -24.8791  -27.6449   19.4803 C   0  0  0  0  0  0
  -23.6709  -29.7960   20.1550 C   0  0  0  0  0  0
  -25.4122  -36.3039   24.0318 C   0  0  1  0  0  0
  -20.5918  -28.3721   23.1238 C   0  0  2  0  0  0
  -20.6792  -26.9426   22.5404 C   0  0  0  0  0  0
  -19.5764  -26.6382   21.5214 C   0  0  0  0  0  0
  -18.1946  -26.7934   22.1625 C   0  0  0  0  0  0
  -19.1563  -28.8876   23.2849 C   0  0  0  0  0  0
  -18.9481  -30.1473   23.8873 C   0  0  0  0  0  0
  -17.6478  -30.6592   24.0560 C   0  0  0  0  0  0
  -25.9073  -34.9414   23.5066 C   0  0  0  0  0  0
  -16.5368  -29.9087   23.6335 C   0  0  0  0  0  0
  -16.7292  -28.6507   23.0353 C   0  0  0  0  0  0
  -26.4524  -31.6570   25.0717 C   0  0  0  0  0  0
  -25.3709  -31.3754   26.1411 C   0  0  0  0  0  0
  -27.0395  -30.2972   24.6287 C   0  0  0  0  0  0
  -27.6053  -32.4337   25.7502 C   0  0  0  0  0  0
  -27.5576  -37.1787   24.8467 C   0  0  0  0  0  0
  -21.4259  -29.3050   22.3614 N   0  0  0  0  0  0
  -26.4287  -37.3751   23.9409 N   0  0  0  0  0  0
  -24.7155  -31.0332   22.0925 N   0  0  0  0  0  0
  -23.4211  -28.8108   23.3018 O   0  0  0  0  0  0
  -28.2867  -26.1867   20.1910 O   0  0  0  0  0  0
  -26.5658  -34.8907   22.4645 O   0  0  0  0  0  0
  -23.5544  -32.1331   23.7126 O   0  0  0  0  0  0
  -30.1236  -19.9304   20.0357 C   0  0  0  0  0  0
  -30.3905  -18.4870   20.0214 C   0  0  0  0  0  0
  -29.0216  -20.5555   20.7265 C   0  0  0  0  0  0
  -29.5795  -17.5049   20.6983 C   0  0  0  0  0  0
  -28.2179  -19.5549   21.3774 C   0  0  0  0  0  0
  -28.4839  -18.1338   21.3716 C   0  0  0  0  0  0
  -30.0315  -23.2599   22.4759 C   0  0  0  0  0  0
  -30.3253  -23.7403   21.0517 C   0  0  0  0  0  0
  -28.8251  -22.3179   22.3455 C   0  0  0  0  0  0
  -29.0663  -23.3666   20.2735 C   0  0  2  0  0  0
  -27.9977  -24.6705   20.3686 C   0  0  0  0  0  0
  -28.6933  -22.0048   20.9203 N   0  0  0  0  0  0
  -29.6632  -15.9759   20.7510 N   0  0  0  0  0  0
  -27.1271  -19.9758   22.0692 F   0  0  0  0  0  0
  -27.4043  -17.1180   22.2659 Cl  0  0  0  0  0  0
  -31.4861  -12.7249   19.1820 H   0  0  0  0  0  0
  -30.4502  -11.5874   19.9964 H   0  0  0  0  0  0
  -29.8345  -11.7497   17.5627 H   0  0  0  0  0  0
  -29.6198  -13.4760   17.7116 H   0  0  0  0  0  0
  -27.9408  -11.2786   18.9556 H   0  0  0  0  0  0
  -27.3931  -12.4811   17.8169 H   0  0  0  0  0  0
  -27.6209  -14.2514   19.4521 H   0  0  0  0  0  0
  -28.7584  -12.2089   21.4241 H   0  0  0  0  0  0
  -28.3879  -13.8691   21.8052 H   0  0  0  0  0  0
  -25.2768   -9.5671   22.4766 H   0  0  0  0  0  0
  -23.9999   -7.4626   22.7479 H   0  0  0  0  0  0
  -21.0846   -8.8774   19.8953 H   0  0  0  0  0  0
  -22.3711  -10.9668   19.6168 H   0  0  0  0  0  0
  -21.2006   -7.6146   23.9715 H   0  0  0  0  0  0
  -21.1481   -6.0521   25.9077 H   0  0  0  0  0  0
  -22.0599   -2.7607   23.2847 H   0  0  0  0  0  0
  -22.4092  -11.9859   22.4810 H   0  0  0  0  0  0
  -21.1090  -13.1224   22.2648 H   0  0  0  0  0  0
  -24.6450  -15.8382   20.5333 H   0  0  0  0  0  0
  -26.2643  -15.6389   20.1033 H   0  0  0  0  0  0
  -26.7267  -32.5321   23.1013 H   0  0  0  0  0  0
  -25.0075  -33.9628   25.0327 H   0  0  0  0  0  0
  -22.7469  -31.2916   21.3818 H   0  0  0  0  0  0
  -23.3758  -35.9587   23.3298 H   0  0  0  0  0  0
  -24.3577  -36.8900   22.2060 H   0  0  0  0  0  0
  -23.7239  -37.6451   23.6685 H   0  0  0  0  0  0
  -26.1534  -31.4806   20.6142 H   0  0  0  0  0  0
  -26.8714  -30.7758   22.0278 H   0  0  0  0  0  0
  -28.1359  -28.8210   21.2266 H   0  0  0  0  0  0
  -25.9225  -25.8688   18.9793 H   0  0  0  0  0  0
  -23.9828  -27.3033   18.9808 H   0  0  0  0  0  0
  -23.8079  -30.5705   19.3994 H   0  0  0  0  0  0
  -22.7860  -29.2382   19.8436 H   0  0  0  0  0  0
  -25.1309  -36.1870   25.0810 H   0  0  0  0  0  0
  -21.0007  -28.3309   24.1362 H   0  0  0  0  0  0
  -20.5694  -26.2334   23.3623 H   0  0  0  0  0  0
  -21.6657  -26.7439   22.1198 H   0  0  0  0  0  0
  -19.6927  -25.6287   21.1260 H   0  0  0  0  0  0
  -19.6699  -27.3178   20.6731 H   0  0  0  0  0  0
  -17.4215  -26.6679   21.4028 H   0  0  0  0  0  0
  -18.0344  -26.0081   22.9026 H   0  0  0  0  0  0
  -19.7958  -30.7295   24.2230 H   0  0  0  0  0  0
  -17.5033  -31.6270   24.5168 H   0  0  0  0  0  0
  -15.5367  -30.2982   23.7673 H   0  0  0  0  0  0
  -15.8692  -28.0821   22.7074 H   0  0  0  0  0  0
  -24.5891  -30.7101   25.7727 H   0  0  0  0  0  0
  -24.8890  -32.2934   26.4785 H   0  0  0  0  0  0
  -25.7987  -30.8958   27.0222 H   0  0  0  0  0  0
  -26.3013  -29.6690   24.1288 H   0  0  0  0  0  0
  -27.4015  -29.7273   25.4854 H   0  0  0  0  0  0
  -27.8914  -30.4221   23.9599 H   0  0  0  0  0  0
  -27.2646  -33.3657   26.2025 H   0  0  0  0  0  0
  -28.3891  -32.6870   25.0350 H   0  0  0  0  0  0
  -28.0692  -31.8500   26.5464 H   0  0  0  0  0  0
  -28.2588  -38.0089   24.7514 H   0  0  0  0  0  0
  -28.1077  -36.2619   24.6296 H   0  0  0  0  0  0
  -27.2294  -37.1435   25.8871 H   0  0  0  0  0  0
  -20.9470  -29.8761   21.6792 H   0  0  0  0  0  0
  -26.0156  -38.2820   24.1411 H   0  0  0  0  0  0
  -30.8149  -20.5726   19.5099 H   0  0  0  0  0  0
  -31.2487  -18.1384   19.4646 H   0  0  0  0  0  0
  -29.7960  -24.0919   23.1411 H   0  0  0  0  0  0
  -30.8981  -22.7437   22.8914 H   0  0  0  0  0  0
  -31.1815  -23.1970   20.6490 H   0  0  0  0  0  0
  -30.5610  -24.8042   21.0010 H   0  0  0  0  0  0
  -27.9134  -22.8075   22.6910 H   0  0  0  0  0  0
  -28.9678  -21.4490   22.9906 H   0  0  0  0  0  0
  -29.3277  -23.2118   19.2255 H   0  0  0  0  0  0
  -27.5309  -24.6217   21.3521 H   0  0  0  0  0  0
  -27.2007  -24.3961   19.6829 H   0  0  0  0  0  0
  -28.8003  -15.5975   21.1137 H   0  0  0  0  0  0
  1 25  1  0  0  0
  1 30  2  0  0  0
  1 83  1  0  0  0
  2  3  1  0  0  0
  2 25  1  0  0  0
  2 86  1  0  0  0
  2 87  1  0  0  0
  3  4  1  0  0  0
  3 88  1  0  0  0
  3 89  1  0  0  0
  4  5  1  0  0  0
  4 90  1  0  0  0
  4 91  1  0  0  0
  5  6  1  0  0  0
  5 26  1  0  0  0
  5 92  1  0  0  0
  6 25  1  0  0  0
  6 93  1  0  0  0
  6 94  1  0  0  0
  7  8  2  0  0  0
  7 26  1  0  0  0
  7 29  1  0  0  0
  8  9  1  0  0  0
  8 22  1  0  0  0
  9 10  1  0  0  0
  9 27  2  0  0  0
 10 11  2  0  0  0
 10 15  1  0  0  0
 11 12  1  0  0  0
 11 95  1  0  0  0
 12 13  2  0  0  0
 12 96  1  0  0  0
 13 14  1  0  0  0
 13 31  1  0  0  0
 14 15  2  0  0  0
 14 97  1  0  0  0
 15 98  1  0  0  0
 16 17  2  0  0  0
 16 21  1  0  0  0
 16 31  1  0  0  0
 17 18  1  0  0  0
 17 99  1  0  0  0
 18 19  2  0  0  0
 18100  1  0  0  0
 19 20  1  0  0  0
 19 24  1  0  0  0
 20 21  2  0  0  0
 20101  1  0  0  0
 21 23  1  0  0  0
 22 28  1  0  0  0
 22 32  2  0  0  0
 26 27  1  0  0  0
 28102  1  0  0  0
 28103  1  0  0  0
 29104  1  0  0  0
 29105  1  0  0  0
 33 34  1  0  0  0
 33 66  1  0  0  0
 33 70  2  0  0  0
 34 36  1  0  0  0
 34 59  1  0  0  0
 34106  1  0  0  0
 35 44  2  0  0  0
 35 45  1  0  0  0
 35 68  1  0  0  0
 36 56  1  0  0  0
 36107  1  0  0  0
 37 39  1  0  0  0
 37 47  1  0  0  0
 37 66  1  0  0  0
 37108  1  0  0  0
 38 43  2  0  0  0
 38 46  1  0  0  0
 38 47  1  0  0  0
 39 64  1  0  0  0
 39 67  2  0  0  0
 40 52  1  0  0  0
 40 53  2  0  0  0
 40 58  1  0  0  0
 41109  1  0  0  0
 41110  1  0  0  0
 41111  1  0  0  0
 41 48  1  0  0  0
 42 43  1  0  0  0
 42 66  1  0  0  0
 42112  1  0  0  0
 42113  1  0  0  0
 43 44  1  0  0  0
 44114  1  0  0  0
 45 46  2  0  0  0
 45115  1  0  0  0
 46116  1  0  0  0
 47117  1  0  0  0
 47118  1  0  0  0
 48 56  1  0  0  0
 48 65  1  0  0  0
 48119  1  0  0  0
 49 50  1  0  0  0
 49 53  1  0  0  0
 49 64  1  0  0  0
 49120  1  0  0  0
 50 51  1  0  0  0
 50121  1  0  0  0
 50122  1  0  0  0
 51 52  1  0  0  0
 51123  1  0  0  0
 51124  1  0  0  0
 52125  1  0  0  0
 52126  1  0  0  0
 53 54  1  0  0  0
 54 55  2  0  0  0
 54127  1  0  0  0
 55 57  1  0  0  0
 55128  1  0  0  0
 56 69  2  0  0  0
 57 58  2  0  0  0
 57129  1  0  0  0
 58130  1  0  0  0
 59 60  1  0  0  0
 59 61  1  0  0  0
 59 62  1  0  0  0
 60131  1  0  0  0
 60132  1  0  0  0
 60133  1  0  0  0
 61134  1  0  0  0
 61135  1  0  0  0
 61136  1  0  0  0
 62137  1  0  0  0
 62138  1  0  0  0
 62139  1  0  0  0
 63 65  1  0  0  0
 63140  1  0  0  0
 63141  1  0  0  0
 63142  1  0  0  0
 64143  1  0  0  0
 65144  1  0  0  0
 68 81  1  0  0  0
 71 72  2  0  0  0
 71 73  1  0  0  0
 71145  1  0  0  0
 72 74  1  0  0  0
 72146  1  0  0  0
 73 75  2  0  0  0
 73 82  1  0  0  0
 74 76  2  0  0  0
 74 83  1  0  0  0
 75 76  1  0  0  0
 75 84  1  0  0  0
 76 85  1  0  0  0
 77 78  1  0  0  0
 77 79  1  0  0  0
 77147  1  0  0  0
 77148  1  0  0  0
 78 80  1  0  0  0
 78149  1  0  0  0
 78150  1  0  0  0
 79 82  1  0  0  0
 79151  1  0  0  0
 79152  1  0  0  0
 80 81  1  0  0  0
 80 82  1  0  0  0
 80153  1  0  0  0
 81154  1  0  0  0
 81155  1  0  0  0
 83156  1  0  0  0
M  ISO  4   1 100  68 101  81 101  83 100
M  END
> <chiral flag>
0

> <version>
0

> <s_m_source_file>
/data/baiqing/PycharmProjects/Reinvent-master-3.2/result/LINK_invent/BTK/process_docking_weight1_custom_product_contain_oxygen_bond_distance_aromatic_linkinvent_7_9_3/rearranged_h_0025.sdf

> <i_m_source_file_index>
72

> <r_mmod_Potential_Energy-OPLS-2005>
600.501342773438

> <r_mmod_Stretch_Energy-OPLS-2005>
216.956939697266

> <r_mmod_Bend_Energy-OPLS-2005>
323.391998291016

> <r_mmod_Torsional_Energy-OPLS-2005>
291.919464111328

> <r_mmod_Improper_Torsional_Energy-OPLS-2005>
7.96100997924805

> <r_mmod_Van_der_Waal_Energy-OPLS-2005>
133.754455566406

> <r_mmod_Electrostatic_Energy-OPLS-2005>
-323.310211181641

> <r_mmod_Solvation_Energy-OPLS-2005>
-216.300811767578

> <b_mmod_Minimization_Converged-OPLS-2005>
0

> <r_mmod_RMS_Derivative-OPLS-2005>
0.311226516962051

$$$$
72
                    3D
 Structure written by MMmdl.
180190  0  0  1  0            999 V2000
  -30.7503  -14.3491   20.7223 C   0  0  0  0  0  0
  -30.4230  -12.3050   19.3645 C   0  0  0  0  0  0
  -29.4780  -12.5593   18.1748 C   0  0  0  0  0  0
  -28.0028  -12.4019   18.5920 C   0  0  0  0  0  0
  -27.6659  -13.1976   19.8797 C   0  0  2  0  0  0
  -28.7046  -12.8938   20.9790 C   0  0  0  0  0  0
  -25.2605  -13.8141   20.5655 C   0  0  0  0  0  0
  -24.1841  -13.0429   20.9145 C   0  0  0  0  0  0
  -24.6390  -11.6892   20.8711 C   0  0  0  0  0  0
  -23.9054  -10.4284   21.0396 C   0  0  0  0  0  0
  -24.3605   -9.4208   21.9181 C   0  0  0  0  0  0
  -23.6283   -8.2248   22.0760 C   0  0  0  0  0  0
  -22.4271   -8.0274   21.3545 C   0  0  0  0  0  0
  -21.9902   -9.0241   20.4638 C   0  0  0  0  0  0
  -22.7232  -10.2118   20.3037 C   0  0  0  0  0  0
  -21.6850   -6.0735   22.5280 C   0  0  0  0  0  0
  -21.4015   -6.5638   23.8213 C   0  0  0  0  0  0
  -21.3657   -5.6789   24.9173 C   0  0  0  0  0  0
  -21.6042   -4.3055   24.7220 C   0  0  0  0  0  0
  -21.8819   -3.8138   23.4343 C   0  0  0  0  0  0
  -21.9194   -4.6960   22.3403 C   0  0  0  0  0  0
  -22.7862  -13.5236   21.1813 C   0  0  0  0  0  0
  -22.1660   -4.2150   21.0976 F   0  0  0  0  0  0
  -21.5628   -3.4534   25.7733 F   0  0  0  0  0  0
  -30.0451  -13.2206   20.4489 N   0  0  0  0  0  0
  -26.3038  -12.9293   20.3364 N   0  0  0  0  0  0
  -25.9306  -11.6462   20.5730 N   0  0  0  0  0  0
  -22.0487  -12.8199   22.0335 N   0  0  0  0  0  0
  -25.4352  -15.1858   20.4073 N   0  0  0  0  0  0
  -31.7812  -14.6692   20.1201 O   0  0  0  0  0  0
  -21.6635   -6.8871   21.4241 O   0  0  0  0  0  0
  -22.3563  -14.5567   20.6706 O   0  0  0  0  0  0
  -24.6074  -31.8712   23.2113 C   0  0  0  0  0  0
  -25.8995  -32.4849   23.8385 C   0  0  1  0  0  0
  -27.2585  -27.4771   20.1014 C   0  0  0  0  0  0
  -25.5884  -33.8639   24.2348 N   0  0  0  0  0  0
  -23.3944  -30.4900   21.5501 C   0  0  2  0  0  0
  -24.8476  -28.9569   20.1163 C   0  0  0  0  0  0
  -22.7385  -29.4638   22.5003 C   0  0  0  0  0  0
  -18.0268  -28.1362   22.8475 C   0  0  0  0  0  0
  -24.1479  -36.7270   23.2637 C   0  0  0  0  0  0
  -25.9134  -30.8490   21.3575 C   0  0  0  0  0  0
  -25.9969  -29.4820   20.7182 C   0  0  0  0  0  0
  -27.1980  -28.7490   20.7211 C   0  0  0  0  0  0
  -26.0943  -26.9628   19.4953 C   0  0  0  0  0  0
  -24.8873  -27.6905   19.5053 C   0  0  0  0  0  0
  -23.6046  -29.8156   20.1655 C   0  0  0  0  0  0
  -25.4105  -36.3112   24.0356 C   0  0  1  0  0  0
  -20.5866  -28.3638   23.1331 C   0  0  2  0  0  0
  -20.6775  -26.9395   22.5386 C   0  0  0  0  0  0
  -19.5773  -26.6384   21.5179 C   0  0  0  0  0  0
  -18.1949  -26.7921   22.1591 C   0  0  0  0  0  0
  -19.1520  -28.8810   23.2920 C   0  0  0  0  0  0
  -18.9467  -30.1423   23.8926 C   0  0  0  0  0  0
  -17.6469  -30.6576   24.0564 C   0  0  0  0  0  0
  -25.9013  -34.9487   23.5134 C   0  0  0  0  0  0
  -16.5352  -29.9083   23.6338 C   0  0  0  0  0  0
  -16.7256  -28.6499   23.0336 C   0  0  0  0  0  0
  -26.4468  -31.6600   25.0667 C   0  0  0  0  0  0
  -25.3760  -31.3644   26.1423 C   0  0  0  0  0  0
  -27.0330  -30.3086   24.5930 C   0  0  0  0  0  0
  -27.6012  -32.4327   25.7472 C   0  0  0  0  0  0
  -27.5583  -37.1832   24.8489 C   0  0  0  0  0  0
  -21.4117  -29.3006   22.3747 N   0  0  0  0  0  0
  -26.4293  -37.3790   23.9421 N   0  0  0  0  0  0
  -24.6559  -31.0835   22.1002 N   0  0  0  0  0  0
  -23.4184  -28.8191   23.3022 O   0  0  0  0  0  0
  -28.4015  -26.7096   20.0434 O   0  0  0  0  0  0
  -26.5540  -34.8943   22.4676 O   0  0  0  0  0  0
  -23.5281  -32.1442   23.7543 O   0  0  0  0  0  0
  -32.4826  -17.5414   23.4090 C   0  0  0  0  0  0
  -32.0706  -16.4972   22.5594 C   0  0  0  0  0  0
  -29.7700  -16.8743   23.2539 C   0  0  0  0  0  0
  -31.5457  -18.2778   24.1713 C   0  0  0  0  0  0
  -30.1687  -17.9327   24.1020 C   0  0  0  0  0  0
  -30.7030  -16.1600   22.4740 C   0  0  0  0  0  0
  -31.2207  -22.8278   22.2838 C   0  0  0  0  0  0
  -33.2271  -23.0525   24.6695 C   0  0  0  0  0  0
  -33.5864  -23.0340   23.1722 C   0  0  0  0  0  0
  -32.9937  -22.1324   20.8569 C   0  0  0  0  0  0
  -32.0684  -23.1330   20.1423 C   0  0  0  0  0  0
  -33.0881  -21.6305   25.2428 C   0  0  0  0  0  0
  -32.5611  -20.7450   22.9844 C   0  0  0  0  0  0
  -32.6027  -22.1627   22.3517 C   0  0  2  0  0  0
  -32.0668  -19.4049   25.0722 C   0  0  0  0  0  0
  -30.4737  -25.8471   21.0114 C   0  0  0  0  0  0
  -29.9680  -24.4042   20.8094 C   0  0  0  0  0  0
  -29.3690  -26.9127   21.0692 C   0  0  0  0  0  0
  -29.1142  -18.6599   24.9353 C   0  0  0  0  0  0
  -31.0279  -23.4404   21.1106 N   0  0  0  0  0  0
  -30.1963  -15.0864   21.6974 N   0  0  0  0  0  0
  -32.1913  -20.7530   24.4350 N   0  3  1  0  0  0
  -30.4276  -22.8097   23.2295 O   0  0  0  0  0  0
  -27.8727  -18.3208   24.5839 F   0  0  0  0  0  0
  -29.2774  -18.3576   26.2227 F   0  0  0  0  0  0
  -29.2431  -19.9777   24.7786 F   0  0  0  0  0  0
  -31.4621  -12.4327   19.0554 H   0  0  0  0  0  0
  -30.3381  -11.2712   19.7033 H   0  0  0  0  0  0
  -29.7108  -11.8843   17.3504 H   0  0  0  0  0  0
  -29.6372  -13.5699   17.7933 H   0  0  0  0  0  0
  -27.8053  -11.3404   18.7451 H   0  0  0  0  0  0
  -27.3490  -12.7164   17.7781 H   0  0  0  0  0  0
  -27.7330  -14.2588   19.6370 H   0  0  0  0  0  0
  -28.6746  -11.8336   21.2363 H   0  0  0  0  0  0
  -28.4386  -13.4061   21.9036 H   0  0  0  0  0  0
  -25.2763   -9.5690   22.4749 H   0  0  0  0  0  0
  -23.9991   -7.4646   22.7493 H   0  0  0  0  0  0
  -21.0837   -8.8751   19.8939 H   0  0  0  0  0  0
  -22.3708  -10.9645   19.6125 H   0  0  0  0  0  0
  -21.2001   -7.6152   23.9722 H   0  0  0  0  0  0
  -21.1476   -6.0516   25.9078 H   0  0  0  0  0  0
  -22.0598   -2.7601   23.2844 H   0  0  0  0  0  0
  -22.4061  -11.9803   22.4641 H   0  0  0  0  0  0
  -21.1098  -13.1222   22.2528 H   0  0  0  0  0  0
  -24.6710  -15.8446   20.5114 H   0  0  0  0  0  0
  -26.2947  -15.6234   20.0981 H   0  0  0  0  0  0
  -26.7043  -32.5592   23.1145 H   0  0  0  0  0  0
  -25.0190  -33.9814   25.0602 H   0  0  0  0  0  0
  -22.6806  -31.3041   21.4057 H   0  0  0  0  0  0
  -23.3777  -35.9563   23.3309 H   0  0  0  0  0  0
  -24.3572  -36.8817   22.2043 H   0  0  0  0  0  0
  -23.7196  -37.6476   23.6604 H   0  0  0  0  0  0
  -26.0065  -31.6108   20.5826 H   0  0  0  0  0  0
  -26.8062  -30.9158   21.9661 H   0  0  0  0  0  0
  -28.0665  -29.1838   21.1953 H   0  0  0  0  0  0
  -26.1224  -25.9910   19.0218 H   0  0  0  0  0  0
  -24.0063  -27.2717   19.0375 H   0  0  0  0  0  0
  -23.7074  -30.5845   19.4000 H   0  0  0  0  0  0
  -22.7332  -29.2252   19.8757 H   0  0  0  0  0  0
  -25.1293  -36.1964   25.0850 H   0  0  0  0  0  0
  -20.9960  -28.3165   24.1447 H   0  0  0  0  0  0
  -20.5673  -26.2240   23.3545 H   0  0  0  0  0  0
  -21.6656  -26.7443   22.1184 H   0  0  0  0  0  0
  -19.6969  -25.6307   21.1171 H   0  0  0  0  0  0
  -19.6754  -27.3209   20.6735 H   0  0  0  0  0  0
  -17.4237  -26.6657   21.3972 H   0  0  0  0  0  0
  -18.0361  -26.0034   22.8964 H   0  0  0  0  0  0
  -19.7946  -30.7223   24.2302 H   0  0  0  0  0  0
  -17.5047  -31.6276   24.5125 H   0  0  0  0  0  0
  -15.5368  -30.3012   23.7670 H   0  0  0  0  0  0
  -15.8645  -28.0848   22.7036 H   0  0  0  0  0  0
  -24.5963  -30.6963   25.7747 H   0  0  0  0  0  0
  -24.8938  -32.2784   26.4887 H   0  0  0  0  0  0
  -25.8140  -30.8810   27.0167 H   0  0  0  0  0  0
  -26.2871  -29.6857   24.0974 H   0  0  0  0  0  0
  -27.4212  -29.7251   25.4287 H   0  0  0  0  0  0
  -27.8627  -30.4485   23.8998 H   0  0  0  0  0  0
  -27.2595  -33.3641   26.1999 H   0  0  0  0  0  0
  -28.3884  -32.6848   25.0355 H   0  0  0  0  0  0
  -28.0610  -31.8481   26.5453 H   0  0  0  0  0  0
  -28.2589  -38.0142   24.7516 H   0  0  0  0  0  0
  -28.1081  -36.2665   24.6321 H   0  0  0  0  0  0
  -27.2289  -37.1452   25.8888 H   0  0  0  0  0  0
  -20.9267  -29.8721   21.6967 H   0  0  0  0  0  0
  -26.0182  -38.2856   24.1425 H   0  0  0  0  0  0
  -33.5366  -17.7749   23.4714 H   0  0  0  0  0  0
  -32.8220  -15.9556   22.0029 H   0  0  0  0  0  0
  -28.7252  -16.6036   23.2087 H   0  0  0  0  0  0
  -32.3055  -23.6118   24.8356 H   0  0  0  0  0  0
  -33.9965  -23.5920   25.2240 H   0  0  0  0  0  0
  -34.6012  -22.6501   23.0536 H   0  0  0  0  0  0
  -33.6077  -24.0551   22.7886 H   0  0  0  0  0  0
  -34.0426  -22.3787   20.6886 H   0  0  0  0  0  0
  -32.8393  -21.1360   20.4370 H   0  0  0  0  0  0
  -31.6408  -22.7074   19.2322 H   0  0  0  0  0  0
  -32.6090  -24.0413   19.8727 H   0  0  0  0  0  0
  -32.7075  -21.6949   26.2647 H   0  0  0  0  0  0
  -34.0778  -21.1776   25.3141 H   0  0  0  0  0  0
  -33.5356  -20.2686   22.8672 H   0  0  0  0  0  0
  -31.8496  -20.1435   22.4195 H   0  0  0  0  0  0
  -33.0457  -19.0891   25.4362 H   0  0  0  0  0  0
  -31.4567  -19.4974   25.9712 H   0  0  0  0  0  0
  -31.1675  -26.0958   20.2075 H   0  0  0  0  0  0
  -31.0534  -25.9171   21.9336 H   0  0  0  0  0  0
  -29.6254  -24.2699   19.7828 H   0  0  0  0  0  0
  -29.1007  -24.2204   21.4455 H   0  0  0  0  0  0
  -29.8393  -27.8920   20.9629 H   0  0  0  0  0  0
  -28.8854  -26.8815   22.0472 H   0  0  0  0  0  0
  -29.2855  -14.7501   21.9697 H   0  0  0  0  0  0
  -31.2668  -21.1689   24.4710 H   0  0  0  0  0  0
  1 25  1  0  0  0
  1 30  2  0  0  0
  1 91  1  0  0  0
  2  3  1  0  0  0
  2 25  1  0  0  0
  2 97  1  0  0  0
  2 98  1  0  0  0
  3  4  1  0  0  0
  3 99  1  0  0  0
  3100  1  0  0  0
  4  5  1  0  0  0
  4101  1  0  0  0
  4102  1  0  0  0
  5  6  1  0  0  0
  5 26  1  0  0  0
  5103  1  0  0  0
  6 25  1  0  0  0
  6104  1  0  0  0
  6105  1  0  0  0
  7  8  2  0  0  0
  7 26  1  0  0  0
  7 29  1  0  0  0
  8  9  1  0  0  0
  8 22  1  0  0  0
  9 10  1  0  0  0
  9 27  2  0  0  0
 10 11  2  0  0  0
 10 15  1  0  0  0
 11 12  1  0  0  0
 11106  1  0  0  0
 12 13  2  0  0  0
 12107  1  0  0  0
 13 14  1  0  0  0
 13 31  1  0  0  0
 14 15  2  0  0  0
 14108  1  0  0  0
 15109  1  0  0  0
 16 17  2  0  0  0
 16 21  1  0  0  0
 16 31  1  0  0  0
 17 18  1  0  0  0
 17110  1  0  0  0
 18 19  2  0  0  0
 18111  1  0  0  0
 19 20  1  0  0  0
 19 24  1  0  0  0
 20 21  2  0  0  0
 20112  1  0  0  0
 21 23  1  0  0  0
 22 28  1  0  0  0
 22 32  2  0  0  0
 26 27  1  0  0  0
 28113  1  0  0  0
 28114  1  0  0  0
 29115  1  0  0  0
 29116  1  0  0  0
 33 34  1  0  0  0
 33 66  1  0  0  0
 33 70  2  0  0  0
 34 36  1  0  0  0
 34 59  1  0  0  0
 34117  1  0  0  0
 35 44  2  0  0  0
 35 45  1  0  0  0
 35 68  1  0  0  0
 36 56  1  0  0  0
 36118  1  0  0  0
 37 39  1  0  0  0
 37 47  1  0  0  0
 37 66  1  0  0  0
 37119  1  0  0  0
 38 43  2  0  0  0
 38 46  1  0  0  0
 38 47  1  0  0  0
 39 64  1  0  0  0
 39 67  2  0  0  0
 40 52  1  0  0  0
 40 53  2  0  0  0
 40 58  1  0  0  0
 41120  1  0  0  0
 41121  1  0  0  0
 41122  1  0  0  0
 41 48  1  0  0  0
 42 43  1  0  0  0
 42 66  1  0  0  0
 42123  1  0  0  0
 42124  1  0  0  0
 43 44  1  0  0  0
 44125  1  0  0  0
 45 46  2  0  0  0
 45126  1  0  0  0
 46127  1  0  0  0
 47128  1  0  0  0
 47129  1  0  0  0
 48 56  1  0  0  0
 48 65  1  0  0  0
 48130  1  0  0  0
 49 50  1  0  0  0
 49 53  1  0  0  0
 49 64  1  0  0  0
 49131  1  0  0  0
 50 51  1  0  0  0
 50132  1  0  0  0
 50133  1  0  0  0
 51 52  1  0  0  0
 51134  1  0  0  0
 51135  1  0  0  0
 52136  1  0  0  0
 52137  1  0  0  0
 53 54  1  0  0  0
 54 55  2  0  0  0
 54138  1  0  0  0
 55 57  1  0  0  0
 55139  1  0  0  0
 56 69  2  0  0  0
 57 58  2  0  0  0
 57140  1  0  0  0
 58141  1  0  0  0
 59 60  1  0  0  0
 59 61  1  0  0  0
 59 62  1  0  0  0
 60142  1  0  0  0
 60143  1  0  0  0
 60144  1  0  0  0
 61145  1  0  0  0
 61146  1  0  0  0
 61147  1  0  0  0
 62148  1  0  0  0
 62149  1  0  0  0
 62150  1  0  0  0
 63 65  1  0  0  0
 63151  1  0  0  0
 63152  1  0  0  0
 63153  1  0  0  0
 64154  1  0  0  0
 65155  1  0  0  0
 68 88  1  0  0  0
 71 72  2  0  0  0
 71 74  1  0  0  0
 71156  1  0  0  0
 72 76  1  0  0  0
 72157  1  0  0  0
 73 75  1  0  0  0
 73 76  2  0  0  0
 73158  1  0  0  0
 74 75  2  0  0  0
 74 85  1  0  0  0
 75 89  1  0  0  0
 76 91  1  0  0  0
 77 90  1  0  0  0
 77 93  2  0  0  0
 77 84  1  0  0  0
 78 79  1  0  0  0
 78 82  1  0  0  0
 78159  1  0  0  0
 78160  1  0  0  0
 79161  1  0  0  0
 79162  1  0  0  0
 79 84  1  0  0  0
 80 81  1  0  0  0
 80 84  1  0  0  0
 80163  1  0  0  0
 80164  1  0  0  0
 81 90  1  0  0  0
 81165  1  0  0  0
 81166  1  0  0  0
 82 92  1  0  0  0
 82167  1  0  0  0
 82168  1  0  0  0
 83 84  1  0  0  0
 83 92  1  0  0  0
 83169  1  0  0  0
 83170  1  0  0  0
 85171  1  0  0  0
 85172  1  0  0  0
 85 92  1  0  0  0
 86 87  1  0  0  0
 86 88  1  0  0  0
 86173  1  0  0  0
 86174  1  0  0  0
 87 90  1  0  0  0
 87175  1  0  0  0
 87176  1  0  0  0
 88177  1  0  0  0
 88178  1  0  0  0
 89 94  1  0  0  0
 89 95  1  0  0  0
 89 96  1  0  0  0
 91179  1  0  0  0
 92180  1  0  0  0
M  CHG  1  92   1
M  ISO  4   1 100  68 101  88 101  91 100
M  END
> <chiral flag>
0

> <version>
0

> <s_m_source_file>
/data/baiqing/PycharmProjects/Reinvent-master-3.2/result/LINK_invent/BTK/process_docking_weight1_custom_product_contain_oxygen_bond_distance_aromatic_linkinvent_7_9_3/rearranged_h_0025.sdf

> <i_m_source_file_index>
73

> <r_mmod_Potential_Energy-OPLS-2005>
-112.843818664551

> <r_mmod_Stretch_Energy-OPLS-2005>
38.4112854003906

> <r_mmod_Bend_Energy-OPLS-2005>
134.829635620117

> <r_mmod_Torsional_Energy-OPLS-2005>
269.908843994141

> <r_mmod_Improper_Torsional_Energy-OPLS-2005>
1.97426617145538

> <r_mmod_Van_der_Waal_Energy-OPLS-2005>
169.315383911133

> <r_mmod_Electrostatic_Energy-OPLS-2005>
-305.359466552734

> <r_mmod_Solvation_Energy-OPLS-2005>
-428.853424072266

> <b_mmod_Minimization_Converged-OPLS-2005>
0

> <r_mmod_RMS_Derivative-OPLS-2005>
2.84408736228943

$$$$
73
                    3D
 Structure written by MMmdl.
163172  0  0  1  0            999 V2000
  -30.6125  -14.6717   20.4848 C   0  0  0  0  0  0
  -30.4380  -12.4102   19.4566 C   0  0  0  0  0  0
  -29.5059  -12.5140   18.2274 C   0  0  0  0  0  0
  -28.0284  -12.3481   18.6385 C   0  0  0  0  0  0
  -27.6481  -13.2200   19.8632 C   0  0  2  0  0  0
  -28.6969  -13.0957   20.9917 C   0  0  0  0  0  0
  -25.2497  -13.8136   20.5760 C   0  0  0  0  0  0
  -24.1781  -13.0392   20.9245 C   0  0  0  0  0  0
  -24.6380  -11.6884   20.8758 C   0  0  0  0  0  0
  -23.9064  -10.4270   21.0405 C   0  0  0  0  0  0
  -24.3629   -9.4201   21.9188 C   0  0  0  0  0  0
  -23.6313   -8.2230   22.0760 C   0  0  0  0  0  0
  -22.4296   -8.0277   21.3553 C   0  0  0  0  0  0
  -21.9918   -9.0241   20.4656 C   0  0  0  0  0  0
  -22.7241  -10.2122   20.3053 C   0  0  0  0  0  0
  -21.6839   -6.0747   22.5279 C   0  0  0  0  0  0
  -21.4013   -6.5650   23.8213 C   0  0  0  0  0  0
  -21.3669   -5.6795   24.9166 C   0  0  0  0  0  0
  -21.6044   -4.3060   24.7212 C   0  0  0  0  0  0
  -21.8812   -3.8157   23.4329 C   0  0  0  0  0  0
  -21.9184   -4.6981   22.3393 C   0  0  0  0  0  0
  -22.7797  -13.5192   21.1876 C   0  0  0  0  0  0
  -22.1654   -4.2171   21.0964 F   0  0  0  0  0  0
  -21.5639   -3.4540   25.7725 F   0  0  0  0  0  0
  -30.0101  -13.4397   20.4226 N   0  0  0  0  0  0
  -26.2954  -12.9359   20.3342 N   0  0  0  0  0  0
  -25.9314  -11.6508   20.5762 N   0  0  0  0  0  0
  -22.0426  -12.8214   22.0447 N   0  0  0  0  0  0
  -25.4045  -15.1860   20.4244 N   0  0  0  0  0  0
  -31.7866  -14.8315   20.1411 O   0  0  0  0  0  0
  -21.6649   -6.8889   21.4241 O   0  0  0  0  0  0
  -22.3491  -14.5497   20.6701 O   0  0  0  0  0  0
  -24.6259  -31.8598   23.2050 C   0  0  0  0  0  0
  -25.9108  -32.4773   23.8389 C   0  0  1  0  0  0
  -27.2316  -27.3190   20.1202 C   0  0  0  0  0  0
  -25.5930  -33.8578   24.2321 N   0  0  0  0  0  0
  -23.4222  -30.4853   21.5440 C   0  0  2  0  0  0
  -24.8711  -28.9392   20.1156 C   0  0  0  0  0  0
  -22.7480  -29.4631   22.4895 C   0  0  0  0  0  0
  -18.0289  -28.1396   22.8465 C   0  0  0  0  0  0
  -24.1491  -36.7292   23.2637 C   0  0  0  0  0  0
  -25.9642  -30.7911   21.3775 C   0  0  0  0  0  0
  -26.0397  -29.4175   20.7209 C   0  0  0  0  0  0
  -27.2235  -28.6202   20.7104 C   0  0  0  0  0  0
  -26.0370  -26.8948   19.4912 C   0  0  0  0  0  0
  -24.8710  -27.6831   19.4933 C   0  0  0  0  0  0
  -23.6424  -29.8252   20.1583 C   0  0  0  0  0  0
  -25.4106  -36.3076   24.0334 C   0  0  1  0  0  0
  -20.5892  -28.3706   23.1262 C   0  0  2  0  0  0
  -20.6788  -26.9426   22.5398 C   0  0  0  0  0  0
  -19.5770  -26.6390   21.5197 C   0  0  0  0  0  0
  -18.1943  -26.7936   22.1603 C   0  0  0  0  0  0
  -19.1540  -28.8860   23.2865 C   0  0  0  0  0  0
  -18.9462  -30.1454   23.8901 C   0  0  0  0  0  0
  -17.6465  -30.6596   24.0558 C   0  0  0  0  0  0
  -25.9044  -34.9441   23.5118 C   0  0  0  0  0  0
  -16.5355  -29.9103   23.6312 C   0  0  0  0  0  0
  -16.7274  -28.6516   23.0332 C   0  0  0  0  0  0
  -26.4501  -31.6562   25.0745 C   0  0  0  0  0  0
  -25.3749  -31.3676   26.1481 C   0  0  0  0  0  0
  -27.0339  -30.2988   24.6172 C   0  0  0  0  0  0
  -27.6070  -32.4280   25.7514 C   0  0  0  0  0  0
  -27.5578  -37.1794   24.8457 C   0  0  0  0  0  0
  -21.4191  -29.3060   22.3654 N   0  0  0  0  0  0
  -26.4274  -37.3775   23.9422 N   0  0  0  0  0  0
  -24.6898  -31.0617   22.0998 N   0  0  0  0  0  0
  -23.4196  -28.8153   23.2970 O   0  0  0  0  0  0
  -28.3567  -26.4775   20.1468 O   0  0  0  0  0  0
  -26.5597  -34.8895   22.4682 O   0  0  0  0  0  0
  -23.5419  -32.1388   23.7361 O   0  0  0  0  0  0
  -28.8172  -19.2799   19.7392 C   0  0  0  0  0  0
  -30.8724  -18.0029   21.1589 C   0  0  0  0  0  0
  -29.7743  -20.1032   20.3748 C   0  0  0  0  0  0
  -29.8873  -17.1739   20.5514 C   0  0  0  0  0  0
  -28.8696  -17.8593   19.8248 C   0  0  0  0  0  0
  -30.8239  -19.4336   21.0698 C   0  0  0  0  0  0
  -29.0814  -22.5816   20.9360 C   0  0  0  0  0  0
  -29.8823  -23.6191   18.9713 C   0  0  0  0  0  0
  -30.4374  -22.1795   19.0904 C   0  0  0  0  0  0
  -29.3481  -23.9971   20.3679 C   0  0  1  0  0  0
  -27.4955  -21.4486   24.1722 C   0  0  0  0  0  0
  -28.1292  -25.0283   20.3800 C   0  0  0  0  0  0
  -28.0037  -21.1691   22.7552 C   0  0  0  0  0  0
  -29.7114  -21.5928   20.2194 N   0  0  0  0  0  0
  -29.7772  -15.7238   20.7595 N   0  0  0  0  0  0
  -28.3425  -22.4153   22.0559 N   0  3  0  0  0  0
  -27.6516  -16.9615   18.9979 Cl  0  0  0  0  0  0
  -32.0519  -20.3574   21.8586 Cl  0  0  0  0  0  0
  -31.4789  -12.5395   19.1561 H   0  0  0  0  0  0
  -30.3770  -11.4190   19.9092 H   0  0  0  0  0  0
  -29.7717  -11.7613   17.4848 H   0  0  0  0  0  0
  -29.6428  -13.4808   17.7407 H   0  0  0  0  0  0
  -27.8598  -11.2952   18.8668 H   0  0  0  0  0  0
  -27.3769  -12.5813   17.7962 H   0  0  0  0  0  0
  -27.6547  -14.2485   19.5095 H   0  0  0  0  0  0
  -28.7106  -12.0816   21.3909 H   0  0  0  0  0  0
  -28.4412  -13.7397   21.8343 H   0  0  0  0  0  0
  -25.2760   -9.5698   22.4771 H   0  0  0  0  0  0
  -24.0018   -7.4627   22.7494 H   0  0  0  0  0  0
  -21.0839   -8.8769   19.8975 H   0  0  0  0  0  0
  -22.3692  -10.9674   19.6179 H   0  0  0  0  0  0
  -21.2005   -7.6157   23.9724 H   0  0  0  0  0  0
  -21.1505   -6.0522   25.9071 H   0  0  0  0  0  0
  -22.0582   -2.7627   23.2798 H   0  0  0  0  0  0
  -22.4039  -11.9903   22.4884 H   0  0  0  0  0  0
  -21.1044  -13.1272   22.2642 H   0  0  0  0  0  0
  -24.6059  -15.8048   20.5093 H   0  0  0  0  0  0
  -26.2175  -15.6464   20.0334 H   0  0  0  0  0  0
  -26.7172  -32.5445   23.1140 H   0  0  0  0  0  0
  -25.0094  -33.9735   25.0472 H   0  0  0  0  0  0
  -22.7147  -31.3044   21.4011 H   0  0  0  0  0  0
  -23.3751  -35.9622   23.3269 H   0  0  0  0  0  0
  -24.3598  -36.8950   22.2059 H   0  0  0  0  0  0
  -23.7234  -37.6479   23.6682 H   0  0  0  0  0  0
  -26.0930  -31.5545   20.6092 H   0  0  0  0  0  0
  -26.8458  -30.8428   22.0045 H   0  0  0  0  0  0
  -28.1226  -28.9831   21.1888 H   0  0  0  0  0  0
  -25.9754  -25.9471   18.9807 H   0  0  0  0  0  0
  -23.9782  -27.3125   19.0087 H   0  0  0  0  0  0
  -23.7745  -30.6070   19.4091 H   0  0  0  0  0  0
  -22.7617  -29.2636   19.8428 H   0  0  0  0  0  0
  -25.1272  -36.1929   25.0820 H   0  0  0  0  0  0
  -20.9973  -28.3298   24.1385 H   0  0  0  0  0  0
  -20.5704  -26.2312   23.3596 H   0  0  0  0  0  0
  -21.6662  -26.7475   22.1193 H   0  0  0  0  0  0
  -19.6949  -25.6295   21.1246 H   0  0  0  0  0  0
  -19.6725  -27.3178   20.6708 H   0  0  0  0  0  0
  -17.4213  -26.6653   21.4010 H   0  0  0  0  0  0
  -18.0365  -26.0091   22.9016 H   0  0  0  0  0  0
  -19.7937  -30.7256   24.2297 H   0  0  0  0  0  0
  -17.5022  -31.6272   24.5175 H   0  0  0  0  0  0
  -15.5357  -30.3015   23.7635 H   0  0  0  0  0  0
  -15.8666  -28.0846   22.7046 H   0  0  0  0  0  0
  -24.5920  -30.7033   25.7813 H   0  0  0  0  0  0
  -24.8939  -32.2825   26.4945 H   0  0  0  0  0  0
  -25.8093  -30.8827   27.0234 H   0  0  0  0  0  0
  -26.2905  -29.6737   24.1219 H   0  0  0  0  0  0
  -27.4077  -29.7237   25.4653 H   0  0  0  0  0  0
  -27.8762  -30.4284   23.9374 H   0  0  0  0  0  0
  -27.2705  -33.3578   26.2109 H   0  0  0  0  0  0
  -28.3883  -32.6839   25.0348 H   0  0  0  0  0  0
  -28.0741  -31.8389   26.5416 H   0  0  0  0  0  0
  -28.2552  -38.0130   24.7529 H   0  0  0  0  0  0
  -28.1113  -36.2655   24.6234 H   0  0  0  0  0  0
  -27.2305  -37.1388   25.8860 H   0  0  0  0  0  0
  -20.9359  -29.8783   21.6871 H   0  0  0  0  0  0
  -26.0149  -38.2838   24.1460 H   0  0  0  0  0  0
  -28.0265  -19.7417   19.1686 H   0  0  0  0  0  0
  -31.6631  -17.5465   21.7360 H   0  0  0  0  0  0
  -29.0712  -23.6284   18.2428 H   0  0  0  0  0  0
  -30.6366  -24.3286   18.6292 H   0  0  0  0  0  0
  -31.5010  -22.1998   19.3300 H   0  0  0  0  0  0
  -30.2997  -21.6068   18.1728 H   0  0  0  0  0  0
  -30.1619  -24.4219   20.9571 H   0  0  0  0  0  0
  -27.3613  -20.5167   24.7212 H   0  0  0  0  0  0
  -26.5348  -21.9634   24.1582 H   0  0  0  0  0  0
  -28.2004  -22.0603   24.7363 H   0  0  0  0  0  0
  -27.6557  -24.9647   21.3599 H   0  0  0  0  0  0
  -27.4013  -24.6296   19.6777 H   0  0  0  0  0  0
  -27.2609  -20.6129   22.1825 H   0  0  0  0  0  0
  -28.8932  -20.5465   22.8281 H   0  0  0  0  0  0
  -28.8315  -15.4142   20.9241 H   0  0  0  0  0  0
  -27.9584  -23.2451   22.4899 H   0  0  0  0  0  0
  1 25  1  0  0  0
  1 30  2  0  0  0
  1 85  1  0  0  0
  2  3  1  0  0  0
  2 25  1  0  0  0
  2 89  1  0  0  0
  2 90  1  0  0  0
  3  4  1  0  0  0
  3 91  1  0  0  0
  3 92  1  0  0  0
  4  5  1  0  0  0
  4 93  1  0  0  0
  4 94  1  0  0  0
  5  6  1  0  0  0
  5 26  1  0  0  0
  5 95  1  0  0  0
  6 25  1  0  0  0
  6 96  1  0  0  0
  6 97  1  0  0  0
  7  8  2  0  0  0
  7 26  1  0  0  0
  7 29  1  0  0  0
  8  9  1  0  0  0
  8 22  1  0  0  0
  9 10  1  0  0  0
  9 27  2  0  0  0
 10 11  2  0  0  0
 10 15  1  0  0  0
 11 12  1  0  0  0
 11 98  1  0  0  0
 12 13  2  0  0  0
 12 99  1  0  0  0
 13 14  1  0  0  0
 13 31  1  0  0  0
 14 15  2  0  0  0
 14100  1  0  0  0
 15101  1  0  0  0
 16 17  2  0  0  0
 16 21  1  0  0  0
 16 31  1  0  0  0
 17 18  1  0  0  0
 17102  1  0  0  0
 18 19  2  0  0  0
 18103  1  0  0  0
 19 20  1  0  0  0
 19 24  1  0  0  0
 20 21  2  0  0  0
 20104  1  0  0  0
 21 23  1  0  0  0
 22 28  1  0  0  0
 22 32  2  0  0  0
 26 27  1  0  0  0
 28105  1  0  0  0
 28106  1  0  0  0
 29107  1  0  0  0
 29108  1  0  0  0
 33 34  1  0  0  0
 33 66  1  0  0  0
 33 70  2  0  0  0
 34 36  1  0  0  0
 34 59  1  0  0  0
 34109  1  0  0  0
 35 44  2  0  0  0
 35 45  1  0  0  0
 35 68  1  0  0  0
 36 56  1  0  0  0
 36110  1  0  0  0
 37 39  1  0  0  0
 37 47  1  0  0  0
 37 66  1  0  0  0
 37111  1  0  0  0
 38 43  2  0  0  0
 38 46  1  0  0  0
 38 47  1  0  0  0
 39 64  1  0  0  0
 39 67  2  0  0  0
 40 52  1  0  0  0
 40 53  2  0  0  0
 40 58  1  0  0  0
 41112  1  0  0  0
 41113  1  0  0  0
 41114  1  0  0  0
 41 48  1  0  0  0
 42 43  1  0  0  0
 42 66  1  0  0  0
 42115  1  0  0  0
 42116  1  0  0  0
 43 44  1  0  0  0
 44117  1  0  0  0
 45 46  2  0  0  0
 45118  1  0  0  0
 46119  1  0  0  0
 47120  1  0  0  0
 47121  1  0  0  0
 48 56  1  0  0  0
 48 65  1  0  0  0
 48122  1  0  0  0
 49 50  1  0  0  0
 49 53  1  0  0  0
 49 64  1  0  0  0
 49123  1  0  0  0
 50 51  1  0  0  0
 50124  1  0  0  0
 50125  1  0  0  0
 51 52  1  0  0  0
 51126  1  0  0  0
 51127  1  0  0  0
 52128  1  0  0  0
 52129  1  0  0  0
 53 54  1  0  0  0
 54 55  2  0  0  0
 54130  1  0  0  0
 55 57  1  0  0  0
 55131  1  0  0  0
 56 69  2  0  0  0
 57 58  2  0  0  0
 57132  1  0  0  0
 58133  1  0  0  0
 59 60  1  0  0  0
 59 61  1  0  0  0
 59 62  1  0  0  0
 60134  1  0  0  0
 60135  1  0  0  0
 60136  1  0  0  0
 61137  1  0  0  0
 61138  1  0  0  0
 61139  1  0  0  0
 62140  1  0  0  0
 62141  1  0  0  0
 62142  1  0  0  0
 63 65  1  0  0  0
 63143  1  0  0  0
 63144  1  0  0  0
 63145  1  0  0  0
 64146  1  0  0  0
 65147  1  0  0  0
 68 82  1  0  0  0
 71 73  2  0  0  0
 71 75  1  0  0  0
 71148  1  0  0  0
 72 74  1  0  0  0
 72 76  2  0  0  0
 72149  1  0  0  0
 73 76  1  0  0  0
 73 84  1  0  0  0
 74 75  2  0  0  0
 74 85  1  0  0  0
 75 87  1  0  0  0
 76 88  1  0  0  0
 77 80  1  0  0  0
 77 84  1  0  0  0
 77 86  2  0  0  0
 78 79  1  0  0  0
 78 80  1  0  0  0
 78150  1  0  0  0
 78151  1  0  0  0
 79 84  1  0  0  0
 79152  1  0  0  0
 79153  1  0  0  0
 80 82  1  0  0  0
 80154  1  0  0  0
 81 83  1  0  0  0
 81155  1  0  0  0
 81156  1  0  0  0
 81157  1  0  0  0
 82158  1  0  0  0
 82159  1  0  0  0
 83 86  1  0  0  0
 83160  1  0  0  0
 83161  1  0  0  0
 85162  1  0  0  0
 86163  1  0  0  0
M  CHG  1  86   1
M  ISO  4   1 100  68 101  82 101  85 100
M  END
> <chiral flag>
0

> <version>
0

> <s_m_source_file>
/data/baiqing/PycharmProjects/Reinvent-master-3.2/result/LINK_invent/BTK/process_docking_weight1_custom_product_contain_oxygen_bond_distance_aromatic_linkinvent_7_9_3/rearranged_h_0025.sdf

> <i_m_source_file_index>
74

> <r_mmod_Potential_Energy-OPLS-2005>
70.3863830566406

> <r_mmod_Stretch_Energy-OPLS-2005>
81.591552734375

> <r_mmod_Bend_Energy-OPLS-2005>
187.230499267578

> <r_mmod_Torsional_Energy-OPLS-2005>
261.140838623047

> <r_mmod_Improper_Torsional_Energy-OPLS-2005>
6.41990947723389

> <r_mmod_Van_der_Waal_Energy-OPLS-2005>
127.032279968262

> <r_mmod_Electrostatic_Energy-OPLS-2005>
-240.177444458008

> <r_mmod_Solvation_Energy-OPLS-2005>
-406.867980957031

> <b_mmod_Minimization_Converged-OPLS-2005>
0

> <r_mmod_RMS_Derivative-OPLS-2005>
2.20744633674622

$$$$
74
                    3D
 Structure written by MMmdl.
173182  0  0  1  0            999 V2000
  -30.5459  -15.0681   20.4206 C   0  0  0  0  0  0
  -30.4436  -12.6766   19.4946 C   0  0  0  0  0  0
  -29.5276  -12.5170   18.2598 C   0  0  0  0  0  0
  -28.0715  -12.2536   18.6896 C   0  0  0  0  0  0
  -27.6261  -13.2032   19.8260 C   0  0  2  0  0  0
  -28.6783  -13.2980   20.9541 C   0  0  0  0  0  0
  -25.2509  -13.8060   20.5667 C   0  0  0  0  0  0
  -24.1797  -13.0364   20.9203 C   0  0  0  0  0  0
  -24.6388  -11.6852   20.8800 C   0  0  0  0  0  0
  -23.9040  -10.4261   21.0459 C   0  0  0  0  0  0
  -24.3595   -9.4193   21.9220 C   0  0  0  0  0  0
  -23.6289   -8.2228   22.0763 C   0  0  0  0  0  0
  -22.4271   -8.0285   21.3552 C   0  0  0  0  0  0
  -21.9904   -9.0254   20.4658 C   0  0  0  0  0  0
  -22.7232  -10.2135   20.3090 C   0  0  0  0  0  0
  -21.6861   -6.0727   22.5268 C   0  0  0  0  0  0
  -21.4023   -6.5624   23.8198 C   0  0  0  0  0  0
  -21.3657   -5.6785   24.9153 C   0  0  0  0  0  0
  -21.6042   -4.3045   24.7221 C   0  0  0  0  0  0
  -21.8826   -3.8137   23.4343 C   0  0  0  0  0  0
  -21.9208   -4.6952   22.3404 C   0  0  0  0  0  0
  -22.7842  -13.5204   21.1855 C   0  0  0  0  0  0
  -22.1682   -4.2153   21.0989 F   0  0  0  0  0  0
  -21.5627   -3.4531   25.7717 F   0  0  0  0  0  0
  -29.9140  -13.8070   20.3321 N   0  0  0  0  0  0
  -26.2903  -12.9214   20.3246 N   0  0  0  0  0  0
  -25.9302  -11.6398   20.5776 N   0  0  0  0  0  0
  -22.0486  -12.8200   22.0416 N   0  0  0  0  0  0
  -25.4129  -15.1767   20.4032 N   0  0  0  0  0  0
  -31.7637  -14.9988   20.2157 O   0  0  0  0  0  0
  -21.6651   -6.8886   21.4239 O   0  0  0  0  0  0
  -22.3534  -14.5525   20.6729 O   0  0  0  0  0  0
  -24.6477  -31.8401   23.1846 C   0  0  0  0  0  0
  -25.9220  -32.4675   23.8266 C   0  0  1  0  0  0
  -27.2182  -27.0977   20.1663 C   0  0  0  0  0  0
  -25.5952  -33.8491   24.2199 N   0  0  0  0  0  0
  -23.4549  -30.4545   21.5324 C   0  0  2  0  0  0
  -24.9037  -28.8698   20.1135 C   0  0  0  0  0  0
  -22.7606  -29.4489   22.4874 C   0  0  0  0  0  0
  -18.0300  -28.1380   22.8492 C   0  0  0  0  0  0
  -24.1492  -36.7252   23.2648 C   0  0  0  0  0  0
  -26.0120  -30.7016   21.3854 C   0  0  0  0  0  0
  -26.0821  -29.3063   20.7336 C   0  0  0  0  0  0
  -27.2420  -28.4392   20.7355 C   0  0  0  0  0  0
  -26.0157  -26.7653   19.5071 C   0  0  0  0  0  0
  -24.8851  -27.6143   19.4834 C   0  0  0  0  0  0
  -23.6821  -29.7768   20.1541 C   0  0  0  0  0  0
  -25.4125  -36.3045   24.0322 C   0  0  1  0  0  0
  -20.5924  -28.3701   23.1251 C   0  0  2  0  0  0
  -20.6780  -26.9395   22.5416 C   0  0  0  0  0  0
  -19.5750  -26.6365   21.5220 C   0  0  0  0  0  0
  -18.1928  -26.7918   22.1631 C   0  0  0  0  0  0
  -19.1565  -28.8862   23.2855 C   0  0  0  0  0  0
  -18.9469  -30.1454   23.8880 C   0  0  0  0  0  0
  -17.6467  -30.6574   24.0550 C   0  0  0  0  0  0
  -25.9083  -34.9402   23.5087 C   0  0  0  0  0  0
  -16.5357  -29.9070   23.6327 C   0  0  0  0  0  0
  -16.7282  -28.6486   23.0357 C   0  0  0  0  0  0
  -26.4515  -31.6556   25.0737 C   0  0  0  0  0  0
  -25.3687  -31.3705   26.1413 C   0  0  0  0  0  0
  -27.0392  -30.2984   24.6295 C   0  0  0  0  0  0
  -27.6098  -32.4290   25.7485 C   0  0  0  0  0  0
  -27.5580  -37.1773   24.8464 C   0  0  0  0  0  0
  -21.4290  -29.3027   22.3626 N   0  0  0  0  0  0
  -26.4298  -37.3759   23.9406 N   0  0  0  0  0  0
  -24.7256  -31.0222   22.0890 N   0  0  0  0  0  0
  -23.4214  -28.8046   23.3063 O   0  0  0  0  0  0
  -28.2809  -26.1152   20.1582 O   0  0  0  0  0  0
  -26.5674  -34.8901   22.4676 O   0  0  0  0  0  0
  -23.5582  -32.1291   23.7029 O   0  0  0  0  0  0
  -32.6448  -18.7328   21.0433 C   0  0  0  0  0  0
  -32.0408  -19.4615   22.0847 C   0  0  0  0  0  0
  -31.8548  -17.8910   20.2394 C   0  0  0  0  0  0
  -30.6330  -19.5868   22.1295 C   0  0  0  0  0  0
  -30.4562  -17.8215   20.4528 C   0  0  0  0  0  0
  -29.9044  -19.1285   20.9962 C   0  0  0  0  0  0
  -29.5600  -21.4279   25.1535 C   0  0  0  0  0  0
  -28.4763  -20.3484   25.0303 C   0  0  0  0  0  0
  -30.6900  -20.9104   24.2664 C   0  0  0  0  0  0
  -28.7405  -19.6718   23.6775 C   0  0  0  0  0  0
  -27.4665  -22.7279   18.9858 C   0  0  0  0  0  0
  -29.8793  -23.4206   19.1359 C   0  0  0  0  0  0
  -28.4342  -16.4383   20.7468 C   0  0  0  0  0  0
  -28.9427  -21.7378   20.8463 C   0  0  0  0  0  0
  -28.1232  -24.6270   20.6423 C   0  0  0  0  0  0
  -28.6024  -23.1356   19.9384 C   0  0  0  0  0  0
  -29.9801  -20.2569   23.1847 N   0  0  0  0  0  0
  -29.1913  -20.2618   20.3132 N   0  0  0  0  0  0
  -29.8729  -16.3758   20.4976 N   0  0  0  0  0  0
  -31.4691  -12.8489   19.1606 H   0  0  0  0  0  0
  -30.4785  -11.7524   20.0737 H   0  0  0  0  0  0
  -29.8879  -11.7029   17.6284 H   0  0  0  0  0  0
  -29.5772  -13.4225   17.6519 H   0  0  0  0  0  0
  -28.0071  -11.2178   19.0275 H   0  0  0  0  0  0
  -27.4013  -12.3381   17.8335 H   0  0  0  0  0  0
  -27.5536  -14.1517   19.3123 H   0  0  0  0  0  0
  -28.8394  -12.3232   21.4161 H   0  0  0  0  0  0
  -28.3435  -13.9272   21.7725 H   0  0  0  0  0  0
  -25.2753   -9.5656   22.4751 H   0  0  0  0  0  0
  -24.0020   -7.4597   22.7455 H   0  0  0  0  0  0
  -21.0841   -8.8784   19.8943 H   0  0  0  0  0  0
  -22.3732  -10.9666   19.6188 H   0  0  0  0  0  0
  -21.2014   -7.6125   23.9690 H   0  0  0  0  0  0
  -21.1473   -6.0512   25.9053 H   0  0  0  0  0  0
  -22.0609   -2.7603   23.2836 H   0  0  0  0  0  0
  -22.4131  -11.9887   22.4826 H   0  0  0  0  0  0
  -21.1108  -13.1219   22.2591 H   0  0  0  0  0  0
  -24.6476  -15.8294   20.5241 H   0  0  0  0  0  0
  -26.2642  -15.6186   20.0820 H   0  0  0  0  0  0
  -26.7306  -32.5285   23.1005 H   0  0  0  0  0  0
  -25.0039  -33.9612   25.0309 H   0  0  0  0  0  0
  -22.7579  -31.2805   21.3739 H   0  0  0  0  0  0
  -23.3774  -35.9561   23.3289 H   0  0  0  0  0  0
  -24.3594  -36.8916   22.2074 H   0  0  0  0  0  0
  -23.7204  -37.6425   23.6700 H   0  0  0  0  0  0
  -26.1637  -31.4490   20.6049 H   0  0  0  0  0  0
  -26.8836  -30.7617   22.0250 H   0  0  0  0  0  0
  -28.1482  -28.7743   21.2205 H   0  0  0  0  0  0
  -25.9408  -25.8071   19.0121 H   0  0  0  0  0  0
  -23.9878  -27.2831   18.9792 H   0  0  0  0  0  0
  -23.8174  -30.5487   19.3955 H   0  0  0  0  0  0
  -22.7956  -29.2187   19.8489 H   0  0  0  0  0  0
  -25.1297  -36.1893   25.0807 H   0  0  0  0  0  0
  -20.9988  -28.3279   24.1384 H   0  0  0  0  0  0
  -20.5677  -26.2293   23.3628 H   0  0  0  0  0  0
  -21.6643  -26.7385   22.1213 H   0  0  0  0  0  0
  -19.6914  -25.6275   21.1251 H   0  0  0  0  0  0
  -19.6709  -27.3180   20.6753 H   0  0  0  0  0  0
  -17.4199  -26.6662   21.4022 H   0  0  0  0  0  0
  -18.0323  -26.0053   22.9029 H   0  0  0  0  0  0
  -19.7941  -30.7271   24.2242 H   0  0  0  0  0  0
  -17.5010  -31.6254   24.5148 H   0  0  0  0  0  0
  -15.5353  -30.2951   23.7653 H   0  0  0  0  0  0
  -15.8681  -28.0783   22.7080 H   0  0  0  0  0  0
  -24.5916  -30.7003   25.7691 H   0  0  0  0  0  0
  -24.8791  -32.2851   26.4792 H   0  0  0  0  0  0
  -25.7967  -30.8905   27.0235 H   0  0  0  0  0  0
  -26.3016  -29.6693   24.1304 H   0  0  0  0  0  0
  -27.4037  -29.7282   25.4853 H   0  0  0  0  0  0
  -27.8898  -30.4260   23.9598 H   0  0  0  0  0  0
  -27.2790  -33.3647   26.1999 H   0  0  0  0  0  0
  -28.3926  -32.6740   25.0295 H   0  0  0  0  0  0
  -28.0740  -31.8430   26.5437 H   0  0  0  0  0  0
  -28.2567  -38.0100   24.7551 H   0  0  0  0  0  0
  -28.1103  -36.2632   24.6238 H   0  0  0  0  0  0
  -27.2307  -37.1352   25.8869 H   0  0  0  0  0  0
  -20.9497  -29.8742   21.6809 H   0  0  0  0  0  0
  -26.0169  -38.2825   24.1425 H   0  0  0  0  0  0
  -33.7213  -18.6893   20.9663 H   0  0  0  0  0  0
  -32.6722  -19.9461   22.8139 H   0  0  0  0  0  0
  -32.3739  -17.1760   19.6229 H   0  0  0  0  0  0
  -29.8733  -21.6075   26.1834 H   0  0  0  0  0  0
  -29.1823  -22.3725   24.7531 H   0  0  0  0  0  0
  -27.4679  -20.7627   25.0951 H   0  0  0  0  0  0
  -28.5845  -19.6170   25.8315 H   0  0  0  0  0  0
  -31.3082  -20.1846   24.7977 H   0  0  0  0  0  0
  -31.3286  -21.7185   23.9070 H   0  0  0  0  0  0
  -27.9253  -19.8508   22.9754 H   0  0  0  0  0  0
  -28.8457  -18.5906   23.7908 H   0  0  0  0  0  0
  -27.1765  -23.5499   18.3337 H   0  0  0  0  0  0
  -26.5831  -22.4257   19.5532 H   0  0  0  0  0  0
  -27.7452  -21.8834   18.3559 H   0  0  0  0  0  0
  -30.6877  -23.7417   19.7930 H   0  0  0  0  0  0
  -29.7219  -24.2109   18.4023 H   0  0  0  0  0  0
  -30.2221  -22.5303   18.6059 H   0  0  0  0  0  0
  -27.8963  -16.0313   19.9039 H   0  0  0  0  0  0
  -28.1530  -15.9646   21.6830 H   0  0  0  0  0  0
  -28.0485  -17.4510   20.8288 H   0  0  0  0  0  0
  -28.1354  -21.6455   21.5722 H   0  0  0  0  0  0
  -29.8134  -22.0125   21.4415 H   0  0  0  0  0  0
  -28.6278  -24.6463   21.6105 H   0  0  0  0  0  0
  -27.0726  -24.5134   20.9086 H   0  0  0  0  0  0
  -28.8442  -20.0627   19.3821 H   0  0  0  0  0  0
  1 25  1  0  0  0
  1 30  2  0  0  0
  1 89  1  0  0  0
  2  3  1  0  0  0
  2 25  1  0  0  0
  2 90  1  0  0  0
  2 91  1  0  0  0
  3  4  1  0  0  0
  3 92  1  0  0  0
  3 93  1  0  0  0
  4  5  1  0  0  0
  4 94  1  0  0  0
  4 95  1  0  0  0
  5  6  1  0  0  0
  5 26  1  0  0  0
  5 96  1  0  0  0
  6 25  1  0  0  0
  6 97  1  0  0  0
  6 98  1  0  0  0
  7  8  2  0  0  0
  7 26  1  0  0  0
  7 29  1  0  0  0
  8  9  1  0  0  0
  8 22  1  0  0  0
  9 10  1  0  0  0
  9 27  2  0  0  0
 10 11  2  0  0  0
 10 15  1  0  0  0
 11 12  1  0  0  0
 11 99  1  0  0  0
 12 13  2  0  0  0
 12100  1  0  0  0
 13 14  1  0  0  0
 13 31  1  0  0  0
 14 15  2  0  0  0
 14101  1  0  0  0
 15102  1  0  0  0
 16 17  2  0  0  0
 16 21  1  0  0  0
 16 31  1  0  0  0
 17 18  1  0  0  0
 17103  1  0  0  0
 18 19  2  0  0  0
 18104  1  0  0  0
 19 20  1  0  0  0
 19 24  1  0  0  0
 20 21  2  0  0  0
 20105  1  0  0  0
 21 23  1  0  0  0
 22 28  1  0  0  0
 22 32  2  0  0  0
 26 27  1  0  0  0
 28106  1  0  0  0
 28107  1  0  0  0
 29108  1  0  0  0
 29109  1  0  0  0
 33 34  1  0  0  0
 33 66  1  0  0  0
 33 70  2  0  0  0
 34 36  1  0  0  0
 34 59  1  0  0  0
 34110  1  0  0  0
 35 44  2  0  0  0
 35 45  1  0  0  0
 35 68  1  0  0  0
 36 56  1  0  0  0
 36111  1  0  0  0
 37 39  1  0  0  0
 37 47  1  0  0  0
 37 66  1  0  0  0
 37112  1  0  0  0
 38 43  2  0  0  0
 38 46  1  0  0  0
 38 47  1  0  0  0
 39 64  1  0  0  0
 39 67  2  0  0  0
 40 52  1  0  0  0
 40 53  2  0  0  0
 40 58  1  0  0  0
 41113  1  0  0  0
 41114  1  0  0  0
 41115  1  0  0  0
 41 48  1  0  0  0
 42 43  1  0  0  0
 42 66  1  0  0  0
 42116  1  0  0  0
 42117  1  0  0  0
 43 44  1  0  0  0
 44118  1  0  0  0
 45 46  2  0  0  0
 45119  1  0  0  0
 46120  1  0  0  0
 47121  1  0  0  0
 47122  1  0  0  0
 48 56  1  0  0  0
 48 65  1  0  0  0
 48123  1  0  0  0
 49 50  1  0  0  0
 49 53  1  0  0  0
 49 64  1  0  0  0
 49124  1  0  0  0
 50 51  1  0  0  0
 50125  1  0  0  0
 50126  1  0  0  0
 51 52  1  0  0  0
 51127  1  0  0  0
 51128  1  0  0  0
 52129  1  0  0  0
 52130  1  0  0  0
 53 54  1  0  0  0
 54 55  2  0  0  0
 54131  1  0  0  0
 55 57  1  0  0  0
 55132  1  0  0  0
 56 69  2  0  0  0
 57 58  2  0  0  0
 57133  1  0  0  0
 58134  1  0  0  0
 59 60  1  0  0  0
 59 61  1  0  0  0
 59 62  1  0  0  0
 60135  1  0  0  0
 60136  1  0  0  0
 60137  1  0  0  0
 61138  1  0  0  0
 61139  1  0  0  0
 61140  1  0  0  0
 62141  1  0  0  0
 62142  1  0  0  0
 62143  1  0  0  0
 63 65  1  0  0  0
 63144  1  0  0  0
 63145  1  0  0  0
 63146  1  0  0  0
 64147  1  0  0  0
 65148  1  0  0  0
 68 85  1  0  0  0
 71 72  2  0  0  0
 71 73  1  0  0  0
 71149  1  0  0  0
 72 74  1  0  0  0
 72150  1  0  0  0
 73 75  2  0  0  0
 73151  1  0  0  0
 74 76  2  0  0  0
 74 87  1  0  0  0
 75 76  1  0  0  0
 75 89  1  0  0  0
 76 88  1  0  0  0
 77 78  1  0  0  0
 77 79  1  0  0  0
 77152  1  0  0  0
 77153  1  0  0  0
 78 80  1  0  0  0
 78154  1  0  0  0
 78155  1  0  0  0
 79 87  1  0  0  0
 79156  1  0  0  0
 79157  1  0  0  0
 80 87  1  0  0  0
 80158  1  0  0  0
 80159  1  0  0  0
 81160  1  0  0  0
 81161  1  0  0  0
 81162  1  0  0  0
 81 86  1  0  0  0
 82 86  1  0  0  0
 82163  1  0  0  0
 82164  1  0  0  0
 82165  1  0  0  0
 83 89  1  0  0  0
 83166  1  0  0  0
 83167  1  0  0  0
 83168  1  0  0  0
 84 86  1  0  0  0
 84 88  1  0  0  0
 84169  1  0  0  0
 84170  1  0  0  0
 85 86  1  0  0  0
 85171  1  0  0  0
 85172  1  0  0  0
 88173  1  0  0  0
M  ISO  4   1 100  68 101  85 101  89 100
M  END
> <chiral flag>
0

> <version>
0

> <s_m_source_file>
/data/baiqing/PycharmProjects/Reinvent-master-3.2/result/LINK_invent/BTK/process_docking_weight1_custom_product_contain_oxygen_bond_distance_aromatic_linkinvent_7_9_3/rearranged_h_0025.sdf

> <i_m_source_file_index>
75

> <r_mmod_Potential_Energy-OPLS-2005>
1189.85083007812

> <r_mmod_Stretch_Energy-OPLS-2005>
343.809814453125

> <r_mmod_Bend_Energy-OPLS-2005>
377.542144775391

> <r_mmod_Torsional_Energy-OPLS-2005>
572.8857421875

> <r_mmod_Improper_Torsional_Energy-OPLS-2005>
21.1957607269287

> <r_mmod_Van_der_Waal_Energy-OPLS-2005>
160.525512695312

> <r_mmod_Electrostatic_Energy-OPLS-2005>
-331.805938720703

> <r_mmod_Solvation_Energy-OPLS-2005>
-199.119125366211

> <b_mmod_Minimization_Converged-OPLS-2005>
0

> <r_mmod_RMS_Derivative-OPLS-2005>
3.95938229560852

$$$$
75
                    3D
 Structure written by MMmdl.
172180  0  0  1  0            999 V2000
  -30.7486  -14.3627   20.7038 C   0  0  0  0  0  0
  -30.4198  -12.3000   19.3792 C   0  0  0  0  0  0
  -29.4792  -12.5286   18.1816 C   0  0  0  0  0  0
  -28.0047  -12.3652   18.5996 C   0  0  0  0  0  0
  -27.6629  -13.1789   19.8721 C   0  0  2  0  0  0
  -28.7031  -12.8913   20.9783 C   0  0  0  0  0  0
  -25.2624  -13.8096   20.5660 C   0  0  0  0  0  0
  -24.1854  -13.0418   20.9175 C   0  0  0  0  0  0
  -24.6360  -11.6869   20.8735 C   0  0  0  0  0  0
  -23.9008  -10.4277   21.0410 C   0  0  0  0  0  0
  -24.3573   -9.4197   21.9185 C   0  0  0  0  0  0
  -23.6269   -8.2229   22.0750 C   0  0  0  0  0  0
  -22.4251   -8.0265   21.3541 C   0  0  0  0  0  0
  -21.9876   -9.0234   20.4644 C   0  0  0  0  0  0
  -22.7187  -10.2117   20.3055 C   0  0  0  0  0  0
  -21.6844   -6.0723   22.5275 C   0  0  0  0  0  0
  -21.4011   -6.5627   23.8212 C   0  0  0  0  0  0
  -21.3661   -5.6778   24.9172 C   0  0  0  0  0  0
  -21.6046   -4.3044   24.7225 C   0  0  0  0  0  0
  -21.8822   -3.8131   23.4348 C   0  0  0  0  0  0
  -21.9195   -4.6949   22.3399 C   0  0  0  0  0  0
  -22.7882  -13.5256   21.1840 C   0  0  0  0  0  0
  -22.1672   -4.2138   21.0983 F   0  0  0  0  0  0
  -21.5621   -3.4524   25.7741 F   0  0  0  0  0  0
  -30.0365  -13.2301   20.4521 N   0  0  0  0  0  0
  -26.3017  -12.9210   20.3326 N   0  0  0  0  0  0
  -25.9267  -11.6394   20.5728 N   0  0  0  0  0  0
  -22.0505  -12.8269   22.0392 N   0  0  0  0  0  0
  -25.4383  -15.1813   20.4067 N   0  0  0  0  0  0
  -31.7907  -14.6394   20.0964 O   0  0  0  0  0  0
  -21.6622   -6.8857   21.4238 O   0  0  0  0  0  0
  -22.3608  -14.5583   20.6699 O   0  0  0  0  0  0
  -24.6079  -31.8718   23.2142 C   0  0  0  0  0  0
  -25.9000  -32.4849   23.8398 C   0  0  1  0  0  0
  -27.2408  -27.4847   20.1029 C   0  0  0  0  0  0
  -25.5896  -33.8640   24.2358 N   0  0  0  0  0  0
  -23.3950  -30.4919   21.5536 C   0  0  2  0  0  0
  -24.8434  -28.9597   20.1219 C   0  0  0  0  0  0
  -22.7384  -29.4660   22.5031 C   0  0  0  0  0  0
  -18.0279  -28.1355   22.8473 C   0  0  0  0  0  0
  -24.1487  -36.7330   23.2641 C   0  0  0  0  0  0
  -25.9111  -30.8550   21.3561 C   0  0  0  0  0  0
  -25.9946  -29.4860   20.7199 C   0  0  0  0  0  0
  -27.1952  -28.7507   20.7213 C   0  0  0  0  0  0
  -26.0871  -26.9696   19.4836 C   0  0  0  0  0  0
  -24.8775  -27.6929   19.5074 C   0  0  0  0  0  0
  -23.6016  -29.8174   20.1692 C   0  0  0  0  0  0
  -25.4104  -36.3137   24.0343 C   0  0  1  0  0  0
  -20.5862  -28.3657   23.1376 C   0  0  2  0  0  0
  -20.6775  -26.9389   22.5510 C   0  0  0  0  0  0
  -19.5816  -26.6403   21.5213 C   0  0  0  0  0  0
  -18.1970  -26.7929   22.1560 C   0  0  0  0  0  0
  -19.1511  -28.8820   23.2924 C   0  0  0  0  0  0
  -18.9422  -30.1426   23.8916 C   0  0  0  0  0  0
  -17.6408  -30.6561   24.0538 C   0  0  0  0  0  0
  -25.9028  -34.9497   23.5145 C   0  0  0  0  0  0
  -16.5327  -29.9045   23.6311 C   0  0  0  0  0  0
  -16.7268  -28.6462   23.0314 C   0  0  0  0  0  0
  -26.4459  -31.6594   25.0679 C   0  0  0  0  0  0
  -25.3770  -31.3657   26.1449 C   0  0  0  0  0  0
  -27.0245  -30.3058   24.5946 C   0  0  0  0  0  0
  -27.6075  -32.4280   25.7426 C   0  0  0  0  0  0
  -27.5578  -37.1821   24.8462 C   0  0  0  0  0  0
  -21.4120  -29.3027   22.3786 N   0  0  0  0  0  0
  -26.4301  -37.3814   23.9401 N   0  0  0  0  0  0
  -24.6565  -31.0857   22.1022 N   0  0  0  0  0  0
  -23.4191  -28.8166   23.3019 O   0  0  0  0  0  0
  -28.3975  -26.7544   20.0521 O   0  0  0  0  0  0
  -26.5589  -34.8952   22.4713 O   0  0  0  0  0  0
  -23.5291  -32.1404   23.7613 O   0  0  0  0  0  0
  -28.2770  -18.2396   21.9187 C   0  0  0  0  0  0
  -30.4580  -17.8855   20.8827 C   0  0  0  0  0  0
  -29.5509  -20.1356   21.0679 C   0  0  0  0  0  0
  -29.3206  -17.3661   21.5429 C   0  0  0  0  0  0
  -28.3965  -19.6278   21.7052 C   0  0  0  0  0  0
  -30.5734  -19.2668   20.6523 C   0  0  0  0  0  0
  -27.4745  -21.6408   22.7550 C   0  0  0  0  0  0
  -28.6252  -23.9892   20.4525 C   0  0  0  0  0  0
  -31.3965  -15.4104   22.8058 C   0  0  0  0  0  0
  -25.6620  -24.4411   24.2544 C   0  0  0  0  0  0
  -29.1619  -15.8807   21.8375 C   0  0  0  0  0  0
  -26.2688  -22.5733   22.7857 C   0  0  0  0  0  0
  -26.9527  -24.9260   22.2090 C   0  0  0  0  0  0
  -28.9263  -26.3320   21.3091 C   0  0  0  0  0  0
  -28.4156  -24.9139   21.6738 C   0  0  2  0  0  0
  -27.3360  -20.4906   22.0772 N   0  0  0  0  0  0
  -30.3837  -15.0569   21.8063 N   0  0  0  0  0  0
  -26.6516  -23.9231   23.2787 N   0  3  1  0  0  0
  -28.5107  -21.9676   23.3413 O   0  0  0  0  0  0
  -31.9710  -19.9009   19.8644 Cl  0  0  0  0  0  0
  -31.4597  -12.4183   19.0707 H   0  0  0  0  0  0
  -30.3390  -11.2725   19.7362 H   0  0  0  0  0  0
  -29.7180  -11.8335   17.3765 H   0  0  0  0  0  0
  -29.6354  -13.5297   17.7762 H   0  0  0  0  0  0
  -27.8205  -11.3047   18.7764 H   0  0  0  0  0  0
  -27.3464  -12.6563   17.7808 H   0  0  0  0  0  0
  -27.7175  -14.2256   19.5816 H   0  0  0  0  0  0
  -28.6832  -11.8316   21.2351 H   0  0  0  0  0  0
  -28.4496  -13.3919   21.9103 H   0  0  0  0  0  0
  -25.2717   -9.5678   22.4754 H   0  0  0  0  0  0
  -23.9971   -7.4623   22.7475 H   0  0  0  0  0  0
  -21.0797   -8.8749   19.8965 H   0  0  0  0  0  0
  -22.3642  -10.9654   19.6160 H   0  0  0  0  0  0
  -21.2007   -7.6138   23.9714 H   0  0  0  0  0  0
  -21.1481   -6.0508   25.9078 H   0  0  0  0  0  0
  -22.0603   -2.7595   23.2846 H   0  0  0  0  0  0
  -22.4073  -11.9915   22.4789 H   0  0  0  0  0  0
  -21.1140  -13.1336   22.2609 H   0  0  0  0  0  0
  -24.6636  -15.8293   20.4967 H   0  0  0  0  0  0
  -26.2789  -15.6145   20.0478 H   0  0  0  0  0  0
  -26.7067  -32.5623   23.1168 H   0  0  0  0  0  0
  -25.0028  -33.9779   25.0490 H   0  0  0  0  0  0
  -22.6816  -31.3076   21.4133 H   0  0  0  0  0  0
  -23.3754  -35.9669   23.3342 H   0  0  0  0  0  0
  -24.3556  -36.8896   22.2043 H   0  0  0  0  0  0
  -23.7234  -37.6547   23.6613 H   0  0  0  0  0  0
  -25.9954  -31.6171   20.5806 H   0  0  0  0  0  0
  -26.8086  -30.9275   21.9566 H   0  0  0  0  0  0
  -28.0848  -29.1575   21.1793 H   0  0  0  0  0  0
  -26.1296  -26.0097   18.9880 H   0  0  0  0  0  0
  -23.9915  -27.2820   19.0418 H   0  0  0  0  0  0
  -23.7053  -30.5844   19.4009 H   0  0  0  0  0  0
  -22.7302  -29.2279   19.8807 H   0  0  0  0  0  0
  -25.1283  -36.2009   25.0834 H   0  0  0  0  0  0
  -20.9942  -28.3262   24.1507 H   0  0  0  0  0  0
  -20.5532  -26.2288   23.3694 H   0  0  0  0  0  0
  -21.6681  -26.7349   22.1435 H   0  0  0  0  0  0
  -19.7013  -25.6336   21.1197 H   0  0  0  0  0  0
  -19.6844  -27.3265   20.6792 H   0  0  0  0  0  0
  -17.4281  -26.6725   21.3903 H   0  0  0  0  0  0
  -18.0317  -25.9996   22.8867 H   0  0  0  0  0  0
  -19.7870  -30.7248   24.2322 H   0  0  0  0  0  0
  -17.4944  -31.6263   24.5093 H   0  0  0  0  0  0
  -15.5306  -30.2930   23.7608 H   0  0  0  0  0  0
  -15.8679  -28.0779   22.7017 H   0  0  0  0  0  0
  -24.5937  -30.7011   25.7762 H   0  0  0  0  0  0
  -24.8971  -32.2801   26.4948 H   0  0  0  0  0  0
  -25.8154  -30.8762   27.0155 H   0  0  0  0  0  0
  -26.2708  -29.6849   24.1080 H   0  0  0  0  0  0
  -27.4130  -29.7230   25.4300 H   0  0  0  0  0  0
  -27.8502  -30.4388   23.8960 H   0  0  0  0  0  0
  -27.2719  -33.3546   26.2080 H   0  0  0  0  0  0
  -28.3842  -32.6879   25.0233 H   0  0  0  0  0  0
  -28.0789  -31.8349   26.5258 H   0  0  0  0  0  0
  -28.2633  -38.0087   24.7501 H   0  0  0  0  0  0
  -28.1035  -36.2616   24.6317 H   0  0  0  0  0  0
  -27.2284  -37.1522   25.8865 H   0  0  0  0  0  0
  -20.9279  -29.8776   21.7037 H   0  0  0  0  0  0
  -26.0206  -38.2899   24.1415 H   0  0  0  0  0  0
  -27.3898  -17.8397   22.3908 H   0  0  0  0  0  0
  -31.2587  -17.2417   20.5517 H   0  0  0  0  0  0
  -29.6586  -21.1920   20.8812 H   0  0  0  0  0  0
  -28.2886  -22.9738   20.6134 H   0  0  0  0  0  0
  -29.6834  -23.9368   20.1863 H   0  0  0  0  0  0
  -28.0892  -24.3484   19.5738 H   0  0  0  0  0  0
  -30.9570  -15.9144   23.6668 H   0  0  0  0  0  0
  -32.1612  -16.0661   22.3881 H   0  0  0  0  0  0
  -31.8933  -14.5113   23.1734 H   0  0  0  0  0  0
  -25.4913  -23.7229   25.0585 H   0  0  0  0  0  0
  -24.7033  -24.6395   23.7737 H   0  0  0  0  0  0
  -26.0032  -25.3658   24.7205 H   0  0  0  0  0  0
  -28.4305  -15.5301   21.1170 H   0  0  0  0  0  0
  -28.6900  -15.7572   22.8129 H   0  0  0  0  0  0
  -25.5399  -22.1054   23.4493 H   0  0  0  0  0  0
  -25.8027  -22.6273   21.8014 H   0  0  0  0  0  0
  -26.2341  -24.8438   21.3937 H   0  0  0  0  0  0
  -26.7713  -25.9156   22.6276 H   0  0  0  0  0  0
  -28.7386  -27.0433   22.1167 H   0  0  0  0  0  0
  -30.0094  -26.3032   21.1994 H   0  0  0  0  0  0
  -29.0586  -24.5675   22.4840 H   0  0  0  0  0  0
  -26.4046  -20.2320   21.7748 H   0  0  0  0  0  0
  -27.5067  -23.7525   23.7954 H   0  0  0  0  0  0
  1 25  1  0  0  0
  1 30  2  0  0  0
  1 87  1  0  0  0
  2  3  1  0  0  0
  2 25  1  0  0  0
  2 91  1  0  0  0
  2 92  1  0  0  0
  3  4  1  0  0  0
  3 93  1  0  0  0
  3 94  1  0  0  0
  4  5  1  0  0  0
  4 95  1  0  0  0
  4 96  1  0  0  0
  5  6  1  0  0  0
  5 26  1  0  0  0
  5 97  1  0  0  0
  6 25  1  0  0  0
  6 98  1  0  0  0
  6 99  1  0  0  0
  7  8  2  0  0  0
  7 26  1  0  0  0
  7 29  1  0  0  0
  8  9  1  0  0  0
  8 22  1  0  0  0
  9 10  1  0  0  0
  9 27  2  0  0  0
 10 11  2  0  0  0
 10 15  1  0  0  0
 11 12  1  0  0  0
 11100  1  0  0  0
 12 13  2  0  0  0
 12101  1  0  0  0
 13 14  1  0  0  0
 13 31  1  0  0  0
 14 15  2  0  0  0
 14102  1  0  0  0
 15103  1  0  0  0
 16 17  2  0  0  0
 16 21  1  0  0  0
 16 31  1  0  0  0
 17 18  1  0  0  0
 17104  1  0  0  0
 18 19  2  0  0  0
 18105  1  0  0  0
 19 20  1  0  0  0
 19 24  1  0  0  0
 20 21  2  0  0  0
 20106  1  0  0  0
 21 23  1  0  0  0
 22 28  1  0  0  0
 22 32  2  0  0  0
 26 27  1  0  0  0
 28107  1  0  0  0
 28108  1  0  0  0
 29109  1  0  0  0
 29110  1  0  0  0
 33 34  1  0  0  0
 33 66  1  0  0  0
 33 70  2  0  0  0
 34 36  1  0  0  0
 34 59  1  0  0  0
 34111  1  0  0  0
 35 44  2  0  0  0
 35 45  1  0  0  0
 35 68  1  0  0  0
 36 56  1  0  0  0
 36112  1  0  0  0
 37 39  1  0  0  0
 37 47  1  0  0  0
 37 66  1  0  0  0
 37113  1  0  0  0
 38 43  2  0  0  0
 38 46  1  0  0  0
 38 47  1  0  0  0
 39 64  1  0  0  0
 39 67  2  0  0  0
 40 52  1  0  0  0
 40 53  2  0  0  0
 40 58  1  0  0  0
 41114  1  0  0  0
 41115  1  0  0  0
 41116  1  0  0  0
 41 48  1  0  0  0
 42 43  1  0  0  0
 42 66  1  0  0  0
 42117  1  0  0  0
 42118  1  0  0  0
 43 44  1  0  0  0
 44119  1  0  0  0
 45 46  2  0  0  0
 45120  1  0  0  0
 46121  1  0  0  0
 47122  1  0  0  0
 47123  1  0  0  0
 48 56  1  0  0  0
 48 65  1  0  0  0
 48124  1  0  0  0
 49 50  1  0  0  0
 49 53  1  0  0  0
 49 64  1  0  0  0
 49125  1  0  0  0
 50 51  1  0  0  0
 50126  1  0  0  0
 50127  1  0  0  0
 51 52  1  0  0  0
 51128  1  0  0  0
 51129  1  0  0  0
 52130  1  0  0  0
 52131  1  0  0  0
 53 54  1  0  0  0
 54 55  2  0  0  0
 54132  1  0  0  0
 55 57  1  0  0  0
 55133  1  0  0  0
 56 69  2  0  0  0
 57 58  2  0  0  0
 57134  1  0  0  0
 58135  1  0  0  0
 59 60  1  0  0  0
 59 61  1  0  0  0
 59 62  1  0  0  0
 60136  1  0  0  0
 60137  1  0  0  0
 60138  1  0  0  0
 61139  1  0  0  0
 61140  1  0  0  0
 61141  1  0  0  0
 62142  1  0  0  0
 62143  1  0  0  0
 62144  1  0  0  0
 63 65  1  0  0  0
 63145  1  0  0  0
 63146  1  0  0  0
 63147  1  0  0  0
 64148  1  0  0  0
 65149  1  0  0  0
 68 84  1  0  0  0
 71 74  2  0  0  0
 71 75  1  0  0  0
 71150  1  0  0  0
 72 74  1  0  0  0
 72 76  2  0  0  0
 72151  1  0  0  0
 73 75  2  0  0  0
 73 76  1  0  0  0
 73152  1  0  0  0
 74 81  1  0  0  0
 75 86  1  0  0  0
 76 90  1  0  0  0
 77 82  1  0  0  0
 77 86  1  0  0  0
 77 89  2  0  0  0
 78153  1  0  0  0
 78154  1  0  0  0
 78155  1  0  0  0
 78 85  1  0  0  0
 79 87  1  0  0  0
 79156  1  0  0  0
 79157  1  0  0  0
 79158  1  0  0  0
 80159  1  0  0  0
 80160  1  0  0  0
 80161  1  0  0  0
 80 88  1  0  0  0
 81 87  1  0  0  0
 81162  1  0  0  0
 81163  1  0  0  0
 82 88  1  0  0  0
 82164  1  0  0  0
 82165  1  0  0  0
 83 85  1  0  0  0
 83 88  1  0  0  0
 83166  1  0  0  0
 83167  1  0  0  0
 84 85  1  0  0  0
 84168  1  0  0  0
 84169  1  0  0  0
 85170  1  0  0  0
 86171  1  0  0  0
 88172  1  0  0  0
M  CHG  1  88   1
M  ISO  4   1 100  68 101  84 101  87 100
M  END
> <chiral flag>
0

> <version>
0

> <s_m_source_file>
/data/baiqing/PycharmProjects/Reinvent-master-3.2/result/LINK_invent/BTK/process_docking_weight1_custom_product_contain_oxygen_bond_distance_aromatic_linkinvent_7_9_3/rearranged_h_0025.sdf

> <i_m_source_file_index>
76

> <r_mmod_Potential_Energy-OPLS-2005>
-138.908569335938

> <r_mmod_Stretch_Energy-OPLS-2005>
35.4977416992188

> <r_mmod_Bend_Energy-OPLS-2005>
102.186431884766

> <r_mmod_Torsional_Energy-OPLS-2005>
330.188507080078

> <r_mmod_Improper_Torsional_Energy-OPLS-2005>
6.21410179138184

> <r_mmod_Van_der_Waal_Energy-OPLS-2005>
156.608016967773

> <r_mmod_Electrostatic_Energy-OPLS-2005>
-347.528472900391

> <r_mmod_Solvation_Energy-OPLS-2005>
-428.989562988281

> <b_mmod_Minimization_Converged-OPLS-2005>
0

> <r_mmod_RMS_Derivative-OPLS-2005>
3.35380268096924

$$$$
76
                    3D
 Structure written by MMmdl.
152161  0  0  1  0            999 V2000
  -30.5123  -14.9520   20.4182 C   0  0  0  0  0  0
  -30.4503  -12.5857   19.4999 C   0  0  0  0  0  0
  -29.5278  -12.5377   18.2580 C   0  0  0  0  0  0
  -28.0587  -12.3237   18.6709 C   0  0  0  0  0  0
  -27.6353  -13.2456   19.8446 C   0  0  2  0  0  0
  -28.6796  -13.2487   20.9825 C   0  0  0  0  0  0
  -25.2491  -13.8209   20.5723 C   0  0  0  0  0  0
  -24.1804  -13.0435   20.9236 C   0  0  0  0  0  0
  -24.6419  -11.6919   20.8758 C   0  0  0  0  0  0
  -23.9102  -10.4289   21.0400 C   0  0  0  0  0  0
  -24.3647   -9.4201   21.9177 C   0  0  0  0  0  0
  -23.6313   -8.2243   22.0750 C   0  0  0  0  0  0
  -22.4288   -8.0285   21.3548 C   0  0  0  0  0  0
  -21.9935   -9.0262   20.4650 C   0  0  0  0  0  0
  -22.7272  -10.2135   20.3056 C   0  0  0  0  0  0
  -21.6856   -6.0745   22.5285 C   0  0  0  0  0  0
  -21.4013   -6.5648   23.8218 C   0  0  0  0  0  0
  -21.3661   -5.6797   24.9180 C   0  0  0  0  0  0
  -21.6047   -4.3062   24.7224 C   0  0  0  0  0  0
  -21.8820   -3.8157   23.4346 C   0  0  0  0  0  0
  -21.9192   -4.6976   22.3401 C   0  0  0  0  0  0
  -22.7818  -13.5205   21.1889 C   0  0  0  0  0  0
  -22.1658   -4.2168   21.0976 F   0  0  0  0  0  0
  -21.5634   -3.4542   25.7733 F   0  0  0  0  0  0
  -29.9584  -13.6719   20.3942 N   0  0  0  0  0  0
  -26.2919  -12.9437   20.3264 N   0  0  0  0  0  0
  -25.9351  -11.6566   20.5748 N   0  0  0  0  0  0
  -22.0465  -12.8191   22.0439 N   0  0  0  0  0  0
  -25.4139  -15.1943   20.4157 N   0  0  0  0  0  0
  -31.7027  -15.0628   20.1044 O   0  0  0  0  0  0
  -21.6643   -6.8890   21.4246 O   0  0  0  0  0  0
  -22.3500  -14.5508   20.6730 O   0  0  0  0  0  0
  -24.6444  -31.8416   23.1866 C   0  0  0  0  0  0
  -25.9211  -32.4686   23.8259 C   0  0  1  0  0  0
  -27.2218  -27.1207   20.1470 C   0  0  0  0  0  0
  -25.5956  -33.8492   24.2174 N   0  0  0  0  0  0
  -23.4481  -30.4602   21.5326 C   0  0  2  0  0  0
  -24.8977  -28.8835   20.1069 C   0  0  0  0  0  0
  -22.7564  -29.4544   22.4866 C   0  0  0  0  0  0
  -18.0298  -28.1405   22.8491 C   0  0  0  0  0  0
  -24.1491  -36.7248   23.2641 C   0  0  0  0  0  0
  -26.0041  -30.7083   21.3887 C   0  0  0  0  0  0
  -26.0733  -29.3183   20.7301 C   0  0  0  0  0  0
  -27.2294  -28.4504   20.7383 C   0  0  0  0  0  0
  -26.0177  -26.7904   19.4834 C   0  0  0  0  0  0
  -24.8836  -27.6333   19.4705 C   0  0  0  0  0  0
  -23.6741  -29.7870   20.1522 C   0  0  0  0  0  0
  -25.4129  -36.3021   24.0308 C   0  0  1  0  0  0
  -20.5905  -28.3733   23.1253 C   0  0  2  0  0  0
  -20.6778  -26.9431   22.5435 C   0  0  0  0  0  0
  -19.5756  -26.6385   21.5238 C   0  0  0  0  0  0
  -18.1927  -26.7949   22.1628 C   0  0  0  0  0  0
  -19.1553  -28.8888   23.2863 C   0  0  0  0  0  0
  -18.9471  -30.1483   23.8889 C   0  0  0  0  0  0
  -17.6467  -30.6603   24.0563 C   0  0  0  0  0  0
  -25.9087  -34.9400   23.5056 C   0  0  0  0  0  0
  -16.5359  -29.9093   23.6336 C   0  0  0  0  0  0
  -16.7283  -28.6510   23.0370 C   0  0  0  0  0  0
  -26.4520  -31.6562   25.0713 C   0  0  0  0  0  0
  -25.3699  -31.3780   26.1409 C   0  0  0  0  0  0
  -27.0369  -30.2946   24.6321 C   0  0  0  0  0  0
  -27.6056  -32.4332   25.7494 C   0  0  0  0  0  0
  -27.5584  -37.1775   24.8456 C   0  0  0  0  0  0
  -21.4255  -29.3049   22.3614 N   0  0  0  0  0  0
  -26.4288  -37.3742   23.9411 N   0  0  0  0  0  0
  -24.7188  -31.0253   22.0910 N   0  0  0  0  0  0
  -23.4196  -28.8105   23.3037 O   0  0  0  0  0  0
  -28.2862  -26.1469   20.2664 O   0  0  0  0  0  0
  -26.5681  -34.8900   22.4641 O   0  0  0  0  0  0
  -23.5567  -32.1297   23.7093 O   0  0  0  0  0  0
  -29.3622  -18.2678   19.2331 C   0  0  0  0  0  0
  -29.2237  -20.6908   20.1244 C   0  0  0  0  0  0
  -29.6985  -17.6062   20.4563 C   0  0  0  0  0  0
  -29.1359  -19.6959   19.0703 C   0  0  0  0  0  0
  -29.5671  -20.0291   21.3665 C   0  0  0  0  0  0
  -29.7680  -18.5782   21.5224 C   0  0  0  0  0  0
  -28.3578  -23.2907   20.5042 C   0  0  0  0  0  0
  -29.6067  -24.4347   18.8958 C   0  0  0  0  0  0
  -29.7051  -22.8875   18.7350 C   0  0  0  0  0  0
  -28.3172  -24.7005   19.6680 C   0  0  2  0  0  0
  -29.0635  -22.2285   19.8903 N   0  0  0  0  0  0
  -29.6704  -16.0731   20.6475 N   0  0  0  0  0  0
  -27.7525  -23.1810   21.5737 O   0  0  0  0  0  0
  -28.6576  -20.1555   17.4751 Cl  0  0  0  0  0  0
  -29.7940  -21.0222   22.7667 Cl  0  0  0  0  0  0
  -30.0964  -17.9547   23.1044 Cl  0  0  0  0  0  0
  -31.4841  -12.7516   19.1915 H   0  0  0  0  0  0
  -30.4475  -11.6288   20.0237 H   0  0  0  0  0  0
  -29.8471  -11.7451   17.5804 H   0  0  0  0  0  0
  -29.6176  -13.4711   17.6999 H   0  0  0  0  0  0
  -27.9494  -11.2802   18.9667 H   0  0  0  0  0  0
  -27.3981  -12.4660   17.8148 H   0  0  0  0  0  0
  -27.6037  -14.2533   19.4297 H   0  0  0  0  0  0
  -28.7683  -12.2605   21.4361 H   0  0  0  0  0  0
  -28.3818  -13.9273   21.7828 H   0  0  0  0  0  0
  -25.2790   -9.5675   22.4758 H   0  0  0  0  0  0
  -24.0027   -7.4630   22.7464 H   0  0  0  0  0  0
  -21.0872   -8.8785   19.8952 H   0  0  0  0  0  0
  -22.3730  -10.9679   19.6176 H   0  0  0  0  0  0
  -21.1996   -7.6152   23.9735 H   0  0  0  0  0  0
  -21.1488   -6.0518   25.9086 H   0  0  0  0  0  0
  -22.0595   -2.7622   23.2837 H   0  0  0  0  0  0
  -22.4086  -11.9859   22.4836 H   0  0  0  0  0  0
  -21.1084  -13.1213   22.2646 H   0  0  0  0  0  0
  -24.6399  -15.8389   20.5322 H   0  0  0  0  0  0
  -26.2471  -15.6405   20.0557 H   0  0  0  0  0  0
  -26.7274  -32.5269   23.0977 H   0  0  0  0  0  0
  -25.0069  -33.9606   25.0302 H   0  0  0  0  0  0
  -22.7529  -31.2878   21.3765 H   0  0  0  0  0  0
  -23.3767  -35.9565   23.3274 H   0  0  0  0  0  0
  -24.3575  -36.8921   22.2063 H   0  0  0  0  0  0
  -23.7233  -37.6427   23.6707 H   0  0  0  0  0  0
  -26.1649  -31.4614   20.6160 H   0  0  0  0  0  0
  -26.8733  -30.7568   22.0330 H   0  0  0  0  0  0
  -28.1207  -28.7736   21.2576 H   0  0  0  0  0  0
  -25.8934  -25.8353   19.0002 H   0  0  0  0  0  0
  -23.9844  -27.2911   18.9765 H   0  0  0  0  0  0
  -23.8131  -30.5604   19.3964 H   0  0  0  0  0  0
  -22.7868  -29.2325   19.8412 H   0  0  0  0  0  0
  -25.1322  -36.1837   25.0802 H   0  0  0  0  0  0
  -21.0007  -28.3326   24.1374 H   0  0  0  0  0  0
  -20.5662  -26.2354   23.3665 H   0  0  0  0  0  0
  -21.6645  -26.7428   22.1246 H   0  0  0  0  0  0
  -19.6916  -25.6289   21.1289 H   0  0  0  0  0  0
  -19.6700  -27.3186   20.6763 H   0  0  0  0  0  0
  -17.4214  -26.6733   21.4009 H   0  0  0  0  0  0
  -18.0287  -26.0083   22.9011 H   0  0  0  0  0  0
  -19.7939  -30.7302   24.2262 H   0  0  0  0  0  0
  -17.5010  -31.6275   24.5175 H   0  0  0  0  0  0
  -15.5358  -30.2991   23.7664 H   0  0  0  0  0  0
  -15.8682  -28.0813   22.7115 H   0  0  0  0  0  0
  -24.5900  -30.7092   25.7745 H   0  0  0  0  0  0
  -24.8863  -32.2972   26.4730 H   0  0  0  0  0  0
  -25.7982  -30.9036   27.0248 H   0  0  0  0  0  0
  -26.2981  -29.6682   24.1308 H   0  0  0  0  0  0
  -27.3925  -29.7246   25.4913 H   0  0  0  0  0  0
  -27.8917  -30.4161   23.9666 H   0  0  0  0  0  0
  -27.2660  -33.3669   26.1987 H   0  0  0  0  0  0
  -28.3905  -32.6832   25.0344 H   0  0  0  0  0  0
  -28.0663  -31.8501   26.5474 H   0  0  0  0  0  0
  -28.2578  -38.0095   24.7522 H   0  0  0  0  0  0
  -28.1104  -36.2625   24.6250 H   0  0  0  0  0  0
  -27.2306  -37.1383   25.8859 H   0  0  0  0  0  0
  -20.9473  -29.8747   21.6775 H   0  0  0  0  0  0
  -26.0143  -38.2802   24.1442 H   0  0  0  0  0  0
  -29.2164  -17.6485   18.3606 H   0  0  0  0  0  0
  -29.6171  -24.9427   17.9319 H   0  0  0  0  0  0
  -30.4591  -24.8067   19.4667 H   0  0  0  0  0  0
  -30.7384  -22.5612   18.6157 H   0  0  0  0  0  0
  -29.1721  -22.6369   17.8214 H   0  0  0  0  0  0
  -27.5044  -24.5768   18.9582 H   0  0  0  0  0  0
  -28.7689  -15.7535   20.9670 H   0  0  0  0  0  0
  1 25  1  0  0  0
  1 30  2  0  0  0
  1 82  1  0  0  0
  2  3  1  0  0  0
  2 25  1  0  0  0
  2 87  1  0  0  0
  2 88  1  0  0  0
  3  4  1  0  0  0
  3 89  1  0  0  0
  3 90  1  0  0  0
  4  5  1  0  0  0
  4 91  1  0  0  0
  4 92  1  0  0  0
  5  6  1  0  0  0
  5 26  1  0  0  0
  5 93  1  0  0  0
  6 25  1  0  0  0
  6 94  1  0  0  0
  6 95  1  0  0  0
  7  8  2  0  0  0
  7 26  1  0  0  0
  7 29  1  0  0  0
  8  9  1  0  0  0
  8 22  1  0  0  0
  9 10  1  0  0  0
  9 27  2  0  0  0
 10 11  2  0  0  0
 10 15  1  0  0  0
 11 12  1  0  0  0
 11 96  1  0  0  0
 12 13  2  0  0  0
 12 97  1  0  0  0
 13 14  1  0  0  0
 13 31  1  0  0  0
 14 15  2  0  0  0
 14 98  1  0  0  0
 15 99  1  0  0  0
 16 17  2  0  0  0
 16 21  1  0  0  0
 16 31  1  0  0  0
 17 18  1  0  0  0
 17100  1  0  0  0
 18 19  2  0  0  0
 18101  1  0  0  0
 19 20  1  0  0  0
 19 24  1  0  0  0
 20 21  2  0  0  0
 20102  1  0  0  0
 21 23  1  0  0  0
 22 28  1  0  0  0
 22 32  2  0  0  0
 26 27  1  0  0  0
 28103  1  0  0  0
 28104  1  0  0  0
 29105  1  0  0  0
 29106  1  0  0  0
 33 34  1  0  0  0
 33 66  1  0  0  0
 33 70  2  0  0  0
 34 36  1  0  0  0
 34 59  1  0  0  0
 34107  1  0  0  0
 35 44  2  0  0  0
 35 45  1  0  0  0
 35 68  1  0  0  0
 36 56  1  0  0  0
 36108  1  0  0  0
 37 39  1  0  0  0
 37 47  1  0  0  0
 37 66  1  0  0  0
 37109  1  0  0  0
 38 43  2  0  0  0
 38 46  1  0  0  0
 38 47  1  0  0  0
 39 64  1  0  0  0
 39 67  2  0  0  0
 40 52  1  0  0  0
 40 53  2  0  0  0
 40 58  1  0  0  0
 41110  1  0  0  0
 41111  1  0  0  0
 41112  1  0  0  0
 41 48  1  0  0  0
 42 43  1  0  0  0
 42 66  1  0  0  0
 42113  1  0  0  0
 42114  1  0  0  0
 43 44  1  0  0  0
 44115  1  0  0  0
 45 46  2  0  0  0
 45116  1  0  0  0
 46117  1  0  0  0
 47118  1  0  0  0
 47119  1  0  0  0
 48 56  1  0  0  0
 48 65  1  0  0  0
 48120  1  0  0  0
 49 50  1  0  0  0
 49 53  1  0  0  0
 49 64  1  0  0  0
 49121  1  0  0  0
 50 51  1  0  0  0
 50122  1  0  0  0
 50123  1  0  0  0
 51 52  1  0  0  0
 51124  1  0  0  0
 51125  1  0  0  0
 52126  1  0  0  0
 52127  1  0  0  0
 53 54  1  0  0  0
 54 55  2  0  0  0
 54128  1  0  0  0
 55 57  1  0  0  0
 55129  1  0  0  0
 56 69  2  0  0  0
 57 58  2  0  0  0
 57130  1  0  0  0
 58131  1  0  0  0
 59 60  1  0  0  0
 59 61  1  0  0  0
 59 62  1  0  0  0
 60132  1  0  0  0
 60133  1  0  0  0
 60134  1  0  0  0
 61135  1  0  0  0
 61136  1  0  0  0
 61137  1  0  0  0
 62138  1  0  0  0
 62139  1  0  0  0
 62140  1  0  0  0
 63 65  1  0  0  0
 63141  1  0  0  0
 63142  1  0  0  0
 63143  1  0  0  0
 64144  1  0  0  0
 65145  1  0  0  0
 68 80  1  0  0  0
 71 73  2  0  0  0
 71 74  1  0  0  0
 71146  1  0  0  0
 72 74  2  0  0  0
 72 75  1  0  0  0
 72 81  1  0  0  0
 73 76  1  0  0  0
 73 82  1  0  0  0
 74 84  1  0  0  0
 75 76  2  0  0  0
 75 85  1  0  0  0
 76 86  1  0  0  0
 77 80  1  0  0  0
 77 81  1  0  0  0
 77 83  2  0  0  0
 78 79  1  0  0  0
 78 80  1  0  0  0
 78147  1  0  0  0
 78148  1  0  0  0
 79 81  1  0  0  0
 79149  1  0  0  0
 79150  1  0  0  0
 80151  1  0  0  0
 82152  1  0  0  0
M  ISO  4   1 100  68 101  80 101  82 100
M  END
> <chiral flag>
0

> <version>
0

> <s_m_source_file>
/data/baiqing/PycharmProjects/Reinvent-master-3.2/result/LINK_invent/BTK/process_docking_weight1_custom_product_contain_oxygen_bond_distance_aromatic_linkinvent_7_9_3/rearranged_h_0025.sdf

> <i_m_source_file_index>
77

> <r_mmod_Potential_Energy-OPLS-2005>
601.615783691406

> <r_mmod_Stretch_Energy-OPLS-2005>
245.860733032227

> <r_mmod_Bend_Energy-OPLS-2005>
309.81591796875

> <r_mmod_Torsional_Energy-OPLS-2005>
299.995147705078

> <r_mmod_Improper_Torsional_Energy-OPLS-2005>
6.29382991790771

> <r_mmod_Van_der_Waal_Energy-OPLS-2005>
129.038940429688

> <r_mmod_Electrostatic_Energy-OPLS-2005>
-347.927307128906

> <r_mmod_Solvation_Energy-OPLS-2005>
-241.480621337891

> <b_mmod_Minimization_Converged-OPLS-2005>
0

> <r_mmod_RMS_Derivative-OPLS-2005>
1.35974490642548

$$$$
77
                    3D
 Structure written by MMmdl.
168177  0  0  1  0            999 V2000
  -30.7595  -14.5000   20.3860 C   0  0  0  0  0  0
  -30.4006  -12.2866   19.4261 C   0  0  0  0  0  0
  -29.4822  -12.4247   18.1984 C   0  0  0  0  0  0
  -28.0006  -12.3411   18.6167 C   0  0  0  0  0  0
  -27.6420  -13.2292   19.8432 C   0  0  2  0  0  0
  -28.7071  -13.1312   20.9581 C   0  0  0  0  0  0
  -25.2410  -13.8063   20.5764 C   0  0  0  0  0  0
  -24.1736  -13.0310   20.9252 C   0  0  0  0  0  0
  -24.6392  -11.6836   20.8784 C   0  0  0  0  0  0
  -23.9080  -10.4231   21.0415 C   0  0  0  0  0  0
  -24.3623   -9.4163   21.9203 C   0  0  0  0  0  0
  -23.6290   -8.2208   22.0755 C   0  0  0  0  0  0
  -22.4277   -8.0260   21.3535 C   0  0  0  0  0  0
  -21.9921   -9.0233   20.4635 C   0  0  0  0  0  0
  -22.7258  -10.2102   20.3051 C   0  0  0  0  0  0
  -21.6841   -6.0728   22.5282 C   0  0  0  0  0  0
  -21.4017   -6.5634   23.8218 C   0  0  0  0  0  0
  -21.3672   -5.6784   24.9180 C   0  0  0  0  0  0
  -21.6054   -4.3047   24.7225 C   0  0  0  0  0  0
  -21.8821   -3.8140   23.4344 C   0  0  0  0  0  0
  -21.9180   -4.6957   22.3403 C   0  0  0  0  0  0
  -22.7755  -13.5121   21.1870 C   0  0  0  0  0  0
  -22.1643   -4.2145   21.0974 F   0  0  0  0  0  0
  -21.5634   -3.4531   25.7737 F   0  0  0  0  0  0
  -30.0198  -13.3613   20.3465 N   0  0  0  0  0  0
  -26.2947  -12.9387   20.3351 N   0  0  0  0  0  0
  -25.9339  -11.6515   20.5810 N   0  0  0  0  0  0
  -22.0389  -12.8163   22.0452 N   0  0  0  0  0  0
  -25.3752  -15.1747   20.4281 N   0  0  0  0  0  0
  -31.9878  -14.4709   20.3243 O   0  0  0  0  0  0
  -21.6625   -6.8874   21.4243 O   0  0  0  0  0  0
  -22.3451  -14.5413   20.6671 O   0  0  0  0  0  0
  -24.6109  -31.8704   23.2123 C   0  0  0  0  0  0
  -25.9009  -32.4838   23.8415 C   0  0  1  0  0  0
  -27.2326  -27.4643   20.0883 C   0  0  0  0  0  0
  -25.5857  -33.8639   24.2327 N   0  0  0  0  0  0
  -23.3980  -30.4946   21.5554 C   0  0  2  0  0  0
  -24.8423  -28.9643   20.1190 C   0  0  0  0  0  0
  -22.7392  -29.4677   22.5027 C   0  0  0  0  0  0
  -18.0258  -28.1390   22.8498 C   0  0  0  0  0  0
  -24.1479  -36.7325   23.2643 C   0  0  0  0  0  0
  -25.9249  -30.8459   21.3607 C   0  0  0  0  0  0
  -26.0024  -29.4837   20.7060 C   0  0  0  0  0  0
  -27.2046  -28.7444   20.6815 C   0  0  0  0  0  0
  -26.0574  -26.9548   19.4935 C   0  0  0  0  0  0
  -24.8631  -27.6987   19.5091 C   0  0  0  0  0  0
  -23.6022  -29.8267   20.1704 C   0  0  0  0  0  0
  -25.4101  -36.3125   24.0339 C   0  0  1  0  0  0
  -20.5853  -28.3657   23.1333 C   0  0  2  0  0  0
  -20.6752  -26.9399   22.5419 C   0  0  0  0  0  0
  -19.5727  -26.6391   21.5217 C   0  0  0  0  0  0
  -18.1907  -26.7935   22.1632 C   0  0  0  0  0  0
  -19.1511  -28.8842   23.2907 C   0  0  0  0  0  0
  -18.9444  -30.1462   23.8899 C   0  0  0  0  0  0
  -17.6445  -30.6587   24.0581 C   0  0  0  0  0  0
  -25.9025  -34.9490   23.5133 C   0  0  0  0  0  0
  -16.5333  -29.9095   23.6344 C   0  0  0  0  0  0
  -16.7251  -28.6522   23.0347 C   0  0  0  0  0  0
  -26.4440  -31.6622   25.0739 C   0  0  0  0  0  0
  -25.3704  -31.3733   26.1489 C   0  0  0  0  0  0
  -27.0271  -30.3067   24.6103 C   0  0  0  0  0  0
  -27.6025  -32.4345   25.7476 C   0  0  0  0  0  0
  -27.5576  -37.1822   24.8462 C   0  0  0  0  0  0
  -21.4123  -29.3034   22.3755 N   0  0  0  0  0  0
  -26.4291  -37.3803   23.9402 N   0  0  0  0  0  0
  -24.6632  -31.0836   22.1014 N   0  0  0  0  0  0
  -23.4174  -28.8205   23.3053 O   0  0  0  0  0  0
  -28.4030  -26.7412   20.0858 O   0  0  0  0  0  0
  -26.5606  -34.8932   22.4709 O   0  0  0  0  0  0
  -23.5305  -32.1449   23.7521 O   0  0  0  0  0  0
  -30.9669  -18.4106   22.2639 C   0  0  0  0  0  0
  -31.0757  -17.2243   21.5092 C   0  0  0  0  0  0
  -28.7061  -18.7120   21.4436 C   0  0  0  0  0  0
  -29.7800  -19.1690   22.2313 C   0  0  0  0  0  0
  -29.9997  -16.7560   20.7073 C   0  0  0  0  0  0
  -28.8092  -17.5289   20.6922 C   0  0  0  0  0  0
  -27.6483  -21.9485   23.3961 C   0  0  0  0  0  0
  -29.5386  -15.9950   17.3635 C   0  0  0  0  0  0
  -30.2807  -17.2342   17.7912 C   0  0  0  0  0  0
  -30.5655  -15.9044   18.4797 C   0  0  0  0  0  0
  -29.6774  -20.4886   22.9867 C   0  0  0  0  0  0
  -28.3846  -25.4963   22.1904 C   0  0  0  0  0  0
  -27.5726  -24.4058   22.9146 C   0  0  0  0  0  0
  -28.3118  -25.4283   20.6512 C   0  0  0  0  0  0
  -26.3852  -21.9711   23.8270 N   0  0  0  0  0  0
  -28.2179  -23.0784   22.9335 N   0  0  0  0  0  0
  -30.1607  -15.6038   19.8557 N   0  0  0  0  0  0
  -28.3071  -20.7806   23.4388 N   0  3  0  0  0  0
  -27.4685  -17.1359   19.6932 Cl  0  0  0  0  0  0
  -31.4490  -12.3378   19.1220 H   0  0  0  0  0  0
  -30.2680  -11.3140   19.9026 H   0  0  0  0  0  0
  -29.7082  -11.6413   17.4739 H   0  0  0  0  0  0
  -29.6743  -13.3645   17.6857 H   0  0  0  0  0  0
  -27.7911  -11.2955   18.8436 H   0  0  0  0  0  0
  -27.3602  -12.5974   17.7714 H   0  0  0  0  0  0
  -27.6433  -14.2586   19.4875 H   0  0  0  0  0  0
  -28.6830  -12.1509   21.4349 H   0  0  0  0  0  0
  -28.5125  -13.8691   21.7394 H   0  0  0  0  0  0
  -25.2770   -9.5639   22.4778 H   0  0  0  0  0  0
  -23.9983   -7.4604   22.7486 H   0  0  0  0  0  0
  -21.0848   -8.8773   19.8946 H   0  0  0  0  0  0
  -22.3741  -10.9644   19.6150 H   0  0  0  0  0  0
  -21.2015   -7.6141   23.9730 H   0  0  0  0  0  0
  -21.1488   -6.0505   25.9085 H   0  0  0  0  0  0
  -22.0584   -2.7598   23.2838 H   0  0  0  0  0  0
  -22.3995  -11.9849   22.4898 H   0  0  0  0  0  0
  -21.0989  -13.1192   22.2571 H   0  0  0  0  0  0
  -24.5922  -15.8074   20.5430 H   0  0  0  0  0  0
  -26.2173  -15.6484   20.1164 H   0  0  0  0  0  0
  -26.7092  -32.5557   23.1198 H   0  0  0  0  0  0
  -24.9967  -33.9808   25.0439 H   0  0  0  0  0  0
  -22.6839  -31.3098   21.4204 H   0  0  0  0  0  0
  -23.3730  -35.9673   23.3319 H   0  0  0  0  0  0
  -24.3564  -36.8917   22.2055 H   0  0  0  0  0  0
  -23.7240  -37.6534   23.6646 H   0  0  0  0  0  0
  -26.0332  -31.6129   20.5935 H   0  0  0  0  0  0
  -26.8145  -30.8966   21.9772 H   0  0  0  0  0  0
  -28.1038  -29.1463   21.1257 H   0  0  0  0  0  0
  -26.0587  -25.9914   19.0035 H   0  0  0  0  0  0
  -23.9728  -27.2949   19.0486 H   0  0  0  0  0  0
  -23.7053  -30.6004   19.4096 H   0  0  0  0  0  0
  -22.7275  -29.2426   19.8783 H   0  0  0  0  0  0
  -25.1278  -36.1995   25.0832 H   0  0  0  0  0  0
  -20.9952  -28.3223   24.1452 H   0  0  0  0  0  0
  -20.5656  -26.2265   23.3599 H   0  0  0  0  0  0
  -21.6629  -26.7453   22.1217 H   0  0  0  0  0  0
  -19.6876  -25.6300   21.1247 H   0  0  0  0  0  0
  -19.6671  -27.3216   20.6757 H   0  0  0  0  0  0
  -17.4181  -26.6692   21.4028 H   0  0  0  0  0  0
  -18.0301  -26.0070   22.9022 H   0  0  0  0  0  0
  -19.7914  -30.7295   24.2253 H   0  0  0  0  0  0
  -17.4992  -31.6265   24.5194 H   0  0  0  0  0  0
  -15.5335  -30.2997   23.7669 H   0  0  0  0  0  0
  -15.8651  -28.0855   22.7042 H   0  0  0  0  0  0
  -24.5849  -30.7111   25.7818 H   0  0  0  0  0  0
  -24.8931  -32.2901   26.4965 H   0  0  0  0  0  0
  -25.8048  -30.8864   27.0234 H   0  0  0  0  0  0
  -26.2832  -29.6843   24.1120 H   0  0  0  0  0  0
  -27.4000  -29.7279   25.4564 H   0  0  0  0  0  0
  -27.8671  -30.4386   23.9283 H   0  0  0  0  0  0
  -27.2656  -33.3626   26.2112 H   0  0  0  0  0  0
  -28.3794  -32.6954   25.0275 H   0  0  0  0  0  0
  -28.0751  -31.8444   26.5341 H   0  0  0  0  0  0
  -28.2621  -38.0098   24.7507 H   0  0  0  0  0  0
  -28.1056  -36.2637   24.6300 H   0  0  0  0  0  0
  -27.2303  -37.1482   25.8869 H   0  0  0  0  0  0
  -20.9267  -29.8749   21.6985 H   0  0  0  0  0  0
  -26.0176  -38.2876   24.1409 H   0  0  0  0  0  0
  -31.8120  -18.7468   22.8493 H   0  0  0  0  0  0
  -32.0221  -16.7026   21.5305 H   0  0  0  0  0  0
  -27.7945  -19.2888   21.3758 H   0  0  0  0  0  0
  -29.8075  -15.5662   16.3995 H   0  0  0  0  0  0
  -28.4870  -15.9022   17.6126 H   0  0  0  0  0  0
  -29.6980  -18.0104   18.2770 H   0  0  0  0  0  0
  -31.0440  -17.6097   17.1123 H   0  0  0  0  0  0
  -31.5079  -15.4614   18.1558 H   0  0  0  0  0  0
  -30.0315  -21.2847   22.3310 H   0  0  0  0  0  0
  -30.3385  -20.4723   23.8535 H   0  0  0  0  0  0
  -29.4258  -25.4841   22.5115 H   0  0  0  0  0  0
  -27.9952  -26.4584   22.5250 H   0  0  0  0  0  0
  -26.5783  -24.3320   22.4724 H   0  0  0  0  0  0
  -27.4257  -24.7092   23.9512 H   0  0  0  0  0  0
  -27.4113  -24.9041   20.3347 H   0  0  0  0  0  0
  -29.1396  -24.8289   20.2731 H   0  0  0  0  0  0
  -25.8316  -22.8142   23.7924 H   0  0  0  0  0  0
  -25.9202  -21.1440   24.1768 H   0  0  0  0  0  0
  -29.1881  -23.0542   22.6525 H   0  0  0  0  0  0
  -27.8437  -19.9821   23.8452 H   0  0  0  0  0  0
  1 25  1  0  0  0
  1 30  2  0  0  0
  1 87  1  0  0  0
  2  3  1  0  0  0
  2 25  1  0  0  0
  2 90  1  0  0  0
  2 91  1  0  0  0
  3  4  1  0  0  0
  3 92  1  0  0  0
  3 93  1  0  0  0
  4  5  1  0  0  0
  4 94  1  0  0  0
  4 95  1  0  0  0
  5  6  1  0  0  0
  5 26  1  0  0  0
  5 96  1  0  0  0
  6 25  1  0  0  0
  6 97  1  0  0  0
  6 98  1  0  0  0
  7  8  2  0  0  0
  7 26  1  0  0  0
  7 29  1  0  0  0
  8  9  1  0  0  0
  8 22  1  0  0  0
  9 10  1  0  0  0
  9 27  2  0  0  0
 10 11  2  0  0  0
 10 15  1  0  0  0
 11 12  1  0  0  0
 11 99  1  0  0  0
 12 13  2  0  0  0
 12100  1  0  0  0
 13 14  1  0  0  0
 13 31  1  0  0  0
 14 15  2  0  0  0
 14101  1  0  0  0
 15102  1  0  0  0
 16 17  2  0  0  0
 16 21  1  0  0  0
 16 31  1  0  0  0
 17 18  1  0  0  0
 17103  1  0  0  0
 18 19  2  0  0  0
 18104  1  0  0  0
 19 20  1  0  0  0
 19 24  1  0  0  0
 20 21  2  0  0  0
 20105  1  0  0  0
 21 23  1  0  0  0
 22 28  1  0  0  0
 22 32  2  0  0  0
 26 27  1  0  0  0
 28106  1  0  0  0
 28107  1  0  0  0
 29108  1  0  0  0
 29109  1  0  0  0
 33 34  1  0  0  0
 33 66  1  0  0  0
 33 70  2  0  0  0
 34 36  1  0  0  0
 34 59  1  0  0  0
 34110  1  0  0  0
 35 44  2  0  0  0
 35 45  1  0  0  0
 35 68  1  0  0  0
 36 56  1  0  0  0
 36111  1  0  0  0
 37 39  1  0  0  0
 37 47  1  0  0  0
 37 66  1  0  0  0
 37112  1  0  0  0
 38 43  2  0  0  0
 38 46  1  0  0  0
 38 47  1  0  0  0
 39 64  1  0  0  0
 39 67  2  0  0  0
 40 52  1  0  0  0
 40 53  2  0  0  0
 40 58  1  0  0  0
 41113  1  0  0  0
 41114  1  0  0  0
 41115  1  0  0  0
 41 48  1  0  0  0
 42 43  1  0  0  0
 42 66  1  0  0  0
 42116  1  0  0  0
 42117  1  0  0  0
 43 44  1  0  0  0
 44118  1  0  0  0
 45 46  2  0  0  0
 45119  1  0  0  0
 46120  1  0  0  0
 47121  1  0  0  0
 47122  1  0  0  0
 48 56  1  0  0  0
 48 65  1  0  0  0
 48123  1  0  0  0
 49 50  1  0  0  0
 49 53  1  0  0  0
 49 64  1  0  0  0
 49124  1  0  0  0
 50 51  1  0  0  0
 50125  1  0  0  0
 50126  1  0  0  0
 51 52  1  0  0  0
 51127  1  0  0  0
 51128  1  0  0  0
 52129  1  0  0  0
 52130  1  0  0  0
 53 54  1  0  0  0
 54 55  2  0  0  0
 54131  1  0  0  0
 55 57  1  0  0  0
 55132  1  0  0  0
 56 69  2  0  0  0
 57 58  2  0  0  0
 57133  1  0  0  0
 58134  1  0  0  0
 59 60  1  0  0  0
 59 61  1  0  0  0
 59 62  1  0  0  0
 60135  1  0  0  0
 60136  1  0  0  0
 60137  1  0  0  0
 61138  1  0  0  0
 61139  1  0  0  0
 61140  1  0  0  0
 62141  1  0  0  0
 62142  1  0  0  0
 62143  1  0  0  0
 63 65  1  0  0  0
 63144  1  0  0  0
 63145  1  0  0  0
 63146  1  0  0  0
 64147  1  0  0  0
 65148  1  0  0  0
 68 84  1  0  0  0
 71 72  2  0  0  0
 71 74  1  0  0  0
 71149  1  0  0  0
 72 75  1  0  0  0
 72150  1  0  0  0
 73 74  2  0  0  0
 73 76  1  0  0  0
 73151  1  0  0  0
 74 81  1  0  0  0
 75 76  2  0  0  0
 75 87  1  0  0  0
 76 89  1  0  0  0
 77 85  1  0  0  0
 77 86  1  0  0  0
 77 88  2  0  0  0
 78 79  1  0  0  0
 78 80  1  0  0  0
 78152  1  0  0  0
 78153  1  0  0  0
 79 80  1  0  0  0
 79154  1  0  0  0
 79155  1  0  0  0
 80 87  1  0  0  0
 80156  1  0  0  0
 81 88  1  0  0  0
 81157  1  0  0  0
 81158  1  0  0  0
 82 83  1  0  0  0
 82 84  1  0  0  0
 82159  1  0  0  0
 82160  1  0  0  0
 83 86  1  0  0  0
 83161  1  0  0  0
 83162  1  0  0  0
 84163  1  0  0  0
 84164  1  0  0  0
 85165  1  0  0  0
 85166  1  0  0  0
 86167  1  0  0  0
 88168  1  0  0  0
M  CHG  1  88   1
M  ISO  4   1 100  68 101  84 101  87 100
M  END
> <chiral flag>
0

> <version>
0

> <s_m_source_file>
/data/baiqing/PycharmProjects/Reinvent-master-3.2/result/LINK_invent/BTK/process_docking_weight1_custom_product_contain_oxygen_bond_distance_aromatic_linkinvent_7_9_3/rearranged_h_0025.sdf

> <i_m_source_file_index>
78

> <r_mmod_Potential_Energy-OPLS-2005>
68.3022232055664

> <r_mmod_Stretch_Energy-OPLS-2005>
38.9547348022461

> <r_mmod_Bend_Energy-OPLS-2005>
115.839637756348

> <r_mmod_Torsional_Energy-OPLS-2005>
400.448944091797

> <r_mmod_Improper_Torsional_Energy-OPLS-2005>
26.521520614624

> <r_mmod_Van_der_Waal_Energy-OPLS-2005>
164.925521850586

> <r_mmod_Electrostatic_Energy-OPLS-2005>
-299.691558837891

> <r_mmod_Solvation_Energy-OPLS-2005>
-420.297760009766

> <b_mmod_Minimization_Converged-OPLS-2005>
0

> <r_mmod_RMS_Derivative-OPLS-2005>
2.04809999465942

$$$$
78
                    3D
 Structure written by MMmdl.
164173  0  0  1  0            999 V2000
  -30.6284  -14.7282   20.4179 C   0  0  0  0  0  0
  -30.4246  -12.4343   19.4789 C   0  0  0  0  0  0
  -29.5080  -12.4904   18.2374 C   0  0  0  0  0  0
  -28.0340  -12.3201   18.6527 C   0  0  0  0  0  0
  -27.6402  -13.2306   19.8472 C   0  0  2  0  0  0
  -28.6850  -13.1807   20.9837 C   0  0  0  0  0  0
  -25.2502  -13.8189   20.5689 C   0  0  0  0  0  0
  -24.1789  -13.0438   20.9197 C   0  0  0  0  0  0
  -24.6379  -11.6921   20.8731 C   0  0  0  0  0  0
  -23.9055  -10.4290   21.0392 C   0  0  0  0  0  0
  -24.3607   -9.4212   21.9180 C   0  0  0  0  0  0
  -23.6278   -8.2245   22.0761 C   0  0  0  0  0  0
  -22.4269   -8.0265   21.3536 C   0  0  0  0  0  0
  -21.9903   -9.0235   20.4636 C   0  0  0  0  0  0
  -22.7228  -10.2120   20.3035 C   0  0  0  0  0  0
  -21.6859   -6.0713   22.5271 C   0  0  0  0  0  0
  -21.4027   -6.5622   23.8195 C   0  0  0  0  0  0
  -21.3659   -5.6786   24.9160 C   0  0  0  0  0  0
  -21.6045   -4.3049   24.7227 C   0  0  0  0  0  0
  -21.8817   -3.8132   23.4351 C   0  0  0  0  0  0
  -21.9197   -4.6941   22.3405 C   0  0  0  0  0  0
  -22.7811  -13.5212   21.1857 C   0  0  0  0  0  0
  -22.1656   -4.2120   21.0982 F   0  0  0  0  0  0
  -21.5631   -3.4543   25.7743 F   0  0  0  0  0  0
  -29.9888  -13.5111   20.3984 N   0  0  0  0  0  0
  -26.2924  -12.9398   20.3278 N   0  0  0  0  0  0
  -25.9305  -11.6550   20.5761 N   0  0  0  0  0  0
  -22.0450  -12.8174   22.0385 N   0  0  0  0  0  0
  -25.4213  -15.1907   20.4111 N   0  0  0  0  0  0
  -31.8297  -14.7796   20.1400 O   0  0  0  0  0  0
  -21.6641   -6.8853   21.4229 O   0  0  0  0  0  0
  -22.3488  -14.5513   20.6705 O   0  0  0  0  0  0
  -24.6297  -31.8552   23.1990 C   0  0  0  0  0  0
  -25.9119  -32.4758   23.8353 C   0  0  1  0  0  0
  -27.2280  -27.2796   20.1193 C   0  0  0  0  0  0
  -25.5916  -33.8564   24.2269 N   0  0  0  0  0  0
  -23.4274  -30.4768   21.5407 C   0  0  2  0  0  0
  -24.8738  -28.9223   20.1099 C   0  0  0  0  0  0
  -22.7511  -29.4592   22.4918 C   0  0  0  0  0  0
  -18.0294  -28.1392   22.8487 C   0  0  0  0  0  0
  -24.1482  -36.7277   23.2641 C   0  0  0  0  0  0
  -25.9693  -30.7725   21.3761 C   0  0  0  0  0  0
  -26.0421  -29.3970   20.7162 C   0  0  0  0  0  0
  -27.2170  -28.5853   20.7123 C   0  0  0  0  0  0
  -26.0314  -26.8571   19.4982 C   0  0  0  0  0  0
  -24.8735  -27.6609   19.4931 C   0  0  0  0  0  0
  -23.6445  -29.8084   20.1576 C   0  0  0  0  0  0
  -25.4111  -36.3076   24.0334 C   0  0  1  0  0  0
  -20.5901  -28.3692   23.1273 C   0  0  2  0  0  0
  -20.6773  -26.9409   22.5403 C   0  0  0  0  0  0
  -19.5741  -26.6390   21.5206 C   0  0  0  0  0  0
  -18.1921  -26.7937   22.1617 C   0  0  0  0  0  0
  -19.1551  -28.8861   23.2879 C   0  0  0  0  0  0
  -18.9465  -30.1456   23.8912 C   0  0  0  0  0  0
  -17.6471  -30.6588   24.0567 C   0  0  0  0  0  0
  -25.9048  -34.9439   23.5105 C   0  0  0  0  0  0
  -16.5362  -29.9085   23.6352 C   0  0  0  0  0  0
  -16.7279  -28.6500   23.0364 C   0  0  0  0  0  0
  -26.4500  -31.6596   25.0751 C   0  0  0  0  0  0
  -25.3712  -31.3702   26.1456 C   0  0  0  0  0  0
  -27.0383  -30.3042   24.6218 C   0  0  0  0  0  0
  -27.6048  -32.4346   25.7517 C   0  0  0  0  0  0
  -27.5574  -37.1795   24.8458 C   0  0  0  0  0  0
  -21.4215  -29.3042   22.3659 N   0  0  0  0  0  0
  -26.4285  -37.3776   23.9412 N   0  0  0  0  0  0
  -24.6946  -31.0527   22.0951 N   0  0  0  0  0  0
  -23.4204  -28.8152   23.3035 O   0  0  0  0  0  0
  -28.3613  -26.4453   20.1959 O   0  0  0  0  0  0
  -26.5613  -34.8901   22.4667 O   0  0  0  0  0  0
  -23.5446  -32.1355   23.7285 O   0  0  0  0  0  0
  -31.2581  -18.6079   18.2852 C   0  0  0  0  0  0
  -30.9990  -17.3706   18.8890 C   0  0  0  0  0  0
  -30.6600  -19.8141   18.7181 C   0  0  0  0  0  0
  -30.1382  -17.2525   20.0004 C   0  0  0  0  0  0
  -29.7602  -19.8118   19.8373 C   0  0  0  0  0  0
  -29.5262  -18.4990   20.4548 C   0  0  0  0  0  0
  -32.7113  -22.3675   17.0462 C   0  0  0  0  0  0
  -31.5497  -22.2048   16.0621 C   0  0  0  0  0  0
  -32.3294  -21.5272   18.2740 C   0  0  0  0  0  0
  -30.7923  -20.9805   16.5679 C   0  0  0  0  0  0
  -29.1181  -22.4138   19.6756 C   0  0  0  0  0  0
  -28.4718  -25.0905   19.5703 C   0  0  0  0  0  0
  -28.4630  -23.7009   20.3976 C   0  0  1  0  0  0
  -31.0005  -20.9855   18.0104 N   0  0  0  0  0  0
  -29.8790  -15.8912   20.5541 N   0  0  0  0  0  0
  -29.1285  -21.0396   20.3296 N   0  0  0  0  0  0
  -27.2010  -23.3991   20.7064 F   0  0  0  0  0  0
  -28.4636  -18.4135   21.8183 Cl  0  0  0  0  0  0
  -31.4692  -12.5356   19.1796 H   0  0  0  0  0  0
  -30.3508  -11.4641   19.9716 H   0  0  0  0  0  0
  -29.7877  -11.7095   17.5284 H   0  0  0  0  0  0
  -29.6378  -13.4400   17.7174 H   0  0  0  0  0  0
  -27.8935  -11.2734   18.9261 H   0  0  0  0  0  0
  -27.3744  -12.5016   17.8034 H   0  0  0  0  0  0
  -27.6308  -14.2477   19.4557 H   0  0  0  0  0  0
  -28.7127  -12.1905   21.4427 H   0  0  0  0  0  0
  -28.4256  -13.8821   21.7784 H   0  0  0  0  0  0
  -25.2751   -9.5695   22.4762 H   0  0  0  0  0  0
  -23.9981   -7.4649   22.7488 H   0  0  0  0  0  0
  -21.0846   -8.8741   19.8935 H   0  0  0  0  0  0
  -22.3684  -10.9648   19.6130 H   0  0  0  0  0  0
  -21.2021   -7.6133   23.9690 H   0  0  0  0  0  0
  -21.1485   -6.0520   25.9059 H   0  0  0  0  0  0
  -22.0600   -2.7592   23.2868 H   0  0  0  0  0  0
  -22.4087  -11.9825   22.4738 H   0  0  0  0  0  0
  -21.1045  -13.1154   22.2562 H   0  0  0  0  0  0
  -24.6601  -15.8501   20.5275 H   0  0  0  0  0  0
  -26.2708  -15.6291   20.0813 H   0  0  0  0  0  0
  -26.7167  -32.5420   23.1079 H   0  0  0  0  0  0
  -25.0062  -33.9708   25.0413 H   0  0  0  0  0  0
  -22.7232  -31.2987   21.3942 H   0  0  0  0  0  0
  -23.3771  -35.9576   23.3266 H   0  0  0  0  0  0
  -24.3576  -36.8951   22.2066 H   0  0  0  0  0  0
  -23.7189  -37.6450   23.6678 H   0  0  0  0  0  0
  -26.1043  -31.5353   20.6089 H   0  0  0  0  0  0
  -26.8462  -30.8220   22.0100 H   0  0  0  0  0  0
  -28.1150  -28.9449   21.1955 H   0  0  0  0  0  0
  -25.9515  -25.8858   19.0354 H   0  0  0  0  0  0
  -23.9741  -27.2904   19.0235 H   0  0  0  0  0  0
  -23.7657  -30.5848   19.4005 H   0  0  0  0  0  0
  -22.7622  -29.2422   19.8548 H   0  0  0  0  0  0
  -25.1276  -36.1940   25.0828 H   0  0  0  0  0  0
  -20.9986  -28.3251   24.1395 H   0  0  0  0  0  0
  -20.5703  -26.2290   23.3603 H   0  0  0  0  0  0
  -21.6631  -26.7438   22.1168 H   0  0  0  0  0  0
  -19.6915  -25.6305   21.1219 H   0  0  0  0  0  0
  -19.6687  -27.3215   20.6747 H   0  0  0  0  0  0
  -17.4195  -26.6715   21.4011 H   0  0  0  0  0  0
  -18.0312  -26.0072   22.9011 H   0  0  0  0  0  0
  -19.7942  -30.7262   24.2290 H   0  0  0  0  0  0
  -17.5018  -31.6273   24.5148 H   0  0  0  0  0  0
  -15.5361  -30.2970   23.7679 H   0  0  0  0  0  0
  -15.8681  -28.0812   22.7083 H   0  0  0  0  0  0
  -24.5872  -30.7096   25.7727 H   0  0  0  0  0  0
  -24.8923  -32.2861   26.4935 H   0  0  0  0  0  0
  -25.8016  -30.8804   27.0205 H   0  0  0  0  0  0
  -26.2983  -29.6772   24.1235 H   0  0  0  0  0  0
  -27.4104  -29.7320   25.4727 H   0  0  0  0  0  0
  -27.8827  -30.4370   23.9448 H   0  0  0  0  0  0
  -27.2665  -33.3662   26.2053 H   0  0  0  0  0  0
  -28.3870  -32.6893   25.0352 H   0  0  0  0  0  0
  -28.0696  -31.8511   26.5473 H   0  0  0  0  0  0
  -28.2541  -38.0135   24.7543 H   0  0  0  0  0  0
  -28.1126  -36.2671   24.6234 H   0  0  0  0  0  0
  -27.2295  -37.1372   25.8858 H   0  0  0  0  0  0
  -20.9402  -29.8777   21.6871 H   0  0  0  0  0  0
  -26.0177  -38.2852   24.1437 H   0  0  0  0  0  0
  -31.9467  -18.6115   17.4540 H   0  0  0  0  0  0
  -31.4826  -16.5092   18.4537 H   0  0  0  0  0  0
  -32.8650  -23.4165   17.3028 H   0  0  0  0  0  0
  -33.6437  -22.0025   16.6142 H   0  0  0  0  0  0
  -31.8837  -22.0911   15.0294 H   0  0  0  0  0  0
  -30.9050  -23.0831   16.1073 H   0  0  0  0  0  0
  -32.3135  -22.1501   19.1702 H   0  0  0  0  0  0
  -33.0637  -20.7373   18.4412 H   0  0  0  0  0  0
  -31.1940  -20.0820   16.0988 H   0  0  0  0  0  0
  -29.7313  -21.0370   16.3205 H   0  0  0  0  0  0
  -30.1488  -22.7115   19.5004 H   0  0  0  0  0  0
  -28.6629  -22.3069   18.6889 H   0  0  0  0  0  0
  -27.8249  -24.9988   18.6986 H   0  0  0  0  0  0
  -29.4668  -25.1296   19.1264 H   0  0  0  0  0  0
  -28.9790  -23.8640   21.3441 H   0  0  0  0  0  0
  -28.9623  -15.7643   20.9558 H   0  0  0  0  0  0
  -28.5170  -20.9306   21.1319 H   0  0  0  0  0  0
  1 25  1  0  0  0
  1 30  2  0  0  0
  1 85  1  0  0  0
  2  3  1  0  0  0
  2 25  1  0  0  0
  2 89  1  0  0  0
  2 90  1  0  0  0
  3  4  1  0  0  0
  3 91  1  0  0  0
  3 92  1  0  0  0
  4  5  1  0  0  0
  4 93  1  0  0  0
  4 94  1  0  0  0
  5  6  1  0  0  0
  5 26  1  0  0  0
  5 95  1  0  0  0
  6 25  1  0  0  0
  6 96  1  0  0  0
  6 97  1  0  0  0
  7  8  2  0  0  0
  7 26  1  0  0  0
  7 29  1  0  0  0
  8  9  1  0  0  0
  8 22  1  0  0  0
  9 10  1  0  0  0
  9 27  2  0  0  0
 10 11  2  0  0  0
 10 15  1  0  0  0
 11 12  1  0  0  0
 11 98  1  0  0  0
 12 13  2  0  0  0
 12 99  1  0  0  0
 13 14  1  0  0  0
 13 31  1  0  0  0
 14 15  2  0  0  0
 14100  1  0  0  0
 15101  1  0  0  0
 16 17  2  0  0  0
 16 21  1  0  0  0
 16 31  1  0  0  0
 17 18  1  0  0  0
 17102  1  0  0  0
 18 19  2  0  0  0
 18103  1  0  0  0
 19 20  1  0  0  0
 19 24  1  0  0  0
 20 21  2  0  0  0
 20104  1  0  0  0
 21 23  1  0  0  0
 22 28  1  0  0  0
 22 32  2  0  0  0
 26 27  1  0  0  0
 28105  1  0  0  0
 28106  1  0  0  0
 29107  1  0  0  0
 29108  1  0  0  0
 33 34  1  0  0  0
 33 66  1  0  0  0
 33 70  2  0  0  0
 34 36  1  0  0  0
 34 59  1  0  0  0
 34109  1  0  0  0
 35 44  2  0  0  0
 35 45  1  0  0  0
 35 68  1  0  0  0
 36 56  1  0  0  0
 36110  1  0  0  0
 37 39  1  0  0  0
 37 47  1  0  0  0
 37 66  1  0  0  0
 37111  1  0  0  0
 38 43  2  0  0  0
 38 46  1  0  0  0
 38 47  1  0  0  0
 39 64  1  0  0  0
 39 67  2  0  0  0
 40 52  1  0  0  0
 40 53  2  0  0  0
 40 58  1  0  0  0
 41112  1  0  0  0
 41113  1  0  0  0
 41114  1  0  0  0
 41 48  1  0  0  0
 42 43  1  0  0  0
 42 66  1  0  0  0
 42115  1  0  0  0
 42116  1  0  0  0
 43 44  1  0  0  0
 44117  1  0  0  0
 45 46  2  0  0  0
 45118  1  0  0  0
 46119  1  0  0  0
 47120  1  0  0  0
 47121  1  0  0  0
 48 56  1  0  0  0
 48 65  1  0  0  0
 48122  1  0  0  0
 49 50  1  0  0  0
 49 53  1  0  0  0
 49 64  1  0  0  0
 49123  1  0  0  0
 50 51  1  0  0  0
 50124  1  0  0  0
 50125  1  0  0  0
 51 52  1  0  0  0
 51126  1  0  0  0
 51127  1  0  0  0
 52128  1  0  0  0
 52129  1  0  0  0
 53 54  1  0  0  0
 54 55  2  0  0  0
 54130  1  0  0  0
 55 57  1  0  0  0
 55131  1  0  0  0
 56 69  2  0  0  0
 57 58  2  0  0  0
 57132  1  0  0  0
 58133  1  0  0  0
 59 60  1  0  0  0
 59 61  1  0  0  0
 59 62  1  0  0  0
 60134  1  0  0  0
 60135  1  0  0  0
 60136  1  0  0  0
 61137  1  0  0  0
 61138  1  0  0  0
 61139  1  0  0  0
 62140  1  0  0  0
 62141  1  0  0  0
 62142  1  0  0  0
 63 65  1  0  0  0
 63143  1  0  0  0
 63144  1  0  0  0
 63145  1  0  0  0
 64146  1  0  0  0
 65147  1  0  0  0
 68 82  1  0  0  0
 71 72  2  0  0  0
 71 73  1  0  0  0
 71148  1  0  0  0
 72 74  1  0  0  0
 72149  1  0  0  0
 73 75  2  0  0  0
 73 84  1  0  0  0
 74 76  2  0  0  0
 74 85  1  0  0  0
 75 76  1  0  0  0
 75 86  1  0  0  0
 76 88  1  0  0  0
 77 78  1  0  0  0
 77 79  1  0  0  0
 77150  1  0  0  0
 77151  1  0  0  0
 78 80  1  0  0  0
 78152  1  0  0  0
 78153  1  0  0  0
 79 84  1  0  0  0
 79154  1  0  0  0
 79155  1  0  0  0
 80 84  1  0  0  0
 80156  1  0  0  0
 80157  1  0  0  0
 81 83  1  0  0  0
 81 86  1  0  0  0
 81158  1  0  0  0
 81159  1  0  0  0
 82 83  1  0  0  0
 82160  1  0  0  0
 82161  1  0  0  0
 83 87  1  0  0  0
 83162  1  0  0  0
 85163  1  0  0  0
 86164  1  0  0  0
M  ISO  4   1 100  68 101  82 101  85 100
M  END
> <chiral flag>
0

> <version>
0

> <s_m_source_file>
/data/baiqing/PycharmProjects/Reinvent-master-3.2/result/LINK_invent/BTK/process_docking_weight1_custom_product_contain_oxygen_bond_distance_aromatic_linkinvent_7_9_3/rearranged_h_0025.sdf

> <i_m_source_file_index>
79

> <r_mmod_Potential_Energy-OPLS-2005>
328.357513427734

> <r_mmod_Stretch_Energy-OPLS-2005>
125.912528991699

> <r_mmod_Bend_Energy-OPLS-2005>
211.18115234375

> <r_mmod_Torsional_Energy-OPLS-2005>
299.173919677734

> <r_mmod_Improper_Torsional_Energy-OPLS-2005>
9.80342102050781

> <r_mmod_Van_der_Waal_Energy-OPLS-2005>
150.638946533203

> <r_mmod_Electrostatic_Energy-OPLS-2005>
-329.039428710938

> <r_mmod_Solvation_Energy-OPLS-2005>
-216.010223388672

> <b_mmod_Minimization_Converged-OPLS-2005>
0

> <r_mmod_RMS_Derivative-OPLS-2005>
2.53758716583252

$$$$
79
                    3D
 Structure written by MMmdl.
164173  0  0  1  0            999 V2000
  -30.6281  -14.6219   20.5076 C   0  0  0  0  0  0
  -30.4438  -12.3876   19.4449 C   0  0  0  0  0  0
  -29.5114  -12.5156   18.2199 C   0  0  0  0  0  0
  -28.0334  -12.3549   18.6300 C   0  0  0  0  0  0
  -27.6576  -13.2147   19.8667 C   0  0  2  0  0  0
  -28.7033  -13.0566   20.9941 C   0  0  0  0  0  0
  -25.2594  -13.8166   20.5681 C   0  0  0  0  0  0
  -24.1859  -13.0447   20.9196 C   0  0  0  0  0  0
  -24.6407  -11.6908   20.8740 C   0  0  0  0  0  0
  -23.9081  -10.4298   21.0399 C   0  0  0  0  0  0
  -24.3626   -9.4221   21.9183 C   0  0  0  0  0  0
  -23.6306   -8.2257   22.0755 C   0  0  0  0  0  0
  -22.4291   -8.0292   21.3547 C   0  0  0  0  0  0
  -21.9931   -9.0263   20.4647 C   0  0  0  0  0  0
  -22.7252  -10.2144   20.3057 C   0  0  0  0  0  0
  -21.6855   -6.0748   22.5277 C   0  0  0  0  0  0
  -21.4009   -6.5645   23.8211 C   0  0  0  0  0  0
  -21.3668   -5.6796   24.9171 C   0  0  0  0  0  0
  -21.6042   -4.3061   24.7215 C   0  0  0  0  0  0
  -21.8829   -3.8157   23.4336 C   0  0  0  0  0  0
  -21.9196   -4.6975   22.3394 C   0  0  0  0  0  0
  -22.7882  -13.5242   21.1832 C   0  0  0  0  0  0
  -22.1666   -4.2172   21.0967 F   0  0  0  0  0  0
  -21.5637   -3.4537   25.7725 F   0  0  0  0  0  0
  -30.0223  -13.3969   20.4340 N   0  0  0  0  0  0
  -26.3022  -12.9339   20.3342 N   0  0  0  0  0  0
  -25.9335  -11.6492   20.5755 N   0  0  0  0  0  0
  -22.0491  -12.8248   22.0373 N   0  0  0  0  0  0
  -25.4332  -15.1890   20.4040 N   0  0  0  0  0  0
  -31.7837  -14.7980   20.1103 O   0  0  0  0  0  0
  -21.6646   -6.8898   21.4245 O   0  0  0  0  0  0
  -22.3581  -14.5550   20.6667 O   0  0  0  0  0  0
  -24.6252  -31.8626   23.2031 C   0  0  0  0  0  0
  -25.9109  -32.4801   23.8359 C   0  0  1  0  0  0
  -27.2171  -27.3356   20.1092 C   0  0  0  0  0  0
  -25.5935  -33.8597   24.2303 N   0  0  0  0  0  0
  -23.4155  -30.4865   21.5492 C   0  0  2  0  0  0
  -24.8586  -28.9471   20.1123 C   0  0  0  0  0  0
  -22.7456  -29.4646   22.4975 C   0  0  0  0  0  0
  -18.0276  -28.1399   22.8507 C   0  0  0  0  0  0
  -24.1491  -36.7293   23.2640 C   0  0  0  0  0  0
  -25.9542  -30.8002   21.3672 C   0  0  0  0  0  0
  -26.0280  -29.4277   20.7129 C   0  0  0  0  0  0
  -27.2116  -28.6333   20.7033 C   0  0  0  0  0  0
  -26.0210  -26.9080   19.4842 C   0  0  0  0  0  0
  -24.8556  -27.6916   19.4899 C   0  0  0  0  0  0
  -23.6244  -29.8214   20.1642 C   0  0  0  0  0  0
  -25.4116  -36.3100   24.0340 C   0  0  1  0  0  0
  -20.5878  -28.3698   23.1311 C   0  0  2  0  0  0
  -20.6776  -26.9424   22.5441 C   0  0  0  0  0  0
  -19.5751  -26.6403   21.5242 C   0  0  0  0  0  0
  -18.1914  -26.7957   22.1622 C   0  0  0  0  0  0
  -19.1527  -28.8868   23.2904 C   0  0  0  0  0  0
  -18.9449  -30.1471   23.8919 C   0  0  0  0  0  0
  -17.6446  -30.6606   24.0568 C   0  0  0  0  0  0
  -25.9057  -34.9470   23.5123 C   0  0  0  0  0  0
  -16.5337  -29.9101   23.6337 C   0  0  0  0  0  0
  -16.7266  -28.6512   23.0372 C   0  0  0  0  0  0
  -26.4501  -31.6585   25.0706 C   0  0  0  0  0  0
  -25.3748  -31.3676   26.1434 C   0  0  0  0  0  0
  -27.0333  -30.3024   24.6113 C   0  0  0  0  0  0
  -27.6077  -32.4300   25.7479 C   0  0  0  0  0  0
  -27.5603  -37.1781   24.8444 C   0  0  0  0  0  0
  -21.4172  -29.3054   22.3710 N   0  0  0  0  0  0
  -26.4286  -37.3806   23.9437 N   0  0  0  0  0  0
  -24.6845  -31.0650   22.0977 N   0  0  0  0  0  0
  -23.4183  -28.8187   23.3057 O   0  0  0  0  0  0
  -28.3359  -26.4907   20.1584 O   0  0  0  0  0  0
  -26.5617  -34.8929   22.4683 O   0  0  0  0  0  0
  -23.5422  -32.1416   23.7373 O   0  0  0  0  0  0
  -28.7125  -17.8534   21.0687 C   0  0  0  0  0  0
  -30.9749  -17.8478   20.2665 C   0  0  0  0  0  0
  -28.6340  -19.2774   20.9542 C   0  0  0  0  0  0
  -29.8669  -17.0997   20.7349 C   0  0  0  0  0  0
  -29.7712  -20.0320   20.5205 C   0  0  0  0  0  0
  -30.9272  -19.2695   20.1679 C   0  0  0  0  0  0
  -25.0746  -20.0128   21.4011 C   0  0  0  0  0  0
  -25.5965  -20.0102   22.8420 C   0  0  0  0  0  0
  -26.2442  -19.4901   20.5740 C   0  0  0  0  0  0
  -27.1231  -19.9097   22.7269 C   0  0  0  0  0  0
  -29.2188  -23.9976   20.3718 C   0  0  0  0  0  0
  -28.7643  -22.4754   20.3948 C   0  0  0  0  0  0
  -28.0836  -25.0428   20.0338 C   0  0  0  0  0  0
  -27.4308  -19.9203   21.3013 N   0  0  0  0  0  0
  -29.8118  -15.6471   20.8966 N   0  0  0  0  0  0
  -29.8619  -21.4685   20.4405 N   0  0  0  0  0  0
  -32.3430  -20.0857   19.5968 Cl  0  0  0  0  0  0
  -31.4840  -12.5212   19.1405 H   0  0  0  0  0  0
  -30.3827  -11.3881   19.8766 H   0  0  0  0  0  0
  -29.7733  -11.7713   17.4673 H   0  0  0  0  0  0
  -29.6578  -13.4899   17.7494 H   0  0  0  0  0  0
  -27.8632  -11.2999   18.8467 H   0  0  0  0  0  0
  -27.3823  -12.5991   17.7904 H   0  0  0  0  0  0
  -27.6788  -14.2531   19.5357 H   0  0  0  0  0  0
  -28.7111  -12.0333   21.3703 H   0  0  0  0  0  0
  -28.4477  -13.6814   21.8510 H   0  0  0  0  0  0
  -25.2770   -9.5699   22.4765 H   0  0  0  0  0  0
  -24.0020   -7.4652   22.7474 H   0  0  0  0  0  0
  -21.0875   -8.8773   19.8949 H   0  0  0  0  0  0
  -22.3713  -10.9679   19.6171 H   0  0  0  0  0  0
  -21.1989   -7.6151   23.9721 H   0  0  0  0  0  0
  -21.1486   -6.0520   25.9076 H   0  0  0  0  0  0
  -22.0601   -2.7622   23.2819 H   0  0  0  0  0  0
  -22.4065  -11.9912   22.4789 H   0  0  0  0  0  0
  -21.1096  -13.1289   22.2500 H   0  0  0  0  0  0
  -24.6577  -15.8373   20.4809 H   0  0  0  0  0  0
  -26.2638  -15.6086   20.0080 H   0  0  0  0  0  0
  -26.7178  -32.5471   23.1106 H   0  0  0  0  0  0
  -25.0106  -33.9753   25.0466 H   0  0  0  0  0  0
  -22.7097  -31.3075   21.4078 H   0  0  0  0  0  0
  -23.3794  -35.9575   23.3224 H   0  0  0  0  0  0
  -24.3607  -36.8993   22.2073 H   0  0  0  0  0  0
  -23.7173  -37.6441   23.6705 H   0  0  0  0  0  0
  -26.0725  -31.5607   20.5930 H   0  0  0  0  0  0
  -26.8415  -30.8583   21.9855 H   0  0  0  0  0  0
  -28.1082  -28.9972   21.1848 H   0  0  0  0  0  0
  -25.9481  -25.9514   18.9904 H   0  0  0  0  0  0
  -23.9582  -27.3184   19.0163 H   0  0  0  0  0  0
  -23.7296  -30.5961   19.4041 H   0  0  0  0  0  0
  -22.7459  -29.2437   19.8716 H   0  0  0  0  0  0
  -25.1290  -36.1960   25.0832 H   0  0  0  0  0  0
  -20.9971  -28.3284   24.1430 H   0  0  0  0  0  0
  -20.5701  -26.2313   23.3637 H   0  0  0  0  0  0
  -21.6638  -26.7472   22.1216 H   0  0  0  0  0  0
  -19.6908  -25.6316   21.1265 H   0  0  0  0  0  0
  -19.6703  -27.3228   20.6783 H   0  0  0  0  0  0
  -17.4212  -26.6770   21.3984 H   0  0  0  0  0  0
  -18.0245  -26.0079   22.8984 H   0  0  0  0  0  0
  -19.7919  -30.7291   24.2301 H   0  0  0  0  0  0
  -17.4992  -31.6290   24.5162 H   0  0  0  0  0  0
  -15.5342  -30.3004   23.7653 H   0  0  0  0  0  0
  -15.8662  -28.0830   22.7090 H   0  0  0  0  0  0
  -24.5978  -30.6963   25.7755 H   0  0  0  0  0  0
  -24.8863  -32.2807   26.4845 H   0  0  0  0  0  0
  -25.8103  -30.8883   27.0213 H   0  0  0  0  0  0
  -26.2876  -29.6773   24.1187 H   0  0  0  0  0  0
  -27.4109  -29.7284   25.4583 H   0  0  0  0  0  0
  -27.8711  -30.4333   23.9261 H   0  0  0  0  0  0
  -27.2718  -33.3612   26.2051 H   0  0  0  0  0  0
  -28.3889  -32.6835   25.0302 H   0  0  0  0  0  0
  -28.0731  -31.8413   26.5389 H   0  0  0  0  0  0
  -28.2549  -38.0153   24.7625 H   0  0  0  0  0  0
  -28.1176  -36.2694   24.6103 H   0  0  0  0  0  0
  -27.2342  -37.1234   25.8846 H   0  0  0  0  0  0
  -20.9352  -29.8758   21.6900 H   0  0  0  0  0  0
  -26.0167  -38.2864   24.1516 H   0  0  0  0  0  0
  -27.8500  -17.3172   21.4351 H   0  0  0  0  0  0
  -31.8881  -17.3467   19.9803 H   0  0  0  0  0  0
  -24.8380  -21.0340   21.0972 H   0  0  0  0  0  0
  -24.1743  -19.4095   21.2733 H   0  0  0  0  0  0
  -25.2086  -19.1548   23.3986 H   0  0  0  0  0  0
  -25.2903  -20.9137   23.3713 H   0  0  0  0  0  0
  -26.2277  -19.8990   19.5618 H   0  0  0  0  0  0
  -26.1892  -18.4039   20.4908 H   0  0  0  0  0  0
  -27.4851  -19.0019   23.2136 H   0  0  0  0  0  0
  -27.6074  -20.7548   23.2188 H   0  0  0  0  0  0
  -30.0273  -24.1231   19.6508 H   0  0  0  0  0  0
  -29.6447  -24.2503   21.3432 H   0  0  0  0  0  0
  -28.1501  -22.2646   19.5183 H   0  0  0  0  0  0
  -28.1106  -22.3456   21.2571 H   0  0  0  0  0  0
  -27.2259  -24.7901   20.6589 H   0  0  0  0  0  0
  -27.7893  -24.8412   19.0039 H   0  0  0  0  0  0
  -28.9297  -15.3044   21.2453 H   0  0  0  0  0  0
  -30.7701  -21.7984   20.1274 H   0  0  0  0  0  0
  1 25  1  0  0  0
  1 30  2  0  0  0
  1 85  1  0  0  0
  2  3  1  0  0  0
  2 25  1  0  0  0
  2 88  1  0  0  0
  2 89  1  0  0  0
  3  4  1  0  0  0
  3 90  1  0  0  0
  3 91  1  0  0  0
  4  5  1  0  0  0
  4 92  1  0  0  0
  4 93  1  0  0  0
  5  6  1  0  0  0
  5 26  1  0  0  0
  5 94  1  0  0  0
  6 25  1  0  0  0
  6 95  1  0  0  0
  6 96  1  0  0  0
  7  8  2  0  0  0
  7 26  1  0  0  0
  7 29  1  0  0  0
  8  9  1  0  0  0
  8 22  1  0  0  0
  9 10  1  0  0  0
  9 27  2  0  0  0
 10 11  2  0  0  0
 10 15  1  0  0  0
 11 12  1  0  0  0
 11 97  1  0  0  0
 12 13  2  0  0  0
 12 98  1  0  0  0
 13 14  1  0  0  0
 13 31  1  0  0  0
 14 15  2  0  0  0
 14 99  1  0  0  0
 15100  1  0  0  0
 16 17  2  0  0  0
 16 21  1  0  0  0
 16 31  1  0  0  0
 17 18  1  0  0  0
 17101  1  0  0  0
 18 19  2  0  0  0
 18102  1  0  0  0
 19 20  1  0  0  0
 19 24  1  0  0  0
 20 21  2  0  0  0
 20103  1  0  0  0
 21 23  1  0  0  0
 22 28  1  0  0  0
 22 32  2  0  0  0
 26 27  1  0  0  0
 28104  1  0  0  0
 28105  1  0  0  0
 29106  1  0  0  0
 29107  1  0  0  0
 33 34  1  0  0  0
 33 66  1  0  0  0
 33 70  2  0  0  0
 34 36  1  0  0  0
 34 59  1  0  0  0
 34108  1  0  0  0
 35 44  2  0  0  0
 35 45  1  0  0  0
 35 68  1  0  0  0
 36 56  1  0  0  0
 36109  1  0  0  0
 37 39  1  0  0  0
 37 47  1  0  0  0
 37 66  1  0  0  0
 37110  1  0  0  0
 38 43  2  0  0  0
 38 46  1  0  0  0
 38 47  1  0  0  0
 39 64  1  0  0  0
 39 67  2  0  0  0
 40 52  1  0  0  0
 40 53  2  0  0  0
 40 58  1  0  0  0
 41111  1  0  0  0
 41112  1  0  0  0
 41113  1  0  0  0
 41 48  1  0  0  0
 42 43  1  0  0  0
 42 66  1  0  0  0
 42114  1  0  0  0
 42115  1  0  0  0
 43 44  1  0  0  0
 44116  1  0  0  0
 45 46  2  0  0  0
 45117  1  0  0  0
 46118  1  0  0  0
 47119  1  0  0  0
 47120  1  0  0  0
 48 56  1  0  0  0
 48 65  1  0  0  0
 48121  1  0  0  0
 49 50  1  0  0  0
 49 53  1  0  0  0
 49 64  1  0  0  0
 49122  1  0  0  0
 50 51  1  0  0  0
 50123  1  0  0  0
 50124  1  0  0  0
 51 52  1  0  0  0
 51125  1  0  0  0
 51126  1  0  0  0
 52127  1  0  0  0
 52128  1  0  0  0
 53 54  1  0  0  0
 54 55  2  0  0  0
 54129  1  0  0  0
 55 57  1  0  0  0
 55130  1  0  0  0
 56 69  2  0  0  0
 57 58  2  0  0  0
 57131  1  0  0  0
 58132  1  0  0  0
 59 60  1  0  0  0
 59 61  1  0  0  0
 59 62  1  0  0  0
 60133  1  0  0  0
 60134  1  0  0  0
 60135  1  0  0  0
 61136  1  0  0  0
 61137  1  0  0  0
 61138  1  0  0  0
 62139  1  0  0  0
 62140  1  0  0  0
 62141  1  0  0  0
 63 65  1  0  0  0
 63142  1  0  0  0
 63143  1  0  0  0
 63144  1  0  0  0
 64145  1  0  0  0
 65146  1  0  0  0
 68 83  1  0  0  0
 71 73  2  0  0  0
 71 74  1  0  0  0
 71147  1  0  0  0
 72 74  2  0  0  0
 72 76  1  0  0  0
 72148  1  0  0  0
 73 75  1  0  0  0
 73 84  1  0  0  0
 74 85  1  0  0  0
 75 76  2  0  0  0
 75 86  1  0  0  0
 76 87  1  0  0  0
 77 78  1  0  0  0
 77 79  1  0  0  0
 77149  1  0  0  0
 77150  1  0  0  0
 78 80  1  0  0  0
 78151  1  0  0  0
 78152  1  0  0  0
 79 84  1  0  0  0
 79153  1  0  0  0
 79154  1  0  0  0
 80 84  1  0  0  0
 80155  1  0  0  0
 80156  1  0  0  0
 81 82  1  0  0  0
 81 83  1  0  0  0
 81157  1  0  0  0
 81158  1  0  0  0
 82 86  1  0  0  0
 82159  1  0  0  0
 82160  1  0  0  0
 83161  1  0  0  0
 83162  1  0  0  0
 85163  1  0  0  0
 86164  1  0  0  0
M  ISO  4   1 100  68 101  83 101  85 100
M  END
> <chiral flag>
0

> <version>
0

> <s_m_source_file>
/data/baiqing/PycharmProjects/Reinvent-master-3.2/result/LINK_invent/BTK/process_docking_weight1_custom_product_contain_oxygen_bond_distance_aromatic_linkinvent_7_9_3/rearranged_h_0025.sdf

> <i_m_source_file_index>
80

> <r_mmod_Potential_Energy-OPLS-2005>
210.43522644043

> <r_mmod_Stretch_Energy-OPLS-2005>
72.5493469238281

> <r_mmod_Bend_Energy-OPLS-2005>
172.820571899414

> <r_mmod_Torsional_Energy-OPLS-2005>
292.121307373047

> <r_mmod_Improper_Torsional_Energy-OPLS-2005>
10.3823394775391

> <r_mmod_Van_der_Waal_Energy-OPLS-2005>
149.126876831055

> <r_mmod_Electrostatic_Energy-OPLS-2005>
-306.894348144531

> <r_mmod_Solvation_Energy-OPLS-2005>
-222.400115966797

> <b_mmod_Minimization_Converged-OPLS-2005>
0

> <r_mmod_RMS_Derivative-OPLS-2005>
2.18501758575439

$$$$
80
                    3D
 Structure written by MMmdl.
163172  0  0  1  0            999 V2000
  -30.6042  -14.6600   20.5187 C   0  0  0  0  0  0
  -30.4266  -12.4058   19.4680 C   0  0  0  0  0  0
  -29.5034  -12.5371   18.2370 C   0  0  0  0  0  0
  -28.0238  -12.3688   18.6397 C   0  0  0  0  0  0
  -27.6488  -13.2272   19.8779 C   0  0  2  0  0  0
  -28.6906  -13.0752   21.0116 C   0  0  0  0  0  0
  -25.2491  -13.8211   20.5720 C   0  0  0  0  0  0
  -24.1800  -13.0428   20.9236 C   0  0  0  0  0  0
  -24.6421  -11.6911   20.8811 C   0  0  0  0  0  0
  -23.9121  -10.4282   21.0419 C   0  0  0  0  0  0
  -24.3651   -9.4185   21.9190 C   0  0  0  0  0  0
  -23.6306   -8.2232   22.0762 C   0  0  0  0  0  0
  -22.4291   -8.0286   21.3548 C   0  0  0  0  0  0
  -21.9938   -9.0261   20.4665 C   0  0  0  0  0  0
  -22.7292  -10.2127   20.3050 C   0  0  0  0  0  0
  -21.6855   -6.0742   22.5296 C   0  0  0  0  0  0
  -21.4018   -6.5635   23.8232 C   0  0  0  0  0  0
  -21.3673   -5.6799   24.9199 C   0  0  0  0  0  0
  -21.6042   -4.3057   24.7258 C   0  0  0  0  0  0
  -21.8806   -3.8163   23.4385 C   0  0  0  0  0  0
  -21.9190   -4.6971   22.3432 C   0  0  0  0  0  0
  -22.7809  -13.5150   21.1874 C   0  0  0  0  0  0
  -22.1627   -4.2153   21.1001 F   0  0  0  0  0  0
  -21.5648   -3.4533   25.7775 F   0  0  0  0  0  0
  -30.0119  -13.4215   20.4612 N   0  0  0  0  0  0
  -26.2963  -12.9419   20.3428 N   0  0  0  0  0  0
  -25.9363  -11.6570   20.5874 N   0  0  0  0  0  0
  -22.0476  -12.8154   22.0469 N   0  0  0  0  0  0
  -25.4107  -15.1943   20.4079 N   0  0  0  0  0  0
  -31.7234  -14.8534   20.0305 O   0  0  0  0  0  0
  -21.6651   -6.8888   21.4254 O   0  0  0  0  0  0
  -22.3452  -14.5440   20.6714 O   0  0  0  0  0  0
  -24.6244  -31.8594   23.1983 C   0  0  0  0  0  0
  -25.9098  -32.4777   23.8315 C   0  0  1  0  0  0
  -27.2451  -27.3322   20.1239 C   0  0  0  0  0  0
  -25.5896  -33.8577   24.2238 N   0  0  0  0  0  0
  -23.4214  -30.4807   21.5375 C   0  0  2  0  0  0
  -24.8742  -28.9291   20.1129 C   0  0  0  0  0  0
  -22.7473  -29.4637   22.4894 C   0  0  0  0  0  0
  -18.0286  -28.1412   22.8477 C   0  0  0  0  0  0
  -24.1492  -36.7305   23.2628 C   0  0  0  0  0  0
  -25.9597  -30.7977   21.3647 C   0  0  0  0  0  0
  -26.0418  -29.4237   20.7100 C   0  0  0  0  0  0
  -27.2320  -28.6410   20.6959 C   0  0  0  0  0  0
  -26.0547  -26.8760   19.5179 C   0  0  0  0  0  0
  -24.8841  -27.6637   19.5022 C   0  0  0  0  0  0
  -23.6394  -29.8080   20.1551 C   0  0  0  0  0  0
  -25.4115  -36.3088   24.0320 C   0  0  1  0  0  0
  -20.5889  -28.3727   23.1279 C   0  0  2  0  0  0
  -20.6786  -26.9441   22.5425 C   0  0  0  0  0  0
  -19.5764  -26.6401   21.5221 C   0  0  0  0  0  0
  -18.1936  -26.7959   22.1619 C   0  0  0  0  0  0
  -19.1530  -28.8885   23.2889 C   0  0  0  0  0  0
  -18.9455  -30.1471   23.8912 C   0  0  0  0  0  0
  -17.6449  -30.6608   24.0574 C   0  0  0  0  0  0
  -25.9057  -34.9462   23.5104 C   0  0  0  0  0  0
  -16.5349  -29.9108   23.6316 C   0  0  0  0  0  0
  -16.7266  -28.6542   23.0327 C   0  0  0  0  0  0
  -26.4482  -31.6589   25.0690 C   0  0  0  0  0  0
  -25.3691  -31.3756   26.1390 C   0  0  0  0  0  0
  -27.0297  -30.2995   24.6161 C   0  0  0  0  0  0
  -27.6051  -32.4314   25.7459 C   0  0  0  0  0  0
  -27.5615  -37.1770   24.8429 C   0  0  0  0  0  0
  -21.4189  -29.3062   22.3645 N   0  0  0  0  0  0
  -26.4278  -37.3799   23.9439 N   0  0  0  0  0  0
  -24.6874  -31.0604   22.0916 N   0  0  0  0  0  0
  -23.4197  -28.8148   23.2952 O   0  0  0  0  0  0
  -28.3874  -26.5180   20.1074 O   0  0  0  0  0  0
  -26.5655  -34.8935   22.4682 O   0  0  0  0  0  0
  -23.5418  -32.1369   23.7324 O   0  0  0  0  0  0
  -28.8753  -19.3312   21.5826 C   0  0  0  0  0  0
  -29.1831  -17.9585   21.8141 C   0  0  0  0  0  0
  -30.0014  -17.7418   19.5703 C   0  0  0  0  0  0
  -29.0831  -19.9567   20.3220 C   0  0  0  0  0  0
  -29.7358  -17.1087   20.8171 C   0  0  0  0  0  0
  -29.6820  -19.1214   19.3268 C   0  0  0  0  0  0
  -29.2079  -25.0151   21.8283 C   0  0  0  0  0  0
  -30.5286  -24.2746   21.5490 C   0  0  0  0  0  0
  -28.7124  -23.9810   19.5237 C   0  0  0  0  0  0
  -28.3066  -25.1103   20.5772 C   0  0  2  0  0  0
  -30.2798  -22.7980   21.1564 C   0  0  2  0  0  0
  -31.6143  -22.1033   20.8385 C   0  0  0  0  0  0
  -28.4805  -21.4002   20.0285 C   0  0  0  0  0  0
  -29.8659  -15.6680   21.0878 N   0  0  0  0  0  0
  -29.3418  -22.6612   20.0040 N   0  3  1  0  0  0
  -29.9777  -19.7604   17.7496 Cl  0  0  0  0  0  0
  -31.4669  -12.5288   19.1647 H   0  0  0  0  0  0
  -30.3541  -11.4037   19.8940 H   0  0  0  0  0  0
  -29.7759  -11.8011   17.4800 H   0  0  0  0  0  0
  -29.6432  -13.5181   17.7800 H   0  0  0  0  0  0
  -27.8555  -11.3134   18.8572 H   0  0  0  0  0  0
  -27.3699  -12.6088   17.7996 H   0  0  0  0  0  0
  -27.6649  -14.2695   19.5526 H   0  0  0  0  0  0
  -28.7030  -12.0556   21.3997 H   0  0  0  0  0  0
  -28.4248  -13.7080   21.8604 H   0  0  0  0  0  0
  -25.2788   -9.5640   22.4779 H   0  0  0  0  0  0
  -24.0030   -7.4607   22.7440 H   0  0  0  0  0  0
  -21.0873   -8.8776   19.8965 H   0  0  0  0  0  0
  -22.3752  -10.9658   19.6157 H   0  0  0  0  0  0
  -21.1996   -7.6134   23.9740 H   0  0  0  0  0  0
  -21.1500   -6.0522   25.9087 H   0  0  0  0  0  0
  -22.0584   -2.7622   23.2891 H   0  0  0  0  0  0
  -22.4093  -11.9808   22.4842 H   0  0  0  0  0  0
  -21.1081  -13.1181   22.2670 H   0  0  0  0  0  0
  -24.6364  -15.8415   20.5150 H   0  0  0  0  0  0
  -26.2643  -15.6542   20.1191 H   0  0  0  0  0  0
  -26.7178  -32.5478   23.1074 H   0  0  0  0  0  0
  -24.9968  -33.9704   25.0333 H   0  0  0  0  0  0
  -22.7165  -31.3008   21.3893 H   0  0  0  0  0  0
  -23.3794  -35.9593   23.3188 H   0  0  0  0  0  0
  -24.3618  -36.9040   22.2071 H   0  0  0  0  0  0
  -23.7178  -37.6442   23.6727 H   0  0  0  0  0  0
  -26.0900  -31.5640   20.5972 H   0  0  0  0  0  0
  -26.8415  -30.8504   21.9939 H   0  0  0  0  0  0
  -28.1358  -29.0301   21.1434 H   0  0  0  0  0  0
  -26.0247  -25.9032   19.0477 H   0  0  0  0  0  0
  -23.9916  -27.2827   19.0239 H   0  0  0  0  0  0
  -23.7607  -30.5826   19.3961 H   0  0  0  0  0  0
  -22.7619  -29.2351   19.8522 H   0  0  0  0  0  0
  -25.1296  -36.1927   25.0806 H   0  0  0  0  0  0
  -21.0001  -28.3319   24.1395 H   0  0  0  0  0  0
  -20.5702  -26.2331   23.3623 H   0  0  0  0  0  0
  -21.6651  -26.7480   22.1197 H   0  0  0  0  0  0
  -19.6925  -25.6306   21.1257 H   0  0  0  0  0  0
  -19.6714  -27.3213   20.6754 H   0  0  0  0  0  0
  -17.4215  -26.6713   21.4011 H   0  0  0  0  0  0
  -18.0323  -26.0101   22.9013 H   0  0  0  0  0  0
  -19.7928  -30.7291   24.2299 H   0  0  0  0  0  0
  -17.5004  -31.6277   24.5183 H   0  0  0  0  0  0
  -15.5356  -30.3026   23.7622 H   0  0  0  0  0  0
  -15.8669  -28.0874   22.7011 H   0  0  0  0  0  0
  -24.5857  -30.7126   25.7703 H   0  0  0  0  0  0
  -24.8874  -32.2933   26.4788 H   0  0  0  0  0  0
  -25.7956  -30.8932   27.0188 H   0  0  0  0  0  0
  -26.2858  -29.6752   24.1188 H   0  0  0  0  0  0
  -27.3968  -29.7261   25.4689 H   0  0  0  0  0  0
  -27.8753  -30.4247   23.9388 H   0  0  0  0  0  0
  -27.2673  -33.3616   26.2039 H   0  0  0  0  0  0
  -28.3853  -32.6866   25.0276 H   0  0  0  0  0  0
  -28.0720  -31.8426   26.5358 H   0  0  0  0  0  0
  -28.2520  -38.0183   24.7664 H   0  0  0  0  0  0
  -28.1225  -36.2733   24.6013 H   0  0  0  0  0  0
  -27.2365  -37.1119   25.8825 H   0  0  0  0  0  0
  -20.9359  -29.8784   21.6870 H   0  0  0  0  0  0
  -26.0164  -38.2855   24.1541 H   0  0  0  0  0  0
  -28.4019  -19.8897   22.3805 H   0  0  0  0  0  0
  -28.9470  -17.5426   22.7822 H   0  0  0  0  0  0
  -30.3962  -17.1497   18.7549 H   0  0  0  0  0  0
  -29.4164  -26.0118   22.2176 H   0  0  0  0  0  0
  -28.6726  -24.4955   22.6267 H   0  0  0  0  0  0
  -31.1622  -24.3069   22.4357 H   0  0  0  0  0  0
  -31.0901  -24.7895   20.7662 H   0  0  0  0  0  0
  -29.4979  -24.4354   18.9186 H   0  0  0  0  0  0
  -27.8978  -23.7970   18.8239 H   0  0  0  0  0  0
  -27.2857  -24.9138   20.9102 H   0  0  0  0  0  0
  -29.8327  -22.2973   22.0160 H   0  0  0  0  0  0
  -32.1849  -22.6469   20.0839 H   0  0  0  0  0  0
  -31.4823  -21.0843   20.4754 H   0  0  0  0  0  0
  -32.2340  -22.0392   21.7328 H   0  0  0  0  0  0
  -27.6798  -21.5696   20.7513 H   0  0  0  0  0  0
  -27.9732  -21.3376   19.0627 H   0  0  0  0  0  0
  -29.1542  -15.3046   21.7035 H   0  0  0  0  0  0
  -29.9529  -22.4586   19.2270 H   0  0  0  0  0  0
  1 25  1  0  0  0
  1 30  2  0  0  0
  1 84  1  0  0  0
  2  3  1  0  0  0
  2 25  1  0  0  0
  2 87  1  0  0  0
  2 88  1  0  0  0
  3  4  1  0  0  0
  3 89  1  0  0  0
  3 90  1  0  0  0
  4  5  1  0  0  0
  4 91  1  0  0  0
  4 92  1  0  0  0
  5  6  1  0  0  0
  5 26  1  0  0  0
  5 93  1  0  0  0
  6 25  1  0  0  0
  6 94  1  0  0  0
  6 95  1  0  0  0
  7  8  2  0  0  0
  7 26  1  0  0  0
  7 29  1  0  0  0
  8  9  1  0  0  0
  8 22  1  0  0  0
  9 10  1  0  0  0
  9 27  2  0  0  0
 10 11  2  0  0  0
 10 15  1  0  0  0
 11 12  1  0  0  0
 11 96  1  0  0  0
 12 13  2  0  0  0
 12 97  1  0  0  0
 13 14  1  0  0  0
 13 31  1  0  0  0
 14 15  2  0  0  0
 14 98  1  0  0  0
 15 99  1  0  0  0
 16 17  2  0  0  0
 16 21  1  0  0  0
 16 31  1  0  0  0
 17 18  1  0  0  0
 17100  1  0  0  0
 18 19  2  0  0  0
 18101  1  0  0  0
 19 20  1  0  0  0
 19 24  1  0  0  0
 20 21  2  0  0  0
 20102  1  0  0  0
 21 23  1  0  0  0
 22 28  1  0  0  0
 22 32  2  0  0  0
 26 27  1  0  0  0
 28103  1  0  0  0
 28104  1  0  0  0
 29105  1  0  0  0
 29106  1  0  0  0
 33 34  1  0  0  0
 33 66  1  0  0  0
 33 70  2  0  0  0
 34 36  1  0  0  0
 34 59  1  0  0  0
 34107  1  0  0  0
 35 44  2  0  0  0
 35 45  1  0  0  0
 35 68  1  0  0  0
 36 56  1  0  0  0
 36108  1  0  0  0
 37 39  1  0  0  0
 37 47  1  0  0  0
 37 66  1  0  0  0
 37109  1  0  0  0
 38 43  2  0  0  0
 38 46  1  0  0  0
 38 47  1  0  0  0
 39 64  1  0  0  0
 39 67  2  0  0  0
 40 52  1  0  0  0
 40 53  2  0  0  0
 40 58  1  0  0  0
 41110  1  0  0  0
 41111  1  0  0  0
 41112  1  0  0  0
 41 48  1  0  0  0
 42 43  1  0  0  0
 42 66  1  0  0  0
 42113  1  0  0  0
 42114  1  0  0  0
 43 44  1  0  0  0
 44115  1  0  0  0
 45 46  2  0  0  0
 45116  1  0  0  0
 46117  1  0  0  0
 47118  1  0  0  0
 47119  1  0  0  0
 48 56  1  0  0  0
 48 65  1  0  0  0
 48120  1  0  0  0
 49 50  1  0  0  0
 49 53  1  0  0  0
 49 64  1  0  0  0
 49121  1  0  0  0
 50 51  1  0  0  0
 50122  1  0  0  0
 50123  1  0  0  0
 51 52  1  0  0  0
 51124  1  0  0  0
 51125  1  0  0  0
 52126  1  0  0  0
 52127  1  0  0  0
 53 54  1  0  0  0
 54 55  2  0  0  0
 54128  1  0  0  0
 55 57  1  0  0  0
 55129  1  0  0  0
 56 69  2  0  0  0
 57 58  2  0  0  0
 57130  1  0  0  0
 58131  1  0  0  0
 59 60  1  0  0  0
 59 61  1  0  0  0
 59 62  1  0  0  0
 60132  1  0  0  0
 60133  1  0  0  0
 60134  1  0  0  0
 61135  1  0  0  0
 61136  1  0  0  0
 61137  1  0  0  0
 62138  1  0  0  0
 62139  1  0  0  0
 62140  1  0  0  0
 63 65  1  0  0  0
 63141  1  0  0  0
 63142  1  0  0  0
 63143  1  0  0  0
 64144  1  0  0  0
 65145  1  0  0  0
 68 80  1  0  0  0
 71 72  2  0  0  0
 71 74  1  0  0  0
 71146  1  0  0  0
 72 75  1  0  0  0
 72147  1  0  0  0
 73 75  2  0  0  0
 73 76  1  0  0  0
 73148  1  0  0  0
 74 76  2  0  0  0
 74 83  1  0  0  0
 75 84  1  0  0  0
 76 86  1  0  0  0
 77 78  1  0  0  0
 77 80  1  0  0  0
 77149  1  0  0  0
 77150  1  0  0  0
 78 81  1  0  0  0
 78151  1  0  0  0
 78152  1  0  0  0
 79 80  1  0  0  0
 79 85  1  0  0  0
 79153  1  0  0  0
 79154  1  0  0  0
 80155  1  0  0  0
 81 82  1  0  0  0
 81 85  1  0  0  0
 81156  1  0  0  0
 82157  1  0  0  0
 82158  1  0  0  0
 82159  1  0  0  0
 83160  1  0  0  0
 83161  1  0  0  0
 83 85  1  0  0  0
 84162  1  0  0  0
 85163  1  0  0  0
M  CHG  1  85   1
M  ISO  4   1 100  68 101  80 101  84 100
M  END
> <chiral flag>
0

> <version>
0

> <s_m_source_file>
/data/baiqing/PycharmProjects/Reinvent-master-3.2/result/LINK_invent/BTK/process_docking_weight1_custom_product_contain_oxygen_bond_distance_aromatic_linkinvent_7_9_3/rearranged_h_0025.sdf

> <i_m_source_file_index>
81

> <r_mmod_Potential_Energy-OPLS-2005>
60.3095855712891

> <r_mmod_Stretch_Energy-OPLS-2005>
92.0764694213867

> <r_mmod_Bend_Energy-OPLS-2005>
163.245697021484

> <r_mmod_Torsional_Energy-OPLS-2005>
294.073791503906

> <r_mmod_Improper_Torsional_Energy-OPLS-2005>
4.39112281799316

> <r_mmod_Van_der_Waal_Energy-OPLS-2005>
137.402557373047

> <r_mmod_Electrostatic_Energy-OPLS-2005>
-257.558898925781

> <r_mmod_Solvation_Energy-OPLS-2005>
-420.617523193359

> <b_mmod_Minimization_Converged-OPLS-2005>
0

> <r_mmod_RMS_Derivative-OPLS-2005>
4.40893411636353

$$$$
81
                    3D
 Structure written by MMmdl.
159168  0  0  1  0            999 V2000
  -30.6477  -14.6507   20.4539 C   0  0  0  0  0  0
  -30.4212  -12.3774   19.4876 C   0  0  0  0  0  0
  -29.5198  -12.5028   18.2418 C   0  0  0  0  0  0
  -28.0367  -12.3586   18.6356 C   0  0  0  0  0  0
  -27.6509  -13.2341   19.8620 C   0  0  2  0  0  0
  -28.6914  -13.1294   20.9989 C   0  0  0  0  0  0
  -25.2530  -13.8189   20.5647 C   0  0  0  0  0  0
  -24.1830  -13.0428   20.9145 C   0  0  0  0  0  0
  -24.6439  -11.6909   20.8725 C   0  0  0  0  0  0
  -23.9088  -10.4304   21.0404 C   0  0  0  0  0  0
  -24.3627   -9.4206   21.9186 C   0  0  0  0  0  0
  -23.6296   -8.2273   22.0774 C   0  0  0  0  0  0
  -22.4287   -8.0312   21.3573 C   0  0  0  0  0  0
  -21.9893   -9.0287   20.4651 C   0  0  0  0  0  0
  -22.7249  -10.2154   20.3051 C   0  0  0  0  0  0
  -21.6860   -6.0728   22.5266 C   0  0  0  0  0  0
  -21.4041   -6.5624   23.8195 C   0  0  0  0  0  0
  -21.3648   -5.6770   24.9163 C   0  0  0  0  0  0
  -21.6049   -4.3046   24.7188 C   0  0  0  0  0  0
  -21.8840   -3.8134   23.4323 C   0  0  0  0  0  0
  -21.9206   -4.6954   22.3361 C   0  0  0  0  0  0
  -22.7837  -13.5221   21.1805 C   0  0  0  0  0  0
  -22.1678   -4.2143   21.0947 F   0  0  0  0  0  0
  -21.5584   -3.4520   25.7696 F   0  0  0  0  0  0
  -30.0107  -13.4351   20.4310 N   0  0  0  0  0  0
  -26.2992  -12.9412   20.3314 N   0  0  0  0  0  0
  -25.9386  -11.6539   20.5767 N   0  0  0  0  0  0
  -22.0485  -12.8256   22.0389 N   0  0  0  0  0  0
  -25.4167  -15.1920   20.4072 N   0  0  0  0  0  0
  -31.8214  -14.7531   20.0857 O   0  0  0  0  0  0
  -21.6666   -6.8905   21.4243 O   0  0  0  0  0  0
  -22.3507  -14.5513   20.6654 O   0  0  0  0  0  0
  -24.6246  -31.8628   23.2019 C   0  0  0  0  0  0
  -25.9108  -32.4779   23.8352 C   0  0  1  0  0  0
  -27.2355  -27.3273   20.1187 C   0  0  0  0  0  0
  -25.5959  -33.8591   24.2297 N   0  0  0  0  0  0
  -23.4174  -30.4876   21.5441 C   0  0  2  0  0  0
  -24.8638  -28.9395   20.1123 C   0  0  0  0  0  0
  -22.7457  -29.4643   22.4898 C   0  0  0  0  0  0
  -18.0307  -28.1413   22.8449 C   0  0  0  0  0  0
  -24.1488  -36.7285   23.2621 C   0  0  0  0  0  0
  -25.9569  -30.7979   21.3670 C   0  0  0  0  0  0
  -26.0313  -29.4252   20.7117 C   0  0  0  0  0  0
  -27.2144  -28.6314   20.7062 C   0  0  0  0  0  0
  -26.0329  -26.8826   19.5168 C   0  0  0  0  0  0
  -24.8647  -27.6700   19.5132 C   0  0  0  0  0  0
  -23.6344  -29.8255   20.1584 C   0  0  0  0  0  0
  -25.4103  -36.3086   24.0330 C   0  0  1  0  0  0
  -20.5905  -28.3715   23.1245 C   0  0  2  0  0  0
  -20.6797  -26.9431   22.5403 C   0  0  0  0  0  0
  -19.5788  -26.6390   21.5191 C   0  0  0  0  0  0
  -18.1963  -26.7943   22.1586 C   0  0  0  0  0  0
  -19.1550  -28.8866   23.2857 C   0  0  0  0  0  0
  -18.9490  -30.1448   23.8910 C   0  0  0  0  0  0
  -17.6490  -30.6573   24.0601 C   0  0  0  0  0  0
  -25.9049  -34.9454   23.5099 C   0  0  0  0  0  0
  -16.5380  -29.9095   23.6326 C   0  0  0  0  0  0
  -16.7291  -28.6534   23.0291 C   0  0  0  0  0  0
  -26.4493  -31.6567   25.0711 C   0  0  0  0  0  0
  -25.3724  -31.3749   26.1446 C   0  0  0  0  0  0
  -27.0292  -30.2982   24.6121 C   0  0  0  0  0  0
  -27.6063  -32.4286   25.7475 C   0  0  0  0  0  0
  -27.5604  -37.1770   24.8431 C   0  0  0  0  0  0
  -21.4172  -29.3059   22.3619 N   0  0  0  0  0  0
  -26.4266  -37.3805   23.9444 N   0  0  0  0  0  0
  -24.6856  -31.0656   22.0956 N   0  0  0  0  0  0
  -23.4174  -28.8188   23.2985 O   0  0  0  0  0  0
  -28.3934  -26.5330   20.1889 O   0  0  0  0  0  0
  -26.5606  -34.8929   22.4655 O   0  0  0  0  0  0
  -23.5417  -32.1433   23.7359 O   0  0  0  0  0  0
  -30.3084  -17.1295   18.6773 C   0  0  0  0  0  0
  -30.3281  -18.3477   17.9782 C   0  0  0  0  0  0
  -29.6182  -18.3341   20.6808 C   0  0  0  0  0  0
  -29.6447  -19.5983   19.9863 C   0  0  0  0  0  0
  -29.9677  -17.0778   20.0505 C   0  0  0  0  0  0
  -30.0116  -19.5657   18.6128 C   0  0  0  0  0  0
  -27.7144  -22.7387   20.0023 C   0  0  0  0  0  0
  -30.1388  -23.2479   20.3918 C   0  0  0  0  0  0
  -27.9122  -21.3397   20.6774 C   0  0  0  0  0  0
  -30.3075  -21.8327   21.0536 C   0  0  0  0  0  0
  -28.6956  -23.8720   20.4523 C   0  0  0  0  0  0
  -28.5116  -25.1970   19.5710 C   0  0  0  0  0  0
  -29.2983  -20.8548   20.6076 N   0  0  0  0  0  0
  -29.8969  -15.7705   20.7157 N   0  0  0  0  0  0
  -30.0464  -21.0013   17.6454 Cl  0  0  0  0  0  0
  -31.4749  -12.4473   19.2119 H   0  0  0  0  0  0
  -30.3008  -11.3962   19.9488 H   0  0  0  0  0  0
  -29.7845  -11.7390   17.5083 H   0  0  0  0  0  0
  -29.6875  -13.4669   17.7576 H   0  0  0  0  0  0
  -27.8668  -11.3055   18.8611 H   0  0  0  0  0  0
  -27.3971  -12.6006   17.7855 H   0  0  0  0  0  0
  -27.6541  -14.2657   19.5093 H   0  0  0  0  0  0
  -28.6944  -12.1283   21.4295 H   0  0  0  0  0  0
  -28.4476  -13.8159   21.8131 H   0  0  0  0  0  0
  -25.2784   -9.5656   22.4741 H   0  0  0  0  0  0
  -23.9977   -7.4642   22.7486 H   0  0  0  0  0  0
  -21.0811   -8.8809   19.8954 H   0  0  0  0  0  0
  -22.3718  -10.9696   19.6131 H   0  0  0  0  0  0
  -21.2098   -7.6137   23.9710 H   0  0  0  0  0  0
  -21.1411   -6.0498   25.9061 H   0  0  0  0  0  0
  -22.0635   -2.7591   23.2822 H   0  0  0  0  0  0
  -22.4092  -11.9893   22.4724 H   0  0  0  0  0  0
  -21.1127  -13.1341   22.2618 H   0  0  0  0  0  0
  -24.6370  -15.8395   20.4582 H   0  0  0  0  0  0
  -26.2792  -15.6384   20.1187 H   0  0  0  0  0  0
  -26.7182  -32.5474   23.1111 H   0  0  0  0  0  0
  -25.0177  -33.9753   25.0494 H   0  0  0  0  0  0
  -22.7088  -31.3083   21.4038 H   0  0  0  0  0  0
  -23.3784  -35.9576   23.3196 H   0  0  0  0  0  0
  -24.3614  -36.8991   22.2054 H   0  0  0  0  0  0
  -23.7177  -37.6435   23.6695 H   0  0  0  0  0  0
  -26.0839  -31.5592   20.5975 H   0  0  0  0  0  0
  -26.8390  -30.8511   21.9925 H   0  0  0  0  0  0
  -28.1130  -29.0065   21.1756 H   0  0  0  0  0  0
  -25.9425  -25.9066   19.0694 H   0  0  0  0  0  0
  -23.9622  -27.2835   19.0586 H   0  0  0  0  0  0
  -23.7661  -30.6127   19.4146 H   0  0  0  0  0  0
  -22.7496  -29.2708   19.8397 H   0  0  0  0  0  0
  -25.1259  -36.1924   25.0817 H   0  0  0  0  0  0
  -21.0006  -28.3353   24.1358 H   0  0  0  0  0  0
  -20.5671  -26.2346   23.3623 H   0  0  0  0  0  0
  -21.6679  -26.7451   22.1233 H   0  0  0  0  0  0
  -19.6967  -25.6304   21.1212 H   0  0  0  0  0  0
  -19.6730  -27.3190   20.6718 H   0  0  0  0  0  0
  -17.4236  -26.6663   21.4005 H   0  0  0  0  0  0
  -18.0379  -26.0103   22.8988 H   0  0  0  0  0  0
  -19.7967  -30.7253   24.2293 H   0  0  0  0  0  0
  -17.5047  -31.6218   24.5247 H   0  0  0  0  0  0
  -15.5392  -30.2986   23.7656 H   0  0  0  0  0  0
  -15.8696  -28.0863   22.6950 H   0  0  0  0  0  0
  -24.5876  -30.7110   25.7812 H   0  0  0  0  0  0
  -24.8943  -32.2931   26.4858 H   0  0  0  0  0  0
  -25.8036  -30.8947   27.0231 H   0  0  0  0  0  0
  -26.2825  -29.6738   24.1187 H   0  0  0  0  0  0
  -27.4050  -29.7232   25.4594 H   0  0  0  0  0  0
  -27.8681  -30.4273   23.9275 H   0  0  0  0  0  0
  -27.2686  -33.3581   26.2066 H   0  0  0  0  0  0
  -28.3866  -32.6836   25.0297 H   0  0  0  0  0  0
  -28.0718  -31.8386   26.5377 H   0  0  0  0  0  0
  -28.2523  -38.0173   24.7650 H   0  0  0  0  0  0
  -28.1208  -36.2719   24.6016 H   0  0  0  0  0  0
  -27.2369  -37.1126   25.8841 H   0  0  0  0  0  0
  -20.9340  -29.8774   21.6828 H   0  0  0  0  0  0
  -26.0132  -38.2847   24.1573 H   0  0  0  0  0  0
  -30.5378  -16.2282   18.1257 H   0  0  0  0  0  0
  -30.5761  -18.3445   16.9243 H   0  0  0  0  0  0
  -29.3289  -18.3292   21.7224 H   0  0  0  0  0  0
  -26.6889  -23.0719   20.1854 H   0  0  0  0  0  0
  -27.7887  -22.6147   18.9184 H   0  0  0  0  0  0
  -30.4556  -23.1773   19.3506 H   0  0  0  0  0  0
  -30.8543  -23.9322   20.8531 H   0  0  0  0  0  0
  -27.2334  -20.6157   20.2207 H   0  0  0  0  0  0
  -27.6199  -21.4065   21.7294 H   0  0  0  0  0  0
  -30.2236  -21.9361   22.1403 H   0  0  0  0  0  0
  -31.3173  -21.4482   20.8750 H   0  0  0  0  0  0
  -28.4736  -24.1152   21.4946 H   0  0  0  0  0  0
  -27.7367  -25.0177   18.8309 H   0  0  0  0  0  0
  -29.3956  -25.2776   18.9379 H   0  0  0  0  0  0
  -29.0506  -15.5999   21.2374 H   0  0  0  0  0  0
  1 25  1  0  0  0
  1 30  2  0  0  0
  1 84  1  0  0  0
  2  3  1  0  0  0
  2 25  1  0  0  0
  2 86  1  0  0  0
  2 87  1  0  0  0
  3  4  1  0  0  0
  3 88  1  0  0  0
  3 89  1  0  0  0
  4  5  1  0  0  0
  4 90  1  0  0  0
  4 91  1  0  0  0
  5  6  1  0  0  0
  5 26  1  0  0  0
  5 92  1  0  0  0
  6 25  1  0  0  0
  6 93  1  0  0  0
  6 94  1  0  0  0
  7  8  2  0  0  0
  7 26  1  0  0  0
  7 29  1  0  0  0
  8  9  1  0  0  0
  8 22  1  0  0  0
  9 10  1  0  0  0
  9 27  2  0  0  0
 10 11  2  0  0  0
 10 15  1  0  0  0
 11 12  1  0  0  0
 11 95  1  0  0  0
 12 13  2  0  0  0
 12 96  1  0  0  0
 13 14  1  0  0  0
 13 31  1  0  0  0
 14 15  2  0  0  0
 14 97  1  0  0  0
 15 98  1  0  0  0
 16 17  2  0  0  0
 16 21  1  0  0  0
 16 31  1  0  0  0
 17 18  1  0  0  0
 17 99  1  0  0  0
 18 19  2  0  0  0
 18100  1  0  0  0
 19 20  1  0  0  0
 19 24  1  0  0  0
 20 21  2  0  0  0
 20101  1  0  0  0
 21 23  1  0  0  0
 22 28  1  0  0  0
 22 32  2  0  0  0
 26 27  1  0  0  0
 28102  1  0  0  0
 28103  1  0  0  0
 29104  1  0  0  0
 29105  1  0  0  0
 33 34  1  0  0  0
 33 66  1  0  0  0
 33 70  2  0  0  0
 34 36  1  0  0  0
 34 59  1  0  0  0
 34106  1  0  0  0
 35 44  2  0  0  0
 35 45  1  0  0  0
 35 68  1  0  0  0
 36 56  1  0  0  0
 36107  1  0  0  0
 37 39  1  0  0  0
 37 47  1  0  0  0
 37 66  1  0  0  0
 37108  1  0  0  0
 38 43  2  0  0  0
 38 46  1  0  0  0
 38 47  1  0  0  0
 39 64  1  0  0  0
 39 67  2  0  0  0
 40 52  1  0  0  0
 40 53  2  0  0  0
 40 58  1  0  0  0
 41109  1  0  0  0
 41110  1  0  0  0
 41111  1  0  0  0
 41 48  1  0  0  0
 42 43  1  0  0  0
 42 66  1  0  0  0
 42112  1  0  0  0
 42113  1  0  0  0
 43 44  1  0  0  0
 44114  1  0  0  0
 45 46  2  0  0  0
 45115  1  0  0  0
 46116  1  0  0  0
 47117  1  0  0  0
 47118  1  0  0  0
 48 56  1  0  0  0
 48 65  1  0  0  0
 48119  1  0  0  0
 49 50  1  0  0  0
 49 53  1  0  0  0
 49 64  1  0  0  0
 49120  1  0  0  0
 50 51  1  0  0  0
 50121  1  0  0  0
 50122  1  0  0  0
 51 52  1  0  0  0
 51123  1  0  0  0
 51124  1  0  0  0
 52125  1  0  0  0
 52126  1  0  0  0
 53 54  1  0  0  0
 54 55  2  0  0  0
 54127  1  0  0  0
 55 57  1  0  0  0
 55128  1  0  0  0
 56 69  2  0  0  0
 57 58  2  0  0  0
 57129  1  0  0  0
 58130  1  0  0  0
 59 60  1  0  0  0
 59 61  1  0  0  0
 59 62  1  0  0  0
 60131  1  0  0  0
 60132  1  0  0  0
 60133  1  0  0  0
 61134  1  0  0  0
 61135  1  0  0  0
 61136  1  0  0  0
 62137  1  0  0  0
 62138  1  0  0  0
 62139  1  0  0  0
 63 65  1  0  0  0
 63140  1  0  0  0
 63141  1  0  0  0
 63142  1  0  0  0
 64143  1  0  0  0
 65144  1  0  0  0
 68 82  1  0  0  0
 71 72  2  0  0  0
 71 75  1  0  0  0
 71145  1  0  0  0
 72 76  1  0  0  0
 72146  1  0  0  0
 73 74  1  0  0  0
 73 75  2  0  0  0
 73147  1  0  0  0
 74 76  2  0  0  0
 74 83  1  0  0  0
 75 84  1  0  0  0
 76 85  1  0  0  0
 77 79  1  0  0  0
 77 81  1  0  0  0
 77148  1  0  0  0
 77149  1  0  0  0
 78 80  1  0  0  0
 78 81  1  0  0  0
 78150  1  0  0  0
 78151  1  0  0  0
 79 83  1  0  0  0
 79152  1  0  0  0
 79153  1  0  0  0
 80 83  1  0  0  0
 80154  1  0  0  0
 80155  1  0  0  0
 81 82  1  0  0  0
 81156  1  0  0  0
 82157  1  0  0  0
 82158  1  0  0  0
 84159  1  0  0  0
M  ISO  4   1 100  68 101  82 101  84 100
M  END
> <chiral flag>
0

> <version>
0

> <s_m_source_file>
/data/baiqing/PycharmProjects/Reinvent-master-3.2/result/LINK_invent/BTK/process_docking_weight1_custom_product_contain_oxygen_bond_distance_aromatic_linkinvent_7_9_3/rearranged_h_0025.sdf

> <i_m_source_file_index>
82

> <r_mmod_Potential_Energy-OPLS-2005>
184.871719360352

> <r_mmod_Stretch_Energy-OPLS-2005>
83.7849884033203

> <r_mmod_Bend_Energy-OPLS-2005>
156.562133789062

> <r_mmod_Torsional_Energy-OPLS-2005>
299.853271484375

> <r_mmod_Improper_Torsional_Energy-OPLS-2005>
5.44093132019043

> <r_mmod_Van_der_Waal_Energy-OPLS-2005>
141.422485351562

> <r_mmod_Electrostatic_Energy-OPLS-2005>
-333.338836669922

> <r_mmod_Solvation_Energy-OPLS-2005>
-217.886367797852

> <b_mmod_Minimization_Converged-OPLS-2005>
0

> <r_mmod_RMS_Derivative-OPLS-2005>
5.63185548782349

$$$$
82
                    3D
 Structure written by MMmdl.
158167  0  0  1  0            999 V2000
  -30.5136  -14.9375   20.4168 C   0  0  0  0  0  0
  -30.4515  -12.5788   19.4860 C   0  0  0  0  0  0
  -29.5238  -12.5297   18.2491 C   0  0  0  0  0  0
  -28.0548  -12.3157   18.6676 C   0  0  0  0  0  0
  -27.6316  -13.2420   19.8379 C   0  0  2  0  0  0
  -28.6787  -13.2448   20.9724 C   0  0  0  0  0  0
  -25.2460  -13.8169   20.5740 C   0  0  0  0  0  0
  -24.1779  -13.0403   20.9256 C   0  0  0  0  0  0
  -24.6398  -11.6894   20.8763 C   0  0  0  0  0  0
  -23.9085  -10.4274   21.0416 C   0  0  0  0  0  0
  -24.3630   -9.4189   21.9193 C   0  0  0  0  0  0
  -23.6300   -8.2229   22.0754 C   0  0  0  0  0  0
  -22.4280   -8.0279   21.3547 C   0  0  0  0  0  0
  -21.9924   -9.0253   20.4647 C   0  0  0  0  0  0
  -22.7259  -10.2126   20.3061 C   0  0  0  0  0  0
  -21.6845   -6.0746   22.5287 C   0  0  0  0  0  0
  -21.4007   -6.5645   23.8223 C   0  0  0  0  0  0
  -21.3659   -5.6793   24.9182 C   0  0  0  0  0  0
  -21.6043   -4.3058   24.7227 C   0  0  0  0  0  0
  -21.8816   -3.8155   23.4347 C   0  0  0  0  0  0
  -21.9188   -4.6975   22.3406 C   0  0  0  0  0  0
  -22.7797  -13.5186   21.1903 C   0  0  0  0  0  0
  -22.1657   -4.2162   21.0983 F   0  0  0  0  0  0
  -21.5631   -3.4538   25.7738 F   0  0  0  0  0  0
  -29.9569  -13.6618   20.3773 N   0  0  0  0  0  0
  -26.2893  -12.9413   20.3236 N   0  0  0  0  0  0
  -25.9328  -11.6545   20.5724 N   0  0  0  0  0  0
  -22.0434  -12.8187   22.0453 N   0  0  0  0  0  0
  -25.4028  -15.1895   20.4209 N   0  0  0  0  0  0
  -31.7208  -15.0510   20.1776 O   0  0  0  0  0  0
  -21.6631   -6.8888   21.4249 O   0  0  0  0  0  0
  -22.3487  -14.5492   20.6741 O   0  0  0  0  0  0
  -24.6427  -31.8446   23.1881 C   0  0  0  0  0  0
  -25.9203  -32.4696   23.8272 C   0  0  1  0  0  0
  -27.2212  -27.1433   20.1605 C   0  0  0  0  0  0
  -25.5956  -33.8501   24.2192 N   0  0  0  0  0  0
  -23.4473  -30.4622   21.5332 C   0  0  2  0  0  0
  -24.8993  -28.8857   20.1136 C   0  0  0  0  0  0
  -22.7568  -29.4547   22.4859 C   0  0  0  0  0  0
  -18.0312  -28.1401   22.8481 C   0  0  0  0  0  0
  -24.1490  -36.7253   23.2643 C   0  0  0  0  0  0
  -26.0022  -30.7189   21.3875 C   0  0  0  0  0  0
  -26.0752  -29.3284   20.7343 C   0  0  0  0  0  0
  -27.2398  -28.4730   20.7413 C   0  0  0  0  0  0
  -26.0281  -26.8037   19.4897 C   0  0  0  0  0  0
  -24.8867  -27.6348   19.4761 C   0  0  0  0  0  0
  -23.6752  -29.7878   20.1539 C   0  0  0  0  0  0
  -25.4122  -36.3031   24.0316 C   0  0  1  0  0  0
  -20.5924  -28.3726   23.1237 C   0  0  2  0  0  0
  -20.6796  -26.9431   22.5404 C   0  0  0  0  0  0
  -19.5766  -26.6386   21.5215 C   0  0  0  0  0  0
  -18.1948  -26.7941   22.1625 C   0  0  0  0  0  0
  -19.1568  -28.8882   23.2850 C   0  0  0  0  0  0
  -18.9482  -30.1479   23.8874 C   0  0  0  0  0  0
  -17.6477  -30.6595   24.0565 C   0  0  0  0  0  0
  -25.9073  -34.9409   23.5064 C   0  0  0  0  0  0
  -16.5369  -29.9091   23.6337 C   0  0  0  0  0  0
  -16.7296  -28.6511   23.0356 C   0  0  0  0  0  0
  -26.4527  -31.6562   25.0711 C   0  0  0  0  0  0
  -25.3712  -31.3754   26.1406 C   0  0  0  0  0  0
  -27.0391  -30.2958   24.6286 C   0  0  0  0  0  0
  -27.6053  -32.4330   25.7501 C   0  0  0  0  0  0
  -27.5574  -37.1787   24.8469 C   0  0  0  0  0  0
  -21.4262  -29.3048   22.3601 N   0  0  0  0  0  0
  -26.4286  -37.3742   23.9409 N   0  0  0  0  0  0
  -24.7171  -31.0301   22.0914 N   0  0  0  0  0  0
  -23.4210  -28.8101   23.3016 O   0  0  0  0  0  0
  -28.2682  -26.1523   20.1779 O   0  0  0  0  0  0
  -26.5653  -34.8910   22.4638 O   0  0  0  0  0  0
  -23.5547  -32.1321   23.7099 O   0  0  0  0  0  0
  -30.3760  -19.9328   21.0986 C   0  0  0  0  0  0
  -30.5766  -18.4894   21.0258 C   0  0  0  0  0  0
  -28.3589  -19.7511   19.9013 C   0  0  0  0  0  0
  -29.2446  -20.6600   20.5680 C   0  0  0  0  0  0
  -29.6472  -17.5801   20.4204 C   0  0  0  0  0  0
  -28.5451  -18.3077   19.8381 C   0  0  0  0  0  0
  -28.6659  -23.3204   20.2102 C   0  0  0  0  0  0
  -26.8173  -23.8146   22.9237 C   0  0  0  0  0  0
  -27.3355  -22.3731   22.8760 C   0  0  0  0  0  0
  -26.7745  -24.5499   21.5735 C   0  0  0  0  0  0
  -28.7993  -22.2609   22.4156 C   0  0  0  0  0  0
  -28.1565  -24.7628   20.8935 C   0  0  2  0  0  0
  -28.9086  -22.1173   20.9556 N   0  0  0  0  0  0
  -29.6332  -16.0450   20.4852 N   0  0  0  0  0  0
  -28.8306  -23.3157   18.9864 O   0  0  0  0  0  0
  -27.3234  -17.3950   19.0294 Cl  0  0  0  0  0  0
  -31.4818  -12.7539   19.1731 H   0  0  0  0  0  0
  -30.4541  -11.6208   20.0087 H   0  0  0  0  0  0
  -29.8405  -11.7359   17.5712 H   0  0  0  0  0  0
  -29.6119  -13.4627   17.6903 H   0  0  0  0  0  0
  -27.9479  -11.2733   18.9696 H   0  0  0  0  0  0
  -27.3920  -12.4527   17.8120 H   0  0  0  0  0  0
  -27.5958  -14.2473   19.4185 H   0  0  0  0  0  0
  -28.7628  -12.2581   21.4298 H   0  0  0  0  0  0
  -28.3823  -13.9283   21.7705 H   0  0  0  0  0  0
  -25.2771   -9.5662   22.4772 H   0  0  0  0  0  0
  -24.0005   -7.4614   22.7468 H   0  0  0  0  0  0
  -21.0857   -8.8784   19.8946 H   0  0  0  0  0  0
  -22.3729  -10.9676   19.6176 H   0  0  0  0  0  0
  -21.1990   -7.6150   23.9736 H   0  0  0  0  0  0
  -21.1487   -6.0518   25.9089 H   0  0  0  0  0  0
  -22.0594   -2.7619   23.2841 H   0  0  0  0  0  0
  -22.4050  -11.9858   22.4857 H   0  0  0  0  0  0
  -21.1049  -13.1216   22.2644 H   0  0  0  0  0  0
  -24.6148  -15.8183   20.5246 H   0  0  0  0  0  0
  -26.2081  -15.6445   20.0096 H   0  0  0  0  0  0
  -26.7268  -32.5315   23.1004 H   0  0  0  0  0  0
  -25.0104  -33.9615   25.0339 H   0  0  0  0  0  0
  -22.7497  -31.2876   21.3762 H   0  0  0  0  0  0
  -23.3760  -35.9577   23.3295 H   0  0  0  0  0  0
  -24.3578  -36.8892   22.2060 H   0  0  0  0  0  0
  -23.7236  -37.6444   23.6683 H   0  0  0  0  0  0
  -26.1556  -31.4702   20.6116 H   0  0  0  0  0  0
  -26.8735  -30.7737   22.0286 H   0  0  0  0  0  0
  -28.1374  -28.8070   21.2426 H   0  0  0  0  0  0
  -25.9639  -25.8417   19.0011 H   0  0  0  0  0  0
  -23.9913  -27.2906   18.9773 H   0  0  0  0  0  0
  -23.8138  -30.5606   19.3970 H   0  0  0  0  0  0
  -22.7907  -29.2296   19.8425 H   0  0  0  0  0  0
  -25.1310  -36.1860   25.0808 H   0  0  0  0  0  0
  -21.0017  -28.3325   24.1358 H   0  0  0  0  0  0
  -20.5691  -26.2347   23.3626 H   0  0  0  0  0  0
  -21.6663  -26.7440   22.1200 H   0  0  0  0  0  0
  -19.6927  -25.6290   21.1265 H   0  0  0  0  0  0
  -19.6703  -27.3179   20.6733 H   0  0  0  0  0  0
  -17.4216  -26.6690   21.4029 H   0  0  0  0  0  0
  -18.0347  -26.0088   22.9025 H   0  0  0  0  0  0
  -19.7957  -30.7306   24.2227 H   0  0  0  0  0  0
  -17.5031  -31.6270   24.5175 H   0  0  0  0  0  0
  -15.5369  -30.2985   23.7670 H   0  0  0  0  0  0
  -15.8699  -28.0822   22.7080 H   0  0  0  0  0  0
  -24.5897  -30.7093   25.7732 H   0  0  0  0  0  0
  -24.8895  -32.2936   26.4774 H   0  0  0  0  0  0
  -25.7996  -30.8971   27.0220 H   0  0  0  0  0  0
  -26.3009  -29.6684   24.1277 H   0  0  0  0  0  0
  -27.3995  -29.7251   25.4854 H   0  0  0  0  0  0
  -27.8920  -30.4200   23.9609 H   0  0  0  0  0  0
  -27.2641  -33.3647   26.2025 H   0  0  0  0  0  0
  -28.3895  -32.6863   25.0355 H   0  0  0  0  0  0
  -28.0686  -31.8492   26.5464 H   0  0  0  0  0  0
  -28.2589  -38.0085   24.7507 H   0  0  0  0  0  0
  -28.1069  -36.2614   24.6305 H   0  0  0  0  0  0
  -27.2293  -37.1444   25.8873 H   0  0  0  0  0  0
  -20.9473  -29.8752   21.6770 H   0  0  0  0  0  0
  -26.0155  -38.2811   24.1406 H   0  0  0  0  0  0
  -31.1128  -20.4979   21.6530 H   0  0  0  0  0  0
  -31.4456  -18.0755   21.5170 H   0  0  0  0  0  0
  -27.4486  -20.1539   19.4817 H   0  0  0  0  0  0
  -27.4137  -24.3917   23.6323 H   0  0  0  0  0  0
  -25.8074  -23.8011   23.3370 H   0  0  0  0  0  0
  -26.6871  -21.7463   22.2608 H   0  0  0  0  0  0
  -27.2621  -21.9635   23.8848 H   0  0  0  0  0  0
  -26.3046  -25.5023   21.8071 H   0  0  0  0  0  0
  -26.0967  -24.0420   20.8861 H   0  0  0  0  0  0
  -29.2190  -21.3859   22.9118 H   0  0  0  0  0  0
  -29.4082  -23.0848   22.7891 H   0  0  0  0  0  0
  -28.8656  -24.9284   21.7032 H   0  0  0  0  0  0
  -28.6860  -15.7010   20.4925 H   0  0  0  0  0  0
  1 25  1  0  0  0
  1 30  2  0  0  0
  1 84  1  0  0  0
  2  3  1  0  0  0
  2 25  1  0  0  0
  2 87  1  0  0  0
  2 88  1  0  0  0
  3  4  1  0  0  0
  3 89  1  0  0  0
  3 90  1  0  0  0
  4  5  1  0  0  0
  4 91  1  0  0  0
  4 92  1  0  0  0
  5  6  1  0  0  0
  5 26  1  0  0  0
  5 93  1  0  0  0
  6 25  1  0  0  0
  6 94  1  0  0  0
  6 95  1  0  0  0
  7  8  2  0  0  0
  7 26  1  0  0  0
  7 29  1  0  0  0
  8  9  1  0  0  0
  8 22  1  0  0  0
  9 10  1  0  0  0
  9 27  2  0  0  0
 10 11  2  0  0  0
 10 15  1  0  0  0
 11 12  1  0  0  0
 11 96  1  0  0  0
 12 13  2  0  0  0
 12 97  1  0  0  0
 13 14  1  0  0  0
 13 31  1  0  0  0
 14 15  2  0  0  0
 14 98  1  0  0  0
 15 99  1  0  0  0
 16 17  2  0  0  0
 16 21  1  0  0  0
 16 31  1  0  0  0
 17 18  1  0  0  0
 17100  1  0  0  0
 18 19  2  0  0  0
 18101  1  0  0  0
 19 20  1  0  0  0
 19 24  1  0  0  0
 20 21  2  0  0  0
 20102  1  0  0  0
 21 23  1  0  0  0
 22 28  1  0  0  0
 22 32  2  0  0  0
 26 27  1  0  0  0
 28103  1  0  0  0
 28104  1  0  0  0
 29105  1  0  0  0
 29106  1  0  0  0
 33 34  1  0  0  0
 33 66  1  0  0  0
 33 70  2  0  0  0
 34 36  1  0  0  0
 34 59  1  0  0  0
 34107  1  0  0  0
 35 44  2  0  0  0
 35 45  1  0  0  0
 35 68  1  0  0  0
 36 56  1  0  0  0
 36108  1  0  0  0
 37 39  1  0  0  0
 37 47  1  0  0  0
 37 66  1  0  0  0
 37109  1  0  0  0
 38 43  2  0  0  0
 38 46  1  0  0  0
 38 47  1  0  0  0
 39 64  1  0  0  0
 39 67  2  0  0  0
 40 52  1  0  0  0
 40 53  2  0  0  0
 40 58  1  0  0  0
 41110  1  0  0  0
 41111  1  0  0  0
 41112  1  0  0  0
 41 48  1  0  0  0
 42 43  1  0  0  0
 42 66  1  0  0  0
 42113  1  0  0  0
 42114  1  0  0  0
 43 44  1  0  0  0
 44115  1  0  0  0
 45 46  2  0  0  0
 45116  1  0  0  0
 46117  1  0  0  0
 47118  1  0  0  0
 47119  1  0  0  0
 48 56  1  0  0  0
 48 65  1  0  0  0
 48120  1  0  0  0
 49 50  1  0  0  0
 49 53  1  0  0  0
 49 64  1  0  0  0
 49121  1  0  0  0
 50 51  1  0  0  0
 50122  1  0  0  0
 50123  1  0  0  0
 51 52  1  0  0  0
 51124  1  0  0  0
 51125  1  0  0  0
 52126  1  0  0  0
 52127  1  0  0  0
 53 54  1  0  0  0
 54 55  2  0  0  0
 54128  1  0  0  0
 55 57  1  0  0  0
 55129  1  0  0  0
 56 69  2  0  0  0
 57 58  2  0  0  0
 57130  1  0  0  0
 58131  1  0  0  0
 59 60  1  0  0  0
 59 61  1  0  0  0
 59 62  1  0  0  0
 60132  1  0  0  0
 60133  1  0  0  0
 60134  1  0  0  0
 61135  1  0  0  0
 61136  1  0  0  0
 61137  1  0  0  0
 62138  1  0  0  0
 62139  1  0  0  0
 62140  1  0  0  0
 63 65  1  0  0  0
 63141  1  0  0  0
 63142  1  0  0  0
 63143  1  0  0  0
 64144  1  0  0  0
 65145  1  0  0  0
 68 82  1  0  0  0
 71 72  2  0  0  0
 71 74  1  0  0  0
 71146  1  0  0  0
 72 75  1  0  0  0
 72147  1  0  0  0
 73 74  2  0  0  0
 73 76  1  0  0  0
 73148  1  0  0  0
 74 83  1  0  0  0
 75 76  2  0  0  0
 75 84  1  0  0  0
 76 86  1  0  0  0
 77 82  1  0  0  0
 77 83  1  0  0  0
 77 85  2  0  0  0
 78 79  1  0  0  0
 78 80  1  0  0  0
 78149  1  0  0  0
 78150  1  0  0  0
 79 81  1  0  0  0
 79151  1  0  0  0
 79152  1  0  0  0
 80 82  1  0  0  0
 80153  1  0  0  0
 80154  1  0  0  0
 81 83  1  0  0  0
 81155  1  0  0  0
 81156  1  0  0  0
 82157  1  0  0  0
 84158  1  0  0  0
M  ISO  4   1 100  68 101  82 101  84 100
M  END
> <chiral flag>
0

> <version>
0

> <s_m_source_file>
/data/baiqing/PycharmProjects/Reinvent-master-3.2/result/LINK_invent/BTK/process_docking_weight1_custom_product_contain_oxygen_bond_distance_aromatic_linkinvent_7_9_3/rearranged_h_0025.sdf

> <i_m_source_file_index>
83

> <r_mmod_Potential_Energy-OPLS-2005>
641.125305175781

> <r_mmod_Stretch_Energy-OPLS-2005>
241.908248901367

> <r_mmod_Bend_Energy-OPLS-2005>
266.9658203125

> <r_mmod_Torsional_Energy-OPLS-2005>
337.376312255859

> <r_mmod_Improper_Torsional_Energy-OPLS-2005>
9.06484413146973

> <r_mmod_Van_der_Waal_Energy-OPLS-2005>
134.316055297852

> <r_mmod_Electrostatic_Energy-OPLS-2005>
-318.163421630859

> <r_mmod_Solvation_Energy-OPLS-2005>
-218.617538452148

> <b_mmod_Minimization_Converged-OPLS-2005>
0

> <r_mmod_RMS_Derivative-OPLS-2005>
0.742204546928406

$$$$
83
                    3D
 Structure written by MMmdl.
157166  0  0  1  0            999 V2000
  -30.6451  -14.7372   20.4489 C   0  0  0  0  0  0
  -30.4278  -12.4517   19.4479 C   0  0  0  0  0  0
  -29.4970  -12.4668   18.2187 C   0  0  0  0  0  0
  -28.0263  -12.3003   18.6474 C   0  0  0  0  0  0
  -27.6296  -13.2359   19.8220 C   0  0  2  0  0  0
  -28.6834  -13.2071   20.9498 C   0  0  0  0  0  0
  -25.2477  -13.8211   20.5734 C   0  0  0  0  0  0
  -24.1794  -13.0410   20.9207 C   0  0  0  0  0  0
  -24.6378  -11.6904   20.8688 C   0  0  0  0  0  0
  -23.9076  -10.4286   21.0382 C   0  0  0  0  0  0
  -24.3639   -9.4220   21.9166 C   0  0  0  0  0  0
  -23.6314   -8.2264   22.0740 C   0  0  0  0  0  0
  -22.4297   -8.0282   21.3543 C   0  0  0  0  0  0
  -21.9947   -9.0266   20.4665 C   0  0  0  0  0  0
  -22.7255  -10.2138   20.3063 C   0  0  0  0  0  0
  -21.6858   -6.0741   22.5281 C   0  0  0  0  0  0
  -21.4015   -6.5649   23.8211 C   0  0  0  0  0  0
  -21.3654   -5.6811   24.9182 C   0  0  0  0  0  0
  -21.6042   -4.3079   24.7239 C   0  0  0  0  0  0
  -21.8812   -3.8161   23.4366 C   0  0  0  0  0  0
  -21.9217   -4.6970   22.3413 C   0  0  0  0  0  0
  -22.7832  -13.5177   21.1947 C   0  0  0  0  0  0
  -22.1677   -4.2140   21.0993 F   0  0  0  0  0  0
  -21.5619   -3.4581   25.7754 F   0  0  0  0  0  0
  -29.9817  -13.5361   20.3498 N   0  0  0  0  0  0
  -26.2884  -12.9425   20.3233 N   0  0  0  0  0  0
  -25.9306  -11.6536   20.5696 N   0  0  0  0  0  0
  -22.0561  -12.8101   22.0532 N   0  0  0  0  0  0
  -25.4210  -15.1939   20.4196 N   0  0  0  0  0  0
  -31.8553  -14.7909   20.2234 O   0  0  0  0  0  0
  -21.6643   -6.8894   21.4254 O   0  0  0  0  0  0
  -22.3480  -14.5484   20.6836 O   0  0  0  0  0  0
  -24.6337  -31.8472   23.1974 C   0  0  0  0  0  0
  -25.9135  -32.4711   23.8338 C   0  0  1  0  0  0
  -27.2163  -27.2213   20.1309 C   0  0  0  0  0  0
  -25.5905  -33.8538   24.2239 N   0  0  0  0  0  0
  -23.4392  -30.4681   21.5358 C   0  0  2  0  0  0
  -24.8888  -28.9096   20.1108 C   0  0  0  0  0  0
  -22.7543  -29.4534   22.4850 C   0  0  0  0  0  0
  -18.0299  -28.1413   22.8412 C   0  0  0  0  0  0
  -24.1510  -36.7277   23.2649 C   0  0  0  0  0  0
  -25.9899  -30.7412   21.3934 C   0  0  0  0  0  0
  -26.0597  -29.3628   20.7313 C   0  0  0  0  0  0
  -27.2288  -28.5272   20.7367 C   0  0  0  0  0  0
  -26.0294  -26.8631   19.4569 C   0  0  0  0  0  0
  -24.8783  -27.6701   19.4620 C   0  0  0  0  0  0
  -23.6632  -29.7987   20.1563 C   0  0  0  0  0  0
  -25.4120  -36.3056   24.0352 C   0  0  1  0  0  0
  -20.5905  -28.3724   23.1301 C   0  0  2  0  0  0
  -20.6771  -26.9375   22.5571 C   0  0  0  0  0  0
  -19.5878  -26.6314   21.5256 C   0  0  0  0  0  0
  -18.1972  -26.8023   22.1429 C   0  0  0  0  0  0
  -19.1541  -28.8893   23.2839 C   0  0  0  0  0  0
  -18.9458  -30.1496   23.8815 C   0  0  0  0  0  0
  -17.6477  -30.6632   24.0483 C   0  0  0  0  0  0
  -25.9046  -34.9431   23.5107 C   0  0  0  0  0  0
  -16.5373  -29.9082   23.6309 C   0  0  0  0  0  0
  -16.7294  -28.6500   23.0348 C   0  0  0  0  0  0
  -26.4487  -31.6562   25.0753 C   0  0  0  0  0  0
  -25.3708  -31.3754   26.1475 C   0  0  0  0  0  0
  -27.0355  -30.2976   24.6291 C   0  0  0  0  0  0
  -27.6040  -32.4314   25.7502 C   0  0  0  0  0  0
  -27.5578  -37.1789   24.8475 C   0  0  0  0  0  0
  -21.4251  -29.3096   22.3708 N   0  0  0  0  0  0
  -26.4291  -37.3744   23.9411 N   0  0  0  0  0  0
  -24.7050  -31.0404   22.0944 N   0  0  0  0  0  0
  -23.4247  -28.7987   23.2938 O   0  0  0  0  0  0
  -28.2828  -26.2838   20.1668 O   0  0  0  0  0  0
  -26.5644  -34.8895   22.4684 O   0  0  0  0  0  0
  -23.5469  -32.1319   23.7170 O   0  0  0  0  0  0
  -30.9784  -19.8877   21.9120 C   0  0  0  0  0  0
  -29.6404  -18.5130   20.4178 C   0  0  0  0  0  0
  -31.2503  -17.4427   21.8869 C   0  0  0  0  0  0
  -29.9800  -19.8434   20.9081 C   0  0  0  0  0  0
  -31.5954  -18.7124   22.3943 C   0  0  0  0  0  0
  -30.2654  -17.2832   20.8917 C   0  0  0  0  0  0
  -29.3126  -22.3818   20.9685 C   0  0  0  0  0  0
  -28.2274  -22.6215   18.9219 C   0  0  0  0  0  0
  -28.9164  -21.2383   19.0243 C   0  0  0  0  0  0
  -28.8797  -23.5413   19.9784 C   0  0  1  0  0  0
  -27.9771  -24.8225   20.4617 C   0  0  0  0  0  0
  -29.4125  -21.1242   20.3902 N   0  0  0  0  0  0
  -32.5519  -18.8047   23.4085 N   0  0  0  0  0  0
  -29.8936  -15.9047   20.4807 N   0  0  0  0  0  0
  -29.4995  -22.6182   22.1651 O   0  0  0  0  0  0
  -31.4631  -12.5729   19.1261 H   0  0  0  0  0  0
  -30.3846  -11.4904   19.9586 H   0  0  0  0  0  0
  -29.7713  -11.6671   17.5289 H   0  0  0  0  0  0
  -29.6204  -13.3998   17.6636 H   0  0  0  0  0  0
  -27.8969  -11.2590   18.9482 H   0  0  0  0  0  0
  -27.3621  -12.4528   17.7942 H   0  0  0  0  0  0
  -27.6074  -14.2455   19.4017 H   0  0  0  0  0  0
  -28.7170  -12.2274   21.4274 H   0  0  0  0  0  0
  -28.4244  -13.9326   21.7253 H   0  0  0  0  0  0
  -25.2819   -9.5701   22.4711 H   0  0  0  0  0  0
  -24.0035   -7.4680   22.7456 H   0  0  0  0  0  0
  -21.0879   -8.8807   19.8964 H   0  0  0  0  0  0
  -22.3753  -10.9660   19.6172 H   0  0  0  0  0  0
  -21.1976   -7.6174   23.9702 H   0  0  0  0  0  0
  -21.1470   -6.0559   25.9060 H   0  0  0  0  0  0
  -22.0577   -2.7626   23.2882 H   0  0  0  0  0  0
  -22.4162  -11.9687   22.4771 H   0  0  0  0  0  0
  -21.1191  -13.1083   22.2809 H   0  0  0  0  0  0
  -24.6741  -15.8612   20.5737 H   0  0  0  0  0  0
  -26.2949  -15.6378   20.1675 H   0  0  0  0  0  0
  -26.7194  -32.5363   23.1076 H   0  0  0  0  0  0
  -25.0067  -33.9687   25.0398 H   0  0  0  0  0  0
  -22.7389  -31.2884   21.3799 H   0  0  0  0  0  0
  -23.3775  -35.9600   23.3308 H   0  0  0  0  0  0
  -24.3614  -36.8860   22.2054 H   0  0  0  0  0  0
  -23.7250  -37.6488   23.6654 H   0  0  0  0  0  0
  -26.1559  -31.4965   20.6217 H   0  0  0  0  0  0
  -26.8611  -30.7823   22.0352 H   0  0  0  0  0  0
  -28.1233  -28.8520   21.2483 H   0  0  0  0  0  0
  -25.9658  -25.9345   18.9067 H   0  0  0  0  0  0
  -23.9847  -27.3242   18.9607 H   0  0  0  0  0  0
  -23.7997  -30.5681   19.3951 H   0  0  0  0  0  0
  -22.7862  -29.2263   19.8517 H   0  0  0  0  0  0
  -25.1294  -36.1916   25.0844 H   0  0  0  0  0  0
  -20.9971  -28.3402   24.1435 H   0  0  0  0  0  0
  -20.5456  -26.2356   23.3814 H   0  0  0  0  0  0
  -21.6705  -26.7284   22.1602 H   0  0  0  0  0  0
  -19.7030  -25.6162   21.1415 H   0  0  0  0  0  0
  -19.7005  -27.2978   20.6690 H   0  0  0  0  0  0
  -17.4366  -26.6986   21.3664 H   0  0  0  0  0  0
  -18.0054  -26.0073   22.8661 H   0  0  0  0  0  0
  -19.7946  -30.7349   24.2143 H   0  0  0  0  0  0
  -17.5048  -31.6353   24.5035 H   0  0  0  0  0  0
  -15.5391  -30.2978   23.7654 H   0  0  0  0  0  0
  -15.8682  -28.0803   22.7093 H   0  0  0  0  0  0
  -24.5879  -30.7094   25.7839 H   0  0  0  0  0  0
  -24.8924  -32.2958   26.4871 H   0  0  0  0  0  0
  -25.8028  -30.8971   27.0268 H   0  0  0  0  0  0
  -26.2969  -29.6707   24.1276 H   0  0  0  0  0  0
  -27.4002  -29.7254   25.4822 H   0  0  0  0  0  0
  -27.8861  -30.4283   23.9585 H   0  0  0  0  0  0
  -27.2657  -33.3601   26.2098 H   0  0  0  0  0  0
  -28.3828  -32.6860   25.0312 H   0  0  0  0  0  0
  -28.0731  -31.8428   26.5381 H   0  0  0  0  0  0
  -28.2600  -38.0074   24.7482 H   0  0  0  0  0  0
  -28.1053  -36.2602   24.6339 H   0  0  0  0  0  0
  -27.2300  -37.1476   25.8875 H   0  0  0  0  0  0
  -20.9400  -29.9003   21.7095 H   0  0  0  0  0  0
  -26.0185  -38.2825   24.1371 H   0  0  0  0  0  0
  -31.2963  -20.8403   22.3077 H   0  0  0  0  0  0
  -28.8849  -18.4341   19.6524 H   0  0  0  0  0  0
  -31.7291  -16.5664   22.2953 H   0  0  0  0  0  0
  -27.1742  -22.4771   19.1661 H   0  0  0  0  0  0
  -28.2692  -23.0323   17.9156 H   0  0  0  0  0  0
  -29.7656  -21.1659   18.3402 H   0  0  0  0  0  0
  -28.2298  -20.4292   18.7819 H   0  0  0  0  0  0
  -29.8083  -23.9375   19.5676 H   0  0  0  0  0  0
  -26.9694  -24.5857   20.1249 H   0  0  0  0  0  0
  -27.8908  -24.7661   21.5472 H   0  0  0  0  0  0
  -32.4288  -19.5522   24.0834 H   0  0  0  0  0  0
  -32.8433  -17.9442   23.8695 H   0  0  0  0  0  0
  -28.9305  -15.7813   20.2184 H   0  0  0  0  0  0
  1 25  1  0  0  0
  1 30  2  0  0  0
  1 84  1  0  0  0
  2  3  1  0  0  0
  2 25  1  0  0  0
  2 86  1  0  0  0
  2 87  1  0  0  0
  3  4  1  0  0  0
  3 88  1  0  0  0
  3 89  1  0  0  0
  4  5  1  0  0  0
  4 90  1  0  0  0
  4 91  1  0  0  0
  5  6  1  0  0  0
  5 26  1  0  0  0
  5 92  1  0  0  0
  6 25  1  0  0  0
  6 93  1  0  0  0
  6 94  1  0  0  0
  7  8  2  0  0  0
  7 26  1  0  0  0
  7 29  1  0  0  0
  8  9  1  0  0  0
  8 22  1  0  0  0
  9 10  1  0  0  0
  9 27  2  0  0  0
 10 11  2  0  0  0
 10 15  1  0  0  0
 11 12  1  0  0  0
 11 95  1  0  0  0
 12 13  2  0  0  0
 12 96  1  0  0  0
 13 14  1  0  0  0
 13 31  1  0  0  0
 14 15  2  0  0  0
 14 97  1  0  0  0
 15 98  1  0  0  0
 16 17  2  0  0  0
 16 21  1  0  0  0
 16 31  1  0  0  0
 17 18  1  0  0  0
 17 99  1  0  0  0
 18 19  2  0  0  0
 18100  1  0  0  0
 19 20  1  0  0  0
 19 24  1  0  0  0
 20 21  2  0  0  0
 20101  1  0  0  0
 21 23  1  0  0  0
 22 28  1  0  0  0
 22 32  2  0  0  0
 26 27  1  0  0  0
 28102  1  0  0  0
 28103  1  0  0  0
 29104  1  0  0  0
 29105  1  0  0  0
 33 34  1  0  0  0
 33 66  1  0  0  0
 33 70  2  0  0  0
 34 36  1  0  0  0
 34 59  1  0  0  0
 34106  1  0  0  0
 35 44  2  0  0  0
 35 45  1  0  0  0
 35 68  1  0  0  0
 36 56  1  0  0  0
 36107  1  0  0  0
 37 39  1  0  0  0
 37 47  1  0  0  0
 37 66  1  0  0  0
 37108  1  0  0  0
 38 43  2  0  0  0
 38 46  1  0  0  0
 38 47  1  0  0  0
 39 64  1  0  0  0
 39 67  2  0  0  0
 40 52  1  0  0  0
 40 53  2  0  0  0
 40 58  1  0  0  0
 41109  1  0  0  0
 41110  1  0  0  0
 41111  1  0  0  0
 41 48  1  0  0  0
 42 43  1  0  0  0
 42 66  1  0  0  0
 42112  1  0  0  0
 42113  1  0  0  0
 43 44  1  0  0  0
 44114  1  0  0  0
 45 46  2  0  0  0
 45115  1  0  0  0
 46116  1  0  0  0
 47117  1  0  0  0
 47118  1  0  0  0
 48 56  1  0  0  0
 48 65  1  0  0  0
 48119  1  0  0  0
 49 50  1  0  0  0
 49 53  1  0  0  0
 49 64  1  0  0  0
 49120  1  0  0  0
 50 51  1  0  0  0
 50121  1  0  0  0
 50122  1  0  0  0
 51 52  1  0  0  0
 51123  1  0  0  0
 51124  1  0  0  0
 52125  1  0  0  0
 52126  1  0  0  0
 53 54  1  0  0  0
 54 55  2  0  0  0
 54127  1  0  0  0
 55 57  1  0  0  0
 55128  1  0  0  0
 56 69  2  0  0  0
 57 58  2  0  0  0
 57129  1  0  0  0
 58130  1  0  0  0
 59 60  1  0  0  0
 59 61  1  0  0  0
 59 62  1  0  0  0
 60131  1  0  0  0
 60132  1  0  0  0
 60133  1  0  0  0
 61134  1  0  0  0
 61135  1  0  0  0
 61136  1  0  0  0
 62137  1  0  0  0
 62138  1  0  0  0
 62139  1  0  0  0
 63 65  1  0  0  0
 63140  1  0  0  0
 63141  1  0  0  0
 63142  1  0  0  0
 64143  1  0  0  0
 65144  1  0  0  0
 68 81  1  0  0  0
 71 74  2  0  0  0
 71 75  1  0  0  0
 71145  1  0  0  0
 72 74  1  0  0  0
 72 76  2  0  0  0
 72146  1  0  0  0
 73 75  2  0  0  0
 73 76  1  0  0  0
 73147  1  0  0  0
 74 82  1  0  0  0
 75 83  1  0  0  0
 76 84  1  0  0  0
 77 80  1  0  0  0
 77 82  1  0  0  0
 77 85  2  0  0  0
 78 79  1  0  0  0
 78 80  1  0  0  0
 78148  1  0  0  0
 78149  1  0  0  0
 79 82  1  0  0  0
 79150  1  0  0  0
 79151  1  0  0  0
 80 81  1  0  0  0
 80152  1  0  0  0
 81153  1  0  0  0
 81154  1  0  0  0
 83155  1  0  0  0
 83156  1  0  0  0
 84157  1  0  0  0
M  ISO  4   1 100  68 101  81 101  84 100
M  END
> <chiral flag>
0

> <version>
0

> <s_m_source_file>
/data/baiqing/PycharmProjects/Reinvent-master-3.2/result/LINK_invent/BTK/process_docking_weight1_custom_product_contain_oxygen_bond_distance_aromatic_linkinvent_7_9_3/rearranged_h_0025.sdf

> <i_m_source_file_index>
84

> <r_mmod_Potential_Energy-OPLS-2005>
326.711151123047

> <r_mmod_Stretch_Energy-OPLS-2005>
129.95751953125

> <r_mmod_Bend_Energy-OPLS-2005>
196.227188110352

> <r_mmod_Torsional_Energy-OPLS-2005>
297.234527587891

> <r_mmod_Improper_Torsional_Energy-OPLS-2005>
11.9976654052734

> <r_mmod_Van_der_Waal_Energy-OPLS-2005>
139.774978637695

> <r_mmod_Electrostatic_Energy-OPLS-2005>
-311.880645751953

> <r_mmod_Solvation_Energy-OPLS-2005>
-241.535552978516

> <b_mmod_Minimization_Converged-OPLS-2005>
0

> <r_mmod_RMS_Derivative-OPLS-2005>
7.32361936569214

$$$$
84
                    3D
 Structure written by MMmdl.
152160  0  0  1  0            999 V2000
  -30.6137  -14.7378   20.4777 C   0  0  0  0  0  0
  -30.4297  -12.4531   19.4721 C   0  0  0  0  0  0
  -29.5073  -12.5110   18.2349 C   0  0  0  0  0  0
  -28.0339  -12.3348   18.6492 C   0  0  0  0  0  0
  -27.6419  -13.2318   19.8537 C   0  0  2  0  0  0
  -28.6859  -13.1578   20.9896 C   0  0  0  0  0  0
  -25.2507  -13.8198   20.5701 C   0  0  0  0  0  0
  -24.1799  -13.0439   20.9209 C   0  0  0  0  0  0
  -24.6393  -11.6919   20.8752 C   0  0  0  0  0  0
  -23.9070  -10.4294   21.0407 C   0  0  0  0  0  0
  -24.3620   -9.4208   21.9184 C   0  0  0  0  0  0
  -23.6296   -8.2243   22.0755 C   0  0  0  0  0  0
  -22.4278   -8.0282   21.3546 C   0  0  0  0  0  0
  -21.9912   -9.0255   20.4646 C   0  0  0  0  0  0
  -22.7242  -10.2134   20.3056 C   0  0  0  0  0  0
  -21.6853   -6.0737   22.5280 C   0  0  0  0  0  0
  -21.4012   -6.5640   23.8213 C   0  0  0  0  0  0
  -21.3660   -5.6792   24.9176 C   0  0  0  0  0  0
  -21.6042   -4.3055   24.7225 C   0  0  0  0  0  0
  -21.8821   -3.8147   23.4346 C   0  0  0  0  0  0
  -21.9193   -4.6964   22.3403 C   0  0  0  0  0  0
  -22.7820  -13.5223   21.1867 C   0  0  0  0  0  0
  -22.1662   -4.2149   21.0981 F   0  0  0  0  0  0
  -21.5628   -3.4539   25.7738 F   0  0  0  0  0  0
  -29.9871  -13.5128   20.4094 N   0  0  0  0  0  0
  -26.2936  -12.9407   20.3294 N   0  0  0  0  0  0
  -25.9324  -11.6547   20.5756 N   0  0  0  0  0  0
  -22.0468  -12.8211   22.0422 N   0  0  0  0  0  0
  -25.4176  -15.1925   20.4128 N   0  0  0  0  0  0
  -31.7823  -14.8343   20.0951 O   0  0  0  0  0  0
  -21.6642   -6.8879   21.4242 O   0  0  0  0  0  0
  -22.3501  -14.5527   20.6716 O   0  0  0  0  0  0
  -24.6301  -31.8539   23.1959 C   0  0  0  0  0  0
  -25.9127  -32.4746   23.8308 C   0  0  1  0  0  0
  -27.2256  -27.2636   20.1236 C   0  0  0  0  0  0
  -25.5925  -33.8550   24.2236 N   0  0  0  0  0  0
  -23.4265  -30.4744   21.5392 C   0  0  2  0  0  0
  -24.8731  -28.9163   20.1080 C   0  0  0  0  0  0
  -22.7494  -29.4593   22.4915 C   0  0  0  0  0  0
  -18.0290  -28.1385   22.8486 C   0  0  0  0  0  0
  -24.1489  -36.7277   23.2644 C   0  0  0  0  0  0
  -25.9701  -30.7674   21.3733 C   0  0  0  0  0  0
  -26.0418  -29.3891   20.7155 C   0  0  0  0  0  0
  -27.2160  -28.5733   20.7130 C   0  0  0  0  0  0
  -26.0302  -26.8475   19.4986 C   0  0  0  0  0  0
  -24.8720  -27.6539   19.4910 C   0  0  0  0  0  0
  -23.6428  -29.8029   20.1561 C   0  0  0  0  0  0
  -25.4117  -36.3064   24.0326 C   0  0  1  0  0  0
  -20.5891  -28.3689   23.1275 C   0  0  2  0  0  0
  -20.6775  -26.9406   22.5415 C   0  0  0  0  0  0
  -19.5754  -26.6379   21.5216 C   0  0  0  0  0  0
  -18.1932  -26.7930   22.1622 C   0  0  0  0  0  0
  -19.1543  -28.8855   23.2876 C   0  0  0  0  0  0
  -18.9466  -30.1457   23.8892 C   0  0  0  0  0  0
  -17.6465  -30.6587   24.0562 C   0  0  0  0  0  0
  -25.9056  -34.9436   23.5086 C   0  0  0  0  0  0
  -16.5356  -29.9083   23.6334 C   0  0  0  0  0  0
  -16.7276  -28.6502   23.0354 C   0  0  0  0  0  0
  -26.4495  -31.6581   25.0707 C   0  0  0  0  0  0
  -25.3714  -31.3738   26.1428 C   0  0  0  0  0  0
  -27.0351  -30.3000   24.6200 C   0  0  0  0  0  0
  -27.6045  -32.4326   25.7484 C   0  0  0  0  0  0
  -27.5577  -37.1793   24.8467 C   0  0  0  0  0  0
  -21.4202  -29.3038   22.3664 N   0  0  0  0  0  0
  -26.4290  -37.3765   23.9410 N   0  0  0  0  0  0
  -24.6946  -31.0504   22.0927 N   0  0  0  0  0  0
  -23.4199  -28.8148   23.3021 O   0  0  0  0  0  0
  -28.3522  -26.4155   20.2102 O   0  0  0  0  0  0
  -26.5638  -34.8917   22.4661 O   0  0  0  0  0  0
  -23.5455  -32.1359   23.7261 O   0  0  0  0  0  0
  -30.8447  -20.1261   21.1744 C   0  0  0  0  0  0
  -31.7120  -19.1098   21.6150 C   0  0  0  0  0  0
  -29.5852  -19.8193   20.6275 C   0  0  0  0  0  0
  -30.1886  -17.3130   20.8780 C   0  0  0  0  0  0
  -31.3908  -17.7403   21.5133 C   0  0  0  0  0  0
  -29.2837  -18.3919   20.4777 C   0  0  0  0  0  0
  -28.3520  -23.6482   20.4382 C   0  0  0  0  0  0
  -29.0615  -22.3107   19.8405 C   0  0  0  0  0  0
  -28.4660  -25.0427   19.6097 C   0  0  0  0  0  0
  -29.8444  -15.8616   20.7569 N   0  0  0  0  0  0
  -28.6800  -20.9198   20.3330 N   0  0  0  0  0  0
  -32.4783  -16.6559   22.3121 Cl  0  0  0  0  0  0
  -27.7526  -17.9499   19.8051 Cl  0  0  0  0  0  0
  -31.4710  -12.5736   19.1688 H   0  0  0  0  0  0
  -30.3722  -11.4744   19.9510 H   0  0  0  0  0  0
  -29.7884  -11.7395   17.5169 H   0  0  0  0  0  0
  -29.6341  -13.4665   17.7235 H   0  0  0  0  0  0
  -27.8901  -11.2854   18.9090 H   0  0  0  0  0  0
  -27.3756  -12.5293   17.8017 H   0  0  0  0  0  0
  -27.6374  -14.2549   19.4770 H   0  0  0  0  0  0
  -28.7207  -12.1562   21.4207 H   0  0  0  0  0  0
  -28.4203  -13.8312   21.8061 H   0  0  0  0  0  0
  -25.2764   -9.5686   22.4759 H   0  0  0  0  0  0
  -24.0006   -7.4634   22.7474 H   0  0  0  0  0  0
  -21.0843   -8.8773   19.8951 H   0  0  0  0  0  0
  -22.3700  -10.9673   19.6166 H   0  0  0  0  0  0
  -21.2005   -7.6149   23.9717 H   0  0  0  0  0  0
  -21.1479   -6.0523   25.9078 H   0  0  0  0  0  0
  -22.0599   -2.7609   23.2847 H   0  0  0  0  0  0
  -22.4085  -11.9872   22.4806 H   0  0  0  0  0  0
  -21.1087  -13.1235   22.2630 H   0  0  0  0  0  0
  -24.6445  -15.8387   20.5267 H   0  0  0  0  0  0
  -26.2561  -15.6430   20.0702 H   0  0  0  0  0  0
  -26.7194  -32.5389   23.1048 H   0  0  0  0  0  0
  -25.0058  -33.9686   25.0373 H   0  0  0  0  0  0
  -22.7229  -31.2960   21.3912 H   0  0  0  0  0  0
  -23.3756  -35.9604   23.3302 H   0  0  0  0  0  0
  -24.3577  -36.8904   22.2059 H   0  0  0  0  0  0
  -23.7239  -37.6475   23.6671 H   0  0  0  0  0  0
  -26.1081  -31.5280   20.6033 H   0  0  0  0  0  0
  -26.8480  -30.8166   22.0059 H   0  0  0  0  0  0
  -28.1118  -28.9314   21.2005 H   0  0  0  0  0  0
  -25.9540  -25.8736   19.0404 H   0  0  0  0  0  0
  -23.9723  -27.2828   19.0199 H   0  0  0  0  0  0
  -23.7638  -30.5765   19.3968 H   0  0  0  0  0  0
  -22.7610  -29.2338   19.8553 H   0  0  0  0  0  0
  -25.1302  -36.1904   25.0818 H   0  0  0  0  0  0
  -20.9982  -28.3266   24.1394 H   0  0  0  0  0  0
  -20.5670  -26.2299   23.3621 H   0  0  0  0  0  0
  -21.6642  -26.7428   22.1208 H   0  0  0  0  0  0
  -19.6915  -25.6289   21.1245 H   0  0  0  0  0  0
  -19.6692  -27.3191   20.6747 H   0  0  0  0  0  0
  -17.4203  -26.6682   21.4023 H   0  0  0  0  0  0
  -18.0322  -26.0072   22.9016 H   0  0  0  0  0  0
  -19.7944  -30.7274   24.2255 H   0  0  0  0  0  0
  -17.5022  -31.6268   24.5163 H   0  0  0  0  0  0
  -15.5357  -30.2985   23.7665 H   0  0  0  0  0  0
  -15.8675  -28.0822   22.7069 H   0  0  0  0  0  0
  -24.5894  -30.7081   25.7758 H   0  0  0  0  0  0
  -24.8902  -32.2912   26.4826 H   0  0  0  0  0  0
  -25.8028  -30.8935   27.0220 H   0  0  0  0  0  0
  -26.2940  -29.6739   24.1220 H   0  0  0  0  0  0
  -27.4038  -29.7270   25.4718 H   0  0  0  0  0  0
  -27.8808  -30.4284   23.9439 H   0  0  0  0  0  0
  -27.2651  -33.3634   26.2039 H   0  0  0  0  0  0
  -28.3867  -32.6872   25.0320 H   0  0  0  0  0  0
  -28.0701  -31.8468   26.5420 H   0  0  0  0  0  0
  -28.2593  -38.0091   24.7509 H   0  0  0  0  0  0
  -28.1073  -36.2621   24.6294 H   0  0  0  0  0  0
  -27.2296  -37.1440   25.8871 H   0  0  0  0  0  0
  -20.9387  -29.8751   21.6859 H   0  0  0  0  0  0
  -26.0166  -38.2836   24.1412 H   0  0  0  0  0  0
  -31.1424  -21.1516   21.3336 H   0  0  0  0  0  0
  -32.6370  -19.3940   22.0954 H   0  0  0  0  0  0
  -28.7605  -23.8162   21.4348 H   0  0  0  0  0  0
  -27.2917  -23.4478   20.5926 H   0  0  0  0  0  0
  -30.1419  -22.4414   19.9017 H   0  0  0  0  0  0
  -28.8523  -22.2996   18.7695 H   0  0  0  0  0  0
  -27.8562  -24.9687   18.7106 H   0  0  0  0  0  0
  -29.4812  -25.0463   19.2123 H   0  0  0  0  0  0
  -28.8599  -15.6656   20.8406 H   0  0  0  0  0  0
  -27.7648  -20.6043   20.0176 H   0  0  0  0  0  0
  1 25  1  0  0  0
  1 30  2  0  0  0
  1 80  1  0  0  0
  2  3  1  0  0  0
  2 25  1  0  0  0
  2 84  1  0  0  0
  2 85  1  0  0  0
  3  4  1  0  0  0
  3 86  1  0  0  0
  3 87  1  0  0  0
  4  5  1  0  0  0
  4 88  1  0  0  0
  4 89  1  0  0  0
  5  6  1  0  0  0
  5 26  1  0  0  0
  5 90  1  0  0  0
  6 25  1  0  0  0
  6 91  1  0  0  0
  6 92  1  0  0  0
  7  8  2  0  0  0
  7 26  1  0  0  0
  7 29  1  0  0  0
  8  9  1  0  0  0
  8 22  1  0  0  0
  9 10  1  0  0  0
  9 27  2  0  0  0
 10 11  2  0  0  0
 10 15  1  0  0  0
 11 12  1  0  0  0
 11 93  1  0  0  0
 12 13  2  0  0  0
 12 94  1  0  0  0
 13 14  1  0  0  0
 13 31  1  0  0  0
 14 15  2  0  0  0
 14 95  1  0  0  0
 15 96  1  0  0  0
 16 17  2  0  0  0
 16 21  1  0  0  0
 16 31  1  0  0  0
 17 18  1  0  0  0
 17 97  1  0  0  0
 18 19  2  0  0  0
 18 98  1  0  0  0
 19 20  1  0  0  0
 19 24  1  0  0  0
 20 21  2  0  0  0
 20 99  1  0  0  0
 21 23  1  0  0  0
 22 28  1  0  0  0
 22 32  2  0  0  0
 26 27  1  0  0  0
 28100  1  0  0  0
 28101  1  0  0  0
 29102  1  0  0  0
 29103  1  0  0  0
 33 34  1  0  0  0
 33 66  1  0  0  0
 33 70  2  0  0  0
 34 36  1  0  0  0
 34 59  1  0  0  0
 34104  1  0  0  0
 35 44  2  0  0  0
 35 45  1  0  0  0
 35 68  1  0  0  0
 36 56  1  0  0  0
 36105  1  0  0  0
 37 39  1  0  0  0
 37 47  1  0  0  0
 37 66  1  0  0  0
 37106  1  0  0  0
 38 43  2  0  0  0
 38 46  1  0  0  0
 38 47  1  0  0  0
 39 64  1  0  0  0
 39 67  2  0  0  0
 40 52  1  0  0  0
 40 53  2  0  0  0
 40 58  1  0  0  0
 41107  1  0  0  0
 41108  1  0  0  0
 41109  1  0  0  0
 41 48  1  0  0  0
 42 43  1  0  0  0
 42 66  1  0  0  0
 42110  1  0  0  0
 42111  1  0  0  0
 43 44  1  0  0  0
 44112  1  0  0  0
 45 46  2  0  0  0
 45113  1  0  0  0
 46114  1  0  0  0
 47115  1  0  0  0
 47116  1  0  0  0
 48 56  1  0  0  0
 48 65  1  0  0  0
 48117  1  0  0  0
 49 50  1  0  0  0
 49 53  1  0  0  0
 49 64  1  0  0  0
 49118  1  0  0  0
 50 51  1  0  0  0
 50119  1  0  0  0
 50120  1  0  0  0
 51 52  1  0  0  0
 51121  1  0  0  0
 51122  1  0  0  0
 52123  1  0  0  0
 52124  1  0  0  0
 53 54  1  0  0  0
 54 55  2  0  0  0
 54125  1  0  0  0
 55 57  1  0  0  0
 55126  1  0  0  0
 56 69  2  0  0  0
 57 58  2  0  0  0
 57127  1  0  0  0
 58128  1  0  0  0
 59 60  1  0  0  0
 59 61  1  0  0  0
 59 62  1  0  0  0
 60129  1  0  0  0
 60130  1  0  0  0
 60131  1  0  0  0
 61132  1  0  0  0
 61133  1  0  0  0
 61134  1  0  0  0
 62135  1  0  0  0
 62136  1  0  0  0
 62137  1  0  0  0
 63 65  1  0  0  0
 63138  1  0  0  0
 63139  1  0  0  0
 63140  1  0  0  0
 64141  1  0  0  0
 65142  1  0  0  0
 68 79  1  0  0  0
 71 72  2  0  0  0
 71 73  1  0  0  0
 71143  1  0  0  0
 72 75  1  0  0  0
 72144  1  0  0  0
 73 76  2  0  0  0
 73 81  1  0  0  0
 74 75  2  0  0  0
 74 76  1  0  0  0
 74 80  1  0  0  0
 75 82  1  0  0  0
 76 83  1  0  0  0
 77 78  1  0  0  0
 77 79  1  0  0  0
 77145  1  0  0  0
 77146  1  0  0  0
 78 81  1  0  0  0
 78147  1  0  0  0
 78148  1  0  0  0
 79149  1  0  0  0
 79150  1  0  0  0
 80151  1  0  0  0
 81152  1  0  0  0
M  ISO  4   1 100  68 101  79 101  80 100
M  END
> <chiral flag>
0

> <version>
0

> <s_m_source_file>
/data/baiqing/PycharmProjects/Reinvent-master-3.2/result/LINK_invent/BTK/process_docking_weight1_custom_product_contain_oxygen_bond_distance_aromatic_linkinvent_7_9_3/rearranged_h_0025.sdf

> <i_m_source_file_index>
85

> <r_mmod_Potential_Energy-OPLS-2005>
168.112503051758

> <r_mmod_Stretch_Energy-OPLS-2005>
130.043258666992

> <r_mmod_Bend_Energy-OPLS-2005>
189.964767456055

> <r_mmod_Torsional_Energy-OPLS-2005>
216.129852294922

> <r_mmod_Improper_Torsional_Energy-OPLS-2005>
8.0054759979248

> <r_mmod_Van_der_Waal_Energy-OPLS-2005>
140.05517578125

> <r_mmod_Electrostatic_Energy-OPLS-2005>
-382.468902587891

> <r_mmod_Solvation_Energy-OPLS-2005>
-213.106643676758

> <b_mmod_Minimization_Converged-OPLS-2005>
0

> <r_mmod_RMS_Derivative-OPLS-2005>
0.583344280719757

$$$$
85
                    3D
 Structure written by MMmdl.
171180  0  0  1  0            999 V2000
  -30.7823  -14.4919   20.4211 C   0  0  0  0  0  0
  -30.4034  -12.2839   19.4364 C   0  0  0  0  0  0
  -29.4880  -12.4019   18.2055 C   0  0  0  0  0  0
  -28.0060  -12.3503   18.6239 C   0  0  0  0  0  0
  -27.6485  -13.2162   19.8656 C   0  0  2  0  0  0
  -28.7149  -13.1230   20.9767 C   0  0  0  0  0  0
  -25.2607  -13.8195   20.5801 C   0  0  0  0  0  0
  -24.1855  -13.0492   20.9209 C   0  0  0  0  0  0
  -24.6395  -11.6912   20.8712 C   0  0  0  0  0  0
  -23.9056  -10.4298   21.0406 C   0  0  0  0  0  0
  -24.3619   -9.4222   21.9173 C   0  0  0  0  0  0
  -23.6268   -8.2291   22.0781 C   0  0  0  0  0  0
  -22.4252   -8.0308   21.3583 C   0  0  0  0  0  0
  -21.9912   -9.0273   20.4689 C   0  0  0  0  0  0
  -22.7250  -10.2123   20.3070 C   0  0  0  0  0  0
  -21.6898   -6.0728   22.5264 C   0  0  0  0  0  0
  -21.4044   -6.5632   23.8201 C   0  0  0  0  0  0
  -21.3639   -5.6787   24.9157 C   0  0  0  0  0  0
  -21.6015   -4.3064   24.7226 C   0  0  0  0  0  0
  -21.8800   -3.8157   23.4344 C   0  0  0  0  0  0
  -21.9245   -4.6957   22.3392 C   0  0  0  0  0  0
  -22.7874  -13.5260   21.1895 C   0  0  0  0  0  0
  -22.1719   -4.2106   21.0994 F   0  0  0  0  0  0
  -21.5622   -3.4574   25.7766 F   0  0  0  0  0  0
  -30.0263  -13.3618   20.3604 N   0  0  0  0  0  0
  -26.3021  -12.9352   20.3495 N   0  0  0  0  0  0
  -25.9354  -11.6490   20.5820 N   0  0  0  0  0  0
  -22.0579  -12.8182   22.0419 N   0  0  0  0  0  0
  -25.4448  -15.1916   20.4224 N   0  0  0  0  0  0
  -31.9941  -14.4655   20.2067 O   0  0  0  0  0  0
  -21.6679   -6.8873   21.4222 O   0  0  0  0  0  0
  -22.3512  -14.5597   20.6807 O   0  0  0  0  0  0
  -24.6151  -31.8670   23.2128 C   0  0  0  0  0  0
  -25.9038  -32.4840   23.8419 C   0  0  1  0  0  0
  -27.2230  -27.4097   20.1437 C   0  0  0  0  0  0
  -25.5913  -33.8628   24.2346 N   0  0  0  0  0  0
  -23.4062  -30.4920   21.5497 C   0  0  2  0  0  0
  -24.8594  -28.9745   20.1018 C   0  0  0  0  0  0
  -22.7424  -29.4637   22.4964 C   0  0  0  0  0  0
  -18.0273  -28.1375   22.8480 C   0  0  0  0  0  0
  -24.1470  -36.7290   23.2622 C   0  0  0  0  0  0
  -25.9372  -30.8332   21.3712 C   0  0  0  0  0  0
  -26.0165  -29.4725   20.7127 C   0  0  0  0  0  0
  -27.2018  -28.6960   20.7342 C   0  0  0  0  0  0
  -26.0661  -26.9639   19.4613 C   0  0  0  0  0  0
  -24.8839  -27.7276   19.4564 C   0  0  0  0  0  0
  -23.6164  -29.8347   20.1602 C   0  0  0  0  0  0
  -25.4086  -36.3090   24.0342 C   0  0  1  0  0  0
  -20.5863  -28.3661   23.1319 C   0  0  2  0  0  0
  -20.6746  -26.9392   22.5437 C   0  0  0  0  0  0
  -19.5735  -26.6375   21.5217 C   0  0  0  0  0  0
  -18.1904  -26.7933   22.1584 C   0  0  0  0  0  0
  -19.1520  -28.8837   23.2893 C   0  0  0  0  0  0
  -18.9438  -30.1451   23.8899 C   0  0  0  0  0  0
  -17.6439  -30.6588   24.0569 C   0  0  0  0  0  0
  -25.9055  -34.9471   23.5136 C   0  0  0  0  0  0
  -16.5341  -29.9090   23.6337 C   0  0  0  0  0  0
  -16.7263  -28.6501   23.0368 C   0  0  0  0  0  0
  -26.4476  -31.6610   25.0738 C   0  0  0  0  0  0
  -25.3762  -31.3713   26.1497 C   0  0  0  0  0  0
  -27.0304  -30.3034   24.6144 C   0  0  0  0  0  0
  -27.6064  -32.4316   25.7502 C   0  0  0  0  0  0
  -27.5626  -37.1705   24.8388 C   0  0  0  0  0  0
  -21.4152  -29.3012   22.3712 N   0  0  0  0  0  0
  -26.4230  -37.3828   23.9514 N   0  0  0  0  0  0
  -24.6702  -31.0794   22.1011 N   0  0  0  0  0  0
  -23.4184  -28.8181   23.3010 O   0  0  0  0  0  0
  -28.3151  -26.5739   20.3143 O   0  0  0  0  0  0
  -26.5608  -34.8926   22.4691 O   0  0  0  0  0  0
  -23.5325  -32.1431   23.7496 O   0  0  0  0  0  0
  -32.4739  -18.5516   20.8882 C   0  0  0  0  0  0
  -31.9845  -19.0328   22.1110 C   0  0  0  0  0  0
  -31.8312  -17.4720   20.2599 C   0  0  0  0  0  0
  -30.8411  -18.4550   22.7015 C   0  0  0  0  0  0
  -30.7274  -16.8208   20.8715 C   0  0  0  0  0  0
  -30.2211  -17.3288   22.0949 C   0  0  0  0  0  0
  -29.7168  -21.9545   25.2546 C   0  0  0  0  0  0
  -29.4764  -22.9528   24.1170 C   0  0  0  0  0  0
  -28.8217  -20.7147   25.0920 C   0  0  0  0  0  0
  -29.0232  -20.8533   22.6186 C   0  0  0  0  0  0
  -29.5915  -22.3188   22.7106 C   0  0  1  0  0  0
  -29.8177  -15.9435   18.8061 C   0  0  0  0  0  0
  -30.3268  -19.0831   23.9913 C   0  0  0  0  0  0
  -29.2389  -24.5428   21.4860 C   0  0  0  0  0  0
  -28.0383  -25.3332   20.8598 C   0  0  0  0  0  0
  -28.8174  -23.1494   21.7694 N   0  0  0  0  0  0
  -30.1508  -15.6787   20.2194 N   0  0  0  0  0  0
  -29.1431  -19.9886   23.8416 N   0  3  1  0  0  0
  -27.4870  -24.5119   19.9279 F   0  0  0  0  0  0
  -27.1580  -25.4384   21.8916 F   0  0  0  0  0  0
  -28.8362  -16.5950   22.8233 Cl  0  0  0  0  0  0
  -31.4516  -12.3155   19.1259 H   0  0  0  0  0  0
  -30.2626  -11.3195   19.9224 H   0  0  0  0  0  0
  -29.6927  -11.5822   17.5115 H   0  0  0  0  0  0
  -29.7059  -13.3207   17.6647 H   0  0  0  0  0  0
  -27.7775  -11.3033   18.8287 H   0  0  0  0  0  0
  -27.3705  -12.6396   17.7878 H   0  0  0  0  0  0
  -27.6294  -14.2446   19.5307 H   0  0  0  0  0  0
  -28.6962  -12.1386   21.4431 H   0  0  0  0  0  0
  -28.5146  -13.8491   21.7654 H   0  0  0  0  0  0
  -25.2764   -9.5760   22.4737 H   0  0  0  0  0  0
  -24.0015   -7.4713   22.7495 H   0  0  0  0  0  0
  -21.0908   -8.8796   19.8935 H   0  0  0  0  0  0
  -22.3740  -10.9675   19.6199 H   0  0  0  0  0  0
  -21.1999   -7.6143   23.9664 H   0  0  0  0  0  0
  -21.1502   -6.0559   25.9036 H   0  0  0  0  0  0
  -22.0588   -2.7624   23.2909 H   0  0  0  0  0  0
  -22.4284  -11.9740   22.4556 H   0  0  0  0  0  0
  -21.1246  -13.1238   22.2815 H   0  0  0  0  0  0
  -24.7143  -15.8822   20.5512 H   0  0  0  0  0  0
  -26.3322  -15.6075   20.1701 H   0  0  0  0  0  0
  -26.7132  -32.5565   23.1204 H   0  0  0  0  0  0
  -25.0087  -33.9801   25.0513 H   0  0  0  0  0  0
  -22.6920  -31.3071   21.4158 H   0  0  0  0  0  0
  -23.3822  -35.9512   23.3055 H   0  0  0  0  0  0
  -24.3621  -36.9152   22.2083 H   0  0  0  0  0  0
  -23.7067  -37.6357   23.6799 H   0  0  0  0  0  0
  -26.0550  -31.6003   20.6063 H   0  0  0  0  0  0
  -26.8195  -30.8802   21.9957 H   0  0  0  0  0  0
  -28.0799  -29.0577   21.2489 H   0  0  0  0  0  0
  -26.0445  -26.0111   18.9547 H   0  0  0  0  0  0
  -24.0043  -27.3465   18.9564 H   0  0  0  0  0  0
  -23.7197  -30.6153   19.4060 H   0  0  0  0  0  0
  -22.7423  -29.2530   19.8639 H   0  0  0  0  0  0
  -25.1213  -36.1920   25.0824 H   0  0  0  0  0  0
  -20.9948  -28.3237   24.1438 H   0  0  0  0  0  0
  -20.5624  -26.2271   23.3626 H   0  0  0  0  0  0
  -21.6629  -26.7393   22.1270 H   0  0  0  0  0  0
  -19.6896  -25.6283   21.1253 H   0  0  0  0  0  0
  -19.6721  -27.3180   20.6748 H   0  0  0  0  0  0
  -17.4207  -26.6752   21.3951 H   0  0  0  0  0  0
  -18.0225  -26.0071   22.8945 H   0  0  0  0  0  0
  -19.7926  -30.7269   24.2272 H   0  0  0  0  0  0
  -17.5003  -31.6263   24.5174 H   0  0  0  0  0  0
  -15.5348  -30.2988   23.7651 H   0  0  0  0  0  0
  -15.8653  -28.0821   22.7078 H   0  0  0  0  0  0
  -24.5992  -30.6977   25.7865 H   0  0  0  0  0  0
  -24.8889  -32.2857   26.4876 H   0  0  0  0  0  0
  -25.8138  -30.8975   27.0296 H   0  0  0  0  0  0
  -26.2835  -29.6790   24.1220 H   0  0  0  0  0  0
  -27.4071  -29.7271   25.4614 H   0  0  0  0  0  0
  -27.8684  -30.4330   23.9289 H   0  0  0  0  0  0
  -27.2714  -33.3626   26.2083 H   0  0  0  0  0  0
  -28.3866  -32.6852   25.0317 H   0  0  0  0  0  0
  -28.0751  -31.8447   26.5418 H   0  0  0  0  0  0
  -28.2353  -38.0278   24.7897 H   0  0  0  0  0  0
  -28.1409  -36.2869   24.5617 H   0  0  0  0  0  0
  -27.2449  -37.0615   25.8775 H   0  0  0  0  0  0
  -20.9310  -29.8781   21.6985 H   0  0  0  0  0  0
  -26.0087  -38.2825   24.1839 H   0  0  0  0  0  0
  -33.3415  -19.0067   20.4365 H   0  0  0  0  0  0
  -32.4919  -19.8613   22.5887 H   0  0  0  0  0  0
  -32.2248  -17.1140   19.3168 H   0  0  0  0  0  0
  -29.4984  -22.4340   26.2070 H   0  0  0  0  0  0
  -30.7699  -21.6675   25.3012 H   0  0  0  0  0  0
  -30.1885  -23.7731   24.2137 H   0  0  0  0  0  0
  -28.4855  -23.3910   24.2537 H   0  0  0  0  0  0
  -27.7790  -21.0233   25.0567 H   0  0  0  0  0  0
  -28.9078  -20.0520   25.9560 H   0  0  0  0  0  0
  -29.4119  -20.3606   21.7283 H   0  0  0  0  0  0
  -27.9466  -20.9044   22.4409 H   0  0  0  0  0  0
  -30.6421  -22.2848   22.4105 H   0  0  0  0  0  0
  -29.5751  -16.9936   18.6343 H   0  0  0  0  0  0
  -28.9708  -15.3733   18.4490 H   0  0  0  0  0  0
  -30.6533  -15.6920   18.1463 H   0  0  0  0  0  0
  -31.1523  -19.6199   24.4520 H   0  0  0  0  0  0
  -30.0881  -18.2847   24.6994 H   0  0  0  0  0  0
  -29.5515  -25.0421   22.4044 H   0  0  0  0  0  0
  -30.0982  -24.5419   20.8107 H   0  0  0  0  0  0
  -27.8348  -23.1964   22.0364 H   0  0  0  0  0  0
  -28.3886  -19.3240   23.7326 H   0  0  0  0  0  0
  1 25  1  0  0  0
  1 30  2  0  0  0
  1 87  1  0  0  0
  2  3  1  0  0  0
  2 25  1  0  0  0
  2 92  1  0  0  0
  2 93  1  0  0  0
  3  4  1  0  0  0
  3 94  1  0  0  0
  3 95  1  0  0  0
  4  5  1  0  0  0
  4 96  1  0  0  0
  4 97  1  0  0  0
  5  6  1  0  0  0
  5 26  1  0  0  0
  5 98  1  0  0  0
  6 25  1  0  0  0
  6 99  1  0  0  0
  6100  1  0  0  0
  7  8  2  0  0  0
  7 26  1  0  0  0
  7 29  1  0  0  0
  8  9  1  0  0  0
  8 22  1  0  0  0
  9 10  1  0  0  0
  9 27  2  0  0  0
 10 11  2  0  0  0
 10 15  1  0  0  0
 11 12  1  0  0  0
 11101  1  0  0  0
 12 13  2  0  0  0
 12102  1  0  0  0
 13 14  1  0  0  0
 13 31  1  0  0  0
 14 15  2  0  0  0
 14103  1  0  0  0
 15104  1  0  0  0
 16 17  2  0  0  0
 16 21  1  0  0  0
 16 31  1  0  0  0
 17 18  1  0  0  0
 17105  1  0  0  0
 18 19  2  0  0  0
 18106  1  0  0  0
 19 20  1  0  0  0
 19 24  1  0  0  0
 20 21  2  0  0  0
 20107  1  0  0  0
 21 23  1  0  0  0
 22 28  1  0  0  0
 22 32  2  0  0  0
 26 27  1  0  0  0
 28108  1  0  0  0
 28109  1  0  0  0
 29110  1  0  0  0
 29111  1  0  0  0
 33 34  1  0  0  0
 33 66  1  0  0  0
 33 70  2  0  0  0
 34 36  1  0  0  0
 34 59  1  0  0  0
 34112  1  0  0  0
 35 44  2  0  0  0
 35 45  1  0  0  0
 35 68  1  0  0  0
 36 56  1  0  0  0
 36113  1  0  0  0
 37 39  1  0  0  0
 37 47  1  0  0  0
 37 66  1  0  0  0
 37114  1  0  0  0
 38 43  2  0  0  0
 38 46  1  0  0  0
 38 47  1  0  0  0
 39 64  1  0  0  0
 39 67  2  0  0  0
 40 52  1  0  0  0
 40 53  2  0  0  0
 40 58  1  0  0  0
 41115  1  0  0  0
 41116  1  0  0  0
 41117  1  0  0  0
 41 48  1  0  0  0
 42 43  1  0  0  0
 42 66  1  0  0  0
 42118  1  0  0  0
 42119  1  0  0  0
 43 44  1  0  0  0
 44120  1  0  0  0
 45 46  2  0  0  0
 45121  1  0  0  0
 46122  1  0  0  0
 47123  1  0  0  0
 47124  1  0  0  0
 48 56  1  0  0  0
 48 65  1  0  0  0
 48125  1  0  0  0
 49 50  1  0  0  0
 49 53  1  0  0  0
 49 64  1  0  0  0
 49126  1  0  0  0
 50 51  1  0  0  0
 50127  1  0  0  0
 50128  1  0  0  0
 51 52  1  0  0  0
 51129  1  0  0  0
 51130  1  0  0  0
 52131  1  0  0  0
 52132  1  0  0  0
 53 54  1  0  0  0
 54 55  2  0  0  0
 54133  1  0  0  0
 55 57  1  0  0  0
 55134  1  0  0  0
 56 69  2  0  0  0
 57 58  2  0  0  0
 57135  1  0  0  0
 58136  1  0  0  0
 59 60  1  0  0  0
 59 61  1  0  0  0
 59 62  1  0  0  0
 60137  1  0  0  0
 60138  1  0  0  0
 60139  1  0  0  0
 61140  1  0  0  0
 61141  1  0  0  0
 61142  1  0  0  0
 62143  1  0  0  0
 62144  1  0  0  0
 62145  1  0  0  0
 63 65  1  0  0  0
 63146  1  0  0  0
 63147  1  0  0  0
 63148  1  0  0  0
 64149  1  0  0  0
 65150  1  0  0  0
 68 85  1  0  0  0
 71 72  2  0  0  0
 71 73  1  0  0  0
 71151  1  0  0  0
 72 74  1  0  0  0
 72152  1  0  0  0
 73 75  2  0  0  0
 73153  1  0  0  0
 74 76  2  0  0  0
 74 83  1  0  0  0
 75 76  1  0  0  0
 75 87  1  0  0  0
 76 91  1  0  0  0
 77 78  1  0  0  0
 77 79  1  0  0  0
 77154  1  0  0  0
 77155  1  0  0  0
 78 81  1  0  0  0
 78156  1  0  0  0
 78157  1  0  0  0
 79 88  1  0  0  0
 79158  1  0  0  0
 79159  1  0  0  0
 80 81  1  0  0  0
 80 88  1  0  0  0
 80160  1  0  0  0
 80161  1  0  0  0
 81 86  1  0  0  0
 81162  1  0  0  0
 82 87  1  0  0  0
 82163  1  0  0  0
 82164  1  0  0  0
 82165  1  0  0  0
 83166  1  0  0  0
 83167  1  0  0  0
 83 88  1  0  0  0
 84 85  1  0  0  0
 84 86  1  0  0  0
 84168  1  0  0  0
 84169  1  0  0  0
 85 89  1  0  0  0
 85 90  1  0  0  0
 86170  1  0  0  0
 88171  1  0  0  0
M  CHG  1  88   1
M  ISO  4   1 100  68 101  85 101  87 100
M  END
> <chiral flag>
0

> <version>
0

> <s_m_source_file>
/data/baiqing/PycharmProjects/Reinvent-master-3.2/result/LINK_invent/BTK/process_docking_weight1_custom_product_contain_oxygen_bond_distance_aromatic_linkinvent_7_9_3/rearranged_h_0025.sdf

> <i_m_source_file_index>
86

> <r_mmod_Potential_Energy-OPLS-2005>
163.463134765625

> <r_mmod_Stretch_Energy-OPLS-2005>
49.7150993347168

> <r_mmod_Bend_Energy-OPLS-2005>
142.780807495117

> <r_mmod_Torsional_Energy-OPLS-2005>
354.05615234375

> <r_mmod_Improper_Torsional_Energy-OPLS-2005>
19.8325805664062

> <r_mmod_Van_der_Waal_Energy-OPLS-2005>
169.964508056641

> <r_mmod_Electrostatic_Energy-OPLS-2005>
-203.611755371094

> <r_mmod_Solvation_Energy-OPLS-2005>
-418.016448974609

> <b_mmod_Minimization_Converged-OPLS-2005>
0

> <r_mmod_RMS_Derivative-OPLS-2005>
6.91404914855957

$$$$
86
                    3D
 Structure written by MMmdl.
171180  0  0  1  0            999 V2000
  -30.7756  -14.3405   20.6876 C   0  0  0  0  0  0
  -30.4147  -12.2744   19.3930 C   0  0  0  0  0  0
  -29.4816  -12.5212   18.1934 C   0  0  0  0  0  0
  -28.0071  -12.3766   18.6125 C   0  0  0  0  0  0
  -27.6673  -13.1999   19.8822 C   0  0  2  0  0  0
  -28.7039  -12.9328   20.9960 C   0  0  0  0  0  0
  -25.2578  -13.8136   20.5625 C   0  0  0  0  0  0
  -24.1829  -13.0424   20.9134 C   0  0  0  0  0  0
  -24.6386  -11.6892   20.8724 C   0  0  0  0  0  0
  -23.9054  -10.4283   21.0403 C   0  0  0  0  0  0
  -24.3608   -9.4205   21.9184 C   0  0  0  0  0  0
  -23.6285   -8.2241   22.0757 C   0  0  0  0  0  0
  -22.4270   -8.0276   21.3546 C   0  0  0  0  0  0
  -21.9904   -9.0248   20.4646 C   0  0  0  0  0  0
  -22.7229  -10.2126   20.3051 C   0  0  0  0  0  0
  -21.6849   -6.0734   22.5280 C   0  0  0  0  0  0
  -21.4014   -6.5638   23.8213 C   0  0  0  0  0  0
  -21.3657   -5.6792   24.9175 C   0  0  0  0  0  0
  -21.6044   -4.3055   24.7228 C   0  0  0  0  0  0
  -21.8820   -3.8146   23.4347 C   0  0  0  0  0  0
  -21.9193   -4.6961   22.3402 C   0  0  0  0  0  0
  -22.7855  -13.5229   21.1817 C   0  0  0  0  0  0
  -22.1660   -4.2147   21.0980 F   0  0  0  0  0  0
  -21.5629   -3.4536   25.7740 F   0  0  0  0  0  0
  -30.0529  -13.2137   20.4642 N   0  0  0  0  0  0
  -26.3044  -12.9313   20.3394 N   0  0  0  0  0  0
  -25.9316  -11.6473   20.5781 N   0  0  0  0  0  0
  -22.0507  -12.8221   22.0383 N   0  0  0  0  0  0
  -25.4271  -15.1837   20.3982 N   0  0  0  0  0  0
  -31.7873  -14.6326   20.0417 O   0  0  0  0  0  0
  -21.6634   -6.8872   21.4241 O   0  0  0  0  0  0
  -22.3530  -14.5540   20.6681 O   0  0  0  0  0  0
  -24.6071  -31.8721   23.2112 C   0  0  0  0  0  0
  -25.8987  -32.4849   23.8405 C   0  0  1  0  0  0
  -27.2681  -27.4928   20.1095 C   0  0  0  0  0  0
  -25.5860  -33.8643   24.2341 N   0  0  0  0  0  0
  -23.3928  -30.4917   21.5498 C   0  0  2  0  0  0
  -24.8454  -28.9596   20.1189 C   0  0  0  0  0  0
  -22.7370  -29.4667   22.5012 C   0  0  0  0  0  0
  -18.0263  -28.1364   22.8495 C   0  0  0  0  0  0
  -24.1485  -36.7334   23.2640 C   0  0  0  0  0  0
  -25.9087  -30.8646   21.3445 C   0  0  0  0  0  0
  -25.9950  -29.4974   20.7053 C   0  0  0  0  0  0
  -27.2053  -28.7815   20.6923 C   0  0  0  0  0  0
  -26.1002  -26.9641   19.5189 C   0  0  0  0  0  0
  -24.8898  -27.6875   19.5200 C   0  0  0  0  0  0
  -23.6001  -29.8157   20.1658 C   0  0  0  0  0  0
  -25.4098  -36.3132   24.0347 C   0  0  1  0  0  0
  -20.5848  -28.3644   23.1339 C   0  0  2  0  0  0
  -20.6758  -26.9389   22.5423 C   0  0  0  0  0  0
  -19.5741  -26.6381   21.5210 C   0  0  0  0  0  0
  -18.1917  -26.7916   22.1620 C   0  0  0  0  0  0
  -19.1510  -28.8817   23.2920 C   0  0  0  0  0  0
  -18.9447  -30.1427   23.8928 C   0  0  0  0  0  0
  -17.6455  -30.6582   24.0564 C   0  0  0  0  0  0
  -25.9016  -34.9494   23.5145 C   0  0  0  0  0  0
  -16.5344  -29.9093   23.6310 C   0  0  0  0  0  0
  -16.7256  -28.6507   23.0334 C   0  0  0  0  0  0
  -26.4444  -31.6595   25.0697 C   0  0  0  0  0  0
  -25.3735  -31.3670   26.1461 C   0  0  0  0  0  0
  -27.0262  -30.3064   24.5973 C   0  0  0  0  0  0
  -27.6031  -32.4293   25.7465 C   0  0  0  0  0  0
  -27.5577  -37.1824   24.8466 C   0  0  0  0  0  0
  -21.4104  -29.3025   22.3757 N   0  0  0  0  0  0
  -26.4288  -37.3809   23.9410 N   0  0  0  0  0  0
  -24.6546  -31.0887   22.0965 N   0  0  0  0  0  0
  -23.4173  -28.8215   23.3032 O   0  0  0  0  0  0
  -28.4040  -26.7106   20.0522 O   0  0  0  0  0  0
  -26.5595  -34.8938   22.4717 O   0  0  0  0  0  0
  -23.5283  -32.1431   23.7556 O   0  0  0  0  0  0
  -32.0701  -18.4048   21.9623 C   0  0  0  0  0  0
  -31.8835  -17.0156   21.8446 C   0  0  0  0  0  0
  -29.6694  -18.7104   22.1947 C   0  0  0  0  0  0
  -30.9653  -19.2723   22.1205 C   0  0  0  0  0  0
  -30.5815  -16.4707   21.8732 C   0  0  0  0  0  0
  -29.4782  -17.3215   22.0842 C   0  0  0  0  0  0
  -32.2016  -21.2987   21.3723 C   0  0  0  0  0  0
  -31.6225  -22.4824   20.5754 C   0  0  0  0  0  0
  -29.7731  -22.7049   22.2014 C   0  0  0  0  0  0
  -30.3257  -21.5227   23.0293 C   0  0  2  0  0  0
  -31.1008  -21.9788   24.2762 C   0  0  0  0  0  0
  -31.0709  -26.1394   22.6746 C   0  0  0  0  0  0
  -30.3963  -24.6203   20.7249 C   0  0  0  0  0  0
  -29.5372  -27.0214   20.8698 C   0  0  0  0  0  0
  -29.9651  -25.7734   21.6631 C   0  0  2  0  0  0
  -31.1590  -20.6668   22.1824 N   0  0  0  0  0  0
  -30.3401  -15.0867   21.7091 N   0  0  0  0  0  0
  -30.8531  -23.4058   21.4503 N   0  3  2  0  0  0
  -27.8778  -16.6750   22.1728 Cl  0  0  0  0  0  0
  -31.4581  -12.3692   19.0866 H   0  0  0  0  0  0
  -30.3076  -11.2500   19.7535 H   0  0  0  0  0  0
  -29.7107  -11.8214   17.3885 H   0  0  0  0  0  0
  -29.6535  -13.5202   17.7900 H   0  0  0  0  0  0
  -27.8166  -11.3184   18.7965 H   0  0  0  0  0  0
  -27.3509  -12.6632   17.7902 H   0  0  0  0  0  0
  -27.7286  -14.2546   19.6128 H   0  0  0  0  0  0
  -28.6572  -11.8880   21.3077 H   0  0  0  0  0  0
  -28.4481  -13.5050   21.8879 H   0  0  0  0  0  0
  -25.2755   -9.5681   22.4756 H   0  0  0  0  0  0
  -23.9994   -7.4633   22.7476 H   0  0  0  0  0  0
  -21.0838   -8.8762   19.8947 H   0  0  0  0  0  0
  -22.3692  -10.9662   19.6154 H   0  0  0  0  0  0
  -21.2008   -7.6146   23.9716 H   0  0  0  0  0  0
  -21.1477   -6.0521   25.9078 H   0  0  0  0  0  0
  -22.0602   -2.7606   23.2848 H   0  0  0  0  0  0
  -22.4122  -11.9867   22.4743 H   0  0  0  0  0  0
  -21.1132  -13.1251   22.2612 H   0  0  0  0  0  0
  -24.6762  -15.8465   20.5532 H   0  0  0  0  0  0
  -26.3136  -15.6286   20.1978 H   0  0  0  0  0  0
  -26.7071  -32.5607   23.1201 H   0  0  0  0  0  0
  -25.0004  -33.9817   25.0480 H   0  0  0  0  0  0
  -22.6776  -31.3048   21.4087 H   0  0  0  0  0  0
  -23.3738  -35.9677   23.3319 H   0  0  0  0  0  0
  -24.3584  -36.8927   22.2051 H   0  0  0  0  0  0
  -23.7244  -37.6548   23.6640 H   0  0  0  0  0  0
  -25.9934  -31.6256   20.5674 H   0  0  0  0  0  0
  -26.8054  -30.9410   21.9476 H   0  0  0  0  0  0
  -28.0700  -29.2654   21.1172 H   0  0  0  0  0  0
  -26.1317  -25.9864   19.0582 H   0  0  0  0  0  0
  -24.0068  -27.2627   19.0621 H   0  0  0  0  0  0
  -23.7024  -30.5873   19.4019 H   0  0  0  0  0  0
  -22.7290  -29.2263   19.8739 H   0  0  0  0  0  0
  -25.1270  -36.2009   25.0840 H   0  0  0  0  0  0
  -20.9943  -28.3205   24.1455 H   0  0  0  0  0  0
  -20.5655  -26.2255   23.3602 H   0  0  0  0  0  0
  -21.6635  -26.7439   22.1223 H   0  0  0  0  0  0
  -19.6914  -25.6299   21.1225 H   0  0  0  0  0  0
  -19.6685  -27.3203   20.6748 H   0  0  0  0  0  0
  -17.4192  -26.6655   21.4019 H   0  0  0  0  0  0
  -18.0327  -26.0042   22.9001 H   0  0  0  0  0  0
  -19.7926  -30.7226   24.2313 H   0  0  0  0  0  0
  -17.5016  -31.6262   24.5164 H   0  0  0  0  0  0
  -15.5350  -30.3016   23.7609 H   0  0  0  0  0  0
  -15.8651  -28.0848   22.7021 H   0  0  0  0  0  0
  -24.5900  -30.7023   25.7799 H   0  0  0  0  0  0
  -24.8933  -32.2820   26.4947 H   0  0  0  0  0  0
  -25.8109  -30.8815   27.0193 H   0  0  0  0  0  0
  -26.2775  -29.6855   24.1039 H   0  0  0  0  0  0
  -27.4103  -29.7253   25.4365 H   0  0  0  0  0  0
  -27.8567  -30.4433   23.9042 H   0  0  0  0  0  0
  -27.2653  -33.3568   26.2103 H   0  0  0  0  0  0
  -28.3818  -32.6889   25.0282 H   0  0  0  0  0  0
  -28.0722  -31.8374   26.5336 H   0  0  0  0  0  0
  -28.2609  -38.0109   24.7509 H   0  0  0  0  0  0
  -28.1059  -36.2645   24.6294 H   0  0  0  0  0  0
  -27.2308  -37.1483   25.8873 H   0  0  0  0  0  0
  -20.9249  -29.8762   21.7003 H   0  0  0  0  0  0
  -26.0185  -38.2893   24.1402 H   0  0  0  0  0  0
  -33.0785  -18.7909   21.9296 H   0  0  0  0  0  0
  -32.7471  -16.3778   21.7187 H   0  0  0  0  0  0
  -28.7932  -19.3298   22.3014 H   0  0  0  0  0  0
  -33.0078  -21.6378   22.0244 H   0  0  0  0  0  0
  -32.6482  -20.5966   20.6667 H   0  0  0  0  0  0
  -30.9713  -22.1094   19.7836 H   0  0  0  0  0  0
  -32.4377  -23.0149   20.0826 H   0  0  0  0  0  0
  -29.2456  -23.3845   22.8685 H   0  0  0  0  0  0
  -29.0294  -22.3379   21.4920 H   0  0  0  0  0  0
  -29.4657  -20.9717   23.4072 H   0  0  0  0  0  0
  -31.9754  -22.5811   24.0323 H   0  0  0  0  0  0
  -31.4456  -21.1195   24.8533 H   0  0  0  0  0  0
  -30.4656  -22.5720   24.9350 H   0  0  0  0  0  0
  -31.3137  -25.3076   23.3364 H   0  0  0  0  0  0
  -30.7575  -26.9635   23.3173 H   0  0  0  0  0  0
  -31.9882  -26.4490   22.1716 H   0  0  0  0  0  0
  -31.2061  -24.9821   20.0888 H   0  0  0  0  0  0
  -29.5815  -24.3506   20.0509 H   0  0  0  0  0  0
  -30.3487  -27.3764   20.2331 H   0  0  0  0  0  0
  -29.3585  -27.7985   21.6067 H   0  0  0  0  0  0
  -29.0874  -25.4663   22.2314 H   0  0  0  0  0  0
  -29.5001  -14.7383   22.1460 H   0  0  0  0  0  0
  -31.5137  -23.7231   22.1417 H   0  0  0  0  0  0
  1 25  1  0  0  0
  1 30  2  0  0  0
  1 87  1  0  0  0
  2  3  1  0  0  0
  2 25  1  0  0  0
  2 90  1  0  0  0
  2 91  1  0  0  0
  3  4  1  0  0  0
  3 92  1  0  0  0
  3 93  1  0  0  0
  4  5  1  0  0  0
  4 94  1  0  0  0
  4 95  1  0  0  0
  5  6  1  0  0  0
  5 26  1  0  0  0
  5 96  1  0  0  0
  6 25  1  0  0  0
  6 97  1  0  0  0
  6 98  1  0  0  0
  7  8  2  0  0  0
  7 26  1  0  0  0
  7 29  1  0  0  0
  8  9  1  0  0  0
  8 22  1  0  0  0
  9 10  1  0  0  0
  9 27  2  0  0  0
 10 11  2  0  0  0
 10 15  1  0  0  0
 11 12  1  0  0  0
 11 99  1  0  0  0
 12 13  2  0  0  0
 12100  1  0  0  0
 13 14  1  0  0  0
 13 31  1  0  0  0
 14 15  2  0  0  0
 14101  1  0  0  0
 15102  1  0  0  0
 16 17  2  0  0  0
 16 21  1  0  0  0
 16 31  1  0  0  0
 17 18  1  0  0  0
 17103  1  0  0  0
 18 19  2  0  0  0
 18104  1  0  0  0
 19 20  1  0  0  0
 19 24  1  0  0  0
 20 21  2  0  0  0
 20105  1  0  0  0
 21 23  1  0  0  0
 22 28  1  0  0  0
 22 32  2  0  0  0
 26 27  1  0  0  0
 28106  1  0  0  0
 28107  1  0  0  0
 29108  1  0  0  0
 29109  1  0  0  0
 33 34  1  0  0  0
 33 66  1  0  0  0
 33 70  2  0  0  0
 34 36  1  0  0  0
 34 59  1  0  0  0
 34110  1  0  0  0
 35 44  2  0  0  0
 35 45  1  0  0  0
 35 68  1  0  0  0
 36 56  1  0  0  0
 36111  1  0  0  0
 37 39  1  0  0  0
 37 47  1  0  0  0
 37 66  1  0  0  0
 37112  1  0  0  0
 38 43  2  0  0  0
 38 46  1  0  0  0
 38 47  1  0  0  0
 39 64  1  0  0  0
 39 67  2  0  0  0
 40 52  1  0  0  0
 40 53  2  0  0  0
 40 58  1  0  0  0
 41113  1  0  0  0
 41114  1  0  0  0
 41115  1  0  0  0
 41 48  1  0  0  0
 42 43  1  0  0  0
 42 66  1  0  0  0
 42116  1  0  0  0
 42117  1  0  0  0
 43 44  1  0  0  0
 44118  1  0  0  0
 45 46  2  0  0  0
 45119  1  0  0  0
 46120  1  0  0  0
 47121  1  0  0  0
 47122  1  0  0  0
 48 56  1  0  0  0
 48 65  1  0  0  0
 48123  1  0  0  0
 49 50  1  0  0  0
 49 53  1  0  0  0
 49 64  1  0  0  0
 49124  1  0  0  0
 50 51  1  0  0  0
 50125  1  0  0  0
 50126  1  0  0  0
 51 52  1  0  0  0
 51127  1  0  0  0
 51128  1  0  0  0
 52129  1  0  0  0
 52130  1  0  0  0
 53 54  1  0  0  0
 54 55  2  0  0  0
 54131  1  0  0  0
 55 57  1  0  0  0
 55132  1  0  0  0
 56 69  2  0  0  0
 57 58  2  0  0  0
 57133  1  0  0  0
 58134  1  0  0  0
 59 60  1  0  0  0
 59 61  1  0  0  0
 59 62  1  0  0  0
 60135  1  0  0  0
 60136  1  0  0  0
 60137  1  0  0  0
 61138  1  0  0  0
 61139  1  0  0  0
 61140  1  0  0  0
 62141  1  0  0  0
 62142  1  0  0  0
 62143  1  0  0  0
 63 65  1  0  0  0
 63144  1  0  0  0
 63145  1  0  0  0
 63146  1  0  0  0
 64147  1  0  0  0
 65148  1  0  0  0
 68 84  1  0  0  0
 71 72  2  0  0  0
 71 74  1  0  0  0
 71149  1  0  0  0
 72 75  1  0  0  0
 72150  1  0  0  0
 73 74  2  0  0  0
 73 76  1  0  0  0
 73151  1  0  0  0
 74 86  1  0  0  0
 75 76  2  0  0  0
 75 87  1  0  0  0
 76 89  1  0  0  0
 77 78  1  0  0  0
 77 86  1  0  0  0
 77152  1  0  0  0
 77153  1  0  0  0
 78 88  1  0  0  0
 78154  1  0  0  0
 78155  1  0  0  0
 79 80  1  0  0  0
 79 88  1  0  0  0
 79156  1  0  0  0
 79157  1  0  0  0
 80 81  1  0  0  0
 80 86  1  0  0  0
 80158  1  0  0  0
 81159  1  0  0  0
 81160  1  0  0  0
 81161  1  0  0  0
 82162  1  0  0  0
 82163  1  0  0  0
 82164  1  0  0  0
 82 85  1  0  0  0
 83 85  1  0  0  0
 83165  1  0  0  0
 83166  1  0  0  0
 83 88  1  0  0  0
 84 85  1  0  0  0
 84167  1  0  0  0
 84168  1  0  0  0
 85169  1  0  0  0
 87170  1  0  0  0
 88171  1  0  0  0
M  CHG  1  88   1
M  ISO  4   1 100  68 101  84 101  87 100
M  END
> <chiral flag>
0

> <version>
0

> <s_m_source_file>
/data/baiqing/PycharmProjects/Reinvent-master-3.2/result/LINK_invent/BTK/process_docking_weight1_custom_product_contain_oxygen_bond_distance_aromatic_linkinvent_7_9_3/rearranged_h_0025.sdf

> <i_m_source_file_index>
87

> <r_mmod_Potential_Energy-OPLS-2005>
-117.187004089355

> <r_mmod_Stretch_Energy-OPLS-2005>
35.0377235412598

> <r_mmod_Bend_Energy-OPLS-2005>
119.614952087402

> <r_mmod_Torsional_Energy-OPLS-2005>
297.617828369141

> <r_mmod_Improper_Torsional_Energy-OPLS-2005>
3.66705656051636

> <r_mmod_Van_der_Waal_Energy-OPLS-2005>
171.157073974609

> <r_mmod_Electrostatic_Energy-OPLS-2005>
-336.020080566406

> <r_mmod_Solvation_Energy-OPLS-2005>
-413.909881591797

> <b_mmod_Minimization_Converged-OPLS-2005>
0

> <r_mmod_RMS_Derivative-OPLS-2005>
0.85018789768219

$$$$
87
                    3D
 Structure written by MMmdl.
148156  0  0  1  0            999 V2000
  -30.4091  -15.2521   20.3822 C   0  0  0  0  0  0
  -30.4489  -12.7951   19.5329 C   0  0  0  0  0  0
  -29.5411  -12.5821   18.2931 C   0  0  0  0  0  0
  -28.0882  -12.3034   18.7174 C   0  0  0  0  0  0
  -27.6187  -13.2694   19.8328 C   0  0  2  0  0  0
  -28.6518  -13.4141   20.9714 C   0  0  0  0  0  0
  -25.2416  -13.8240   20.5729 C   0  0  0  0  0  0
  -24.1758  -13.0441   20.9250 C   0  0  0  0  0  0
  -24.6404  -11.6934   20.8764 C   0  0  0  0  0  0
  -23.9089  -10.4298   21.0412 C   0  0  0  0  0  0
  -24.3633   -9.4211   21.9189 C   0  0  0  0  0  0
  -23.6305   -8.2246   22.0757 C   0  0  0  0  0  0
  -22.4286   -8.0286   21.3546 C   0  0  0  0  0  0
  -21.9926   -9.0261   20.4645 C   0  0  0  0  0  0
  -22.7260  -10.2139   20.3059 C   0  0  0  0  0  0
  -21.6855   -6.0739   22.5281 C   0  0  0  0  0  0
  -21.4014   -6.5642   23.8214 C   0  0  0  0  0  0
  -21.3661   -5.6793   24.9175 C   0  0  0  0  0  0
  -21.6043   -4.3056   24.7224 C   0  0  0  0  0  0
  -21.8819   -3.8150   23.4345 C   0  0  0  0  0  0
  -21.9193   -4.6966   22.3401 C   0  0  0  0  0  0
  -22.7774  -13.5201   21.1898 C   0  0  0  0  0  0
  -22.1663   -4.2153   21.0979 F   0  0  0  0  0  0
  -21.5631   -3.4540   25.7737 F   0  0  0  0  0  0
  -29.8912  -13.9257   20.3615 N   0  0  0  0  0  0
  -26.2845  -12.9501   20.3236 N   0  0  0  0  0  0
  -25.9342  -11.6614   20.5733 N   0  0  0  0  0  0
  -22.0429  -12.8183   22.0450 N   0  0  0  0  0  0
  -25.4062  -15.1973   20.4138 N   0  0  0  0  0  0
  -31.6169  -15.3099   20.1064 O   0  0  0  0  0  0
  -21.6645   -6.8886   21.4245 O   0  0  0  0  0  0
  -22.3459  -14.5509   20.6744 O   0  0  0  0  0  0
  -24.6623  -31.8249   23.1736 C   0  0  0  0  0  0
  -25.9307  -32.4599   23.8190 C   0  0  1  0  0  0
  -27.2159  -26.9282   20.1856 C   0  0  0  0  0  0
  -25.5981  -33.8414   24.2088 N   0  0  0  0  0  0
  -23.4788  -30.4381   21.5216 C   0  0  2  0  0  0
  -24.9352  -28.8311   20.1133 C   0  0  0  0  0  0
  -22.7670  -29.4452   22.4778 C   0  0  0  0  0  0
  -18.0327  -28.1424   22.8472 C   0  0  0  0  0  0
  -24.1490  -36.7208   23.2644 C   0  0  0  0  0  0
  -26.0491  -30.6292   21.4099 C   0  0  0  0  0  0
  -26.1176  -29.2187   20.7564 C   0  0  0  0  0  0
  -27.2526  -28.2860   20.7769 C   0  0  0  0  0  0
  -26.0139  -26.7125   19.4705 C   0  0  0  0  0  0
  -24.9081  -27.5969   19.4496 C   0  0  0  0  0  0
  -23.7217  -29.7581   20.1474 C   0  0  0  0  0  0
  -25.4134  -36.2978   24.0297 C   0  0  1  0  0  0
  -20.5951  -28.3770   23.1183 C   0  0  2  0  0  0
  -20.6807  -26.9451   22.5402 C   0  0  0  0  0  0
  -19.5777  -26.6391   21.5220 C   0  0  0  0  0  0
  -18.1962  -26.7959   22.1628 C   0  0  0  0  0  0
  -19.1590  -28.8920   23.2814 C   0  0  0  0  0  0
  -18.9501  -30.1506   23.8857 C   0  0  0  0  0  0
  -17.6496  -30.6613   24.0568 C   0  0  0  0  0  0
  -25.9097  -34.9357   23.5015 C   0  0  0  0  0  0
  -16.5384  -29.9103   23.6352 C   0  0  0  0  0  0
  -16.7310  -28.6523   23.0371 C   0  0  0  0  0  0
  -26.4560  -31.6546   25.0719 C   0  0  0  0  0  0
  -25.3684  -31.3802   26.1375 C   0  0  0  0  0  0
  -27.0459  -30.2914   24.6458 C   0  0  0  0  0  0
  -27.6059  -32.4346   25.7515 C   0  0  0  0  0  0
  -27.5568  -37.1764   24.8468 C   0  0  0  0  0  0
  -21.4341  -29.3054   22.3520 N   0  0  0  0  0  0
  -26.4280  -37.3714   23.9404 N   0  0  0  0  0  0
  -24.7512  -30.9908   22.0882 N   0  0  0  0  0  0
  -23.4215  -28.8017   23.3021 O   0  0  0  0  0  0
  -28.1734  -25.7766   20.2403 O   0  0  0  0  0  0
  -26.5703  -34.8894   22.4608 O   0  0  0  0  0  0
  -23.5688  -32.1218   23.6822 O   0  0  0  0  0  0
  -28.4323  -18.7817   21.2774 C   0  0  0  0  0  0
  -30.0942  -19.1504   19.7623 C   0  0  0  0  0  0
  -28.6775  -21.3060   20.4784 C   0  0  0  0  0  0
  -28.0916  -20.2244   21.2823 C   0  0  0  0  0  0
  -29.4457  -18.0714   20.5230 C   0  0  0  0  0  0
  -29.7513  -20.6207   19.7376 C   0  0  0  0  0  0
  -27.9629  -22.8671   20.5019 C   0  0  0  0  0  0
  -27.7057  -24.3340   20.4217 C   0  0  0  0  0  0
  -26.9726  -20.5974   22.2460 C   0  0  0  0  0  0
  -29.5571  -16.4472   20.5750 N   0  0  0  0  0  0
  -30.4787  -21.3902   18.8927 F   0  0  0  0  0  0
  -31.4672  -13.0080   19.2047 H   0  0  0  0  0  0
  -30.5190  -11.8795   20.1229 H   0  0  0  0  0  0
  -29.9180  -11.7622   17.6804 H   0  0  0  0  0  0
  -29.5720  -13.4737   17.6651 H   0  0  0  0  0  0
  -28.0427  -11.2768   19.0825 H   0  0  0  0  0  0
  -27.4200  -12.3528   17.8570 H   0  0  0  0  0  0
  -27.5444  -14.2433   19.3482 H   0  0  0  0  0  0
  -28.8127  -12.4662   21.4868 H   0  0  0  0  0  0
  -28.2929  -14.1162   21.7253 H   0  0  0  0  0  0
  -25.2772   -9.5688   22.4776 H   0  0  0  0  0  0
  -24.0010   -7.4636   22.7478 H   0  0  0  0  0  0
  -21.0857   -8.8780   19.8952 H   0  0  0  0  0  0
  -22.3714  -10.9680   19.6175 H   0  0  0  0  0  0
  -21.2007   -7.6150   23.9718 H   0  0  0  0  0  0
  -21.1484   -6.0523   25.9077 H   0  0  0  0  0  0
  -22.0597   -2.7612   23.2842 H   0  0  0  0  0  0
  -22.4047  -11.9839   22.4824 H   0  0  0  0  0  0
  -21.1051  -13.1209   22.2674 H   0  0  0  0  0  0
  -24.6292  -15.8427   20.5066 H   0  0  0  0  0  0
  -26.2350  -15.6314   20.0297 H   0  0  0  0  0  0
  -26.7372  -32.5142   23.0902 H   0  0  0  0  0  0
  -25.0088  -33.9493   25.0212 H   0  0  0  0  0  0
  -22.7913  -31.2693   21.3512 H   0  0  0  0  0  0
  -23.3767  -35.9524   23.3291 H   0  0  0  0  0  0
  -24.3558  -36.8872   22.2061 H   0  0  0  0  0  0
  -23.7236  -37.6388   23.6709 H   0  0  0  0  0  0
  -26.2306  -31.3685   20.6284 H   0  0  0  0  0  0
  -26.9081  -30.6870   22.0661 H   0  0  0  0  0  0
  -28.1423  -28.5750   21.3182 H   0  0  0  0  0  0
  -25.8918  -25.7761   18.9460 H   0  0  0  0  0  0
  -24.0154  -27.2978   18.9181 H   0  0  0  0  0  0
  -23.8806  -30.5283   19.3917 H   0  0  0  0  0  0
  -22.8318  -29.2138   19.8262 H   0  0  0  0  0  0
  -25.1331  -36.1780   25.0787 H   0  0  0  0  0  0
  -21.0046  -28.3396   24.1304 H   0  0  0  0  0  0
  -20.5714  -26.2386   23.3644 H   0  0  0  0  0  0
  -21.6666  -26.7441   22.1195 H   0  0  0  0  0  0
  -19.6935  -25.6291   21.1282 H   0  0  0  0  0  0
  -19.6724  -27.3173   20.6730 H   0  0  0  0  0  0
  -17.4229  -26.6707   21.4033 H   0  0  0  0  0  0
  -18.0360  -26.0110   22.9034 H   0  0  0  0  0  0
  -19.7974  -30.7337   24.2209 H   0  0  0  0  0  0
  -17.5048  -31.6290   24.5175 H   0  0  0  0  0  0
  -15.5384  -30.2998   23.7701 H   0  0  0  0  0  0
  -15.8707  -28.0830   22.7115 H   0  0  0  0  0  0
  -24.5877  -30.7137   25.7689 H   0  0  0  0  0  0
  -24.8855  -32.3003   26.4674 H   0  0  0  0  0  0
  -25.7908  -30.9056   27.0239 H   0  0  0  0  0  0
  -26.3137  -29.6588   24.1431 H   0  0  0  0  0  0
  -27.3956  -29.7283   25.5119 H   0  0  0  0  0  0
  -27.9093  -30.4098   23.9909 H   0  0  0  0  0  0
  -27.2649  -33.3697   26.1969 H   0  0  0  0  0  0
  -28.3943  -32.6820   25.0394 H   0  0  0  0  0  0
  -28.0649  -31.8549   26.5534 H   0  0  0  0  0  0
  -28.2579  -38.0065   24.7510 H   0  0  0  0  0  0
  -28.1071  -36.2593   24.6310 H   0  0  0  0  0  0
  -27.2277  -37.1430   25.8867 H   0  0  0  0  0  0
  -20.9597  -29.8736   21.6643 H   0  0  0  0  0  0
  -26.0132  -38.2770   24.1422 H   0  0  0  0  0  0
  -27.8335  -18.1541   21.9234 H   0  0  0  0  0  0
  -30.8941  -18.8469   19.1035 H   0  0  0  0  0  0
  -26.9422  -22.5537   20.6537 H   0  0  0  0  0  0
  -26.6520  -24.4764   20.6227 H   0  0  0  0  0  0
  -26.7846  -19.8113   22.9778 H   0  0  0  0  0  0
  -26.0402  -20.7727   21.7084 H   0  0  0  0  0  0
  -27.2259  -21.4973   22.8078 H   0  0  0  0  0  0
  -28.6699  -16.0756   20.8802 H   0  0  0  0  0  0
  1 25  1  0  0  0
  1 30  2  0  0  0
  1 80  1  0  0  0
  2  3  1  0  0  0
  2 25  1  0  0  0
  2 82  1  0  0  0
  2 83  1  0  0  0
  3  4  1  0  0  0
  3 84  1  0  0  0
  3 85  1  0  0  0
  4  5  1  0  0  0
  4 86  1  0  0  0
  4 87  1  0  0  0
  5  6  1  0  0  0
  5 26  1  0  0  0
  5 88  1  0  0  0
  6 25  1  0  0  0
  6 89  1  0  0  0
  6 90  1  0  0  0
  7  8  2  0  0  0
  7 26  1  0  0  0
  7 29  1  0  0  0
  8  9  1  0  0  0
  8 22  1  0  0  0
  9 10  1  0  0  0
  9 27  2  0  0  0
 10 11  2  0  0  0
 10 15  1  0  0  0
 11 12  1  0  0  0
 11 91  1  0  0  0
 12 13  2  0  0  0
 12 92  1  0  0  0
 13 14  1  0  0  0
 13 31  1  0  0  0
 14 15  2  0  0  0
 14 93  1  0  0  0
 15 94  1  0  0  0
 16 17  2  0  0  0
 16 21  1  0  0  0
 16 31  1  0  0  0
 17 18  1  0  0  0
 17 95  1  0  0  0
 18 19  2  0  0  0
 18 96  1  0  0  0
 19 20  1  0  0  0
 19 24  1  0  0  0
 20 21  2  0  0  0
 20 97  1  0  0  0
 21 23  1  0  0  0
 22 28  1  0  0  0
 22 32  2  0  0  0
 26 27  1  0  0  0
 28 98  1  0  0  0
 28 99  1  0  0  0
 29100  1  0  0  0
 29101  1  0  0  0
 33 34  1  0  0  0
 33 66  1  0  0  0
 33 70  2  0  0  0
 34 36  1  0  0  0
 34 59  1  0  0  0
 34102  1  0  0  0
 35 44  2  0  0  0
 35 45  1  0  0  0
 35 68  1  0  0  0
 36 56  1  0  0  0
 36103  1  0  0  0
 37 39  1  0  0  0
 37 47  1  0  0  0
 37 66  1  0  0  0
 37104  1  0  0  0
 38 43  2  0  0  0
 38 46  1  0  0  0
 38 47  1  0  0  0
 39 64  1  0  0  0
 39 67  2  0  0  0
 40 52  1  0  0  0
 40 53  2  0  0  0
 40 58  1  0  0  0
 41105  1  0  0  0
 41106  1  0  0  0
 41107  1  0  0  0
 41 48  1  0  0  0
 42 43  1  0  0  0
 42 66  1  0  0  0
 42108  1  0  0  0
 42109  1  0  0  0
 43 44  1  0  0  0
 44110  1  0  0  0
 45 46  2  0  0  0
 45111  1  0  0  0
 46112  1  0  0  0
 47113  1  0  0  0
 47114  1  0  0  0
 48 56  1  0  0  0
 48 65  1  0  0  0
 48115  1  0  0  0
 49 50  1  0  0  0
 49 53  1  0  0  0
 49 64  1  0  0  0
 49116  1  0  0  0
 50 51  1  0  0  0
 50117  1  0  0  0
 50118  1  0  0  0
 51 52  1  0  0  0
 51119  1  0  0  0
 51120  1  0  0  0
 52121  1  0  0  0
 52122  1  0  0  0
 53 54  1  0  0  0
 54 55  2  0  0  0
 54123  1  0  0  0
 55 57  1  0  0  0
 55124  1  0  0  0
 56 69  2  0  0  0
 57 58  2  0  0  0
 57125  1  0  0  0
 58126  1  0  0  0
 59 60  1  0  0  0
 59 61  1  0  0  0
 59 62  1  0  0  0
 60127  1  0  0  0
 60128  1  0  0  0
 60129  1  0  0  0
 61130  1  0  0  0
 61131  1  0  0  0
 61132  1  0  0  0
 62133  1  0  0  0
 62134  1  0  0  0
 62135  1  0  0  0
 63 65  1  0  0  0
 63136  1  0  0  0
 63137  1  0  0  0
 63138  1  0  0  0
 64139  1  0  0  0
 65140  1  0  0  0
 68 78  1  0  0  0
 71 74  2  0  0  0
 71 75  1  0  0  0
 71141  1  0  0  0
 72 75  2  0  0  0
 72 76  1  0  0  0
 72142  1  0  0  0
 73 74  1  0  0  0
 73 76  2  0  0  0
 73 77  1  0  0  0
 74 79  1  0  0  0
 75 80  1  0  0  0
 76 81  1  0  0  0
 77 78  2  0  0  0
 77143  1  0  0  0
 78144  1  0  0  0
 79145  1  0  0  0
 79146  1  0  0  0
 79147  1  0  0  0
 80148  1  0  0  0
M  ISO  4   1 100  68 101  78 101  80 100
M  END
> <chiral flag>
0

> <version>
0

> <s_m_source_file>
/data/baiqing/PycharmProjects/Reinvent-master-3.2/result/LINK_invent/BTK/process_docking_weight1_custom_product_contain_oxygen_bond_distance_aromatic_linkinvent_7_9_3/rearranged_h_0025.sdf

> <i_m_source_file_index>
88

> <r_mmod_Potential_Energy-OPLS-2005>
1431.51135253906

> <r_mmod_Stretch_Energy-OPLS-2005>
498.057891845703

> <r_mmod_Bend_Energy-OPLS-2005>
635.763732910156

> <r_mmod_Torsional_Energy-OPLS-2005>
229.963668823242

> <r_mmod_Improper_Torsional_Energy-OPLS-2005>
4.14607572555542

> <r_mmod_Van_der_Waal_Energy-OPLS-2005>
141.414520263672

> <r_mmod_Electrostatic_Energy-OPLS-2005>
-328.062194824219

> <r_mmod_Solvation_Energy-OPLS-2005>
-210.683898925781

> <b_mmod_Minimization_Converged-OPLS-2005>
0

> <r_mmod_RMS_Derivative-OPLS-2005>
0.915713727474213

$$$$
88
                    3D
 Structure written by MMmdl.
159168  0  0  1  0            999 V2000
  -30.5147  -14.9050   20.4412 C   0  0  0  0  0  0
  -30.4547  -12.5578   19.4906 C   0  0  0  0  0  0
  -29.5258  -12.5313   18.2523 C   0  0  0  0  0  0
  -28.0556  -12.3219   18.6670 C   0  0  0  0  0  0
  -27.6397  -13.2364   19.8482 C   0  0  2  0  0  0
  -28.6839  -13.2096   20.9861 C   0  0  0  0  0  0
  -25.2506  -13.8193   20.5692 C   0  0  0  0  0  0
  -24.1809  -13.0435   20.9224 C   0  0  0  0  0  0
  -24.6405  -11.6914   20.8756 C   0  0  0  0  0  0
  -23.9079  -10.4291   21.0414 C   0  0  0  0  0  0
  -24.3624   -9.4204   21.9191 C   0  0  0  0  0  0
  -23.6294   -8.2242   22.0757 C   0  0  0  0  0  0
  -22.4277   -8.0285   21.3547 C   0  0  0  0  0  0
  -21.9916   -9.0260   20.4652 C   0  0  0  0  0  0
  -22.7251  -10.2136   20.3064 C   0  0  0  0  0  0
  -21.6853   -6.0738   22.5281 C   0  0  0  0  0  0
  -21.4015   -6.5642   23.8215 C   0  0  0  0  0  0
  -21.3657   -5.6794   24.9176 C   0  0  0  0  0  0
  -21.6044   -4.3057   24.7225 C   0  0  0  0  0  0
  -21.8818   -3.8149   23.4346 C   0  0  0  0  0  0
  -21.9190   -4.6966   22.3403 C   0  0  0  0  0  0
  -22.7828  -13.5216   21.1876 C   0  0  0  0  0  0
  -22.1662   -4.2151   21.0980 F   0  0  0  0  0  0
  -21.5627   -3.4539   25.7736 F   0  0  0  0  0  0
  -29.9699  -13.6257   20.4054 N   0  0  0  0  0  0
  -26.2930  -12.9401   20.3258 N   0  0  0  0  0  0
  -25.9335  -11.6543   20.5741 N   0  0  0  0  0  0
  -22.0472  -12.8209   22.0433 N   0  0  0  0  0  0
  -25.4176  -15.1919   20.4073 N   0  0  0  0  0  0
  -31.7004  -15.0478   20.1187 O   0  0  0  0  0  0
  -21.6641   -6.8882   21.4244 O   0  0  0  0  0  0
  -22.3515  -14.5520   20.6718 O   0  0  0  0  0  0
  -24.6417  -31.8459   23.1905 C   0  0  0  0  0  0
  -25.9198  -32.4705   23.8286 C   0  0  1  0  0  0
  -27.2188  -27.1552   20.1486 C   0  0  0  0  0  0
  -25.5952  -33.8510   24.2200 N   0  0  0  0  0  0
  -23.4443  -30.4665   21.5360 C   0  0  2  0  0  0
  -24.8934  -28.8961   20.1136 C   0  0  0  0  0  0
  -22.7557  -29.4560   22.4871 C   0  0  0  0  0  0
  -18.0303  -28.1395   22.8481 C   0  0  0  0  0  0
  -24.1492  -36.7261   23.2643 C   0  0  0  0  0  0
  -25.9997  -30.7252   21.3875 C   0  0  0  0  0  0
  -26.0711  -29.3380   20.7300 C   0  0  0  0  0  0
  -27.2357  -28.4844   20.7294 C   0  0  0  0  0  0
  -26.0162  -26.8146   19.4897 C   0  0  0  0  0  0
  -24.8776  -27.6465   19.4786 C   0  0  0  0  0  0
  -23.6701  -29.7969   20.1552 C   0  0  0  0  0  0
  -25.4122  -36.3036   24.0317 C   0  0  1  0  0  0
  -20.5915  -28.3719   23.1240 C   0  0  2  0  0  0
  -20.6789  -26.9425   22.5403 C   0  0  0  0  0  0
  -19.5762  -26.6383   21.5213 C   0  0  0  0  0  0
  -18.1943  -26.7935   22.1626 C   0  0  0  0  0  0
  -19.1560  -28.8875   23.2854 C   0  0  0  0  0  0
  -18.9477  -30.1471   23.8877 C   0  0  0  0  0  0
  -17.6474  -30.6592   24.0561 C   0  0  0  0  0  0
  -25.9071  -34.9411   23.5067 C   0  0  0  0  0  0
  -16.5364  -29.9085   23.6337 C   0  0  0  0  0  0
  -16.7288  -28.6504   23.0355 C   0  0  0  0  0  0
  -26.4521  -31.6569   25.0723 C   0  0  0  0  0  0
  -25.3710  -31.3757   26.1423 C   0  0  0  0  0  0
  -27.0382  -30.2964   24.6300 C   0  0  0  0  0  0
  -27.6054  -32.4333   25.7507 C   0  0  0  0  0  0
  -27.5575  -37.1789   24.8465 C   0  0  0  0  0  0
  -21.4253  -29.3050   22.3616 N   0  0  0  0  0  0
  -26.4287  -37.3747   23.9406 N   0  0  0  0  0  0
  -24.7150  -31.0331   22.0931 N   0  0  0  0  0  0
  -23.4207  -28.8107   23.3016 O   0  0  0  0  0  0
  -28.2840  -26.1877   20.1841 O   0  0  0  0  0  0
  -26.5656  -34.8906   22.4645 O   0  0  0  0  0  0
  -23.5541  -32.1330   23.7134 O   0  0  0  0  0  0
  -30.2497  -19.9483   20.2346 C   0  0  0  0  0  0
  -30.5123  -18.5054   20.2251 C   0  0  0  0  0  0
  -28.3093  -18.1257   20.9664 C   0  0  0  0  0  0
  -28.0410  -19.5470   20.9791 C   0  0  0  0  0  0
  -29.0016  -20.5582   20.6266 C   0  0  0  0  0  0
  -29.5481  -17.5068   20.6101 C   0  0  0  0  0  0
  -30.1616  -23.1795   22.3531 C   0  0  0  0  0  0
  -30.3543  -23.7091   20.9283 C   0  0  0  0  0  0
  -28.9302  -22.2631   22.2850 C   0  0  0  0  0  0
  -29.0438  -23.3640   20.2247 C   0  0  2  0  0  0
  -26.6512  -19.9780   21.4245 C   0  0  0  0  0  0
  -27.9972  -24.6759   20.3957 C   0  0  0  0  0  0
  -28.6859  -21.9969   20.8680 N   0  0  0  0  0  0
  -29.6338  -15.9810   20.6870 N   0  0  0  0  0  0
  -31.4867  -12.7307   19.1808 H   0  0  0  0  0  0
  -30.4531  -11.5912   19.9971 H   0  0  0  0  0  0
  -29.8354  -11.7450   17.5625 H   0  0  0  0  0  0
  -29.6200  -13.4709   17.7058 H   0  0  0  0  0  0
  -27.9414  -11.2759   18.9545 H   0  0  0  0  0  0
  -27.3929  -12.4768   17.8145 H   0  0  0  0  0  0
  -27.6186  -14.2489   19.4447 H   0  0  0  0  0  0
  -28.7590  -12.2125   21.4224 H   0  0  0  0  0  0
  -28.3877  -13.8739   21.7995 H   0  0  0  0  0  0
  -25.2771   -9.5673   22.4765 H   0  0  0  0  0  0
  -24.0002   -7.4630   22.7473 H   0  0  0  0  0  0
  -21.0848   -8.8784   19.8955 H   0  0  0  0  0  0
  -22.3717  -10.9676   19.6172 H   0  0  0  0  0  0
  -21.2014   -7.6151   23.9719 H   0  0  0  0  0  0
  -21.1479   -6.0525   25.9079 H   0  0  0  0  0  0
  -22.0597   -2.7610   23.2848 H   0  0  0  0  0  0
  -22.4091  -11.9872   22.4822 H   0  0  0  0  0  0
  -21.1089  -13.1232   22.2637 H   0  0  0  0  0  0
  -24.6342  -15.8306   20.4907 H   0  0  0  0  0  0
  -26.2339  -15.6212   19.9922 H   0  0  0  0  0  0
  -26.7266  -32.5317   23.1018 H   0  0  0  0  0  0
  -25.0075  -33.9628   25.0331 H   0  0  0  0  0  0
  -22.7462  -31.2918   21.3827 H   0  0  0  0  0  0
  -23.3756  -35.9592   23.3296 H   0  0  0  0  0  0
  -24.3577  -36.8902   22.2060 H   0  0  0  0  0  0
  -23.7249  -37.6456   23.6686 H   0  0  0  0  0  0
  -26.1540  -31.4801   20.6152 H   0  0  0  0  0  0
  -26.8706  -30.7744   22.0293 H   0  0  0  0  0  0
  -28.1347  -28.8201   21.2268 H   0  0  0  0  0  0
  -25.9250  -25.8733   18.9710 H   0  0  0  0  0  0
  -23.9814  -27.3065   18.9776 H   0  0  0  0  0  0
  -23.8068  -30.5715   19.3998 H   0  0  0  0  0  0
  -22.7852  -29.2386   19.8446 H   0  0  0  0  0  0
  -25.1311  -36.1864   25.0809 H   0  0  0  0  0  0
  -21.0009  -28.3308   24.1360 H   0  0  0  0  0  0
  -20.5684  -26.2333   23.3620 H   0  0  0  0  0  0
  -21.6656  -26.7430   22.1200 H   0  0  0  0  0  0
  -19.6921  -25.6288   21.1255 H   0  0  0  0  0  0
  -19.6696  -27.3183   20.6733 H   0  0  0  0  0  0
  -17.4211  -26.6678   21.4032 H   0  0  0  0  0  0
  -18.0341  -26.0081   22.9026 H   0  0  0  0  0  0
  -19.7951  -30.7294   24.2240 H   0  0  0  0  0  0
  -17.5024  -31.6270   24.5167 H   0  0  0  0  0  0
  -15.5363  -30.2979   23.7671 H   0  0  0  0  0  0
  -15.8689  -28.0814   22.7081 H   0  0  0  0  0  0
  -24.5889  -30.7105   25.7744 H   0  0  0  0  0  0
  -24.8902  -32.2940   26.4805 H   0  0  0  0  0  0
  -25.7998  -30.8956   27.0230 H   0  0  0  0  0  0
  -26.2995  -29.6694   24.1293 H   0  0  0  0  0  0
  -27.3977  -29.7258   25.4875 H   0  0  0  0  0  0
  -27.8914  -30.4199   23.9625 H   0  0  0  0  0  0
  -27.2650  -33.3650   26.2036 H   0  0  0  0  0  0
  -28.3890  -32.6864   25.0352 H   0  0  0  0  0  0
  -28.0693  -31.8489   26.5464 H   0  0  0  0  0  0
  -28.2586  -38.0090   24.7503 H   0  0  0  0  0  0
  -28.1076  -36.2619   24.6300 H   0  0  0  0  0  0
  -27.2291  -37.1444   25.8867 H   0  0  0  0  0  0
  -20.9460  -29.8765   21.6798 H   0  0  0  0  0  0
  -26.0154  -38.2816   24.1405 H   0  0  0  0  0  0
  -31.0664  -20.6036   19.9684 H   0  0  0  0  0  0
  -31.4968  -18.1740   19.9273 H   0  0  0  0  0  0
  -27.5036  -17.4722   21.2698 H   0  0  0  0  0  0
  -29.9939  -23.9899   23.0641 H   0  0  0  0  0  0
  -31.0479  -22.6343   22.6806 H   0  0  0  0  0  0
  -31.1801  -23.1823   20.4479 H   0  0  0  0  0  0
  -30.5872  -24.7743   20.8976 H   0  0  0  0  0  0
  -28.0581  -22.7629   22.7095 H   0  0  0  0  0  0
  -29.0896  -21.3628   22.8830 H   0  0  0  0  0  0
  -29.2382  -23.2189   19.1610 H   0  0  0  0  0  0
  -25.9471  -19.1459   21.4199 H   0  0  0  0  0  0
  -26.2526  -20.7462   20.7614 H   0  0  0  0  0  0
  -26.6863  -20.3830   22.4363 H   0  0  0  0  0  0
  -27.6176  -24.6382   21.4167 H   0  0  0  0  0  0
  -27.1391  -24.4011   19.7881 H   0  0  0  0  0  0
  -28.7478  -15.5851   20.9606 H   0  0  0  0  0  0
  1 25  1  0  0  0
  1 30  2  0  0  0
  1 84  1  0  0  0
  2  3  1  0  0  0
  2 25  1  0  0  0
  2 85  1  0  0  0
  2 86  1  0  0  0
  3  4  1  0  0  0
  3 87  1  0  0  0
  3 88  1  0  0  0
  4  5  1  0  0  0
  4 89  1  0  0  0
  4 90  1  0  0  0
  5  6  1  0  0  0
  5 26  1  0  0  0
  5 91  1  0  0  0
  6 25  1  0  0  0
  6 92  1  0  0  0
  6 93  1  0  0  0
  7  8  2  0  0  0
  7 26  1  0  0  0
  7 29  1  0  0  0
  8  9  1  0  0  0
  8 22  1  0  0  0
  9 10  1  0  0  0
  9 27  2  0  0  0
 10 11  2  0  0  0
 10 15  1  0  0  0
 11 12  1  0  0  0
 11 94  1  0  0  0
 12 13  2  0  0  0
 12 95  1  0  0  0
 13 14  1  0  0  0
 13 31  1  0  0  0
 14 15  2  0  0  0
 14 96  1  0  0  0
 15 97  1  0  0  0
 16 17  2  0  0  0
 16 21  1  0  0  0
 16 31  1  0  0  0
 17 18  1  0  0  0
 17 98  1  0  0  0
 18 19  2  0  0  0
 18 99  1  0  0  0
 19 20  1  0  0  0
 19 24  1  0  0  0
 20 21  2  0  0  0
 20100  1  0  0  0
 21 23  1  0  0  0
 22 28  1  0  0  0
 22 32  2  0  0  0
 26 27  1  0  0  0
 28101  1  0  0  0
 28102  1  0  0  0
 29103  1  0  0  0
 29104  1  0  0  0
 33 34  1  0  0  0
 33 66  1  0  0  0
 33 70  2  0  0  0
 34 36  1  0  0  0
 34 59  1  0  0  0
 34105  1  0  0  0
 35 44  2  0  0  0
 35 45  1  0  0  0
 35 68  1  0  0  0
 36 56  1  0  0  0
 36106  1  0  0  0
 37 39  1  0  0  0
 37 47  1  0  0  0
 37 66  1  0  0  0
 37107  1  0  0  0
 38 43  2  0  0  0
 38 46  1  0  0  0
 38 47  1  0  0  0
 39 64  1  0  0  0
 39 67  2  0  0  0
 40 52  1  0  0  0
 40 53  2  0  0  0
 40 58  1  0  0  0
 41108  1  0  0  0
 41109  1  0  0  0
 41110  1  0  0  0
 41 48  1  0  0  0
 42 43  1  0  0  0
 42 66  1  0  0  0
 42111  1  0  0  0
 42112  1  0  0  0
 43 44  1  0  0  0
 44113  1  0  0  0
 45 46  2  0  0  0
 45114  1  0  0  0
 46115  1  0  0  0
 47116  1  0  0  0
 47117  1  0  0  0
 48 56  1  0  0  0
 48 65  1  0  0  0
 48118  1  0  0  0
 49 50  1  0  0  0
 49 53  1  0  0  0
 49 64  1  0  0  0
 49119  1  0  0  0
 50 51  1  0  0  0
 50120  1  0  0  0
 50121  1  0  0  0
 51 52  1  0  0  0
 51122  1  0  0  0
 51123  1  0  0  0
 52124  1  0  0  0
 52125  1  0  0  0
 53 54  1  0  0  0
 54 55  2  0  0  0
 54126  1  0  0  0
 55 57  1  0  0  0
 55127  1  0  0  0
 56 69  2  0  0  0
 57 58  2  0  0  0
 57128  1  0  0  0
 58129  1  0  0  0
 59 60  1  0  0  0
 59 61  1  0  0  0
 59 62  1  0  0  0
 60130  1  0  0  0
 60131  1  0  0  0
 60132  1  0  0  0
 61133  1  0  0  0
 61134  1  0  0  0
 61135  1  0  0  0
 62136  1  0  0  0
 62137  1  0  0  0
 62138  1  0  0  0
 63 65  1  0  0  0
 63139  1  0  0  0
 63140  1  0  0  0
 63141  1  0  0  0
 64142  1  0  0  0
 65143  1  0  0  0
 68 82  1  0  0  0
 71 72  2  0  0  0
 71 75  1  0  0  0
 71144  1  0  0  0
 72 76  1  0  0  0
 72145  1  0  0  0
 73 74  1  0  0  0
 73 76  2  0  0  0
 73146  1  0  0  0
 74 75  2  0  0  0
 74 81  1  0  0  0
 75 83  1  0  0  0
 76 84  1  0  0  0
 77 78  1  0  0  0
 77 79  1  0  0  0
 77147  1  0  0  0
 77148  1  0  0  0
 78 80  1  0  0  0
 78149  1  0  0  0
 78150  1  0  0  0
 79 83  1  0  0  0
 79151  1  0  0  0
 79152  1  0  0  0
 80 82  1  0  0  0
 80 83  1  0  0  0
 80153  1  0  0  0
 81154  1  0  0  0
 81155  1  0  0  0
 81156  1  0  0  0
 82157  1  0  0  0
 82158  1  0  0  0
 84159  1  0  0  0
M  ISO  4   1 100  68 101  82 101  84 100
M  END
> <chiral flag>
0

> <version>
0

> <s_m_source_file>
/data/baiqing/PycharmProjects/Reinvent-master-3.2/result/LINK_invent/BTK/process_docking_weight1_custom_product_contain_oxygen_bond_distance_aromatic_linkinvent_7_9_3/rearranged_h_0025.sdf

> <i_m_source_file_index>
89

> <r_mmod_Potential_Energy-OPLS-2005>
528.192016601562

> <r_mmod_Stretch_Energy-OPLS-2005>
212.545211791992

> <r_mmod_Bend_Energy-OPLS-2005>
315.056488037109

> <r_mmod_Torsional_Energy-OPLS-2005>
303.678344726562

> <r_mmod_Improper_Torsional_Energy-OPLS-2005>
9.85777950286865

> <r_mmod_Van_der_Waal_Energy-OPLS-2005>
131.511749267578

> <r_mmod_Electrostatic_Energy-OPLS-2005>
-397.989379882812

> <r_mmod_Solvation_Energy-OPLS-2005>
-214.30046081543

> <b_mmod_Minimization_Converged-OPLS-2005>
0

> <r_mmod_RMS_Derivative-OPLS-2005>
0.562115609645844

$$$$
89
                    3D
 Structure written by MMmdl.
152161  0  0  1  0            999 V2000
  -30.5916  -14.7073   20.4888 C   0  0  0  0  0  0
  -30.4497  -12.4290   19.4713 C   0  0  0  0  0  0
  -29.5211  -12.5020   18.2366 C   0  0  0  0  0  0
  -28.0425  -12.3335   18.6434 C   0  0  0  0  0  0
  -27.6506  -13.2191   19.8559 C   0  0  2  0  0  0
  -28.6931  -13.1024   20.9908 C   0  0  0  0  0  0
  -25.2543  -13.8165   20.5659 C   0  0  0  0  0  0
  -24.1811  -13.0434   20.9183 C   0  0  0  0  0  0
  -24.6378  -11.6904   20.8720 C   0  0  0  0  0  0
  -23.9045  -10.4289   21.0388 C   0  0  0  0  0  0
  -24.3595   -9.4210   21.9179 C   0  0  0  0  0  0
  -23.6275   -8.2247   22.0759 C   0  0  0  0  0  0
  -22.4265   -8.0267   21.3546 C   0  0  0  0  0  0
  -21.9887   -9.0232   20.4652 C   0  0  0  0  0  0
  -22.7210  -10.2118   20.3045 C   0  0  0  0  0  0
  -21.6859   -6.0716   22.5274 C   0  0  0  0  0  0
  -21.4019   -6.5625   23.8205 C   0  0  0  0  0  0
  -21.3661   -5.6786   24.9175 C   0  0  0  0  0  0
  -21.6042   -4.3047   24.7232 C   0  0  0  0  0  0
  -21.8823   -3.8130   23.4357 C   0  0  0  0  0  0
  -21.9192   -4.6941   22.3406 C   0  0  0  0  0  0
  -22.7833  -13.5226   21.1848 C   0  0  0  0  0  0
  -22.1665   -4.2121   21.0990 F   0  0  0  0  0  0
  -21.5620   -3.4538   25.7754 F   0  0  0  0  0  0
  -30.0053  -13.4637   20.4289 N   0  0  0  0  0  0
  -26.2967  -12.9349   20.3254 N   0  0  0  0  0  0
  -25.9303  -11.6507   20.5718 N   0  0  0  0  0  0
  -22.0466  -12.8223   22.0409 N   0  0  0  0  0  0
  -25.4235  -15.1891   20.4053 N   0  0  0  0  0  0
  -31.7568  -14.8756   20.1128 O   0  0  0  0  0  0
  -21.6639   -6.8860   21.4241 O   0  0  0  0  0  0
  -22.3523  -14.5534   20.6698 O   0  0  0  0  0  0
  -24.6306  -31.8578   23.2022 C   0  0  0  0  0  0
  -25.9140  -32.4774   23.8340 C   0  0  1  0  0  0
  -27.2246  -27.2802   20.1245 C   0  0  0  0  0  0
  -25.5944  -33.8578   24.2286 N   0  0  0  0  0  0
  -23.4242  -30.4838   21.5458 C   0  0  2  0  0  0
  -24.8702  -28.9310   20.1130 C   0  0  0  0  0  0
  -22.7473  -29.4660   22.4941 C   0  0  0  0  0  0
  -18.0289  -28.1406   22.8497 C   0  0  0  0  0  0
  -24.1488  -36.7285   23.2632 C   0  0  0  0  0  0
  -25.9687  -30.7752   21.3779 C   0  0  0  0  0  0
  -26.0414  -29.3985   20.7213 C   0  0  0  0  0  0
  -27.2192  -28.5853   20.7165 C   0  0  0  0  0  0
  -26.0259  -26.8765   19.4893 C   0  0  0  0  0  0
  -24.8672  -27.6761   19.4864 C   0  0  0  0  0  0
  -23.6388  -29.8154   20.1622 C   0  0  0  0  0  0
  -25.4123  -36.3103   24.0326 C   0  0  1  0  0  0
  -20.5896  -28.3753   23.1267 C   0  0  2  0  0  0
  -20.6803  -26.9475   22.5415 C   0  0  0  0  0  0
  -19.5779  -26.6431   21.5223 C   0  0  0  0  0  0
  -18.1952  -26.7955   22.1625 C   0  0  0  0  0  0
  -19.1538  -28.8888   23.2877 C   0  0  0  0  0  0
  -18.9468  -30.1481   23.8910 C   0  0  0  0  0  0
  -17.6470  -30.6614   24.0581 C   0  0  0  0  0  0
  -25.9059  -34.9469   23.5114 C   0  0  0  0  0  0
  -16.5352  -29.9123   23.6339 C   0  0  0  0  0  0
  -16.7274  -28.6531   23.0361 C   0  0  0  0  0  0
  -26.4503  -31.6576   25.0706 C   0  0  0  0  0  0
  -25.3733  -31.3723   26.1443 C   0  0  0  0  0  0
  -27.0344  -30.2988   24.6191 C   0  0  0  0  0  0
  -27.6068  -32.4297   25.7470 C   0  0  0  0  0  0
  -27.5588  -37.1810   24.8465 C   0  0  0  0  0  0
  -21.4189  -29.3091   22.3638 N   0  0  0  0  0  0
  -26.4302  -37.3802   23.9401 N   0  0  0  0  0  0
  -24.6938  -31.0563   22.0991 N   0  0  0  0  0  0
  -23.4167  -28.8208   23.3044 O   0  0  0  0  0  0
  -28.3352  -26.4054   20.1885 O   0  0  0  0  0  0
  -26.5622  -34.8941   22.4680 O   0  0  0  0  0  0
  -23.5479  -32.1386   23.7369 O   0  0  0  0  0  0
  -28.6590  -19.4042   21.2189 C   0  0  0  0  0  0
  -28.7239  -17.9775   21.2731 C   0  0  0  0  0  0
  -30.7975  -18.0283   20.1175 C   0  0  0  0  0  0
  -29.6367  -20.2437   20.6108 C   0  0  0  0  0  0
  -29.8003  -17.2262   20.7357 C   0  0  0  0  0  0
  -30.7145  -19.4661   20.0540 C   0  0  0  0  0  0
  -28.7206  -22.6662   21.3213 C   0  0  0  0  0  0
  -29.5684  -22.5757   19.4505 C   0  0  0  0  0  0
  -29.2097  -23.8198   20.3552 C   0  0  1  0  0  0
  -28.1286  -24.9389   19.9503 C   0  0  0  0  0  0
  -29.5290  -21.7282   20.6523 N   0  0  0  0  0  0
  -29.7572  -15.7486   20.8384 N   0  0  0  0  0  0
  -27.9118  -22.5335   22.2150 O   0  0  0  0  0  0
  -32.0322  -20.2831   19.2896 Cl  0  0  0  0  0  0
  -31.4899  -12.5717   19.1696 H   0  0  0  0  0  0
  -30.4052  -11.4425   19.9349 H   0  0  0  0  0  0
  -29.8005  -11.7317   17.5161 H   0  0  0  0  0  0
  -29.6568  -13.4590   17.7312 H   0  0  0  0  0  0
  -27.8888  -11.2837   18.8915 H   0  0  0  0  0  0
  -27.3911  -12.5422   17.7941 H   0  0  0  0  0  0
  -27.6597  -14.2485   19.4966 H   0  0  0  0  0  0
  -28.7174  -12.0856   21.3845 H   0  0  0  0  0  0
  -28.4225  -13.7390   21.8340 H   0  0  0  0  0  0
  -25.2730   -9.5702   22.4758 H   0  0  0  0  0  0
  -23.9977   -7.4656   22.7488 H   0  0  0  0  0  0
  -21.0809   -8.8742   19.8970 H   0  0  0  0  0  0
  -22.3648  -10.9642   19.6150 H   0  0  0  0  0  0
  -21.2024   -7.6136   23.9704 H   0  0  0  0  0  0
  -21.1478   -6.0520   25.9076 H   0  0  0  0  0  0
  -22.0601   -2.7588   23.2873 H   0  0  0  0  0  0
  -22.4053  -11.9867   22.4784 H   0  0  0  0  0  0
  -21.1090  -13.1265   22.2624 H   0  0  0  0  0  0
  -24.6457  -15.8349   20.4965 H   0  0  0  0  0  0
  -26.2550  -15.6249   20.0286 H   0  0  0  0  0  0
  -26.7211  -32.5435   23.1076 H   0  0  0  0  0  0
  -25.0136  -33.9695   25.0470 H   0  0  0  0  0  0
  -22.7216  -31.3062   21.4017 H   0  0  0  0  0  0
  -23.3775  -35.9593   23.3312 H   0  0  0  0  0  0
  -24.3577  -36.8884   22.2041 H   0  0  0  0  0  0
  -23.7217  -37.6478   23.6642 H   0  0  0  0  0  0
  -26.1030  -31.5335   20.6055 H   0  0  0  0  0  0
  -26.8496  -30.8265   22.0075 H   0  0  0  0  0  0
  -28.1156  -28.9358   21.2092 H   0  0  0  0  0  0
  -25.9497  -25.9160   19.0038 H   0  0  0  0  0  0
  -23.9687  -27.3096   19.0058 H   0  0  0  0  0  0
  -23.7564  -30.5881   19.4017 H   0  0  0  0  0  0
  -22.7560  -29.2454   19.8684 H   0  0  0  0  0  0
  -25.1315  -36.1963   25.0820 H   0  0  0  0  0  0
  -20.9994  -28.3386   24.1382 H   0  0  0  0  0  0
  -20.5766  -26.2369   23.3633 H   0  0  0  0  0  0
  -21.6666  -26.7561   22.1166 H   0  0  0  0  0  0
  -19.6956  -25.6357   21.1235 H   0  0  0  0  0  0
  -19.6688  -27.3255   20.6766 H   0  0  0  0  0  0
  -17.4227  -26.6713   21.4017 H   0  0  0  0  0  0
  -18.0329  -26.0074   22.8989 H   0  0  0  0  0  0
  -19.7943  -30.7288   24.2279 H   0  0  0  0  0  0
  -17.5034  -31.6280   24.5201 H   0  0  0  0  0  0
  -15.5366  -30.3032   23.7674 H   0  0  0  0  0  0
  -15.8663  -28.0865   22.7090 H   0  0  0  0  0  0
  -24.5908  -30.7059   25.7791 H   0  0  0  0  0  0
  -24.8919  -32.2892   26.4851 H   0  0  0  0  0  0
  -25.8063  -30.8917   27.0229 H   0  0  0  0  0  0
  -26.2939  -29.6712   24.1209 H   0  0  0  0  0  0
  -27.4013  -29.7259   25.4716 H   0  0  0  0  0  0
  -27.8824  -30.4230   23.9451 H   0  0  0  0  0  0
  -27.2692  -33.3613   26.2023 H   0  0  0  0  0  0
  -28.3892  -32.6811   25.0296 H   0  0  0  0  0  0
  -28.0712  -31.8410   26.5393 H   0  0  0  0  0  0
  -28.2640  -38.0079   24.7541 H   0  0  0  0  0  0
  -28.1056  -36.2622   24.6292 H   0  0  0  0  0  0
  -27.2290  -37.1474   25.8861 H   0  0  0  0  0  0
  -20.9394  -29.8724   21.6752 H   0  0  0  0  0  0
  -26.0192  -38.2879   24.1409 H   0  0  0  0  0  0
  -27.8047  -19.8706   21.6846 H   0  0  0  0  0  0
  -27.9101  -17.4570   21.7583 H   0  0  0  0  0  0
  -31.6561  -17.5435   19.6778 H   0  0  0  0  0  0
  -30.5455  -22.6430   18.9717 H   0  0  0  0  0  0
  -28.7914  -22.3121   18.7286 H   0  0  0  0  0  0
  -30.1239  -24.2868   20.7229 H   0  0  0  0  0  0
  -27.1942  -24.6691   20.4443 H   0  0  0  0  0  0
  -27.9276  -24.8243   18.8848 H   0  0  0  0  0  0
  -28.8729  -15.3952   21.1715 H   0  0  0  0  0  0
  1 25  1  0  0  0
  1 30  2  0  0  0
  1 82  1  0  0  0
  2  3  1  0  0  0
  2 25  1  0  0  0
  2 85  1  0  0  0
  2 86  1  0  0  0
  3  4  1  0  0  0
  3 87  1  0  0  0
  3 88  1  0  0  0
  4  5  1  0  0  0
  4 89  1  0  0  0
  4 90  1  0  0  0
  5  6  1  0  0  0
  5 26  1  0  0  0
  5 91  1  0  0  0
  6 25  1  0  0  0
  6 92  1  0  0  0
  6 93  1  0  0  0
  7  8  2  0  0  0
  7 26  1  0  0  0
  7 29  1  0  0  0
  8  9  1  0  0  0
  8 22  1  0  0  0
  9 10  1  0  0  0
  9 27  2  0  0  0
 10 11  2  0  0  0
 10 15  1  0  0  0
 11 12  1  0  0  0
 11 94  1  0  0  0
 12 13  2  0  0  0
 12 95  1  0  0  0
 13 14  1  0  0  0
 13 31  1  0  0  0
 14 15  2  0  0  0
 14 96  1  0  0  0
 15 97  1  0  0  0
 16 17  2  0  0  0
 16 21  1  0  0  0
 16 31  1  0  0  0
 17 18  1  0  0  0
 17 98  1  0  0  0
 18 19  2  0  0  0
 18 99  1  0  0  0
 19 20  1  0  0  0
 19 24  1  0  0  0
 20 21  2  0  0  0
 20100  1  0  0  0
 21 23  1  0  0  0
 22 28  1  0  0  0
 22 32  2  0  0  0
 26 27  1  0  0  0
 28101  1  0  0  0
 28102  1  0  0  0
 29103  1  0  0  0
 29104  1  0  0  0
 33 34  1  0  0  0
 33 66  1  0  0  0
 33 70  2  0  0  0
 34 36  1  0  0  0
 34 59  1  0  0  0
 34105  1  0  0  0
 35 44  2  0  0  0
 35 45  1  0  0  0
 35 68  1  0  0  0
 36 56  1  0  0  0
 36106  1  0  0  0
 37 39  1  0  0  0
 37 47  1  0  0  0
 37 66  1  0  0  0
 37107  1  0  0  0
 38 43  2  0  0  0
 38 46  1  0  0  0
 38 47  1  0  0  0
 39 64  1  0  0  0
 39 67  2  0  0  0
 40 52  1  0  0  0
 40 53  2  0  0  0
 40 58  1  0  0  0
 41108  1  0  0  0
 41109  1  0  0  0
 41110  1  0  0  0
 41 48  1  0  0  0
 42 43  1  0  0  0
 42 66  1  0  0  0
 42111  1  0  0  0
 42112  1  0  0  0
 43 44  1  0  0  0
 44113  1  0  0  0
 45 46  2  0  0  0
 45114  1  0  0  0
 46115  1  0  0  0
 47116  1  0  0  0
 47117  1  0  0  0
 48 56  1  0  0  0
 48 65  1  0  0  0
 48118  1  0  0  0
 49 50  1  0  0  0
 49 53  1  0  0  0
 49 64  1  0  0  0
 49119  1  0  0  0
 50 51  1  0  0  0
 50120  1  0  0  0
 50121  1  0  0  0
 51 52  1  0  0  0
 51122  1  0  0  0
 51123  1  0  0  0
 52124  1  0  0  0
 52125  1  0  0  0
 53 54  1  0  0  0
 54 55  2  0  0  0
 54126  1  0  0  0
 55 57  1  0  0  0
 55127  1  0  0  0
 56 69  2  0  0  0
 57 58  2  0  0  0
 57128  1  0  0  0
 58129  1  0  0  0
 59 60  1  0  0  0
 59 61  1  0  0  0
 59 62  1  0  0  0
 60130  1  0  0  0
 60131  1  0  0  0
 60132  1  0  0  0
 61133  1  0  0  0
 61134  1  0  0  0
 61135  1  0  0  0
 62136  1  0  0  0
 62137  1  0  0  0
 62138  1  0  0  0
 63 65  1  0  0  0
 63139  1  0  0  0
 63140  1  0  0  0
 63141  1  0  0  0
 64142  1  0  0  0
 65143  1  0  0  0
 68 80  1  0  0  0
 71 72  2  0  0  0
 71 74  1  0  0  0
 71144  1  0  0  0
 72 75  1  0  0  0
 72145  1  0  0  0
 73 75  2  0  0  0
 73 76  1  0  0  0
 73146  1  0  0  0
 74 76  2  0  0  0
 74 81  1  0  0  0
 75 82  1  0  0  0
 76 84  1  0  0  0
 77 79  1  0  0  0
 77 81  1  0  0  0
 77 83  2  0  0  0
 78 79  1  0  0  0
 78 81  1  0  0  0
 78147  1  0  0  0
 78148  1  0  0  0
 79 80  1  0  0  0
 79149  1  0  0  0
 80150  1  0  0  0
 80151  1  0  0  0
 82152  1  0  0  0
M  ISO  4   1 100  68 101  80 101  82 100
M  END
> <chiral flag>
0

> <version>
0

> <s_m_source_file>
/data/baiqing/PycharmProjects/Reinvent-master-3.2/result/LINK_invent/BTK/process_docking_weight1_custom_product_contain_oxygen_bond_distance_aromatic_linkinvent_7_9_3/rearranged_h_0025.sdf

> <i_m_source_file_index>
90

> <r_mmod_Potential_Energy-OPLS-2005>
116.508750915527

> <r_mmod_Stretch_Energy-OPLS-2005>
102.551536560059

> <r_mmod_Bend_Energy-OPLS-2005>
186.498046875

> <r_mmod_Torsional_Energy-OPLS-2005>
225.935501098633

> <r_mmod_Improper_Torsional_Energy-OPLS-2005>
7.52073192596436

> <r_mmod_Van_der_Waal_Energy-OPLS-2005>
140.114318847656

> <r_mmod_Electrostatic_Energy-OPLS-2005>
-392.364685058594

> <r_mmod_Solvation_Energy-OPLS-2005>
-224.711151123047

> <b_mmod_Minimization_Converged-OPLS-2005>
0

> <r_mmod_RMS_Derivative-OPLS-2005>
2.80876684188843

$$$$
90
                    3D
 Structure written by MMmdl.
190200  0  0  1  0            999 V2000
  -30.6239  -14.7366   20.4676 C   0  0  0  0  0  0
  -30.4307  -12.4499   19.4766 C   0  0  0  0  0  0
  -29.5180  -12.5104   18.2339 C   0  0  0  0  0  0
  -28.0409  -12.3413   18.6411 C   0  0  0  0  0  0
  -27.6442  -13.2347   19.8471 C   0  0  2  0  0  0
  -28.6860  -13.1677   20.9851 C   0  0  0  0  0  0
  -25.2518  -13.8194   20.5658 C   0  0  0  0  0  0
  -24.1807  -13.0438   20.9183 C   0  0  0  0  0  0
  -24.6416  -11.6917   20.8727 C   0  0  0  0  0  0
  -23.9086  -10.4291   21.0396 C   0  0  0  0  0  0
  -24.3631   -9.4207   21.9176 C   0  0  0  0  0  0
  -23.6308   -8.2240   22.0747 C   0  0  0  0  0  0
  -22.4294   -8.0280   21.3542 C   0  0  0  0  0  0
  -21.9932   -9.0247   20.4643 C   0  0  0  0  0  0
  -22.7258  -10.2127   20.3054 C   0  0  0  0  0  0
  -21.6853   -6.0741   22.5276 C   0  0  0  0  0  0
  -21.4004   -6.5637   23.8212 C   0  0  0  0  0  0
  -21.3670   -5.6791   24.9171 C   0  0  0  0  0  0
  -21.6052   -4.3055   24.7220 C   0  0  0  0  0  0
  -21.8809   -3.8145   23.4335 C   0  0  0  0  0  0
  -21.9180   -4.6963   22.3396 C   0  0  0  0  0  0
  -22.7829  -13.5216   21.1855 C   0  0  0  0  0  0
  -22.1653   -4.2148   21.0968 F   0  0  0  0  0  0
  -21.5654   -3.4536   25.7730 F   0  0  0  0  0  0
  -29.9868  -13.5163   20.4048 N   0  0  0  0  0  0
  -26.2952  -12.9417   20.3228 N   0  0  0  0  0  0
  -25.9351  -11.6559   20.5701 N   0  0  0  0  0  0
  -22.0466  -12.8235   22.0422 N   0  0  0  0  0  0
  -25.4218  -15.1912   20.4053 N   0  0  0  0  0  0
  -31.8051  -14.8094   20.1218 O   0  0  0  0  0  0
  -21.6655   -6.8880   21.4242 O   0  0  0  0  0  0
  -22.3521  -14.5519   20.6682 O   0  0  0  0  0  0
  -24.6294  -31.8542   23.2000 C   0  0  0  0  0  0
  -25.9140  -32.4751   23.8337 C   0  0  1  0  0  0
  -27.2109  -27.2801   20.1338 C   0  0  0  0  0  0
  -25.5952  -33.8558   24.2257 N   0  0  0  0  0  0
  -23.4237  -30.4774   21.5431 C   0  0  2  0  0  0
  -24.8672  -28.9186   20.1158 C   0  0  0  0  0  0
  -22.7478  -29.4604   22.4926 C   0  0  0  0  0  0
  -18.0287  -28.1397   22.8471 C   0  0  0  0  0  0
  -24.1485  -36.7265   23.2636 C   0  0  0  0  0  0
  -25.9657  -30.7762   21.3732 C   0  0  0  0  0  0
  -26.0383  -29.3983   20.7173 C   0  0  0  0  0  0
  -27.2191  -28.5932   20.7074 C   0  0  0  0  0  0
  -26.0208  -26.8524   19.5147 C   0  0  0  0  0  0
  -24.8616  -27.6550   19.5028 C   0  0  0  0  0  0
  -23.6384  -29.8055   20.1602 C   0  0  0  0  0  0
  -25.4114  -36.3058   24.0315 C   0  0  1  0  0  0
  -20.5885  -28.3692   23.1282 C   0  0  2  0  0  0
  -20.6769  -26.9417   22.5400 C   0  0  0  0  0  0
  -19.5759  -26.6388   21.5188 C   0  0  0  0  0  0
  -18.1940  -26.7946   22.1597 C   0  0  0  0  0  0
  -19.1542  -28.8864   23.2876 C   0  0  0  0  0  0
  -18.9458  -30.1459   23.8897 C   0  0  0  0  0  0
  -17.6458  -30.6599   24.0551 C   0  0  0  0  0  0
  -25.9051  -34.9429   23.5083 C   0  0  0  0  0  0
  -16.5346  -29.9089   23.6341 C   0  0  0  0  0  0
  -16.7275  -28.6507   23.0373 C   0  0  0  0  0  0
  -26.4517  -31.6598   25.0734 C   0  0  0  0  0  0
  -25.3734  -31.3750   26.1446 C   0  0  0  0  0  0
  -27.0364  -30.3020   24.6218 C   0  0  0  0  0  0
  -27.6093  -32.4331   25.7508 C   0  0  0  0  0  0
  -27.5575  -37.1782   24.8460 C   0  0  0  0  0  0
  -21.4187  -29.3047   22.3678 N   0  0  0  0  0  0
  -26.4282  -37.3757   23.9409 N   0  0  0  0  0  0
  -24.6924  -31.0536   22.0958 N   0  0  0  0  0  0
  -23.4182  -28.8139   23.3027 O   0  0  0  0  0  0
  -28.3129  -26.4109   20.1297 O   0  0  0  0  0  0
  -26.5601  -34.8904   22.4636 O   0  0  0  0  0  0
  -23.5468  -32.1354   23.7323 O   0  0  0  0  0  0
  -32.3055  -18.6612   20.3539 C   0  0  0  0  0  0
  -30.3875  -18.8142   18.8592 C   0  0  0  0  0  0
  -29.6060  -18.3987   19.9639 C   0  0  0  0  0  0
  -31.7414  -19.1567   19.1477 C   0  0  0  0  0  0
  -30.2996  -17.3148   20.6576 C   0  0  0  0  0  0
  -31.6118  -17.6617   21.0785 C   0  0  0  0  0  0
  -34.3384  -20.9953   17.2650 C   0  0  0  0  0  0
  -33.3154  -22.0928   17.5976 C   0  0  0  0  0  0
  -30.6215  -20.4366   14.2012 C   0  0  0  0  0  0
  -31.6588  -19.3103   14.2626 C   0  0  0  0  0  0
  -33.8883  -19.7805   18.0799 C   0  0  0  0  0  0
  -32.3030  -21.4188   18.5251 C   0  0  0  0  0  0
  -29.9733  -20.4739   15.5935 C   0  0  0  0  0  0
  -31.1830  -18.4329   15.4197 C   0  0  0  0  0  0
  -26.5660  -19.6608   19.0058 C   0  0  0  0  0  0
  -29.7578  -18.7980   17.4552 C   0  0  0  0  0  0
  -29.1996  -19.7120   20.8056 C   0  0  0  0  0  0
  -28.3707  -23.6752   19.9423 C   0  0  0  0  0  0
  -26.9964  -20.6653   20.0870 C   0  0  0  0  0  0
  -28.7238  -22.3179   20.7707 C   0  0  0  0  0  0
  -28.1755  -25.0595   20.7514 C   0  0  0  0  0  0
  -32.4612  -19.9928   18.2745 N   0  0  0  0  0  0
  -29.8693  -15.8872   20.6872 N   0  0  0  0  0  0
  -30.5942  -19.3832   16.3791 N   0  3  0  0  0  0
  -28.4677  -20.9189   20.1534 N   0  3  1  0  0  0
  -32.4037  -16.8506   22.3867 Cl  0  0  0  0  0  0
  -31.4748  -12.5639   19.1796 H   0  0  0  0  0  0
  -30.3620  -11.4713   19.9545 H   0  0  0  0  0  0
  -29.8049  -11.7395   17.5165 H   0  0  0  0  0  0
  -29.6533  -13.4671   17.7261 H   0  0  0  0  0  0
  -27.8936  -11.2927   18.8977 H   0  0  0  0  0  0
  -27.3863  -12.5421   17.7919 H   0  0  0  0  0  0
  -27.6419  -14.2574   19.4706 H   0  0  0  0  0  0
  -28.7184  -12.1718   21.4292 H   0  0  0  0  0  0
  -28.4221  -13.8534   21.7919 H   0  0  0  0  0  0
  -25.2777   -9.5697   22.4736 H   0  0  0  0  0  0
  -24.0016   -7.4648   22.7487 H   0  0  0  0  0  0
  -21.0847   -8.8770   19.8977 H   0  0  0  0  0  0
  -22.3708  -10.9653   19.6154 H   0  0  0  0  0  0
  -21.1998   -7.6143   23.9713 H   0  0  0  0  0  0
  -21.1512   -6.0518   25.9072 H   0  0  0  0  0  0
  -22.0586   -2.7602   23.2827 H   0  0  0  0  0  0
  -22.4052  -11.9882   22.4827 H   0  0  0  0  0  0
  -21.1073  -13.1269   22.2584 H   0  0  0  0  0  0
  -24.6532  -15.8426   20.5126 H   0  0  0  0  0  0
  -26.2620  -15.6251   20.0487 H   0  0  0  0  0  0
  -26.7202  -32.5393   23.1080 H   0  0  0  0  0  0
  -25.0183  -33.9714   25.0464 H   0  0  0  0  0  0
  -22.7203  -31.2994   21.3983 H   0  0  0  0  0  0
  -23.3761  -35.9584   23.3283 H   0  0  0  0  0  0
  -24.3579  -36.8905   22.2055 H   0  0  0  0  0  0
  -23.7219  -37.6452   23.6674 H   0  0  0  0  0  0
  -26.1017  -31.5382   20.6041 H   0  0  0  0  0  0
  -26.8451  -30.8242   22.0046 H   0  0  0  0  0  0
  -28.1238  -28.9592   21.1729 H   0  0  0  0  0  0
  -25.9844  -25.8803   19.0424 H   0  0  0  0  0  0
  -23.9630  -27.2853   19.0289 H   0  0  0  0  0  0
  -23.7619  -30.5785   19.4007 H   0  0  0  0  0  0
  -22.7565  -29.2364   19.8598 H   0  0  0  0  0  0
  -25.1305  -36.1886   25.0805 H   0  0  0  0  0  0
  -20.9977  -28.3254   24.1404 H   0  0  0  0  0  0
  -20.5642  -26.2299   23.3596 H   0  0  0  0  0  0
  -21.6643  -26.7436   22.1210 H   0  0  0  0  0  0
  -19.6907  -25.6285   21.1261 H   0  0  0  0  0  0
  -19.6725  -27.3157   20.6690 H   0  0  0  0  0  0
  -17.4205  -26.6700   21.4003 H   0  0  0  0  0  0
  -18.0342  -26.0094   22.9004 H   0  0  0  0  0  0
  -19.7937  -30.7272   24.2282 H   0  0  0  0  0  0
  -17.5023  -31.6284   24.5143 H   0  0  0  0  0  0
  -15.5356  -30.2993   23.7677 H   0  0  0  0  0  0
  -15.8672  -28.0811   22.7120 H   0  0  0  0  0  0
  -24.5947  -30.7050   25.7773 H   0  0  0  0  0  0
  -24.8866  -32.2910   26.4798 H   0  0  0  0  0  0
  -25.8039  -30.8992   27.0261 H   0  0  0  0  0  0
  -26.2929  -29.6773   24.1243 H   0  0  0  0  0  0
  -27.4051  -29.7293   25.4737 H   0  0  0  0  0  0
  -27.8813  -30.4319   23.9450 H   0  0  0  0  0  0
  -27.2731  -33.3656   26.2047 H   0  0  0  0  0  0
  -28.3926  -32.6825   25.0343 H   0  0  0  0  0  0
  -28.0723  -31.8461   26.5451 H   0  0  0  0  0  0
  -28.2574  -38.0097   24.7527 H   0  0  0  0  0  0
  -28.1090  -36.2628   24.6267 H   0  0  0  0  0  0
  -27.2300  -37.1395   25.8863 H   0  0  0  0  0  0
  -20.9359  -29.8772   21.6886 H   0  0  0  0  0  0
  -26.0157  -38.2821   24.1444 H   0  0  0  0  0  0
  -33.3049  -18.9277   20.6630 H   0  0  0  0  0  0
  -35.3604  -21.2894   17.5095 H   0  0  0  0  0  0
  -34.3091  -20.7656   16.1993 H   0  0  0  0  0  0
  -32.8274  -22.4441   16.6871 H   0  0  0  0  0  0
  -33.7776  -22.9551   18.0802 H   0  0  0  0  0  0
  -29.8615  -20.2145   13.4500 H   0  0  0  0  0  0
  -31.0730  -21.3937   13.9365 H   0  0  0  0  0  0
  -32.6410  -19.7245   14.4970 H   0  0  0  0  0  0
  -31.7455  -18.7596   13.3252 H   0  0  0  0  0  0
  -34.4228  -19.7658   19.0304 H   0  0  0  0  0  0
  -34.0963  -18.8416   17.5625 H   0  0  0  0  0  0
  -31.2895  -21.7712   18.3252 H   0  0  0  0  0  0
  -32.5377  -21.6503   19.5671 H   0  0  0  0  0  0
  -28.8988  -20.3202   15.4907 H   0  0  0  0  0  0
  -30.1213  -21.4317   16.0915 H   0  0  0  0  0  0
  -31.9932  -17.8507   15.8616 H   0  0  0  0  0  0
  -30.4236  -17.7361   15.0602 H   0  0  0  0  0  0
  -25.4945  -19.4676   19.0709 H   0  0  0  0  0  0
  -27.0591  -18.6965   19.1099 H   0  0  0  0  0  0
  -26.7494  -20.0474   18.0041 H   0  0  0  0  0  0
  -28.8074  -19.3178   17.5021 H   0  0  0  0  0  0
  -29.5115  -17.7628   17.2134 H   0  0  0  0  0  0
  -30.1123  -20.1090   21.2471 H   0  0  0  0  0  0
  -28.6210  -19.3820   21.6698 H   0  0  0  0  0  0
  -27.4713  -23.5264   19.3463 H   0  0  0  0  0  0
  -29.1672  -23.8265   19.2125 H   0  0  0  0  0  0
  -26.6394  -20.3279   21.0615 H   0  0  0  0  0  0
  -26.4581  -21.5940   19.8963 H   0  0  0  0  0  0
  -28.2014  -22.3554   21.7278 H   0  0  0  0  0  0
  -29.7821  -22.3860   21.0264 H   0  0  0  0  0  0
  -28.9211  -25.0585   21.5469 H   0  0  0  0  0  0
  -27.2227  -25.0100   21.2821 H   0  0  0  0  0  0
  -28.8787  -15.7261   20.7755 H   0  0  0  0  0  0
  -31.3908  -19.7808   16.8804 H   0  0  0  0  0  0
  -28.8061  -21.0043   19.2108 H   0  0  0  0  0  0
  1 25  1  0  0  0
  1 30  2  0  0  0
  1 93  1  0  0  0
  2  3  1  0  0  0
  2 25  1  0  0  0
  2 97  1  0  0  0
  2 98  1  0  0  0
  3  4  1  0  0  0
  3 99  1  0  0  0
  3100  1  0  0  0
  4  5  1  0  0  0
  4101  1  0  0  0
  4102  1  0  0  0
  5  6  1  0  0  0
  5 26  1  0  0  0
  5103  1  0  0  0
  6 25  1  0  0  0
  6104  1  0  0  0
  6105  1  0  0  0
  7  8  2  0  0  0
  7 26  1  0  0  0
  7 29  1  0  0  0
  8  9  1  0  0  0
  8 22  1  0  0  0
  9 10  1  0  0  0
  9 27  2  0  0  0
 10 11  2  0  0  0
 10 15  1  0  0  0
 11 12  1  0  0  0
 11106  1  0  0  0
 12 13  2  0  0  0
 12107  1  0  0  0
 13 14  1  0  0  0
 13 31  1  0  0  0
 14 15  2  0  0  0
 14108  1  0  0  0
 15109  1  0  0  0
 16 17  2  0  0  0
 16 21  1  0  0  0
 16 31  1  0  0  0
 17 18  1  0  0  0
 17110  1  0  0  0
 18 19  2  0  0  0
 18111  1  0  0  0
 19 20  1  0  0  0
 19 24  1  0  0  0
 20 21  2  0  0  0
 20112  1  0  0  0
 21 23  1  0  0  0
 22 28  1  0  0  0
 22 32  2  0  0  0
 26 27  1  0  0  0
 28113  1  0  0  0
 28114  1  0  0  0
 29115  1  0  0  0
 29116  1  0  0  0
 33 34  1  0  0  0
 33 66  1  0  0  0
 33 70  2  0  0  0
 34 36  1  0  0  0
 34 59  1  0  0  0
 34117  1  0  0  0
 35 44  2  0  0  0
 35 45  1  0  0  0
 35 68  1  0  0  0
 36 56  1  0  0  0
 36118  1  0  0  0
 37 39  1  0  0  0
 37 47  1  0  0  0
 37 66  1  0  0  0
 37119  1  0  0  0
 38 43  2  0  0  0
 38 46  1  0  0  0
 38 47  1  0  0  0
 39 64  1  0  0  0
 39 67  2  0  0  0
 40 52  1  0  0  0
 40 53  2  0  0  0
 40 58  1  0  0  0
 41120  1  0  0  0
 41121  1  0  0  0
 41122  1  0  0  0
 41 48  1  0  0  0
 42 43  1  0  0  0
 42 66  1  0  0  0
 42123  1  0  0  0
 42124  1  0  0  0
 43 44  1  0  0  0
 44125  1  0  0  0
 45 46  2  0  0  0
 45126  1  0  0  0
 46127  1  0  0  0
 47128  1  0  0  0
 47129  1  0  0  0
 48 56  1  0  0  0
 48 65  1  0  0  0
 48130  1  0  0  0
 49 50  1  0  0  0
 49 53  1  0  0  0
 49 64  1  0  0  0
 49131  1  0  0  0
 50 51  1  0  0  0
 50132  1  0  0  0
 50133  1  0  0  0
 51 52  1  0  0  0
 51134  1  0  0  0
 51135  1  0  0  0
 52136  1  0  0  0
 52137  1  0  0  0
 53 54  1  0  0  0
 54 55  2  0  0  0
 54138  1  0  0  0
 55 57  1  0  0  0
 55139  1  0  0  0
 56 69  2  0  0  0
 57 58  2  0  0  0
 57140  1  0  0  0
 58141  1  0  0  0
 59 60  1  0  0  0
 59 61  1  0  0  0
 59 62  1  0  0  0
 60142  1  0  0  0
 60143  1  0  0  0
 60144  1  0  0  0
 61145  1  0  0  0
 61146  1  0  0  0
 61147  1  0  0  0
 62148  1  0  0  0
 62149  1  0  0  0
 62150  1  0  0  0
 63 65  1  0  0  0
 63151  1  0  0  0
 63152  1  0  0  0
 63153  1  0  0  0
 64154  1  0  0  0
 65155  1  0  0  0
 68 91  1  0  0  0
 71 74  2  0  0  0
 71 76  1  0  0  0
 71156  1  0  0  0
 72 73  2  0  0  0
 72 74  1  0  0  0
 72 86  1  0  0  0
 73 75  1  0  0  0
 73 87  1  0  0  0
 74 92  1  0  0  0
 75 76  2  0  0  0
 75 93  1  0  0  0
 76 96  1  0  0  0
 77 78  1  0  0  0
 77 81  1  0  0  0
 77157  1  0  0  0
 77158  1  0  0  0
 78 82  1  0  0  0
 78159  1  0  0  0
 78160  1  0  0  0
 79 80  1  0  0  0
 79 83  1  0  0  0
 79161  1  0  0  0
 79162  1  0  0  0
 80 84  1  0  0  0
 80163  1  0  0  0
 80164  1  0  0  0
 81 92  1  0  0  0
 81165  1  0  0  0
 81166  1  0  0  0
 82 92  1  0  0  0
 82167  1  0  0  0
 82168  1  0  0  0
 83 94  1  0  0  0
 83169  1  0  0  0
 83170  1  0  0  0
 84 94  1  0  0  0
 84171  1  0  0  0
 84172  1  0  0  0
 85 89  1  0  0  0
 85173  1  0  0  0
 85174  1  0  0  0
 85175  1  0  0  0
 86176  1  0  0  0
 86177  1  0  0  0
 86 94  1  0  0  0
 87178  1  0  0  0
 87179  1  0  0  0
 87 95  1  0  0  0
 88 90  1  0  0  0
 88 91  1  0  0  0
 88180  1  0  0  0
 88181  1  0  0  0
 89 95  1  0  0  0
 89182  1  0  0  0
 89183  1  0  0  0
 90 95  1  0  0  0
 90184  1  0  0  0
 90185  1  0  0  0
 91186  1  0  0  0
 91187  1  0  0  0
 93188  1  0  0  0
 94189  1  0  0  0
 95190  1  0  0  0
M  CHG  2  94   1  95   1
M  ISO  4   1 100  68 101  91 101  93 100
M  END
> <chiral flag>
0

> <version>
0

> <s_m_source_file>
/data/baiqing/PycharmProjects/Reinvent-master-3.2/result/LINK_invent/BTK/process_docking_weight1_custom_product_contain_oxygen_bond_distance_aromatic_linkinvent_7_9_3/rearranged_h_0025.sdf

> <i_m_source_file_index>
91

> <r_mmod_Potential_Energy-OPLS-2005>
373.392517089844

> <r_mmod_Stretch_Energy-OPLS-2005>
136.418533325195

> <r_mmod_Bend_Energy-OPLS-2005>
252.708343505859

> <r_mmod_Torsional_Energy-OPLS-2005>
651.203063964844

> <r_mmod_Improper_Torsional_Energy-OPLS-2005>
35.889087677002

> <r_mmod_Van_der_Waal_Energy-OPLS-2005>
137.379516601562

> <r_mmod_Electrostatic_Energy-OPLS-2005>
9.13435745239258

> <r_mmod_Solvation_Energy-OPLS-2005>
-925.272277832031

> <b_mmod_Minimization_Converged-OPLS-2005>
0

> <r_mmod_RMS_Derivative-OPLS-2005>
2.86817121505737

$$$$
91
                    3D
 Structure written by MMmdl.
162171  0  0  1  0            999 V2000
  -30.6745  -14.6381   20.5274 C   0  0  0  0  0  0
  -30.4252  -12.4054   19.4452 C   0  0  0  0  0  0
  -29.4981  -12.5133   18.2160 C   0  0  0  0  0  0
  -28.0197  -12.3550   18.6247 C   0  0  0  0  0  0
  -27.6482  -13.2137   19.8628 C   0  0  2  0  0  0
  -28.6983  -13.0342   20.9803 C   0  0  0  0  0  0
  -25.2518  -13.8164   20.5718 C   0  0  0  0  0  0
  -24.1795  -13.0412   20.9215 C   0  0  0  0  0  0
  -24.6381  -11.6901   20.8753 C   0  0  0  0  0  0
  -23.9061  -10.4282   21.0398 C   0  0  0  0  0  0
  -24.3610   -9.4207   21.9170 C   0  0  0  0  0  0
  -23.6289   -8.2240   22.0749 C   0  0  0  0  0  0
  -22.4265   -8.0278   21.3550 C   0  0  0  0  0  0
  -21.9904   -9.0249   20.4637 C   0  0  0  0  0  0
  -22.7235  -10.2127   20.3048 C   0  0  0  0  0  0
  -21.6852   -6.0727   22.5284 C   0  0  0  0  0  0
  -21.4013   -6.5634   23.8217 C   0  0  0  0  0  0
  -21.3670   -5.6785   24.9177 C   0  0  0  0  0  0
  -21.6046   -4.3049   24.7223 C   0  0  0  0  0  0
  -21.8826   -3.8144   23.4342 C   0  0  0  0  0  0
  -21.9194   -4.6955   22.3399 C   0  0  0  0  0  0
  -22.7819  -13.5201   21.1861 C   0  0  0  0  0  0
  -22.1654   -4.2142   21.0976 F   0  0  0  0  0  0
  -21.5637   -3.4536   25.7735 F   0  0  0  0  0  0
  -29.9969  -13.4384   20.4192 N   0  0  0  0  0  0
  -26.2950  -12.9348   20.3337 N   0  0  0  0  0  0
  -25.9303  -11.6507   20.5765 N   0  0  0  0  0  0
  -22.0480  -12.8188   22.0431 N   0  0  0  0  0  0
  -25.4149  -15.1881   20.4112 N   0  0  0  0  0  0
  -31.8422  -14.6916   20.1277 O   0  0  0  0  0  0
  -21.6644   -6.8868   21.4243 O   0  0  0  0  0  0
  -22.3506  -14.5511   20.6710 O   0  0  0  0  0  0
  -24.6220  -31.8612   23.1998 C   0  0  0  0  0  0
  -25.9057  -32.4810   23.8340 C   0  0  1  0  0  0
  -27.2313  -27.3442   20.1190 C   0  0  0  0  0  0
  -25.5867  -33.8602   24.2260 N   0  0  0  0  0  0
  -23.4157  -30.4789   21.5458 C   0  0  2  0  0  0
  -24.8646  -28.9281   20.1191 C   0  0  0  0  0  0
  -22.7453  -29.4609   22.4988 C   0  0  0  0  0  0
  -18.0263  -28.1377   22.8483 C   0  0  0  0  0  0
  -24.1483  -36.7309   23.2640 C   0  0  0  0  0  0
  -25.9515  -30.8005   21.3632 C   0  0  0  0  0  0
  -26.0319  -29.4261   20.7127 C   0  0  0  0  0  0
  -27.2227  -28.6462   20.6981 C   0  0  0  0  0  0
  -26.0446  -26.8839   19.5130 C   0  0  0  0  0  0
  -24.8703  -27.6611   19.5118 C   0  0  0  0  0  0
  -23.6300  -29.8029   20.1652 C   0  0  0  0  0  0
  -25.4112  -36.3107   24.0333 C   0  0  1  0  0  0
  -20.5861  -28.3661   23.1309 C   0  0  2  0  0  0
  -20.6753  -26.9392   22.5417 C   0  0  0  0  0  0
  -19.5740  -26.6378   21.5199 C   0  0  0  0  0  0
  -18.1914  -26.7917   22.1620 C   0  0  0  0  0  0
  -19.1517  -28.8832   23.2897 C   0  0  0  0  0  0
  -18.9453  -30.1435   23.8914 C   0  0  0  0  0  0
  -17.6460  -30.6590   24.0551 C   0  0  0  0  0  0
  -25.9045  -34.9479   23.5111 C   0  0  0  0  0  0
  -16.5347  -29.9091   23.6327 C   0  0  0  0  0  0
  -16.7254  -28.6504   23.0355 C   0  0  0  0  0  0
  -26.4442  -31.6619   25.0704 C   0  0  0  0  0  0
  -25.3659  -31.3760   26.1419 C   0  0  0  0  0  0
  -27.0274  -30.3057   24.6115 C   0  0  0  0  0  0
  -27.6019  -32.4335   25.7474 C   0  0  0  0  0  0
  -27.5590  -37.1796   24.8457 C   0  0  0  0  0  0
  -21.4168  -29.3027   22.3726 N   0  0  0  0  0  0
  -26.4294  -37.3802   23.9414 N   0  0  0  0  0  0
  -24.6826  -31.0624   22.0949 N   0  0  0  0  0  0
  -23.4193  -28.8157   23.3064 O   0  0  0  0  0  0
  -28.3607  -26.5255   20.1047 O   0  0  0  0  0  0
  -26.5648  -34.8938   22.4696 O   0  0  0  0  0  0
  -23.5392  -32.1390   23.7342 O   0  0  0  0  0  0
  -29.2377  -20.8105   19.6104 C   0  0  0  0  0  0
  -29.9559  -20.5953   21.8855 C   0  0  0  0  0  0
  -30.0259  -18.5806   20.4412 C   0  0  0  0  0  0
  -29.4988  -21.4571   20.8467 C   0  0  0  0  0  0
  -29.4900  -19.4152   19.4161 C   0  0  0  0  0  0
  -30.2529  -19.2187   21.6902 C   0  0  0  0  0  0
  -31.2696  -24.3232   20.6600 C   0  0  0  0  0  0
  -30.3049  -24.3256   19.4738 C   0  0  0  0  0  0
  -30.5947  -23.4301   21.7122 C   0  0  0  0  0  0
  -28.9685  -23.9283   20.0996 C   0  0  2  0  0  0
  -28.9145  -16.0057   21.7107 C   0  0  0  0  0  0
  -30.5387  -17.1188   20.1246 C   0  0  0  0  0  0
  -28.2531  -25.2066   20.7520 C   0  0  0  0  0  0
  -29.3848  -22.8795   21.0852 N   0  0  0  0  0  0
  -29.9953  -15.8373   20.7319 N   0  0  0  0  0  0
  -29.2669  -18.8876   18.1889 F   0  0  0  0  0  0
  -30.9850  -18.3566   22.9994 Cl  0  0  0  0  0  0
  -31.4646  -12.5163   19.1331 H   0  0  0  0  0  0
  -30.3640  -11.4064   19.8819 H   0  0  0  0  0  0
  -29.7595  -11.7538   17.4778 H   0  0  0  0  0  0
  -29.6444  -13.4797   17.7313 H   0  0  0  0  0  0
  -27.8501  -11.3007   18.8473 H   0  0  0  0  0  0
  -27.3656  -12.5979   17.7849 H   0  0  0  0  0  0
  -27.6707  -14.2517   19.5314 H   0  0  0  0  0  0
  -28.7350  -11.9876   21.2878 H   0  0  0  0  0  0
  -28.4273  -13.5545   21.8929 H   0  0  0  0  0  0
  -25.2753   -9.5699   22.4734 H   0  0  0  0  0  0
  -24.0013   -7.4641   22.7471 H   0  0  0  0  0  0
  -21.0837   -8.8765   19.8932 H   0  0  0  0  0  0
  -22.3695  -10.9663   19.6158 H   0  0  0  0  0  0
  -21.2008   -7.6140   23.9722 H   0  0  0  0  0  0
  -21.1483   -6.0508   25.9083 H   0  0  0  0  0  0
  -22.0596   -2.7602   23.2845 H   0  0  0  0  0  0
  -22.4103  -11.9840   22.4794 H   0  0  0  0  0  0
  -21.1103  -13.1207   22.2653 H   0  0  0  0  0  0
  -24.6429  -15.8340   20.5389 H   0  0  0  0  0  0
  -26.2587  -15.6404   20.0848 H   0  0  0  0  0  0
  -26.7120  -32.5492   23.1098 H   0  0  0  0  0  0
  -24.9926  -33.9749   25.0341 H   0  0  0  0  0  0
  -22.7082  -31.2975   21.3981 H   0  0  0  0  0  0
  -23.3764  -35.9621   23.3291 H   0  0  0  0  0  0
  -24.3572  -36.8947   22.2055 H   0  0  0  0  0  0
  -23.7206  -37.6495   23.6671 H   0  0  0  0  0  0
  -26.0636  -31.5602   20.5888 H   0  0  0  0  0  0
  -26.8390  -30.8642   21.9815 H   0  0  0  0  0  0
  -28.1265  -29.0271   21.1524 H   0  0  0  0  0  0
  -26.0250  -25.9106   19.0424 H   0  0  0  0  0  0
  -23.9735  -27.2725   19.0500 H   0  0  0  0  0  0
  -23.7438  -30.5714   19.4003 H   0  0  0  0  0  0
  -22.7523  -29.2241   19.8706 H   0  0  0  0  0  0
  -25.1290  -36.1971   25.0829 H   0  0  0  0  0  0
  -20.9934  -28.3204   24.1437 H   0  0  0  0  0  0
  -20.5607  -26.2267   23.3605 H   0  0  0  0  0  0
  -21.6630  -26.7401   22.1236 H   0  0  0  0  0  0
  -19.6902  -25.6283   21.1232 H   0  0  0  0  0  0
  -19.6689  -27.3187   20.6724 H   0  0  0  0  0  0
  -17.4178  -26.6634   21.4035 H   0  0  0  0  0  0
  -18.0346  -26.0058   22.9021 H   0  0  0  0  0  0
  -19.7933  -30.7225   24.2319 H   0  0  0  0  0  0
  -17.5025  -31.6278   24.5139 H   0  0  0  0  0  0
  -15.5355  -30.3014   23.7637 H   0  0  0  0  0  0
  -15.8646  -28.0828   22.7091 H   0  0  0  0  0  0
  -24.5836  -30.7119   25.7720 H   0  0  0  0  0  0
  -24.8836  -32.2931   26.4820 H   0  0  0  0  0  0
  -25.7952  -30.8936   27.0206 H   0  0  0  0  0  0
  -26.2829  -29.6842   24.1125 H   0  0  0  0  0  0
  -27.3981  -29.7291   25.4597 H   0  0  0  0  0  0
  -27.8692  -30.4385   23.9314 H   0  0  0  0  0  0
  -27.2654  -33.3644   26.2056 H   0  0  0  0  0  0
  -28.3829  -32.6877   25.0292 H   0  0  0  0  0  0
  -28.0676  -31.8438   26.5382 H   0  0  0  0  0  0
  -28.2589  -38.0115   24.7561 H   0  0  0  0  0  0
  -28.1110  -36.2652   24.6222 H   0  0  0  0  0  0
  -27.2313  -37.1369   25.8860 H   0  0  0  0  0  0
  -20.9338  -29.8787   21.6972 H   0  0  0  0  0  0
  -26.0190  -38.2878   24.1444 H   0  0  0  0  0  0
  -28.8784  -21.3827   18.7688 H   0  0  0  0  0  0
  -30.1460  -21.0049   22.8678 H   0  0  0  0  0  0
  -31.4025  -25.3304   21.0573 H   0  0  0  0  0  0
  -32.2540  -23.9523   20.3717 H   0  0  0  0  0  0
  -30.6039  -23.5645   18.7514 H   0  0  0  0  0  0
  -30.2779  -25.2779   18.9432 H   0  0  0  0  0  0
  -30.3192  -24.0119   22.5926 H   0  0  0  0  0  0
  -31.3142  -22.6849   22.0539 H   0  0  0  0  0  0
  -28.3148  -23.5162   19.3305 H   0  0  0  0  0  0
  -29.1292  -15.4508   22.6242 H   0  0  0  0  0  0
  -27.9672  -15.6726   21.2978 H   0  0  0  0  0  0
  -28.7506  -17.0306   22.0267 H   0  0  0  0  0  0
  -31.6065  -17.1594   20.3437 H   0  0  0  0  0  0
  -30.4964  -16.9781   19.0435 H   0  0  0  0  0  0
  -28.6701  -25.3730   21.7446 H   0  0  0  0  0  0
  -27.2113  -24.9478   20.9411 H   0  0  0  0  0  0
  1 25  1  0  0  0
  1 30  2  0  0  0
  1 85  1  0  0  0
  2  3  1  0  0  0
  2 25  1  0  0  0
  2 88  1  0  0  0
  2 89  1  0  0  0
  3  4  1  0  0  0
  3 90  1  0  0  0
  3 91  1  0  0  0
  4  5  1  0  0  0
  4 92  1  0  0  0
  4 93  1  0  0  0
  5  6  1  0  0  0
  5 26  1  0  0  0
  5 94  1  0  0  0
  6 25  1  0  0  0
  6 95  1  0  0  0
  6 96  1  0  0  0
  7  8  2  0  0  0
  7 26  1  0  0  0
  7 29  1  0  0  0
  8  9  1  0  0  0
  8 22  1  0  0  0
  9 10  1  0  0  0
  9 27  2  0  0  0
 10 11  2  0  0  0
 10 15  1  0  0  0
 11 12  1  0  0  0
 11 97  1  0  0  0
 12 13  2  0  0  0
 12 98  1  0  0  0
 13 14  1  0  0  0
 13 31  1  0  0  0
 14 15  2  0  0  0
 14 99  1  0  0  0
 15100  1  0  0  0
 16 17  2  0  0  0
 16 21  1  0  0  0
 16 31  1  0  0  0
 17 18  1  0  0  0
 17101  1  0  0  0
 18 19  2  0  0  0
 18102  1  0  0  0
 19 20  1  0  0  0
 19 24  1  0  0  0
 20 21  2  0  0  0
 20103  1  0  0  0
 21 23  1  0  0  0
 22 28  1  0  0  0
 22 32  2  0  0  0
 26 27  1  0  0  0
 28104  1  0  0  0
 28105  1  0  0  0
 29106  1  0  0  0
 29107  1  0  0  0
 33 34  1  0  0  0
 33 66  1  0  0  0
 33 70  2  0  0  0
 34 36  1  0  0  0
 34 59  1  0  0  0
 34108  1  0  0  0
 35 44  2  0  0  0
 35 45  1  0  0  0
 35 68  1  0  0  0
 36 56  1  0  0  0
 36109  1  0  0  0
 37 39  1  0  0  0
 37 47  1  0  0  0
 37 66  1  0  0  0
 37110  1  0  0  0
 38 43  2  0  0  0
 38 46  1  0  0  0
 38 47  1  0  0  0
 39 64  1  0  0  0
 39 67  2  0  0  0
 40 52  1  0  0  0
 40 53  2  0  0  0
 40 58  1  0  0  0
 41111  1  0  0  0
 41112  1  0  0  0
 41113  1  0  0  0
 41 48  1  0  0  0
 42 43  1  0  0  0
 42 66  1  0  0  0
 42114  1  0  0  0
 42115  1  0  0  0
 43 44  1  0  0  0
 44116  1  0  0  0
 45 46  2  0  0  0
 45117  1  0  0  0
 46118  1  0  0  0
 47119  1  0  0  0
 47120  1  0  0  0
 48 56  1  0  0  0
 48 65  1  0  0  0
 48121  1  0  0  0
 49 50  1  0  0  0
 49 53  1  0  0  0
 49 64  1  0  0  0
 49122  1  0  0  0
 50 51  1  0  0  0
 50123  1  0  0  0
 50124  1  0  0  0
 51 52  1  0  0  0
 51125  1  0  0  0
 51126  1  0  0  0
 52127  1  0  0  0
 52128  1  0  0  0
 53 54  1  0  0  0
 54 55  2  0  0  0
 54129  1  0  0  0
 55 57  1  0  0  0
 55130  1  0  0  0
 56 69  2  0  0  0
 57 58  2  0  0  0
 57131  1  0  0  0
 58132  1  0  0  0
 59 60  1  0  0  0
 59 61  1  0  0  0
 59 62  1  0  0  0
 60133  1  0  0  0
 60134  1  0  0  0
 60135  1  0  0  0
 61136  1  0  0  0
 61137  1  0  0  0
 61138  1  0  0  0
 62139  1  0  0  0
 62140  1  0  0  0
 62141  1  0  0  0
 63 65  1  0  0  0
 63142  1  0  0  0
 63143  1  0  0  0
 63144  1  0  0  0
 64145  1  0  0  0
 65146  1  0  0  0
 68 83  1  0  0  0
 71 74  2  0  0  0
 71 75  1  0  0  0
 71147  1  0  0  0
 72 74  1  0  0  0
 72 76  2  0  0  0
 72148  1  0  0  0
 73 75  2  0  0  0
 73 76  1  0  0  0
 73 82  1  0  0  0
 74 84  1  0  0  0
 75 86  1  0  0  0
 76 87  1  0  0  0
 77 78  1  0  0  0
 77 79  1  0  0  0
 77149  1  0  0  0
 77150  1  0  0  0
 78 80  1  0  0  0
 78151  1  0  0  0
 78152  1  0  0  0
 79 84  1  0  0  0
 79153  1  0  0  0
 79154  1  0  0  0
 80 83  1  0  0  0
 80 84  1  0  0  0
 80155  1  0  0  0
 81 85  1  0  0  0
 81156  1  0  0  0
 81157  1  0  0  0
 81158  1  0  0  0
 82 85  1  0  0  0
 82159  1  0  0  0
 82160  1  0  0  0
 83161  1  0  0  0
 83162  1  0  0  0
M  ISO  4   1 100  68 101  83 101  85 100
M  END
> <chiral flag>
0

> <version>
0

> <s_m_source_file>
/data/baiqing/PycharmProjects/Reinvent-master-3.2/result/LINK_invent/BTK/process_docking_weight1_custom_product_contain_oxygen_bond_distance_aromatic_linkinvent_7_9_3/rearranged_h_0025.sdf

> <i_m_source_file_index>
92

> <r_mmod_Potential_Energy-OPLS-2005>
350.637634277344

> <r_mmod_Stretch_Energy-OPLS-2005>
87.6271362304688

> <r_mmod_Bend_Energy-OPLS-2005>
200.343811035156

> <r_mmod_Torsional_Energy-OPLS-2005>
343.579498291016

> <r_mmod_Improper_Torsional_Energy-OPLS-2005>
15.8612651824951

> <r_mmod_Van_der_Waal_Energy-OPLS-2005>
161.028778076172

> <r_mmod_Electrostatic_Energy-OPLS-2005>
-296.116485595703

> <r_mmod_Solvation_Energy-OPLS-2005>
-201.109161376953

> <b_mmod_Minimization_Converged-OPLS-2005>
0

> <r_mmod_RMS_Derivative-OPLS-2005>
2.47137856483459

$$$$
92
                    3D
 Structure written by MMmdl.
152160  0  0  1  0            999 V2000
  -30.5239  -14.9160   20.3767 C   0  0  0  0  0  0
  -30.4506  -12.5548   19.4771 C   0  0  0  0  0  0
  -29.5236  -12.5269   18.2402 C   0  0  0  0  0  0
  -28.0532  -12.3159   18.6602 C   0  0  0  0  0  0
  -27.6361  -13.2309   19.8425 C   0  0  2  0  0  0
  -28.6886  -13.2331   20.9730 C   0  0  0  0  0  0
  -25.2476  -13.8103   20.5775 C   0  0  0  0  0  0
  -24.1770  -13.0355   20.9227 C   0  0  0  0  0  0
  -24.6383  -11.6851   20.8737 C   0  0  0  0  0  0
  -23.9050  -10.4242   21.0402 C   0  0  0  0  0  0
  -24.3601   -9.4168   21.9184 C   0  0  0  0  0  0
  -23.6264   -8.2204   22.0739 C   0  0  0  0  0  0
  -22.4234   -8.0259   21.3545 C   0  0  0  0  0  0
  -21.9890   -9.0228   20.4639 C   0  0  0  0  0  0
  -22.7220  -10.2106   20.3053 C   0  0  0  0  0  0
  -21.6867   -6.0722   22.5274 C   0  0  0  0  0  0
  -21.4013   -6.5622   23.8206 C   0  0  0  0  0  0
  -21.3660   -5.6779   24.9165 C   0  0  0  0  0  0
  -21.6044   -4.3033   24.7220 C   0  0  0  0  0  0
  -21.8815   -3.8136   23.4344 C   0  0  0  0  0  0
  -21.9182   -4.6958   22.3405 C   0  0  0  0  0  0
  -22.7805  -13.5170   21.1881 C   0  0  0  0  0  0
  -22.1657   -4.2153   21.0983 F   0  0  0  0  0  0
  -21.5638   -3.4511   25.7733 F   0  0  0  0  0  0
  -29.9687  -13.6393   20.3695 N   0  0  0  0  0  0
  -26.2924  -12.9342   20.3272 N   0  0  0  0  0  0
  -25.9306  -11.6481   20.5704 N   0  0  0  0  0  0
  -22.0424  -12.8190   22.0443 N   0  0  0  0  0  0
  -25.4062  -15.1820   20.4309 N   0  0  0  0  0  0
  -31.7264  -15.0354   20.1240 O   0  0  0  0  0  0
  -21.6606   -6.8864   21.4234 O   0  0  0  0  0  0
  -22.3503  -14.5479   20.6727 O   0  0  0  0  0  0
  -24.6424  -31.8457   23.1899 C   0  0  0  0  0  0
  -25.9219  -32.4688   23.8279 C   0  0  1  0  0  0
  -27.2295  -27.1707   20.1287 C   0  0  0  0  0  0
  -25.5970  -33.8486   24.2185 N   0  0  0  0  0  0
  -23.4432  -30.4656   21.5340 C   0  0  2  0  0  0
  -24.8930  -28.8966   20.1065 C   0  0  0  0  0  0
  -22.7563  -29.4554   22.4867 C   0  0  0  0  0  0
  -18.0309  -28.1378   22.8480 C   0  0  0  0  0  0
  -24.1495  -36.7261   23.2637 C   0  0  0  0  0  0
  -25.9972  -30.7254   21.3887 C   0  0  0  0  0  0
  -26.0696  -29.3427   20.7241 C   0  0  0  0  0  0
  -27.2365  -28.4931   20.7223 C   0  0  0  0  0  0
  -26.0242  -26.8205   19.4777 C   0  0  0  0  0  0
  -24.8829  -27.6482   19.4680 C   0  0  0  0  0  0
  -23.6684  -29.7955   20.1512 C   0  0  0  0  0  0
  -25.4120  -36.3015   24.0308 C   0  0  1  0  0  0
  -20.5919  -28.3698   23.1234 C   0  0  2  0  0  0
  -20.6791  -26.9401   22.5394 C   0  0  0  0  0  0
  -19.5764  -26.6367   21.5207 C   0  0  0  0  0  0
  -18.1952  -26.7921   22.1620 C   0  0  0  0  0  0
  -19.1571  -28.8865   23.2849 C   0  0  0  0  0  0
  -18.9480  -30.1467   23.8857 C   0  0  0  0  0  0
  -17.6479  -30.6577   24.0557 C   0  0  0  0  0  0
  -25.9067  -34.9395   23.5043 C   0  0  0  0  0  0
  -16.5371  -29.9062   23.6330 C   0  0  0  0  0  0
  -16.7300  -28.6482   23.0353 C   0  0  0  0  0  0
  -26.4526  -31.6566   25.0733 C   0  0  0  0  0  0
  -25.3701  -31.3812   26.1433 C   0  0  0  0  0  0
  -27.0370  -30.2941   24.6345 C   0  0  0  0  0  0
  -27.6029  -32.4354   25.7528 C   0  0  0  0  0  0
  -27.5576  -37.1786   24.8452 C   0  0  0  0  0  0
  -21.4269  -29.3035   22.3617 N   0  0  0  0  0  0
  -26.4278  -37.3739   23.9405 N   0  0  0  0  0  0
  -24.7129  -31.0337   22.0924 N   0  0  0  0  0  0
  -23.4227  -28.8101   23.3013 O   0  0  0  0  0  0
  -28.3019  -26.2129   20.1869 O   0  0  0  0  0  0
  -26.5643  -34.8905   22.4613 O   0  0  0  0  0  0
  -23.5547  -32.1319   23.7126 O   0  0  0  0  0  0
  -28.2337  -19.5380   19.4829 C   0  0  0  0  0  0
  -30.4674  -18.5478   20.7604 C   0  0  0  0  0  0
  -28.5028  -18.1210   19.5137 C   0  0  0  0  0  0
  -29.0390  -20.5642   20.0624 C   0  0  0  0  0  0
  -29.6054  -17.5254   20.2176 C   0  0  0  0  0  0
  -30.2112  -19.9893   20.6839 C   0  0  0  0  0  0
  -27.5539  -17.2519   18.7100 C   0  0  0  0  0  0
  -29.0558  -23.3990   20.2442 C   0  0  0  0  0  0
  -28.0566  -24.7088   19.9241 C   0  0  0  0  0  0
  -29.6356  -16.0118   20.4535 N   0  0  0  0  0  0
  -28.5529  -21.9629   19.9497 N   0  0  0  0  0  0
  -31.3622  -21.0470   21.4191 Cl  0  0  0  0  0  0
  -31.4861  -12.7111   19.1664 H   0  0  0  0  0  0
  -30.4313  -11.5924   19.9907 H   0  0  0  0  0  0
  -29.8318  -11.7431   17.5465 H   0  0  0  0  0  0
  -29.6145  -13.4694   17.6955 H   0  0  0  0  0  0
  -27.9369  -11.2697   18.9488 H   0  0  0  0  0  0
  -27.3913  -12.4752   17.8080 H   0  0  0  0  0  0
  -27.6001  -14.2359   19.4275 H   0  0  0  0  0  0
  -28.7679  -12.2460   21.4321 H   0  0  0  0  0  0
  -28.3973  -13.9218   21.7683 H   0  0  0  0  0  0
  -25.2757   -9.5649   22.4743 H   0  0  0  0  0  0
  -23.9987   -7.4598   22.7455 H   0  0  0  0  0  0
  -21.0830   -8.8749   19.8945 H   0  0  0  0  0  0
  -22.3688  -10.9638   19.6155 H   0  0  0  0  0  0
  -21.2000   -7.6126   23.9719 H   0  0  0  0  0  0
  -21.1498   -6.0495   25.9074 H   0  0  0  0  0  0
  -22.0597   -2.7601   23.2830 H   0  0  0  0  0  0
  -22.4031  -11.9875   22.4896 H   0  0  0  0  0  0
  -21.1047  -13.1258   22.2632 H   0  0  0  0  0  0
  -24.6248  -15.8169   20.5426 H   0  0  0  0  0  0
  -26.2439  -15.6381   20.1023 H   0  0  0  0  0  0
  -26.7276  -32.5289   23.1001 H   0  0  0  0  0  0
  -25.0130  -33.9612   25.0338 H   0  0  0  0  0  0
  -22.7420  -31.2883   21.3817 H   0  0  0  0  0  0
  -23.3747  -35.9600   23.3273 H   0  0  0  0  0  0
  -24.3584  -36.8919   22.2055 H   0  0  0  0  0  0
  -23.7270  -37.6460   23.6690 H   0  0  0  0  0  0
  -26.1580  -31.4869   20.6258 H   0  0  0  0  0  0
  -26.8645  -30.7659   22.0348 H   0  0  0  0  0  0
  -28.1313  -28.8300   21.2272 H   0  0  0  0  0  0
  -25.9309  -25.8696   18.9747 H   0  0  0  0  0  0
  -23.9896  -27.3023   18.9644 H   0  0  0  0  0  0
  -23.7993  -30.5716   19.3956 H   0  0  0  0  0  0
  -22.7842  -29.2347   19.8427 H   0  0  0  0  0  0
  -25.1309  -36.1824   25.0797 H   0  0  0  0  0  0
  -21.0006  -28.3294   24.1365 H   0  0  0  0  0  0
  -20.5678  -26.2324   23.3626 H   0  0  0  0  0  0
  -21.6661  -26.7410   22.1206 H   0  0  0  0  0  0
  -19.6916  -25.6271   21.1276 H   0  0  0  0  0  0
  -19.6697  -27.3144   20.6711 H   0  0  0  0  0  0
  -17.4218  -26.6667   21.4031 H   0  0  0  0  0  0
  -18.0342  -26.0079   22.9023 H   0  0  0  0  0  0
  -19.7963  -30.7302   24.2200 H   0  0  0  0  0  0
  -17.5026  -31.6255   24.5159 H   0  0  0  0  0  0
  -15.5367  -30.2932   23.7683 H   0  0  0  0  0  0
  -15.8713  -28.0787   22.7063 H   0  0  0  0  0  0
  -24.5848  -30.7191   25.7791 H   0  0  0  0  0  0
  -24.8934  -32.3019   26.4793 H   0  0  0  0  0  0
  -25.7980  -30.9039   27.0251 H   0  0  0  0  0  0
  -26.2984  -29.6689   24.1321 H   0  0  0  0  0  0
  -27.3898  -29.7249   25.4955 H   0  0  0  0  0  0
  -27.8933  -30.4144   23.9709 H   0  0  0  0  0  0
  -27.2574  -33.3647   26.2064 H   0  0  0  0  0  0
  -28.3861  -32.6938   25.0395 H   0  0  0  0  0  0
  -28.0665  -31.8525   26.5496 H   0  0  0  0  0  0
  -28.2561  -38.0114   24.7492 H   0  0  0  0  0  0
  -28.1103  -36.2633   24.6257 H   0  0  0  0  0  0
  -27.2304  -37.1409   25.8862 H   0  0  0  0  0  0
  -20.9469  -29.8758   21.6812 H   0  0  0  0  0  0
  -26.0134  -38.2803   24.1407 H   0  0  0  0  0  0
  -27.3343  -19.8500   18.9695 H   0  0  0  0  0  0
  -31.3476  -18.2296   21.2947 H   0  0  0  0  0  0
  -27.3992  -17.6950   17.7264 H   0  0  0  0  0  0
  -26.5847  -17.1871   19.1980 H   0  0  0  0  0  0
  -27.9478  -16.2541   18.5317 H   0  0  0  0  0  0
  -29.3383  -23.4325   21.2966 H   0  0  0  0  0  0
  -29.9836  -23.5389   19.6859 H   0  0  0  0  0  0
  -27.1123  -24.4741   20.4206 H   0  0  0  0  0  0
  -27.8421  -24.6504   18.8560 H   0  0  0  0  0  0
  -28.7054  -15.6428   20.5683 H   0  0  0  0  0  0
  -27.6022  -21.9931   19.5895 H   0  0  0  0  0  0
  1 25  1  0  0  0
  1 30  2  0  0  0
  1 80  1  0  0  0
  2  3  1  0  0  0
  2 25  1  0  0  0
  2 83  1  0  0  0
  2 84  1  0  0  0
  3  4  1  0  0  0
  3 85  1  0  0  0
  3 86  1  0  0  0
  4  5  1  0  0  0
  4 87  1  0  0  0
  4 88  1  0  0  0
  5  6  1  0  0  0
  5 26  1  0  0  0
  5 89  1  0  0  0
  6 25  1  0  0  0
  6 90  1  0  0  0
  6 91  1  0  0  0
  7  8  2  0  0  0
  7 26  1  0  0  0
  7 29  1  0  0  0
  8  9  1  0  0  0
  8 22  1  0  0  0
  9 10  1  0  0  0
  9 27  2  0  0  0
 10 11  2  0  0  0
 10 15  1  0  0  0
 11 12  1  0  0  0
 11 92  1  0  0  0
 12 13  2  0  0  0
 12 93  1  0  0  0
 13 14  1  0  0  0
 13 31  1  0  0  0
 14 15  2  0  0  0
 14 94  1  0  0  0
 15 95  1  0  0  0
 16 17  2  0  0  0
 16 21  1  0  0  0
 16 31  1  0  0  0
 17 18  1  0  0  0
 17 96  1  0  0  0
 18 19  2  0  0  0
 18 97  1  0  0  0
 19 20  1  0  0  0
 19 24  1  0  0  0
 20 21  2  0  0  0
 20 98  1  0  0  0
 21 23  1  0  0  0
 22 28  1  0  0  0
 22 32  2  0  0  0
 26 27  1  0  0  0
 28 99  1  0  0  0
 28100  1  0  0  0
 29101  1  0  0  0
 29102  1  0  0  0
 33 34  1  0  0  0
 33 66  1  0  0  0
 33 70  2  0  0  0
 34 36  1  0  0  0
 34 59  1  0  0  0
 34103  1  0  0  0
 35 44  2  0  0  0
 35 45  1  0  0  0
 35 68  1  0  0  0
 36 56  1  0  0  0
 36104  1  0  0  0
 37 39  1  0  0  0
 37 47  1  0  0  0
 37 66  1  0  0  0
 37105  1  0  0  0
 38 43  2  0  0  0
 38 46  1  0  0  0
 38 47  1  0  0  0
 39 64  1  0  0  0
 39 67  2  0  0  0
 40 52  1  0  0  0
 40 53  2  0  0  0
 40 58  1  0  0  0
 41106  1  0  0  0
 41107  1  0  0  0
 41108  1  0  0  0
 41 48  1  0  0  0
 42 43  1  0  0  0
 42 66  1  0  0  0
 42109  1  0  0  0
 42110  1  0  0  0
 43 44  1  0  0  0
 44111  1  0  0  0
 45 46  2  0  0  0
 45112  1  0  0  0
 46113  1  0  0  0
 47114  1  0  0  0
 47115  1  0  0  0
 48 56  1  0  0  0
 48 65  1  0  0  0
 48116  1  0  0  0
 49 50  1  0  0  0
 49 53  1  0  0  0
 49 64  1  0  0  0
 49117  1  0  0  0
 50 51  1  0  0  0
 50118  1  0  0  0
 50119  1  0  0  0
 51 52  1  0  0  0
 51120  1  0  0  0
 51121  1  0  0  0
 52122  1  0  0  0
 52123  1  0  0  0
 53 54  1  0  0  0
 54 55  2  0  0  0
 54124  1  0  0  0
 55 57  1  0  0  0
 55125  1  0  0  0
 56 69  2  0  0  0
 57 58  2  0  0  0
 57126  1  0  0  0
 58127  1  0  0  0
 59 60  1  0  0  0
 59 61  1  0  0  0
 59 62  1  0  0  0
 60128  1  0  0  0
 60129  1  0  0  0
 60130  1  0  0  0
 61131  1  0  0  0
 61132  1  0  0  0
 61133  1  0  0  0
 62134  1  0  0  0
 62135  1  0  0  0
 62136  1  0  0  0
 63 65  1  0  0  0
 63137  1  0  0  0
 63138  1  0  0  0
 63139  1  0  0  0
 64140  1  0  0  0
 65141  1  0  0  0
 68 79  1  0  0  0
 71 73  2  0  0  0
 71 74  1  0  0  0
 71142  1  0  0  0
 72 75  2  0  0  0
 72 76  1  0  0  0
 72143  1  0  0  0
 73 75  1  0  0  0
 73 77  1  0  0  0
 74 76  2  0  0  0
 74 81  1  0  0  0
 75 80  1  0  0  0
 76 82  1  0  0  0
 77144  1  0  0  0
 77145  1  0  0  0
 77146  1  0  0  0
 78 79  1  0  0  0
 78 81  1  0  0  0
 78147  1  0  0  0
 78148  1  0  0  0
 79149  1  0  0  0
 79150  1  0  0  0
 80151  1  0  0  0
 81152  1  0  0  0
M  ISO  4   1 100  68 101  79 101  80 100
M  END
> <chiral flag>
0

> <version>
0

> <s_m_source_file>
/data/baiqing/PycharmProjects/Reinvent-master-3.2/result/LINK_invent/BTK/process_docking_weight1_custom_product_contain_oxygen_bond_distance_aromatic_linkinvent_7_9_3/rearranged_h_0025.sdf

> <i_m_source_file_index>
93

> <r_mmod_Potential_Energy-OPLS-2005>
444.617248535156

> <r_mmod_Stretch_Energy-OPLS-2005>
202.664184570312

> <r_mmod_Bend_Energy-OPLS-2005>
281.414215087891

> <r_mmod_Torsional_Energy-OPLS-2005>
223.437194824219

> <r_mmod_Improper_Torsional_Energy-OPLS-2005>
6.24590587615967

> <r_mmod_Van_der_Waal_Energy-OPLS-2005>
130.621368408203

> <r_mmod_Electrostatic_Energy-OPLS-2005>
-341.489593505859

> <r_mmod_Solvation_Energy-OPLS-2005>
-226.749359130859

> <b_mmod_Minimization_Converged-OPLS-2005>
0

> <r_mmod_RMS_Derivative-OPLS-2005>
4.0959849357605

$$$$
93
                    3D
 Structure written by MMmdl.
152160  0  0  1  0            999 V2000
  -30.5315  -14.9197   20.4245 C   0  0  0  0  0  0
  -30.4482  -12.5650   19.4964 C   0  0  0  0  0  0
  -29.5243  -12.5345   18.2556 C   0  0  0  0  0  0
  -28.0578  -12.3210   18.6745 C   0  0  0  0  0  0
  -27.6392  -13.2433   19.8483 C   0  0  2  0  0  0
  -28.6822  -13.2420   20.9878 C   0  0  0  0  0  0
  -25.2499  -13.8197   20.5690 C   0  0  0  0  0  0
  -24.1799  -13.0434   20.9189 C   0  0  0  0  0  0
  -24.6412  -11.6924   20.8754 C   0  0  0  0  0  0
  -23.9093  -10.4295   21.0423 C   0  0  0  0  0  0
  -24.3640   -9.4204   21.9196 C   0  0  0  0  0  0
  -23.6304   -8.2245   22.0765 C   0  0  0  0  0  0
  -22.4283   -8.0292   21.3555 C   0  0  0  0  0  0
  -21.9932   -9.0266   20.4650 C   0  0  0  0  0  0
  -22.7269  -10.2140   20.3063 C   0  0  0  0  0  0
  -21.6854   -6.0751   22.5277 C   0  0  0  0  0  0
  -21.4013   -6.5652   23.8208 C   0  0  0  0  0  0
  -21.3655   -5.6804   24.9168 C   0  0  0  0  0  0
  -21.6047   -4.3066   24.7216 C   0  0  0  0  0  0
  -21.8817   -3.8160   23.4336 C   0  0  0  0  0  0
  -21.9190   -4.6980   22.3396 C   0  0  0  0  0  0
  -22.7816  -13.5218   21.1850 C   0  0  0  0  0  0
  -22.1660   -4.2171   21.0971 F   0  0  0  0  0  0
  -21.5628   -3.4545   25.7727 F   0  0  0  0  0  0
  -29.9683  -13.6471   20.4012 N   0  0  0  0  0  0
  -26.2942  -12.9422   20.3287 N   0  0  0  0  0  0
  -25.9350  -11.6564   20.5767 N   0  0  0  0  0  0
  -22.0466  -12.8208   22.0405 N   0  0  0  0  0  0
  -25.4170  -15.1916   20.4097 N   0  0  0  0  0  0
  -31.7164  -15.0330   20.0913 O   0  0  0  0  0  0
  -21.6638   -6.8895   21.4242 O   0  0  0  0  0  0
  -22.3500  -14.5527   20.6702 O   0  0  0  0  0  0
  -24.6408  -31.8444   23.1918 C   0  0  0  0  0  0
  -25.9202  -32.4697   23.8275 C   0  0  1  0  0  0
  -27.2177  -27.1572   20.1374 C   0  0  0  0  0  0
  -25.5965  -33.8504   24.2201 N   0  0  0  0  0  0
  -23.4420  -30.4690   21.5345 C   0  0  2  0  0  0
  -24.8889  -28.8981   20.1094 C   0  0  0  0  0  0
  -22.7570  -29.4562   22.4855 C   0  0  0  0  0  0
  -18.0305  -28.1400   22.8434 C   0  0  0  0  0  0
  -24.1494  -36.7258   23.2648 C   0  0  0  0  0  0
  -25.9963  -30.7272   21.3851 C   0  0  0  0  0  0
  -26.0648  -29.3400   20.7253 C   0  0  0  0  0  0
  -27.2244  -28.4832   20.7292 C   0  0  0  0  0  0
  -26.0111  -26.8117   19.4854 C   0  0  0  0  0  0
  -24.8732  -27.6451   19.4813 C   0  0  0  0  0  0
  -23.6683  -29.8023   20.1515 C   0  0  0  0  0  0
  -25.4115  -36.3034   24.0332 C   0  0  1  0  0  0
  -20.5911  -28.3717   23.1231 C   0  0  2  0  0  0
  -20.6788  -26.9422   22.5407 C   0  0  0  0  0  0
  -19.5772  -26.6375   21.5202 C   0  0  0  0  0  0
  -18.1948  -26.7931   22.1593 C   0  0  0  0  0  0
  -19.1559  -28.8867   23.2821 C   0  0  0  0  0  0
  -18.9490  -30.1457   23.8853 C   0  0  0  0  0  0
  -17.6491  -30.6582   24.0550 C   0  0  0  0  0  0
  -25.9077  -34.9415   23.5076 C   0  0  0  0  0  0
  -16.5376  -29.9077   23.6335 C   0  0  0  0  0  0
  -16.7292  -28.6516   23.0320 C   0  0  0  0  0  0
  -26.4532  -31.6550   25.0707 C   0  0  0  0  0  0
  -25.3729  -31.3746   26.1414 C   0  0  0  0  0  0
  -27.0411  -30.2958   24.6268 C   0  0  0  0  0  0
  -27.6050  -32.4319   25.7484 C   0  0  0  0  0  0
  -27.5576  -37.1770   24.8465 C   0  0  0  0  0  0
  -21.4267  -29.3053   22.3628 N   0  0  0  0  0  0
  -26.4266  -37.3756   23.9437 N   0  0  0  0  0  0
  -24.7128  -31.0335   22.0927 N   0  0  0  0  0  0
  -23.4234  -28.8125   23.2999 O   0  0  0  0  0  0
  -28.2958  -26.2098   20.2416 O   0  0  0  0  0  0
  -26.5653  -34.8923   22.4646 O   0  0  0  0  0  0
  -23.5541  -32.1287   23.7173 O   0  0  0  0  0  0
  -30.5032  -19.7735   19.5581 C   0  0  0  0  0  0
  -30.6280  -18.3394   19.7425 C   0  0  0  0  0  0
  -28.5898  -19.8432   20.9119 C   0  0  0  0  0  0
  -29.4868  -20.6414   20.1244 C   0  0  0  0  0  0
  -29.7148  -17.5549   20.5096 C   0  0  0  0  0  0
  -28.6912  -18.3967   21.0848 C   0  0  0  0  0  0
  -30.6146  -22.5805   19.1388 C   0  0  0  0  0  0
  -28.6711  -23.3200   20.5236 C   0  0  0  0  0  0
  -28.3157  -24.7551   19.7015 C   0  0  0  0  0  0
  -29.6997  -16.0332   20.6859 N   0  0  0  0  0  0
  -29.4243  -22.1222   19.8616 N   0  0  0  0  0  0
  -27.4825  -17.6234   22.0480 Cl  0  0  0  0  0  0
  -31.4831  -12.7217   19.1880 H   0  0  0  0  0  0
  -30.4329  -11.6045   20.0134 H   0  0  0  0  0  0
  -29.8369  -11.7468   17.5693 H   0  0  0  0  0  0
  -29.6142  -13.4727   17.7049 H   0  0  0  0  0  0
  -27.9509  -11.2780   18.9749 H   0  0  0  0  0  0
  -27.3924  -12.4618   17.8223 H   0  0  0  0  0  0
  -27.6117  -14.2509   19.4329 H   0  0  0  0  0  0
  -28.7579  -12.2585   21.4531 H   0  0  0  0  0  0
  -28.3840  -13.9314   21.7791 H   0  0  0  0  0  0
  -25.2784   -9.5678   22.4770 H   0  0  0  0  0  0
  -24.0011   -7.4639   22.7492 H   0  0  0  0  0  0
  -21.0863   -8.8797   19.8953 H   0  0  0  0  0  0
  -22.3740  -10.9688   19.6177 H   0  0  0  0  0  0
  -21.2006   -7.6161   23.9724 H   0  0  0  0  0  0
  -21.1479   -6.0526   25.9074 H   0  0  0  0  0  0
  -22.0601   -2.7625   23.2823 H   0  0  0  0  0  0
  -22.4083  -11.9862   22.4782 H   0  0  0  0  0  0
  -21.1092  -13.1249   22.2640 H   0  0  0  0  0  0
  -24.6566  -15.8478   20.5418 H   0  0  0  0  0  0
  -26.2751  -15.6391   20.1180 H   0  0  0  0  0  0
  -26.7259  -32.5298   23.0995 H   0  0  0  0  0  0
  -25.0109  -33.9611   25.0345 H   0  0  0  0  0  0
  -22.7412  -31.2941   21.3836 H   0  0  0  0  0  0
  -23.3771  -35.9570   23.3263 H   0  0  0  0  0  0
  -24.3592  -36.8925   22.2077 H   0  0  0  0  0  0
  -23.7247  -37.6448   23.6694 H   0  0  0  0  0  0
  -26.1508  -31.4854   20.6149 H   0  0  0  0  0  0
  -26.8689  -30.7734   22.0255 H   0  0  0  0  0  0
  -28.1169  -28.8166   21.2403 H   0  0  0  0  0  0
  -25.8880  -25.8604   18.9980 H   0  0  0  0  0  0
  -23.9721  -27.2959   18.9972 H   0  0  0  0  0  0
  -23.8151  -30.5802   19.4009 H   0  0  0  0  0  0
  -22.7804  -29.2549   19.8314 H   0  0  0  0  0  0
  -25.1298  -36.1849   25.0825 H   0  0  0  0  0  0
  -20.9958  -28.3293   24.1367 H   0  0  0  0  0  0
  -20.5675  -26.2332   23.3628 H   0  0  0  0  0  0
  -21.6654  -26.7431   22.1211 H   0  0  0  0  0  0
  -19.6952  -25.6290   21.1234 H   0  0  0  0  0  0
  -19.6716  -27.3169   20.6725 H   0  0  0  0  0  0
  -17.4226  -26.6661   21.3997 H   0  0  0  0  0  0
  -18.0331  -26.0094   22.9007 H   0  0  0  0  0  0
  -19.7986  -30.7263   24.2197 H   0  0  0  0  0  0
  -17.5070  -31.6257   24.5168 H   0  0  0  0  0  0
  -15.5381  -30.2966   23.7708 H   0  0  0  0  0  0
  -15.8694  -28.0846   22.7015 H   0  0  0  0  0  0
  -24.5924  -30.7064   25.7753 H   0  0  0  0  0  0
  -24.8902  -32.2934   26.4749 H   0  0  0  0  0  0
  -25.8011  -30.9001   27.0245 H   0  0  0  0  0  0
  -26.3037  -29.6657   24.1273 H   0  0  0  0  0  0
  -27.4070  -29.7286   25.4832 H   0  0  0  0  0  0
  -27.8905  -30.4234   23.9551 H   0  0  0  0  0  0
  -27.2642  -33.3654   26.1959 H   0  0  0  0  0  0
  -28.3883  -32.6794   25.0316 H   0  0  0  0  0  0
  -28.0663  -31.8512   26.5480 H   0  0  0  0  0  0
  -28.2542  -38.0114   24.7540 H   0  0  0  0  0  0
  -28.1124  -36.2643   24.6214 H   0  0  0  0  0  0
  -27.2310  -37.1324   25.8872 H   0  0  0  0  0  0
  -20.9483  -29.8812   21.6847 H   0  0  0  0  0  0
  -26.0140  -38.2819   24.1458 H   0  0  0  0  0  0
  -31.2620  -20.1918   18.9159 H   0  0  0  0  0  0
  -31.4497  -17.8373   19.2531 H   0  0  0  0  0  0
  -27.7650  -20.3416   21.3999 H   0  0  0  0  0  0
  -30.5966  -22.2336   18.1045 H   0  0  0  0  0  0
  -31.5269  -22.2202   19.6163 H   0  0  0  0  0  0
  -30.7209  -23.6624   19.1102 H   0  0  0  0  0  0
  -27.7335  -22.9367   20.9286 H   0  0  0  0  0  0
  -29.2560  -23.5946   21.4012 H   0  0  0  0  0  0
  -27.4028  -24.5412   19.1562 H   0  0  0  0  0  0
  -29.0363  -24.8498   18.8927 H   0  0  0  0  0  0
  -28.8146  -15.7186   21.0554 H   0  0  0  0  0  0
  1 25  1  0  0  0
  1 30  2  0  0  0
  1 80  1  0  0  0
  2  3  1  0  0  0
  2 25  1  0  0  0
  2 83  1  0  0  0
  2 84  1  0  0  0
  3  4  1  0  0  0
  3 85  1  0  0  0
  3 86  1  0  0  0
  4  5  1  0  0  0
  4 87  1  0  0  0
  4 88  1  0  0  0
  5  6  1  0  0  0
  5 26  1  0  0  0
  5 89  1  0  0  0
  6 25  1  0  0  0
  6 90  1  0  0  0
  6 91  1  0  0  0
  7  8  2  0  0  0
  7 26  1  0  0  0
  7 29  1  0  0  0
  8  9  1  0  0  0
  8 22  1  0  0  0
  9 10  1  0  0  0
  9 27  2  0  0  0
 10 11  2  0  0  0
 10 15  1  0  0  0
 11 12  1  0  0  0
 11 92  1  0  0  0
 12 13  2  0  0  0
 12 93  1  0  0  0
 13 14  1  0  0  0
 13 31  1  0  0  0
 14 15  2  0  0  0
 14 94  1  0  0  0
 15 95  1  0  0  0
 16 17  2  0  0  0
 16 21  1  0  0  0
 16 31  1  0  0  0
 17 18  1  0  0  0
 17 96  1  0  0  0
 18 19  2  0  0  0
 18 97  1  0  0  0
 19 20  1  0  0  0
 19 24  1  0  0  0
 20 21  2  0  0  0
 20 98  1  0  0  0
 21 23  1  0  0  0
 22 28  1  0  0  0
 22 32  2  0  0  0
 26 27  1  0  0  0
 28 99  1  0  0  0
 28100  1  0  0  0
 29101  1  0  0  0
 29102  1  0  0  0
 33 34  1  0  0  0
 33 66  1  0  0  0
 33 70  2  0  0  0
 34 36  1  0  0  0
 34 59  1  0  0  0
 34103  1  0  0  0
 35 44  2  0  0  0
 35 45  1  0  0  0
 35 68  1  0  0  0
 36 56  1  0  0  0
 36104  1  0  0  0
 37 39  1  0  0  0
 37 47  1  0  0  0
 37 66  1  0  0  0
 37105  1  0  0  0
 38 43  2  0  0  0
 38 46  1  0  0  0
 38 47  1  0  0  0
 39 64  1  0  0  0
 39 67  2  0  0  0
 40 52  1  0  0  0
 40 53  2  0  0  0
 40 58  1  0  0  0
 41106  1  0  0  0
 41107  1  0  0  0
 41108  1  0  0  0
 41 48  1  0  0  0
 42 43  1  0  0  0
 42 66  1  0  0  0
 42109  1  0  0  0
 42110  1  0  0  0
 43 44  1  0  0  0
 44111  1  0  0  0
 45 46  2  0  0  0
 45112  1  0  0  0
 46113  1  0  0  0
 47114  1  0  0  0
 47115  1  0  0  0
 48 56  1  0  0  0
 48 65  1  0  0  0
 48116  1  0  0  0
 49 50  1  0  0  0
 49 53  1  0  0  0
 49 64  1  0  0  0
 49117  1  0  0  0
 50 51  1  0  0  0
 50118  1  0  0  0
 50119  1  0  0  0
 51 52  1  0  0  0
 51120  1  0  0  0
 51121  1  0  0  0
 52122  1  0  0  0
 52123  1  0  0  0
 53 54  1  0  0  0
 54 55  2  0  0  0
 54124  1  0  0  0
 55 57  1  0  0  0
 55125  1  0  0  0
 56 69  2  0  0  0
 57 58  2  0  0  0
 57126  1  0  0  0
 58127  1  0  0  0
 59 60  1  0  0  0
 59 61  1  0  0  0
 59 62  1  0  0  0
 60128  1  0  0  0
 60129  1  0  0  0
 60130  1  0  0  0
 61131  1  0  0  0
 61132  1  0  0  0
 61133  1  0  0  0
 62134  1  0  0  0
 62135  1  0  0  0
 62136  1  0  0  0
 63 65  1  0  0  0
 63137  1  0  0  0
 63138  1  0  0  0
 63139  1  0  0  0
 64140  1  0  0  0
 65141  1  0  0  0
 68 79  1  0  0  0
 71 72  2  0  0  0
 71 74  1  0  0  0
 71142  1  0  0  0
 72 75  1  0  0  0
 72143  1  0  0  0
 73 74  2  0  0  0
 73 76  1  0  0  0
 73144  1  0  0  0
 74 81  1  0  0  0
 75 76  2  0  0  0
 75 80  1  0  0  0
 76 82  1  0  0  0
 77 81  1  0  0  0
 77145  1  0  0  0
 77146  1  0  0  0
 77147  1  0  0  0
 78 79  1  0  0  0
 78 81  1  0  0  0
 78148  1  0  0  0
 78149  1  0  0  0
 79150  1  0  0  0
 79151  1  0  0  0
 80152  1  0  0  0
M  ISO  4   1 100  68 101  79 101  80 100
M  END
> <chiral flag>
0

> <version>
0

> <s_m_source_file>
/data/baiqing/PycharmProjects/Reinvent-master-3.2/result/LINK_invent/BTK/process_docking_weight1_custom_product_contain_oxygen_bond_distance_aromatic_linkinvent_7_9_3/rearranged_h_0025.sdf

> <i_m_source_file_index>
94

> <r_mmod_Potential_Energy-OPLS-2005>
419.340576171875

> <r_mmod_Stretch_Energy-OPLS-2005>
224.835601806641

> <r_mmod_Bend_Energy-OPLS-2005>
284.150177001953

> <r_mmod_Torsional_Energy-OPLS-2005>
203.694259643555

> <r_mmod_Improper_Torsional_Energy-OPLS-2005>
4.58849811553955

> <r_mmod_Van_der_Waal_Energy-OPLS-2005>
145.18830871582

> <r_mmod_Electrostatic_Energy-OPLS-2005>
-388.833129882812

> <r_mmod_Solvation_Energy-OPLS-2005>
-225.778060913086

> <b_mmod_Minimization_Converged-OPLS-2005>
0

> <r_mmod_RMS_Derivative-OPLS-2005>
2.39382147789001

$$$$
94
                    3D
 Structure written by MMmdl.
153162  0  0  1  0            999 V2000
  -30.6443  -14.7144   20.4981 C   0  0  0  0  0  0
  -30.4293  -12.4303   19.4931 C   0  0  0  0  0  0
  -29.5226  -12.5385   18.2474 C   0  0  0  0  0  0
  -28.0455  -12.3614   18.6476 C   0  0  0  0  0  0
  -27.6550  -13.2394   19.8671 C   0  0  2  0  0  0
  -28.6997  -13.1382   21.0049 C   0  0  0  0  0  0
  -25.2532  -13.8204   20.5696 C   0  0  0  0  0  0
  -24.1812  -13.0423   20.9196 C   0  0  0  0  0  0
  -24.6416  -11.6918   20.8725 C   0  0  0  0  0  0
  -23.9084  -10.4276   21.0386 C   0  0  0  0  0  0
  -24.3628   -9.4199   21.9174 C   0  0  0  0  0  0
  -23.6310   -8.2220   22.0741 C   0  0  0  0  0  0
  -22.4289   -8.0259   21.3540 C   0  0  0  0  0  0
  -21.9913   -9.0230   20.4636 C   0  0  0  0  0  0
  -22.7245  -10.2114   20.3042 C   0  0  0  0  0  0
  -21.6841   -6.0727   22.5287 C   0  0  0  0  0  0
  -21.4007   -6.5628   23.8228 C   0  0  0  0  0  0
  -21.3680   -5.6780   24.9190 C   0  0  0  0  0  0
  -21.6047   -4.3037   24.7227 C   0  0  0  0  0  0
  -21.8814   -3.8135   23.4341 C   0  0  0  0  0  0
  -21.9183   -4.6953   22.3409 C   0  0  0  0  0  0
  -22.7828  -13.5186   21.1874 C   0  0  0  0  0  0
  -22.1661   -4.2143   21.0986 F   0  0  0  0  0  0
  -21.5646   -3.4521   25.7739 F   0  0  0  0  0  0
  -30.0220  -13.4825   20.4521 N   0  0  0  0  0  0
  -26.2998  -12.9423   20.3334 N   0  0  0  0  0  0
  -25.9360  -11.6553   20.5741 N   0  0  0  0  0  0
  -22.0475  -12.8179   22.0422 N   0  0  0  0  0  0
  -25.4177  -15.1922   20.4184 N   0  0  0  0  0  0
  -31.7692  -14.8624   20.0134 O   0  0  0  0  0  0
  -21.6636   -6.8868   21.4251 O   0  0  0  0  0  0
  -22.3498  -14.5488   20.6727 O   0  0  0  0  0  0
  -24.6266  -31.8570   23.1991 C   0  0  0  0  0  0
  -25.9072  -32.4776   23.8372 C   0  0  1  0  0  0
  -27.2291  -27.2832   20.1130 C   0  0  0  0  0  0
  -25.5876  -33.8571   24.2295 N   0  0  0  0  0  0
  -23.4287  -30.4781   21.5412 C   0  0  2  0  0  0
  -24.8815  -28.9416   20.1008 C   0  0  0  0  0  0
  -22.7526  -29.4565   22.4884 C   0  0  0  0  0  0
  -18.0297  -28.1389   22.8506 C   0  0  0  0  0  0
  -24.1477  -36.7273   23.2646 C   0  0  0  0  0  0
  -25.9757  -30.7789   21.3775 C   0  0  0  0  0  0
  -26.0512  -29.4034   20.7161 C   0  0  0  0  0  0
  -27.2280  -28.5887   20.7088 C   0  0  0  0  0  0
  -26.0288  -26.8928   19.4709 C   0  0  0  0  0  0
  -24.8769  -27.6991   19.4557 C   0  0  0  0  0  0
  -23.6474  -29.8166   20.1556 C   0  0  0  0  0  0
  -25.4100  -36.3092   24.0356 C   0  0  1  0  0  0
  -20.5905  -28.3678   23.1298 C   0  0  2  0  0  0
  -20.6779  -26.9388   22.5445 C   0  0  0  0  0  0
  -19.5758  -26.6381   21.5242 C   0  0  0  0  0  0
  -18.1930  -26.7946   22.1635 C   0  0  0  0  0  0
  -19.1545  -28.8854   23.2905 C   0  0  0  0  0  0
  -18.9471  -30.1466   23.8918 C   0  0  0  0  0  0
  -17.6462  -30.6588   24.0570 C   0  0  0  0  0  0
  -25.9042  -34.9446   23.5145 C   0  0  0  0  0  0
  -16.5356  -29.9091   23.6320 C   0  0  0  0  0  0
  -16.7279  -28.6504   23.0348 C   0  0  0  0  0  0
  -26.4460  -31.6584   25.0723 C   0  0  0  0  0  0
  -25.3678  -31.3722   26.1440 C   0  0  0  0  0  0
  -27.0289  -30.3023   24.6128 C   0  0  0  0  0  0
  -27.6068  -32.4279   25.7466 C   0  0  0  0  0  0
  -27.5598  -37.1783   24.8457 C   0  0  0  0  0  0
  -21.4225  -29.3004   22.3658 N   0  0  0  0  0  0
  -26.4282  -37.3790   23.9438 N   0  0  0  0  0  0
  -24.6962  -31.0555   22.0955 N   0  0  0  0  0  0
  -23.4253  -28.8075   23.2935 O   0  0  0  0  0  0
  -28.3335  -26.3945   20.1610 O   0  0  0  0  0  0
  -26.5628  -34.8915   22.4720 O   0  0  0  0  0  0
  -23.5393  -32.1370   23.7260 O   0  0  0  0  0  0
  -30.1574  -19.3791   19.5321 C   0  0  0  0  0  0
  -30.3866  -17.9650   19.7006 C   0  0  0  0  0  0
  -29.1365  -19.4860   21.6506 C   0  0  0  0  0  0
  -29.4895  -20.2214   20.4804 C   0  0  0  0  0  0
  -29.9411  -17.2463   20.8493 C   0  0  0  0  0  0
  -29.3271  -18.0766   21.8297 C   0  0  0  0  0  0
  -29.3235  -22.5223   19.1385 C   0  0  0  0  0  0
  -29.2292  -22.7378   21.2594 C   0  0  0  0  0  0
  -29.2207  -23.7887   20.0835 C   0  0  0  0  0  0
  -28.1005  -24.9359   19.8892 C   0  0  0  0  0  0
  -29.0942  -21.6436   20.2908 N   0  0  0  0  0  0
  -29.9527  -15.7721   21.0496 N   0  0  0  0  0  0
  -28.7507  -17.3508   23.2893 Cl  0  0  0  0  0  0
  -31.4823  -12.5034   19.2240 H   0  0  0  0  0  0
  -30.3127  -11.4459   19.9494 H   0  0  0  0  0  0
  -29.8037  -11.7921   17.5033 H   0  0  0  0  0  0
  -29.6620  -13.5112   17.7739 H   0  0  0  0  0  0
  -27.9003  -11.3095   18.8954 H   0  0  0  0  0  0
  -27.3903  -12.5688   17.8004 H   0  0  0  0  0  0
  -27.6574  -14.2707   19.5130 H   0  0  0  0  0  0
  -28.7157  -12.1292   21.4160 H   0  0  0  0  0  0
  -28.4313  -13.7881   21.8378 H   0  0  0  0  0  0
  -25.2771   -9.5654   22.4763 H   0  0  0  0  0  0
  -24.0020   -7.4581   22.7436 H   0  0  0  0  0  0
  -21.0845   -8.8721   19.8940 H   0  0  0  0  0  0
  -22.3687  -10.9641   19.6143 H   0  0  0  0  0  0
  -21.1987   -7.6134   23.9723 H   0  0  0  0  0  0
  -21.1537   -6.0518   25.9103 H   0  0  0  0  0  0
  -22.0577   -2.7592   23.2836 H   0  0  0  0  0  0
  -22.4103  -11.9866   22.4848 H   0  0  0  0  0  0
  -21.1080  -13.1194   22.2612 H   0  0  0  0  0  0
  -24.6433  -15.8399   20.5209 H   0  0  0  0  0  0
  -26.2785  -15.6407   20.1295 H   0  0  0  0  0  0
  -26.7140  -32.5449   23.1126 H   0  0  0  0  0  0
  -24.9985  -33.9737   25.0423 H   0  0  0  0  0  0
  -22.7204  -31.2957   21.3943 H   0  0  0  0  0  0
  -23.3773  -35.9568   23.3255 H   0  0  0  0  0  0
  -24.3606  -36.8933   22.2076 H   0  0  0  0  0  0
  -23.7168  -37.6442   23.6673 H   0  0  0  0  0  0
  -26.1084  -31.5401   20.6077 H   0  0  0  0  0  0
  -26.8557  -30.8377   22.0062 H   0  0  0  0  0  0
  -28.1264  -28.9444   21.1927 H   0  0  0  0  0  0
  -25.9424  -25.9429   18.9723 H   0  0  0  0  0  0
  -23.9867  -27.3618   18.9431 H   0  0  0  0  0  0
  -23.7568  -30.5909   19.3953 H   0  0  0  0  0  0
  -22.7752  -29.2318   19.8593 H   0  0  0  0  0  0
  -25.1267  -36.1964   25.0853 H   0  0  0  0  0  0
  -21.0026  -28.3252   24.1410 H   0  0  0  0  0  0
  -20.5677  -26.2273   23.3647 H   0  0  0  0  0  0
  -21.6641  -26.7402   22.1230 H   0  0  0  0  0  0
  -19.6903  -25.6294   21.1260 H   0  0  0  0  0  0
  -19.6705  -27.3212   20.6787 H   0  0  0  0  0  0
  -17.4214  -26.6730   21.4012 H   0  0  0  0  0  0
  -18.0289  -26.0097   22.9031 H   0  0  0  0  0  0
  -19.7937  -30.7290   24.2294 H   0  0  0  0  0  0
  -17.5002  -31.6270   24.5173 H   0  0  0  0  0  0
  -15.5351  -30.2992   23.7627 H   0  0  0  0  0  0
  -15.8692  -28.0832   22.7026 H   0  0  0  0  0  0
  -24.5875  -30.7049   25.7754 H   0  0  0  0  0  0
  -24.8803  -32.2868   26.4820 H   0  0  0  0  0  0
  -25.7971  -30.8929   27.0248 H   0  0  0  0  0  0
  -26.2854  -29.6807   24.1115 H   0  0  0  0  0  0
  -27.4013  -29.7221   25.4585 H   0  0  0  0  0  0
  -27.8709  -30.4360   23.9331 H   0  0  0  0  0  0
  -27.2771  -33.3609   26.2045 H   0  0  0  0  0  0
  -28.3862  -32.6790   25.0256 H   0  0  0  0  0  0
  -28.0751  -31.8376   26.5360 H   0  0  0  0  0  0
  -28.2570  -38.0130   24.7590 H   0  0  0  0  0  0
  -28.1147  -36.2676   24.6150 H   0  0  0  0  0  0
  -27.2351  -37.1262   25.8867 H   0  0  0  0  0  0
  -20.9389  -29.8747   21.6902 H   0  0  0  0  0  0
  -26.0165  -38.2856   24.1490 H   0  0  0  0  0  0
  -30.4847  -19.8295   18.6043 H   0  0  0  0  0  0
  -30.8691  -17.4241   18.8986 H   0  0  0  0  0  0
  -28.6354  -20.0158   22.4474 H   0  0  0  0  0  0
  -30.3067  -22.4003   18.6779 H   0  0  0  0  0  0
  -28.5200  -22.4516   18.4033 H   0  0  0  0  0  0
  -28.3868  -22.8094   21.9462 H   0  0  0  0  0  0
  -30.1870  -22.7073   21.7780 H   0  0  0  0  0  0
  -30.2011  -24.2691   20.0569 H   0  0  0  0  0  0
  -27.2265  -24.6463   20.4794 H   0  0  0  0  0  0
  -27.7850  -24.8842   18.8448 H   0  0  0  0  0  0
  -29.2366  -15.4576   21.6885 H   0  0  0  0  0  0
  1 25  1  0  0  0
  1 30  2  0  0  0
  1 82  1  0  0  0
  2  3  1  0  0  0
  2 25  1  0  0  0
  2 84  1  0  0  0
  2 85  1  0  0  0
  3  4  1  0  0  0
  3 86  1  0  0  0
  3 87  1  0  0  0
  4  5  1  0  0  0
  4 88  1  0  0  0
  4 89  1  0  0  0
  5  6  1  0  0  0
  5 26  1  0  0  0
  5 90  1  0  0  0
  6 25  1  0  0  0
  6 91  1  0  0  0
  6 92  1  0  0  0
  7  8  2  0  0  0
  7 26  1  0  0  0
  7 29  1  0  0  0
  8  9  1  0  0  0
  8 22  1  0  0  0
  9 10  1  0  0  0
  9 27  2  0  0  0
 10 11  2  0  0  0
 10 15  1  0  0  0
 11 12  1  0  0  0
 11 93  1  0  0  0
 12 13  2  0  0  0
 12 94  1  0  0  0
 13 14  1  0  0  0
 13 31  1  0  0  0
 14 15  2  0  0  0
 14 95  1  0  0  0
 15 96  1  0  0  0
 16 17  2  0  0  0
 16 21  1  0  0  0
 16 31  1  0  0  0
 17 18  1  0  0  0
 17 97  1  0  0  0
 18 19  2  0  0  0
 18 98  1  0  0  0
 19 20  1  0  0  0
 19 24  1  0  0  0
 20 21  2  0  0  0
 20 99  1  0  0  0
 21 23  1  0  0  0
 22 28  1  0  0  0
 22 32  2  0  0  0
 26 27  1  0  0  0
 28100  1  0  0  0
 28101  1  0  0  0
 29102  1  0  0  0
 29103  1  0  0  0
 33 34  1  0  0  0
 33 66  1  0  0  0
 33 70  2  0  0  0
 34 36  1  0  0  0
 34 59  1  0  0  0
 34104  1  0  0  0
 35 44  2  0  0  0
 35 45  1  0  0  0
 35 68  1  0  0  0
 36 56  1  0  0  0
 36105  1  0  0  0
 37 39  1  0  0  0
 37 47  1  0  0  0
 37 66  1  0  0  0
 37106  1  0  0  0
 38 43  2  0  0  0
 38 46  1  0  0  0
 38 47  1  0  0  0
 39 64  1  0  0  0
 39 67  2  0  0  0
 40 52  1  0  0  0
 40 53  2  0  0  0
 40 58  1  0  0  0
 41107  1  0  0  0
 41108  1  0  0  0
 41109  1  0  0  0
 41 48  1  0  0  0
 42 43  1  0  0  0
 42 66  1  0  0  0
 42110  1  0  0  0
 42111  1  0  0  0
 43 44  1  0  0  0
 44112  1  0  0  0
 45 46  2  0  0  0
 45113  1  0  0  0
 46114  1  0  0  0
 47115  1  0  0  0
 47116  1  0  0  0
 48 56  1  0  0  0
 48 65  1  0  0  0
 48117  1  0  0  0
 49 50  1  0  0  0
 49 53  1  0  0  0
 49 64  1  0  0  0
 49118  1  0  0  0
 50 51  1  0  0  0
 50119  1  0  0  0
 50120  1  0  0  0
 51 52  1  0  0  0
 51121  1  0  0  0
 51122  1  0  0  0
 52123  1  0  0  0
 52124  1  0  0  0
 53 54  1  0  0  0
 54 55  2  0  0  0
 54125  1  0  0  0
 55 57  1  0  0  0
 55126  1  0  0  0
 56 69  2  0  0  0
 57 58  2  0  0  0
 57127  1  0  0  0
 58128  1  0  0  0
 59 60  1  0  0  0
 59 61  1  0  0  0
 59 62  1  0  0  0
 60129  1  0  0  0
 60130  1  0  0  0
 60131  1  0  0  0
 61132  1  0  0  0
 61133  1  0  0  0
 61134  1  0  0  0
 62135  1  0  0  0
 62136  1  0  0  0
 62137  1  0  0  0
 63 65  1  0  0  0
 63138  1  0  0  0
 63139  1  0  0  0
 63140  1  0  0  0
 64141  1  0  0  0
 65142  1  0  0  0
 68 80  1  0  0  0
 71 72  2  0  0  0
 71 74  1  0  0  0
 71143  1  0  0  0
 72 75  1  0  0  0
 72144  1  0  0  0
 73 74  2  0  0  0
 73 76  1  0  0  0
 73145  1  0  0  0
 74 81  1  0  0  0
 75 76  2  0  0  0
 75 82  1  0  0  0
 76 83  1  0  0  0
 77 79  1  0  0  0
 77 81  1  0  0  0
 77146  1  0  0  0
 77147  1  0  0  0
 78 79  1  0  0  0
 78 81  1  0  0  0
 78148  1  0  0  0
 78149  1  0  0  0
 79 80  1  0  0  0
 79150  1  0  0  0
 80151  1  0  0  0
 80152  1  0  0  0
 82153  1  0  0  0
M  ISO  4   1 100  68 101  80 101  82 100
M  END
> <chiral flag>
0

> <version>
0

> <s_m_source_file>
/data/baiqing/PycharmProjects/Reinvent-master-3.2/result/LINK_invent/BTK/process_docking_weight1_custom_product_contain_oxygen_bond_distance_aromatic_linkinvent_7_9_3/rearranged_h_0025.sdf

> <i_m_source_file_index>
95

> <r_mmod_Potential_Energy-OPLS-2005>
185.992462158203

> <r_mmod_Stretch_Energy-OPLS-2005>
109.964912414551

> <r_mmod_Bend_Energy-OPLS-2005>
226.289733886719

> <r_mmod_Torsional_Energy-OPLS-2005>
260.571044921875

> <r_mmod_Improper_Torsional_Energy-OPLS-2005>
7.07062530517578

> <r_mmod_Van_der_Waal_Energy-OPLS-2005>
138.458770751953

> <r_mmod_Electrostatic_Energy-OPLS-2005>
-403.343200683594

> <r_mmod_Solvation_Energy-OPLS-2005>
-224.280487060547

> <b_mmod_Minimization_Converged-OPLS-2005>
0

> <r_mmod_RMS_Derivative-OPLS-2005>
4.48312950134277

$$$$
95
                    3D
 Structure written by MMmdl.
157166  0  0  1  0            999 V2000
  -30.5384  -14.9473   20.4897 C   0  0  0  0  0  0
  -30.4472  -12.6033   19.5007 C   0  0  0  0  0  0
  -29.5256  -12.5570   18.2577 C   0  0  0  0  0  0
  -28.0585  -12.3260   18.6667 C   0  0  0  0  0  0
  -27.6351  -13.2396   19.8431 C   0  0  2  0  0  0
  -28.6705  -13.2168   20.9838 C   0  0  0  0  0  0
  -25.2492  -13.8193   20.5675 C   0  0  0  0  0  0
  -24.1790  -13.0436   20.9179 C   0  0  0  0  0  0
  -24.6381  -11.6911   20.8684 C   0  0  0  0  0  0
  -23.9047  -10.4292   21.0372 C   0  0  0  0  0  0
  -24.3606   -9.4207   21.9149 C   0  0  0  0  0  0
  -23.6272   -8.2259   22.0745 C   0  0  0  0  0  0
  -22.4239   -8.0298   21.3561 C   0  0  0  0  0  0
  -21.9876   -9.0259   20.4649 C   0  0  0  0  0  0
  -22.7215  -10.2133   20.3031 C   0  0  0  0  0  0
  -21.6870   -6.0710   22.5280 C   0  0  0  0  0  0
  -21.4036   -6.5615   23.8208 C   0  0  0  0  0  0
  -21.3653   -5.6773   24.9170 C   0  0  0  0  0  0
  -21.6041   -4.3041   24.7224 C   0  0  0  0  0  0
  -21.8817   -3.8120   23.4352 C   0  0  0  0  0  0
  -21.9204   -4.6933   22.3401 C   0  0  0  0  0  0
  -22.7823  -13.5238   21.1868 C   0  0  0  0  0  0
  -22.1669   -4.2099   21.0983 F   0  0  0  0  0  0
  -21.5620   -3.4546   25.7756 F   0  0  0  0  0  0
  -29.9526  -13.6759   20.4189 N   0  0  0  0  0  0
  -26.2898  -12.9395   20.3196 N   0  0  0  0  0  0
  -25.9313  -11.6529   20.5661 N   0  0  0  0  0  0
  -22.0474  -12.8234   22.0429 N   0  0  0  0  0  0
  -25.4189  -15.1926   20.4183 N   0  0  0  0  0  0
  -31.6904  -15.0474   20.0471 O   0  0  0  0  0  0
  -21.6634   -6.8879   21.4258 O   0  0  0  0  0  0
  -22.3511  -14.5537   20.6706 O   0  0  0  0  0  0
  -24.6426  -31.8472   23.1865 C   0  0  0  0  0  0
  -25.9208  -32.4721   23.8249 C   0  0  1  0  0  0
  -27.2295  -27.1501   20.1619 C   0  0  0  0  0  0
  -25.5963  -33.8522   24.2177 N   0  0  0  0  0  0
  -23.4451  -30.4646   21.5311 C   0  0  2  0  0  0
  -24.8984  -28.8867   20.1128 C   0  0  0  0  0  0
  -22.7566  -29.4582   22.4859 C   0  0  0  0  0  0
  -18.0304  -28.1458   22.8473 C   0  0  0  0  0  0
  -24.1479  -36.7276   23.2635 C   0  0  0  0  0  0
  -25.9986  -30.7264   21.3804 C   0  0  0  0  0  0
  -26.0736  -29.3342   20.7329 C   0  0  0  0  0  0
  -27.2385  -28.4829   20.7378 C   0  0  0  0  0  0
  -26.0318  -26.8009   19.4997 C   0  0  0  0  0  0
  -24.8922  -27.6346   19.4779 C   0  0  0  0  0  0
  -23.6729  -29.7875   20.1519 C   0  0  0  0  0  0
  -25.4110  -36.3049   24.0310 C   0  0  1  0  0  0
  -20.5918  -28.3785   23.1248 C   0  0  2  0  0  0
  -20.6797  -26.9490   22.5414 C   0  0  0  0  0  0
  -19.5747  -26.6424   21.5240 C   0  0  0  0  0  0
  -18.1937  -26.7991   22.1648 C   0  0  0  0  0  0
  -19.1563  -28.8924   23.2863 C   0  0  0  0  0  0
  -18.9482  -30.1517   23.8900 C   0  0  0  0  0  0
  -17.6476  -30.6631   24.0585 C   0  0  0  0  0  0
  -25.9080  -34.9430   23.5049 C   0  0  0  0  0  0
  -16.5366  -29.9140   23.6338 C   0  0  0  0  0  0
  -16.7290  -28.6567   23.0343 C   0  0  0  0  0  0
  -26.4528  -31.6584   25.0686 C   0  0  0  0  0  0
  -25.3719  -31.3789   26.1389 C   0  0  0  0  0  0
  -27.0369  -30.2962   24.6259 C   0  0  0  0  0  0
  -27.6046  -32.4349   25.7497 C   0  0  0  0  0  0
  -27.5569  -37.1795   24.8461 C   0  0  0  0  0  0
  -21.4259  -29.3093   22.3603 N   0  0  0  0  0  0
  -26.4271  -37.3763   23.9417 N   0  0  0  0  0  0
  -24.7155  -31.0336   22.0888 N   0  0  0  0  0  0
  -23.4213  -28.8126   23.3010 O   0  0  0  0  0  0
  -28.3097  -26.1988   20.1921 O   0  0  0  0  0  0
  -26.5645  -34.8933   22.4625 O   0  0  0  0  0  0
  -23.5544  -32.1348   23.7089 O   0  0  0  0  0  0
  -29.4215  -15.9699   22.2533 C   0  0  0  0  0  0
  -30.2871  -20.0594   20.7535 C   0  0  0  0  0  0
  -30.5522  -18.6380   20.9731 C   0  0  0  0  0  0
  -28.5536  -18.0896   19.8671 C   0  0  0  0  0  0
  -29.1351  -20.5898   20.0630 C   0  0  0  0  0  0
  -29.7143  -17.5553   20.5215 C   0  0  0  0  0  0
  -28.2857  -19.5013   19.6440 C   0  0  0  0  0  0
  -31.1695  -22.7162   18.9351 C   0  0  0  0  0  0
  -30.6327  -23.6587   20.0241 C   0  0  0  0  0  0
  -29.9389  -21.9208   18.4330 C   0  0  0  0  0  0
  -29.1374  -23.4990   19.8180 C   0  0  2  0  0  0
  -28.1199  -24.6711   20.4431 C   0  0  0  0  0  0
  -29.0766  -15.9179   23.3556 N   0  0  0  0  0  0
  -28.9250  -21.9673   19.5051 N   0  0  0  0  0  0
  -29.8257  -16.0894   20.9710 N   0  0  0  0  0  0
  -27.1586  -19.8121   18.9541 F   0  0  0  0  0  0
  -31.4809  -12.7656   19.1900 H   0  0  0  0  0  0
  -30.4541  -11.6383   20.0094 H   0  0  0  0  0  0
  -29.8489  -11.7756   17.5710 H   0  0  0  0  0  0
  -29.6070  -13.4974   17.7086 H   0  0  0  0  0  0
  -27.9566  -11.2804   18.9608 H   0  0  0  0  0  0
  -27.3952  -12.4731   17.8133 H   0  0  0  0  0  0
  -27.6157  -14.2533   19.4409 H   0  0  0  0  0  0
  -28.7657  -12.2164   21.4102 H   0  0  0  0  0  0
  -28.3175  -13.8398   21.8003 H   0  0  0  0  0  0
  -25.2761   -9.5690   22.4693 H   0  0  0  0  0  0
  -23.9977   -7.4665   22.7476 H   0  0  0  0  0  0
  -21.0798   -8.8788   19.8958 H   0  0  0  0  0  0
  -22.3676  -10.9667   19.6125 H   0  0  0  0  0  0
  -21.2035   -7.6125   23.9702 H   0  0  0  0  0  0
  -21.1476   -6.0503   25.9074 H   0  0  0  0  0  0
  -22.0586   -2.7575   23.2874 H   0  0  0  0  0  0
  -22.4145  -11.9913   22.4819 H   0  0  0  0  0  0
  -21.1092  -13.1261   22.2669 H   0  0  0  0  0  0
  -24.6459  -15.8407   20.5244 H   0  0  0  0  0  0
  -26.2688  -15.6346   20.0961 H   0  0  0  0  0  0
  -26.7289  -32.5339   23.1000 H   0  0  0  0  0  0
  -25.0114  -33.9629   25.0318 H   0  0  0  0  0  0
  -22.7472  -31.2903   21.3733 H   0  0  0  0  0  0
  -23.3746  -35.9604   23.3276 H   0  0  0  0  0  0
  -24.3549  -36.8927   22.2051 H   0  0  0  0  0  0
  -23.7235  -37.6468   23.6686 H   0  0  0  0  0  0
  -26.1428  -31.4741   20.5984 H   0  0  0  0  0  0
  -26.8743  -30.7908   22.0155 H   0  0  0  0  0  0
  -28.1338  -28.8221   21.2406 H   0  0  0  0  0  0
  -25.9597  -25.8493   18.9959 H   0  0  0  0  0  0
  -24.0019  -27.2926   18.9688 H   0  0  0  0  0  0
  -23.8153  -30.5607   19.3962 H   0  0  0  0  0  0
  -22.7873  -29.2319   19.8340 H   0  0  0  0  0  0
  -25.1296  -36.1868   25.0795 H   0  0  0  0  0  0
  -21.0014  -28.3404   24.1371 H   0  0  0  0  0  0
  -20.5750  -26.2400   23.3644 H   0  0  0  0  0  0
  -21.6662  -26.7533   22.1175 H   0  0  0  0  0  0
  -19.6915  -25.6326   21.1295 H   0  0  0  0  0  0
  -19.6680  -27.3221   20.6759 H   0  0  0  0  0  0
  -17.4201  -26.6735   21.4064 H   0  0  0  0  0  0
  -18.0342  -26.0172   22.9077 H   0  0  0  0  0  0
  -19.7952  -30.7346   24.2284 H   0  0  0  0  0  0
  -17.5026  -31.6299   24.5221 H   0  0  0  0  0  0
  -15.5372  -30.3045   23.7672 H   0  0  0  0  0  0
  -15.8693  -28.0897   22.7048 H   0  0  0  0  0  0
  -24.5891  -30.7139   25.7718 H   0  0  0  0  0  0
  -24.8932  -32.2990   26.4747 H   0  0  0  0  0  0
  -25.8014  -30.9006   27.0202 H   0  0  0  0  0  0
  -26.2958  -29.6705   24.1265 H   0  0  0  0  0  0
  -27.3967  -29.7240   25.4825 H   0  0  0  0  0  0
  -27.8880  -30.4155   23.9549 H   0  0  0  0  0  0
  -27.2620  -33.3689   26.1957 H   0  0  0  0  0  0
  -28.3938  -32.6843   25.0395 H   0  0  0  0  0  0
  -28.0621  -31.8555   26.5526 H   0  0  0  0  0  0
  -28.2573  -38.0107   24.7518 H   0  0  0  0  0  0
  -28.1083  -36.2639   24.6267 H   0  0  0  0  0  0
  -27.2293  -37.1414   25.8865 H   0  0  0  0  0  0
  -20.9498  -29.8783   21.6743 H   0  0  0  0  0  0
  -26.0138  -38.2827   24.1439 H   0  0  0  0  0  0
  -31.0354  -20.7594   21.0944 H   0  0  0  0  0  0
  -31.4424  -18.3807   21.5277 H   0  0  0  0  0  0
  -27.8015  -17.3958   19.5238 H   0  0  0  0  0  0
  -31.9424  -22.0618   19.3351 H   0  0  0  0  0  0
  -31.6237  -23.2706   18.1126 H   0  0  0  0  0  0
  -30.9693  -24.6869   19.8824 H   0  0  0  0  0  0
  -30.9224  -23.3355   21.0259 H   0  0  0  0  0  0
  -30.2315  -20.9273   18.0839 H   0  0  0  0  0  0
  -29.5242  -22.3946   17.5399 H   0  0  0  0  0  0
  -29.0103  -23.9228   18.8191 H   0  0  0  0  0  0
  -28.1071  -24.5467   21.5266 H   0  0  0  0  0  0
  -27.1139  -24.3963   20.1324 H   0  0  0  0  0  0
  1 25  1  0  0  0
  1 30  2  0  0  0
  1 85  1  0  0  0
  2  3  1  0  0  0
  2 25  1  0  0  0
  2 87  1  0  0  0
  2 88  1  0  0  0
  3  4  1  0  0  0
  3 89  1  0  0  0
  3 90  1  0  0  0
  4  5  1  0  0  0
  4 91  1  0  0  0
  4 92  1  0  0  0
  5  6  1  0  0  0
  5 26  1  0  0  0
  5 93  1  0  0  0
  6 25  1  0  0  0
  6 94  1  0  0  0
  6 95  1  0  0  0
  7  8  2  0  0  0
  7 26  1  0  0  0
  7 29  1  0  0  0
  8  9  1  0  0  0
  8 22  1  0  0  0
  9 10  1  0  0  0
  9 27  2  0  0  0
 10 11  2  0  0  0
 10 15  1  0  0  0
 11 12  1  0  0  0
 11 96  1  0  0  0
 12 13  2  0  0  0
 12 97  1  0  0  0
 13 14  1  0  0  0
 13 31  1  0  0  0
 14 15  2  0  0  0
 14 98  1  0  0  0
 15 99  1  0  0  0
 16 17  2  0  0  0
 16 21  1  0  0  0
 16 31  1  0  0  0
 17 18  1  0  0  0
 17100  1  0  0  0
 18 19  2  0  0  0
 18101  1  0  0  0
 19 20  1  0  0  0
 19 24  1  0  0  0
 20 21  2  0  0  0
 20102  1  0  0  0
 21 23  1  0  0  0
 22 28  1  0  0  0
 22 32  2  0  0  0
 26 27  1  0  0  0
 28103  1  0  0  0
 28104  1  0  0  0
 29105  1  0  0  0
 29106  1  0  0  0
 33 34  1  0  0  0
 33 66  1  0  0  0
 33 70  2  0  0  0
 34 36  1  0  0  0
 34 59  1  0  0  0
 34107  1  0  0  0
 35 44  2  0  0  0
 35 45  1  0  0  0
 35 68  1  0  0  0
 36 56  1  0  0  0
 36108  1  0  0  0
 37 39  1  0  0  0
 37 47  1  0  0  0
 37 66  1  0  0  0
 37109  1  0  0  0
 38 43  2  0  0  0
 38 46  1  0  0  0
 38 47  1  0  0  0
 39 64  1  0  0  0
 39 67  2  0  0  0
 40 52  1  0  0  0
 40 53  2  0  0  0
 40 58  1  0  0  0
 41110  1  0  0  0
 41111  1  0  0  0
 41112  1  0  0  0
 41 48  1  0  0  0
 42 43  1  0  0  0
 42 66  1  0  0  0
 42113  1  0  0  0
 42114  1  0  0  0
 43 44  1  0  0  0
 44115  1  0  0  0
 45 46  2  0  0  0
 45116  1  0  0  0
 46117  1  0  0  0
 47118  1  0  0  0
 47119  1  0  0  0
 48 56  1  0  0  0
 48 65  1  0  0  0
 48120  1  0  0  0
 49 50  1  0  0  0
 49 53  1  0  0  0
 49 64  1  0  0  0
 49121  1  0  0  0
 50 51  1  0  0  0
 50122  1  0  0  0
 50123  1  0  0  0
 51 52  1  0  0  0
 51124  1  0  0  0
 51125  1  0  0  0
 52126  1  0  0  0
 52127  1  0  0  0
 53 54  1  0  0  0
 54 55  2  0  0  0
 54128  1  0  0  0
 55 57  1  0  0  0
 55129  1  0  0  0
 56 69  2  0  0  0
 57 58  2  0  0  0
 57130  1  0  0  0
 58131  1  0  0  0
 59 60  1  0  0  0
 59 61  1  0  0  0
 59 62  1  0  0  0
 60132  1  0  0  0
 60133  1  0  0  0
 60134  1  0  0  0
 61135  1  0  0  0
 61136  1  0  0  0
 61137  1  0  0  0
 62138  1  0  0  0
 62139  1  0  0  0
 62140  1  0  0  0
 63 65  1  0  0  0
 63141  1  0  0  0
 63142  1  0  0  0
 63143  1  0  0  0
 64144  1  0  0  0
 65145  1  0  0  0
 68 82  1  0  0  0
 71 83  3  0  0  0
 71 85  1  0  0  0
 72 73  2  0  0  0
 72 75  1  0  0  0
 72146  1  0  0  0
 73 76  1  0  0  0
 73147  1  0  0  0
 74 76  2  0  0  0
 74 77  1  0  0  0
 74148  1  0  0  0
 75 77  2  0  0  0
 75 84  1  0  0  0
 76 85  1  0  0  0
 77 86  1  0  0  0
 78 79  1  0  0  0
 78 80  1  0  0  0
 78149  1  0  0  0
 78150  1  0  0  0
 79 81  1  0  0  0
 79151  1  0  0  0
 79152  1  0  0  0
 80 84  1  0  0  0
 80153  1  0  0  0
 80154  1  0  0  0
 81 82  1  0  0  0
 81 84  1  0  0  0
 81155  1  0  0  0
 82156  1  0  0  0
 82157  1  0  0  0
M  ISO  4   1 100  68 101  82 101  85 100
M  END
> <chiral flag>
0

> <version>
0

> <s_m_source_file>
/data/baiqing/PycharmProjects/Reinvent-master-3.2/result/LINK_invent/BTK/process_docking_weight1_custom_product_contain_oxygen_bond_distance_aromatic_linkinvent_7_9_3/rearranged_h_0025.sdf

> <i_m_source_file_index>
96

> <r_mmod_Potential_Energy-OPLS-2005>
903.349243164062

> <r_mmod_Stretch_Energy-OPLS-2005>
240.251541137695

> <r_mmod_Bend_Energy-OPLS-2005>
422.118896484375

> <r_mmod_Torsional_Energy-OPLS-2005>
395.789672851562

> <r_mmod_Improper_Torsional_Energy-OPLS-2005>
15.9199552536011

> <r_mmod_Van_der_Waal_Energy-OPLS-2005>
141.366104125977

> <r_mmod_Electrostatic_Energy-OPLS-2005>
-285.956390380859

> <r_mmod_Solvation_Energy-OPLS-2005>
-203.966064453125

> <b_mmod_Minimization_Converged-OPLS-2005>
0

> <r_mmod_RMS_Derivative-OPLS-2005>
3.29680347442627

$$$$
96
                    3D
 Structure written by MMmdl.
174183  0  0  1  0            999 V2000
  -30.6609  -14.7988   20.3114 C   0  0  0  0  0  0
  -30.4174  -12.4907   19.4062 C   0  0  0  0  0  0
  -29.4649  -12.4502   18.1956 C   0  0  0  0  0  0
  -28.0145  -12.2493   18.6621 C   0  0  0  0  0  0
  -27.6238  -13.1981   19.8241 C   0  0  2  0  0  0
  -28.7020  -13.2719   20.9239 C   0  0  0  0  0  0
  -25.2557  -13.7994   20.5922 C   0  0  0  0  0  0
  -24.1776  -13.0301   20.9237 C   0  0  0  0  0  0
  -24.6335  -11.6788   20.8763 C   0  0  0  0  0  0
  -23.9008  -10.4205   21.0419 C   0  0  0  0  0  0
  -24.3556   -9.4130   21.9198 C   0  0  0  0  0  0
  -23.6233   -8.2168   22.0764 C   0  0  0  0  0  0
  -22.4226   -8.0227   21.3543 C   0  0  0  0  0  0
  -21.9853   -9.0191   20.4647 C   0  0  0  0  0  0
  -22.7178  -10.2072   20.3064 C   0  0  0  0  0  0
  -21.6820   -6.0701   22.5297 C   0  0  0  0  0  0
  -21.3987   -6.5620   23.8227 C   0  0  0  0  0  0
  -21.3670   -5.6791   24.9203 C   0  0  0  0  0  0
  -21.6049   -4.3049   24.7256 C   0  0  0  0  0  0
  -21.8824   -3.8130   23.4380 C   0  0  0  0  0  0
  -21.9169   -4.6929   22.3426 C   0  0  0  0  0  0
  -22.7811  -13.5137   21.1900 C   0  0  0  0  0  0
  -22.1640   -4.2123   21.0997 F   0  0  0  0  0  0
  -21.5638   -3.4531   25.7756 F   0  0  0  0  0  0
  -29.9608  -13.6125   20.2514 N   0  0  0  0  0  0
  -26.2918  -12.9174   20.3389 N   0  0  0  0  0  0
  -25.9266  -11.6357   20.5809 N   0  0  0  0  0  0
  -22.0441  -12.8143   22.0427 N   0  0  0  0  0  0
  -25.4363  -15.1704   20.4747 N   0  0  0  0  0  0
  -31.8829  -14.7296   20.4406 O   0  0  0  0  0  0
  -21.6590   -6.8828   21.4258 O   0  0  0  0  0  0
  -22.3547  -14.5480   20.6766 O   0  0  0  0  0  0
  -24.6339  -31.8569   23.2003 C   0  0  0  0  0  0
  -25.9159  -32.4764   23.8351 C   0  0  1  0  0  0
  -27.2210  -27.2742   20.1098 C   0  0  0  0  0  0
  -25.5931  -33.8569   24.2278 N   0  0  0  0  0  0
  -23.4245  -30.4883   21.5470 C   0  0  2  0  0  0
  -24.8662  -28.9325   20.1158 C   0  0  0  0  0  0
  -22.7478  -29.4662   22.4909 C   0  0  0  0  0  0
  -18.0295  -28.1376   22.8466 C   0  0  0  0  0  0
  -24.1478  -36.7286   23.2649 C   0  0  0  0  0  0
  -25.9737  -30.7732   21.3763 C   0  0  0  0  0  0
  -26.0449  -29.3999   20.7116 C   0  0  0  0  0  0
  -27.2254  -28.5867   20.6938 C   0  0  0  0  0  0
  -26.0063  -26.8667   19.5074 C   0  0  0  0  0  0
  -24.8496  -27.6664   19.5156 C   0  0  0  0  0  0
  -23.6385  -29.8230   20.1636 C   0  0  0  0  0  0
  -25.4110  -36.3073   24.0343 C   0  0  1  0  0  0
  -20.5900  -28.3699   23.1236 C   0  0  2  0  0  0
  -20.6780  -26.9403   22.5391 C   0  0  0  0  0  0
  -19.5748  -26.6359   21.5195 C   0  0  0  0  0  0
  -18.1927  -26.7911   22.1611 C   0  0  0  0  0  0
  -19.1550  -28.8852   23.2844 C   0  0  0  0  0  0
  -18.9487  -30.1454   23.8855 C   0  0  0  0  0  0
  -17.6489  -30.6578   24.0560 C   0  0  0  0  0  0
  -25.9058  -34.9447   23.5114 C   0  0  0  0  0  0
  -16.5380  -29.9076   23.6335 C   0  0  0  0  0  0
  -16.7287  -28.6503   23.0337 C   0  0  0  0  0  0
  -26.4495  -31.6587   25.0755 C   0  0  0  0  0  0
  -25.3682  -31.3733   26.1456 C   0  0  0  0  0  0
  -27.0363  -30.3016   24.6256 C   0  0  0  0  0  0
  -27.6066  -32.4341   25.7497 C   0  0  0  0  0  0
  -27.5576  -37.1796   24.8473 C   0  0  0  0  0  0
  -21.4202  -29.3060   22.3628 N   0  0  0  0  0  0
  -26.4289  -37.3772   23.9415 N   0  0  0  0  0  0
  -24.6968  -31.0555   22.0975 N   0  0  0  0  0  0
  -23.4180  -28.8195   23.3003 O   0  0  0  0  0  0
  -28.3272  -26.3901   20.1388 O   0  0  0  0  0  0
  -26.5627  -34.8911   22.4688 O   0  0  0  0  0  0
  -23.5496  -32.1406   23.7316 O   0  0  0  0  0  0
  -27.7311  -19.4564   19.5844 C   0  0  0  0  0  0
  -28.0529  -17.0390   19.3867 C   0  0  0  0  0  0
  -29.8914  -18.4473   20.0977 C   0  0  0  0  0  0
  -27.2367  -18.1815   19.2585 C   0  0  0  0  0  0
  -29.0702  -19.6514   19.9843 C   0  0  0  0  0  0
  -29.3978  -17.0992   19.8144 C   0  0  0  0  0  0
  -25.8039  -18.2574   14.8880 C   0  0  0  0  0  0
  -25.2494  -16.8422   15.1248 C   0  0  0  0  0  0
  -25.8351  -18.9048   16.2745 C   0  0  0  0  0  0
  -25.1907  -16.6733   16.6509 C   0  0  0  0  0  0
  -32.1581  -16.7510   18.1231 C   0  0  0  0  0  0
  -25.8564  -18.0560   18.6303 C   0  0  0  0  0  0
  -30.8429  -15.9469   18.1871 C   0  0  0  0  0  0
  -28.6178  -22.2328   19.9846 C   0  0  0  0  0  0
  -28.0584  -24.9165   20.0175 C   0  0  0  0  0  0
  -29.1568  -23.7434   20.1870 C   0  0  1  0  0  0
  -29.5137  -21.0196   20.1801 N   0  0  0  0  0  0
  -30.2036  -15.8755   19.5246 N   0  0  0  0  0  0
  -26.0191  -17.7668   17.1904 N   0  3  0  0  0  0
  -29.6947  -23.8219   21.4062 F   0  0  0  0  0  0
  -31.4463  -12.6234   19.0649 H   0  0  0  0  0  0
  -30.3890  -11.5496   19.9561 H   0  0  0  0  0  0
  -29.7490  -11.6495   17.5120 H   0  0  0  0  0  0
  -29.5241  -13.3764   17.6264 H   0  0  0  0  0  0
  -27.9122  -11.2117   18.9830 H   0  0  0  0  0  0
  -27.3237  -12.3735   17.8273 H   0  0  0  0  0  0
  -27.5666  -14.1685   19.3564 H   0  0  0  0  0  0
  -28.7921  -12.3264   21.4601 H   0  0  0  0  0  0
  -28.4482  -14.0369   21.6592 H   0  0  0  0  0  0
  -25.2715   -9.5591   22.4757 H   0  0  0  0  0  0
  -23.9947   -7.4554   22.7464 H   0  0  0  0  0  0
  -21.0798   -8.8682   19.8935 H   0  0  0  0  0  0
  -22.3642  -10.9593   19.6154 H   0  0  0  0  0  0
  -21.1962   -7.6130   23.9711 H   0  0  0  0  0  0
  -21.1494   -6.0538   25.9100 H   0  0  0  0  0  0
  -22.0584   -2.7586   23.2894 H   0  0  0  0  0  0
  -22.4008  -11.9754   22.4743 H   0  0  0  0  0  0
  -21.1081  -13.1194   22.2674 H   0  0  0  0  0  0
  -24.6985  -15.7575   20.8492 H   0  0  0  0  0  0
  -26.3561  -15.5587   20.6311 H   0  0  0  0  0  0
  -26.7215  -32.5405   23.1082 H   0  0  0  0  0  0
  -25.0037  -33.9706   25.0396 H   0  0  0  0  0  0
  -22.7224  -31.3128   21.4009 H   0  0  0  0  0  0
  -23.3748  -35.9602   23.3314 H   0  0  0  0  0  0
  -24.3553  -36.8909   22.2053 H   0  0  0  0  0  0
  -23.7212  -37.6493   23.6669 H   0  0  0  0  0  0
  -26.1149  -31.5378   20.6112 H   0  0  0  0  0  0
  -26.8534  -30.8139   22.0085 H   0  0  0  0  0  0
  -28.1290  -28.9458   21.1666 H   0  0  0  0  0  0
  -25.8986  -25.9020   19.0363 H   0  0  0  0  0  0
  -23.9405  -27.2848   19.0693 H   0  0  0  0  0  0
  -23.7534  -30.6027   19.4082 H   0  0  0  0  0  0
  -22.7521  -29.2614   19.8638 H   0  0  0  0  0  0
  -25.1263  -36.1942   25.0834 H   0  0  0  0  0  0
  -21.0008  -28.3284   24.1349 H   0  0  0  0  0  0
  -20.5637  -26.2312   23.3594 H   0  0  0  0  0  0
  -21.6651  -26.7380   22.1200 H   0  0  0  0  0  0
  -19.6908  -25.6253   21.1254 H   0  0  0  0  0  0
  -19.6709  -27.3143   20.6696 H   0  0  0  0  0  0
  -17.4190  -26.6644   21.4035 H   0  0  0  0  0  0
  -18.0351  -26.0052   22.9011 H   0  0  0  0  0  0
  -19.7979  -30.7281   24.2185 H   0  0  0  0  0  0
  -17.5061  -31.6265   24.5150 H   0  0  0  0  0  0
  -15.5383  -30.2979   23.7694 H   0  0  0  0  0  0
  -15.8680  -28.0849   22.7036 H   0  0  0  0  0  0
  -24.5879  -30.7054   25.7792 H   0  0  0  0  0  0
  -24.8824  -32.2873   26.4886 H   0  0  0  0  0  0
  -25.7967  -30.8924   27.0250 H   0  0  0  0  0  0
  -26.2971  -29.6730   24.1285 H   0  0  0  0  0  0
  -27.4043  -29.7326   25.4803 H   0  0  0  0  0  0
  -27.8818  -30.4314   23.9491 H   0  0  0  0  0  0
  -27.2715  -33.3683   26.2016 H   0  0  0  0  0  0
  -28.3866  -32.6860   25.0290 H   0  0  0  0  0  0
  -28.0708  -31.8488   26.5429 H   0  0  0  0  0  0
  -28.2602  -38.0092   24.7526 H   0  0  0  0  0  0
  -28.1053  -36.2627   24.6277 H   0  0  0  0  0  0
  -27.2283  -37.1425   25.8874 H   0  0  0  0  0  0
  -20.9357  -29.8806   21.6868 H   0  0  0  0  0  0
  -26.0176  -38.2849   24.1431 H   0  0  0  0  0  0
  -27.0642  -20.2935   19.4515 H   0  0  0  0  0  0
  -27.6526  -16.1169   19.0122 H   0  0  0  0  0  0
  -30.9367  -18.5687   20.3408 H   0  0  0  0  0  0
  -25.2115  -18.8299   14.1743 H   0  0  0  0  0  0
  -26.8187  -18.1910   14.4941 H   0  0  0  0  0  0
  -25.9068  -16.0961   14.6750 H   0  0  0  0  0  0
  -24.2594  -16.7152   14.6836 H   0  0  0  0  0  0
  -24.8786  -19.3917   16.4754 H   0  0  0  0  0  0
  -26.6216  -19.6528   16.3796 H   0  0  0  0  0  0
  -25.5395  -15.6939   16.9821 H   0  0  0  0  0  0
  -24.1619  -16.7918   16.9952 H   0  0  0  0  0  0
  -32.5229  -16.7856   17.0969 H   0  0  0  0  0  0
  -32.9469  -16.2942   18.7219 H   0  0  0  0  0  0
  -32.0366  -17.7798   18.4544 H   0  0  0  0  0  0
  -25.2618  -18.9567   18.7882 H   0  0  0  0  0  0
  -25.3039  -17.2589   19.1162 H   0  0  0  0  0  0
  -31.0512  -14.9479   17.7993 H   0  0  0  0  0  0
  -30.1331  -16.3746   17.4775 H   0  0  0  0  0  0
  -28.2165  -22.1833   18.9712 H   0  0  0  0  0  0
  -27.7625  -22.1108   20.6510 H   0  0  0  0  0  0
  -27.2585  -24.6834   20.7206 H   0  0  0  0  0  0
  -27.6463  -24.7505   19.0221 H   0  0  0  0  0  0
  -29.9659  -23.9273   19.4800 H   0  0  0  0  0  0
  -30.4771  -21.1967   20.4556 H   0  0  0  0  0  0
  -26.9771  -17.4743   17.0810 H   0  0  0  0  0  0
  1 25  1  0  0  0
  1 30  2  0  0  0
  1 88  1  0  0  0
  2  3  1  0  0  0
  2 25  1  0  0  0
  2 91  1  0  0  0
  2 92  1  0  0  0
  3  4  1  0  0  0
  3 93  1  0  0  0
  3 94  1  0  0  0
  4  5  1  0  0  0
  4 95  1  0  0  0
  4 96  1  0  0  0
  5  6  1  0  0  0
  5 26  1  0  0  0
  5 97  1  0  0  0
  6 25  1  0  0  0
  6 98  1  0  0  0
  6 99  1  0  0  0
  7  8  2  0  0  0
  7 26  1  0  0  0
  7 29  1  0  0  0
  8  9  1  0  0  0
  8 22  1  0  0  0
  9 10  1  0  0  0
  9 27  2  0  0  0
 10 11  2  0  0  0
 10 15  1  0  0  0
 11 12  1  0  0  0
 11100  1  0  0  0
 12 13  2  0  0  0
 12101  1  0  0  0
 13 14  1  0  0  0
 13 31  1  0  0  0
 14 15  2  0  0  0
 14102  1  0  0  0
 15103  1  0  0  0
 16 17  2  0  0  0
 16 21  1  0  0  0
 16 31  1  0  0  0
 17 18  1  0  0  0
 17104  1  0  0  0
 18 19  2  0  0  0
 18105  1  0  0  0
 19 20  1  0  0  0
 19 24  1  0  0  0
 20 21  2  0  0  0
 20106  1  0  0  0
 21 23  1  0  0  0
 22 28  1  0  0  0
 22 32  2  0  0  0
 26 27  1  0  0  0
 28107  1  0  0  0
 28108  1  0  0  0
 29109  1  0  0  0
 29110  1  0  0  0
 33 34  1  0  0  0
 33 66  1  0  0  0
 33 70  2  0  0  0
 34 36  1  0  0  0
 34 59  1  0  0  0
 34111  1  0  0  0
 35 44  2  0  0  0
 35 45  1  0  0  0
 35 68  1  0  0  0
 36 56  1  0  0  0
 36112  1  0  0  0
 37 39  1  0  0  0
 37 47  1  0  0  0
 37 66  1  0  0  0
 37113  1  0  0  0
 38 43  2  0  0  0
 38 46  1  0  0  0
 38 47  1  0  0  0
 39 64  1  0  0  0
 39 67  2  0  0  0
 40 52  1  0  0  0
 40 53  2  0  0  0
 40 58  1  0  0  0
 41114  1  0  0  0
 41115  1  0  0  0
 41116  1  0  0  0
 41 48  1  0  0  0
 42 43  1  0  0  0
 42 66  1  0  0  0
 42117  1  0  0  0
 42118  1  0  0  0
 43 44  1  0  0  0
 44119  1  0  0  0
 45 46  2  0  0  0
 45120  1  0  0  0
 46121  1  0  0  0
 47122  1  0  0  0
 47123  1  0  0  0
 48 56  1  0  0  0
 48 65  1  0  0  0
 48124  1  0  0  0
 49 50  1  0  0  0
 49 53  1  0  0  0
 49 64  1  0  0  0
 49125  1  0  0  0
 50 51  1  0  0  0
 50126  1  0  0  0
 50127  1  0  0  0
 51 52  1  0  0  0
 51128  1  0  0  0
 51129  1  0  0  0
 52130  1  0  0  0
 52131  1  0  0  0
 53 54  1  0  0  0
 54 55  2  0  0  0
 54132  1  0  0  0
 55 57  1  0  0  0
 55133  1  0  0  0
 56 69  2  0  0  0
 57 58  2  0  0  0
 57134  1  0  0  0
 58135  1  0  0  0
 59 60  1  0  0  0
 59 61  1  0  0  0
 59 62  1  0  0  0
 60136  1  0  0  0
 60137  1  0  0  0
 60138  1  0  0  0
 61139  1  0  0  0
 61140  1  0  0  0
 61141  1  0  0  0
 62142  1  0  0  0
 62143  1  0  0  0
 62144  1  0  0  0
 63 65  1  0  0  0
 63145  1  0  0  0
 63146  1  0  0  0
 63147  1  0  0  0
 64148  1  0  0  0
 65149  1  0  0  0
 68 85  1  0  0  0
 71 74  2  0  0  0
 71 75  1  0  0  0
 71150  1  0  0  0
 72 74  1  0  0  0
 72 76  2  0  0  0
 72151  1  0  0  0
 73 75  2  0  0  0
 73 76  1  0  0  0
 73152  1  0  0  0
 74 82  1  0  0  0
 75 87  1  0  0  0
 76 88  1  0  0  0
 77 78  1  0  0  0
 77 79  1  0  0  0
 77153  1  0  0  0
 77154  1  0  0  0
 78 80  1  0  0  0
 78155  1  0  0  0
 78156  1  0  0  0
 79 89  1  0  0  0
 79157  1  0  0  0
 79158  1  0  0  0
 80 89  1  0  0  0
 80159  1  0  0  0
 80160  1  0  0  0
 81 83  1  0  0  0
 81161  1  0  0  0
 81162  1  0  0  0
 81163  1  0  0  0
 82164  1  0  0  0
 82165  1  0  0  0
 82 89  1  0  0  0
 83 88  1  0  0  0
 83166  1  0  0  0
 83167  1  0  0  0
 84 86  1  0  0  0
 84 87  1  0  0  0
 84168  1  0  0  0
 84169  1  0  0  0
 85 86  1  0  0  0
 85170  1  0  0  0
 85171  1  0  0  0
 86 90  1  0  0  0
 86172  1  0  0  0
 87173  1  0  0  0
 89174  1  0  0  0
M  CHG  1  89   1
M  ISO  4   1 100  68 101  85 101  88 100
M  END
> <chiral flag>
0

> <version>
0

> <s_m_source_file>
/data/baiqing/PycharmProjects/Reinvent-master-3.2/result/LINK_invent/BTK/process_docking_weight1_custom_product_contain_oxygen_bond_distance_aromatic_linkinvent_7_9_3/rearranged_h_0025.sdf

> <i_m_source_file_index>
97

> <r_mmod_Potential_Energy-OPLS-2005>
472.942504882812

> <r_mmod_Stretch_Energy-OPLS-2005>
128.515228271484

> <r_mmod_Bend_Energy-OPLS-2005>
224.634033203125

> <r_mmod_Torsional_Energy-OPLS-2005>
403.565551757812

> <r_mmod_Improper_Torsional_Energy-OPLS-2005>
38.020866394043

> <r_mmod_Van_der_Waal_Energy-OPLS-2005>
137.103652954102

> <r_mmod_Electrostatic_Energy-OPLS-2005>
-140.493148803711

> <r_mmod_Solvation_Energy-OPLS-2005>
-444.921997070312

> <b_mmod_Minimization_Converged-OPLS-2005>
0

> <r_mmod_RMS_Derivative-OPLS-2005>
3.50317120552063

$$$$
97
                    3D
 Structure written by MMmdl.
168177  0  0  1  0            999 V2000
  -30.7641  -14.3619   20.6747 C   0  0  0  0  0  0
  -30.4158  -12.2795   19.3986 C   0  0  0  0  0  0
  -29.4854  -12.5268   18.1960 C   0  0  0  0  0  0
  -28.0092  -12.3842   18.6106 C   0  0  0  0  0  0
  -27.6691  -13.2011   19.8842 C   0  0  2  0  0  0
  -28.7063  -12.9349   20.9991 C   0  0  0  0  0  0
  -25.2617  -13.8154   20.5671 C   0  0  0  0  0  0
  -24.1854  -13.0440   20.9162 C   0  0  0  0  0  0
  -24.6396  -11.6905   20.8727 C   0  0  0  0  0  0
  -23.9056  -10.4295   21.0404 C   0  0  0  0  0  0
  -24.3611   -9.4212   21.9183 C   0  0  0  0  0  0
  -23.6291   -8.2246   22.0753 C   0  0  0  0  0  0
  -22.4273   -8.0285   21.3543 C   0  0  0  0  0  0
  -21.9908   -9.0256   20.4642 C   0  0  0  0  0  0
  -22.7232  -10.2137   20.3052 C   0  0  0  0  0  0
  -21.6852   -6.0738   22.5278 C   0  0  0  0  0  0
  -21.4012   -6.5639   23.8211 C   0  0  0  0  0  0
  -21.3660   -5.6794   24.9176 C   0  0  0  0  0  0
  -21.6047   -4.3057   24.7227 C   0  0  0  0  0  0
  -21.8819   -3.8151   23.4347 C   0  0  0  0  0  0
  -21.9190   -4.6966   22.3403 C   0  0  0  0  0  0
  -22.7877  -13.5244   21.1835 C   0  0  0  0  0  0
  -22.1661   -4.2152   21.0979 F   0  0  0  0  0  0
  -21.5633   -3.4542   25.7740 F   0  0  0  0  0  0
  -30.0532  -13.2226   20.4671 N   0  0  0  0  0  0
  -26.3057  -12.9316   20.3393 N   0  0  0  0  0  0
  -25.9322  -11.6478   20.5760 N   0  0  0  0  0  0
  -22.0518  -12.8233   22.0391 N   0  0  0  0  0  0
  -25.4363  -15.1869   20.4081 N   0  0  0  0  0  0
  -31.7754  -14.6465   20.0271 O   0  0  0  0  0  0
  -21.6638   -6.8882   21.4240 O   0  0  0  0  0  0
  -22.3569  -14.5558   20.6698 O   0  0  0  0  0  0
  -24.6085  -31.8712   23.2120 C   0  0  0  0  0  0
  -25.8998  -32.4850   23.8404 C   0  0  1  0  0  0
  -27.2441  -27.4801   20.0984 C   0  0  0  0  0  0
  -25.5869  -33.8646   24.2341 N   0  0  0  0  0  0
  -23.3954  -30.4924   21.5499 C   0  0  2  0  0  0
  -24.8466  -28.9642   20.1116 C   0  0  0  0  0  0
  -22.7383  -29.4660   22.4996 C   0  0  0  0  0  0
  -18.0264  -28.1369   22.8489 C   0  0  0  0  0  0
  -24.1481  -36.7336   23.2636 C   0  0  0  0  0  0
  -25.9162  -30.8545   21.3560 C   0  0  0  0  0  0
  -25.9987  -29.4899   20.7094 C   0  0  0  0  0  0
  -27.1999  -28.7549   20.7052 C   0  0  0  0  0  0
  -26.0858  -26.9660   19.4839 C   0  0  0  0  0  0
  -24.8821  -27.6988   19.4969 C   0  0  0  0  0  0
  -23.6030  -29.8220   20.1637 C   0  0  0  0  0  0
  -25.4103  -36.3142   24.0342 C   0  0  1  0  0  0
  -20.5851  -28.3651   23.1332 C   0  0  2  0  0  0
  -20.6754  -26.9390   22.5426 C   0  0  0  0  0  0
  -19.5743  -26.6382   21.5210 C   0  0  0  0  0  0
  -18.1914  -26.7920   22.1611 C   0  0  0  0  0  0
  -19.1512  -28.8827   23.2909 C   0  0  0  0  0  0
  -18.9444  -30.1435   23.8915 C   0  0  0  0  0  0
  -17.6450  -30.6581   24.0560 C   0  0  0  0  0  0
  -25.9030  -34.9500   23.5148 C   0  0  0  0  0  0
  -16.5342  -29.9089   23.6312 C   0  0  0  0  0  0
  -16.7257  -28.6505   23.0334 C   0  0  0  0  0  0
  -26.4457  -31.6605   25.0703 C   0  0  0  0  0  0
  -25.3745  -31.3685   26.1463 C   0  0  0  0  0  0
  -27.0265  -30.3051   24.6018 C   0  0  0  0  0  0
  -27.6027  -32.4321   25.7482 C   0  0  0  0  0  0
  -27.5587  -37.1823   24.8460 C   0  0  0  0  0  0
  -21.4116  -29.3025   22.3745 N   0  0  0  0  0  0
  -26.4295  -37.3822   23.9414 N   0  0  0  0  0  0
  -24.6579  -31.0858   22.0992 N   0  0  0  0  0  0
  -23.4180  -28.8203   23.3018 O   0  0  0  0  0  0
  -28.3852  -26.7166   20.0890 O   0  0  0  0  0  0
  -26.5606  -34.8946   22.4717 O   0  0  0  0  0  0
  -23.5292  -32.1433   23.7547 O   0  0  0  0  0  0
  -32.1017  -18.4221   22.0098 C   0  0  0  0  0  0
  -29.4799  -17.4252   21.8795 C   0  0  0  0  0  0
  -31.0179  -19.3320   22.0237 C   0  0  0  0  0  0
  -30.5658  -16.5314   21.8035 C   0  0  0  0  0  0
  -31.8832  -17.0344   21.9150 C   0  0  0  0  0  0
  -29.6963  -18.8119   21.9895 C   0  0  0  0  0  0
  -32.2735  -22.7327   23.0376 C   0  0  0  0  0  0
  -30.6747  -22.9109   21.0937 C   0  0  0  0  0  0
  -32.4333  -21.2323   22.7307 C   0  0  0  0  0  0
  -30.9073  -21.4196   20.8163 C   0  0  0  0  0  0
  -31.9067  -23.5551   21.7787 C   0  0  0  0  0  0
  -31.4716  -25.9346   21.0317 C   0  0  0  0  0  0
  -28.9789  -26.5149   21.3735 C   0  0  0  0  0  0
  -30.4369  -27.0134   21.4048 C   0  0  1  0  0  0
  -31.2366  -20.7271   22.0599 N   0  0  0  0  0  0
  -30.2869  -15.1491   21.6495 N   0  0  0  0  0  0
  -31.6747  -24.9749   22.1453 N   0  3  0  0  0  0
  -32.9474  -16.1965   21.9518 F   0  0  0  0  0  0
  -30.7162  -27.4895   22.6211 F   0  0  0  0  0  0
  -28.3117  -19.8465   22.1014 Cl  0  0  0  0  0  0
  -31.4603  -12.3722   19.0952 H   0  0  0  0  0  0
  -30.3055  -11.2558   19.7598 H   0  0  0  0  0  0
  -29.7152  -11.8275   17.3911 H   0  0  0  0  0  0
  -29.6598  -13.5258   17.7935 H   0  0  0  0  0  0
  -27.8124  -11.3254   18.7858 H   0  0  0  0  0  0
  -27.3572  -12.6819   17.7887 H   0  0  0  0  0  0
  -27.7302  -14.2561   19.6165 H   0  0  0  0  0  0
  -28.6638  -11.8891   21.3073 H   0  0  0  0  0  0
  -28.4521  -13.5035   21.8938 H   0  0  0  0  0  0
  -25.2756   -9.5689   22.4755 H   0  0  0  0  0  0
  -24.0002   -7.4637   22.7476 H   0  0  0  0  0  0
  -21.0840   -8.8773   19.8948 H   0  0  0  0  0  0
  -22.3693  -10.9675   19.6162 H   0  0  0  0  0  0
  -21.2003   -7.6145   23.9715 H   0  0  0  0  0  0
  -21.1483   -6.0526   25.9078 H   0  0  0  0  0  0
  -22.0598   -2.7613   23.2849 H   0  0  0  0  0  0
  -22.4128  -11.9879   22.4753 H   0  0  0  0  0  0
  -21.1140  -13.1261   22.2613 H   0  0  0  0  0  0
  -24.6723  -15.8455   20.5124 H   0  0  0  0  0  0
  -26.2924  -15.6207   20.0862 H   0  0  0  0  0  0
  -26.7073  -32.5603   23.1184 H   0  0  0  0  0  0
  -24.9989  -33.9816   25.0466 H   0  0  0  0  0  0
  -22.6816  -31.3068   21.4109 H   0  0  0  0  0  0
  -23.3747  -35.9664   23.3309 H   0  0  0  0  0  0
  -24.3568  -36.8946   22.2046 H   0  0  0  0  0  0
  -23.7224  -37.6540   23.6643 H   0  0  0  0  0  0
  -26.0140  -31.6194   20.5843 H   0  0  0  0  0  0
  -26.8086  -30.9172   21.9667 H   0  0  0  0  0  0
  -28.0872  -29.1670   21.1659 H   0  0  0  0  0  0
  -26.1140  -25.9932   19.0131 H   0  0  0  0  0  0
  -23.9969  -27.2886   19.0308 H   0  0  0  0  0  0
  -23.7048  -30.5963   19.4024 H   0  0  0  0  0  0
  -22.7302  -29.2356   19.8707 H   0  0  0  0  0  0
  -25.1270  -36.2023   25.0833 H   0  0  0  0  0  0
  -20.9941  -28.3216   24.1452 H   0  0  0  0  0  0
  -20.5648  -26.2259   23.3608 H   0  0  0  0  0  0
  -21.6631  -26.7431   22.1231 H   0  0  0  0  0  0
  -19.6913  -25.6298   21.1225 H   0  0  0  0  0  0
  -19.6691  -27.3202   20.6747 H   0  0  0  0  0  0
  -17.4191  -26.6672   21.4005 H   0  0  0  0  0  0
  -18.0310  -26.0053   22.8997 H   0  0  0  0  0  0
  -19.7920  -30.7238   24.2303 H   0  0  0  0  0  0
  -17.5006  -31.6261   24.5160 H   0  0  0  0  0  0
  -15.5346  -30.3001   23.7617 H   0  0  0  0  0  0
  -15.8654  -28.0837   22.7027 H   0  0  0  0  0  0
  -24.5905  -30.7048   25.7800 H   0  0  0  0  0  0
  -24.8953  -32.2835   26.4953 H   0  0  0  0  0  0
  -25.8123  -30.8821   27.0190 H   0  0  0  0  0  0
  -26.2781  -29.6858   24.1055 H   0  0  0  0  0  0
  -27.4026  -29.7234   25.4443 H   0  0  0  0  0  0
  -27.8630  -30.4370   23.9148 H   0  0  0  0  0  0
  -27.2608  -33.3567   26.2145 H   0  0  0  0  0  0
  -28.3803  -32.6979   25.0309 H   0  0  0  0  0  0
  -28.0736  -31.8399   26.5337 H   0  0  0  0  0  0
  -28.2613  -38.0116   24.7524 H   0  0  0  0  0  0
  -28.1077  -36.2652   24.6264 H   0  0  0  0  0  0
  -27.2304  -37.1458   25.8862 H   0  0  0  0  0  0
  -20.9267  -29.8772   21.6995 H   0  0  0  0  0  0
  -26.0195  -38.2904   24.1424 H   0  0  0  0  0  0
  -33.1216  -18.7700   22.0580 H   0  0  0  0  0  0
  -28.4657  -17.0564   21.8349 H   0  0  0  0  0  0
  -33.1964  -23.1089   23.4806 H   0  0  0  0  0  0
  -31.4993  -22.8517   23.7968 H   0  0  0  0  0  0
  -29.7903  -23.0227   21.7224 H   0  0  0  0  0  0
  -30.4423  -23.3977   20.1471 H   0  0  0  0  0  0
  -32.6086  -20.6841   23.6585 H   0  0  0  0  0  0
  -33.3082  -21.0779   22.0957 H   0  0  0  0  0  0
  -31.7294  -21.2972   20.1084 H   0  0  0  0  0  0
  -30.0268  -20.9934   20.3346 H   0  0  0  0  0  0
  -32.7515  -23.5183   21.0881 H   0  0  0  0  0  0
  -32.4324  -26.4021   20.8141 H   0  0  0  0  0  0
  -31.1649  -25.4483   20.1071 H   0  0  0  0  0  0
  -28.4114  -26.9971   22.1723 H   0  0  0  0  0  0
  -28.9289  -25.4516   21.6074 H   0  0  0  0  0  0
  -30.5322  -27.8659   20.7314 H   0  0  0  0  0  0
  -29.4486  -14.8034   22.0904 H   0  0  0  0  0  0
  -32.4734  -25.3028   22.6666 H   0  0  0  0  0  0
  -30.8877  -25.0388   22.7699 H   0  0  0  0  0  0
  1 25  1  0  0  0
  1 30  2  0  0  0
  1 86  1  0  0  0
  2  3  1  0  0  0
  2 25  1  0  0  0
  2 91  1  0  0  0
  2 92  1  0  0  0
  3  4  1  0  0  0
  3 93  1  0  0  0
  3 94  1  0  0  0
  4  5  1  0  0  0
  4 95  1  0  0  0
  4 96  1  0  0  0
  5  6  1  0  0  0
  5 26  1  0  0  0
  5 97  1  0  0  0
  6 25  1  0  0  0
  6 98  1  0  0  0
  6 99  1  0  0  0
  7  8  2  0  0  0
  7 26  1  0  0  0
  7 29  1  0  0  0
  8  9  1  0  0  0
  8 22  1  0  0  0
  9 10  1  0  0  0
  9 27  2  0  0  0
 10 11  2  0  0  0
 10 15  1  0  0  0
 11 12  1  0  0  0
 11100  1  0  0  0
 12 13  2  0  0  0
 12101  1  0  0  0
 13 14  1  0  0  0
 13 31  1  0  0  0
 14 15  2  0  0  0
 14102  1  0  0  0
 15103  1  0  0  0
 16 17  2  0  0  0
 16 21  1  0  0  0
 16 31  1  0  0  0
 17 18  1  0  0  0
 17104  1  0  0  0
 18 19  2  0  0  0
 18105  1  0  0  0
 19 20  1  0  0  0
 19 24  1  0  0  0
 20 21  2  0  0  0
 20106  1  0  0  0
 21 23  1  0  0  0
 22 28  1  0  0  0
 22 32  2  0  0  0
 26 27  1  0  0  0
 28107  1  0  0  0
 28108  1  0  0  0
 29109  1  0  0  0
 29110  1  0  0  0
 33 34  1  0  0  0
 33 66  1  0  0  0
 33 70  2  0  0  0
 34 36  1  0  0  0
 34 59  1  0  0  0
 34111  1  0  0  0
 35 44  2  0  0  0
 35 45  1  0  0  0
 35 68  1  0  0  0
 36 56  1  0  0  0
 36112  1  0  0  0
 37 39  1  0  0  0
 37 47  1  0  0  0
 37 66  1  0  0  0
 37113  1  0  0  0
 38 43  2  0  0  0
 38 46  1  0  0  0
 38 47  1  0  0  0
 39 64  1  0  0  0
 39 67  2  0  0  0
 40 52  1  0  0  0
 40 53  2  0  0  0
 40 58  1  0  0  0
 41114  1  0  0  0
 41115  1  0  0  0
 41116  1  0  0  0
 41 48  1  0  0  0
 42 43  1  0  0  0
 42 66  1  0  0  0
 42117  1  0  0  0
 42118  1  0  0  0
 43 44  1  0  0  0
 44119  1  0  0  0
 45 46  2  0  0  0
 45120  1  0  0  0
 46121  1  0  0  0
 47122  1  0  0  0
 47123  1  0  0  0
 48 56  1  0  0  0
 48 65  1  0  0  0
 48124  1  0  0  0
 49 50  1  0  0  0
 49 53  1  0  0  0
 49 64  1  0  0  0
 49125  1  0  0  0
 50 51  1  0  0  0
 50126  1  0  0  0
 50127  1  0  0  0
 51 52  1  0  0  0
 51128  1  0  0  0
 51129  1  0  0  0
 52130  1  0  0  0
 52131  1  0  0  0
 53 54  1  0  0  0
 54 55  2  0  0  0
 54132  1  0  0  0
 55 57  1  0  0  0
 55133  1  0  0  0
 56 69  2  0  0  0
 57 58  2  0  0  0
 57134  1  0  0  0
 58135  1  0  0  0
 59 60  1  0  0  0
 59 61  1  0  0  0
 59 62  1  0  0  0
 60136  1  0  0  0
 60137  1  0  0  0
 60138  1  0  0  0
 61139  1  0  0  0
 61140  1  0  0  0
 61141  1  0  0  0
 62142  1  0  0  0
 62143  1  0  0  0
 62144  1  0  0  0
 63 65  1  0  0  0
 63145  1  0  0  0
 63146  1  0  0  0
 63147  1  0  0  0
 64148  1  0  0  0
 65149  1  0  0  0
 68 83  1  0  0  0
 71 73  2  0  0  0
 71 75  1  0  0  0
 71150  1  0  0  0
 72 74  1  0  0  0
 72 76  2  0  0  0
 72151  1  0  0  0
 73 76  1  0  0  0
 73 85  1  0  0  0
 74 75  2  0  0  0
 74 86  1  0  0  0
 75 88  1  0  0  0
 76 90  1  0  0  0
 77 79  1  0  0  0
 77 81  1  0  0  0
 77152  1  0  0  0
 77153  1  0  0  0
 78 80  1  0  0  0
 78 81  1  0  0  0
 78154  1  0  0  0
 78155  1  0  0  0
 79 85  1  0  0  0
 79156  1  0  0  0
 79157  1  0  0  0
 80 85  1  0  0  0
 80158  1  0  0  0
 80159  1  0  0  0
 81 87  1  0  0  0
 81160  1  0  0  0
 82 84  1  0  0  0
 82 87  1  0  0  0
 82161  1  0  0  0
 82162  1  0  0  0
 83 84  1  0  0  0
 83163  1  0  0  0
 83164  1  0  0  0
 84 89  1  0  0  0
 84165  1  0  0  0
 86166  1  0  0  0
 87167  1  0  0  0
 87168  1  0  0  0
M  CHG  1  87   1
M  ISO  4   1 100  68 101  83 101  86 100
M  END
> <chiral flag>
0

> <version>
0

> <s_m_source_file>
/data/baiqing/PycharmProjects/Reinvent-master-3.2/result/LINK_invent/BTK/process_docking_weight1_custom_product_contain_oxygen_bond_distance_aromatic_linkinvent_7_9_3/rearranged_h_0025.sdf

> <i_m_source_file_index>
98

> <r_mmod_Potential_Energy-OPLS-2005>
-182.847091674805

> <r_mmod_Stretch_Energy-OPLS-2005>
34.9335403442383

> <r_mmod_Bend_Energy-OPLS-2005>
97.1562576293945

> <r_mmod_Torsional_Energy-OPLS-2005>
297.994567871094

> <r_mmod_Improper_Torsional_Energy-OPLS-2005>
6.52951765060425

> <r_mmod_Van_der_Waal_Energy-OPLS-2005>
166.62287902832

> <r_mmod_Electrostatic_Energy-OPLS-2005>
-333.048034667969

> <r_mmod_Solvation_Energy-OPLS-2005>
-459.376861572266

> <b_mmod_Minimization_Converged-OPLS-2005>
0

> <r_mmod_RMS_Derivative-OPLS-2005>
0.816121697425842

$$$$
98
                    3D
 Structure written by MMmdl.
156165  0  0  1  0            999 V2000
  -30.5213  -14.9060   20.4394 C   0  0  0  0  0  0
  -30.4536  -12.5577   19.4925 C   0  0  0  0  0  0
  -29.5258  -12.5333   18.2532 C   0  0  0  0  0  0
  -28.0552  -12.3254   18.6676 C   0  0  0  0  0  0
  -27.6387  -13.2398   19.8498 C   0  0  2  0  0  0
  -28.6841  -13.2161   20.9869 C   0  0  0  0  0  0
  -25.2474  -13.8176   20.5695 C   0  0  0  0  0  0
  -24.1776  -13.0407   20.9182 C   0  0  0  0  0  0
  -24.6396  -11.6898   20.8731 C   0  0  0  0  0  0
  -23.9076  -10.4278   21.0398 C   0  0  0  0  0  0
  -24.3622   -9.4195   21.9181 C   0  0  0  0  0  0
  -23.6289   -8.2237   22.0757 C   0  0  0  0  0  0
  -22.4271   -8.0280   21.3549 C   0  0  0  0  0  0
  -21.9909   -9.0251   20.4649 C   0  0  0  0  0  0
  -22.7245  -10.2121   20.3050 C   0  0  0  0  0  0
  -21.6853   -6.0732   22.5280 C   0  0  0  0  0  0
  -21.4015   -6.5637   23.8212 C   0  0  0  0  0  0
  -21.3658   -5.6789   24.9176 C   0  0  0  0  0  0
  -21.6043   -4.3051   24.7225 C   0  0  0  0  0  0
  -21.8815   -3.8142   23.4347 C   0  0  0  0  0  0
  -21.9191   -4.6961   22.3403 C   0  0  0  0  0  0
  -22.7800  -13.5193   21.1857 C   0  0  0  0  0  0
  -22.1659   -4.2145   21.0981 F   0  0  0  0  0  0
  -21.5631   -3.4535   25.7737 F   0  0  0  0  0  0
  -29.9707  -13.6291   20.4046 N   0  0  0  0  0  0
  -26.2928  -12.9412   20.3290 N   0  0  0  0  0  0
  -25.9338  -11.6542   20.5746 N   0  0  0  0  0  0
  -22.0456  -12.8193   22.0428 N   0  0  0  0  0  0
  -25.4081  -15.1905   20.4184 N   0  0  0  0  0  0
  -31.7070  -15.0438   20.1181 O   0  0  0  0  0  0
  -21.6638   -6.8876   21.4242 O   0  0  0  0  0  0
  -22.3474  -14.5501   20.6715 O   0  0  0  0  0  0
  -24.6417  -31.8459   23.1902 C   0  0  0  0  0  0
  -25.9195  -32.4707   23.8284 C   0  0  1  0  0  0
  -27.2209  -27.1558   20.1470 C   0  0  0  0  0  0
  -25.5945  -33.8511   24.2196 N   0  0  0  0  0  0
  -23.4445  -30.4658   21.5360 C   0  0  2  0  0  0
  -24.8939  -28.8951   20.1144 C   0  0  0  0  0  0
  -22.7557  -29.4557   22.4875 C   0  0  0  0  0  0
  -18.0301  -28.1396   22.8479 C   0  0  0  0  0  0
  -24.1492  -36.7263   23.2642 C   0  0  0  0  0  0
  -25.9997  -30.7253   21.3870 C   0  0  0  0  0  0
  -26.0716  -29.3376   20.7302 C   0  0  0  0  0  0
  -27.2369  -28.4849   20.7285 C   0  0  0  0  0  0
  -26.0169  -26.8133   19.4915 C   0  0  0  0  0  0
  -24.8777  -27.6448   19.4808 C   0  0  0  0  0  0
  -23.6702  -29.7954   20.1558 C   0  0  0  0  0  0
  -25.4123  -36.3038   24.0313 C   0  0  1  0  0  0
  -20.5913  -28.3720   23.1243 C   0  0  2  0  0  0
  -20.6788  -26.9427   22.5405 C   0  0  0  0  0  0
  -19.5759  -26.6384   21.5214 C   0  0  0  0  0  0
  -18.1940  -26.7935   22.1626 C   0  0  0  0  0  0
  -19.1557  -28.8875   23.2853 C   0  0  0  0  0  0
  -18.9475  -30.1473   23.8878 C   0  0  0  0  0  0
  -17.6471  -30.6593   24.0561 C   0  0  0  0  0  0
  -25.9071  -34.9413   23.5065 C   0  0  0  0  0  0
  -16.5363  -29.9087   23.6338 C   0  0  0  0  0  0
  -16.7285  -28.6506   23.0356 C   0  0  0  0  0  0
  -26.4517  -31.6573   25.0725 C   0  0  0  0  0  0
  -25.3701  -31.3763   26.1421 C   0  0  0  0  0  0
  -27.0376  -30.2968   24.6301 C   0  0  0  0  0  0
  -27.6048  -32.4335   25.7509 C   0  0  0  0  0  0
  -27.5574  -37.1790   24.8463 C   0  0  0  0  0  0
  -21.4251  -29.3049   22.3619 N   0  0  0  0  0  0
  -26.4287  -37.3749   23.9405 N   0  0  0  0  0  0
  -24.7150  -31.0331   22.0931 N   0  0  0  0  0  0
  -23.4208  -28.8104   23.3016 O   0  0  0  0  0  0
  -28.2888  -26.1909   20.1813 O   0  0  0  0  0  0
  -26.5660  -34.8908   22.4647 O   0  0  0  0  0  0
  -23.5539  -32.1325   23.7132 O   0  0  0  0  0  0
  -30.2835  -19.9582   20.2648 C   0  0  0  0  0  0
  -30.5523  -18.5169   20.2557 C   0  0  0  0  0  0
  -29.0170  -20.5585   20.6116 C   0  0  0  0  0  0
  -29.5749  -17.5143   20.5939 C   0  0  0  0  0  0
  -28.3177  -18.1152   20.9052 C   0  0  0  0  0  0
  -28.0499  -19.5377   20.9194 C   0  0  0  0  0  0
  -30.0882  -23.1785   22.4018 C   0  0  0  0  0  0
  -30.3428  -23.7143   20.9889 C   0  0  0  0  0  0
  -28.8642  -22.2577   22.2750 C   0  0  0  0  0  0
  -29.0647  -23.3709   20.2287 C   0  0  2  0  0  0
  -28.0043  -24.6757   20.3678 C   0  0  0  0  0  0
  -28.6867  -21.9983   20.8466 N   0  0  0  0  0  0
  -29.6498  -15.9886   20.6771 N   0  0  0  0  0  0
  -27.3088  -17.2669   21.2265 F   0  0  0  0  0  0
  -26.4497  -20.0282   21.3714 Cl  0  0  0  0  0  0
  -31.4867  -12.7268   19.1842 H   0  0  0  0  0  0
  -30.4479  -11.5924   20.0010 H   0  0  0  0  0  0
  -29.8352  -11.7467   17.5637 H   0  0  0  0  0  0
  -29.6222  -13.4732   17.7072 H   0  0  0  0  0  0
  -27.9401  -11.2796   18.9548 H   0  0  0  0  0  0
  -27.3933  -12.4815   17.8149 H   0  0  0  0  0  0
  -27.6133  -14.2520   19.4455 H   0  0  0  0  0  0
  -28.7580  -12.2206   21.4275 H   0  0  0  0  0  0
  -28.3892  -13.8847   21.7974 H   0  0  0  0  0  0
  -25.2767   -9.5671   22.4753 H   0  0  0  0  0  0
  -23.9995   -7.4629   22.7479 H   0  0  0  0  0  0
  -21.0839   -8.8771   19.8957 H   0  0  0  0  0  0
  -22.3708  -10.9658   19.6156 H   0  0  0  0  0  0
  -21.2009   -7.6144   23.9714 H   0  0  0  0  0  0
  -21.1486   -6.0523   25.9079 H   0  0  0  0  0  0
  -22.0596   -2.7605   23.2849 H   0  0  0  0  0  0
  -22.4084  -11.9861   22.4816 H   0  0  0  0  0  0
  -21.1078  -13.1223   22.2641 H   0  0  0  0  0  0
  -24.6446  -15.8353   20.5878 H   0  0  0  0  0  0
  -26.2802  -15.6676   20.2294 H   0  0  0  0  0  0
  -26.7263  -32.5322   23.1016 H   0  0  0  0  0  0
  -25.0063  -33.9627   25.0321 H   0  0  0  0  0  0
  -22.7460  -31.2910   21.3825 H   0  0  0  0  0  0
  -23.3753  -35.9596   23.3295 H   0  0  0  0  0  0
  -24.3577  -36.8907   22.2059 H   0  0  0  0  0  0
  -23.7250  -37.6458   23.6686 H   0  0  0  0  0  0
  -26.1521  -31.4794   20.6137 H   0  0  0  0  0  0
  -26.8715  -30.7766   22.0277 H   0  0  0  0  0  0
  -28.1364  -28.8210   21.2249 H   0  0  0  0  0  0
  -25.9239  -25.8713   18.9751 H   0  0  0  0  0  0
  -23.9808  -27.3042   18.9816 H   0  0  0  0  0  0
  -23.8063  -30.5697   19.3996 H   0  0  0  0  0  0
  -22.7858  -29.2360   19.8462 H   0  0  0  0  0  0
  -25.1312  -36.1865   25.0803 H   0  0  0  0  0  0
  -21.0001  -28.3308   24.1364 H   0  0  0  0  0  0
  -20.5686  -26.2332   23.3620 H   0  0  0  0  0  0
  -21.6653  -26.7435   22.1201 H   0  0  0  0  0  0
  -19.6922  -25.6289   21.1258 H   0  0  0  0  0  0
  -19.6696  -27.3182   20.6734 H   0  0  0  0  0  0
  -17.4210  -26.6676   21.4032 H   0  0  0  0  0  0
  -18.0341  -26.0082   22.9026 H   0  0  0  0  0  0
  -19.7949  -30.7295   24.2239 H   0  0  0  0  0  0
  -17.5024  -31.6271   24.5166 H   0  0  0  0  0  0
  -15.5363  -30.2983   23.7672 H   0  0  0  0  0  0
  -15.8685  -28.0820   22.7081 H   0  0  0  0  0  0
  -24.5881  -30.7111   25.7740 H   0  0  0  0  0  0
  -24.8890  -32.2949   26.4794 H   0  0  0  0  0  0
  -25.7984  -30.8968   27.0231 H   0  0  0  0  0  0
  -26.2990  -29.6699   24.1290 H   0  0  0  0  0  0
  -27.3964  -29.7262   25.4879 H   0  0  0  0  0  0
  -27.8911  -30.4202   23.9629 H   0  0  0  0  0  0
  -27.2643  -33.3649   26.2041 H   0  0  0  0  0  0
  -28.3884  -32.6871   25.0357 H   0  0  0  0  0  0
  -28.0685  -31.8490   26.5464 H   0  0  0  0  0  0
  -28.2584  -38.0092   24.7503 H   0  0  0  0  0  0
  -28.1076  -36.2621   24.6295 H   0  0  0  0  0  0
  -27.2292  -37.1442   25.8865 H   0  0  0  0  0  0
  -20.9459  -29.8760   21.6798 H   0  0  0  0  0  0
  -26.0152  -38.2817   24.1407 H   0  0  0  0  0  0
  -31.1064  -20.6194   20.0355 H   0  0  0  0  0  0
  -31.5491  -18.1897   19.9972 H   0  0  0  0  0  0
  -29.8858  -23.9863   23.1066 H   0  0  0  0  0  0
  -30.9603  -22.6350   22.7679 H   0  0  0  0  0  0
  -31.1867  -23.1867   20.5423 H   0  0  0  0  0  0
  -30.5793  -24.7792   20.9708 H   0  0  0  0  0  0
  -27.9718  -22.7538   22.6598 H   0  0  0  0  0  0
  -28.9967  -21.3560   22.8775 H   0  0  0  0  0  0
  -29.3044  -23.2362   19.1724 H   0  0  0  0  0  0
  -27.5819  -24.6260   21.3712 H   0  0  0  0  0  0
  -27.1767  -24.4017   19.7191 H   0  0  0  0  0  0
  -28.7486  -15.6202   20.9435 H   0  0  0  0  0  0
  1 25  1  0  0  0
  1 30  2  0  0  0
  1 83  1  0  0  0
  2  3  1  0  0  0
  2 25  1  0  0  0
  2 86  1  0  0  0
  2 87  1  0  0  0
  3  4  1  0  0  0
  3 88  1  0  0  0
  3 89  1  0  0  0
  4  5  1  0  0  0
  4 90  1  0  0  0
  4 91  1  0  0  0
  5  6  1  0  0  0
  5 26  1  0  0  0
  5 92  1  0  0  0
  6 25  1  0  0  0
  6 93  1  0  0  0
  6 94  1  0  0  0
  7  8  2  0  0  0
  7 26  1  0  0  0
  7 29  1  0  0  0
  8  9  1  0  0  0
  8 22  1  0  0  0
  9 10  1  0  0  0
  9 27  2  0  0  0
 10 11  2  0  0  0
 10 15  1  0  0  0
 11 12  1  0  0  0
 11 95  1  0  0  0
 12 13  2  0  0  0
 12 96  1  0  0  0
 13 14  1  0  0  0
 13 31  1  0  0  0
 14 15  2  0  0  0
 14 97  1  0  0  0
 15 98  1  0  0  0
 16 17  2  0  0  0
 16 21  1  0  0  0
 16 31  1  0  0  0
 17 18  1  0  0  0
 17 99  1  0  0  0
 18 19  2  0  0  0
 18100  1  0  0  0
 19 20  1  0  0  0
 19 24  1  0  0  0
 20 21  2  0  0  0
 20101  1  0  0  0
 21 23  1  0  0  0
 22 28  1  0  0  0
 22 32  2  0  0  0
 26 27  1  0  0  0
 28102  1  0  0  0
 28103  1  0  0  0
 29104  1  0  0  0
 29105  1  0  0  0
 33 34  1  0  0  0
 33 66  1  0  0  0
 33 70  2  0  0  0
 34 36  1  0  0  0
 34 59  1  0  0  0
 34106  1  0  0  0
 35 44  2  0  0  0
 35 45  1  0  0  0
 35 68  1  0  0  0
 36 56  1  0  0  0
 36107  1  0  0  0
 37 39  1  0  0  0
 37 47  1  0  0  0
 37 66  1  0  0  0
 37108  1  0  0  0
 38 43  2  0  0  0
 38 46  1  0  0  0
 38 47  1  0  0  0
 39 64  1  0  0  0
 39 67  2  0  0  0
 40 52  1  0  0  0
 40 53  2  0  0  0
 40 58  1  0  0  0
 41109  1  0  0  0
 41110  1  0  0  0
 41111  1  0  0  0
 41 48  1  0  0  0
 42 43  1  0  0  0
 42 66  1  0  0  0
 42112  1  0  0  0
 42113  1  0  0  0
 43 44  1  0  0  0
 44114  1  0  0  0
 45 46  2  0  0  0
 45115  1  0  0  0
 46116  1  0  0  0
 47117  1  0  0  0
 47118  1  0  0  0
 48 56  1  0  0  0
 48 65  1  0  0  0
 48119  1  0  0  0
 49 50  1  0  0  0
 49 53  1  0  0  0
 49 64  1  0  0  0
 49120  1  0  0  0
 50 51  1  0  0  0
 50121  1  0  0  0
 50122  1  0  0  0
 51 52  1  0  0  0
 51123  1  0  0  0
 51124  1  0  0  0
 52125  1  0  0  0
 52126  1  0  0  0
 53 54  1  0  0  0
 54 55  2  0  0  0
 54127  1  0  0  0
 55 57  1  0  0  0
 55128  1  0  0  0
 56 69  2  0  0  0
 57 58  2  0  0  0
 57129  1  0  0  0
 58130  1  0  0  0
 59 60  1  0  0  0
 59 61  1  0  0  0
 59 62  1  0  0  0
 60131  1  0  0  0
 60132  1  0  0  0
 60133  1  0  0  0
 61134  1  0  0  0
 61135  1  0  0  0
 61136  1  0  0  0
 62137  1  0  0  0
 62138  1  0  0  0
 62139  1  0  0  0
 63 65  1  0  0  0
 63140  1  0  0  0
 63141  1  0  0  0
 63142  1  0  0  0
 64143  1  0  0  0
 65144  1  0  0  0
 68 81  1  0  0  0
 71 72  2  0  0  0
 71 73  1  0  0  0
 71145  1  0  0  0
 72 74  1  0  0  0
 72146  1  0  0  0
 73 76  2  0  0  0
 73 82  1  0  0  0
 74 75  2  0  0  0
 74 83  1  0  0  0
 75 76  1  0  0  0
 75 84  1  0  0  0
 76 85  1  0  0  0
 77 78  1  0  0  0
 77 79  1  0  0  0
 77147  1  0  0  0
 77148  1  0  0  0
 78 80  1  0  0  0
 78149  1  0  0  0
 78150  1  0  0  0
 79 82  1  0  0  0
 79151  1  0  0  0
 79152  1  0  0  0
 80 81  1  0  0  0
 80 82  1  0  0  0
 80153  1  0  0  0
 81154  1  0  0  0
 81155  1  0  0  0
 83156  1  0  0  0
M  ISO  4   1 100  68 101  81 101  83 100
M  END
> <chiral flag>
0

> <version>
0

> <s_m_source_file>
/data/baiqing/PycharmProjects/Reinvent-master-3.2/result/LINK_invent/BTK/process_docking_weight1_custom_product_contain_oxygen_bond_distance_aromatic_linkinvent_7_9_3/rearranged_h_0025.sdf

> <i_m_source_file_index>
99

> <r_mmod_Potential_Energy-OPLS-2005>
593.365295410156

> <r_mmod_Stretch_Energy-OPLS-2005>
212.879806518555

> <r_mmod_Bend_Energy-OPLS-2005>
317.942138671875

> <r_mmod_Torsional_Energy-OPLS-2005>
301.792663574219

> <r_mmod_Improper_Torsional_Energy-OPLS-2005>
9.36920261383057

> <r_mmod_Van_der_Waal_Energy-OPLS-2005>
130.652648925781

> <r_mmod_Electrostatic_Energy-OPLS-2005>
-336.581115722656

> <r_mmod_Solvation_Energy-OPLS-2005>
-210.068466186523

> <b_mmod_Minimization_Converged-OPLS-2005>
0

> <r_mmod_RMS_Derivative-OPLS-2005>
0.796617269515991

$$$$
99
                    3D
 Structure written by MMmdl.
162171  0  0  1  0            999 V2000
  -30.5316  -14.9078   20.4257 C   0  0  0  0  0  0
  -30.4545  -12.5586   19.4901 C   0  0  0  0  0  0
  -29.5280  -12.5272   18.2513 C   0  0  0  0  0  0
  -28.0562  -12.3232   18.6624 C   0  0  0  0  0  0
  -27.6379  -13.2403   19.8414 C   0  0  2  0  0  0
  -28.6830  -13.2327   20.9791 C   0  0  0  0  0  0
  -25.2496  -13.8204   20.5692 C   0  0  0  0  0  0
  -24.1806  -13.0436   20.9212 C   0  0  0  0  0  0
  -24.6407  -11.6919   20.8735 C   0  0  0  0  0  0
  -23.9072  -10.4299   21.0393 C   0  0  0  0  0  0
  -24.3621   -9.4219   21.9169 C   0  0  0  0  0  0
  -23.6307   -8.2248   22.0741 C   0  0  0  0  0  0
  -22.4288   -8.0281   21.3536 C   0  0  0  0  0  0
  -21.9917   -9.0249   20.4633 C   0  0  0  0  0  0
  -22.7239  -10.2133   20.3044 C   0  0  0  0  0  0
  -21.6859   -6.0736   22.5280 C   0  0  0  0  0  0
  -21.4014   -6.5637   23.8214 C   0  0  0  0  0  0
  -21.3665   -5.6790   24.9174 C   0  0  0  0  0  0
  -21.6045   -4.3052   24.7221 C   0  0  0  0  0  0
  -21.8824   -3.8142   23.4346 C   0  0  0  0  0  0
  -21.9195   -4.6962   22.3402 C   0  0  0  0  0  0
  -22.7822  -13.5211   21.1870 C   0  0  0  0  0  0
  -22.1663   -4.2143   21.0977 F   0  0  0  0  0  0
  -21.5631   -3.4536   25.7736 F   0  0  0  0  0  0
  -29.9692  -13.6360   20.3925 N   0  0  0  0  0  0
  -26.2925  -12.9419   20.3233 N   0  0  0  0  0  0
  -25.9340  -11.6558   20.5721 N   0  0  0  0  0  0
  -22.0457  -12.8213   22.0428 N   0  0  0  0  0  0
  -25.4137  -15.1937   20.4109 N   0  0  0  0  0  0
  -31.7280  -15.0229   20.1399 O   0  0  0  0  0  0
  -21.6648   -6.8882   21.4244 O   0  0  0  0  0  0
  -22.3510  -14.5505   20.6701 O   0  0  0  0  0  0
  -24.6389  -31.8457   23.1885 C   0  0  0  0  0  0
  -25.9173  -32.4705   23.8265 C   0  0  1  0  0  0
  -27.2283  -27.1720   20.1432 C   0  0  0  0  0  0
  -25.5936  -33.8507   24.2189 N   0  0  0  0  0  0
  -23.4420  -30.4646   21.5325 C   0  0  2  0  0  0
  -24.8939  -28.8951   20.1088 C   0  0  0  0  0  0
  -22.7548  -29.4550   22.4853 C   0  0  0  0  0  0
  -18.0301  -28.1386   22.8480 C   0  0  0  0  0  0
  -24.1498  -36.7269   23.2640 C   0  0  0  0  0  0
  -25.9944  -30.7304   21.3825 C   0  0  0  0  0  0
  -26.0680  -29.3439   20.7259 C   0  0  0  0  0  0
  -27.2352  -28.4975   20.7282 C   0  0  0  0  0  0
  -26.0297  -26.8169   19.4849 C   0  0  0  0  0  0
  -24.8857  -27.6440   19.4733 C   0  0  0  0  0  0
  -23.6676  -29.7921   20.1522 C   0  0  0  0  0  0
  -25.4129  -36.3043   24.0317 C   0  0  1  0  0  0
  -20.5912  -28.3712   23.1241 C   0  0  2  0  0  0
  -20.6786  -26.9417   22.5403 C   0  0  0  0  0  0
  -19.5761  -26.6374   21.5209 C   0  0  0  0  0  0
  -18.1942  -26.7925   22.1622 C   0  0  0  0  0  0
  -19.1556  -28.8865   23.2857 C   0  0  0  0  0  0
  -18.9474  -30.1462   23.8882 C   0  0  0  0  0  0
  -17.6472  -30.6587   24.0556 C   0  0  0  0  0  0
  -25.9071  -34.9414   23.5065 C   0  0  0  0  0  0
  -16.5362  -29.9080   23.6331 C   0  0  0  0  0  0
  -16.7286  -28.6495   23.0355 C   0  0  0  0  0  0
  -26.4508  -31.6554   25.0689 C   0  0  0  0  0  0
  -25.3699  -31.3733   26.1386 C   0  0  0  0  0  0
  -27.0369  -30.2958   24.6239 C   0  0  0  0  0  0
  -27.6042  -32.4313   25.7473 C   0  0  0  0  0  0
  -27.5585  -37.1794   24.8464 C   0  0  0  0  0  0
  -21.4240  -29.3047   22.3616 N   0  0  0  0  0  0
  -26.4298  -37.3751   23.9404 N   0  0  0  0  0  0
  -24.7109  -31.0343   22.0902 N   0  0  0  0  0  0
  -23.4208  -28.8098   23.2991 O   0  0  0  0  0  0
  -28.2998  -26.2191   20.2227 O   0  0  0  0  0  0
  -26.5661  -34.8907   22.4648 O   0  0  0  0  0  0
  -23.5518  -32.1309   23.7133 O   0  0  0  0  0  0
  -28.3947  -19.6018   19.6365 C   0  0  0  0  0  0
  -28.5715  -18.1738   19.7475 C   0  0  0  0  0  0
  -30.3828  -19.9631   20.8549 C   0  0  0  0  0  0
  -29.2642  -20.6052   20.1752 C   0  0  0  0  0  0
  -29.6624  -17.5285   20.4079 C   0  0  0  0  0  0
  -30.5542  -18.5045   20.9800 C   0  0  0  0  0  0
  -30.6612  -23.1327   18.5492 C   0  0  0  0  0  0
  -30.4936  -23.9456   19.8400 C   0  0  0  0  0  0
  -29.4141  -22.2443   18.4531 C   0  0  0  0  0  0
  -29.1448  -23.4777   20.4253 C   0  0  1  0  0  0
  -31.4826  -20.8145   21.4619 C   0  0  0  0  0  0
  -29.1116  -23.4462   21.9630 C   0  0  0  0  0  0
  -28.0884  -24.7079   19.9717 C   0  0  0  0  0  0
  -28.9745  -22.0383   19.8293 N   0  0  0  0  0  0
  -29.6575  -16.0074   20.5727 N   0  0  0  0  0  0
  -31.8790  -17.8963   21.9176 Cl  0  0  0  0  0  0
  -31.4862  -12.7292   19.1773 H   0  0  0  0  0  0
  -30.4527  -11.5960   20.0051 H   0  0  0  0  0  0
  -29.8412  -11.7369   17.5677 H   0  0  0  0  0  0
  -29.6263  -13.4649   17.7026 H   0  0  0  0  0  0
  -27.9357  -11.2782   18.9478 H   0  0  0  0  0  0
  -27.3988  -12.4795   17.8060 H   0  0  0  0  0  0
  -27.6096  -14.2493   19.4299 H   0  0  0  0  0  0
  -28.7563  -12.2469   21.4400 H   0  0  0  0  0  0
  -28.3881  -13.9203   21.7739 H   0  0  0  0  0  0
  -25.2764   -9.5708   22.4742 H   0  0  0  0  0  0
  -24.0020   -7.4648   22.7472 H   0  0  0  0  0  0
  -21.0840   -8.8766   19.8953 H   0  0  0  0  0  0
  -22.3688  -10.9665   19.6156 H   0  0  0  0  0  0
  -21.2003   -7.6143   23.9719 H   0  0  0  0  0  0
  -21.1483   -6.0511   25.9080 H   0  0  0  0  0  0
  -22.0597   -2.7604   23.2838 H   0  0  0  0  0  0
  -22.4069  -11.9890   22.4846 H   0  0  0  0  0  0
  -21.1065  -13.1238   22.2599 H   0  0  0  0  0  0
  -24.6343  -15.8338   20.5201 H   0  0  0  0  0  0
  -26.2401  -15.6399   20.0373 H   0  0  0  0  0  0
  -26.7232  -32.5327   23.0990 H   0  0  0  0  0  0
  -25.0060  -33.9621   25.0320 H   0  0  0  0  0  0
  -22.7435  -31.2897   21.3785 H   0  0  0  0  0  0
  -23.3762  -35.9599   23.3285 H   0  0  0  0  0  0
  -24.3590  -36.8916   22.2059 H   0  0  0  0  0  0
  -23.7249  -37.6460   23.6685 H   0  0  0  0  0  0
  -26.1454  -31.4852   20.6097 H   0  0  0  0  0  0
  -26.8663  -30.7815   22.0226 H   0  0  0  0  0  0
  -28.1305  -28.8369   21.2299 H   0  0  0  0  0  0
  -25.9487  -25.8630   18.9856 H   0  0  0  0  0  0
  -23.9904  -27.2985   18.9744 H   0  0  0  0  0  0
  -23.7986  -30.5639   19.3930 H   0  0  0  0  0  0
  -22.7846  -29.2291   19.8454 H   0  0  0  0  0  0
  -25.1317  -36.1875   25.0811 H   0  0  0  0  0  0
  -21.0015  -28.3297   24.1357 H   0  0  0  0  0  0
  -20.5670  -26.2326   23.3617 H   0  0  0  0  0  0
  -21.6652  -26.7415   22.1205 H   0  0  0  0  0  0
  -19.6920  -25.6277   21.1252 H   0  0  0  0  0  0
  -19.6696  -27.3171   20.6729 H   0  0  0  0  0  0
  -17.4211  -26.6669   21.4025 H   0  0  0  0  0  0
  -18.0345  -26.0064   22.9017 H   0  0  0  0  0  0
  -19.7952  -30.7279   24.2247 H   0  0  0  0  0  0
  -17.5025  -31.6267   24.5155 H   0  0  0  0  0  0
  -15.5362  -30.2978   23.7657 H   0  0  0  0  0  0
  -15.8686  -28.0805   22.7083 H   0  0  0  0  0  0
  -24.5880  -30.7087   25.7692 H   0  0  0  0  0  0
  -24.8887  -32.2915   26.4763 H   0  0  0  0  0  0
  -25.7980  -30.8921   27.0190 H   0  0  0  0  0  0
  -26.2971  -29.6681   24.1259 H   0  0  0  0  0  0
  -27.4014  -29.7249   25.4788 H   0  0  0  0  0  0
  -27.8864  -30.4198   23.9522 H   0  0  0  0  0  0
  -27.2633  -33.3625   26.2010 H   0  0  0  0  0  0
  -28.3873  -32.6856   25.0316 H   0  0  0  0  0  0
  -28.0688  -31.8464   26.5421 H   0  0  0  0  0  0
  -28.2589  -38.0102   24.7518 H   0  0  0  0  0  0
  -28.1097  -36.2634   24.6286 H   0  0  0  0  0  0
  -27.2306  -37.1434   25.8868 H   0  0  0  0  0  0
  -20.9437  -29.8775   21.6813 H   0  0  0  0  0  0
  -26.0167  -38.2823   24.1398 H   0  0  0  0  0  0
  -27.5330  -19.9413   19.0791 H   0  0  0  0  0  0
  -27.8173  -17.5506   19.2883 H   0  0  0  0  0  0
  -31.5606  -22.5191   18.6145 H   0  0  0  0  0  0
  -30.7627  -23.7686   17.6688 H   0  0  0  0  0  0
  -30.5038  -25.0144   19.6219 H   0  0  0  0  0  0
  -31.3324  -23.8027   20.5182 H   0  0  0  0  0  0
  -29.6424  -21.3234   17.9122 H   0  0  0  0  0  0
  -28.6249  -22.7432   17.8889 H   0  0  0  0  0  0
  -31.4217  -21.8400   21.1410 H   0  0  0  0  0  0
  -32.4683  -20.4619   21.1560 H   0  0  0  0  0  0
  -31.4228  -20.7929   22.5498 H   0  0  0  0  0  0
  -29.2820  -24.4433   22.3730 H   0  0  0  0  0  0
  -29.8601  -22.7912   22.4007 H   0  0  0  0  0  0
  -28.1388  -23.1116   22.3247 H   0  0  0  0  0  0
  -27.1197  -24.4473   20.3990 H   0  0  0  0  0  0
  -27.9509  -24.6331   18.8934 H   0  0  0  0  0  0
  -28.7218  -15.6541   20.6887 H   0  0  0  0  0  0
  1 25  1  0  0  0
  1 30  2  0  0  0
  1 85  1  0  0  0
  2  3  1  0  0  0
  2 25  1  0  0  0
  2 87  1  0  0  0
  2 88  1  0  0  0
  3  4  1  0  0  0
  3 89  1  0  0  0
  3 90  1  0  0  0
  4  5  1  0  0  0
  4 91  1  0  0  0
  4 92  1  0  0  0
  5  6  1  0  0  0
  5 26  1  0  0  0
  5 93  1  0  0  0
  6 25  1  0  0  0
  6 94  1  0  0  0
  6 95  1  0  0  0
  7  8  2  0  0  0
  7 26  1  0  0  0
  7 29  1  0  0  0
  8  9  1  0  0  0
  8 22  1  0  0  0
  9 10  1  0  0  0
  9 27  2  0  0  0
 10 11  2  0  0  0
 10 15  1  0  0  0
 11 12  1  0  0  0
 11 96  1  0  0  0
 12 13  2  0  0  0
 12 97  1  0  0  0
 13 14  1  0  0  0
 13 31  1  0  0  0
 14 15  2  0  0  0
 14 98  1  0  0  0
 15 99  1  0  0  0
 16 17  2  0  0  0
 16 21  1  0  0  0
 16 31  1  0  0  0
 17 18  1  0  0  0
 17100  1  0  0  0
 18 19  2  0  0  0
 18101  1  0  0  0
 19 20  1  0  0  0
 19 24  1  0  0  0
 20 21  2  0  0  0
 20102  1  0  0  0
 21 23  1  0  0  0
 22 28  1  0  0  0
 22 32  2  0  0  0
 26 27  1  0  0  0
 28103  1  0  0  0
 28104  1  0  0  0
 29105  1  0  0  0
 29106  1  0  0  0
 33 34  1  0  0  0
 33 66  1  0  0  0
 33 70  2  0  0  0
 34 36  1  0  0  0
 34 59  1  0  0  0
 34107  1  0  0  0
 35 44  2  0  0  0
 35 45  1  0  0  0
 35 68  1  0  0  0
 36 56  1  0  0  0
 36108  1  0  0  0
 37 39  1  0  0  0
 37 47  1  0  0  0
 37 66  1  0  0  0
 37109  1  0  0  0
 38 43  2  0  0  0
 38 46  1  0  0  0
 38 47  1  0  0  0
 39 64  1  0  0  0
 39 67  2  0  0  0
 40 52  1  0  0  0
 40 53  2  0  0  0
 40 58  1  0  0  0
 41110  1  0  0  0
 41111  1  0  0  0
 41112  1  0  0  0
 41 48  1  0  0  0
 42 43  1  0  0  0
 42 66  1  0  0  0
 42113  1  0  0  0
 42114  1  0  0  0
 43 44  1  0  0  0
 44115  1  0  0  0
 45 46  2  0  0  0
 45116  1  0  0  0
 46117  1  0  0  0
 47118  1  0  0  0
 47119  1  0  0  0
 48 56  1  0  0  0
 48 65  1  0  0  0
 48120  1  0  0  0
 49 50  1  0  0  0
 49 53  1  0  0  0
 49 64  1  0  0  0
 49121  1  0  0  0
 50 51  1  0  0  0
 50122  1  0  0  0
 50123  1  0  0  0
 51 52  1  0  0  0
 51124  1  0  0  0
 51125  1  0  0  0
 52126  1  0  0  0
 52127  1  0  0  0
 53 54  1  0  0  0
 54 55  2  0  0  0
 54128  1  0  0  0
 55 57  1  0  0  0
 55129  1  0  0  0
 56 69  2  0  0  0
 57 58  2  0  0  0
 57130  1  0  0  0
 58131  1  0  0  0
 59 60  1  0  0  0
 59 61  1  0  0  0
 59 62  1  0  0  0
 60132  1  0  0  0
 60133  1  0  0  0
 60134  1  0  0  0
 61135  1  0  0  0
 61136  1  0  0  0
 61137  1  0  0  0
 62138  1  0  0  0
 62139  1  0  0  0
 62140  1  0  0  0
 63 65  1  0  0  0
 63141  1  0  0  0
 63142  1  0  0  0
 63143  1  0  0  0
 64144  1  0  0  0
 65145  1  0  0  0
 68 83  1  0  0  0
 71 72  2  0  0  0
 71 74  1  0  0  0
 71146  1  0  0  0
 72 75  1  0  0  0
 72147  1  0  0  0
 73 74  2  0  0  0
 73 76  1  0  0  0
 73 81  1  0  0  0
 74 84  1  0  0  0
 75 76  2  0  0  0
 75 85  1  0  0  0
 76 86  1  0  0  0
 77 78  1  0  0  0
 77 79  1  0  0  0
 77148  1  0  0  0
 77149  1  0  0  0
 78 80  1  0  0  0
 78150  1  0  0  0
 78151  1  0  0  0
 79 84  1  0  0  0
 79152  1  0  0  0
 79153  1  0  0  0
 80 82  1  0  0  0
 80 83  1  0  0  0
 80 84  1  0  0  0
 81154  1  0  0  0
 81155  1  0  0  0
 81156  1  0  0  0
 82157  1  0  0  0
 82158  1  0  0  0
 82159  1  0  0  0
 83160  1  0  0  0
 83161  1  0  0  0
 85162  1  0  0  0
M  ISO  4   1 100  68 101  83 101  85 100
M  END
> <chiral flag>
0

> <version>
0

> <s_m_source_file>
/data/baiqing/PycharmProjects/Reinvent-master-3.2/result/LINK_invent/BTK/process_docking_weight1_custom_product_contain_oxygen_bond_distance_aromatic_linkinvent_7_9_3/rearranged_h_0025.sdf

> <i_m_source_file_index>
100

> <r_mmod_Potential_Energy-OPLS-2005>
519.073852539062

> <r_mmod_Stretch_Energy-OPLS-2005>
220.315048217773

> <r_mmod_Bend_Energy-OPLS-2005>
321.509124755859

> <r_mmod_Torsional_Energy-OPLS-2005>
311.906646728516

> <r_mmod_Improper_Torsional_Energy-OPLS-2005>
11.2221546173096

> <r_mmod_Van_der_Waal_Energy-OPLS-2005>
135.985229492188

> <r_mmod_Electrostatic_Energy-OPLS-2005>
-424.149566650391

> <r_mmod_Solvation_Energy-OPLS-2005>
-221.22412109375

> <b_mmod_Minimization_Converged-OPLS-2005>
0

> <r_mmod_RMS_Derivative-OPLS-2005>
1.64176678657532

$$$$
